
     RDKit          3D

 59 62  0  0  0  0  0  0  0  0999 V2000
    6.4637   -1.2371   -0.1718 C   0  0  0  0  0  0  0  0  0  0  0  0
    5.1499   -1.3320    1.0249 S   0  0  0  0  0  6  0  0  0  0  0  0
    5.7496   -1.3665    2.4023 O   0  0  0  0  0  0  0  0  0  0  0  0
    4.3602   -2.5915    0.8010 O   0  0  0  0  0  0  0  0  0  0  0  0
    4.1285    0.0713    0.8825 N   0  0  0  0  0  0  0  0  0  0  0  0
    3.2132   -0.0291   -0.2724 C   0  0  0  0  0  0  0  0  0  0  0  0
    3.0453    1.3604   -0.8955 C   0  0  0  0  0  0  0  0  0  0  0  0
    2.2990    2.2948    0.0518 C   0  0  0  0  0  0  0  0  0  0  0  0
    0.9062    1.7478    0.3373 C   0  0  0  0  0  0  0  0  0  0  0  0
    0.9495    0.3431    0.7930 N   0  0  0  0  0  0  0  0  0  0  0  0
    0.1109   -0.0345    1.9121 C   0  0  0  0  0  0  0  0  0  0  0  0
    0.0526    0.7223    2.9187 O   0  0  0  0  0  0  0  0  0  0  0  0
   -0.7604   -1.2704    1.8973 C   0  0  0  0  0  0  0  0  0  0  0  0
   -1.9419   -1.0697    1.1066 O   0  0  0  0  0  0  0  0  0  0  0  0
   -2.9531   -0.1278    1.3662 C   0  0  0  0  0  0  0  0  0  0  0  0
   -3.1627    0.3303    2.6840 C   0  0  0  0  0  0  0  0  0  0  0  0
   -4.1575    1.2615    2.9711 C   0  0  0  0  0  0  0  0  0  0  0  0
   -4.9619    1.7569    1.9529 C   0  0  0  0  0  0  0  0  0  0  0  0
   -4.7781    1.3202    0.6429 C   0  0  0  0  0  0  0  0  0  0  0  0
   -3.7901    0.3655    0.3157 C   0  0  0  0  0  0  0  0  0  0  0  0
   -3.6468    0.0297   -1.1813 C   0  0  0  0  0  0  0  0  0  0  0  0
   -3.2640   -1.4385   -1.5175 C   0  0  0  0  0  0  0  0  0  0  0  0
   -1.7611   -1.7187   -1.7557 C   0  0  0  0  0  0  0  0  0  0  0  0
   -0.8854   -0.4474   -1.6496 C   0  0  0  0  0  0  0  0  0  0  0  0
   -1.5008    0.6174   -2.5506 C   0  0  0  0  0  0  0  0  0  0  0  0
   -2.8255    1.1150   -1.9473 C   0  0  0  0  0  0  0  0  0  0  0  0
    0.4785   -0.6464   -1.9934 O   0  0  0  0  0  0  0  0  0  0  0  0
    1.1652   -1.4358   -1.0290 C   0  0  0  0  0  0  0  0  0  0  0  0
    1.8375   -0.6483    0.1352 C   0  0  0  0  0  0  0  0  0  0  0  0
    6.0441   -1.2837   -1.1974 H   0  0  0  0  0  0  0  0  0  0  0  0
    7.0131   -0.2820   -0.0427 H   0  0  0  0  0  0  0  0  0  0  0  0
    7.1621   -2.0865   -0.0239 H   0  0  0  0  0  0  0  0  0  0  0  0
    3.5923    0.1748    1.7752 H   0  0  0  0  0  0  0  0  0  0  0  0
    3.6845   -0.6564   -1.0610 H   0  0  0  0  0  0  0  0  0  0  0  0
    4.0459    1.7899   -1.1208 H   0  0  0  0  0  0  0  0  0  0  0  0
    2.4914    1.2795   -1.8568 H   0  0  0  0  0  0  0  0  0  0  0  0
    2.2088    3.2977   -0.4188 H   0  0  0  0  0  0  0  0  0  0  0  0
    2.8598    2.4170    1.0036 H   0  0  0  0  0  0  0  0  0  0  0  0
    0.4219    2.4015    1.0947 H   0  0  0  0  0  0  0  0  0  0  0  0
    0.3024    1.8309   -0.5852 H   0  0  0  0  0  0  0  0  0  0  0  0
   -1.0358   -1.5655    2.9312 H   0  0  0  0  0  0  0  0  0  0  0  0
   -0.1946   -2.1278    1.4899 H   0  0  0  0  0  0  0  0  0  0  0  0
   -2.5665   -0.0376    3.5055 H   0  0  0  0  0  0  0  0  0  0  0  0
   -4.3039    1.6009    3.9885 H   0  0  0  0  0  0  0  0  0  0  0  0
   -5.7288    2.4871    2.1773 H   0  0  0  0  0  0  0  0  0  0  0  0
   -5.4104    1.7426   -0.1288 H   0  0  0  0  0  0  0  0  0  0  0  0
   -4.6809    0.1122   -1.5906 H   0  0  0  0  0  0  0  0  0  0  0  0
   -3.6576   -2.1149   -0.7269 H   0  0  0  0  0  0  0  0  0  0  0  0
   -3.8018   -1.7292   -2.4482 H   0  0  0  0  0  0  0  0  0  0  0  0
   -1.4636   -2.4947   -1.0261 H   0  0  0  0  0  0  0  0  0  0  0  0
   -1.6207   -2.1679   -2.7638 H   0  0  0  0  0  0  0  0  0  0  0  0
   -0.9436   -0.0354   -0.6425 H   0  0  0  0  0  0  0  0  0  0  0  0
   -0.8047    1.4765   -2.6648 H   0  0  0  0  0  0  0  0  0  0  0  0
   -1.6788    0.2016   -3.5675 H   0  0  0  0  0  0  0  0  0  0  0  0
   -2.5985    1.9673   -1.2686 H   0  0  0  0  0  0  0  0  0  0  0  0
   -3.4418    1.5364   -2.7720 H   0  0  0  0  0  0  0  0  0  0  0  0
    1.9528   -1.9969   -1.5739 H   0  0  0  0  0  0  0  0  0  0  0  0
    0.5566   -2.2516   -0.6084 H   0  0  0  0  0  0  0  0  0  0  0  0
    2.0758   -1.4281    0.8917 H   0  0  0  0  0  0  0  0  0  0  0  0
  1  2  1  0
  2  3  2  0
  2  4  2  0
  2  5  1  0
  5  6  1  0
  6  7  1  0
  7  8  1  0
  8  9  1  0
  9 10  1  0
 10 11  1  0
 11 12  2  0
 11 13  1  0
 13 14  1  0
 14 15  1  0
 15 16  2  0
 16 17  1  0
 17 18  2  0
 18 19  1  0
 19 20  2  0
 20 21  1  0
 21 22  1  0
 22 23  1  0
 23 24  1  0
 24 25  1  0
 25 26  1  0
 24 27  1  0
 27 28  1  0
 28 29  1  0
 29  6  1  0
 29 10  1  0
 20 15  1  0
 26 21  1  0
  1 30  1  0
  1 31  1  0
  1 32  1  0
  5 33  1  0
  6 34  1  0
  7 35  1  0
  7 36  1  0
  8 37  1  0
  8 38  1  0
  9 39  1  0
  9 40  1  0
 13 41  1  0
 13 42  1  0
 16 43  1  0
 17 44  1  0
 18 45  1  0
 19 46  1  0
 21 47  1  0
 22 48  1  0
 22 49  1  0
 23 50  1  0
 23 51  1  0
 24 52  1  0
 25 53  1  0
 25 54  1  0
 26 55  1  0
 26 56  1  0
 28 57  1  0
 28 58  1  0
 29 59  1  0
M  END
$$$$
