
     RDKit          3D

 62 65  0  0  0  0  0  0  0  0999 V2000
    4.0429   -2.1871   -0.9129 C   0  0  0  0  0  0  0  0  0  0  0  0
    4.5449   -0.5621   -1.4468 S   0  0  0  0  0  6  0  0  0  0  0  0
    5.9855   -0.6367   -2.0294 N   0  0  0  0  0  0  0  0  0  0  0  0
    3.4374    0.0283   -2.7181 C   0  0  0  0  0  0  0  0  0  0  0  0
    2.0258    0.0956   -2.2042 C   0  0  0  0  0  0  0  0  0  0  0  0
    1.1539   -0.9861   -2.3799 C   0  0  0  0  0  0  0  0  0  0  0  0
   -0.1449   -0.9315   -1.8532 C   0  0  0  0  0  0  0  0  0  0  0  0
   -0.5480    0.1858   -1.1852 N   0  0  0  0  0  0  0  0  0  0  0  0
    0.2752    1.2615   -1.0137 C   0  0  0  0  0  0  0  0  0  0  0  0
    1.5810    1.2231   -1.5054 C   0  0  0  0  0  0  0  0  0  0  0  0
   -0.1716    2.4227   -0.3735 O   0  0  0  0  0  0  0  0  0  0  0  0
   -1.5191    2.6179    0.0417 C   0  0  0  0  0  0  0  0  0  0  0  0
   -1.7421    2.0410    1.4442 C   0  0  0  0  0  0  0  0  0  0  0  0
   -3.2347    1.8947    1.7309 C   0  0  0  0  0  0  0  0  0  0  0  0
   -3.7282    0.7805    0.9929 O   0  0  0  0  0  0  0  0  0  0  0  0
   -5.0708    0.5243    0.6804 C   0  0  0  0  0  0  0  0  0  0  0  0
   -6.1060    1.4171    1.0253 C   0  0  0  0  0  0  0  0  0  0  0  0
   -7.4275    1.1384    0.6683 C   0  0  0  0  0  0  0  0  0  0  0  0
   -8.4159    2.0061    0.9983 F   0  0  0  0  0  0  0  0  0  0  0  0
   -7.7328   -0.0316   -0.0269 C   0  0  0  0  0  0  0  0  0  0  0  0
   -6.7204   -0.9345   -0.3548 C   0  0  0  0  0  0  0  0  0  0  0  0
   -5.3857   -0.6701   -0.0010 C   0  0  0  0  0  0  0  0  0  0  0  0
   -4.3383   -1.6832   -0.2837 C   0  0  0  0  0  0  0  0  0  0  0  0
   -3.1711   -1.3430   -0.9952 C   0  0  0  0  0  0  0  0  0  0  0  0
   -2.1954   -2.3269   -1.2389 C   0  0  0  0  0  0  0  0  0  0  0  0
   -2.4099   -3.5986   -0.8054 N   0  0  0  0  0  0  0  0  0  0  0  0
   -3.5203   -3.9522   -0.1109 C   0  0  0  0  0  0  0  0  0  0  0  0
   -4.5024   -3.0041    0.1666 C   0  0  0  0  0  0  0  0  0  0  0  0
   -5.5950   -3.3690    0.8853 F   0  0  0  0  0  0  0  0  0  0  0  0
   -1.0182   -2.0634   -2.0175 N   0  0  0  0  0  0  0  0  0  0  0  0
    4.5194    0.4272   -0.2397 N   0  0  0  0  0  0  0  0  0  0  0  0
    5.3541    0.2484    0.9267 C   0  0  0  0  0  0  0  0  0  0  0  0
    6.2515    1.4746    1.1050 C   0  0  0  0  0  0  0  0  0  0  0  0
    7.2068    1.3216    2.2923 C   0  0  0  0  0  0  0  0  0  0  0  0
    6.4964    1.3036    3.5023 O   0  0  0  0  0  0  0  0  0  0  0  0
    3.9231   -2.8468   -1.7967 H   0  0  0  0  0  0  0  0  0  0  0  0
    3.0775   -2.1201   -0.3700 H   0  0  0  0  0  0  0  0  0  0  0  0
    4.8120   -2.6160   -0.2383 H   0  0  0  0  0  0  0  0  0  0  0  0
    6.4420    0.2123   -2.3911 H   0  0  0  0  0  0  0  0  0  0  0  0
    3.7710    1.0348   -3.0500 H   0  0  0  0  0  0  0  0  0  0  0  0
    3.4997   -0.6503   -3.5957 H   0  0  0  0  0  0  0  0  0  0  0  0
    1.4893   -1.8722   -2.9053 H   0  0  0  0  0  0  0  0  0  0  0  0
    2.2374    2.0719   -1.3566 H   0  0  0  0  0  0  0  0  0  0  0  0
   -1.7261    3.7090    0.0662 H   0  0  0  0  0  0  0  0  0  0  0  0
   -2.2139    2.1662   -0.7011 H   0  0  0  0  0  0  0  0  0  0  0  0
   -1.2523    1.0467    1.5337 H   0  0  0  0  0  0  0  0  0  0  0  0
   -1.2831    2.7201    2.1949 H   0  0  0  0  0  0  0  0  0  0  0  0
   -3.3983    1.7164    2.8151 H   0  0  0  0  0  0  0  0  0  0  0  0
   -3.7478    2.8345    1.4341 H   0  0  0  0  0  0  0  0  0  0  0  0
   -5.9059    2.3262    1.5728 H   0  0  0  0  0  0  0  0  0  0  0  0
   -8.7572   -0.2455   -0.3038 H   0  0  0  0  0  0  0  0  0  0  0  0
   -6.9778   -1.8438   -0.8845 H   0  0  0  0  0  0  0  0  0  0  0  0
   -3.0516   -0.3421   -1.3882 H   0  0  0  0  0  0  0  0  0  0  0  0
   -3.6398   -4.9734    0.2256 H   0  0  0  0  0  0  0  0  0  0  0  0
   -0.6463   -2.8743   -2.5632 H   0  0  0  0  0  0  0  0  0  0  0  0
    5.9840   -0.6642    0.8323 H   0  0  0  0  0  0  0  0  0  0  0  0
    4.6971    0.1288    1.8138 H   0  0  0  0  0  0  0  0  0  0  0  0
    5.6226    2.3804    1.2509 H   0  0  0  0  0  0  0  0  0  0  0  0
    6.8546    1.6186    0.1815 H   0  0  0  0  0  0  0  0  0  0  0  0
    7.8313    0.4051    2.1757 H   0  0  0  0  0  0  0  0  0  0  0  0
    7.8966    2.1919    2.3063 H   0  0  0  0  0  0  0  0  0  0  0  0
    6.2851    0.3538    3.6983 H   0  0  0  0  0  0  0  0  0  0  0  0
  1  2  1  0
  2  3  2  0
  2  4  1  0
  4  5  1  0
  5  6  2  0
  6  7  1  0
  7  8  2  0
  8  9  1  0
  9 10  2  0
  9 11  1  0
 11 12  1  0
 12 13  1  0
 13 14  1  0
 14 15  1  0
 15 16  1  0
 16 17  2  0
 17 18  1  0
 18 19  1  0
 18 20  2  0
 20 21  1  0
 21 22  2  0
 22 23  1  0
 23 24  2  0
 24 25  1  0
 25 26  2  0
 26 27  1  0
 27 28  2  0
 28 29  1  0
 25 30  1  0
  2 31  2  0
 31 32  1  0
 32 33  1  0
 33 34  1  0
 34 35  1  0
 10  5  1  0
 22 16  1  0
 28 23  1  0
 30  7  1  0
  1 36  1  0
  1 37  1  0
  1 38  1  0
  3 39  1  0
  4 40  1  0
  4 41  1  0
  6 42  1  0
 10 43  1  0
 12 44  1  0
 12 45  1  0
 13 46  1  0
 13 47  1  0
 14 48  1  0
 14 49  1  0
 17 50  1  0
 20 51  1  0
 21 52  1  0
 24 53  1  0
 27 54  1  0
 30 55  1  0
 32 56  1  0
 32 57  1  0
 33 58  1  0
 33 59  1  0
 34 60  1  0
 34 61  1  0
 35 62  1  0
M  END
$$$$
