
     RDKit          3D

 63 66  0  0  0  0  0  0  0  0999 V2000
    1.4949   -1.6441   -2.3753 C   0  0  0  0  0  0  0  0  0  0  0  0
    0.4168   -1.2842   -1.3383 C   0  0  0  0  0  0  0  0  0  0  0  0
   -0.4736   -0.1526   -1.8766 C   0  0  0  0  0  0  0  0  0  0  0  0
   -1.5650    0.1006   -0.9942 O   0  0  0  0  0  0  0  0  0  0  0  0
   -2.8322   -0.4995   -1.0416 C   0  0  0  0  0  0  0  0  0  0  0  0
   -3.0722   -1.6415   -1.8333 C   0  0  0  0  0  0  0  0  0  0  0  0
   -4.3350   -2.2314   -1.8656 C   0  0  0  0  0  0  0  0  0  0  0  0
   -5.3746   -1.6971   -1.1106 C   0  0  0  0  0  0  0  0  0  0  0  0
   -5.1580   -0.5666   -0.3233 C   0  0  0  0  0  0  0  0  0  0  0  0
   -3.8959    0.0604   -0.2839 C   0  0  0  0  0  0  0  0  0  0  0  0
   -3.7290    1.2783    0.6303 C   0  0  0  0  0  0  0  0  0  0  0  0
   -2.9886    2.4813   -0.0253 C   0  0  0  0  0  0  0  0  0  0  0  0
   -1.9233    3.1064    0.8875 C   0  0  0  0  0  0  0  0  0  0  0  0
   -0.9341    2.0730    1.4634 C   0  0  0  0  0  0  0  0  0  0  0  0
   -1.6359    0.8097    2.0370 C   0  0  0  0  0  0  0  0  0  0  0  0
   -3.1653    0.8806    2.0127 C   0  0  0  0  0  0  0  0  0  0  0  0
   -0.0059    1.6990    0.4561 O   0  0  0  0  0  0  0  0  0  0  0  0
    1.2230    1.2825    1.0238 C   0  0  0  0  0  0  0  0  0  0  0  0
    1.8905    0.1787    0.1678 C   0  0  0  0  0  0  0  0  0  0  0  0
    3.2674   -0.1929    0.8295 C   0  0  0  0  0  0  0  0  0  0  0  0
    4.1713   -0.9109   -0.0911 N   0  0  0  0  0  0  0  0  0  0  0  0
    5.3832    0.1342   -0.7777 S   0  0  0  0  0  6  0  0  0  0  0  0
    4.6439    1.4767   -1.6850 C   0  0  0  0  0  0  0  0  0  0  0  0
    6.2407   -0.6671   -1.7158 O   0  0  0  0  0  0  0  0  0  0  0  0
    6.2488    0.6909    0.3179 O   0  0  0  0  0  0  0  0  0  0  0  0
    3.0987   -1.0243    2.1249 C   0  0  0  0  0  0  0  0  0  0  0  0
    1.8282   -1.8859    2.1582 C   0  0  0  0  0  0  0  0  0  0  0  0
    1.3317   -2.2115    0.7550 C   0  0  0  0  0  0  0  0  0  0  0  0
    0.9529   -0.9824    0.0248 N   0  0  0  0  0  0  0  0  0  0  0  0
    1.0096   -1.9227   -3.3351 H   0  0  0  0  0  0  0  0  0  0  0  0
    2.1698   -0.7893   -2.5811 H   0  0  0  0  0  0  0  0  0  0  0  0
    2.0813   -2.5266   -2.0514 H   0  0  0  0  0  0  0  0  0  0  0  0
   -0.2435   -2.1761   -1.2639 H   0  0  0  0  0  0  0  0  0  0  0  0
    0.1188    0.7788   -1.9793 H   0  0  0  0  0  0  0  0  0  0  0  0
   -0.8489   -0.3837   -2.8969 H   0  0  0  0  0  0  0  0  0  0  0  0
   -2.2880   -2.0915   -2.4241 H   0  0  0  0  0  0  0  0  0  0  0  0
   -4.5061   -3.1100   -2.4743 H   0  0  0  0  0  0  0  0  0  0  0  0
   -6.3518   -2.1623   -1.1316 H   0  0  0  0  0  0  0  0  0  0  0  0
   -5.9837   -0.1808    0.2619 H   0  0  0  0  0  0  0  0  0  0  0  0
   -4.7524    1.6615    0.8487 H   0  0  0  0  0  0  0  0  0  0  0  0
   -3.7324    3.2734   -0.2646 H   0  0  0  0  0  0  0  0  0  0  0  0
   -2.5338    2.2314   -1.0025 H   0  0  0  0  0  0  0  0  0  0  0  0
   -1.3627    3.8822    0.3217 H   0  0  0  0  0  0  0  0  0  0  0  0
   -2.4355    3.6261    1.7275 H   0  0  0  0  0  0  0  0  0  0  0  0
   -0.4179    2.6060    2.2996 H   0  0  0  0  0  0  0  0  0  0  0  0
   -1.3144   -0.1022    1.4922 H   0  0  0  0  0  0  0  0  0  0  0  0
   -1.3104    0.6623    3.0899 H   0  0  0  0  0  0  0  0  0  0  0  0
   -3.4912    1.6312    2.7667 H   0  0  0  0  0  0  0  0  0  0  0  0
   -3.5870   -0.0967    2.3357 H   0  0  0  0  0  0  0  0  0  0  0  0
    1.1106    0.9018    2.0644 H   0  0  0  0  0  0  0  0  0  0  0  0
    1.8946    2.1677    1.0679 H   0  0  0  0  0  0  0  0  0  0  0  0
    2.1018    0.6344   -0.8191 H   0  0  0  0  0  0  0  0  0  0  0  0
    3.7588    0.7542    1.1499 H   0  0  0  0  0  0  0  0  0  0  0  0
    3.6530   -1.3475   -0.8777 H   0  0  0  0  0  0  0  0  0  0  0  0
    4.0779    2.1336   -0.9932 H   0  0  0  0  0  0  0  0  0  0  0  0
    5.4403    2.0715   -2.1776 H   0  0  0  0  0  0  0  0  0  0  0  0
    3.9604    1.0717   -2.4589 H   0  0  0  0  0  0  0  0  0  0  0  0
    3.9879   -1.6779    2.2667 H   0  0  0  0  0  0  0  0  0  0  0  0
    3.0769   -0.3413    3.0030 H   0  0  0  0  0  0  0  0  0  0  0  0
    1.0222   -1.3565    2.7114 H   0  0  0  0  0  0  0  0  0  0  0  0
    2.0362   -2.8312    2.7051 H   0  0  0  0  0  0  0  0  0  0  0  0
    0.4416   -2.8703    0.8553 H   0  0  0  0  0  0  0  0  0  0  0  0
    2.1144   -2.7813    0.2125 H   0  0  0  0  0  0  0  0  0  0  0  0
  1  2  1  0
  2  3  1  0
  3  4  1  0
  4  5  1  0
  5  6  2  0
  6  7  1  0
  7  8  2  0
  8  9  1  0
  9 10  2  0
 10 11  1  0
 11 12  1  0
 12 13  1  0
 13 14  1  0
 14 15  1  0
 15 16  1  0
 14 17  1  0
 17 18  1  0
 18 19  1  0
 19 20  1  0
 20 21  1  0
 21 22  1  0
 22 23  1  0
 22 24  2  0
 22 25  2  0
 20 26  1  0
 26 27  1  0
 27 28  1  0
 28 29  1  0
 29  2  1  0
 10  5  1  0
 16 11  1  0
 29 19  1  0
  1 30  1  0
  1 31  1  0
  1 32  1  0
  2 33  1  0
  3 34  1  0
  3 35  1  0
  6 36  1  0
  7 37  1  0
  8 38  1  0
  9 39  1  0
 11 40  1  0
 12 41  1  0
 12 42  1  0
 13 43  1  0
 13 44  1  0
 14 45  1  0
 15 46  1  0
 15 47  1  0
 16 48  1  0
 16 49  1  0
 18 50  1  0
 18 51  1  0
 19 52  1  0
 20 53  1  0
 21 54  1  0
 23 55  1  0
 23 56  1  0
 23 57  1  0
 26 58  1  0
 26 59  1  0
 27 60  1  0
 27 61  1  0
 28 62  1  0
 28 63  1  0
M  END
$$$$
