
     RDKit          3D

 77 80  0  0  0  0  0  0  0  0999 V2000
   -2.6940    5.3651    1.7062 C   0  0  0  0  0  0  0  0  0  0  0  0
   -2.3385    4.7971    0.3333 C   0  0  0  0  0  0  0  0  0  0  0  0
   -2.5856    3.2793    0.2716 C   0  0  0  0  0  0  0  0  0  0  0  0
   -1.9397    2.6392   -0.9757 C   0  0  0  0  0  0  0  0  0  0  0  0
   -2.1436    1.1552   -1.0029 N   0  0  0  0  0  0  0  0  0  0  0  0
   -3.4175    0.8806   -1.7360 C   0  0  0  0  0  0  0  0  0  0  0  0
   -3.8189   -0.6006   -1.8456 C   0  0  0  0  0  0  0  0  0  0  0  0
   -4.7632   -0.9914   -0.8518 O   0  0  0  0  0  0  0  0  0  0  0  0
   -4.4553   -1.7341    0.3005 C   0  0  0  0  0  0  0  0  0  0  0  0
   -4.9806   -1.2535    1.5112 C   0  0  0  0  0  0  0  0  0  0  0  0
   -4.7383   -1.9281    2.7120 C   0  0  0  0  0  0  0  0  0  0  0  0
   -3.9859   -3.1011    2.7185 C   0  0  0  0  0  0  0  0  0  0  0  0
   -3.4788   -3.6155    1.5233 C   0  0  0  0  0  0  0  0  0  0  0  0
   -3.6929   -2.9446    0.3004 C   0  0  0  0  0  0  0  0  0  0  0  0
   -3.1586   -3.6023   -0.9673 C   0  0  0  0  0  0  0  0  0  0  0  0
   -1.6530   -3.3485   -1.3069 C   0  0  0  0  0  0  0  0  0  0  0  0
   -0.7348   -2.8784   -0.1563 C   0  0  0  0  0  0  0  0  0  0  0  0
   -0.8731   -1.3798    0.2834 C   0  0  0  0  0  0  0  0  0  0  0  0
   -0.0424   -0.2352   -0.4441 C   0  0  0  0  0  0  0  0  0  0  0  0
    0.3585    0.8704    0.5947 C   0  0  0  0  0  0  0  0  0  0  0  0
    1.4384    0.4398    1.6017 C   0  0  0  0  0  0  0  0  0  0  0  0
    2.6034   -0.1264    0.9174 N   0  0  0  0  0  0  0  0  0  0  0  0
    3.8992   -0.0378    1.5507 C   0  0  0  0  0  0  0  0  0  0  0  0
    3.9744    0.1492    2.8068 O   0  0  0  0  0  0  0  0  0  0  0  0
    5.1491   -0.0901    0.7771 C   0  0  0  0  0  0  0  0  0  0  0  0
    6.1290   -1.0390    1.1160 C   0  0  0  0  0  0  0  0  0  0  0  0
    7.2991   -1.0834    0.4446 N   0  0  0  0  0  0  0  0  0  0  0  0
    7.5599   -0.2272   -0.5803 C   0  0  0  0  0  0  0  0  0  0  0  0
    8.8810   -0.2543   -1.2605 C   0  0  0  0  0  0  0  0  0  0  0  0
    6.6318    0.7217   -0.9141 N   0  0  0  0  0  0  0  0  0  0  0  0
    5.4417    0.8086   -0.2751 C   0  0  0  0  0  0  0  0  0  0  0  0
    4.4599    1.8721   -0.7031 C   0  0  0  0  0  0  0  0  0  0  0  0
    2.3604   -1.1779   -0.0806 C   0  0  0  0  0  0  0  0  0  0  0  0
    1.2822   -0.7532   -1.0975 C   0  0  0  0  0  0  0  0  0  0  0  0
   -0.9356    0.4467   -1.5614 C   0  0  0  0  0  0  0  0  0  0  0  0
   -2.4959    6.4590    1.7178 H   0  0  0  0  0  0  0  0  0  0  0  0
   -2.0656    4.8856    2.4905 H   0  0  0  0  0  0  0  0  0  0  0  0
   -3.7655    5.1928    1.9474 H   0  0  0  0  0  0  0  0  0  0  0  0
   -1.2674    5.0238    0.1299 H   0  0  0  0  0  0  0  0  0  0  0  0
   -2.9548    5.3036   -0.4441 H   0  0  0  0  0  0  0  0  0  0  0  0
   -3.6814    3.0939    0.2672 H   0  0  0  0  0  0  0  0  0  0  0  0
   -2.1595    2.7948    1.1737 H   0  0  0  0  0  0  0  0  0  0  0  0
   -2.3586    3.1260   -1.8912 H   0  0  0  0  0  0  0  0  0  0  0  0
   -0.8629    2.9127   -0.9722 H   0  0  0  0  0  0  0  0  0  0  0  0
   -3.3761    1.3041   -2.7598 H   0  0  0  0  0  0  0  0  0  0  0  0
   -4.2415    1.3888   -1.1962 H   0  0  0  0  0  0  0  0  0  0  0  0
   -2.9486   -1.2222   -1.8069 H   0  0  0  0  0  0  0  0  0  0  0  0
   -4.2770   -0.7761   -2.8476 H   0  0  0  0  0  0  0  0  0  0  0  0
   -5.5614   -0.3398    1.5174 H   0  0  0  0  0  0  0  0  0  0  0  0
   -5.1413   -1.5367    3.6386 H   0  0  0  0  0  0  0  0  0  0  0  0
   -3.8066   -3.6271    3.6501 H   0  0  0  0  0  0  0  0  0  0  0  0
   -2.9248   -4.5495    1.5515 H   0  0  0  0  0  0  0  0  0  0  0  0
   -3.3077   -4.6969   -0.8624 H   0  0  0  0  0  0  0  0  0  0  0  0
   -3.8009   -3.3283   -1.8334 H   0  0  0  0  0  0  0  0  0  0  0  0
   -1.5287   -2.6792   -2.1789 H   0  0  0  0  0  0  0  0  0  0  0  0
   -1.2442   -4.3113   -1.6794 H   0  0  0  0  0  0  0  0  0  0  0  0
    0.3054   -3.1371   -0.4130 H   0  0  0  0  0  0  0  0  0  0  0  0
   -0.9345   -3.5249    0.7235 H   0  0  0  0  0  0  0  0  0  0  0  0
   -0.6305   -1.3798    1.3636 H   0  0  0  0  0  0  0  0  0  0  0  0
   -1.9400   -1.0884    0.2874 H   0  0  0  0  0  0  0  0  0  0  0  0
   -0.5308    1.2015    1.1666 H   0  0  0  0  0  0  0  0  0  0  0  0
    0.7652    1.7566    0.0550 H   0  0  0  0  0  0  0  0  0  0  0  0
    1.0459   -0.2963    2.3364 H   0  0  0  0  0  0  0  0  0  0  0  0
    1.7408    1.3418    2.1848 H   0  0  0  0  0  0  0  0  0  0  0  0
    5.9492   -1.7403    1.9209 H   0  0  0  0  0  0  0  0  0  0  0  0
    9.6152    0.3350   -0.6658 H   0  0  0  0  0  0  0  0  0  0  0  0
    8.8120    0.1824   -2.2853 H   0  0  0  0  0  0  0  0  0  0  0  0
    9.2392   -1.3054   -1.3396 H   0  0  0  0  0  0  0  0  0  0  0  0
    3.6272    1.4054   -1.2677 H   0  0  0  0  0  0  0  0  0  0  0  0
    4.9556    2.6183   -1.3601 H   0  0  0  0  0  0  0  0  0  0  0  0
    4.0431    2.4058    0.1774 H   0  0  0  0  0  0  0  0  0  0  0  0
    3.2971   -1.4044   -0.6360 H   0  0  0  0  0  0  0  0  0  0  0  0
    2.0680   -2.1053    0.4444 H   0  0  0  0  0  0  0  0  0  0  0  0
    1.7263    0.0457   -1.7297 H   0  0  0  0  0  0  0  0  0  0  0  0
    1.0797   -1.5910   -1.7956 H   0  0  0  0  0  0  0  0  0  0  0  0
   -0.3047    1.1451   -2.1542 H   0  0  0  0  0  0  0  0  0  0  0  0
   -1.1967   -0.3049   -2.3356 H   0  0  0  0  0  0  0  0  0  0  0  0
  1  2  1  0
  2  3  1  0
  3  4  1  0
  4  5  1  0
  5  6  1  0
  6  7  1  0
  7  8  1  0
  8  9  1  0
  9 10  2  0
 10 11  1  0
 11 12  2  0
 12 13  1  0
 13 14  2  0
 14 15  1  0
 15 16  1  0
 16 17  1  0
 17 18  1  0
 18 19  1  0
 19 20  1  0
 20 21  1  0
 21 22  1  0
 22 23  1  0
 23 24  2  0
 23 25  1  0
 25 26  2  0
 26 27  1  0
 27 28  2  0
 28 29  1  0
 28 30  1  0
 30 31  2  0
 31 32  1  0
 22 33  1  0
 33 34  1  0
 19 35  1  0
 35  5  1  0
 14  9  1  0
 34 19  1  0
 31 25  1  0
  1 36  1  0
  1 37  1  0
  1 38  1  0
  2 39  1  0
  2 40  1  0
  3 41  1  0
  3 42  1  0
  4 43  1  0
  4 44  1  0
  6 45  1  0
  6 46  1  0
  7 47  1  0
  7 48  1  0
 10 49  1  0
 11 50  1  0
 12 51  1  0
 13 52  1  0
 15 53  1  0
 15 54  1  0
 16 55  1  0
 16 56  1  0
 17 57  1  0
 17 58  1  0
 18 59  1  0
 18 60  1  0
 20 61  1  0
 20 62  1  0
 21 63  1  0
 21 64  1  0
 26 65  1  0
 29 66  1  0
 29 67  1  0
 29 68  1  0
 32 69  1  0
 32 70  1  0
 32 71  1  0
 33 72  1  0
 33 73  1  0
 34 74  1  0
 34 75  1  0
 35 76  1  0
 35 77  1  0
M  END
$$$$
