
     RDKit          3D

 67 70  0  0  0  0  0  0  0  0999 V2000
    3.9824    1.2438    2.7450 C   0  0  0  0  0  0  0  0  0  0  0  0
    5.3356    1.3680    2.3220 O   0  0  0  0  0  0  0  0  0  0  0  0
    5.7379    1.1402    1.0025 C   0  0  0  0  0  0  0  0  0  0  0  0
    7.0910    1.2314    0.6704 C   0  0  0  0  0  0  0  0  0  0  0  0
    7.4903    0.9951   -0.6455 C   0  0  0  0  0  0  0  0  0  0  0  0
    6.5402    0.6684   -1.6147 C   0  0  0  0  0  0  0  0  0  0  0  0
    5.1858    0.5814   -1.2522 C   0  0  0  0  0  0  0  0  0  0  0  0
    4.1444    0.2647   -2.2554 C   0  0  0  0  0  0  0  0  0  0  0  0
    4.4452    0.2304   -3.4802 O   0  0  0  0  0  0  0  0  0  0  0  0
    2.7793    0.0440   -1.8592 N   0  0  0  0  0  0  0  0  0  0  0  0
    1.6852    0.5614   -2.6813 C   0  0  0  0  0  0  0  0  0  0  0  0
    0.5501    1.0985   -1.7903 C   0  0  0  0  0  0  0  0  0  0  0  0
    0.1087    0.1236   -0.6449 C   0  0  0  0  0  0  0  0  0  0  0  0
   -0.7632    0.9267    0.3839 C   0  0  0  0  0  0  0  0  0  0  0  0
   -1.9780    1.6901   -0.2053 C   0  0  0  0  0  0  0  0  0  0  0  0
   -2.7953    2.4364    0.8653 C   0  0  0  0  0  0  0  0  0  0  0  0
   -3.5951    1.5272    1.8148 C   0  0  0  0  0  0  0  0  0  0  0  0
   -4.6876    0.7578    1.1049 C   0  0  0  0  0  0  0  0  0  0  0  0
   -5.9356    1.3669    0.8939 C   0  0  0  0  0  0  0  0  0  0  0  0
   -6.9701    0.6628    0.2732 C   0  0  0  0  0  0  0  0  0  0  0  0
   -6.7677   -0.6514   -0.1472 C   0  0  0  0  0  0  0  0  0  0  0  0
   -5.5268   -1.2647    0.0387 C   0  0  0  0  0  0  0  0  0  0  0  0
   -4.4719   -0.5620    0.6532 C   0  0  0  0  0  0  0  0  0  0  0  0
   -3.2009   -1.1293    0.8205 O   0  0  0  0  0  0  0  0  0  0  0  0
   -2.8275   -2.4550    0.4595 C   0  0  0  0  0  0  0  0  0  0  0  0
   -1.3090   -2.6210    0.6594 C   0  0  0  0  0  0  0  0  0  0  0  0
   -0.4844   -2.3883   -0.5545 N   0  0  0  0  0  0  0  0  0  0  0  0
   -0.5799   -3.5212   -1.4940 C   0  0  0  0  0  0  0  0  0  0  0  0
   -0.7042   -1.0897   -1.2475 C   0  0  0  0  0  0  0  0  0  0  0  0
    1.3942   -0.3512    0.1062 C   0  0  0  0  0  0  0  0  0  0  0  0
    2.4410   -0.9460   -0.8364 C   0  0  0  0  0  0  0  0  0  0  0  0
    4.8269    0.8268    0.0392 N   0  0  0  0  0  0  0  0  0  0  0  0
    3.3443    1.9673    2.1936 H   0  0  0  0  0  0  0  0  0  0  0  0
    3.9178    1.4634    3.8297 H   0  0  0  0  0  0  0  0  0  0  0  0
    3.6216    0.2086    2.5646 H   0  0  0  0  0  0  0  0  0  0  0  0
    7.8258    1.4809    1.4254 H   0  0  0  0  0  0  0  0  0  0  0  0
    8.5357    1.0650   -0.9149 H   0  0  0  0  0  0  0  0  0  0  0  0
    6.8609    0.4864   -2.6329 H   0  0  0  0  0  0  0  0  0  0  0  0
    1.3202   -0.2409   -3.3559 H   0  0  0  0  0  0  0  0  0  0  0  0
    2.0457    1.3938   -3.3257 H   0  0  0  0  0  0  0  0  0  0  0  0
    0.9029    2.0553   -1.3440 H   0  0  0  0  0  0  0  0  0  0  0  0
   -0.3140    1.3360   -2.4477 H   0  0  0  0  0  0  0  0  0  0  0  0
   -0.1220    1.6850    0.8872 H   0  0  0  0  0  0  0  0  0  0  0  0
   -1.0973    0.2452    1.1849 H   0  0  0  0  0  0  0  0  0  0  0  0
   -1.6074    2.4616   -0.9127 H   0  0  0  0  0  0  0  0  0  0  0  0
   -2.6523    1.0284   -0.7785 H   0  0  0  0  0  0  0  0  0  0  0  0
   -2.1119    3.0760    1.4663 H   0  0  0  0  0  0  0  0  0  0  0  0
   -3.5062    3.1222    0.3518 H   0  0  0  0  0  0  0  0  0  0  0  0
   -4.0598    2.1701    2.5939 H   0  0  0  0  0  0  0  0  0  0  0  0
   -2.9202    0.8434    2.3690 H   0  0  0  0  0  0  0  0  0  0  0  0
   -6.1110    2.3841    1.2223 H   0  0  0  0  0  0  0  0  0  0  0  0
   -7.9312    1.1363    0.1214 H   0  0  0  0  0  0  0  0  0  0  0  0
   -7.5759   -1.1965   -0.6198 H   0  0  0  0  0  0  0  0  0  0  0  0
   -5.3981   -2.2834   -0.3000 H   0  0  0  0  0  0  0  0  0  0  0  0
   -3.3630   -3.1618    1.1283 H   0  0  0  0  0  0  0  0  0  0  0  0
   -3.1204   -2.6741   -0.5871 H   0  0  0  0  0  0  0  0  0  0  0  0
   -0.9622   -1.9625    1.4798 H   0  0  0  0  0  0  0  0  0  0  0  0
   -1.1181   -3.6477    1.0428 H   0  0  0  0  0  0  0  0  0  0  0  0
   -1.5572   -3.5273   -2.0224 H   0  0  0  0  0  0  0  0  0  0  0  0
    0.2323   -3.4521   -2.2503 H   0  0  0  0  0  0  0  0  0  0  0  0
   -0.4401   -4.4894   -0.9670 H   0  0  0  0  0  0  0  0  0  0  0  0
   -1.7812   -0.8662   -1.3300 H   0  0  0  0  0  0  0  0  0  0  0  0
   -0.4071   -1.1995   -2.3107 H   0  0  0  0  0  0  0  0  0  0  0  0
    1.1553   -1.0832    0.9051 H   0  0  0  0  0  0  0  0  0  0  0  0
    1.8675    0.5183    0.6144 H   0  0  0  0  0  0  0  0  0  0  0  0
    2.0516   -1.8625   -1.3255 H   0  0  0  0  0  0  0  0  0  0  0  0
    3.3339   -1.2462   -0.2501 H   0  0  0  0  0  0  0  0  0  0  0  0
  1  2  1  0
  2  3  1  0
  3  4  2  0
  4  5  1  0
  5  6  2  0
  6  7  1  0
  7  8  1  0
  8  9  2  0
  8 10  1  0
 10 11  1  0
 11 12  1  0
 12 13  1  0
 13 14  1  0
 14 15  1  0
 15 16  1  0
 16 17  1  0
 17 18  1  0
 18 19  2  0
 19 20  1  0
 20 21  2  0
 21 22  1  0
 22 23  2  0
 23 24  1  0
 24 25  1  0
 25 26  1  0
 26 27  1  0
 27 28  1  0
 27 29  1  0
 13 30  1  0
 30 31  1  0
  7 32  2  0
 32  3  1  0
 31 10  1  0
 29 13  1  0
 23 18  1  0
  1 33  1  0
  1 34  1  0
  1 35  1  0
  4 36  1  0
  5 37  1  0
  6 38  1  0
 11 39  1  0
 11 40  1  0
 12 41  1  0
 12 42  1  0
 14 43  1  0
 14 44  1  0
 15 45  1  0
 15 46  1  0
 16 47  1  0
 16 48  1  0
 17 49  1  0
 17 50  1  0
 19 51  1  0
 20 52  1  0
 21 53  1  0
 22 54  1  0
 25 55  1  0
 25 56  1  0
 26 57  1  0
 26 58  1  0
 28 59  1  0
 28 60  1  0
 28 61  1  0
 29 62  1  0
 29 63  1  0
 30 64  1  0
 30 65  1  0
 31 66  1  0
 31 67  1  0
M  END
$$$$
