
     RDKit          3D

 76 79  0  0  0  0  0  0  0  0999 V2000
   -4.6341    2.1665    1.5627 O   0  0  0  0  0  0  0  0  0  0  0  0
   -4.3668    1.2346    0.7541 C   0  0  0  0  0  0  0  0  0  0  0  0
   -5.4093    0.8426   -0.2675 C   0  0  0  0  0  0  0  0  0  0  0  0
   -6.8378    1.0188    0.2607 C   0  0  0  0  0  0  0  0  0  0  0  0
   -7.8012    0.5660   -0.7392 N   0  0  0  0  0  0  0  0  0  0  0  0
   -8.3147    1.2869   -1.7488 C   0  0  0  0  0  0  0  0  0  0  0  0
   -9.1095    0.4509   -2.5008 C   0  0  0  0  0  0  0  0  0  0  0  0
   -9.0839   -0.7921   -1.9755 N   0  0  0  0  0  0  0  0  0  0  0  0
   -8.2707   -0.6853   -0.9036 C   0  0  0  0  0  0  0  0  0  0  0  0
   -3.0493    0.6309    0.7724 N   0  0  0  0  0  0  0  0  0  0  0  0
   -2.0903    1.0150    1.8222 C   0  0  0  0  0  0  0  0  0  0  0  0
   -1.1115    2.0900    1.3126 C   0  0  0  0  0  0  0  0  0  0  0  0
    0.2494    2.0381    2.0394 C   0  0  0  0  0  0  0  0  0  0  0  0
    1.4261    2.5179    1.1567 C   0  0  0  0  0  0  0  0  0  0  0  0
    2.1888    1.4064    0.3549 C   0  0  0  0  0  0  0  0  0  0  0  0
    3.3116    2.1124   -0.4637 C   0  0  0  0  0  0  0  0  0  0  0  0
    4.2340    1.1212   -1.2136 C   0  0  0  0  0  0  0  0  0  0  0  0
    3.9822   -0.2743   -0.8035 N   0  0  0  0  0  0  0  0  0  0  0  0
    4.8251   -1.2574   -1.5192 C   0  0  0  0  0  0  0  0  0  0  0  0
    6.3011   -1.1471   -1.2004 C   0  0  0  0  0  0  0  0  0  0  0  0
    6.8528   -1.8614   -0.1258 C   0  0  0  0  0  0  0  0  0  0  0  0
    8.2161   -1.7424    0.1540 C   0  0  0  0  0  0  0  0  0  0  0  0
    9.0033   -0.9448   -0.6154 N   0  0  0  0  0  0  0  0  0  0  0  0
    8.4987   -0.2487   -1.6683 C   0  0  0  0  0  0  0  0  0  0  0  0
    7.1408   -0.3400   -1.9830 C   0  0  0  0  0  0  0  0  0  0  0  0
    4.0180   -0.4238    0.6616 C   0  0  0  0  0  0  0  0  0  0  0  0
    2.9226    0.4360    1.3358 C   0  0  0  0  0  0  0  0  0  0  0  0
    1.2362    0.7318   -0.6512 C   0  0  0  0  0  0  0  0  0  0  0  0
    0.7405    1.4539   -1.5583 O   0  0  0  0  0  0  0  0  0  0  0  0
    0.9706   -0.6472   -0.7303 O   0  0  0  0  0  0  0  0  0  0  0  0
    0.5979   -1.4987    0.3525 C   0  0  0  0  0  0  0  0  0  0  0  0
   -0.4092   -2.5930   -0.1032 C   0  0  0  0  0  0  0  0  0  0  0  0
   -0.5614   -2.6019   -1.5011 O   0  0  0  0  0  0  0  0  0  0  0  0
   -1.8059   -2.5077    0.5993 C   0  0  0  0  0  0  0  0  0  0  0  0
   -2.2978   -3.8073    0.8189 O   0  0  0  0  0  0  0  0  0  0  0  0
   -2.8898   -1.6909   -0.1564 C   0  0  0  0  0  0  0  0  0  0  0  0
   -2.5732   -0.1980   -0.3530 C   0  0  0  0  0  0  0  0  0  0  0  0
   -5.2714    1.4701   -1.1745 H   0  0  0  0  0  0  0  0  0  0  0  0
   -5.2842   -0.2199   -0.5577 H   0  0  0  0  0  0  0  0  0  0  0  0
   -7.0279    2.0890    0.4968 H   0  0  0  0  0  0  0  0  0  0  0  0
   -6.9682    0.4293    1.1952 H   0  0  0  0  0  0  0  0  0  0  0  0
   -8.1153    2.3350   -1.9334 H   0  0  0  0  0  0  0  0  0  0  0  0
   -9.6653    0.7268   -3.3872 H   0  0  0  0  0  0  0  0  0  0  0  0
   -8.0163   -1.5175   -0.2598 H   0  0  0  0  0  0  0  0  0  0  0  0
   -1.5556    0.1110    2.1618 H   0  0  0  0  0  0  0  0  0  0  0  0
   -2.6139    1.3930    2.7267 H   0  0  0  0  0  0  0  0  0  0  0  0
   -0.9694    1.9864    0.2226 H   0  0  0  0  0  0  0  0  0  0  0  0
   -1.5678    3.0937    1.4581 H   0  0  0  0  0  0  0  0  0  0  0  0
    0.1787    2.7053    2.9264 H   0  0  0  0  0  0  0  0  0  0  0  0
    0.4622    1.0324    2.4455 H   0  0  0  0  0  0  0  0  0  0  0  0
    2.1536    3.0284    1.8261 H   0  0  0  0  0  0  0  0  0  0  0  0
    1.0646    3.3088    0.4617 H   0  0  0  0  0  0  0  0  0  0  0  0
    2.8789    2.8369   -1.1892 H   0  0  0  0  0  0  0  0  0  0  0  0
    3.9431    2.7151    0.2278 H   0  0  0  0  0  0  0  0  0  0  0  0
    5.2911    1.4044   -1.0193 H   0  0  0  0  0  0  0  0  0  0  0  0
    4.0486    1.2181   -2.3058 H   0  0  0  0  0  0  0  0  0  0  0  0
    4.4701   -2.2840   -1.2806 H   0  0  0  0  0  0  0  0  0  0  0  0
    4.6704   -1.1447   -2.6149 H   0  0  0  0  0  0  0  0  0  0  0  0
    6.2337   -2.5013    0.4904 H   0  0  0  0  0  0  0  0  0  0  0  0
    8.6487   -2.2858    0.9836 H   0  0  0  0  0  0  0  0  0  0  0  0
    9.1521    0.3752   -2.2633 H   0  0  0  0  0  0  0  0  0  0  0  0
    6.7471    0.2157   -2.8250 H   0  0  0  0  0  0  0  0  0  0  0  0
    5.0143   -0.1174    1.0527 H   0  0  0  0  0  0  0  0  0  0  0  0
    3.8613   -1.4888    0.9397 H   0  0  0  0  0  0  0  0  0  0  0  0
    2.2271   -0.2049    1.9027 H   0  0  0  0  0  0  0  0  0  0  0  0
    3.4252    1.0435    2.1215 H   0  0  0  0  0  0  0  0  0  0  0  0
    0.1791   -0.8996    1.1779 H   0  0  0  0  0  0  0  0  0  0  0  0
    1.5104   -2.0044    0.7300 H   0  0  0  0  0  0  0  0  0  0  0  0
    0.0356   -3.5702    0.2054 H   0  0  0  0  0  0  0  0  0  0  0  0
    0.2733   -2.9834   -1.8806 H   0  0  0  0  0  0  0  0  0  0  0  0
   -1.6821   -2.0647    1.6069 H   0  0  0  0  0  0  0  0  0  0  0  0
   -2.4029   -4.2415   -0.0684 H   0  0  0  0  0  0  0  0  0  0  0  0
   -3.8494   -1.7913    0.3952 H   0  0  0  0  0  0  0  0  0  0  0  0
   -3.0545   -2.1494   -1.1557 H   0  0  0  0  0  0  0  0  0  0  0  0
   -3.0316    0.1570   -1.3008 H   0  0  0  0  0  0  0  0  0  0  0  0
   -1.4923   -0.0641   -0.5095 H   0  0  0  0  0  0  0  0  0  0  0  0
  1  2  2  0
  2  3  1  0
  3  4  1  0
  4  5  1  0
  5  6  1  0
  6  7  2  0
  7  8  1  0
  8  9  2  0
  2 10  1  0
 10 11  1  0
 11 12  1  0
 12 13  1  0
 13 14  1  0
 14 15  1  0
 15 16  1  0
 16 17  1  0
 17 18  1  0
 18 19  1  0
 19 20  1  0
 20 21  2  0
 21 22  1  0
 22 23  2  0
 23 24  1  0
 24 25  2  0
 18 26  1  0
 26 27  1  0
 15 28  1  0
 28 29  2  0
 28 30  1  0
 30 31  1  0
 31 32  1  0
 32 33  1  0
 32 34  1  0
 34 35  1  0
 34 36  1  0
 36 37  1  0
  9  5  1  0
 37 10  1  0
 27 15  1  0
 25 20  1  0
  3 38  1  0
  3 39  1  0
  4 40  1  0
  4 41  1  0
  6 42  1  0
  7 43  1  0
  9 44  1  0
 11 45  1  0
 11 46  1  0
 12 47  1  0
 12 48  1  0
 13 49  1  0
 13 50  1  0
 14 51  1  0
 14 52  1  0
 16 53  1  0
 16 54  1  0
 17 55  1  0
 17 56  1  0
 19 57  1  0
 19 58  1  0
 21 59  1  0
 22 60  1  0
 24 61  1  0
 25 62  1  0
 26 63  1  0
 26 64  1  0
 27 65  1  0
 27 66  1  0
 31 67  1  0
 31 68  1  0
 32 69  1  0
 33 70  1  0
 34 71  1  0
 35 72  1  0
 36 73  1  0
 36 74  1  0
 37 75  1  0
 37 76  1  0
M  END
$$$$
