
     RDKit          3D

 85 87  0  0  0  0  0  0  0  0999 V2000
    9.2371   -0.6823   -2.2717 C   0  0  0  0  0  0  0  0  0  0  0  0
    8.8466    0.1744   -1.1433 N   0  0  0  0  0  0  0  0  0  0  0  0
    8.3030   -0.6197   -0.0327 C   0  0  0  0  0  0  0  0  0  0  0  0
    7.9702    1.2983   -1.5489 C   0  0  0  0  0  0  0  0  0  0  0  0
    6.5297    0.8912   -1.9473 C   0  0  0  0  0  0  0  0  0  0  0  0
    5.5074    1.1794   -0.8370 C   0  0  0  0  0  0  0  0  0  0  0  0
    4.1270    0.6251   -1.2095 C   0  0  0  0  0  0  0  0  0  0  0  0
    3.1817    0.8000   -0.1052 N   0  0  0  0  0  0  0  0  0  0  0  0
    1.9137    0.1335   -0.1010 C   0  0  0  0  0  0  0  0  0  0  0  0
    1.5062   -0.4447   -1.1457 O   0  0  0  0  0  0  0  0  0  0  0  0
    1.0854    0.0980    1.1609 C   0  0  0  0  0  0  0  0  0  0  0  0
    0.2006   -1.1718    1.2209 C   0  0  0  0  0  0  0  0  0  0  0  0
   -0.2809   -1.4935    2.6450 C   0  0  0  0  0  0  0  0  0  0  0  0
   -1.4311   -2.4611    2.6081 C   0  0  0  0  0  0  0  0  0  0  0  0
   -1.1873   -3.6699    2.3382 O   0  0  0  0  0  0  0  0  0  0  0  0
   -2.7934   -2.0624    2.8428 N   0  0  0  0  0  0  0  0  0  0  0  0
   -3.2605   -0.6717    2.9244 C   0  0  0  0  0  0  0  0  0  0  0  0
   -3.4046   -0.2562    4.3947 C   0  0  0  0  0  0  0  0  0  0  0  0
   -3.7982    1.0828    4.4996 O   0  0  0  0  0  0  0  0  0  0  0  0
   -4.5753   -0.5251    2.1973 C   0  0  0  0  0  0  0  0  0  0  0  0
   -5.5779   -1.1690    2.6100 O   0  0  0  0  0  0  0  0  0  0  0  0
   -4.7370    0.3974    1.0974 N   0  0  0  0  0  0  0  0  0  0  0  0
   -5.7646    1.4303    1.2435 C   0  0  0  0  0  0  0  0  0  0  0  0
   -4.0235    0.2680   -0.1949 C   0  0  0  0  0  0  0  0  0  0  0  0
   -3.7559   -1.2065   -0.5924 C   0  0  0  0  0  0  0  0  0  0  0  0
   -5.0312   -1.9995   -0.7497 C   0  0  0  0  0  0  0  0  0  0  0  0
   -5.3170   -3.0672    0.1196 C   0  0  0  0  0  0  0  0  0  0  0  0
   -6.5106   -3.7816   -0.0100 C   0  0  0  0  0  0  0  0  0  0  0  0
   -7.4187   -3.4534   -1.0215 C   0  0  0  0  0  0  0  0  0  0  0  0
   -7.1349   -2.4070   -1.9029 C   0  0  0  0  0  0  0  0  0  0  0  0
   -5.9447   -1.6838   -1.7707 C   0  0  0  0  0  0  0  0  0  0  0  0
   -2.7308    1.0946   -0.1852 C   0  0  0  0  0  0  0  0  0  0  0  0
   -2.1611    1.1153   -1.4927 O   0  0  0  0  0  0  0  0  0  0  0  0
   -0.9126    1.6357   -1.8706 C   0  0  0  0  0  0  0  0  0  0  0  0
   -0.6016    1.5479   -3.2345 C   0  0  0  0  0  0  0  0  0  0  0  0
    0.5835    2.0791   -3.7371 C   0  0  0  0  0  0  0  0  0  0  0  0
    1.4739    2.7286   -2.8852 C   0  0  0  0  0  0  0  0  0  0  0  0
    1.1952    2.8213   -1.5266 C   0  0  0  0  0  0  0  0  0  0  0  0
    0.0353    2.2448   -0.9935 C   0  0  0  0  0  0  0  0  0  0  0  0
   -0.1382    2.3473    0.4652 C   0  0  0  0  0  0  0  0  0  0  0  0
   -0.6674    3.3967    0.9188 O   0  0  0  0  0  0  0  0  0  0  0  0
    0.2799    1.3194    1.3951 N   0  0  0  0  0  0  0  0  0  0  0  0
    9.6852   -0.0744   -3.0844 H   0  0  0  0  0  0  0  0  0  0  0  0
    8.3767   -1.2551   -2.6717 H   0  0  0  0  0  0  0  0  0  0  0  0
   10.0140   -1.4050   -1.9440 H   0  0  0  0  0  0  0  0  0  0  0  0
    7.4342   -1.2325   -0.3530 H   0  0  0  0  0  0  0  0  0  0  0  0
    9.0880   -1.3022    0.3552 H   0  0  0  0  0  0  0  0  0  0  0  0
    8.0072    0.0421    0.8061 H   0  0  0  0  0  0  0  0  0  0  0  0
    7.9441    2.0461   -0.7257 H   0  0  0  0  0  0  0  0  0  0  0  0
    8.4378    1.8302   -2.4089 H   0  0  0  0  0  0  0  0  0  0  0  0
    6.2348    1.4772   -2.8413 H   0  0  0  0  0  0  0  0  0  0  0  0
    6.4753   -0.1744   -2.2365 H   0  0  0  0  0  0  0  0  0  0  0  0
    5.4296    2.2816   -0.6838 H   0  0  0  0  0  0  0  0  0  0  0  0
    5.8315    0.7096    0.1153 H   0  0  0  0  0  0  0  0  0  0  0  0
    4.2243   -0.4608   -1.4389 H   0  0  0  0  0  0  0  0  0  0  0  0
    3.7425    1.1450   -2.1138 H   0  0  0  0  0  0  0  0  0  0  0  0
    3.4394    1.3924    0.7136 H   0  0  0  0  0  0  0  0  0  0  0  0
    1.8166    0.0158    1.9975 H   0  0  0  0  0  0  0  0  0  0  0  0
    0.8033   -2.0434    0.8761 H   0  0  0  0  0  0  0  0  0  0  0  0
   -0.6579   -1.0831    0.5214 H   0  0  0  0  0  0  0  0  0  0  0  0
    0.5614   -1.9519    3.2154 H   0  0  0  0  0  0  0  0  0  0  0  0
   -0.5589   -0.5831    3.2068 H   0  0  0  0  0  0  0  0  0  0  0  0
   -3.4781   -2.8252    3.0501 H   0  0  0  0  0  0  0  0  0  0  0  0
   -2.5288    0.0039    2.4639 H   0  0  0  0  0  0  0  0  0  0  0  0
   -2.4394   -0.4110    4.9248 H   0  0  0  0  0  0  0  0  0  0  0  0
   -4.1614   -0.8950    4.8978 H   0  0  0  0  0  0  0  0  0  0  0  0
   -3.0132    1.6421    4.2621 H   0  0  0  0  0  0  0  0  0  0  0  0
   -5.5809    2.0089    2.1721 H   0  0  0  0  0  0  0  0  0  0  0  0
   -6.7639    0.9537    1.3033 H   0  0  0  0  0  0  0  0  0  0  0  0
   -5.7552    2.1408    0.3874 H   0  0  0  0  0  0  0  0  0  0  0  0
   -4.6586    0.7065   -0.9983 H   0  0  0  0  0  0  0  0  0  0  0  0
   -3.2173   -1.2338   -1.5642 H   0  0  0  0  0  0  0  0  0  0  0  0
   -3.0827   -1.6868    0.1478 H   0  0  0  0  0  0  0  0  0  0  0  0
   -4.6233   -3.3423    0.9026 H   0  0  0  0  0  0  0  0  0  0  0  0
   -6.7326   -4.5925    0.6715 H   0  0  0  0  0  0  0  0  0  0  0  0
   -8.3393   -4.0119   -1.1219 H   0  0  0  0  0  0  0  0  0  0  0  0
   -7.8365   -2.1530   -2.6866 H   0  0  0  0  0  0  0  0  0  0  0  0
   -5.7345   -0.8805   -2.4658 H   0  0  0  0  0  0  0  0  0  0  0  0
   -2.0224    0.6342    0.5119 H   0  0  0  0  0  0  0  0  0  0  0  0
   -2.9574    2.1364    0.1358 H   0  0  0  0  0  0  0  0  0  0  0  0
   -1.3040    1.0766   -3.9149 H   0  0  0  0  0  0  0  0  0  0  0  0
    0.8076    1.9979   -4.7923 H   0  0  0  0  0  0  0  0  0  0  0  0
    2.3905    3.1525   -3.2748 H   0  0  0  0  0  0  0  0  0  0  0  0
    1.9011    3.3187   -0.8756 H   0  0  0  0  0  0  0  0  0  0  0  0
   -0.0163    1.4748    2.3867 H   0  0  0  0  0  0  0  0  0  0  0  0
  1  2  1  0
  2  3  1  0
  2  4  1  0
  4  5  1  0
  5  6  1  0
  6  7  1  0
  7  8  1  0
  8  9  1  0
  9 10  2  0
  9 11  1  0
 11 12  1  0
 12 13  1  0
 13 14  1  0
 14 15  2  0
 14 16  1  0
 16 17  1  0
 17 18  1  0
 18 19  1  0
 17 20  1  0
 20 21  2  0
 20 22  1  0
 22 23  1  0
 22 24  1  0
 24 25  1  0
 25 26  1  0
 26 27  2  0
 27 28  1  0
 28 29  2  0
 29 30  1  0
 30 31  2  0
 24 32  1  0
 32 33  1  0
 33 34  1  0
 34 35  2  0
 35 36  1  0
 36 37  2  0
 37 38  1  0
 38 39  2  0
 39 40  1  0
 40 41  2  0
 40 42  1  0
 42 11  1  0
 31 26  1  0
 39 34  1  0
  1 43  1  0
  1 44  1  0
  1 45  1  0
  3 46  1  0
  3 47  1  0
  3 48  1  0
  4 49  1  0
  4 50  1  0
  5 51  1  0
  5 52  1  0
  6 53  1  0
  6 54  1  0
  7 55  1  0
  7 56  1  0
  8 57  1  0
 11 58  1  0
 12 59  1  0
 12 60  1  0
 13 61  1  0
 13 62  1  0
 16 63  1  0
 17 64  1  0
 18 65  1  0
 18 66  1  0
 19 67  1  0
 23 68  1  0
 23 69  1  0
 23 70  1  0
 24 71  1  0
 25 72  1  0
 25 73  1  0
 27 74  1  0
 28 75  1  0
 29 76  1  0
 30 77  1  0
 31 78  1  0
 32 79  1  0
 32 80  1  0
 35 81  1  0
 36 82  1  0
 37 83  1  0
 38 84  1  0
 42 85  1  0
M  END
$$$$
