
     RDKit          3D

 79 82  0  0  0  0  0  0  0  0999 V2000
    3.3440   -0.0079    0.9161 O   0  0  0  0  0  0  0  0  0  0  0  0
    3.1229    1.1810    0.5458 C   0  0  0  0  0  0  0  0  0  0  0  0
    1.9537    1.9400    1.1176 C   0  0  0  0  0  0  0  0  0  0  0  0
    0.7105    1.0895    1.2063 C   0  0  0  0  0  0  0  0  0  0  0  0
    0.1463    0.7960    2.4512 C   0  0  0  0  0  0  0  0  0  0  0  0
   -1.0164    0.0279    2.5399 C   0  0  0  0  0  0  0  0  0  0  0  0
   -1.6218   -0.4890    1.3791 C   0  0  0  0  0  0  0  0  0  0  0  0
   -1.0683   -0.1804    0.1182 C   0  0  0  0  0  0  0  0  0  0  0  0
    0.0962    0.6024    0.0425 C   0  0  0  0  0  0  0  0  0  0  0  0
   -1.7071   -0.6951   -1.1519 C   0  0  0  0  0  0  0  0  0  0  0  0
   -3.1534   -0.3699   -1.1855 N   0  0  0  0  0  0  0  0  0  0  0  0
   -3.3554    1.0593   -1.5233 C   0  0  0  0  0  0  0  0  0  0  0  0
   -4.5847    1.5883   -0.8325 C   0  0  0  0  0  0  0  0  0  0  0  0
   -4.5571    1.8549    0.5470 C   0  0  0  0  0  0  0  0  0  0  0  0
   -5.7166    2.2787    1.2048 C   0  0  0  0  0  0  0  0  0  0  0  0
   -6.9051    2.4573    0.4881 C   0  0  0  0  0  0  0  0  0  0  0  0
   -6.9348    2.2079   -0.8844 C   0  0  0  0  0  0  0  0  0  0  0  0
   -5.7833    1.7677   -1.5441 C   0  0  0  0  0  0  0  0  0  0  0  0
   -3.8848   -1.2372   -2.1414 C   0  0  0  0  0  0  0  0  0  0  0  0
   -4.0284   -2.6582   -1.6337 C   0  0  0  0  0  0  0  0  0  0  0  0
   -3.1247   -3.4893   -1.9059 O   0  0  0  0  0  0  0  0  0  0  0  0
   -5.1484   -3.1118   -0.8512 N   0  0  0  0  0  0  0  0  0  0  0  0
   -6.3480   -2.3279   -0.5563 C   0  0  0  0  0  0  0  0  0  0  0  0
   -6.1316   -1.3796    0.6305 C   0  0  0  0  0  0  0  0  0  0  0  0
   -6.0353   -2.0948    1.9916 C   0  0  0  0  0  0  0  0  0  0  0  0
   -4.6177   -2.5833    2.3506 C   0  0  0  0  0  0  0  0  0  0  0  0
   -3.6152   -1.4413    2.5811 C   0  0  0  0  0  0  0  0  0  0  0  0
   -2.7538   -1.3176    1.4435 O   0  0  0  0  0  0  0  0  0  0  0  0
    4.0244    1.8288   -0.3646 N   0  0  0  0  0  0  0  0  0  0  0  0
    5.1908    1.1647   -0.9446 C   0  0  0  0  0  0  0  0  0  0  0  0
    6.3359    1.0816    0.0731 C   0  0  0  0  0  0  0  0  0  0  0  0
    7.6087    0.7262   -0.5917 N   0  0  0  0  0  0  0  0  0  0  0  0
    7.6270   -0.6983   -1.0022 C   0  0  0  0  0  0  0  0  0  0  0  0
    9.0349   -1.1803   -1.4187 C   0  0  0  0  0  0  0  0  0  0  0  0
    9.9640   -0.0045   -1.7152 C   0  0  0  0  0  0  0  0  0  0  0  0
   10.0812    0.9203   -0.4958 C   0  0  0  0  0  0  0  0  0  0  0  0
    8.7586    1.0248    0.2874 C   0  0  0  0  0  0  0  0  0  0  0  0
    1.7381    2.8391    0.4977 H   0  0  0  0  0  0  0  0  0  0  0  0
    2.2452    2.3052    2.1243 H   0  0  0  0  0  0  0  0  0  0  0  0
    0.6029    1.1641    3.3607 H   0  0  0  0  0  0  0  0  0  0  0  0
   -1.4253   -0.1728    3.5247 H   0  0  0  0  0  0  0  0  0  0  0  0
    0.5271    0.8349   -0.9223 H   0  0  0  0  0  0  0  0  0  0  0  0
   -1.5369   -1.7894   -1.1652 H   0  0  0  0  0  0  0  0  0  0  0  0
   -1.1976   -0.2959   -2.0566 H   0  0  0  0  0  0  0  0  0  0  0  0
   -3.4123    1.2129   -2.6257 H   0  0  0  0  0  0  0  0  0  0  0  0
   -2.4984    1.6831   -1.1783 H   0  0  0  0  0  0  0  0  0  0  0  0
   -3.6470    1.7104    1.1138 H   0  0  0  0  0  0  0  0  0  0  0  0
   -5.6925    2.4713    2.2698 H   0  0  0  0  0  0  0  0  0  0  0  0
   -7.7954    2.7910    1.0007 H   0  0  0  0  0  0  0  0  0  0  0  0
   -7.8572    2.3410   -1.4390 H   0  0  0  0  0  0  0  0  0  0  0  0
   -5.8320    1.5569   -2.6080 H   0  0  0  0  0  0  0  0  0  0  0  0
   -3.3697   -1.2456   -3.1340 H   0  0  0  0  0  0  0  0  0  0  0  0
   -4.8988   -0.8226   -2.3291 H   0  0  0  0  0  0  0  0  0  0  0  0
   -5.1770   -4.1173   -0.5668 H   0  0  0  0  0  0  0  0  0  0  0  0
   -6.6772   -1.7630   -1.4527 H   0  0  0  0  0  0  0  0  0  0  0  0
   -7.1862   -3.0189   -0.3128 H   0  0  0  0  0  0  0  0  0  0  0  0
   -7.0166   -0.7050    0.6748 H   0  0  0  0  0  0  0  0  0  0  0  0
   -5.2411   -0.7503    0.4531 H   0  0  0  0  0  0  0  0  0  0  0  0
   -6.3805   -1.3939    2.7877 H   0  0  0  0  0  0  0  0  0  0  0  0
   -6.7310   -2.9621    2.0223 H   0  0  0  0  0  0  0  0  0  0  0  0
   -4.2368   -3.2902    1.5849 H   0  0  0  0  0  0  0  0  0  0  0  0
   -4.7014   -3.1706    3.2931 H   0  0  0  0  0  0  0  0  0  0  0  0
   -3.0243   -1.6729    3.4965 H   0  0  0  0  0  0  0  0  0  0  0  0
   -4.1506   -0.4694    2.7412 H   0  0  0  0  0  0  0  0  0  0  0  0
    3.8040    2.8017   -0.6834 H   0  0  0  0  0  0  0  0  0  0  0  0
    5.5357    1.7498   -1.8298 H   0  0  0  0  0  0  0  0  0  0  0  0
    4.9002    0.1506   -1.2932 H   0  0  0  0  0  0  0  0  0  0  0  0
    6.0854    0.3589    0.8865 H   0  0  0  0  0  0  0  0  0  0  0  0
    6.4275    2.0893    0.5386 H   0  0  0  0  0  0  0  0  0  0  0  0
    6.9489   -0.8271   -1.8733 H   0  0  0  0  0  0  0  0  0  0  0  0
    7.2605   -1.3492   -0.1796 H   0  0  0  0  0  0  0  0  0  0  0  0
    8.9620   -1.8320   -2.3173 H   0  0  0  0  0  0  0  0  0  0  0  0
    9.4777   -1.7827   -0.5962 H   0  0  0  0  0  0  0  0  0  0  0  0
   10.9689   -0.3766   -2.0034 H   0  0  0  0  0  0  0  0  0  0  0  0
    9.5533    0.5723   -2.5688 H   0  0  0  0  0  0  0  0  0  0  0  0
   10.8794    0.5403    0.1807 H   0  0  0  0  0  0  0  0  0  0  0  0
   10.4020    1.9255   -0.8408 H   0  0  0  0  0  0  0  0  0  0  0  0
    8.6887    2.0554    0.6982 H   0  0  0  0  0  0  0  0  0  0  0  0
    8.7713    0.3230    1.1496 H   0  0  0  0  0  0  0  0  0  0  0  0
  1  2  2  0
  2  3  1  0
  3  4  1  0
  4  5  2  0
  5  6  1  0
  6  7  2  0
  7  8  1  0
  8  9  2  0
  8 10  1  0
 10 11  1  0
 11 12  1  0
 12 13  1  0
 13 14  2  0
 14 15  1  0
 15 16  2  0
 16 17  1  0
 17 18  2  0
 11 19  1  0
 19 20  1  0
 20 21  2  0
 20 22  1  0
 22 23  1  0
 23 24  1  0
 24 25  1  0
 25 26  1  0
 26 27  1  0
 27 28  1  0
  2 29  1  0
 29 30  1  0
 30 31  1  0
 31 32  1  0
 32 33  1  0
 33 34  1  0
 34 35  1  0
 35 36  1  0
 36 37  1  0
  9  4  1  0
 18 13  1  0
 37 32  1  0
 28  7  1  0
  3 38  1  0
  3 39  1  0
  5 40  1  0
  6 41  1  0
  9 42  1  0
 10 43  1  0
 10 44  1  0
 12 45  1  0
 12 46  1  0
 14 47  1  0
 15 48  1  0
 16 49  1  0
 17 50  1  0
 18 51  1  0
 19 52  1  0
 19 53  1  0
 22 54  1  0
 23 55  1  0
 23 56  1  0
 24 57  1  0
 24 58  1  0
 25 59  1  0
 25 60  1  0
 26 61  1  0
 26 62  1  0
 27 63  1  0
 27 64  1  0
 29 65  1  0
 30 66  1  0
 30 67  1  0
 31 68  1  0
 31 69  1  0
 33 70  1  0
 33 71  1  0
 34 72  1  0
 34 73  1  0
 35 74  1  0
 35 75  1  0
 36 76  1  0
 36 77  1  0
 37 78  1  0
 37 79  1  0
M  END
$$$$
