
     RDKit          3D

 89 93  0  0  0  0  0  0  0  0999 V2000
    1.3741   -1.4565   -0.9577 O   0  0  0  0  0  0  0  0  0  0  0  0
    1.4878   -1.4189    0.2985 C   0  0  0  0  0  0  0  0  0  0  0  0
    0.8481   -0.3093    1.0910 C   0  0  0  0  0  0  0  0  0  0  0  0
   -0.1585    0.4661    0.2788 C   0  0  0  0  0  0  0  0  0  0  0  0
    0.1941    1.6861   -0.3027 C   0  0  0  0  0  0  0  0  0  0  0  0
   -0.7082    2.3511   -1.1276 C   0  0  0  0  0  0  0  0  0  0  0  0
   -1.9865    1.8326   -1.3681 C   0  0  0  0  0  0  0  0  0  0  0  0
   -2.3832    0.6109   -0.7457 C   0  0  0  0  0  0  0  0  0  0  0  0
   -1.4305   -0.0713    0.0369 C   0  0  0  0  0  0  0  0  0  0  0  0
   -3.7464   -0.0427   -0.9487 C   0  0  0  0  0  0  0  0  0  0  0  0
   -4.5771    0.0461    0.2891 N   0  0  0  0  0  0  0  0  0  0  0  0
   -4.4634   -1.1188    1.2122 C   0  0  0  0  0  0  0  0  0  0  0  0
   -4.8794   -2.4490    0.6100 C   0  0  0  0  0  0  0  0  0  0  0  0
   -3.9170   -3.3165    0.0596 C   0  0  0  0  0  0  0  0  0  0  0  0
   -4.3003   -4.5460   -0.4850 C   0  0  0  0  0  0  0  0  0  0  0  0
   -5.6420   -4.9354   -0.4620 C   0  0  0  0  0  0  0  0  0  0  0  0
   -6.6006   -4.0991    0.1138 C   0  0  0  0  0  0  0  0  0  0  0  0
   -6.2221   -2.8665    0.6559 C   0  0  0  0  0  0  0  0  0  0  0  0
   -5.9831    0.4521    0.0501 C   0  0  0  0  0  0  0  0  0  0  0  0
   -6.6069    1.0450    1.2952 C   0  0  0  0  0  0  0  0  0  0  0  0
   -7.3702    0.3137    1.9820 O   0  0  0  0  0  0  0  0  0  0  0  0
   -6.3499    2.3881    1.7540 N   0  0  0  0  0  0  0  0  0  0  0  0
   -5.7122    3.4485    0.9725 C   0  0  0  0  0  0  0  0  0  0  0  0
   -4.1840    3.3275    1.0475 C   0  0  0  0  0  0  0  0  0  0  0  0
   -3.4157    4.3855    0.2321 C   0  0  0  0  0  0  0  0  0  0  0  0
   -3.7906    4.5133   -1.2604 C   0  0  0  0  0  0  0  0  0  0  0  0
   -3.9857    3.1977   -2.0297 C   0  0  0  0  0  0  0  0  0  0  0  0
   -2.7673    2.5158   -2.3079 O   0  0  0  0  0  0  0  0  0  0  0  0
    2.2568   -2.4210    0.9797 N   0  0  0  0  0  0  0  0  0  0  0  0
    2.8954   -3.5336    0.2791 C   0  0  0  0  0  0  0  0  0  0  0  0
    4.1014   -3.0456   -0.4764 C   0  0  0  0  0  0  0  0  0  0  0  0
    4.0699   -2.9176   -1.8731 C   0  0  0  0  0  0  0  0  0  0  0  0
    5.1826   -2.4241   -2.5595 C   0  0  0  0  0  0  0  0  0  0  0  0
    6.3310   -2.0505   -1.8594 C   0  0  0  0  0  0  0  0  0  0  0  0
    6.3772   -2.1697   -0.4622 C   0  0  0  0  0  0  0  0  0  0  0  0
    7.6226   -1.7653    0.2981 C   0  0  0  0  0  0  0  0  0  0  0  0
    7.5983   -0.3708    0.7921 N   0  0  0  0  0  0  0  0  0  0  0  0
    6.5556   -0.1401    1.8128 C   0  0  0  0  0  0  0  0  0  0  0  0
    6.7561    1.2355    2.4575 C   0  0  0  0  0  0  0  0  0  0  0  0
    6.7373    2.3350    1.3886 C   0  0  0  0  0  0  0  0  0  0  0  0
    7.7372    2.0308    0.2636 C   0  0  0  0  0  0  0  0  0  0  0  0
    7.5061    0.6227   -0.2977 C   0  0  0  0  0  0  0  0  0  0  0  0
    5.2602   -2.6764    0.2223 C   0  0  0  0  0  0  0  0  0  0  0  0
    1.6454    0.3678    1.4689 H   0  0  0  0  0  0  0  0  0  0  0  0
    0.3415   -0.7465    1.9792 H   0  0  0  0  0  0  0  0  0  0  0  0
    1.1789    2.1089   -0.1432 H   0  0  0  0  0  0  0  0  0  0  0  0
   -0.4072    3.2780   -1.6005 H   0  0  0  0  0  0  0  0  0  0  0  0
   -1.6485   -1.0509    0.4302 H   0  0  0  0  0  0  0  0  0  0  0  0
   -3.5912   -1.0927   -1.2621 H   0  0  0  0  0  0  0  0  0  0  0  0
   -4.2559    0.4058   -1.8238 H   0  0  0  0  0  0  0  0  0  0  0  0
   -3.4360   -1.1899    1.6125 H   0  0  0  0  0  0  0  0  0  0  0  0
   -5.0641   -0.9377    2.1280 H   0  0  0  0  0  0  0  0  0  0  0  0
   -2.8698   -3.0445    0.0487 H   0  0  0  0  0  0  0  0  0  0  0  0
   -3.5554   -5.2013   -0.9193 H   0  0  0  0  0  0  0  0  0  0  0  0
   -5.9361   -5.8899   -0.8803 H   0  0  0  0  0  0  0  0  0  0  0  0
   -7.6374   -4.4086    0.1469 H   0  0  0  0  0  0  0  0  0  0  0  0
   -6.9763   -2.2463    1.1220 H   0  0  0  0  0  0  0  0  0  0  0  0
   -6.0763    1.1911   -0.7592 H   0  0  0  0  0  0  0  0  0  0  0  0
   -6.5800   -0.4099   -0.3074 H   0  0  0  0  0  0  0  0  0  0  0  0
   -6.7901    2.6725    2.6594 H   0  0  0  0  0  0  0  0  0  0  0  0
   -6.0968    3.4300   -0.0638 H   0  0  0  0  0  0  0  0  0  0  0  0
   -6.0022    4.4330    1.3986 H   0  0  0  0  0  0  0  0  0  0  0  0
   -3.8769    3.4255    2.1116 H   0  0  0  0  0  0  0  0  0  0  0  0
   -3.8588    2.3289    0.7298 H   0  0  0  0  0  0  0  0  0  0  0  0
   -2.3321    4.1596    0.3075 H   0  0  0  0  0  0  0  0  0  0  0  0
   -3.5616    5.3785    0.7115 H   0  0  0  0  0  0  0  0  0  0  0  0
   -3.0121    5.1169   -1.7750 H   0  0  0  0  0  0  0  0  0  0  0  0
   -4.7377    5.0897   -1.3284 H   0  0  0  0  0  0  0  0  0  0  0  0
   -4.4604    3.4436   -3.0039 H   0  0  0  0  0  0  0  0  0  0  0  0
   -4.6797    2.5429   -1.5131 H   0  0  0  0  0  0  0  0  0  0  0  0
    2.3583   -2.3639    2.0202 H   0  0  0  0  0  0  0  0  0  0  0  0
    2.1602   -4.0227   -0.3972 H   0  0  0  0  0  0  0  0  0  0  0  0
    3.2164   -4.3005    1.0203 H   0  0  0  0  0  0  0  0  0  0  0  0
    3.1844   -3.1946   -2.4321 H   0  0  0  0  0  0  0  0  0  0  0  0
    5.1550   -2.3280   -3.6361 H   0  0  0  0  0  0  0  0  0  0  0  0
    7.1836   -1.6640   -2.4040 H   0  0  0  0  0  0  0  0  0  0  0  0
    7.7737   -2.4585    1.1548 H   0  0  0  0  0  0  0  0  0  0  0  0
    8.5163   -1.9044   -0.3475 H   0  0  0  0  0  0  0  0  0  0  0  0
    6.6226   -0.9133    2.6097 H   0  0  0  0  0  0  0  0  0  0  0  0
    5.5381   -0.1843    1.3615 H   0  0  0  0  0  0  0  0  0  0  0  0
    7.7321    1.2521    2.9942 H   0  0  0  0  0  0  0  0  0  0  0  0
    5.9444    1.4206    3.1974 H   0  0  0  0  0  0  0  0  0  0  0  0
    6.9931    3.3114    1.8582 H   0  0  0  0  0  0  0  0  0  0  0  0
    5.7127    2.4193    0.9610 H   0  0  0  0  0  0  0  0  0  0  0  0
    8.7729    2.1046    0.6617 H   0  0  0  0  0  0  0  0  0  0  0  0
    7.6211    2.7806   -0.5490 H   0  0  0  0  0  0  0  0  0  0  0  0
    8.2853    0.4215   -1.0666 H   0  0  0  0  0  0  0  0  0  0  0  0
    6.5068    0.5835   -0.7892 H   0  0  0  0  0  0  0  0  0  0  0  0
    5.2884   -2.7733    1.3015 H   0  0  0  0  0  0  0  0  0  0  0  0
  1  2  2  0
  2  3  1  0
  3  4  1  0
  4  5  2  0
  5  6  1  0
  6  7  2  0
  7  8  1  0
  8  9  2  0
  8 10  1  0
 10 11  1  0
 11 12  1  0
 12 13  1  0
 13 14  2  0
 14 15  1  0
 15 16  2  0
 16 17  1  0
 17 18  2  0
 11 19  1  0
 19 20  1  0
 20 21  2  0
 20 22  1  0
 22 23  1  0
 23 24  1  0
 24 25  1  0
 25 26  1  0
 26 27  1  0
 27 28  1  0
  2 29  1  0
 29 30  1  0
 30 31  1  0
 31 32  2  0
 32 33  1  0
 33 34  2  0
 34 35  1  0
 35 36  1  0
 36 37  1  0
 37 38  1  0
 38 39  1  0
 39 40  1  0
 40 41  1  0
 41 42  1  0
 35 43  2  0
  9  4  1  0
 18 13  1  0
 43 31  1  0
 28  7  1  0
 42 37  1  0
  3 44  1  0
  3 45  1  0
  5 46  1  0
  6 47  1  0
  9 48  1  0
 10 49  1  0
 10 50  1  0
 12 51  1  0
 12 52  1  0
 14 53  1  0
 15 54  1  0
 16 55  1  0
 17 56  1  0
 18 57  1  0
 19 58  1  0
 19 59  1  0
 22 60  1  0
 23 61  1  0
 23 62  1  0
 24 63  1  0
 24 64  1  0
 25 65  1  0
 25 66  1  0
 26 67  1  0
 26 68  1  0
 27 69  1  0
 27 70  1  0
 29 71  1  0
 30 72  1  0
 30 73  1  0
 32 74  1  0
 33 75  1  0
 34 76  1  0
 36 77  1  0
 36 78  1  0
 38 79  1  0
 38 80  1  0
 39 81  1  0
 39 82  1  0
 40 83  1  0
 40 84  1  0
 41 85  1  0
 41 86  1  0
 42 87  1  0
 42 88  1  0
 43 89  1  0
M  END
$$$$
