
     RDKit          3D

 60 62  0  0  0  0  0  0  0  0999 V2000
   -5.3668    4.4305   -1.0732 C   0  0  0  0  0  0  0  0  0  0  0  0
   -4.7464    3.2694   -0.5356 O   0  0  0  0  0  0  0  0  0  0  0  0
   -3.3593    3.1534   -0.3866 C   0  0  0  0  0  0  0  0  0  0  0  0
   -2.6011    4.0918   -0.7564 O   0  0  0  0  0  0  0  0  0  0  0  0
   -2.7474    1.9093    0.2050 C   0  0  2  0  0  0  0  0  0  0  0  0
   -3.8054    0.8586    0.6012 C   0  0  0  0  0  0  0  0  0  0  0  0
   -4.6155    0.0940   -0.8571 S   0  0  0  0  0  0  0  0  0  0  0  0
   -3.2866   -1.0864   -1.3354 C   0  0  0  0  0  0  0  0  0  0  0  0
   -3.0335   -2.1898   -0.3230 C   0  0  0  0  0  0  0  0  0  0  0  0
   -4.1196   -2.7874    0.3471 C   0  0  0  0  0  0  0  0  0  0  0  0
   -3.9153   -3.8428    1.2385 C   0  0  0  0  0  0  0  0  0  0  0  0
   -2.6309   -4.3411    1.4525 C   0  0  0  0  0  0  0  0  0  0  0  0
   -1.5465   -3.7961    0.7650 C   0  0  0  0  0  0  0  0  0  0  0  0
   -1.7337   -2.7325   -0.1298 C   0  0  0  0  0  0  0  0  0  0  0  0
   -0.5525   -2.2192   -0.8553 C   0  0  0  0  0  0  0  0  0  0  0  0
   -0.1338   -2.8478   -1.8614 O   0  0  0  0  0  0  0  0  0  0  0  0
    0.1062   -1.0455   -0.4641 O   0  0  0  0  0  0  0  0  0  0  0  0
   -0.1634   -0.3649    0.7589 C   0  0  0  0  0  0  0  0  0  0  0  0
    0.2375    1.1112    0.6384 C   0  0  2  0  0  0  0  0  0  0  0  0
    1.6802    1.2464    0.8757 N   0  0  0  0  0  0  0  0  0  0  0  0
    2.6407    1.1006   -0.1833 C   0  0  0  0  0  0  0  0  0  0  0  0
    2.2569    1.0376   -1.3834 O   0  0  0  0  0  0  0  0  0  0  0  0
    4.1080    0.9553    0.1385 C   0  0  2  0  0  0  0  0  0  0  0  0
    4.9683    1.9690   -0.6259 C   0  0  0  0  0  0  0  0  0  0  0  0
    6.1931    1.1910   -1.0978 C   0  0  0  0  0  0  0  0  0  0  0  0
    5.7763   -0.2742   -1.1130 C   0  0  0  0  0  0  0  0  0  0  0  0
    4.5975   -0.3560   -0.2671 N   0  0  0  0  0  0  0  0  0  0  0  0
    4.0465   -1.5982    0.2109 C   0  0  0  0  0  0  0  0  0  0  0  0
    4.4873   -2.9094   -0.3615 C   0  0  0  0  0  0  0  0  0  0  0  0
    3.1867   -1.5905    1.1337 O   0  0  0  0  0  0  0  0  0  0  0  0
   -0.5679    1.9510    1.6137 C   0  0  0  0  0  0  0  0  0  0  0  0
   -0.0327    2.3277    2.6913 O   0  0  0  0  0  0  0  0  0  0  0  0
   -1.9549    2.2826    1.3856 N   0  0  0  0  0  0  0  0  0  0  0  0
   -5.1767    5.3011   -0.4092 H   0  0  0  0  0  0  0  0  0  0  0  0
   -4.9718    4.6400   -2.0912 H   0  0  0  0  0  0  0  0  0  0  0  0
   -6.4618    4.2605   -1.1404 H   0  0  0  0  0  0  0  0  0  0  0  0
   -2.1050    1.4768   -0.5773 H   0  0  0  0  0  0  0  0  0  0  0  0
   -3.3644    0.0661    1.2340 H   0  0  0  0  0  0  0  0  0  0  0  0
   -4.5903    1.3394    1.2227 H   0  0  0  0  0  0  0  0  0  0  0  0
   -2.3663   -0.5119   -1.5535 H   0  0  0  0  0  0  0  0  0  0  0  0
   -3.5939   -1.5656   -2.2888 H   0  0  0  0  0  0  0  0  0  0  0  0
   -5.1315   -2.4438    0.1790 H   0  0  0  0  0  0  0  0  0  0  0  0
   -4.7576   -4.2828    1.7568 H   0  0  0  0  0  0  0  0  0  0  0  0
   -2.4761   -5.1612    2.1415 H   0  0  0  0  0  0  0  0  0  0  0  0
   -0.5564   -4.2055    0.9288 H   0  0  0  0  0  0  0  0  0  0  0  0
    0.3880   -0.8587    1.5879 H   0  0  0  0  0  0  0  0  0  0  0  0
   -1.2375   -0.4377    0.9972 H   0  0  0  0  0  0  0  0  0  0  0  0
    0.0194    1.4788   -0.3847 H   0  0  0  0  0  0  0  0  0  0  0  0
    2.0313    1.2136    1.8597 H   0  0  0  0  0  0  0  0  0  0  0  0
    4.2818    1.0809    1.2308 H   0  0  0  0  0  0  0  0  0  0  0  0
    4.4365    2.3673   -1.5201 H   0  0  0  0  0  0  0  0  0  0  0  0
    5.2589    2.8246    0.0240 H   0  0  0  0  0  0  0  0  0  0  0  0
    6.5271    1.5271   -2.1030 H   0  0  0  0  0  0  0  0  0  0  0  0
    7.0221    1.3335   -0.3711 H   0  0  0  0  0  0  0  0  0  0  0  0
    6.5940   -0.9088   -0.7082 H   0  0  0  0  0  0  0  0  0  0  0  0
    5.5170   -0.5971   -2.1447 H   0  0  0  0  0  0  0  0  0  0  0  0
    3.8418   -3.7329    0.0112 H   0  0  0  0  0  0  0  0  0  0  0  0
    5.5368   -3.1156   -0.0637 H   0  0  0  0  0  0  0  0  0  0  0  0
    4.4158   -2.8793   -1.4687 H   0  0  0  0  0  0  0  0  0  0  0  0
   -2.4530    2.7938    2.1502 H   0  0  0  0  0  0  0  0  0  0  0  0
  1  2  1  0
  2  3  1  0
  3  4  2  0
  3  5  1  0
  5  6  1  0
  6  7  1  0
  7  8  1  0
  8  9  1  0
  9 10  2  0
 10 11  1  0
 11 12  2  0
 12 13  1  0
 13 14  2  0
 14 15  1  0
 15 16  2  0
 15 17  1  0
 17 18  1  0
 18 19  1  0
 19 20  1  0
 20 21  1  0
 21 22  2  0
 21 23  1  0
 23 24  1  0
 24 25  1  0
 25 26  1  0
 26 27  1  0
 27 28  1  0
 28 29  1  0
 28 30  2  0
 19 31  1  0
 31 32  2  0
 31 33  1  0
 33  5  1  0
 14  9  1  0
 27 23  1  0
  1 34  1  0
  1 35  1  0
  1 36  1  0
  5 37  1  6
  6 38  1  0
  6 39  1  0
  8 40  1  0
  8 41  1  0
 10 42  1  0
 11 43  1  0
 12 44  1  0
 13 45  1  0
 18 46  1  0
 18 47  1  0
 19 48  1  6
 20 49  1  0
 23 50  1  1
 24 51  1  0
 24 52  1  0
 25 53  1  0
 25 54  1  0
 26 55  1  0
 26 56  1  0
 29 57  1  0
 29 58  1  0
 29 59  1  0
 33 60  1  0
M  END
$$$$
