
     RDKit          3D

 88 91  0  0  0  0  0  0  0  0999 V2000
   -1.5374   -3.5232    2.3529 C   0  0  0  0  0  0  0  0  0  0  0  0
   -2.0002   -2.3578    1.5316 C   0  0  0  0  0  0  0  0  0  0  0  0
   -2.6057   -1.4160    2.1062 O   0  0  0  0  0  0  0  0  0  0  0  0
   -1.7333   -2.2711    0.1198 N   0  0  0  0  0  0  0  0  0  0  0  0
   -1.8936   -3.4402   -0.7654 C   0  0  0  0  0  0  0  0  0  0  0  0
   -3.1612   -4.2770   -0.4788 C   0  0  0  0  0  0  0  0  0  0  0  0
   -4.4624   -3.4595   -0.4021 C   0  0  0  0  0  0  0  0  0  0  0  0
   -4.9694   -3.0296   -1.7845 C   0  0  0  0  0  0  0  0  0  0  0  0
   -6.2009   -2.1109   -1.7068 C   0  0  0  0  0  0  0  0  0  0  0  0
   -5.9629   -0.7614   -0.9973 C   0  0  0  0  0  0  0  0  0  0  0  0
   -4.8762    0.1140   -1.6546 C   0  0  0  0  0  0  0  0  0  0  0  0
   -3.6027    0.0821   -0.8750 N   0  0  0  0  0  0  0  0  0  0  0  0
   -3.4402    1.3257   -0.0751 C   0  0  0  0  0  0  0  0  0  0  0  0
   -4.4669    1.4154    1.0742 C   0  0  0  0  0  0  0  0  0  0  0  0
   -4.3203    2.6694    1.9676 C   0  0  0  0  0  0  0  0  0  0  0  0
   -2.9349    2.7874    2.6213 C   0  0  0  0  0  0  0  0  0  0  0  0
   -4.6858    3.9612    1.2206 C   0  0  0  0  0  0  0  0  0  0  0  0
   -2.4629   -0.0780   -1.8118 C   0  0  0  0  0  0  0  0  0  0  0  0
   -1.1143   -0.1922   -1.1273 C   0  0  0  0  0  0  0  0  0  0  0  0
   -0.1508    0.8015   -1.3885 C   0  0  0  0  0  0  0  0  0  0  0  0
    1.1321    0.7362   -0.8246 C   0  0  0  0  0  0  0  0  0  0  0  0
    2.1255    1.8007   -1.1025 C   0  0  0  0  0  0  0  0  0  0  0  0
    2.0648    2.4219   -2.1975 O   0  0  0  0  0  0  0  0  0  0  0  0
    3.1693    2.1308   -0.1647 N   0  0  0  0  0  0  0  0  0  0  0  0
    4.4534    2.6335   -0.6741 C   0  0  0  0  0  0  0  0  0  0  0  0
    5.5420    2.6089    0.4133 C   0  0  0  0  0  0  0  0  0  0  0  0
    5.3683    1.4051    1.3692 C   0  0  0  0  0  0  0  0  0  0  0  0
    5.5644    0.0410    0.6539 C   0  0  0  0  0  0  0  0  0  0  0  0
    6.9430   -0.1062    0.0582 C   0  0  0  0  0  0  0  0  0  0  0  0
    7.1336   -0.0082   -1.3320 C   0  0  0  0  0  0  0  0  0  0  0  0
    8.4181   -0.1004   -1.8769 C   0  0  0  0  0  0  0  0  0  0  0  0
    9.5210   -0.2971   -1.0422 C   0  0  0  0  0  0  0  0  0  0  0  0
    9.3399   -0.4059    0.3403 C   0  0  0  0  0  0  0  0  0  0  0  0
    8.0562   -0.3126    0.8910 C   0  0  0  0  0  0  0  0  0  0  0  0
    3.9914    1.4727    2.0860 C   0  0  0  0  0  0  0  0  0  0  0  0
    2.9037    2.2119    1.2780 C   0  0  0  0  0  0  0  0  0  0  0  0
    1.4668   -0.3638   -0.0259 C   0  0  0  0  0  0  0  0  0  0  0  0
    0.5219   -1.3461    0.2557 C   0  0  0  0  0  0  0  0  0  0  0  0
   -0.7772   -1.2684   -0.2683 C   0  0  0  0  0  0  0  0  0  0  0  0
   -0.9003   -4.2058    1.7550 H   0  0  0  0  0  0  0  0  0  0  0  0
   -2.4170   -4.0813    2.7351 H   0  0  0  0  0  0  0  0  0  0  0  0
   -0.9407   -3.1549    3.2130 H   0  0  0  0  0  0  0  0  0  0  0  0
   -1.0086   -4.0994   -0.6511 H   0  0  0  0  0  0  0  0  0  0  0  0
   -1.9091   -3.1158   -1.8224 H   0  0  0  0  0  0  0  0  0  0  0  0
   -3.0324   -4.8231    0.4786 H   0  0  0  0  0  0  0  0  0  0  0  0
   -3.2591   -5.0599   -1.2634 H   0  0  0  0  0  0  0  0  0  0  0  0
   -4.3069   -2.5809    0.2480 H   0  0  0  0  0  0  0  0  0  0  0  0
   -5.2475   -4.0857    0.0787 H   0  0  0  0  0  0  0  0  0  0  0  0
   -4.1691   -2.5356   -2.3640 H   0  0  0  0  0  0  0  0  0  0  0  0
   -5.2552   -3.9413   -2.3564 H   0  0  0  0  0  0  0  0  0  0  0  0
   -6.5567   -1.9150   -2.7433 H   0  0  0  0  0  0  0  0  0  0  0  0
   -7.0204   -2.6483   -1.1802 H   0  0  0  0  0  0  0  0  0  0  0  0
   -5.7544   -0.9202    0.0803 H   0  0  0  0  0  0  0  0  0  0  0  0
   -6.9251   -0.2015   -1.0380 H   0  0  0  0  0  0  0  0  0  0  0  0
   -4.7409   -0.2110   -2.7124 H   0  0  0  0  0  0  0  0  0  0  0  0
   -5.2691    1.1519   -1.7514 H   0  0  0  0  0  0  0  0  0  0  0  0
   -2.4380    1.3337    0.3955 H   0  0  0  0  0  0  0  0  0  0  0  0
   -3.5041    2.2217   -0.7309 H   0  0  0  0  0  0  0  0  0  0  0  0
   -4.3736    0.5089    1.7121 H   0  0  0  0  0  0  0  0  0  0  0  0
   -5.4974    1.4169    0.6599 H   0  0  0  0  0  0  0  0  0  0  0  0
   -5.0552    2.5548    2.7921 H   0  0  0  0  0  0  0  0  0  0  0  0
   -2.9565    3.5736    3.4102 H   0  0  0  0  0  0  0  0  0  0  0  0
   -2.1605    3.0733    1.8781 H   0  0  0  0  0  0  0  0  0  0  0  0
   -2.6477    1.8252    3.1008 H   0  0  0  0  0  0  0  0  0  0  0  0
   -5.6889    3.8650    0.7527 H   0  0  0  0  0  0  0  0  0  0  0  0
   -4.7206    4.8145    1.9306 H   0  0  0  0  0  0  0  0  0  0  0  0
   -3.9412    4.1932    0.4327 H   0  0  0  0  0  0  0  0  0  0  0  0
   -2.4597    0.7618   -2.5454 H   0  0  0  0  0  0  0  0  0  0  0  0
   -2.5901   -0.9933   -2.4187 H   0  0  0  0  0  0  0  0  0  0  0  0
   -0.4075    1.6421   -2.0243 H   0  0  0  0  0  0  0  0  0  0  0  0
    4.3271    3.6732   -1.0484 H   0  0  0  0  0  0  0  0  0  0  0  0
    4.7831    1.9979   -1.5253 H   0  0  0  0  0  0  0  0  0  0  0  0
    6.5484    2.6009   -0.0589 H   0  0  0  0  0  0  0  0  0  0  0  0
    5.4751    3.5459    1.0123 H   0  0  0  0  0  0  0  0  0  0  0  0
    6.1550    1.4843    2.1518 H   0  0  0  0  0  0  0  0  0  0  0  0
    5.4173   -0.7835    1.3859 H   0  0  0  0  0  0  0  0  0  0  0  0
    4.7902   -0.0960   -0.1299 H   0  0  0  0  0  0  0  0  0  0  0  0
    6.2917    0.1483   -1.9952 H   0  0  0  0  0  0  0  0  0  0  0  0
    8.5583   -0.0153   -2.9466 H   0  0  0  0  0  0  0  0  0  0  0  0
   10.5148   -0.3689   -1.4655 H   0  0  0  0  0  0  0  0  0  0  0  0
   10.1952   -0.5588    0.9842 H   0  0  0  0  0  0  0  0  0  0  0  0
    7.9304   -0.3930    1.9638 H   0  0  0  0  0  0  0  0  0  0  0  0
    4.1163    2.0028    3.0555 H   0  0  0  0  0  0  0  0  0  0  0  0
    3.6298    0.4540    2.3388 H   0  0  0  0  0  0  0  0  0  0  0  0
    1.9026    1.8088    1.5397 H   0  0  0  0  0  0  0  0  0  0  0  0
    2.8975    3.2859    1.5718 H   0  0  0  0  0  0  0  0  0  0  0  0
    2.4607   -0.4655    0.3844 H   0  0  0  0  0  0  0  0  0  0  0  0
    0.8043   -2.1782    0.8890 H   0  0  0  0  0  0  0  0  0  0  0  0
  1  2  1  0
  2  3  2  0
  2  4  1  0
  4  5  1  0
  5  6  1  0
  6  7  1  0
  7  8  1  0
  8  9  1  0
  9 10  1  0
 10 11  1  0
 11 12  1  0
 12 13  1  0
 13 14  1  0
 14 15  1  0
 15 16  1  0
 15 17  1  0
 12 18  1  0
 18 19  1  0
 19 20  2  0
 20 21  1  0
 21 22  1  0
 22 23  2  0
 22 24  1  0
 24 25  1  0
 25 26  1  0
 26 27  1  0
 27 28  1  0
 28 29  1  0
 29 30  2  0
 30 31  1  0
 31 32  2  0
 32 33  1  0
 33 34  2  0
 27 35  1  0
 35 36  1  0
 21 37  2  0
 37 38  1  0
 38 39  2  0
 39  4  1  0
 39 19  1  0
 36 24  1  0
 34 29  1  0
  1 40  1  0
  1 41  1  0
  1 42  1  0
  5 43  1  0
  5 44  1  0
  6 45  1  0
  6 46  1  0
  7 47  1  0
  7 48  1  0
  8 49  1  0
  8 50  1  0
  9 51  1  0
  9 52  1  0
 10 53  1  0
 10 54  1  0
 11 55  1  0
 11 56  1  0
 13 57  1  0
 13 58  1  0
 14 59  1  0
 14 60  1  0
 15 61  1  0
 16 62  1  0
 16 63  1  0
 16 64  1  0
 17 65  1  0
 17 66  1  0
 17 67  1  0
 18 68  1  0
 18 69  1  0
 20 70  1  0
 25 71  1  0
 25 72  1  0
 26 73  1  0
 26 74  1  0
 27 75  1  0
 28 76  1  0
 28 77  1  0
 30 78  1  0
 31 79  1  0
 32 80  1  0
 33 81  1  0
 34 82  1  0
 35 83  1  0
 35 84  1  0
 36 85  1  0
 36 86  1  0
 37 87  1  0
 38 88  1  0
M  END
$$$$
