
     RDKit          3D

 77 81  0  0  0  0  0  0  0  0999 V2000
    5.0795    3.5087   -1.0321 O   0  0  0  0  0  0  0  0  0  0  0  0
    4.9874    2.2856   -0.7324 C   0  0  0  0  0  0  0  0  0  0  0  0
    3.7216    1.5729   -1.0070 C   0  0  0  0  0  0  0  0  0  0  0  0
    3.7364    0.2475   -1.4550 C   0  0  0  0  0  0  0  0  0  0  0  0
    2.5426   -0.4406   -1.6766 C   0  0  0  0  0  0  0  0  0  0  0  0
    1.3010    0.1850   -1.4414 C   0  0  0  0  0  0  0  0  0  0  0  0
    1.2819    1.5377   -1.0353 C   0  0  0  0  0  0  0  0  0  0  0  0
    2.4927    2.2201   -0.8252 C   0  0  0  0  0  0  0  0  0  0  0  0
   -0.0239    2.2827   -0.8653 C   0  0  0  0  0  0  0  0  0  0  0  0
   -0.8757    1.7476    0.2612 C   0  0  0  0  0  0  0  0  0  0  0  0
   -0.3113    1.3836    1.4965 C   0  0  0  0  0  0  0  0  0  0  0  0
   -1.1248    0.9157    2.5323 C   0  0  0  0  0  0  0  0  0  0  0  0
   -2.5084    0.8315    2.3574 C   0  0  0  0  0  0  0  0  0  0  0  0
   -3.0933    1.2354    1.1475 C   0  0  0  0  0  0  0  0  0  0  0  0
   -2.2710    1.6973    0.1062 C   0  0  0  0  0  0  0  0  0  0  0  0
   -4.5812    1.0990    0.9430 C   0  0  0  0  0  0  0  0  0  0  0  0
   -4.9370   -0.3018    0.6163 N   0  0  0  0  0  0  0  0  0  0  0  0
   -6.3655   -0.5929    0.9085 C   0  0  0  0  0  0  0  0  0  0  0  0
   -7.3582    0.1365   -0.0325 C   0  0  0  0  0  0  0  0  0  0  0  0
   -8.7125   -0.5913   -0.0764 C   0  0  0  0  0  0  0  0  0  0  0  0
   -8.9668   -1.2436    1.1520 O   0  0  0  0  0  0  0  0  0  0  0  0
   -8.1284   -2.3817    1.2923 C   0  0  0  0  0  0  0  0  0  0  0  0
   -6.6435   -2.1078    0.9509 C   0  0  0  0  0  0  0  0  0  0  0  0
   -4.4767   -0.6981   -0.7410 C   0  0  0  0  0  0  0  0  0  0  0  0
   -3.2648   -1.6228   -0.6221 C   0  0  0  0  0  0  0  0  0  0  0  0
   -2.4834   -1.5338   -1.7942 O   0  0  0  0  0  0  0  0  0  0  0  0
   -1.3809   -2.4183   -1.7155 C   0  0  0  0  0  0  0  0  0  0  0  0
   -0.1299   -1.7355   -2.2533 C   0  0  0  0  0  0  0  0  0  0  0  0
    0.0796   -0.5027   -1.5597 O   0  0  0  0  0  0  0  0  0  0  0  0
    6.1063    1.6137   -0.1199 N   0  0  0  0  0  0  0  0  0  0  0  0
    7.4555    2.1556   -0.3316 C   0  0  0  0  0  0  0  0  0  0  0  0
    8.5114    1.0534   -0.2154 C   0  0  0  0  0  0  0  0  0  0  0  0
    8.3410    0.2577    1.0846 C   0  0  0  0  0  0  0  0  0  0  0  0
    6.9139   -0.3095    1.2375 C   0  0  0  0  0  0  0  0  0  0  0  0
    6.6282   -1.4707    0.2607 C   0  0  0  0  0  0  0  0  0  0  0  0
    7.5206   -2.5329    0.4691 O   0  0  0  0  0  0  0  0  0  0  0  0
    5.8731    0.8161    1.0946 C   0  0  0  0  0  0  0  0  0  0  0  0
    4.6766   -0.2557   -1.6368 H   0  0  0  0  0  0  0  0  0  0  0  0
    2.6140   -1.4656   -2.0067 H   0  0  0  0  0  0  0  0  0  0  0  0
    2.4784    3.2518   -0.4942 H   0  0  0  0  0  0  0  0  0  0  0  0
    0.1560    3.3630   -0.6768 H   0  0  0  0  0  0  0  0  0  0  0  0
   -0.5763    2.2195   -1.8286 H   0  0  0  0  0  0  0  0  0  0  0  0
    0.7570    1.4535    1.6580 H   0  0  0  0  0  0  0  0  0  0  0  0
   -0.6805    0.6148    3.4725 H   0  0  0  0  0  0  0  0  0  0  0  0
   -3.1243    0.4515    3.1642 H   0  0  0  0  0  0  0  0  0  0  0  0
   -2.7161    2.0083   -0.8316 H   0  0  0  0  0  0  0  0  0  0  0  0
   -5.0794    1.4240    1.8835 H   0  0  0  0  0  0  0  0  0  0  0  0
   -4.9374    1.7920    0.1478 H   0  0  0  0  0  0  0  0  0  0  0  0
   -6.5857   -0.2422    1.9444 H   0  0  0  0  0  0  0  0  0  0  0  0
   -6.9715    0.2248   -1.0675 H   0  0  0  0  0  0  0  0  0  0  0  0
   -7.5106    1.1703    0.3474 H   0  0  0  0  0  0  0  0  0  0  0  0
   -8.7420   -1.3116   -0.9270 H   0  0  0  0  0  0  0  0  0  0  0  0
   -9.5178    0.1510   -0.2573 H   0  0  0  0  0  0  0  0  0  0  0  0
   -8.5193   -3.2151    0.6676 H   0  0  0  0  0  0  0  0  0  0  0  0
   -8.1896   -2.7177    2.3497 H   0  0  0  0  0  0  0  0  0  0  0  0
   -6.4222   -2.5795   -0.0293 H   0  0  0  0  0  0  0  0  0  0  0  0
   -5.9855   -2.5897    1.7079 H   0  0  0  0  0  0  0  0  0  0  0  0
   -4.2116    0.1881   -1.3587 H   0  0  0  0  0  0  0  0  0  0  0  0
   -5.2569   -1.2288   -1.3243 H   0  0  0  0  0  0  0  0  0  0  0  0
   -2.6565   -1.3179    0.2589 H   0  0  0  0  0  0  0  0  0  0  0  0
   -3.6257   -2.6655   -0.4655 H   0  0  0  0  0  0  0  0  0  0  0  0
   -1.5972   -3.3153   -2.3339 H   0  0  0  0  0  0  0  0  0  0  0  0
   -1.1489   -2.7697   -0.6806 H   0  0  0  0  0  0  0  0  0  0  0  0
   -0.2447   -1.5269   -3.3392 H   0  0  0  0  0  0  0  0  0  0  0  0
    0.7117   -2.4416   -2.1065 H   0  0  0  0  0  0  0  0  0  0  0  0
    7.6548    2.9487    0.4235 H   0  0  0  0  0  0  0  0  0  0  0  0
    7.5360    2.6122   -1.3440 H   0  0  0  0  0  0  0  0  0  0  0  0
    9.5224    1.5156   -0.2292 H   0  0  0  0  0  0  0  0  0  0  0  0
    8.4455    0.3750   -1.0933 H   0  0  0  0  0  0  0  0  0  0  0  0
    8.5583    0.9279    1.9459 H   0  0  0  0  0  0  0  0  0  0  0  0
    9.0878   -0.5640    1.1158 H   0  0  0  0  0  0  0  0  0  0  0  0
    6.8206   -0.7156    2.2689 H   0  0  0  0  0  0  0  0  0  0  0  0
    5.5808   -1.8307    0.3933 H   0  0  0  0  0  0  0  0  0  0  0  0
    6.7267   -1.1315   -0.7907 H   0  0  0  0  0  0  0  0  0  0  0  0
    7.2430   -2.9763    1.3130 H   0  0  0  0  0  0  0  0  0  0  0  0
    4.8512    0.3806    1.1036 H   0  0  0  0  0  0  0  0  0  0  0  0
    5.9436    1.4893    1.9785 H   0  0  0  0  0  0  0  0  0  0  0  0
  1  2  2  0
  2  3  1  0
  3  4  2  0
  4  5  1  0
  5  6  2  0
  6  7  1  0
  7  8  2  0
  7  9  1  0
  9 10  1  0
 10 11  2  0
 11 12  1  0
 12 13  2  0
 13 14  1  0
 14 15  2  0
 14 16  1  0
 16 17  1  0
 17 18  1  0
 18 19  1  0
 19 20  1  0
 20 21  1  0
 21 22  1  0
 22 23  1  0
 17 24  1  0
 24 25  1  0
 25 26  1  0
 26 27  1  0
 27 28  1  0
 28 29  1  0
  2 30  1  0
 30 31  1  0
 31 32  1  0
 32 33  1  0
 33 34  1  0
 34 35  1  0
 35 36  1  0
 34 37  1  0
  8  3  1  0
 15 10  1  0
 23 18  1  0
 37 30  1  0
 29  6  1  0
  4 38  1  0
  5 39  1  0
  8 40  1  0
  9 41  1  0
  9 42  1  0
 11 43  1  0
 12 44  1  0
 13 45  1  0
 15 46  1  0
 16 47  1  0
 16 48  1  0
 18 49  1  0
 19 50  1  0
 19 51  1  0
 20 52  1  0
 20 53  1  0
 22 54  1  0
 22 55  1  0
 23 56  1  0
 23 57  1  0
 24 58  1  0
 24 59  1  0
 25 60  1  0
 25 61  1  0
 27 62  1  0
 27 63  1  0
 28 64  1  0
 28 65  1  0
 31 66  1  0
 31 67  1  0
 32 68  1  0
 32 69  1  0
 33 70  1  0
 33 71  1  0
 34 72  1  0
 35 73  1  0
 35 74  1  0
 36 75  1  0
 37 76  1  0
 37 77  1  0
M  END
$$$$
