
     RDKit          3D

 75 78  0  0  0  0  0  0  0  0999 V2000
   -9.6838    1.0268    0.1079 C   0  0  0  0  0  0  0  0  0  0  0  0
   -8.2341    1.1787   -0.3741 C   0  0  0  0  0  0  0  0  0  0  0  0
   -7.9133    2.6713   -0.5402 C   0  0  0  0  0  0  0  0  0  0  0  0
   -7.2726    0.4571    0.6221 C   0  0  0  0  0  0  0  0  0  0  0  0
   -5.9332    0.1104    0.0785 N   0  0  0  0  0  0  0  0  0  0  0  0
   -6.0053   -0.7377   -1.1357 C   0  0  0  0  0  0  0  0  0  0  0  0
   -4.9308   -1.8283   -1.1357 C   0  0  0  0  0  0  0  0  0  0  0  0
   -3.6790   -1.2836   -1.4982 O   0  0  0  0  0  0  0  0  0  0  0  0
   -2.8527   -2.3071   -2.0228 C   0  0  0  0  0  0  0  0  0  0  0  0
   -1.4094   -1.8331   -2.0853 C   0  0  0  0  0  0  0  0  0  0  0  0
   -0.9544   -1.5165   -0.7735 O   0  0  0  0  0  0  0  0  0  0  0  0
    0.4003   -1.3297   -0.4917 C   0  0  0  0  0  0  0  0  0  0  0  0
    1.2589   -2.4357   -0.4700 C   0  0  0  0  0  0  0  0  0  0  0  0
    2.6108   -2.2736   -0.1638 C   0  0  0  0  0  0  0  0  0  0  0  0
    3.1355   -0.9970    0.0987 C   0  0  0  0  0  0  0  0  0  0  0  0
    4.5764   -0.8386    0.3993 C   0  0  0  0  0  0  0  0  0  0  0  0
    5.1954   -1.7790    0.9701 O   0  0  0  0  0  0  0  0  0  0  0  0
    5.2826    0.3580    0.0315 N   0  0  0  0  0  0  0  0  0  0  0  0
    6.6921    0.5645    0.3518 C   0  0  0  0  0  0  0  0  0  0  0  0
    7.5780   -0.2166   -0.6199 C   0  0  0  0  0  0  0  0  0  0  0  0
    8.9871   -0.0463   -0.2767 N   0  0  0  0  0  0  0  0  0  0  0  0
    9.9643    0.6061   -1.1271 C   0  0  0  0  0  0  0  0  0  0  0  0
   11.2999    0.5403   -0.3616 C   0  0  0  0  0  0  0  0  0  0  0  0
   11.0900   -0.3773    0.8559 C   0  0  0  0  0  0  0  0  0  0  0  0
    9.6366   -0.6331    0.8349 C   0  0  0  0  0  0  0  0  0  0  0  0
    9.0330   -1.3244    1.6979 O   0  0  0  0  0  0  0  0  0  0  0  0
    2.2713    0.1130    0.0849 C   0  0  0  0  0  0  0  0  0  0  0  0
    0.9005   -0.0427   -0.1940 C   0  0  0  0  0  0  0  0  0  0  0  0
    0.0120    1.1814   -0.2689 C   0  0  0  0  0  0  0  0  0  0  0  0
   -1.2670    1.0195    0.5171 C   0  0  0  0  0  0  0  0  0  0  0  0
   -1.2286    0.7274    1.8903 C   0  0  0  0  0  0  0  0  0  0  0  0
   -2.4157    0.5653    2.6107 C   0  0  0  0  0  0  0  0  0  0  0  0
   -3.6486    0.7048    1.9727 C   0  0  0  0  0  0  0  0  0  0  0  0
   -3.7072    1.0066    0.6023 C   0  0  0  0  0  0  0  0  0  0  0  0
   -2.5111    1.1695   -0.1188 C   0  0  0  0  0  0  0  0  0  0  0  0
   -5.0343    1.2790   -0.0502 C   0  0  0  0  0  0  0  0  0  0  0  0
   -9.9634   -0.0439    0.1472 H   0  0  0  0  0  0  0  0  0  0  0  0
   -9.8090    1.4700    1.1184 H   0  0  0  0  0  0  0  0  0  0  0  0
  -10.3834    1.5245   -0.5984 H   0  0  0  0  0  0  0  0  0  0  0  0
   -8.1822    0.7084   -1.3773 H   0  0  0  0  0  0  0  0  0  0  0  0
   -6.9860    2.8108   -1.1250 H   0  0  0  0  0  0  0  0  0  0  0  0
   -8.7213    3.1847   -1.1044 H   0  0  0  0  0  0  0  0  0  0  0  0
   -7.8114    3.1694    0.4458 H   0  0  0  0  0  0  0  0  0  0  0  0
   -7.1697    1.0559    1.5528 H   0  0  0  0  0  0  0  0  0  0  0  0
   -7.7457   -0.4914    0.9551 H   0  0  0  0  0  0  0  0  0  0  0  0
   -6.9842   -1.2705   -1.1805 H   0  0  0  0  0  0  0  0  0  0  0  0
   -5.9357   -0.1340   -2.0694 H   0  0  0  0  0  0  0  0  0  0  0  0
   -4.8649   -2.2888   -0.1262 H   0  0  0  0  0  0  0  0  0  0  0  0
   -5.2673   -2.6125   -1.8568 H   0  0  0  0  0  0  0  0  0  0  0  0
   -3.1794   -2.5598   -3.0582 H   0  0  0  0  0  0  0  0  0  0  0  0
   -2.8820   -3.2309   -1.3963 H   0  0  0  0  0  0  0  0  0  0  0  0
   -0.7829   -2.6424   -2.5239 H   0  0  0  0  0  0  0  0  0  0  0  0
   -1.3363   -0.9271   -2.7304 H   0  0  0  0  0  0  0  0  0  0  0  0
    0.8737   -3.4255   -0.6800 H   0  0  0  0  0  0  0  0  0  0  0  0
    3.2535   -3.1456   -0.1480 H   0  0  0  0  0  0  0  0  0  0  0  0
    4.7929    1.1064   -0.5103 H   0  0  0  0  0  0  0  0  0  0  0  0
    6.9320    1.6464    0.2701 H   0  0  0  0  0  0  0  0  0  0  0  0
    6.8864    0.2552    1.3995 H   0  0  0  0  0  0  0  0  0  0  0  0
    7.3959    0.1553   -1.6503 H   0  0  0  0  0  0  0  0  0  0  0  0
    7.3254   -1.2958   -0.5970 H   0  0  0  0  0  0  0  0  0  0  0  0
   10.0406    0.0540   -2.0897 H   0  0  0  0  0  0  0  0  0  0  0  0
    9.6657    1.6603   -1.3180 H   0  0  0  0  0  0  0  0  0  0  0  0
   11.5818    1.5608   -0.0155 H   0  0  0  0  0  0  0  0  0  0  0  0
   12.1064    0.1465   -1.0169 H   0  0  0  0  0  0  0  0  0  0  0  0
   11.6454   -1.3319    0.7317 H   0  0  0  0  0  0  0  0  0  0  0  0
   11.3859    0.1314    1.8007 H   0  0  0  0  0  0  0  0  0  0  0  0
    2.6564    1.0988    0.3144 H   0  0  0  0  0  0  0  0  0  0  0  0
   -0.2057    1.3805   -1.3412 H   0  0  0  0  0  0  0  0  0  0  0  0
    0.5399    2.0760    0.1264 H   0  0  0  0  0  0  0  0  0  0  0  0
   -0.2791    0.6219    2.4009 H   0  0  0  0  0  0  0  0  0  0  0  0
   -2.3796    0.3366    3.6679 H   0  0  0  0  0  0  0  0  0  0  0  0
   -4.5598    0.6005    2.5486 H   0  0  0  0  0  0  0  0  0  0  0  0
   -2.5473    1.4108   -1.1743 H   0  0  0  0  0  0  0  0  0  0  0  0
   -4.9055    1.5876   -1.1119 H   0  0  0  0  0  0  0  0  0  0  0  0
   -5.4438    2.1679    0.4776 H   0  0  0  0  0  0  0  0  0  0  0  0
  1  2  1  0
  2  3  1  0
  2  4  1  0
  4  5  1  0
  5  6  1  0
  6  7  1  0
  7  8  1  0
  8  9  1  0
  9 10  1  0
 10 11  1  0
 11 12  1  0
 12 13  2  0
 13 14  1  0
 14 15  2  0
 15 16  1  0
 16 17  2  0
 16 18  1  0
 18 19  1  0
 19 20  1  0
 20 21  1  0
 21 22  1  0
 22 23  1  0
 23 24  1  0
 24 25  1  0
 25 26  2  0
 15 27  1  0
 27 28  2  0
 28 29  1  0
 29 30  1  0
 30 31  1  0
 31 32  2  0
 32 33  1  0
 33 34  2  0
 34 35  1  0
 34 36  1  0
 36  5  1  0
 28 12  1  0
 35 30  2  0
 25 21  1  0
  1 37  1  0
  1 38  1  0
  1 39  1  0
  2 40  1  0
  3 41  1  0
  3 42  1  0
  3 43  1  0
  4 44  1  0
  4 45  1  0
  6 46  1  0
  6 47  1  0
  7 48  1  0
  7 49  1  0
  9 50  1  0
  9 51  1  0
 10 52  1  0
 10 53  1  0
 13 54  1  0
 14 55  1  0
 18 56  1  0
 19 57  1  0
 19 58  1  0
 20 59  1  0
 20 60  1  0
 22 61  1  0
 22 62  1  0
 23 63  1  0
 23 64  1  0
 24 65  1  0
 24 66  1  0
 27 67  1  0
 29 68  1  0
 29 69  1  0
 31 70  1  0
 32 71  1  0
 33 72  1  0
 35 73  1  0
 36 74  1  0
 36 75  1  0
M  END
$$$$
