
     RDKit          3D

 63 66  0  0  0  0  0  0  0  0999 V2000
   -3.1555    2.7334   -2.1001 O   0  0  0  0  0  0  0  0  0  0  0  0
   -2.4801    2.2510   -1.1493 C   0  0  0  0  0  0  0  0  0  0  0  0
   -2.2578    3.0922    0.0544 C   0  0  0  0  0  0  0  0  0  0  0  0
   -2.0248    2.5257    1.3168 C   0  0  0  0  0  0  0  0  0  0  0  0
   -1.8131    3.3437    2.4275 C   0  0  0  0  0  0  0  0  0  0  0  0
   -1.8437    4.7292    2.2721 C   0  0  0  0  0  0  0  0  0  0  0  0
   -2.0823    5.2702    1.0491 N   0  0  0  0  0  0  0  0  0  0  0  0
   -2.2915    4.4944   -0.0481 C   0  0  0  0  0  0  0  0  0  0  0  0
   -1.8672    0.9450   -1.2967 N   0  0  0  0  0  0  0  0  0  0  0  0
   -2.3091    0.0652   -2.3981 C   0  0  0  0  0  0  0  0  0  0  0  0
   -3.8203   -0.2630   -2.3729 C   0  0  0  0  0  0  0  0  0  0  0  0
   -4.2373   -1.1896   -1.2243 C   0  0  0  0  0  0  0  0  0  0  0  0
   -3.8658   -2.6587   -1.4980 C   0  0  0  0  0  0  0  0  0  0  0  0
   -4.0841   -3.5722   -0.2818 C   0  0  0  0  0  0  0  0  0  0  0  0
   -3.1763   -3.2809    0.9299 C   0  0  0  0  0  0  0  0  0  0  0  0
   -1.6705   -3.4658    0.6562 C   0  0  0  0  0  0  0  0  0  0  0  0
   -1.0877   -2.3638   -0.1291 N   0  0  0  0  0  0  0  0  0  0  0  0
   -0.9293   -1.1377    0.6680 C   0  0  0  0  0  0  0  0  0  0  0  0
   -0.0078   -0.1595   -0.0241 C   0  0  0  0  0  0  0  0  0  0  0  0
    1.3707   -0.2520    0.2429 C   0  0  0  0  0  0  0  0  0  0  0  0
    2.2879    0.6331   -0.3511 C   0  0  0  0  0  0  0  0  0  0  0  0
    3.7009    0.5576   -0.0812 N   0  0  0  0  0  0  0  0  0  0  0  0
    4.2944   -0.4203    0.8332 C   0  0  0  0  0  0  0  0  0  0  0  0
    5.7857   -0.2353    0.9135 C   0  0  0  0  0  0  0  0  0  0  0  0
    6.3440    0.6672    1.8301 C   0  0  0  0  0  0  0  0  0  0  0  0
    7.7267    0.8566    1.8686 C   0  0  0  0  0  0  0  0  0  0  0  0
    8.5389    0.1492    0.9804 C   0  0  0  0  0  0  0  0  0  0  0  0
    7.9826   -0.7098    0.0854 N   0  0  0  0  0  0  0  0  0  0  0  0
    6.6388   -0.9123    0.0289 C   0  0  0  0  0  0  0  0  0  0  0  0
    1.8118    1.6120   -1.2298 C   0  0  0  0  0  0  0  0  0  0  0  0
    0.4516    1.7060   -1.5175 C   0  0  0  0  0  0  0  0  0  0  0  0
   -0.4750    0.8310   -0.9259 C   0  0  0  0  0  0  0  0  0  0  0  0
   -2.0268    1.4584    1.4540 H   0  0  0  0  0  0  0  0  0  0  0  0
   -1.6332    2.9071    3.4015 H   0  0  0  0  0  0  0  0  0  0  0  0
   -1.6822    5.3753    3.1246 H   0  0  0  0  0  0  0  0  0  0  0  0
   -2.4699    4.9738   -1.0019 H   0  0  0  0  0  0  0  0  0  0  0  0
   -1.7243   -0.8777   -2.3949 H   0  0  0  0  0  0  0  0  0  0  0  0
   -2.0765    0.5650   -3.3637 H   0  0  0  0  0  0  0  0  0  0  0  0
   -4.0957   -0.7378   -3.3401 H   0  0  0  0  0  0  0  0  0  0  0  0
   -4.4203    0.6663   -2.3094 H   0  0  0  0  0  0  0  0  0  0  0  0
   -3.8012   -0.8139   -0.2839 H   0  0  0  0  0  0  0  0  0  0  0  0
   -5.3415   -1.1301   -1.1071 H   0  0  0  0  0  0  0  0  0  0  0  0
   -4.5137   -3.0291   -2.3224 H   0  0  0  0  0  0  0  0  0  0  0  0
   -2.8268   -2.7625   -1.8620 H   0  0  0  0  0  0  0  0  0  0  0  0
   -3.9248   -4.6255   -0.6006 H   0  0  0  0  0  0  0  0  0  0  0  0
   -5.1446   -3.4903    0.0422 H   0  0  0  0  0  0  0  0  0  0  0  0
   -3.3932   -2.2854    1.3627 H   0  0  0  0  0  0  0  0  0  0  0  0
   -3.4560   -4.0090    1.7222 H   0  0  0  0  0  0  0  0  0  0  0  0
   -1.5257   -4.4211    0.1046 H   0  0  0  0  0  0  0  0  0  0  0  0
   -1.1313   -3.5805    1.6234 H   0  0  0  0  0  0  0  0  0  0  0  0
   -0.1367   -2.6834   -0.4307 H   0  0  0  0  0  0  0  0  0  0  0  0
   -1.9113   -0.6670    0.8316 H   0  0  0  0  0  0  0  0  0  0  0  0
   -0.5199   -1.3701    1.6773 H   0  0  0  0  0  0  0  0  0  0  0  0
    1.7197   -1.0189    0.9215 H   0  0  0  0  0  0  0  0  0  0  0  0
    4.3303    1.2412   -0.5627 H   0  0  0  0  0  0  0  0  0  0  0  0
    4.0639   -1.4481    0.4776 H   0  0  0  0  0  0  0  0  0  0  0  0
    3.8501   -0.2992    1.8451 H   0  0  0  0  0  0  0  0  0  0  0  0
    5.7104    1.2221    2.5109 H   0  0  0  0  0  0  0  0  0  0  0  0
    8.1643    1.5477    2.5773 H   0  0  0  0  0  0  0  0  0  0  0  0
    9.6117    0.2869    0.9986 H   0  0  0  0  0  0  0  0  0  0  0  0
    6.2364   -1.5989   -0.7048 H   0  0  0  0  0  0  0  0  0  0  0  0
    2.4995    2.3022   -1.7025 H   0  0  0  0  0  0  0  0  0  0  0  0
    0.1146    2.4606   -2.2174 H   0  0  0  0  0  0  0  0  0  0  0  0
  1  2  2  0
  2  3  1  0
  3  4  2  0
  4  5  1  0
  5  6  2  0
  6  7  1  0
  7  8  2  0
  2  9  1  0
  9 10  1  0
 10 11  1  0
 11 12  1  0
 12 13  1  0
 13 14  1  0
 14 15  1  0
 15 16  1  0
 16 17  1  0
 17 18  1  0
 18 19  1  0
 19 20  2  0
 20 21  1  0
 21 22  1  0
 22 23  1  0
 23 24  1  0
 24 25  2  0
 25 26  1  0
 26 27  2  0
 27 28  1  0
 28 29  2  0
 21 30  2  0
 30 31  1  0
 31 32  2  0
  8  3  1  0
 32  9  1  0
 32 19  1  0
 29 24  1  0
  4 33  1  0
  5 34  1  0
  6 35  1  0
  8 36  1  0
 10 37  1  0
 10 38  1  0
 11 39  1  0
 11 40  1  0
 12 41  1  0
 12 42  1  0
 13 43  1  0
 13 44  1  0
 14 45  1  0
 14 46  1  0
 15 47  1  0
 15 48  1  0
 16 49  1  0
 16 50  1  0
 17 51  1  0
 18 52  1  0
 18 53  1  0
 20 54  1  0
 22 55  1  0
 23 56  1  0
 23 57  1  0
 25 58  1  0
 26 59  1  0
 27 60  1  0
 29 61  1  0
 30 62  1  0
 31 63  1  0
M  END
$$$$
