
     RDKit          3D

 76 79  0  0  0  0  0  0  0  0999 V2000
   -2.7352    5.7851    0.1958 C   0  0  0  0  0  0  0  0  0  0  0  0
   -2.0930    4.4054    0.3131 C   0  0  0  0  0  0  0  0  0  0  0  0
   -2.9340    3.4840    1.2052 C   0  0  0  0  0  0  0  0  0  0  0  0
   -2.2958    2.0991    1.4368 C   0  0  0  0  0  0  0  0  0  0  0  0
   -2.0382    1.2950    0.2176 N   0  0  0  0  0  0  0  0  0  0  0  0
   -3.1601    1.1550   -0.7447 C   0  0  0  0  0  0  0  0  0  0  0  0
   -4.2375    0.1716   -0.2543 C   0  0  0  0  0  0  0  0  0  0  0  0
   -3.6816   -1.1363   -0.0686 O   0  0  0  0  0  0  0  0  0  0  0  0
   -4.3809   -2.3575   -0.1008 C   0  0  0  0  0  0  0  0  0  0  0  0
   -5.7730   -2.4015   -0.3244 C   0  0  0  0  0  0  0  0  0  0  0  0
   -6.4353   -3.6239   -0.4414 C   0  0  0  0  0  0  0  0  0  0  0  0
   -5.7262   -4.8180   -0.3350 C   0  0  0  0  0  0  0  0  0  0  0  0
   -4.3560   -4.7966   -0.0809 C   0  0  0  0  0  0  0  0  0  0  0  0
   -3.6721   -3.5774    0.0712 C   0  0  0  0  0  0  0  0  0  0  0  0
   -2.2068   -3.6121    0.4703 C   0  0  0  0  0  0  0  0  0  0  0  0
   -1.2396   -3.4781   -0.7360 C   0  0  0  0  0  0  0  0  0  0  0  0
   -0.1060   -2.4522   -0.5029 C   0  0  0  0  0  0  0  0  0  0  0  0
   -0.6929   -1.0328   -0.4948 C   0  0  0  0  0  0  0  0  0  0  0  0
    0.2094    0.2051   -0.2207 C   0  0  0  0  0  0  0  0  0  0  0  0
    1.3932    0.2378   -1.2255 C   0  0  0  0  0  0  0  0  0  0  0  0
    2.3864    1.3666   -0.9209 C   0  0  0  0  0  0  0  0  0  0  0  0
    2.8119    1.3051    0.4818 N   0  0  0  0  0  0  0  0  0  0  0  0
    4.1383    1.7277    0.8268 C   0  0  0  0  0  0  0  0  0  0  0  0
    4.3025    2.8514    1.3767 O   0  0  0  0  0  0  0  0  0  0  0  0
    5.3034    0.8458    0.5711 C   0  0  0  0  0  0  0  0  0  0  0  0
    5.1166   -0.4882    0.1681 C   0  0  0  0  0  0  0  0  0  0  0  0
    6.2153   -1.3309   -0.0271 C   0  0  0  0  0  0  0  0  0  0  0  0
    7.5238   -0.8584    0.1718 C   0  0  0  0  0  0  0  0  0  0  0  0
    8.6891   -1.8050    0.0175 C   0  0  0  0  0  0  0  0  0  0  0  0
    8.5560   -2.5285   -1.1551 F   0  0  0  0  0  0  0  0  0  0  0  0
    8.7096   -2.6808    1.0888 F   0  0  0  0  0  0  0  0  0  0  0  0
    9.8956   -1.1260   -0.0258 F   0  0  0  0  0  0  0  0  0  0  0  0
    7.7122    0.4735    0.5770 C   0  0  0  0  0  0  0  0  0  0  0  0
    6.6132    1.3175    0.7710 C   0  0  0  0  0  0  0  0  0  0  0  0
    1.7948    1.2417    1.5334 C   0  0  0  0  0  0  0  0  0  0  0  0
    0.7760    0.1347    1.2279 C   0  0  0  0  0  0  0  0  0  0  0  0
   -0.6964    1.4816   -0.4030 C   0  0  0  0  0  0  0  0  0  0  0  0
   -3.7385    5.7019   -0.2720 H   0  0  0  0  0  0  0  0  0  0  0  0
   -2.1008    6.4429   -0.4366 H   0  0  0  0  0  0  0  0  0  0  0  0
   -2.8375    6.2499    1.2016 H   0  0  0  0  0  0  0  0  0  0  0  0
   -2.0023    3.9736   -0.7047 H   0  0  0  0  0  0  0  0  0  0  0  0
   -1.0764    4.5196    0.7493 H   0  0  0  0  0  0  0  0  0  0  0  0
   -3.9626    3.3787    0.8004 H   0  0  0  0  0  0  0  0  0  0  0  0
   -3.0455    3.9678    2.2003 H   0  0  0  0  0  0  0  0  0  0  0  0
   -1.3559    2.2313    2.0154 H   0  0  0  0  0  0  0  0  0  0  0  0
   -2.9696    1.5175    2.1011 H   0  0  0  0  0  0  0  0  0  0  0  0
   -2.7955    0.7573   -1.7155 H   0  0  0  0  0  0  0  0  0  0  0  0
   -3.6154    2.1338   -0.9879 H   0  0  0  0  0  0  0  0  0  0  0  0
   -4.6935    0.5244    0.6940 H   0  0  0  0  0  0  0  0  0  0  0  0
   -5.0188    0.1464   -1.0425 H   0  0  0  0  0  0  0  0  0  0  0  0
   -6.3593   -1.4972   -0.4123 H   0  0  0  0  0  0  0  0  0  0  0  0
   -7.5022   -3.6434   -0.6246 H   0  0  0  0  0  0  0  0  0  0  0  0
   -6.2429   -5.7645   -0.4370 H   0  0  0  0  0  0  0  0  0  0  0  0
   -3.8293   -5.7372    0.0248 H   0  0  0  0  0  0  0  0  0  0  0  0
   -1.9853   -4.5747    0.9842 H   0  0  0  0  0  0  0  0  0  0  0  0
   -2.0311   -2.8512    1.2568 H   0  0  0  0  0  0  0  0  0  0  0  0
   -0.7764   -4.4706   -0.9341 H   0  0  0  0  0  0  0  0  0  0  0  0
   -1.7962   -3.2052   -1.6620 H   0  0  0  0  0  0  0  0  0  0  0  0
    0.6259   -2.5487   -1.3326 H   0  0  0  0  0  0  0  0  0  0  0  0
    0.4087   -2.6845    0.4531 H   0  0  0  0  0  0  0  0  0  0  0  0
   -1.4220   -1.0265    0.3247 H   0  0  0  0  0  0  0  0  0  0  0  0
   -1.2180   -0.8878   -1.4638 H   0  0  0  0  0  0  0  0  0  0  0  0
    1.0162    0.3466   -2.2666 H   0  0  0  0  0  0  0  0  0  0  0  0
    1.9574   -0.7166   -1.1784 H   0  0  0  0  0  0  0  0  0  0  0  0
    3.2633    1.2603   -1.5965 H   0  0  0  0  0  0  0  0  0  0  0  0
    1.9226    2.3544   -1.1264 H   0  0  0  0  0  0  0  0  0  0  0  0
    4.1225   -0.8921    0.0263 H   0  0  0  0  0  0  0  0  0  0  0  0
    6.0416   -2.3605   -0.3136 H   0  0  0  0  0  0  0  0  0  0  0  0
    8.7058    0.8644    0.7579 H   0  0  0  0  0  0  0  0  0  0  0  0
    6.7908    2.3386    1.0843 H   0  0  0  0  0  0  0  0  0  0  0  0
    2.2746    1.0142    2.5115 H   0  0  0  0  0  0  0  0  0  0  0  0
    1.2982    2.2274    1.6361 H   0  0  0  0  0  0  0  0  0  0  0  0
   -0.0470    0.1789    1.9724 H   0  0  0  0  0  0  0  0  0  0  0  0
    1.3007   -0.8320    1.3779 H   0  0  0  0  0  0  0  0  0  0  0  0
   -0.8003    1.7022   -1.4881 H   0  0  0  0  0  0  0  0  0  0  0  0
   -0.1930    2.3815    0.0011 H   0  0  0  0  0  0  0  0  0  0  0  0
  1  2  1  0
  2  3  1  0
  3  4  1  0
  4  5  1  0
  5  6  1  0
  6  7  1  0
  7  8  1  0
  8  9  1  0
  9 10  2  0
 10 11  1  0
 11 12  2  0
 12 13  1  0
 13 14  2  0
 14 15  1  0
 15 16  1  0
 16 17  1  0
 17 18  1  0
 18 19  1  0
 19 20  1  0
 20 21  1  0
 21 22  1  0
 22 23  1  0
 23 24  2  0
 23 25  1  0
 25 26  2  0
 26 27  1  0
 27 28  2  0
 28 29  1  0
 29 30  1  0
 29 31  1  0
 29 32  1  0
 28 33  1  0
 33 34  2  0
 22 35  1  0
 35 36  1  0
 19 37  1  0
 37  5  1  0
 14  9  1  0
 36 19  1  0
 34 25  1  0
  1 38  1  0
  1 39  1  0
  1 40  1  0
  2 41  1  0
  2 42  1  0
  3 43  1  0
  3 44  1  0
  4 45  1  0
  4 46  1  0
  6 47  1  0
  6 48  1  0
  7 49  1  0
  7 50  1  0
 10 51  1  0
 11 52  1  0
 12 53  1  0
 13 54  1  0
 15 55  1  0
 15 56  1  0
 16 57  1  0
 16 58  1  0
 17 59  1  0
 17 60  1  0
 18 61  1  0
 18 62  1  0
 20 63  1  0
 20 64  1  0
 21 65  1  0
 21 66  1  0
 26 67  1  0
 27 68  1  0
 33 69  1  0
 34 70  1  0
 35 71  1  0
 35 72  1  0
 36 73  1  0
 36 74  1  0
 37 75  1  0
 37 76  1  0
M  END
$$$$
