
     RDKit          3D

 69 72  0  0  0  0  0  0  0  0999 V2000
   -6.6131    0.1970    1.0121 C   0  0  0  0  0  0  0  0  0  0  0  0
   -6.4869    0.6192   -0.3909 N   0  0  0  0  0  0  0  0  0  0  0  0
   -5.8398   -0.3577   -1.3009 C   0  0  0  0  0  0  0  0  0  0  0  0
   -4.4726   -0.9003   -0.8104 C   0  0  0  0  0  0  0  0  0  0  0  0
   -4.5811   -2.2625   -0.1068 C   0  0  0  0  0  0  0  0  0  0  0  0
   -3.3053   -2.6219    0.6772 C   0  0  0  0  0  0  0  0  0  0  0  0
   -3.2050   -1.9061    2.0405 C   0  0  0  0  0  0  0  0  0  0  0  0
   -2.6153   -0.6076    1.9278 O   0  0  0  0  0  0  0  0  0  0  0  0
   -1.2361   -0.3443    1.8195 C   0  0  0  0  0  0  0  0  0  0  0  0
   -0.2910   -1.3792    1.6810 C   0  0  0  0  0  0  0  0  0  0  0  0
    1.0689   -1.0902    1.5582 C   0  0  0  0  0  0  0  0  0  0  0  0
    1.5194    0.2361    1.5793 C   0  0  0  0  0  0  0  0  0  0  0  0
    2.9590    0.5473    1.4413 C   0  0  0  0  0  0  0  0  0  0  0  0
    3.4296    1.5686    2.0110 O   0  0  0  0  0  0  0  0  0  0  0  0
    3.8146   -0.2798    0.6384 N   0  0  0  0  0  0  0  0  0  0  0  0
    5.2649   -0.0850    0.6128 C   0  0  0  0  0  0  0  0  0  0  0  0
    5.9068   -0.9107   -0.5114 C   0  0  0  0  0  0  0  0  0  0  0  0
    7.3838   -0.8130   -0.4604 N   0  0  0  0  0  0  0  0  0  0  0  0
    8.0112   -1.8827   -1.2503 C   0  0  0  0  0  0  0  0  0  0  0  0
    8.2055   -1.3545   -2.6582 C   0  0  0  0  0  0  0  0  0  0  0  0
    8.3514    0.1417   -2.4855 C   0  0  0  0  0  0  0  0  0  0  0  0
    7.8710    0.4407   -1.0664 C   0  0  0  0  0  0  0  0  0  0  0  0
    0.5864    1.2708    1.7390 C   0  0  0  0  0  0  0  0  0  0  0  0
   -0.7871    0.9941    1.8533 C   0  0  0  0  0  0  0  0  0  0  0  0
   -1.7646    2.1424    1.9684 C   0  0  0  0  0  0  0  0  0  0  0  0
   -2.5231    2.3332    0.6800 C   0  0  0  0  0  0  0  0  0  0  0  0
   -1.8313    2.5294   -0.5278 C   0  0  0  0  0  0  0  0  0  0  0  0
   -2.5289    2.6002   -1.7350 C   0  0  0  0  0  0  0  0  0  0  0  0
   -3.9183    2.4637   -1.7504 C   0  0  0  0  0  0  0  0  0  0  0  0
   -4.6281    2.2913   -0.5494 C   0  0  0  0  0  0  0  0  0  0  0  0
   -3.9268    2.2763    0.6682 C   0  0  0  0  0  0  0  0  0  0  0  0
   -6.1175    2.0420   -0.5792 C   0  0  0  0  0  0  0  0  0  0  0  0
   -5.6245    0.1124    1.5039 H   0  0  0  0  0  0  0  0  0  0  0  0
   -7.2320    0.9243    1.5796 H   0  0  0  0  0  0  0  0  0  0  0  0
   -7.1385   -0.7784    1.0654 H   0  0  0  0  0  0  0  0  0  0  0  0
   -6.5411   -1.2025   -1.4749 H   0  0  0  0  0  0  0  0  0  0  0  0
   -5.6982    0.1136   -2.2974 H   0  0  0  0  0  0  0  0  0  0  0  0
   -3.8042   -1.0236   -1.6910 H   0  0  0  0  0  0  0  0  0  0  0  0
   -3.9717   -0.1824   -0.1460 H   0  0  0  0  0  0  0  0  0  0  0  0
   -5.4573   -2.3016    0.5712 H   0  0  0  0  0  0  0  0  0  0  0  0
   -4.7489   -3.0405   -0.8837 H   0  0  0  0  0  0  0  0  0  0  0  0
   -3.3300   -3.7173    0.8721 H   0  0  0  0  0  0  0  0  0  0  0  0
   -2.4062   -2.4248    0.0549 H   0  0  0  0  0  0  0  0  0  0  0  0
   -4.2149   -1.7979    2.4866 H   0  0  0  0  0  0  0  0  0  0  0  0
   -2.6211   -2.5234    2.7558 H   0  0  0  0  0  0  0  0  0  0  0  0
   -0.5933   -2.4164    1.6575 H   0  0  0  0  0  0  0  0  0  0  0  0
    1.7693   -1.9096    1.4657 H   0  0  0  0  0  0  0  0  0  0  0  0
    3.3799   -0.9953    0.0134 H   0  0  0  0  0  0  0  0  0  0  0  0
    5.4836    0.9934    0.4616 H   0  0  0  0  0  0  0  0  0  0  0  0
    5.6893   -0.3976    1.5920 H   0  0  0  0  0  0  0  0  0  0  0  0
    5.5877   -1.9661   -0.3547 H   0  0  0  0  0  0  0  0  0  0  0  0
    5.5145   -0.5812   -1.5018 H   0  0  0  0  0  0  0  0  0  0  0  0
    7.4274   -2.8301   -1.2537 H   0  0  0  0  0  0  0  0  0  0  0  0
    9.0056   -2.1109   -0.8065 H   0  0  0  0  0  0  0  0  0  0  0  0
    7.3028   -1.5779   -3.2682 H   0  0  0  0  0  0  0  0  0  0  0  0
    9.0999   -1.8051   -3.1398 H   0  0  0  0  0  0  0  0  0  0  0  0
    9.4164    0.4390   -2.6030 H   0  0  0  0  0  0  0  0  0  0  0  0
    7.7364    0.6842   -3.2370 H   0  0  0  0  0  0  0  0  0  0  0  0
    8.7240    0.8143   -0.4580 H   0  0  0  0  0  0  0  0  0  0  0  0
    7.1049    1.2463   -1.0840 H   0  0  0  0  0  0  0  0  0  0  0  0
    0.9251    2.2996    1.7473 H   0  0  0  0  0  0  0  0  0  0  0  0
   -1.2376    3.0896    2.2136 H   0  0  0  0  0  0  0  0  0  0  0  0
   -2.4563    1.9403    2.8155 H   0  0  0  0  0  0  0  0  0  0  0  0
   -0.7509    2.5981   -0.5369 H   0  0  0  0  0  0  0  0  0  0  0  0
   -1.9888    2.7332   -2.6641 H   0  0  0  0  0  0  0  0  0  0  0  0
   -4.4390    2.4767   -2.6996 H   0  0  0  0  0  0  0  0  0  0  0  0
   -4.4682    2.1545    1.5981 H   0  0  0  0  0  0  0  0  0  0  0  0
   -6.6051    2.6772    0.1931 H   0  0  0  0  0  0  0  0  0  0  0  0
   -6.5399    2.3874   -1.5477 H   0  0  0  0  0  0  0  0  0  0  0  0
  1  2  1  0
  2  3  1  0
  3  4  1  0
  4  5  1  0
  5  6  1  0
  6  7  1  0
  7  8  1  0
  8  9  1  0
  9 10  2  0
 10 11  1  0
 11 12  2  0
 12 13  1  0
 13 14  2  0
 13 15  1  0
 15 16  1  0
 16 17  1  0
 17 18  1  0
 18 19  1  0
 19 20  1  0
 20 21  1  0
 21 22  1  0
 12 23  1  0
 23 24  2  0
 24 25  1  0
 25 26  1  0
 26 27  1  0
 27 28  2  0
 28 29  1  0
 29 30  2  0
 30 31  1  0
 30 32  1  0
 32  2  1  0
 24  9  1  0
 31 26  2  0
 22 18  1  0
  1 33  1  0
  1 34  1  0
  1 35  1  0
  3 36  1  0
  3 37  1  0
  4 38  1  0
  4 39  1  0
  5 40  1  0
  5 41  1  0
  6 42  1  0
  6 43  1  0
  7 44  1  0
  7 45  1  0
 10 46  1  0
 11 47  1  0
 15 48  1  0
 16 49  1  0
 16 50  1  0
 17 51  1  0
 17 52  1  0
 19 53  1  0
 19 54  1  0
 20 55  1  0
 20 56  1  0
 21 57  1  0
 21 58  1  0
 22 59  1  0
 22 60  1  0
 23 61  1  0
 25 62  1  0
 25 63  1  0
 27 64  1  0
 28 65  1  0
 29 66  1  0
 31 67  1  0
 32 68  1  0
 32 69  1  0
M  END
$$$$
