
     RDKit          3D

 61 64  0  0  0  0  0  0  0  0999 V2000
    3.6956   -1.5017    1.6456 C   0  0  0  0  0  0  0  0  0  0  0  0
    4.2973   -0.1385    1.8754 C   0  0  0  0  0  0  0  0  0  0  0  0
    5.5889   -0.0464    2.4159 C   0  0  0  0  0  0  0  0  0  0  0  0
    6.1508    1.2057    2.6643 C   0  0  0  0  0  0  0  0  0  0  0  0
    5.4544    2.3339    2.3733 N   0  0  0  0  0  0  0  0  0  0  0  0
    4.2091    2.2858    1.8298 C   0  0  0  0  0  0  0  0  0  0  0  0
    3.6029    1.0505    1.5506 C   0  0  0  0  0  0  0  0  0  0  0  0
    2.2654    1.0302    0.9225 C   0  0  0  0  0  0  0  0  0  0  0  0
    1.1714    1.6080    1.5743 C   0  0  0  0  0  0  0  0  0  0  0  0
   -0.0928    1.5748    0.9867 C   0  0  0  0  0  0  0  0  0  0  0  0
   -0.2923    0.9571   -0.2573 C   0  0  0  0  0  0  0  0  0  0  0  0
    0.8230    0.4048   -0.9483 C   0  0  0  0  0  0  0  0  0  0  0  0
    2.0898    0.4503   -0.3397 C   0  0  0  0  0  0  0  0  0  0  0  0
    0.7178   -0.2501   -2.3156 C   0  0  0  0  0  0  0  0  0  0  0  0
    0.1894   -1.6196   -2.2594 N   0  0  0  0  0  0  0  0  0  0  0  0
    1.0728   -2.5695   -1.5647 C   0  0  0  0  0  0  0  0  0  0  0  0
    0.3492   -3.9120   -1.3322 C   0  0  0  0  0  0  0  0  0  0  0  0
   -0.3617   -4.0348    0.0347 C   0  0  0  0  0  0  0  0  0  0  0  0
   -1.6301   -3.1644    0.1906 C   0  0  0  0  0  0  0  0  0  0  0  0
   -1.3393   -1.8444    0.9304 C   0  0  0  0  0  0  0  0  0  0  0  0
   -2.4713   -0.8021    0.8160 C   0  0  0  0  0  0  0  0  0  0  0  0
   -2.6136   -0.0993   -0.5566 C   0  0  0  0  0  0  0  0  0  0  0  0
   -1.6215    0.9742   -0.8142 N   0  0  0  0  0  0  0  0  0  0  0  0
   -1.9728    2.1119   -1.6295 C   0  0  0  0  0  0  0  0  0  0  0  0
   -1.1234    2.5757   -2.4396 O   0  0  0  0  0  0  0  0  0  0  0  0
   -3.2681    2.8174   -1.4698 C   0  0  0  0  0  0  0  0  0  0  0  0
   -3.9085    2.8983   -0.2214 C   0  0  0  0  0  0  0  0  0  0  0  0
   -5.1148    3.5916   -0.0940 C   0  0  0  0  0  0  0  0  0  0  0  0
   -5.6574    4.2314   -1.2073 C   0  0  0  0  0  0  0  0  0  0  0  0
   -5.0107    4.1829   -2.4043 N   0  0  0  0  0  0  0  0  0  0  0  0
   -3.8410    3.4991   -2.5550 C   0  0  0  0  0  0  0  0  0  0  0  0
    2.6062   -1.4942    1.8719 H   0  0  0  0  0  0  0  0  0  0  0  0
    4.1689   -2.2600    2.3110 H   0  0  0  0  0  0  0  0  0  0  0  0
    3.8520   -1.8141    0.5875 H   0  0  0  0  0  0  0  0  0  0  0  0
    6.1547   -0.9380    2.6526 H   0  0  0  0  0  0  0  0  0  0  0  0
    7.1419    1.2806    3.0950 H   0  0  0  0  0  0  0  0  0  0  0  0
    3.6985    3.2121    1.5983 H   0  0  0  0  0  0  0  0  0  0  0  0
    1.2943    2.0715    2.5451 H   0  0  0  0  0  0  0  0  0  0  0  0
   -0.9292    2.0265    1.5050 H   0  0  0  0  0  0  0  0  0  0  0  0
    2.9481    0.0300   -0.8521 H   0  0  0  0  0  0  0  0  0  0  0  0
    1.7052   -0.2578   -2.8289 H   0  0  0  0  0  0  0  0  0  0  0  0
    0.0521    0.3549   -2.9642 H   0  0  0  0  0  0  0  0  0  0  0  0
   -0.7245   -1.5915   -1.7834 H   0  0  0  0  0  0  0  0  0  0  0  0
    1.9617   -2.7543   -2.2106 H   0  0  0  0  0  0  0  0  0  0  0  0
    1.4422   -2.1724   -0.5953 H   0  0  0  0  0  0  0  0  0  0  0  0
    1.1117   -4.7186   -1.3757 H   0  0  0  0  0  0  0  0  0  0  0  0
   -0.3673   -4.1143   -2.1571 H   0  0  0  0  0  0  0  0  0  0  0  0
    0.3599   -3.8439    0.8584 H   0  0  0  0  0  0  0  0  0  0  0  0
   -0.6738   -5.0963    0.1385 H   0  0  0  0  0  0  0  0  0  0  0  0
   -2.3714   -3.7273    0.7990 H   0  0  0  0  0  0  0  0  0  0  0  0
   -2.1122   -2.9997   -0.7925 H   0  0  0  0  0  0  0  0  0  0  0  0
   -1.2270   -2.0907    2.0115 H   0  0  0  0  0  0  0  0  0  0  0  0
   -0.3688   -1.4204    0.6245 H   0  0  0  0  0  0  0  0  0  0  0  0
   -2.3350   -0.0283    1.6005 H   0  0  0  0  0  0  0  0  0  0  0  0
   -3.4307   -1.3130    1.0522 H   0  0  0  0  0  0  0  0  0  0  0  0
   -3.6338    0.3305   -0.5711 H   0  0  0  0  0  0  0  0  0  0  0  0
   -2.6368   -0.8214   -1.3900 H   0  0  0  0  0  0  0  0  0  0  0  0
   -3.4728    2.4362    0.6553 H   0  0  0  0  0  0  0  0  0  0  0  0
   -5.6190    3.6464    0.8628 H   0  0  0  0  0  0  0  0  0  0  0  0
   -6.5898    4.7826   -1.1242 H   0  0  0  0  0  0  0  0  0  0  0  0
   -3.3636    3.4838   -3.5252 H   0  0  0  0  0  0  0  0  0  0  0  0
  1  2  1  0
  2  3  2  0
  3  4  1  0
  4  5  2  0
  5  6  1  0
  6  7  2  0
  7  8  1  0
  8  9  2  0
  9 10  1  0
 10 11  2  0
 11 12  1  0
 12 13  2  0
 12 14  1  0
 14 15  1  0
 15 16  1  0
 16 17  1  0
 17 18  1  0
 18 19  1  0
 19 20  1  0
 20 21  1  0
 21 22  1  0
 22 23  1  0
 23 24  1  0
 24 25  2  0
 24 26  1  0
 26 27  2  0
 27 28  1  0
 28 29  2  0
 29 30  1  0
 30 31  2  0
  7  2  1  0
 13  8  1  0
 31 26  1  0
 23 11  1  0
  1 32  1  0
  1 33  1  0
  1 34  1  0
  3 35  1  0
  4 36  1  0
  6 37  1  0
  9 38  1  0
 10 39  1  0
 13 40  1  0
 14 41  1  0
 14 42  1  0
 15 43  1  0
 16 44  1  0
 16 45  1  0
 17 46  1  0
 17 47  1  0
 18 48  1  0
 18 49  1  0
 19 50  1  0
 19 51  1  0
 20 52  1  0
 20 53  1  0
 21 54  1  0
 21 55  1  0
 22 56  1  0
 22 57  1  0
 27 58  1  0
 28 59  1  0
 29 60  1  0
 31 61  1  0
M  END
$$$$
