
     RDKit          3D

 80 83  0  0  0  0  0  0  0  0999 V2000
   -5.4983    3.8850   -1.5262 C   0  0  0  0  0  0  0  0  0  0  0  0
   -4.1659    3.1482   -1.3361 C   0  0  0  0  0  0  0  0  0  0  0  0
   -3.2676    3.3771   -2.5616 C   0  0  0  0  0  0  0  0  0  0  0  0
   -4.4261    1.6417   -1.0841 C   0  0  0  0  0  0  0  0  0  0  0  0
   -3.1918    0.8783   -0.5538 C   0  0  0  0  0  0  0  0  0  0  0  0
   -2.7643    1.4314    0.7395 N   0  0  0  0  0  0  0  0  0  0  0  0
   -1.5277    1.1435    1.4220 C   0  0  0  0  0  0  0  0  0  0  0  0
   -1.5763    1.0389    2.6793 O   0  0  0  0  0  0  0  0  0  0  0  0
   -0.1669    0.9894    0.7153 C   0  0  0  0  0  0  0  0  0  0  0  0
   -0.0624   -0.4203    0.0413 C   0  0  0  0  0  0  0  0  0  0  0  0
   -0.3219   -1.6033    0.9962 C   0  0  0  0  0  0  0  0  0  0  0  0
   -0.5410   -2.9163    0.2238 C   0  0  0  0  0  0  0  0  0  0  0  0
   -1.2748   -3.9637    1.0758 C   0  0  0  0  0  0  0  0  0  0  0  0
   -2.4965   -3.4511    1.5785 O   0  0  0  0  0  0  0  0  0  0  0  0
   -3.5479   -3.6160    0.6448 C   0  0  0  0  0  0  0  0  0  0  0  0
   -4.6073   -2.5160    0.8441 C   0  0  0  0  0  0  0  0  0  0  0  0
   -5.3411   -2.7071    2.1774 C   0  0  0  0  0  0  0  0  0  0  0  0
   -4.0044   -1.1750    0.7824 N   0  0  0  0  0  0  0  0  0  0  0  0
   -3.5329   -0.5932   -0.4474 C   0  0  0  0  0  0  0  0  0  0  0  0
   -3.4653   -1.2999   -1.4893 O   0  0  0  0  0  0  0  0  0  0  0  0
   -0.0017    2.1188   -0.3606 C   0  0  0  0  0  0  0  0  0  0  0  0
    1.4374    2.6496   -0.5003 C   0  0  0  0  0  0  0  0  0  0  0  0
    2.3985    1.5593   -0.2688 N   0  0  0  0  0  0  0  0  0  0  0  0
    3.7544    1.9478   -0.7052 C   0  0  0  0  0  0  0  0  0  0  0  0
    4.6535    0.7404   -0.7632 C   0  0  0  0  0  0  0  0  0  0  0  0
    4.4644   -0.3120   -1.6543 C   0  0  0  0  0  0  0  0  0  0  0  0
    5.4131   -1.2485   -1.3148 C   0  0  0  0  0  0  0  0  0  0  0  0
    5.6617   -2.5084   -1.8553 C   0  0  0  0  0  0  0  0  0  0  0  0
    6.6879   -3.2784   -1.2818 C   0  0  0  0  0  0  0  0  0  0  0  0
    7.4262   -2.7815   -0.1866 C   0  0  0  0  0  0  0  0  0  0  0  0
    7.1485   -1.5080    0.3433 C   0  0  0  0  0  0  0  0  0  0  0  0
    6.1306   -0.7538   -0.2539 C   0  0  0  0  0  0  0  0  0  0  0  0
    5.6843    0.4758    0.0867 N   0  0  0  0  0  0  0  0  0  0  0  0
    6.1364    1.2972    1.2113 C   0  0  0  0  0  0  0  0  0  0  0  0
    2.3887    1.1462    1.1545 C   0  0  0  0  0  0  0  0  0  0  0  0
    0.9723    1.1575    1.7698 C   0  0  0  0  0  0  0  0  0  0  0  0
   -5.3190    4.9697   -1.6921 H   0  0  0  0  0  0  0  0  0  0  0  0
   -6.0528    3.4739   -2.3979 H   0  0  0  0  0  0  0  0  0  0  0  0
   -6.1289    3.7808   -0.6167 H   0  0  0  0  0  0  0  0  0  0  0  0
   -3.6652    3.5950   -0.4495 H   0  0  0  0  0  0  0  0  0  0  0  0
   -3.6933    2.8832   -3.4606 H   0  0  0  0  0  0  0  0  0  0  0  0
   -3.1691    4.4643   -2.7676 H   0  0  0  0  0  0  0  0  0  0  0  0
   -2.2471    2.9869   -2.3831 H   0  0  0  0  0  0  0  0  0  0  0  0
   -5.2489    1.5292   -0.3425 H   0  0  0  0  0  0  0  0  0  0  0  0
   -4.7776    1.1714   -2.0304 H   0  0  0  0  0  0  0  0  0  0  0  0
   -2.3876    0.9911   -1.2987 H   0  0  0  0  0  0  0  0  0  0  0  0
   -3.5110    1.8561    1.3367 H   0  0  0  0  0  0  0  0  0  0  0  0
   -0.7789   -0.4762   -0.7985 H   0  0  0  0  0  0  0  0  0  0  0  0
    0.9362   -0.5626   -0.4224 H   0  0  0  0  0  0  0  0  0  0  0  0
    0.5417   -1.7338    1.6830 H   0  0  0  0  0  0  0  0  0  0  0  0
   -1.2147   -1.3874    1.6154 H   0  0  0  0  0  0  0  0  0  0  0  0
   -1.1266   -2.7330   -0.7010 H   0  0  0  0  0  0  0  0  0  0  0  0
    0.4442   -3.3247   -0.0900 H   0  0  0  0  0  0  0  0  0  0  0  0
   -0.6288   -4.2230    1.9419 H   0  0  0  0  0  0  0  0  0  0  0  0
   -1.4160   -4.9061    0.4969 H   0  0  0  0  0  0  0  0  0  0  0  0
   -4.0147   -4.6121    0.8033 H   0  0  0  0  0  0  0  0  0  0  0  0
   -3.2075   -3.5907   -0.4132 H   0  0  0  0  0  0  0  0  0  0  0  0
   -5.3652   -2.6058    0.0342 H   0  0  0  0  0  0  0  0  0  0  0  0
   -6.1295   -1.9322    2.2883 H   0  0  0  0  0  0  0  0  0  0  0  0
   -5.8264   -3.7063    2.2121 H   0  0  0  0  0  0  0  0  0  0  0  0
   -4.6339   -2.6194    3.0302 H   0  0  0  0  0  0  0  0  0  0  0  0
   -4.0177   -0.5810    1.6421 H   0  0  0  0  0  0  0  0  0  0  0  0
   -0.3132    1.7512   -1.3602 H   0  0  0  0  0  0  0  0  0  0  0  0
   -0.6538    2.9887   -0.1236 H   0  0  0  0  0  0  0  0  0  0  0  0
    1.5512    3.0687   -1.5252 H   0  0  0  0  0  0  0  0  0  0  0  0
    1.6120    3.4810    0.2214 H   0  0  0  0  0  0  0  0  0  0  0  0
    3.7166    2.3675   -1.7346 H   0  0  0  0  0  0  0  0  0  0  0  0
    4.1656    2.7454   -0.0521 H   0  0  0  0  0  0  0  0  0  0  0  0
    3.7082   -0.3931   -2.4243 H   0  0  0  0  0  0  0  0  0  0  0  0
    5.0807   -2.8857   -2.6874 H   0  0  0  0  0  0  0  0  0  0  0  0
    6.9084   -4.2612   -1.6778 H   0  0  0  0  0  0  0  0  0  0  0  0
    8.2087   -3.3866    0.2521 H   0  0  0  0  0  0  0  0  0  0  0  0
    7.7119   -1.1407    1.1893 H   0  0  0  0  0  0  0  0  0  0  0  0
    6.1535    2.3689    0.9269 H   0  0  0  0  0  0  0  0  0  0  0  0
    5.4594    1.1495    2.0781 H   0  0  0  0  0  0  0  0  0  0  0  0
    7.1711    1.0320    1.5092 H   0  0  0  0  0  0  0  0  0  0  0  0
    3.0408    1.8052    1.7709 H   0  0  0  0  0  0  0  0  0  0  0  0
    2.7937    0.1133    1.2260 H   0  0  0  0  0  0  0  0  0  0  0  0
    0.9145    0.3804    2.5622 H   0  0  0  0  0  0  0  0  0  0  0  0
    0.8334    2.1348    2.2863 H   0  0  0  0  0  0  0  0  0  0  0  0
  1  2  1  0
  2  3  1  0
  2  4  1  0
  4  5  1  0
  5  6  1  0
  6  7  1  0
  7  8  2  0
  7  9  1  0
  9 10  1  0
 10 11  1  0
 11 12  1  0
 12 13  1  0
 13 14  1  0
 14 15  1  0
 15 16  1  0
 16 17  1  0
 16 18  1  0
 18 19  1  0
 19 20  2  0
  9 21  1  0
 21 22  1  0
 22 23  1  0
 23 24  1  0
 24 25  1  0
 25 26  2  0
 26 27  1  0
 27 28  2  0
 28 29  1  0
 29 30  2  0
 30 31  1  0
 31 32  2  0
 32 33  1  0
 33 34  1  0
 23 35  1  0
 35 36  1  0
 19  5  1  0
 33 25  1  0
 36  9  1  0
 32 27  1  0
  1 37  1  0
  1 38  1  0
  1 39  1  0
  2 40  1  0
  3 41  1  0
  3 42  1  0
  3 43  1  0
  4 44  1  0
  4 45  1  0
  5 46  1  0
  6 47  1  0
 10 48  1  0
 10 49  1  0
 11 50  1  0
 11 51  1  0
 12 52  1  0
 12 53  1  0
 13 54  1  0
 13 55  1  0
 15 56  1  0
 15 57  1  0
 16 58  1  0
 17 59  1  0
 17 60  1  0
 17 61  1  0
 18 62  1  0
 21 63  1  0
 21 64  1  0
 22 65  1  0
 22 66  1  0
 24 67  1  0
 24 68  1  0
 26 69  1  0
 28 70  1  0
 29 71  1  0
 30 72  1  0
 31 73  1  0
 34 74  1  0
 34 75  1  0
 34 76  1  0
 35 77  1  0
 35 78  1  0
 36 79  1  0
 36 80  1  0
M  END
$$$$
