
     RDKit          3D

 91 94  0  0  0  0  0  0  0  0999 V2000
    4.5416   -3.3419   -0.4008 C   0  0  0  0  0  0  0  0  0  0  0  0
    3.4319   -2.4299   -0.1024 N   0  0  0  0  0  0  0  0  0  0  0  0
    3.4103   -1.7497    1.2061 C   0  0  0  0  0  0  0  0  0  0  0  0
    4.5825   -0.8156    1.3780 C   0  0  0  0  0  0  0  0  0  0  0  0
    5.6474   -1.2596    1.8889 O   0  0  0  0  0  0  0  0  0  0  0  0
    4.4869    0.5833    1.0428 N   0  0  0  0  0  0  0  0  0  0  0  0
    5.0168    1.5562    2.0069 C   0  0  0  0  0  0  0  0  0  0  0  0
    3.9929    1.0072   -0.2837 C   0  0  0  0  0  0  0  0  0  0  0  0
    5.1339    1.5856   -1.1444 C   0  0  0  0  0  0  0  0  0  0  0  0
    6.1640    0.5354   -1.4743 C   0  0  0  0  0  0  0  0  0  0  0  0
    7.3513    0.4383   -0.7280 C   0  0  0  0  0  0  0  0  0  0  0  0
    8.2968   -0.5473   -1.0359 C   0  0  0  0  0  0  0  0  0  0  0  0
    8.0672   -1.4356   -2.0898 C   0  0  0  0  0  0  0  0  0  0  0  0
    6.8861   -1.3475   -2.8316 C   0  0  0  0  0  0  0  0  0  0  0  0
    5.9338   -0.3705   -2.5227 C   0  0  0  0  0  0  0  0  0  0  0  0
    2.8383    2.0179   -0.1660 C   0  0  0  0  0  0  0  0  0  0  0  0
    1.8733    1.5554    0.7757 O   0  0  0  0  0  0  0  0  0  0  0  0
    0.6086    2.1377    0.9724 C   0  0  0  0  0  0  0  0  0  0  0  0
    0.1950    3.2829    0.2646 C   0  0  0  0  0  0  0  0  0  0  0  0
   -1.0630    3.8454    0.5045 C   0  0  0  0  0  0  0  0  0  0  0  0
   -1.9189    3.2755    1.4485 C   0  0  0  0  0  0  0  0  0  0  0  0
   -1.5306    2.1284    2.1425 C   0  0  0  0  0  0  0  0  0  0  0  0
   -0.2712    1.5554    1.9056 C   0  0  0  0  0  0  0  0  0  0  0  0
    0.1321    0.3695    2.6713 C   0  0  0  0  0  0  0  0  0  0  0  0
    0.6585    0.5361    3.8035 O   0  0  0  0  0  0  0  0  0  0  0  0
   -0.0656   -0.9637    2.1792 N   0  0  0  0  0  0  0  0  0  0  0  0
   -0.7655   -1.3098    0.9326 C   0  0  0  0  0  0  0  0  0  0  0  0
   -2.1161   -1.9030    1.2437 C   0  0  0  0  0  0  0  0  0  0  0  0
   -2.3848   -2.2982    2.4106 O   0  0  0  0  0  0  0  0  0  0  0  0
   -3.0916   -2.0277    0.2000 N   0  0  0  0  0  0  0  0  0  0  0  0
   -4.4823   -2.3813    0.4895 C   0  0  0  0  0  0  0  0  0  0  0  0
   -5.3197   -2.5273   -0.7926 C   0  0  0  0  0  0  0  0  0  0  0  0
   -5.4291   -1.2308   -1.6192 C   0  0  0  0  0  0  0  0  0  0  0  0
   -5.8164   -0.0673   -0.7883 N   0  0  0  0  0  0  0  0  0  0  0  0
   -5.4918    1.2085   -1.4744 C   0  0  0  0  0  0  0  0  0  0  0  0
   -5.2549    2.3661   -0.4689 C   0  0  0  0  0  0  0  0  0  0  0  0
   -5.4436    1.9714    1.0095 C   0  0  0  0  0  0  0  0  0  0  0  0
   -6.9036    1.6667    1.4076 C   0  0  0  0  0  0  0  0  0  0  0  0
   -7.7934    1.1213    0.2781 C   0  0  0  0  0  0  0  0  0  0  0  0
   -7.2469   -0.1512   -0.4004 C   0  0  0  0  0  0  0  0  0  0  0  0
    0.0972   -2.2960    0.1064 C   0  0  0  0  0  0  0  0  0  0  0  0
    1.0926   -1.5474   -0.8006 C   0  0  0  0  0  0  0  0  0  0  0  0
    2.3407   -2.3528   -1.0570 C   0  0  0  0  0  0  0  0  0  0  0  0
    2.4220   -2.9841   -2.1458 O   0  0  0  0  0  0  0  0  0  0  0  0
    4.1496   -4.3642   -0.5833 H   0  0  0  0  0  0  0  0  0  0  0  0
    5.2634   -3.4024    0.4416 H   0  0  0  0  0  0  0  0  0  0  0  0
    5.0807   -2.9907   -1.3043 H   0  0  0  0  0  0  0  0  0  0  0  0
    2.4821   -1.1807    1.3746 H   0  0  0  0  0  0  0  0  0  0  0  0
    3.4399   -2.5167    2.0081 H   0  0  0  0  0  0  0  0  0  0  0  0
    6.0861    1.3431    2.2120 H   0  0  0  0  0  0  0  0  0  0  0  0
    4.9431    2.5956    1.6293 H   0  0  0  0  0  0  0  0  0  0  0  0
    4.4418    1.4888    2.9547 H   0  0  0  0  0  0  0  0  0  0  0  0
    3.5894    0.1298   -0.8297 H   0  0  0  0  0  0  0  0  0  0  0  0
    5.6115    2.4461   -0.6277 H   0  0  0  0  0  0  0  0  0  0  0  0
    4.7165    1.9832   -2.0969 H   0  0  0  0  0  0  0  0  0  0  0  0
    7.5480    1.1255    0.0849 H   0  0  0  0  0  0  0  0  0  0  0  0
    9.2102   -0.6168   -0.4622 H   0  0  0  0  0  0  0  0  0  0  0  0
    8.8043   -2.1913   -2.3328 H   0  0  0  0  0  0  0  0  0  0  0  0
    6.7020   -2.0430   -3.6404 H   0  0  0  0  0  0  0  0  0  0  0  0
    5.0199   -0.3190   -3.1005 H   0  0  0  0  0  0  0  0  0  0  0  0
    2.3606    2.1103   -1.1666 H   0  0  0  0  0  0  0  0  0  0  0  0
    3.2076    3.0226    0.1403 H   0  0  0  0  0  0  0  0  0  0  0  0
    0.8446    3.7603   -0.4556 H   0  0  0  0  0  0  0  0  0  0  0  0
   -1.3691    4.7352   -0.0322 H   0  0  0  0  0  0  0  0  0  0  0  0
   -2.8797    3.7295    1.6499 H   0  0  0  0  0  0  0  0  0  0  0  0
   -2.2041    1.6919    2.8731 H   0  0  0  0  0  0  0  0  0  0  0  0
    0.2543   -1.7503    2.7918 H   0  0  0  0  0  0  0  0  0  0  0  0
   -0.9514   -0.3971    0.3264 H   0  0  0  0  0  0  0  0  0  0  0  0
   -2.7835   -1.8512   -0.7836 H   0  0  0  0  0  0  0  0  0  0  0  0
   -4.9313   -1.6126    1.1553 H   0  0  0  0  0  0  0  0  0  0  0  0
   -4.5050   -3.3491    1.0346 H   0  0  0  0  0  0  0  0  0  0  0  0
   -6.3385   -2.8752   -0.5192 H   0  0  0  0  0  0  0  0  0  0  0  0
   -4.8737   -3.3202   -1.4307 H   0  0  0  0  0  0  0  0  0  0  0  0
   -4.4424   -1.0613   -2.1003 H   0  0  0  0  0  0  0  0  0  0  0  0
   -6.1549   -1.3807   -2.4508 H   0  0  0  0  0  0  0  0  0  0  0  0
   -6.2950    1.4823   -2.1975 H   0  0  0  0  0  0  0  0  0  0  0  0
   -4.5602    1.1144   -2.0764 H   0  0  0  0  0  0  0  0  0  0  0  0
   -4.2159    2.7422   -0.5923 H   0  0  0  0  0  0  0  0  0  0  0  0
   -5.9253    3.2182   -0.7115 H   0  0  0  0  0  0  0  0  0  0  0  0
   -4.7917    1.1008    1.2463 H   0  0  0  0  0  0  0  0  0  0  0  0
   -5.0831    2.8072    1.6469 H   0  0  0  0  0  0  0  0  0  0  0  0
   -6.9029    0.9488    2.2576 H   0  0  0  0  0  0  0  0  0  0  0  0
   -7.3696    2.6065    1.7746 H   0  0  0  0  0  0  0  0  0  0  0  0
   -8.7880    0.8831    0.7098 H   0  0  0  0  0  0  0  0  0  0  0  0
   -7.9755    1.9113   -0.4839 H   0  0  0  0  0  0  0  0  0  0  0  0
   -7.3743   -0.9863    0.3229 H   0  0  0  0  0  0  0  0  0  0  0  0
   -7.8846   -0.3657   -1.2893 H   0  0  0  0  0  0  0  0  0  0  0  0
    0.6276   -2.9948    0.7950 H   0  0  0  0  0  0  0  0  0  0  0  0
   -0.5451   -2.9280   -0.5493 H   0  0  0  0  0  0  0  0  0  0  0  0
    0.5879   -1.3229   -1.7682 H   0  0  0  0  0  0  0  0  0  0  0  0
    1.3612   -0.5626   -0.3844 H   0  0  0  0  0  0  0  0  0  0  0  0
  1  2  1  0
  2  3  1  0
  3  4  1  0
  4  5  2  0
  4  6  1  0
  6  7  1  0
  6  8  1  0
  8  9  1  0
  9 10  1  0
 10 11  2  0
 11 12  1  0
 12 13  2  0
 13 14  1  0
 14 15  2  0
  8 16  1  0
 16 17  1  0
 17 18  1  0
 18 19  2  0
 19 20  1  0
 20 21  2  0
 21 22  1  0
 22 23  2  0
 23 24  1  0
 24 25  2  0
 24 26  1  0
 26 27  1  0
 27 28  1  0
 28 29  2  0
 28 30  1  0
 30 31  1  0
 31 32  1  0
 32 33  1  0
 33 34  1  0
 34 35  1  0
 35 36  1  0
 36 37  1  0
 37 38  1  0
 38 39  1  0
 39 40  1  0
 27 41  1  0
 41 42  1  0
 42 43  1  0
 43 44  2  0
 43  2  1  0
 15 10  1  0
 23 18  1  0
 40 34  1  0
  1 45  1  0
  1 46  1  0
  1 47  1  0
  3 48  1  0
  3 49  1  0
  7 50  1  0
  7 51  1  0
  7 52  1  0
  8 53  1  0
  9 54  1  0
  9 55  1  0
 11 56  1  0
 12 57  1  0
 13 58  1  0
 14 59  1  0
 15 60  1  0
 16 61  1  0
 16 62  1  0
 19 63  1  0
 20 64  1  0
 21 65  1  0
 22 66  1  0
 26 67  1  0
 27 68  1  0
 30 69  1  0
 31 70  1  0
 31 71  1  0
 32 72  1  0
 32 73  1  0
 33 74  1  0
 33 75  1  0
 35 76  1  0
 35 77  1  0
 36 78  1  0
 36 79  1  0
 37 80  1  0
 37 81  1  0
 38 82  1  0
 38 83  1  0
 39 84  1  0
 39 85  1  0
 40 86  1  0
 40 87  1  0
 41 88  1  0
 41 89  1  0
 42 90  1  0
 42 91  1  0
M  END
$$$$
