
     RDKit          3D

 78 82  0  0  0  0  0  0  0  0999 V2000
   -5.1419   -2.2774    0.9810 O   0  0  0  0  0  0  0  0  0  0  0  0
   -4.6994   -1.3193    0.2851 C   0  0  0  0  0  0  0  0  0  0  0  0
   -5.6307   -0.2029    0.0037 C   0  0  0  0  0  0  0  0  0  0  0  0
   -6.9461   -0.4803   -0.3995 C   0  0  0  0  0  0  0  0  0  0  0  0
   -7.8333    0.5726   -0.6380 C   0  0  0  0  0  0  0  0  0  0  0  0
   -7.4096    1.8962   -0.4597 C   0  0  0  0  0  0  0  0  0  0  0  0
   -8.2713    2.9766   -0.6961 C   0  0  0  0  0  0  0  0  0  0  0  0
   -7.8139    4.2863   -0.5167 C   0  0  0  0  0  0  0  0  0  0  0  0
   -6.4994    4.5244   -0.0964 C   0  0  0  0  0  0  0  0  0  0  0  0
   -5.6355    3.4508    0.1497 C   0  0  0  0  0  0  0  0  0  0  0  0
   -6.0853    2.1374   -0.0299 C   0  0  0  0  0  0  0  0  0  0  0  0
   -5.2472    1.0904    0.1979 N   0  0  0  0  0  0  0  0  0  0  0  0
   -3.3461   -1.3804   -0.2532 N   0  0  0  0  0  0  0  0  0  0  0  0
   -2.9086   -0.3177   -1.2061 C   0  0  0  0  0  0  0  0  0  0  0  0
   -1.4254   -0.3035   -1.6449 C   0  0  0  0  0  0  0  0  0  0  0  0
   -0.4881    0.2596   -0.5590 C   0  0  0  0  0  0  0  0  0  0  0  0
    1.0045    0.0609   -0.9254 C   0  0  0  0  0  0  0  0  0  0  0  0
    2.0038    0.0792    0.2850 C   0  0  0  0  0  0  0  0  0  0  0  0
    3.3707   -0.5136   -0.1920 C   0  0  0  0  0  0  0  0  0  0  0  0
    4.5670    0.1448    0.5086 C   0  0  0  0  0  0  0  0  0  0  0  0
    4.6650    1.6018    0.2257 N   0  0  0  0  0  0  0  0  0  0  0  0
    5.6495    1.9021   -0.8342 C   0  0  0  0  0  0  0  0  0  0  0  0
    7.0551    1.7196   -0.3244 C   0  0  0  0  0  0  0  0  0  0  0  0
    7.5323    2.5179    0.7273 C   0  0  0  0  0  0  0  0  0  0  0  0
    8.8443    2.3473    1.1810 C   0  0  0  0  0  0  0  0  0  0  0  0
    9.6492    1.4136    0.6054 N   0  0  0  0  0  0  0  0  0  0  0  0
    9.2113    0.6248   -0.4131 C   0  0  0  0  0  0  0  0  0  0  0  0
    7.9074    0.7641   -0.8970 C   0  0  0  0  0  0  0  0  0  0  0  0
    3.3633    2.2370   -0.0865 C   0  0  0  0  0  0  0  0  0  0  0  0
    2.2188    1.5832    0.7033 C   0  0  0  0  0  0  0  0  0  0  0  0
    1.5054   -0.7542    1.4967 C   0  0  0  0  0  0  0  0  0  0  0  0
    1.4310   -0.2012    2.6264 O   0  0  0  0  0  0  0  0  0  0  0  0
    1.1680   -2.1258    1.4627 O   0  0  0  0  0  0  0  0  0  0  0  0
    0.8566   -2.9034    0.3106 C   0  0  0  0  0  0  0  0  0  0  0  0
    0.0961   -4.1856    0.6890 C   0  0  0  0  0  0  0  0  0  0  0  0
    0.9831   -5.0936    1.2907 O   0  0  0  0  0  0  0  0  0  0  0  0
   -1.1087   -3.9584    1.6497 C   0  0  0  0  0  0  0  0  0  0  0  0
   -1.8837   -5.1278    1.7488 O   0  0  0  0  0  0  0  0  0  0  0  0
   -2.0169   -2.7333    1.3648 C   0  0  0  0  0  0  0  0  0  0  0  0
   -2.6146   -2.6549   -0.0564 C   0  0  0  0  0  0  0  0  0  0  0  0
   -7.2762   -1.5021   -0.5356 H   0  0  0  0  0  0  0  0  0  0  0  0
   -8.8445    0.3534   -0.9538 H   0  0  0  0  0  0  0  0  0  0  0  0
   -9.2897    2.8086   -1.0217 H   0  0  0  0  0  0  0  0  0  0  0  0
   -8.4805    5.1185   -0.7037 H   0  0  0  0  0  0  0  0  0  0  0  0
   -6.1493    5.5396    0.0360 H   0  0  0  0  0  0  0  0  0  0  0  0
   -4.6178    3.6415    0.4660 H   0  0  0  0  0  0  0  0  0  0  0  0
   -3.5441   -0.3853   -2.1191 H   0  0  0  0  0  0  0  0  0  0  0  0
   -3.0854    0.6793   -0.7540 H   0  0  0  0  0  0  0  0  0  0  0  0
   -1.0921   -1.2835   -2.0341 H   0  0  0  0  0  0  0  0  0  0  0  0
   -1.3493    0.3801   -2.5200 H   0  0  0  0  0  0  0  0  0  0  0  0
   -0.7299   -0.2057    0.4057 H   0  0  0  0  0  0  0  0  0  0  0  0
   -0.6930    1.3445   -0.4332 H   0  0  0  0  0  0  0  0  0  0  0  0
    1.2772    0.8629   -1.6451 H   0  0  0  0  0  0  0  0  0  0  0  0
    1.1495   -0.8641   -1.5200 H   0  0  0  0  0  0  0  0  0  0  0  0
    3.4218   -1.6076   -0.0178 H   0  0  0  0  0  0  0  0  0  0  0  0
    3.5086   -0.3616   -1.2867 H   0  0  0  0  0  0  0  0  0  0  0  0
    4.4653    0.0061    1.6070 H   0  0  0  0  0  0  0  0  0  0  0  0
    5.4935   -0.3969    0.2171 H   0  0  0  0  0  0  0  0  0  0  0  0
    5.4619    1.2706   -1.7331 H   0  0  0  0  0  0  0  0  0  0  0  0
    5.5541    2.9645   -1.1620 H   0  0  0  0  0  0  0  0  0  0  0  0
    6.8964    3.2680    1.1811 H   0  0  0  0  0  0  0  0  0  0  0  0
    9.2281    2.9668    1.9829 H   0  0  0  0  0  0  0  0  0  0  0  0
    9.8784   -0.1044   -0.8543 H   0  0  0  0  0  0  0  0  0  0  0  0
    7.5731    0.1429   -1.7216 H   0  0  0  0  0  0  0  0  0  0  0  0
    3.4179    3.3121    0.1884 H   0  0  0  0  0  0  0  0  0  0  0  0
    3.1427    2.1853   -1.1767 H   0  0  0  0  0  0  0  0  0  0  0  0
    1.2898    2.1756    0.5666 H   0  0  0  0  0  0  0  0  0  0  0  0
    2.4981    1.6885    1.7736 H   0  0  0  0  0  0  0  0  0  0  0  0
    1.7842   -3.1659   -0.2395 H   0  0  0  0  0  0  0  0  0  0  0  0
    0.1996   -2.3413   -0.3525 H   0  0  0  0  0  0  0  0  0  0  0  0
   -0.2949   -4.6287   -0.2577 H   0  0  0  0  0  0  0  0  0  0  0  0
    1.5097   -5.5129    0.5600 H   0  0  0  0  0  0  0  0  0  0  0  0
   -0.6793   -3.7783    2.6609 H   0  0  0  0  0  0  0  0  0  0  0  0
   -2.2304   -5.3376    0.8436 H   0  0  0  0  0  0  0  0  0  0  0  0
   -2.8510   -2.7526    2.0990 H   0  0  0  0  0  0  0  0  0  0  0  0
   -1.4546   -1.8137    1.5992 H   0  0  0  0  0  0  0  0  0  0  0  0
   -3.3119   -3.5066   -0.2055 H   0  0  0  0  0  0  0  0  0  0  0  0
   -1.8523   -2.8166   -0.8264 H   0  0  0  0  0  0  0  0  0  0  0  0
  1  2  2  0
  2  3  1  0
  3  4  2  0
  4  5  1  0
  5  6  2  0
  6  7  1  0
  7  8  2  0
  8  9  1  0
  9 10  2  0
 10 11  1  0
 11 12  2  0
  2 13  1  0
 13 14  1  0
 14 15  1  0
 15 16  1  0
 16 17  1  0
 17 18  1  0
 18 19  1  0
 19 20  1  0
 20 21  1  0
 21 22  1  0
 22 23  1  0
 23 24  2  0
 24 25  1  0
 25 26  2  0
 26 27  1  0
 27 28  2  0
 21 29  1  0
 29 30  1  0
 18 31  1  0
 31 32  2  0
 31 33  1  0
 33 34  1  0
 34 35  1  0
 35 36  1  0
 35 37  1  0
 37 38  1  0
 37 39  1  0
 39 40  1  0
 12  3  1  0
 40 13  1  0
 11  6  1  0
 30 18  1  0
 28 23  1  0
  4 41  1  0
  5 42  1  0
  7 43  1  0
  8 44  1  0
  9 45  1  0
 10 46  1  0
 14 47  1  0
 14 48  1  0
 15 49  1  0
 15 50  1  0
 16 51  1  0
 16 52  1  0
 17 53  1  0
 17 54  1  0
 19 55  1  0
 19 56  1  0
 20 57  1  0
 20 58  1  0
 22 59  1  0
 22 60  1  0
 24 61  1  0
 25 62  1  0
 27 63  1  0
 28 64  1  0
 29 65  1  0
 29 66  1  0
 30 67  1  0
 30 68  1  0
 34 69  1  0
 34 70  1  0
 35 71  1  0
 36 72  1  0
 37 73  1  0
 38 74  1  0
 39 75  1  0
 39 76  1  0
 40 77  1  0
 40 78  1  0
M  END
$$$$
