
     RDKit          3D

 85 87  0  0  0  0  0  0  0  0999 V2000
   -0.1097   -4.1515   -0.2003 C   0  0  0  0  0  0  0  0  0  0  0  0
   -0.2263   -2.7560   -0.8353 C   0  0  0  0  0  0  0  0  0  0  0  0
    0.8481   -2.5741   -1.9158 C   0  0  0  0  0  0  0  0  0  0  0  0
   -0.2061   -1.6095    0.2120 C   0  0  1  0  0  0  0  0  0  0  0  0
   -1.3716   -1.7180    1.1057 N   0  0  0  0  0  0  0  0  0  0  0  0
   -2.6657   -1.1160    0.9052 C   0  0  0  0  0  0  0  0  0  0  0  0
   -3.5017   -1.1885    1.8466 O   0  0  0  0  0  0  0  0  0  0  0  0
   -3.0836   -0.4065   -0.3712 C   0  0  1  0  0  0  0  0  0  0  0  0
   -4.0570   -1.2672   -1.2212 C   0  0  0  0  0  0  0  0  0  0  0  0
   -5.3399   -1.6519   -0.5213 C   0  0  0  0  0  0  0  0  0  0  0  0
   -6.4774   -0.8334   -0.6167 C   0  0  0  0  0  0  0  0  0  0  0  0
   -7.6646   -1.1974    0.0239 C   0  0  0  0  0  0  0  0  0  0  0  0
   -7.7307   -2.3856    0.7575 C   0  0  0  0  0  0  0  0  0  0  0  0
   -6.6065   -3.2111    0.8532 C   0  0  0  0  0  0  0  0  0  0  0  0
   -6.6892   -4.6995    1.7759 Cl  0  0  0  0  0  0  0  0  0  0  0  0
   -5.4161   -2.8482    0.2129 C   0  0  0  0  0  0  0  0  0  0  0  0
   -3.6449    0.9101   -0.0155 N   0  0  0  0  0  0  0  0  0  0  0  0
   -3.8071    1.8256   -1.1551 C   0  0  0  0  0  0  0  0  0  0  0  0
   -3.2748    3.1999   -0.7671 C   0  0  0  0  0  0  0  0  0  0  0  0
   -1.8519    3.1461   -0.7089 O   0  0  0  0  0  0  0  0  0  0  0  0
   -1.0219    4.2180   -0.3494 C   0  0  0  0  0  0  0  0  0  0  0  0
   -1.4552    5.2317    0.5257 C   0  0  0  0  0  0  0  0  0  0  0  0
   -0.5864    6.2610    0.8992 C   0  0  0  0  0  0  0  0  0  0  0  0
    0.7149    6.2954    0.3984 C   0  0  0  0  0  0  0  0  0  0  0  0
    1.1482    5.3071   -0.4870 C   0  0  0  0  0  0  0  0  0  0  0  0
    0.2868    4.2662   -0.8706 C   0  0  0  0  0  0  0  0  0  0  0  0
    0.7573    3.2243   -1.8558 C   0  0  0  0  0  0  0  0  0  0  0  0
    1.3100    1.9769   -1.1527 C   0  0  0  0  0  0  0  0  0  0  0  0
    2.7266    2.1809   -0.5851 C   0  0  0  0  0  0  0  0  0  0  0  0
    2.7012    2.2840    0.8742 N   0  0  0  0  0  0  0  0  0  0  0  0
    2.8655    1.2181    1.8341 C   0  0  0  0  0  0  0  0  0  0  0  0
    2.7808    1.5124    3.0558 O   0  0  0  0  0  0  0  0  0  0  0  0
    3.1824   -0.2279    1.4881 C   0  0  2  0  0  0  0  0  0  0  0  0
    4.6209   -0.4082    0.9608 C   0  0  0  0  0  0  0  0  0  0  0  0
    5.0732   -1.8773    1.0165 C   0  0  0  0  0  0  0  0  0  0  0  0
    6.4234   -2.0197    0.4266 N   0  0  0  0  0  0  0  0  0  0  0  0
    7.4723   -1.7260    1.4200 C   0  0  0  0  0  0  0  0  0  0  0  0
    6.6179   -3.3811   -0.0993 C   0  0  0  0  0  0  0  0  0  0  0  0
    2.1891   -0.7852    0.5659 N   0  0  0  0  0  0  0  0  0  0  0  0
    1.0757   -1.5697    1.0204 C   0  0  0  0  0  0  0  0  0  0  0  0
    1.1724   -2.2378    2.0872 O   0  0  0  0  0  0  0  0  0  0  0  0
   -0.9052   -4.3059    0.5586 H   0  0  0  0  0  0  0  0  0  0  0  0
    0.8839   -4.2887    0.2789 H   0  0  0  0  0  0  0  0  0  0  0  0
   -0.2315   -4.9327   -0.9817 H   0  0  0  0  0  0  0  0  0  0  0  0
   -1.2075   -2.7137   -1.3548 H   0  0  0  0  0  0  0  0  0  0  0  0
    0.7072   -3.3253   -2.7227 H   0  0  0  0  0  0  0  0  0  0  0  0
    0.7714   -1.5649   -2.3709 H   0  0  0  0  0  0  0  0  0  0  0  0
    1.8664   -2.7056   -1.4918 H   0  0  0  0  0  0  0  0  0  0  0  0
   -0.2435   -0.6394   -0.3195 H   0  0  0  0  0  0  0  0  0  0  0  0
   -1.2866   -2.3307    1.9490 H   0  0  0  0  0  0  0  0  0  0  0  0
   -2.1946   -0.2398   -1.0064 H   0  0  0  0  0  0  0  0  0  0  0  0
   -4.2991   -0.7302   -2.1645 H   0  0  0  0  0  0  0  0  0  0  0  0
   -3.5283   -2.1922   -1.5384 H   0  0  0  0  0  0  0  0  0  0  0  0
   -6.4481    0.0810   -1.1929 H   0  0  0  0  0  0  0  0  0  0  0  0
   -8.5386   -0.5621   -0.0534 H   0  0  0  0  0  0  0  0  0  0  0  0
   -8.6559   -2.6627    1.2492 H   0  0  0  0  0  0  0  0  0  0  0  0
   -4.5489   -3.4921    0.2933 H   0  0  0  0  0  0  0  0  0  0  0  0
   -4.5594    0.8050    0.4821 H   0  0  0  0  0  0  0  0  0  0  0  0
   -3.2633    1.4779   -2.0623 H   0  0  0  0  0  0  0  0  0  0  0  0
   -4.8834    1.9176   -1.4208 H   0  0  0  0  0  0  0  0  0  0  0  0
   -3.7040    3.4939    0.2151 H   0  0  0  0  0  0  0  0  0  0  0  0
   -3.5751    3.9422   -1.5373 H   0  0  0  0  0  0  0  0  0  0  0  0
   -2.4523    5.2197    0.9422 H   0  0  0  0  0  0  0  0  0  0  0  0
   -0.9207    7.0298    1.5854 H   0  0  0  0  0  0  0  0  0  0  0  0
    1.3885    7.0900    0.6945 H   0  0  0  0  0  0  0  0  0  0  0  0
    2.1559    5.3576   -0.8776 H   0  0  0  0  0  0  0  0  0  0  0  0
   -0.0902    2.9206   -2.5072 H   0  0  0  0  0  0  0  0  0  0  0  0
    1.5199    3.6503   -2.5440 H   0  0  0  0  0  0  0  0  0  0  0  0
    0.6077    1.6440   -0.3571 H   0  0  0  0  0  0  0  0  0  0  0  0
    1.3462    1.1612   -1.9079 H   0  0  0  0  0  0  0  0  0  0  0  0
    3.3894    1.3697   -0.9192 H   0  0  0  0  0  0  0  0  0  0  0  0
    3.1861    3.1050   -0.9948 H   0  0  0  0  0  0  0  0  0  0  0  0
    2.4857    3.2308    1.2614 H   0  0  0  0  0  0  0  0  0  0  0  0
    3.1362   -0.7930    2.4472 H   0  0  0  0  0  0  0  0  0  0  0  0
    5.3041    0.2069    1.5817 H   0  0  0  0  0  0  0  0  0  0  0  0
    4.7181   -0.0632   -0.0851 H   0  0  0  0  0  0  0  0  0  0  0  0
    4.3300   -2.4730    0.4370 H   0  0  0  0  0  0  0  0  0  0  0  0
    5.0487   -2.2531    2.0659 H   0  0  0  0  0  0  0  0  0  0  0  0
    7.3541   -0.6995    1.8245 H   0  0  0  0  0  0  0  0  0  0  0  0
    7.4490   -2.4525    2.2618 H   0  0  0  0  0  0  0  0  0  0  0  0
    8.4760   -1.7690    0.9392 H   0  0  0  0  0  0  0  0  0  0  0  0
    6.4940   -4.1450    0.7035 H   0  0  0  0  0  0  0  0  0  0  0  0
    7.6318   -3.4780   -0.5464 H   0  0  0  0  0  0  0  0  0  0  0  0
    5.8879   -3.5860   -0.9124 H   0  0  0  0  0  0  0  0  0  0  0  0
    2.2196   -0.5156   -0.4391 H   0  0  0  0  0  0  0  0  0  0  0  0
  1  2  1  0
  2  3  1  0
  2  4  1  0
  4  5  1  0
  5  6  1  0
  6  7  2  0
  6  8  1  0
  8  9  1  0
  9 10  1  0
 10 11  2  0
 11 12  1  0
 12 13  2  0
 13 14  1  0
 14 15  1  0
 14 16  2  0
  8 17  1  0
 17 18  1  0
 18 19  1  0
 19 20  1  0
 20 21  1  0
 21 22  2  0
 22 23  1  0
 23 24  2  0
 24 25  1  0
 25 26  2  0
 26 27  1  0
 27 28  1  0
 28 29  1  0
 29 30  1  0
 30 31  1  0
 31 32  2  0
 31 33  1  0
 33 34  1  0
 34 35  1  0
 35 36  1  0
 36 37  1  0
 36 38  1  0
 33 39  1  0
 39 40  1  0
 40 41  2  0
 40  4  1  0
 16 10  1  0
 26 21  1  0
  1 42  1  0
  1 43  1  0
  1 44  1  0
  2 45  1  0
  3 46  1  0
  3 47  1  0
  3 48  1  0
  4 49  1  6
  5 50  1  0
  8 51  1  6
  9 52  1  0
  9 53  1  0
 11 54  1  0
 12 55  1  0
 13 56  1  0
 16 57  1  0
 17 58  1  0
 18 59  1  0
 18 60  1  0
 19 61  1  0
 19 62  1  0
 22 63  1  0
 23 64  1  0
 24 65  1  0
 25 66  1  0
 27 67  1  0
 27 68  1  0
 28 69  1  0
 28 70  1  0
 29 71  1  0
 29 72  1  0
 30 73  1  0
 33 74  1  1
 34 75  1  0
 34 76  1  0
 35 77  1  0
 35 78  1  0
 37 79  1  0
 37 80  1  0
 37 81  1  0
 38 82  1  0
 38 83  1  0
 38 84  1  0
 39 85  1  0
M  END
$$$$
