
     RDKit          3D

 74 77  0  0  0  0  0  0  0  0999 V2000
   -6.3836   -0.4128   -0.9545 C   0  0  0  0  0  0  0  0  0  0  0  0
   -6.7575    0.7908   -0.1416 C   0  0  0  0  0  0  0  0  0  0  0  0
   -8.0053    0.8604    0.3961 N   0  0  0  0  0  0  0  0  0  0  0  0
   -8.3953    1.9252    1.1436 C   0  0  0  0  0  0  0  0  0  0  0  0
   -7.5350    2.9495    1.3686 N   0  0  0  0  0  0  0  0  0  0  0  0
   -6.2765    2.9280    0.8588 C   0  0  0  0  0  0  0  0  0  0  0  0
   -5.8455    1.8366    0.0969 C   0  0  0  0  0  0  0  0  0  0  0  0
   -4.4756    1.8238   -0.4492 C   0  0  0  0  0  0  0  0  0  0  0  0
   -4.2105    2.6083   -1.4023 O   0  0  0  0  0  0  0  0  0  0  0  0
   -3.4522    0.9496    0.0816 N   0  0  0  0  0  0  0  0  0  0  0  0
   -2.1497    0.9180   -0.6127 C   0  0  0  0  0  0  0  0  0  0  0  0
   -1.2111    2.0317   -0.1026 C   0  0  0  0  0  0  0  0  0  0  0  0
    0.1754    1.5050    0.2998 C   0  0  0  0  0  0  0  0  0  0  0  0
    1.0294    1.0355   -0.9038 C   0  0  0  0  0  0  0  0  0  0  0  0
    1.7813   -0.3214   -0.6990 C   0  0  0  0  0  0  0  0  0  0  0  0
    2.8940   -0.4402   -1.7985 C   0  0  0  0  0  0  0  0  0  0  0  0
    4.2281    0.1488   -1.3201 C   0  0  0  0  0  0  0  0  0  0  0  0
    4.7860   -0.6176   -0.1754 N   0  0  0  0  0  0  0  0  0  0  0  0
    5.7534    0.1923    0.5939 C   0  0  0  0  0  0  0  0  0  0  0  0
    6.9643    0.5227   -0.2407 C   0  0  0  0  0  0  0  0  0  0  0  0
    7.8197   -0.4996   -0.6776 C   0  0  0  0  0  0  0  0  0  0  0  0
    8.9283   -0.1799   -1.4647 C   0  0  0  0  0  0  0  0  0  0  0  0
    9.1758    1.1139   -1.7990 N   0  0  0  0  0  0  0  0  0  0  0  0
    8.3639    2.1243   -1.3891 C   0  0  0  0  0  0  0  0  0  0  0  0
    7.2418    1.8488   -0.6047 C   0  0  0  0  0  0  0  0  0  0  0  0
    3.7463   -1.2132    0.7056 C   0  0  0  0  0  0  0  0  0  0  0  0
    2.4475   -0.3917    0.7178 C   0  0  0  0  0  0  0  0  0  0  0  0
    0.7789   -1.4621   -0.8805 C   0  0  0  0  0  0  0  0  0  0  0  0
    0.6462   -2.0038   -2.0149 O   0  0  0  0  0  0  0  0  0  0  0  0
   -0.0623   -1.8602    0.1706 O   0  0  0  0  0  0  0  0  0  0  0  0
   -0.8996   -3.0124    0.0700 C   0  0  0  0  0  0  0  0  0  0  0  0
   -1.9047   -3.0877    1.2325 C   0  0  0  0  0  0  0  0  0  0  0  0
   -2.4440   -4.3874    1.2503 O   0  0  0  0  0  0  0  0  0  0  0  0
   -3.0480   -2.0331    1.0963 C   0  0  0  0  0  0  0  0  0  0  0  0
   -4.2452   -2.5353    1.6397 O   0  0  0  0  0  0  0  0  0  0  0  0
   -2.6917   -0.7347    1.8449 C   0  0  0  0  0  0  0  0  0  0  0  0
   -3.5960    0.4584    1.4733 C   0  0  0  0  0  0  0  0  0  0  0  0
   -7.2919   -0.9894   -1.2332 H   0  0  0  0  0  0  0  0  0  0  0  0
   -5.8696   -0.1061   -1.8896 H   0  0  0  0  0  0  0  0  0  0  0  0
   -5.7124   -1.0680   -0.3641 H   0  0  0  0  0  0  0  0  0  0  0  0
   -9.3932    1.9561    1.5603 H   0  0  0  0  0  0  0  0  0  0  0  0
   -5.6080    3.7547    1.0597 H   0  0  0  0  0  0  0  0  0  0  0  0
   -2.2975    1.0403   -1.7071 H   0  0  0  0  0  0  0  0  0  0  0  0
   -1.6920   -0.0808   -0.5233 H   0  0  0  0  0  0  0  0  0  0  0  0
   -1.6583    2.5311    0.7852 H   0  0  0  0  0  0  0  0  0  0  0  0
   -1.0985    2.8146   -0.8837 H   0  0  0  0  0  0  0  0  0  0  0  0
    0.0530    0.7061    1.0511 H   0  0  0  0  0  0  0  0  0  0  0  0
    0.7196    2.3250    0.8186 H   0  0  0  0  0  0  0  0  0  0  0  0
    1.7684    1.8405   -1.1124 H   0  0  0  0  0  0  0  0  0  0  0  0
    0.4044    0.9666   -1.8234 H   0  0  0  0  0  0  0  0  0  0  0  0
    3.0891   -1.5072   -2.0527 H   0  0  0  0  0  0  0  0  0  0  0  0
    2.5813    0.0591   -2.7429 H   0  0  0  0  0  0  0  0  0  0  0  0
    4.9507    0.1120   -2.1638 H   0  0  0  0  0  0  0  0  0  0  0  0
    4.0760    1.2194   -1.0556 H   0  0  0  0  0  0  0  0  0  0  0  0
    6.1162   -0.3777    1.4764 H   0  0  0  0  0  0  0  0  0  0  0  0
    5.2672    1.1147    0.9844 H   0  0  0  0  0  0  0  0  0  0  0  0
    7.6263   -1.5326   -0.4158 H   0  0  0  0  0  0  0  0  0  0  0  0
    9.5924   -0.9602   -1.8103 H   0  0  0  0  0  0  0  0  0  0  0  0
    8.5891    3.1432   -1.6741 H   0  0  0  0  0  0  0  0  0  0  0  0
    6.5969    2.6591   -0.2884 H   0  0  0  0  0  0  0  0  0  0  0  0
    3.5186   -2.2384    0.3416 H   0  0  0  0  0  0  0  0  0  0  0  0
    4.1060   -1.3358    1.7512 H   0  0  0  0  0  0  0  0  0  0  0  0
    1.7624   -0.8245    1.4782 H   0  0  0  0  0  0  0  0  0  0  0  0
    2.7058    0.6307    1.0733 H   0  0  0  0  0  0  0  0  0  0  0  0
   -1.4511   -3.0068   -0.8965 H   0  0  0  0  0  0  0  0  0  0  0  0
   -0.2530   -3.9171    0.0845 H   0  0  0  0  0  0  0  0  0  0  0  0
   -1.3349   -2.9179    2.1789 H   0  0  0  0  0  0  0  0  0  0  0  0
   -2.6818   -4.5892    2.1952 H   0  0  0  0  0  0  0  0  0  0  0  0
   -3.2099   -1.7946    0.0186 H   0  0  0  0  0  0  0  0  0  0  0  0
   -4.6929   -3.0627    0.9272 H   0  0  0  0  0  0  0  0  0  0  0  0
   -2.8011   -0.9201    2.9364 H   0  0  0  0  0  0  0  0  0  0  0  0
   -1.6331   -0.4705    1.7034 H   0  0  0  0  0  0  0  0  0  0  0  0
   -3.3707    1.2966    2.1670 H   0  0  0  0  0  0  0  0  0  0  0  0
   -4.6448    0.1512    1.6679 H   0  0  0  0  0  0  0  0  0  0  0  0
  1  2  1  0
  2  3  2  0
  3  4  1  0
  4  5  2  0
  5  6  1  0
  6  7  2  0
  7  8  1  0
  8  9  2  0
  8 10  1  0
 10 11  1  0
 11 12  1  0
 12 13  1  0
 13 14  1  0
 14 15  1  0
 15 16  1  0
 16 17  1  0
 17 18  1  0
 18 19  1  0
 19 20  1  0
 20 21  2  0
 21 22  1  0
 22 23  2  0
 23 24  1  0
 24 25  2  0
 18 26  1  0
 26 27  1  0
 15 28  1  0
 28 29  2  0
 28 30  1  0
 30 31  1  0
 31 32  1  0
 32 33  1  0
 32 34  1  0
 34 35  1  0
 34 36  1  0
 36 37  1  0
  7  2  1  0
 37 10  1  0
 27 15  1  0
 25 20  1  0
  1 38  1  0
  1 39  1  0
  1 40  1  0
  4 41  1  0
  6 42  1  0
 11 43  1  0
 11 44  1  0
 12 45  1  0
 12 46  1  0
 13 47  1  0
 13 48  1  0
 14 49  1  0
 14 50  1  0
 16 51  1  0
 16 52  1  0
 17 53  1  0
 17 54  1  0
 19 55  1  0
 19 56  1  0
 21 57  1  0
 22 58  1  0
 24 59  1  0
 25 60  1  0
 26 61  1  0
 26 62  1  0
 27 63  1  0
 27 64  1  0
 31 65  1  0
 31 66  1  0
 32 67  1  0
 33 68  1  0
 34 69  1  0
 35 70  1  0
 36 71  1  0
 36 72  1  0
 37 73  1  0
 37 74  1  0
M  END
$$$$
