
     RDKit          3D

 76 78  0  0  0  0  0  0  0  0999 V2000
   -1.1464    3.6593    3.5365 C   0  0  0  0  0  0  0  0  0  0  0  0
   -1.1948    2.3627    2.7819 C   0  0  0  0  0  0  0  0  0  0  0  0
   -1.0379    1.2963    3.4349 O   0  0  0  0  0  0  0  0  0  0  0  0
   -1.3696    2.3031    1.3460 N   0  0  0  0  0  0  0  0  0  0  0  0
   -2.0236    3.3983    0.5992 C   0  0  0  0  0  0  0  0  0  0  0  0
   -3.4612    3.6977    1.0769 C   0  0  0  0  0  0  0  0  0  0  0  0
   -4.4369    2.5373    0.8410 C   0  0  0  0  0  0  0  0  0  0  0  0
   -4.8773    2.4190   -0.6341 C   0  0  0  0  0  0  0  0  0  0  0  0
   -5.1305    0.9638   -1.0557 C   0  0  0  0  0  0  0  0  0  0  0  0
   -3.8269    0.1350   -1.1047 C   0  0  0  0  0  0  0  0  0  0  0  0
   -3.8160   -0.9999   -0.0718 C   0  0  0  0  0  0  0  0  0  0  0  0
   -2.4284   -1.4890    0.1242 N   0  0  0  0  0  0  0  0  0  0  0  0
   -2.3865   -2.9559    0.3749 C   0  0  0  0  0  0  0  0  0  0  0  0
   -2.2444   -3.7953   -0.9253 C   0  0  0  0  0  0  0  0  0  0  0  0
   -3.4898   -3.7732   -1.8186 C   0  0  0  0  0  0  0  0  0  0  0  0
   -0.9989   -3.4138   -1.7343 C   0  0  0  0  0  0  0  0  0  0  0  0
   -1.7283   -0.7020    1.1851 C   0  0  0  0  0  0  0  0  0  0  0  0
   -0.5518    0.0461    0.6001 C   0  0  0  0  0  0  0  0  0  0  0  0
    0.4896   -0.7075    0.0347 C   0  0  0  0  0  0  0  0  0  0  0  0
    1.5966   -0.0888   -0.5627 C   0  0  0  0  0  0  0  0  0  0  0  0
    2.6652   -0.9129   -1.1700 C   0  0  0  0  0  0  0  0  0  0  0  0
    2.3410   -1.9578   -1.7987 O   0  0  0  0  0  0  0  0  0  0  0  0
    4.0590   -0.5566   -1.0589 N   0  0  0  0  0  0  0  0  0  0  0  0
    4.5634    0.2044    0.0947 C   0  0  0  0  0  0  0  0  0  0  0  0
    5.9792   -0.2816    0.5323 C   0  0  0  0  0  0  0  0  0  0  0  0
    5.8974   -1.0665    1.8419 C   0  0  0  0  0  0  0  0  0  0  0  0
    6.6363   -1.0976   -0.4280 O   0  0  0  0  0  0  0  0  0  0  0  0
    6.4241   -0.6155   -1.7379 C   0  0  0  0  0  0  0  0  0  0  0  0
    7.4119   -1.2900   -2.6885 C   0  0  0  0  0  0  0  0  0  0  0  0
    4.9780   -0.9264   -2.1417 C   0  0  0  0  0  0  0  0  0  0  0  0
    1.6562    1.3084   -0.6052 C   0  0  0  0  0  0  0  0  0  0  0  0
    0.6595    2.0740   -0.0021 C   0  0  0  0  0  0  0  0  0  0  0  0
   -0.4410    1.4644    0.6242 C   0  0  0  0  0  0  0  0  0  0  0  0
   -0.3589    3.6022    4.3175 H   0  0  0  0  0  0  0  0  0  0  0  0
   -2.1187    3.8419    4.0383 H   0  0  0  0  0  0  0  0  0  0  0  0
   -0.8974    4.5120    2.8750 H   0  0  0  0  0  0  0  0  0  0  0  0
   -1.4130    4.3213    0.6803 H   0  0  0  0  0  0  0  0  0  0  0  0
   -2.0492    3.1506   -0.4831 H   0  0  0  0  0  0  0  0  0  0  0  0
   -3.8351    4.6027    0.5503 H   0  0  0  0  0  0  0  0  0  0  0  0
   -3.4608    3.9461    2.1553 H   0  0  0  0  0  0  0  0  0  0  0  0
   -3.9752    1.6054    1.2130 H   0  0  0  0  0  0  0  0  0  0  0  0
   -5.3439    2.7018    1.4632 H   0  0  0  0  0  0  0  0  0  0  0  0
   -4.1305    2.8633   -1.3254 H   0  0  0  0  0  0  0  0  0  0  0  0
   -5.8154    2.9998   -0.7732 H   0  0  0  0  0  0  0  0  0  0  0  0
   -5.8883    0.5075   -0.3818 H   0  0  0  0  0  0  0  0  0  0  0  0
   -5.5805    0.9761   -2.0722 H   0  0  0  0  0  0  0  0  0  0  0  0
   -3.7117   -0.3092   -2.1171 H   0  0  0  0  0  0  0  0  0  0  0  0
   -2.9403    0.7867   -0.9534 H   0  0  0  0  0  0  0  0  0  0  0  0
   -4.4955   -1.7925   -0.4398 H   0  0  0  0  0  0  0  0  0  0  0  0
   -4.2747   -0.6842    0.8909 H   0  0  0  0  0  0  0  0  0  0  0  0
   -3.2792   -3.2899    0.9518 H   0  0  0  0  0  0  0  0  0  0  0  0
   -1.5064   -3.2291    0.9982 H   0  0  0  0  0  0  0  0  0  0  0  0
   -2.1101   -4.8534   -0.6063 H   0  0  0  0  0  0  0  0  0  0  0  0
   -3.3949   -4.5436   -2.6139 H   0  0  0  0  0  0  0  0  0  0  0  0
   -3.6081   -2.7875   -2.3153 H   0  0  0  0  0  0  0  0  0  0  0  0
   -4.3975   -4.0134   -1.2243 H   0  0  0  0  0  0  0  0  0  0  0  0
   -0.9415   -4.0196   -2.6643 H   0  0  0  0  0  0  0  0  0  0  0  0
   -0.0848   -3.6303   -1.1450 H   0  0  0  0  0  0  0  0  0  0  0  0
   -1.0201   -2.3391   -2.0140 H   0  0  0  0  0  0  0  0  0  0  0  0
   -1.3510   -1.3404    2.0132 H   0  0  0  0  0  0  0  0  0  0  0  0
   -2.4060    0.0067    1.6968 H   0  0  0  0  0  0  0  0  0  0  0  0
    0.4538   -1.7850    0.0917 H   0  0  0  0  0  0  0  0  0  0  0  0
    3.8466    0.1516    0.9440 H   0  0  0  0  0  0  0  0  0  0  0  0
    4.6365    1.2741   -0.1984 H   0  0  0  0  0  0  0  0  0  0  0  0
    6.6144    0.6118    0.7291 H   0  0  0  0  0  0  0  0  0  0  0  0
    6.9127   -1.3947    2.1501 H   0  0  0  0  0  0  0  0  0  0  0  0
    5.4761   -0.4296    2.6489 H   0  0  0  0  0  0  0  0  0  0  0  0
    5.2551   -1.9638    1.7120 H   0  0  0  0  0  0  0  0  0  0  0  0
    6.6059    0.4844   -1.7943 H   0  0  0  0  0  0  0  0  0  0  0  0
    7.3027   -2.3950   -2.6466 H   0  0  0  0  0  0  0  0  0  0  0  0
    8.4513   -1.0249   -2.3987 H   0  0  0  0  0  0  0  0  0  0  0  0
    7.2374   -0.9457   -3.7304 H   0  0  0  0  0  0  0  0  0  0  0  0
    4.8785   -2.0145   -2.3469 H   0  0  0  0  0  0  0  0  0  0  0  0
    4.7139   -0.3636   -3.0625 H   0  0  0  0  0  0  0  0  0  0  0  0
    2.4800    1.8105   -1.0966 H   0  0  0  0  0  0  0  0  0  0  0  0
    0.7563    3.1528   -0.0011 H   0  0  0  0  0  0  0  0  0  0  0  0
  1  2  1  0
  2  3  2  0
  2  4  1  0
  4  5  1  0
  5  6  1  0
  6  7  1  0
  7  8  1  0
  8  9  1  0
  9 10  1  0
 10 11  1  0
 11 12  1  0
 12 13  1  0
 13 14  1  0
 14 15  1  0
 14 16  1  0
 12 17  1  0
 17 18  1  0
 18 19  2  0
 19 20  1  0
 20 21  1  0
 21 22  2  0
 21 23  1  0
 23 24  1  0
 24 25  1  0
 25 26  1  0
 25 27  1  0
 27 28  1  0
 28 29  1  0
 28 30  1  0
 20 31  2  0
 31 32  1  0
 32 33  2  0
 33  4  1  0
 33 18  1  0
 30 23  1  0
  1 34  1  0
  1 35  1  0
  1 36  1  0
  5 37  1  0
  5 38  1  0
  6 39  1  0
  6 40  1  0
  7 41  1  0
  7 42  1  0
  8 43  1  0
  8 44  1  0
  9 45  1  0
  9 46  1  0
 10 47  1  0
 10 48  1  0
 11 49  1  0
 11 50  1  0
 13 51  1  0
 13 52  1  0
 14 53  1  0
 15 54  1  0
 15 55  1  0
 15 56  1  0
 16 57  1  0
 16 58  1  0
 16 59  1  0
 17 60  1  0
 17 61  1  0
 19 62  1  0
 24 63  1  0
 24 64  1  0
 25 65  1  0
 26 66  1  0
 26 67  1  0
 26 68  1  0
 28 69  1  0
 29 70  1  0
 29 71  1  0
 29 72  1  0
 30 73  1  0
 30 74  1  0
 31 75  1  0
 32 76  1  0
M  END
$$$$
