
     RDKit          3D

 64 66  0  0  0  0  0  0  0  0999 V2000
    7.0803    2.1346   -1.4915 C   0  0  0  0  0  0  0  0  0  0  0  0
    5.8719    1.5267   -0.7690 C   0  0  0  0  0  0  0  0  0  0  0  0
    4.6204    2.4147   -0.9572 C   0  0  0  0  0  0  0  0  0  0  0  0
    3.3291    1.7351   -0.4354 C   0  0  0  0  0  0  0  0  0  0  0  0
    3.6504    0.4546    0.2150 N   0  0  0  0  0  0  0  0  0  0  0  0
    2.5390   -0.1214    0.9890 C   0  0  0  0  0  0  0  0  0  0  0  0
    1.3729   -0.6483    0.1414 C   0  0  0  0  0  0  0  0  0  0  0  0
    0.3189   -1.3365    0.9694 C   0  0  0  0  0  0  0  0  0  0  0  0
    0.4428   -1.3516    2.2319 O   0  0  0  0  0  0  0  0  0  0  0  0
   -0.7879   -2.0484    0.3642 N   0  0  0  0  0  0  0  0  0  0  0  0
   -0.9513   -2.0794   -1.1214 C   0  0  0  0  0  0  0  0  0  0  0  0
   -2.3577   -1.6442   -1.5682 C   0  0  0  0  0  0  0  0  0  0  0  0
   -2.5682   -0.1255   -1.3764 C   0  0  0  0  0  0  0  0  0  0  0  0
   -4.0482    0.2779   -1.3590 C   0  0  0  0  0  0  0  0  0  0  0  0
   -4.8468   -0.4103   -0.3303 N   0  0  0  0  0  0  0  0  0  0  0  0
   -5.7614   -1.4818   -0.7249 C   0  0  0  0  0  0  0  0  0  0  0  0
   -4.7074   -0.0953    1.0842 C   0  0  0  0  0  0  0  0  0  0  0  0
   -5.4312   -0.6991    1.9226 O   0  0  0  0  0  0  0  0  0  0  0  0
   -3.6117    0.7326    1.6095 C   0  0  0  0  0  0  0  0  0  0  0  0
   -3.6761    2.1254    1.4194 C   0  0  0  0  0  0  0  0  0  0  0  0
   -2.7502    2.9805    2.0014 C   0  0  0  0  0  0  0  0  0  0  0  0
   -2.8862    4.7143    1.7942 Cl  0  0  0  0  0  0  0  0  0  0  0  0
   -1.7275    2.4563    2.7945 C   0  0  0  0  0  0  0  0  0  0  0  0
   -1.6061    1.0794    2.9708 C   0  0  0  0  0  0  0  0  0  0  0  0
   -2.5259    0.1921    2.3813 C   0  0  0  0  0  0  0  0  0  0  0  0
   -2.3088   -1.1772    2.6488 O   0  0  0  0  0  0  0  0  0  0  0  0
   -2.7195   -2.3471    1.9177 C   0  0  0  0  0  0  0  0  0  0  0  0
   -1.5491   -3.0038    1.1996 C   0  0  0  0  0  0  0  0  0  0  0  0
    4.2691   -0.4775   -0.7474 C   0  0  0  0  0  0  0  0  0  0  0  0
    5.6227    0.0772   -1.2430 C   0  0  0  0  0  0  0  0  0  0  0  0
    7.9898    1.5318   -1.2815 H   0  0  0  0  0  0  0  0  0  0  0  0
    7.2665    3.1681   -1.1315 H   0  0  0  0  0  0  0  0  0  0  0  0
    6.9110    2.1631   -2.5928 H   0  0  0  0  0  0  0  0  0  0  0  0
    6.1099    1.5031    0.3180 H   0  0  0  0  0  0  0  0  0  0  0  0
    4.4847    2.6528   -2.0356 H   0  0  0  0  0  0  0  0  0  0  0  0
    4.7694    3.3787   -0.4109 H   0  0  0  0  0  0  0  0  0  0  0  0
    2.8353    2.4186    0.2894 H   0  0  0  0  0  0  0  0  0  0  0  0
    2.6218    1.5797   -1.2856 H   0  0  0  0  0  0  0  0  0  0  0  0
    2.1441    0.6411    1.6964 H   0  0  0  0  0  0  0  0  0  0  0  0
    2.9383   -0.9582    1.6087 H   0  0  0  0  0  0  0  0  0  0  0  0
    1.7722   -1.3898   -0.5756 H   0  0  0  0  0  0  0  0  0  0  0  0
    0.9028    0.1913   -0.4173 H   0  0  0  0  0  0  0  0  0  0  0  0
   -0.8097   -3.1211   -1.4585 H   0  0  0  0  0  0  0  0  0  0  0  0
   -0.2071   -1.4510   -1.6438 H   0  0  0  0  0  0  0  0  0  0  0  0
   -3.1124   -2.2236   -1.0246 H   0  0  0  0  0  0  0  0  0  0  0  0
   -2.4505   -1.8514   -2.6610 H   0  0  0  0  0  0  0  0  0  0  0  0
   -2.0681    0.2133   -0.4457 H   0  0  0  0  0  0  0  0  0  0  0  0
   -2.0759    0.3887   -2.2378 H   0  0  0  0  0  0  0  0  0  0  0  0
   -4.4878    0.0569   -2.3609 H   0  0  0  0  0  0  0  0  0  0  0  0
   -4.1655    1.3807   -1.2440 H   0  0  0  0  0  0  0  0  0  0  0  0
   -6.8117   -1.1532   -0.6263 H   0  0  0  0  0  0  0  0  0  0  0  0
   -5.5936   -1.7837   -1.7790 H   0  0  0  0  0  0  0  0  0  0  0  0
   -5.6157   -2.3804   -0.0844 H   0  0  0  0  0  0  0  0  0  0  0  0
   -4.5025    2.5560    0.8478 H   0  0  0  0  0  0  0  0  0  0  0  0
   -0.9969    3.1182    3.2478 H   0  0  0  0  0  0  0  0  0  0  0  0
   -0.8089    0.6925    3.6032 H   0  0  0  0  0  0  0  0  0  0  0  0
   -3.1382   -3.0647    2.6710 H   0  0  0  0  0  0  0  0  0  0  0  0
   -3.4989   -2.1520    1.1905 H   0  0  0  0  0  0  0  0  0  0  0  0
   -1.9455   -3.8267    0.5763 H   0  0  0  0  0  0  0  0  0  0  0  0
   -0.8805   -3.4963    1.9398 H   0  0  0  0  0  0  0  0  0  0  0  0
    3.6067   -0.6279   -1.6334 H   0  0  0  0  0  0  0  0  0  0  0  0
    4.4371   -1.4670   -0.2716 H   0  0  0  0  0  0  0  0  0  0  0  0
    5.6339    0.0353   -2.3542 H   0  0  0  0  0  0  0  0  0  0  0  0
    6.4496   -0.5770   -0.8780 H   0  0  0  0  0  0  0  0  0  0  0  0
  1  2  1  0
  2  3  1  0
  3  4  1  0
  4  5  1  0
  5  6  1  0
  6  7  1  0
  7  8  1  0
  8  9  2  0
  8 10  1  0
 10 11  1  0
 11 12  1  0
 12 13  1  0
 13 14  1  0
 14 15  1  0
 15 16  1  0
 15 17  1  0
 17 18  2  0
 17 19  1  0
 19 20  2  0
 20 21  1  0
 21 22  1  0
 21 23  2  0
 23 24  1  0
 24 25  2  0
 25 26  1  0
 26 27  1  0
 27 28  1  0
  5 29  1  0
 29 30  1  0
 30  2  1  0
 28 10  1  0
 25 19  1  0
  1 31  1  0
  1 32  1  0
  1 33  1  0
  2 34  1  0
  3 35  1  0
  3 36  1  0
  4 37  1  0
  4 38  1  0
  6 39  1  0
  6 40  1  0
  7 41  1  0
  7 42  1  0
 11 43  1  0
 11 44  1  0
 12 45  1  0
 12 46  1  0
 13 47  1  0
 13 48  1  0
 14 49  1  0
 14 50  1  0
 16 51  1  0
 16 52  1  0
 16 53  1  0
 20 54  1  0
 23 55  1  0
 24 56  1  0
 27 57  1  0
 27 58  1  0
 28 59  1  0
 28 60  1  0
 29 61  1  0
 29 62  1  0
 30 63  1  0
 30 64  1  0
M  END
$$$$
