
     RDKit          3D

 82 84  0  0  0  0  0  0  0  0999 V2000
    6.9411    3.8054   -2.1491 C   0  0  0  0  0  0  0  0  0  0  0  0
    7.2204    2.6589   -1.3521 O   0  0  0  0  0  0  0  0  0  0  0  0
    6.3060    1.6340   -1.0691 C   0  0  0  0  0  0  0  0  0  0  0  0
    5.0158    1.6456   -1.6225 C   0  0  0  0  0  0  0  0  0  0  0  0
    4.1284    0.6081   -1.3725 C   0  0  0  0  0  0  0  0  0  0  0  0
    4.5115   -0.4825   -0.5839 C   0  0  0  0  0  0  0  0  0  0  0  0
    3.4845   -1.5448   -0.2677 C   0  0  0  0  0  0  0  0  0  0  0  0
    2.7153   -1.1639    1.0021 C   0  0  0  0  0  0  0  0  0  0  0  0
    1.6083   -2.1460    1.2829 C   0  0  0  0  0  0  0  0  0  0  0  0
    1.9078   -3.3294    1.5985 O   0  0  0  0  0  0  0  0  0  0  0  0
    0.2221   -1.7761    1.1561 N   0  0  0  0  0  0  0  0  0  0  0  0
   -0.2318   -0.4507    1.6326 C   0  0  0  0  0  0  0  0  0  0  0  0
   -1.5254   -0.5117    2.4873 C   0  0  0  0  0  0  0  0  0  0  0  0
   -2.6211    0.4889    2.0448 C   0  0  0  0  0  0  0  0  0  0  0  0
   -3.0710    0.2331    0.5940 C   0  0  0  0  0  0  0  0  0  0  0  0
   -4.4615    0.7382    0.1182 C   0  0  0  0  0  0  0  0  0  0  0  0
   -4.6148    2.2752    0.3899 C   0  0  0  0  0  0  0  0  0  0  0  0
   -5.3756    2.5776    1.6919 C   0  0  0  0  0  0  0  0  0  0  0  0
   -6.7453    2.0017    1.7021 N   0  0  0  0  0  0  0  0  0  0  0  0
   -7.7464    3.0116    1.3225 C   0  0  0  0  0  0  0  0  0  0  0  0
   -6.9010    0.7865    0.8637 C   0  0  0  0  0  0  0  0  0  0  0  0
   -5.6149   -0.0471    0.8188 C   0  0  0  0  0  0  0  0  0  0  0  0
   -4.5147    0.4769   -1.4011 C   0  0  0  0  0  0  0  0  0  0  0  0
   -4.2599    1.4126   -2.2055 O   0  0  0  0  0  0  0  0  0  0  0  0
   -4.7874   -0.7895   -1.9530 O   0  0  0  0  0  0  0  0  0  0  0  0
   -3.9396   -1.9419   -1.8389 C   0  0  0  0  0  0  0  0  0  0  0  0
   -2.5049   -1.6529   -2.3413 C   0  0  0  0  0  0  0  0  0  0  0  0
   -2.5291   -1.2646   -3.6934 O   0  0  0  0  0  0  0  0  0  0  0  0
   -1.5120   -2.8429   -2.0977 C   0  0  0  0  0  0  0  0  0  0  0  0
   -0.9786   -3.2936   -3.3173 O   0  0  0  0  0  0  0  0  0  0  0  0
   -0.3267   -2.4381   -1.1780 C   0  0  0  0  0  0  0  0  0  0  0  0
   -0.6379   -2.6301    0.3179 C   0  0  0  0  0  0  0  0  0  0  0  0
    5.7985   -0.5204   -0.0085 C   0  0  0  0  0  0  0  0  0  0  0  0
    6.1150   -1.6433    0.7835 O   0  0  0  0  0  0  0  0  0  0  0  0
    7.3329   -1.8867    1.4835 C   0  0  0  0  0  0  0  0  0  0  0  0
    6.6970    0.5600   -0.2320 C   0  0  0  0  0  0  0  0  0  0  0  0
    7.9580    0.5404    0.3845 O   0  0  0  0  0  0  0  0  0  0  0  0
    8.6401    1.6863    0.8906 C   0  0  0  0  0  0  0  0  0  0  0  0
    7.8494    4.4393   -2.2025 H   0  0  0  0  0  0  0  0  0  0  0  0
    6.1199    4.3929   -1.6916 H   0  0  0  0  0  0  0  0  0  0  0  0
    6.6655    3.4945   -3.1764 H   0  0  0  0  0  0  0  0  0  0  0  0
    4.6788    2.4588   -2.2516 H   0  0  0  0  0  0  0  0  0  0  0  0
    3.1335    0.6576   -1.7947 H   0  0  0  0  0  0  0  0  0  0  0  0
    2.7753   -1.6417   -1.1217 H   0  0  0  0  0  0  0  0  0  0  0  0
    3.9728   -2.5361   -0.1431 H   0  0  0  0  0  0  0  0  0  0  0  0
    3.4063   -1.1410    1.8742 H   0  0  0  0  0  0  0  0  0  0  0  0
    2.3042   -0.1377    0.8666 H   0  0  0  0  0  0  0  0  0  0  0  0
    0.5477    0.0027    2.2802 H   0  0  0  0  0  0  0  0  0  0  0  0
   -0.3242    0.2271    0.7627 H   0  0  0  0  0  0  0  0  0  0  0  0
   -1.9509   -1.5359    2.5148 H   0  0  0  0  0  0  0  0  0  0  0  0
   -1.2675   -0.2792    3.5452 H   0  0  0  0  0  0  0  0  0  0  0  0
   -3.4671    0.3709    2.7484 H   0  0  0  0  0  0  0  0  0  0  0  0
   -2.2387    1.5272    2.1453 H   0  0  0  0  0  0  0  0  0  0  0  0
   -3.0712   -0.8500    0.4596 H   0  0  0  0  0  0  0  0  0  0  0  0
   -2.3050    0.6783   -0.0748 H   0  0  0  0  0  0  0  0  0  0  0  0
   -5.2076    2.7581   -0.4183 H   0  0  0  0  0  0  0  0  0  0  0  0
   -3.6268    2.7813    0.3995 H   0  0  0  0  0  0  0  0  0  0  0  0
   -5.3933    3.6824    1.8401 H   0  0  0  0  0  0  0  0  0  0  0  0
   -4.8185    2.1755    2.5609 H   0  0  0  0  0  0  0  0  0  0  0  0
   -7.5572    3.3900    0.2938 H   0  0  0  0  0  0  0  0  0  0  0  0
   -7.7202    3.8684    2.0317 H   0  0  0  0  0  0  0  0  0  0  0  0
   -8.7679    2.5775    1.3651 H   0  0  0  0  0  0  0  0  0  0  0  0
   -7.7178    0.1630    1.2897 H   0  0  0  0  0  0  0  0  0  0  0  0
   -7.1896    1.0452   -0.1783 H   0  0  0  0  0  0  0  0  0  0  0  0
   -5.3524   -0.3132    1.8617 H   0  0  0  0  0  0  0  0  0  0  0  0
   -5.8220   -1.0089    0.3080 H   0  0  0  0  0  0  0  0  0  0  0  0
   -3.9430   -2.3266   -0.8011 H   0  0  0  0  0  0  0  0  0  0  0  0
   -4.3759   -2.7539   -2.4564 H   0  0  0  0  0  0  0  0  0  0  0  0
   -2.1389   -0.7761   -1.7839 H   0  0  0  0  0  0  0  0  0  0  0  0
   -3.0029   -1.9737   -4.2050 H   0  0  0  0  0  0  0  0  0  0  0  0
   -2.0456   -3.6927   -1.6095 H   0  0  0  0  0  0  0  0  0  0  0  0
   -1.6312   -3.9348   -3.7054 H   0  0  0  0  0  0  0  0  0  0  0  0
   -0.0191   -1.3870   -1.3795 H   0  0  0  0  0  0  0  0  0  0  0  0
    0.5589   -3.0694   -1.4206 H   0  0  0  0  0  0  0  0  0  0  0  0
   -1.6996   -2.4410    0.5146 H   0  0  0  0  0  0  0  0  0  0  0  0
   -0.4853   -3.6981    0.5888 H   0  0  0  0  0  0  0  0  0  0  0  0
    7.4792   -1.1222    2.2720 H   0  0  0  0  0  0  0  0  0  0  0  0
    7.2683   -2.8786    1.9767 H   0  0  0  0  0  0  0  0  0  0  0  0
    8.1903   -1.9107    0.7772 H   0  0  0  0  0  0  0  0  0  0  0  0
    7.9256    2.3521    1.4232 H   0  0  0  0  0  0  0  0  0  0  0  0
    9.1527    2.2367    0.0739 H   0  0  0  0  0  0  0  0  0  0  0  0
    9.4082    1.3438    1.6127 H   0  0  0  0  0  0  0  0  0  0  0  0
  1  2  1  0
  2  3  1  0
  3  4  2  0
  4  5  1  0
  5  6  2  0
  6  7  1  0
  7  8  1  0
  8  9  1  0
  9 10  2  0
  9 11  1  0
 11 12  1  0
 12 13  1  0
 13 14  1  0
 14 15  1  0
 15 16  1  0
 16 17  1  0
 17 18  1  0
 18 19  1  0
 19 20  1  0
 19 21  1  0
 21 22  1  0
 16 23  1  0
 23 24  2  0
 23 25  1  0
 25 26  1  0
 26 27  1  0
 27 28  1  0
 27 29  1  0
 29 30  1  0
 29 31  1  0
 31 32  1  0
  6 33  1  0
 33 34  1  0
 34 35  1  0
 33 36  2  0
 36 37  1  0
 37 38  1  0
 36  3  1  0
 32 11  1  0
 22 16  1  0
  1 39  1  0
  1 40  1  0
  1 41  1  0
  4 42  1  0
  5 43  1  0
  7 44  1  0
  7 45  1  0
  8 46  1  0
  8 47  1  0
 12 48  1  0
 12 49  1  0
 13 50  1  0
 13 51  1  0
 14 52  1  0
 14 53  1  0
 15 54  1  0
 15 55  1  0
 17 56  1  0
 17 57  1  0
 18 58  1  0
 18 59  1  0
 20 60  1  0
 20 61  1  0
 20 62  1  0
 21 63  1  0
 21 64  1  0
 22 65  1  0
 22 66  1  0
 26 67  1  0
 26 68  1  0
 27 69  1  0
 28 70  1  0
 29 71  1  0
 30 72  1  0
 31 73  1  0
 31 74  1  0
 32 75  1  0
 32 76  1  0
 35 77  1  0
 35 78  1  0
 35 79  1  0
 38 80  1  0
 38 81  1  0
 38 82  1  0
M  END
$$$$
