
     RDKit          3D

 73 76  0  0  0  0  0  0  0  0999 V2000
    9.9297   -1.3809    1.5921 C   0  0  0  0  0  0  0  0  0  0  0  0
    8.6480   -0.7750    1.4846 O   0  0  0  0  0  0  0  0  0  0  0  0
    7.5640   -1.3139    0.7754 C   0  0  0  0  0  0  0  0  0  0  0  0
    7.6069   -2.5946    0.1967 C   0  0  0  0  0  0  0  0  0  0  0  0
    6.5015   -3.0899   -0.5008 C   0  0  0  0  0  0  0  0  0  0  0  0
    5.3473   -2.3134   -0.6359 C   0  0  0  0  0  0  0  0  0  0  0  0
    5.2953   -1.0232   -0.0704 C   0  0  0  0  0  0  0  0  0  0  0  0
    4.1767   -0.1875   -0.2013 O   0  0  0  0  0  0  0  0  0  0  0  0
    3.0058   -0.5033   -0.9559 C   0  0  0  0  0  0  0  0  0  0  0  0
    2.0952    0.6937   -1.0286 C   0  0  0  0  0  0  0  0  0  0  0  0
    2.4566    1.7656   -0.4569 O   0  0  0  0  0  0  0  0  0  0  0  0
    0.8387    0.6580   -1.7522 N   0  0  0  0  0  0  0  0  0  0  0  0
    0.0817    1.9072   -1.9430 C   0  0  0  0  0  0  0  0  0  0  0  0
   -0.5436    2.3933   -0.6176 C   0  0  0  0  0  0  0  0  0  0  0  0
   -1.7398    3.3350   -0.8481 C   0  0  0  0  0  0  0  0  0  0  0  0
   -2.9979    2.5664   -1.3234 C   0  0  0  0  0  0  0  0  0  0  0  0
   -4.1970    2.4794   -0.3156 C   0  0  0  0  0  0  0  0  0  0  0  0
   -4.8307    3.8873   -0.1308 C   0  0  0  0  0  0  0  0  0  0  0  0
   -5.2117    4.4404   -1.3639 O   0  0  0  0  0  0  0  0  0  0  0  0
   -5.2661    1.5262   -0.9203 C   0  0  0  0  0  0  0  0  0  0  0  0
   -4.7833    0.0529   -1.0071 C   0  0  0  0  0  0  0  0  0  0  0  0
   -3.6950   -0.2626   -0.0449 N   0  0  0  0  0  0  0  0  0  0  0  0
   -3.9531    0.4032    1.2443 C   0  0  0  0  0  0  0  0  0  0  0  0
   -3.7794    1.9264    1.0935 C   0  0  0  0  0  0  0  0  0  0  0  0
   -3.5531   -1.7320    0.0833 C   0  0  0  0  0  0  0  0  0  0  0  0
   -2.4681   -2.1530    1.0601 C   0  0  0  0  0  0  0  0  0  0  0  0
   -2.8693   -2.9024    2.1843 C   0  0  0  0  0  0  0  0  0  0  0  0
   -1.9558   -3.2583    3.1758 C   0  0  0  0  0  0  0  0  0  0  0  0
   -0.6237   -2.8729    3.0696 C   0  0  0  0  0  0  0  0  0  0  0  0
   -0.2016   -2.1357    1.9660 C   0  0  0  0  0  0  0  0  0  0  0  0
   -1.0963   -1.7780    0.9474 C   0  0  0  0  0  0  0  0  0  0  0  0
   -0.5506   -1.0224   -0.1009 O   0  0  0  0  0  0  0  0  0  0  0  0
   -0.8646   -1.1415   -1.4849 C   0  0  0  0  0  0  0  0  0  0  0  0
    0.2976   -0.5914   -2.3245 C   0  0  0  0  0  0  0  0  0  0  0  0
    6.4016   -0.5419    0.6433 C   0  0  0  0  0  0  0  0  0  0  0  0
    9.8520   -2.3680    2.0887 H   0  0  0  0  0  0  0  0  0  0  0  0
   10.5883   -0.7246    2.2012 H   0  0  0  0  0  0  0  0  0  0  0  0
   10.3800   -1.4906    0.5837 H   0  0  0  0  0  0  0  0  0  0  0  0
    8.4886   -3.2143    0.2842 H   0  0  0  0  0  0  0  0  0  0  0  0
    6.5414   -4.0807   -0.9381 H   0  0  0  0  0  0  0  0  0  0  0  0
    4.5087   -2.7217   -1.1894 H   0  0  0  0  0  0  0  0  0  0  0  0
    2.4694   -1.3445   -0.4659 H   0  0  0  0  0  0  0  0  0  0  0  0
    3.3042   -0.7803   -1.9902 H   0  0  0  0  0  0  0  0  0  0  0  0
    0.7546    2.6941   -2.3467 H   0  0  0  0  0  0  0  0  0  0  0  0
   -0.7065    1.7555   -2.7095 H   0  0  0  0  0  0  0  0  0  0  0  0
   -0.8726    1.5277   -0.0049 H   0  0  0  0  0  0  0  0  0  0  0  0
    0.2248    2.9416   -0.0327 H   0  0  0  0  0  0  0  0  0  0  0  0
   -1.9377    3.9039    0.0831 H   0  0  0  0  0  0  0  0  0  0  0  0
   -1.4552    4.0912   -1.6124 H   0  0  0  0  0  0  0  0  0  0  0  0
   -3.3506    3.0421   -2.2657 H   0  0  0  0  0  0  0  0  0  0  0  0
   -2.7062    1.5481   -1.6391 H   0  0  0  0  0  0  0  0  0  0  0  0
   -5.7287    3.8122    0.5238 H   0  0  0  0  0  0  0  0  0  0  0  0
   -4.1113    4.5678    0.3755 H   0  0  0  0  0  0  0  0  0  0  0  0
   -5.5886    5.3344   -1.1595 H   0  0  0  0  0  0  0  0  0  0  0  0
   -6.1803    1.5552   -0.2858 H   0  0  0  0  0  0  0  0  0  0  0  0
   -5.5714    1.8729   -1.9326 H   0  0  0  0  0  0  0  0  0  0  0  0
   -5.6654   -0.6109   -0.8514 H   0  0  0  0  0  0  0  0  0  0  0  0
   -4.4117   -0.1371   -2.0384 H   0  0  0  0  0  0  0  0  0  0  0  0
   -4.9809    0.1629    1.6026 H   0  0  0  0  0  0  0  0  0  0  0  0
   -3.2426    0.0661    2.0282 H   0  0  0  0  0  0  0  0  0  0  0  0
   -4.3897    2.4023    1.8952 H   0  0  0  0  0  0  0  0  0  0  0  0
   -2.7316    2.1911    1.3381 H   0  0  0  0  0  0  0  0  0  0  0  0
   -4.5292   -2.1740    0.3899 H   0  0  0  0  0  0  0  0  0  0  0  0
   -3.3238   -2.1801   -0.9052 H   0  0  0  0  0  0  0  0  0  0  0  0
   -3.9036   -3.1981    2.3093 H   0  0  0  0  0  0  0  0  0  0  0  0
   -2.2875   -3.8233    4.0350 H   0  0  0  0  0  0  0  0  0  0  0  0
    0.0829   -3.1412    3.8452 H   0  0  0  0  0  0  0  0  0  0  0  0
    0.8383   -1.8418    1.8927 H   0  0  0  0  0  0  0  0  0  0  0  0
   -1.7737   -0.5560   -1.7191 H   0  0  0  0  0  0  0  0  0  0  0  0
   -1.0334   -2.2089   -1.7505 H   0  0  0  0  0  0  0  0  0  0  0  0
    1.0803   -1.3736   -2.4178 H   0  0  0  0  0  0  0  0  0  0  0  0
   -0.0600   -0.4051   -3.3627 H   0  0  0  0  0  0  0  0  0  0  0  0
    6.3632    0.4445    1.0874 H   0  0  0  0  0  0  0  0  0  0  0  0
  1  2  1  0
  2  3  1  0
  3  4  2  0
  4  5  1  0
  5  6  2  0
  6  7  1  0
  7  8  1  0
  8  9  1  0
  9 10  1  0
 10 11  2  0
 10 12  1  0
 12 13  1  0
 13 14  1  0
 14 15  1  0
 15 16  1  0
 16 17  1  0
 17 18  1  0
 18 19  1  0
 17 20  1  0
 20 21  1  0
 21 22  1  0
 22 23  1  0
 23 24  1  0
 22 25  1  0
 25 26  1  0
 26 27  2  0
 27 28  1  0
 28 29  2  0
 29 30  1  0
 30 31  2  0
 31 32  1  0
 32 33  1  0
 33 34  1  0
  7 35  2  0
 35  3  1  0
 34 12  1  0
 24 17  1  0
 31 26  1  0
  1 36  1  0
  1 37  1  0
  1 38  1  0
  4 39  1  0
  5 40  1  0
  6 41  1  0
  9 42  1  0
  9 43  1  0
 13 44  1  0
 13 45  1  0
 14 46  1  0
 14 47  1  0
 15 48  1  0
 15 49  1  0
 16 50  1  0
 16 51  1  0
 18 52  1  0
 18 53  1  0
 19 54  1  0
 20 55  1  0
 20 56  1  0
 21 57  1  0
 21 58  1  0
 23 59  1  0
 23 60  1  0
 24 61  1  0
 24 62  1  0
 25 63  1  0
 25 64  1  0
 27 65  1  0
 28 66  1  0
 29 67  1  0
 30 68  1  0
 33 69  1  0
 33 70  1  0
 34 71  1  0
 34 72  1  0
 35 73  1  0
M  END
$$$$
