
     RDKit          3D

 79 82  0  0  0  0  0  0  0  0999 V2000
    7.1625   -1.3826   -1.3030 C   0  0  0  0  0  0  0  0  0  0  0  0
    7.2672    0.1529   -1.3373 C   0  0  0  0  0  0  0  0  0  0  0  0
    6.9635    0.8473   -0.0552 N   0  0  0  0  0  0  0  0  0  0  0  0
    7.7995    0.3818    1.0625 C   0  0  0  0  0  0  0  0  0  0  0  0
    6.9421   -0.5261    1.9427 C   0  0  0  0  0  0  0  0  0  0  0  0
    5.5113   -0.3570    1.4533 C   0  0  0  0  0  0  0  0  0  0  0  0
    5.5771    0.7902    0.4500 C   0  0  0  0  0  0  0  0  0  0  0  0
    4.4724    0.7481   -0.6319 C   0  0  0  0  0  0  0  0  0  0  0  0
    3.1439    0.9385   -0.0483 N   0  0  0  0  0  0  0  0  0  0  0  0
    1.9618    0.8135   -0.8501 C   0  0  0  0  0  0  0  0  0  0  0  0
    2.0600    0.4841   -2.0650 O   0  0  0  0  0  0  0  0  0  0  0  0
    0.6017    1.0390   -0.2343 C   0  0  0  0  0  0  0  0  0  0  0  0
    0.2314   -0.0766    0.7554 C   0  0  0  0  0  0  0  0  0  0  0  0
    0.2289   -1.4362    0.1091 C   0  0  0  0  0  0  0  0  0  0  0  0
    1.2872   -2.1202    0.1262 O   0  0  0  0  0  0  0  0  0  0  0  0
   -0.9016   -1.9189   -0.6286 N   0  0  0  0  0  0  0  0  0  0  0  0
   -2.2681   -1.9440   -0.0890 C   0  0  0  0  0  0  0  0  0  0  0  0
   -2.6272   -3.3990    0.3405 C   0  0  0  0  0  0  0  0  0  0  0  0
   -3.8341   -3.4445    1.2872 C   0  0  0  0  0  0  0  0  0  0  0  0
   -2.8576   -4.3505   -0.8475 C   0  0  0  0  0  0  0  0  0  0  0  0
   -3.2366   -1.3745   -1.1101 C   0  0  0  0  0  0  0  0  0  0  0  0
   -2.9582   -1.4702   -2.3372 O   0  0  0  0  0  0  0  0  0  0  0  0
   -4.5216   -0.8427   -0.7332 N   0  0  0  0  0  0  0  0  0  0  0  0
   -5.7084   -1.1260   -1.5249 C   0  0  0  0  0  0  0  0  0  0  0  0
   -6.8873   -0.5950   -0.7197 C   0  0  0  0  0  0  0  0  0  0  0  0
   -6.3497   -0.3772    0.6901 C   0  0  0  0  0  0  0  0  0  0  0  0
   -4.8420   -0.1698    0.5228 C   0  0  0  0  0  0  0  0  0  0  0  0
   -4.5079    1.3284    0.4417 C   0  0  0  0  0  0  0  0  0  0  0  0
   -3.0976    1.5402    0.3644 O   0  0  0  0  0  0  0  0  0  0  0  0
   -2.5156    2.8092    0.5165 C   0  0  0  0  0  0  0  0  0  0  0  0
   -2.8936    3.6576    1.5732 C   0  0  0  0  0  0  0  0  0  0  0  0
   -2.3347    4.9331    1.6928 C   0  0  0  0  0  0  0  0  0  0  0  0
   -1.3975    5.3780    0.7608 C   0  0  0  0  0  0  0  0  0  0  0  0
   -1.0060    4.5407   -0.2866 C   0  0  0  0  0  0  0  0  0  0  0  0
   -1.5469    3.2510   -0.4044 C   0  0  0  0  0  0  0  0  0  0  0  0
   -1.1256    2.3885   -1.5174 C   0  0  0  0  0  0  0  0  0  0  0  0
   -1.3945    2.7293   -2.7006 O   0  0  0  0  0  0  0  0  0  0  0  0
   -0.4268    1.1628   -1.2769 N   0  0  0  0  0  0  0  0  0  0  0  0
    7.4584   -1.7890   -2.2919 H   0  0  0  0  0  0  0  0  0  0  0  0
    6.1344   -1.7279   -1.0936 H   0  0  0  0  0  0  0  0  0  0  0  0
    7.8497   -1.8207   -0.5513 H   0  0  0  0  0  0  0  0  0  0  0  0
    6.6255    0.5446   -2.1526 H   0  0  0  0  0  0  0  0  0  0  0  0
    8.3048    0.4141   -1.6354 H   0  0  0  0  0  0  0  0  0  0  0  0
    8.1198    1.2671    1.6527 H   0  0  0  0  0  0  0  0  0  0  0  0
    8.7304   -0.1292    0.7284 H   0  0  0  0  0  0  0  0  0  0  0  0
    7.2640   -1.5854    1.8393 H   0  0  0  0  0  0  0  0  0  0  0  0
    7.0315   -0.2266    3.0095 H   0  0  0  0  0  0  0  0  0  0  0  0
    5.1596   -1.2952    0.9726 H   0  0  0  0  0  0  0  0  0  0  0  0
    4.8247   -0.1110    2.2942 H   0  0  0  0  0  0  0  0  0  0  0  0
    5.4179    1.7338    1.0221 H   0  0  0  0  0  0  0  0  0  0  0  0
    4.6513    1.5639   -1.3623 H   0  0  0  0  0  0  0  0  0  0  0  0
    4.4860   -0.2190   -1.1740 H   0  0  0  0  0  0  0  0  0  0  0  0
    3.0420    1.1648    0.9677 H   0  0  0  0  0  0  0  0  0  0  0  0
    0.6639    1.9850    0.3467 H   0  0  0  0  0  0  0  0  0  0  0  0
   -0.7535    0.1572    1.2039 H   0  0  0  0  0  0  0  0  0  0  0  0
    0.9597   -0.0793    1.5954 H   0  0  0  0  0  0  0  0  0  0  0  0
   -0.6920   -2.4987   -1.4731 H   0  0  0  0  0  0  0  0  0  0  0  0
   -2.3017   -1.3110    0.8159 H   0  0  0  0  0  0  0  0  0  0  0  0
   -1.7605   -3.7961    0.9160 H   0  0  0  0  0  0  0  0  0  0  0  0
   -3.9796   -4.4759    1.6671 H   0  0  0  0  0  0  0  0  0  0  0  0
   -4.7610   -3.1330    0.7639 H   0  0  0  0  0  0  0  0  0  0  0  0
   -3.6635   -2.7887    2.1662 H   0  0  0  0  0  0  0  0  0  0  0  0
   -3.0129   -5.3841   -0.4776 H   0  0  0  0  0  0  0  0  0  0  0  0
   -3.7549   -4.0541   -1.4263 H   0  0  0  0  0  0  0  0  0  0  0  0
   -1.9822   -4.3660   -1.5255 H   0  0  0  0  0  0  0  0  0  0  0  0
   -5.6413   -0.6201   -2.5112 H   0  0  0  0  0  0  0  0  0  0  0  0
   -5.8072   -2.2238   -1.6721 H   0  0  0  0  0  0  0  0  0  0  0  0
   -7.7373   -1.3125   -0.7201 H   0  0  0  0  0  0  0  0  0  0  0  0
   -7.2236    0.3764   -1.1457 H   0  0  0  0  0  0  0  0  0  0  0  0
   -6.5276   -1.2957    1.2914 H   0  0  0  0  0  0  0  0  0  0  0  0
   -6.8579    0.4726    1.1939 H   0  0  0  0  0  0  0  0  0  0  0  0
   -4.3192   -0.6234    1.3873 H   0  0  0  0  0  0  0  0  0  0  0  0
   -4.9215    1.8285    1.3442 H   0  0  0  0  0  0  0  0  0  0  0  0
   -4.9916    1.7800   -0.4544 H   0  0  0  0  0  0  0  0  0  0  0  0
   -3.6063    3.3325    2.3194 H   0  0  0  0  0  0  0  0  0  0  0  0
   -2.6307    5.5765    2.5114 H   0  0  0  0  0  0  0  0  0  0  0  0
   -0.9721    6.3694    0.8506 H   0  0  0  0  0  0  0  0  0  0  0  0
   -0.2714    4.8934   -0.9977 H   0  0  0  0  0  0  0  0  0  0  0  0
   -0.5259    0.4034   -1.9893 H   0  0  0  0  0  0  0  0  0  0  0  0
  1  2  1  0
  2  3  1  0
  3  4  1  0
  4  5  1  0
  5  6  1  0
  6  7  1  0
  7  8  1  0
  8  9  1  0
  9 10  1  0
 10 11  2  0
 10 12  1  0
 12 13  1  0
 13 14  1  0
 14 15  2  0
 14 16  1  0
 16 17  1  0
 17 18  1  0
 18 19  1  0
 18 20  1  0
 17 21  1  0
 21 22  2  0
 21 23  1  0
 23 24  1  0
 24 25  1  0
 25 26  1  0
 26 27  1  0
 27 28  1  0
 28 29  1  0
 29 30  1  0
 30 31  2  0
 31 32  1  0
 32 33  2  0
 33 34  1  0
 34 35  2  0
 35 36  1  0
 36 37  2  0
 36 38  1  0
  7  3  1  0
 38 12  1  0
 27 23  1  0
 35 30  1  0
  1 39  1  0
  1 40  1  0
  1 41  1  0
  2 42  1  0
  2 43  1  0
  4 44  1  0
  4 45  1  0
  5 46  1  0
  5 47  1  0
  6 48  1  0
  6 49  1  0
  7 50  1  0
  8 51  1  0
  8 52  1  0
  9 53  1  0
 12 54  1  0
 13 55  1  0
 13 56  1  0
 16 57  1  0
 17 58  1  0
 18 59  1  0
 19 60  1  0
 19 61  1  0
 19 62  1  0
 20 63  1  0
 20 64  1  0
 20 65  1  0
 24 66  1  0
 24 67  1  0
 25 68  1  0
 25 69  1  0
 26 70  1  0
 26 71  1  0
 27 72  1  0
 28 73  1  0
 28 74  1  0
 31 75  1  0
 32 76  1  0
 33 77  1  0
 34 78  1  0
 38 79  1  0
M  END
$$$$
