
     RDKit          3D

 80 84  0  0  0  0  0  0  0  0999 V2000
    3.6851    1.5708    0.3379 O   0  0  0  0  0  0  0  0  0  0  0  0
    3.5245    0.3178    0.4402 C   0  0  0  0  0  0  0  0  0  0  0  0
    4.4241   -0.5630   -0.2585 N   0  0  0  0  0  0  0  0  0  0  0  0
    5.7725   -0.1482   -0.6697 C   0  0  0  0  0  0  0  0  0  0  0  0
    6.7959   -0.6148    0.3861 C   0  0  0  0  0  0  0  0  0  0  0  0
    6.4316   -0.1638    1.6665 O   0  0  0  0  0  0  0  0  0  0  0  0
    6.0788   -0.7376   -2.0631 C   0  0  0  0  0  0  0  0  0  0  0  0
    7.3509   -0.1847   -2.6575 C   0  0  0  0  0  0  0  0  0  0  0  0
    7.3411    1.0614   -3.3061 C   0  0  0  0  0  0  0  0  0  0  0  0
    8.5157    1.5790   -3.8588 C   0  0  0  0  0  0  0  0  0  0  0  0
    9.7122    0.8611   -3.7635 C   0  0  0  0  0  0  0  0  0  0  0  0
    9.7338   -0.3745   -3.1093 C   0  0  0  0  0  0  0  0  0  0  0  0
    8.5589   -0.8996   -2.5606 C   0  0  0  0  0  0  0  0  0  0  0  0
    2.3958   -0.1992    1.2685 C   0  0  0  0  0  0  0  0  0  0  0  0
    2.2389   -1.5717    1.5399 C   0  0  0  0  0  0  0  0  0  0  0  0
    1.1901   -2.0229    2.3409 C   0  0  0  0  0  0  0  0  0  0  0  0
    0.2795   -1.1274    2.9032 C   0  0  0  0  0  0  0  0  0  0  0  0
    0.4265    0.2603    2.6647 C   0  0  0  0  0  0  0  0  0  0  0  0
    1.4718    0.7030    1.8331 C   0  0  0  0  0  0  0  0  0  0  0  0
   -0.5119    1.2876    3.2661 C   0  0  0  0  0  0  0  0  0  0  0  0
   -1.5753    1.7904    2.3059 C   0  0  0  0  0  0  0  0  0  0  0  0
   -2.3452    2.9066    2.6719 C   0  0  0  0  0  0  0  0  0  0  0  0
   -3.3675    3.3671    1.8376 C   0  0  0  0  0  0  0  0  0  0  0  0
   -3.6605    2.6970    0.6466 C   0  0  0  0  0  0  0  0  0  0  0  0
   -2.9385    1.5496    0.2831 C   0  0  0  0  0  0  0  0  0  0  0  0
   -1.8740    1.1306    1.0990 C   0  0  0  0  0  0  0  0  0  0  0  0
   -3.2775    0.7566   -0.9684 C   0  0  0  0  0  0  0  0  0  0  0  0
   -4.4023   -0.2182   -0.8051 N   0  0  0  0  0  0  0  0  0  0  0  0
   -5.7469    0.4002   -1.0483 C   0  0  0  0  0  0  0  0  0  0  0  0
   -5.9196    0.6259   -2.5778 C   0  0  0  0  0  0  0  0  0  0  0  0
   -7.3926    0.6768   -3.0117 C   0  0  0  0  0  0  0  0  0  0  0  0
   -8.1904    1.1798   -1.9623 O   0  0  0  0  0  0  0  0  0  0  0  0
   -8.3143    0.1983   -0.9457 C   0  0  0  0  0  0  0  0  0  0  0  0
   -6.9562   -0.4135   -0.5119 C   0  0  0  0  0  0  0  0  0  0  0  0
   -4.2419   -1.1285    0.3635 C   0  0  0  0  0  0  0  0  0  0  0  0
   -3.1279   -2.1747    0.1153 C   0  0  0  0  0  0  0  0  0  0  0  0
   -2.0688   -2.0404    1.0452 O   0  0  0  0  0  0  0  0  0  0  0  0
   -2.3654   -2.6718    2.2791 C   0  0  0  0  0  0  0  0  0  0  0  0
   -2.0961   -1.7043    3.4301 C   0  0  0  0  0  0  0  0  0  0  0  0
   -0.7074   -1.6426    3.7527 O   0  0  0  0  0  0  0  0  0  0  0  0
    4.1782   -1.5702   -0.3948 H   0  0  0  0  0  0  0  0  0  0  0  0
    5.8273    0.9605   -0.7487 H   0  0  0  0  0  0  0  0  0  0  0  0
    7.8135   -0.2392    0.1360 H   0  0  0  0  0  0  0  0  0  0  0  0
    6.8377   -1.7246    0.4016 H   0  0  0  0  0  0  0  0  0  0  0  0
    6.6430    0.8069    1.6981 H   0  0  0  0  0  0  0  0  0  0  0  0
    6.1275   -1.8473   -2.0036 H   0  0  0  0  0  0  0  0  0  0  0  0
    5.2336   -0.5023   -2.7489 H   0  0  0  0  0  0  0  0  0  0  0  0
    6.4238    1.6305   -3.3875 H   0  0  0  0  0  0  0  0  0  0  0  0
    8.4968    2.5358   -4.3669 H   0  0  0  0  0  0  0  0  0  0  0  0
   10.6193    1.2679   -4.1931 H   0  0  0  0  0  0  0  0  0  0  0  0
   10.6620   -0.9257   -3.0259 H   0  0  0  0  0  0  0  0  0  0  0  0
    8.5937   -1.8592   -2.0604 H   0  0  0  0  0  0  0  0  0  0  0  0
    2.9268   -2.3129    1.1649 H   0  0  0  0  0  0  0  0  0  0  0  0
    1.0845   -3.0831    2.5345 H   0  0  0  0  0  0  0  0  0  0  0  0
    1.5704    1.7650    1.6464 H   0  0  0  0  0  0  0  0  0  0  0  0
    0.0906    2.1552    3.6116 H   0  0  0  0  0  0  0  0  0  0  0  0
   -1.0023    0.8775    4.1750 H   0  0  0  0  0  0  0  0  0  0  0  0
   -2.1525    3.4216    3.6045 H   0  0  0  0  0  0  0  0  0  0  0  0
   -3.9428    4.2399    2.1182 H   0  0  0  0  0  0  0  0  0  0  0  0
   -4.4479    3.0755    0.0142 H   0  0  0  0  0  0  0  0  0  0  0  0
   -1.2950    0.2761    0.7861 H   0  0  0  0  0  0  0  0  0  0  0  0
   -2.3730    0.2089   -1.3187 H   0  0  0  0  0  0  0  0  0  0  0  0
   -3.4742    1.4772   -1.7906 H   0  0  0  0  0  0  0  0  0  0  0  0
   -5.8076    1.3850   -0.5369 H   0  0  0  0  0  0  0  0  0  0  0  0
   -5.4126   -0.1839   -3.1473 H   0  0  0  0  0  0  0  0  0  0  0  0
   -5.4380    1.5850   -2.8641 H   0  0  0  0  0  0  0  0  0  0  0  0
   -7.7324   -0.3366   -3.3382 H   0  0  0  0  0  0  0  0  0  0  0  0
   -7.4962    1.3452   -3.8984 H   0  0  0  0  0  0  0  0  0  0  0  0
   -9.0116   -0.6038   -1.2756 H   0  0  0  0  0  0  0  0  0  0  0  0
   -8.7904    0.6793   -0.0650 H   0  0  0  0  0  0  0  0  0  0  0  0
   -6.9024   -1.4548   -0.9037 H   0  0  0  0  0  0  0  0  0  0  0  0
   -6.9398   -0.4467    0.6027 H   0  0  0  0  0  0  0  0  0  0  0  0
   -4.0841   -0.5619    1.3040 H   0  0  0  0  0  0  0  0  0  0  0  0
   -5.1467   -1.7340    0.5444 H   0  0  0  0  0  0  0  0  0  0  0  0
   -2.7095   -2.0564   -0.9068 H   0  0  0  0  0  0  0  0  0  0  0  0
   -3.5512   -3.2101    0.1165 H   0  0  0  0  0  0  0  0  0  0  0  0
   -1.7159   -3.5658    2.3924 H   0  0  0  0  0  0  0  0  0  0  0  0
   -3.4185   -3.0222    2.3703 H   0  0  0  0  0  0  0  0  0  0  0  0
   -2.5039   -0.6980    3.1983 H   0  0  0  0  0  0  0  0  0  0  0  0
   -2.6277   -2.0727    4.3326 H   0  0  0  0  0  0  0  0  0  0  0  0
  1  2  2  0
  2  3  1  0
  3  4  1  0
  4  5  1  0
  5  6  1  0
  4  7  1  0
  7  8  1  0
  8  9  2  0
  9 10  1  0
 10 11  2  0
 11 12  1  0
 12 13  2  0
  2 14  1  0
 14 15  2  0
 15 16  1  0
 16 17  2  0
 17 18  1  0
 18 19  2  0
 18 20  1  0
 20 21  1  0
 21 22  2  0
 22 23  1  0
 23 24  2  0
 24 25  1  0
 25 26  2  0
 25 27  1  0
 27 28  1  0
 28 29  1  0
 29 30  1  0
 30 31  1  0
 31 32  1  0
 32 33  1  0
 33 34  1  0
 28 35  1  0
 35 36  1  0
 36 37  1  0
 37 38  1  0
 38 39  1  0
 39 40  1  0
 13  8  1  0
 19 14  1  0
 26 21  1  0
 34 29  1  0
 40 17  1  0
  3 41  1  0
  4 42  1  0
  5 43  1  0
  5 44  1  0
  6 45  1  0
  7 46  1  0
  7 47  1  0
  9 48  1  0
 10 49  1  0
 11 50  1  0
 12 51  1  0
 13 52  1  0
 15 53  1  0
 16 54  1  0
 19 55  1  0
 20 56  1  0
 20 57  1  0
 22 58  1  0
 23 59  1  0
 24 60  1  0
 26 61  1  0
 27 62  1  0
 27 63  1  0
 29 64  1  0
 30 65  1  0
 30 66  1  0
 31 67  1  0
 31 68  1  0
 33 69  1  0
 33 70  1  0
 34 71  1  0
 34 72  1  0
 35 73  1  0
 35 74  1  0
 36 75  1  0
 36 76  1  0
 38 77  1  0
 38 78  1  0
 39 79  1  0
 39 80  1  0
M  END
$$$$
