
     RDKit          3D

 68 69  0  0  0  0  0  0  0  0999 V2000
   -1.1790    4.1972   -3.0921 C   0  0  0  0  0  0  0  0  0  0  0  0
   -1.0587    2.8389   -2.4738 C   0  0  0  0  0  0  0  0  0  0  0  0
   -1.1767    1.8270   -3.2151 O   0  0  0  0  0  0  0  0  0  0  0  0
   -0.7697    2.6615   -1.0728 N   0  0  0  0  0  0  0  0  0  0  0  0
   -1.2783    3.5842   -0.0388 C   0  0  0  0  0  0  0  0  0  0  0  0
   -2.7653    3.9770   -0.1941 C   0  0  0  0  0  0  0  0  0  0  0  0
   -3.7452    2.8072   -0.4285 C   0  0  0  0  0  0  0  0  0  0  0  0
   -4.5045    2.3493    0.8346 C   0  0  0  0  0  0  0  0  0  0  0  0
   -3.6465    1.5747    1.8468 C   0  0  0  0  0  0  0  0  0  0  0  0
   -3.2012    0.1889    1.3235 C   0  0  0  0  0  0  0  0  0  0  0  0
   -1.6938   -0.0797    1.5570 C   0  0  0  0  0  0  0  0  0  0  0  0
   -1.0862   -0.9868    0.5563 N   0  0  0  0  0  0  0  0  0  0  0  0
   -1.8038   -2.2729    0.4188 C   0  0  0  0  0  0  0  0  0  0  0  0
   -0.8112   -3.4252    0.1588 C   0  0  0  0  0  0  0  0  0  0  0  0
   -1.5708   -4.7299   -0.1081 C   0  0  0  0  0  0  0  0  0  0  0  0
    0.1509   -3.6050    1.3421 C   0  0  0  0  0  0  0  0  0  0  0  0
   -0.8315   -0.3185   -0.7415 C   0  0  0  0  0  0  0  0  0  0  0  0
    0.4276    0.5085   -0.6532 C   0  0  0  0  0  0  0  0  0  0  0  0
    1.6390   -0.1615   -0.4099 C   0  0  0  0  0  0  0  0  0  0  0  0
    2.8414    0.5460   -0.2425 C   0  0  0  0  0  0  0  0  0  0  0  0
    4.1162   -0.1647    0.0266 C   0  0  0  0  0  0  0  0  0  0  0  0
    5.2104    0.4178   -0.2058 O   0  0  0  0  0  0  0  0  0  0  0  0
    4.1217   -1.4982    0.5629 N   0  0  0  0  0  0  0  0  0  0  0  0
    5.3425   -2.2994    0.6721 C   0  0  0  0  0  0  0  0  0  0  0  0
    5.0373   -3.7566    0.3166 C   0  0  0  0  0  0  0  0  0  0  0  0
    5.9073   -2.1911    2.0898 C   0  0  0  0  0  0  0  0  0  0  0  0
    2.8244    1.9443   -0.3556 C   0  0  0  0  0  0  0  0  0  0  0  0
    1.6321    2.6203   -0.6164 C   0  0  0  0  0  0  0  0  0  0  0  0
    0.4257    1.9199   -0.7642 C   0  0  0  0  0  0  0  0  0  0  0  0
   -2.2441    4.4126   -3.3194 H   0  0  0  0  0  0  0  0  0  0  0  0
   -0.7712    4.9799   -2.4210 H   0  0  0  0  0  0  0  0  0  0  0  0
   -0.6007    4.2260   -4.0404 H   0  0  0  0  0  0  0  0  0  0  0  0
   -0.6678    4.5121   -0.0490 H   0  0  0  0  0  0  0  0  0  0  0  0
   -1.1302    3.1340    0.9625 H   0  0  0  0  0  0  0  0  0  0  0  0
   -2.8583    4.6925   -1.0348 H   0  0  0  0  0  0  0  0  0  0  0  0
   -3.0694    4.5537    0.7058 H   0  0  0  0  0  0  0  0  0  0  0  0
   -3.2519    1.9575   -0.9311 H   0  0  0  0  0  0  0  0  0  0  0  0
   -4.5155    3.1618   -1.1482 H   0  0  0  0  0  0  0  0  0  0  0  0
   -4.9464    3.2357    1.3395 H   0  0  0  0  0  0  0  0  0  0  0  0
   -5.3566    1.7043    0.5252 H   0  0  0  0  0  0  0  0  0  0  0  0
   -4.2576    1.4206    2.7634 H   0  0  0  0  0  0  0  0  0  0  0  0
   -2.7963    2.2078    2.1668 H   0  0  0  0  0  0  0  0  0  0  0  0
   -3.4651    0.0634    0.2562 H   0  0  0  0  0  0  0  0  0  0  0  0
   -3.7871   -0.5936    1.8533 H   0  0  0  0  0  0  0  0  0  0  0  0
   -1.5624   -0.5206    2.5693 H   0  0  0  0  0  0  0  0  0  0  0  0
   -1.1168    0.8673    1.5770 H   0  0  0  0  0  0  0  0  0  0  0  0
   -2.5512   -2.2149   -0.4044 H   0  0  0  0  0  0  0  0  0  0  0  0
   -2.3649   -2.5142    1.3498 H   0  0  0  0  0  0  0  0  0  0  0  0
   -0.2095   -3.1973   -0.7463 H   0  0  0  0  0  0  0  0  0  0  0  0
   -2.2048   -5.0024    0.7635 H   0  0  0  0  0  0  0  0  0  0  0  0
   -2.2204   -4.6173   -1.0023 H   0  0  0  0  0  0  0  0  0  0  0  0
   -0.8563   -5.5584   -0.3046 H   0  0  0  0  0  0  0  0  0  0  0  0
    0.8600   -4.4364    1.1396 H   0  0  0  0  0  0  0  0  0  0  0  0
   -0.4109   -3.8337    2.2732 H   0  0  0  0  0  0  0  0  0  0  0  0
    0.7465   -2.6829    1.5025 H   0  0  0  0  0  0  0  0  0  0  0  0
   -1.6979    0.2862   -1.0622 H   0  0  0  0  0  0  0  0  0  0  0  0
   -0.6778   -1.0669   -1.5489 H   0  0  0  0  0  0  0  0  0  0  0  0
    1.6341   -1.2425   -0.3677 H   0  0  0  0  0  0  0  0  0  0  0  0
    3.2652   -1.8522    1.0456 H   0  0  0  0  0  0  0  0  0  0  0  0
    6.1093   -1.9306   -0.0451 H   0  0  0  0  0  0  0  0  0  0  0  0
    5.9653   -4.3658    0.3603 H   0  0  0  0  0  0  0  0  0  0  0  0
    4.2903   -4.1846    1.0201 H   0  0  0  0  0  0  0  0  0  0  0  0
    4.6295   -3.8135   -0.7161 H   0  0  0  0  0  0  0  0  0  0  0  0
    6.8409   -2.7869    2.1783 H   0  0  0  0  0  0  0  0  0  0  0  0
    5.1691   -2.5622    2.8332 H   0  0  0  0  0  0  0  0  0  0  0  0
    6.1455   -1.1304    2.3204 H   0  0  0  0  0  0  0  0  0  0  0  0
    3.7345    2.5194   -0.2399 H   0  0  0  0  0  0  0  0  0  0  0  0
    1.6470    3.6990   -0.7118 H   0  0  0  0  0  0  0  0  0  0  0  0
  1  2  1  0
  2  3  2  0
  2  4  1  0
  4  5  1  0
  5  6  1  0
  6  7  1  0
  7  8  1  0
  8  9  1  0
  9 10  1  0
 10 11  1  0
 11 12  1  0
 12 13  1  0
 13 14  1  0
 14 15  1  0
 14 16  1  0
 12 17  1  0
 17 18  1  0
 18 19  2  0
 19 20  1  0
 20 21  1  0
 21 22  2  0
 21 23  1  0
 23 24  1  0
 24 25  1  0
 24 26  1  0
 20 27  2  0
 27 28  1  0
 28 29  2  0
 29  4  1  0
 29 18  1  0
  1 30  1  0
  1 31  1  0
  1 32  1  0
  5 33  1  0
  5 34  1  0
  6 35  1  0
  6 36  1  0
  7 37  1  0
  7 38  1  0
  8 39  1  0
  8 40  1  0
  9 41  1  0
  9 42  1  0
 10 43  1  0
 10 44  1  0
 11 45  1  0
 11 46  1  0
 13 47  1  0
 13 48  1  0
 14 49  1  0
 15 50  1  0
 15 51  1  0
 15 52  1  0
 16 53  1  0
 16 54  1  0
 16 55  1  0
 17 56  1  0
 17 57  1  0
 19 58  1  0
 23 59  1  0
 24 60  1  0
 25 61  1  0
 25 62  1  0
 25 63  1  0
 26 64  1  0
 26 65  1  0
 26 66  1  0
 27 67  1  0
 28 68  1  0
M  END
$$$$
