
     RDKit          3D

 82 84  0  0  0  0  0  0  0  0999 V2000
    0.8358   -4.9623   -1.7931 C   0  0  0  0  0  0  0  0  0  0  0  0
    0.1634   -3.6240   -2.1389 C   0  0  0  0  0  0  0  0  0  0  0  0
   -1.3104   -3.8516   -2.5062 C   0  0  0  0  0  0  0  0  0  0  0  0
    0.3672   -2.5554   -1.0206 C   0  0  1  0  0  0  0  0  0  0  0  0
    0.2629   -1.2041   -1.5907 N   0  0  0  0  0  0  0  0  0  0  0  0
    0.9665   -0.0393   -1.1212 C   0  0  0  0  0  0  0  0  0  0  0  0
    0.6164    1.0828   -1.5743 O   0  0  0  0  0  0  0  0  0  0  0  0
    2.1323   -0.1267   -0.1446 C   0  0  1  0  0  0  0  0  0  0  0  0
    3.4138   -0.6573   -0.8398 C   0  0  0  0  0  0  0  0  0  0  0  0
    4.5190   -0.9319    0.1488 C   0  0  0  0  0  0  0  0  0  0  0  0
    4.3992   -1.9888    1.0686 C   0  0  0  0  0  0  0  0  0  0  0  0
    5.4210   -2.2424    1.9890 C   0  0  0  0  0  0  0  0  0  0  0  0
    6.5719   -1.4465    1.9969 C   0  0  0  0  0  0  0  0  0  0  0  0
    7.8507   -1.7606    3.1560 Cl  0  0  0  0  0  0  0  0  0  0  0  0
    6.7041   -0.4023    1.0758 C   0  0  0  0  0  0  0  0  0  0  0  0
    5.6867   -0.1497    0.1504 C   0  0  0  0  0  0  0  0  0  0  0  0
    2.3631    1.1454    0.5819 N   0  0  0  0  0  0  0  0  0  0  0  0
    2.9723    2.2280   -0.2272 C   0  0  0  0  0  0  0  0  0  0  0  0
    2.4898    3.6131    0.2072 C   0  0  0  0  0  0  0  0  0  0  0  0
    1.0746    3.6970    0.0590 O   0  0  0  0  0  0  0  0  0  0  0  0
    0.2910    4.7967    0.4376 C   0  0  0  0  0  0  0  0  0  0  0  0
    0.8606    6.0599    0.6967 C   0  0  0  0  0  0  0  0  0  0  0  0
    0.0525    7.1370    1.0648 C   0  0  0  0  0  0  0  0  0  0  0  0
   -1.3266    6.9690    1.1837 C   0  0  0  0  0  0  0  0  0  0  0  0
   -1.9035    5.7219    0.9355 C   0  0  0  0  0  0  0  0  0  0  0  0
   -1.1038    4.6276    0.5663 C   0  0  0  0  0  0  0  0  0  0  0  0
   -1.7495    3.2827    0.3400 C   0  0  0  0  0  0  0  0  0  0  0  0
   -2.4697    3.2276   -1.0155 C   0  0  0  0  0  0  0  0  0  0  0  0
   -2.8888    1.8018   -1.4054 C   0  0  0  0  0  0  0  0  0  0  0  0
   -3.6107    1.1450   -0.3179 N   0  0  0  0  0  0  0  0  0  0  0  0
   -2.9693    0.1787    0.5226 C   0  0  0  0  0  0  0  0  0  0  0  0
   -2.8268    0.4364    1.7484 O   0  0  0  0  0  0  0  0  0  0  0  0
   -2.5403   -1.1610   -0.0361 C   0  0  2  0  0  0  0  0  0  0  0  0
   -3.7178   -2.1669   -0.0498 C   0  0  0  0  0  0  0  0  0  0  0  0
   -3.8011   -2.9786    1.1904 N   0  0  0  0  0  0  0  0  0  0  0  0
   -4.3645   -4.3067    0.8904 C   0  0  0  0  0  0  0  0  0  0  0  0
   -4.6409   -2.3189    2.2084 C   0  0  0  0  0  0  0  0  0  0  0  0
   -1.3806   -1.6920    0.6959 N   0  0  0  0  0  0  0  0  0  0  0  0
   -0.5486   -2.7425    0.1777 C   0  0  0  0  0  0  0  0  0  0  0  0
   -0.4784   -3.8217    0.8243 O   0  0  0  0  0  0  0  0  0  0  0  0
    1.9069   -4.8057   -1.5476 H   0  0  0  0  0  0  0  0  0  0  0  0
    0.3365   -5.4591   -0.9357 H   0  0  0  0  0  0  0  0  0  0  0  0
    0.7882   -5.6469   -2.6677 H   0  0  0  0  0  0  0  0  0  0  0  0
    0.6745   -3.2486   -3.0546 H   0  0  0  0  0  0  0  0  0  0  0  0
   -1.8129   -2.8924   -2.7494 H   0  0  0  0  0  0  0  0  0  0  0  0
   -1.8494   -4.3502   -1.6738 H   0  0  0  0  0  0  0  0  0  0  0  0
   -1.3802   -4.5082   -3.4006 H   0  0  0  0  0  0  0  0  0  0  0  0
    1.3967   -2.6955   -0.6409 H   0  0  0  0  0  0  0  0  0  0  0  0
   -0.3937   -1.0551   -2.3899 H   0  0  0  0  0  0  0  0  0  0  0  0
    1.8392   -0.8681    0.6283 H   0  0  0  0  0  0  0  0  0  0  0  0
    3.7569    0.0511   -1.6224 H   0  0  0  0  0  0  0  0  0  0  0  0
    3.1959   -1.6016   -1.3801 H   0  0  0  0  0  0  0  0  0  0  0  0
    3.5172   -2.6190    1.0677 H   0  0  0  0  0  0  0  0  0  0  0  0
    5.3189   -3.0586    2.6930 H   0  0  0  0  0  0  0  0  0  0  0  0
    7.5954    0.2136    1.0752 H   0  0  0  0  0  0  0  0  0  0  0  0
    5.8154    0.6535   -0.5639 H   0  0  0  0  0  0  0  0  0  0  0  0
    1.4538    1.4481    1.0017 H   0  0  0  0  0  0  0  0  0  0  0  0
    2.7722    2.1169   -1.3126 H   0  0  0  0  0  0  0  0  0  0  0  0
    4.0717    2.1984   -0.0923 H   0  0  0  0  0  0  0  0  0  0  0  0
    2.7735    3.7932    1.2667 H   0  0  0  0  0  0  0  0  0  0  0  0
    2.9767    4.3755   -0.4360 H   0  0  0  0  0  0  0  0  0  0  0  0
    1.9283    6.2184    0.6116 H   0  0  0  0  0  0  0  0  0  0  0  0
    0.4971    8.1033    1.2592 H   0  0  0  0  0  0  0  0  0  0  0  0
   -1.9493    7.8052    1.4733 H   0  0  0  0  0  0  0  0  0  0  0  0
   -2.9757    5.6053    1.0420 H   0  0  0  0  0  0  0  0  0  0  0  0
   -0.9986    2.4665    0.4024 H   0  0  0  0  0  0  0  0  0  0  0  0
   -2.4830    3.1031    1.1548 H   0  0  0  0  0  0  0  0  0  0  0  0
   -1.7974    3.6232   -1.8095 H   0  0  0  0  0  0  0  0  0  0  0  0
   -3.3733    3.8747   -0.9768 H   0  0  0  0  0  0  0  0  0  0  0  0
   -3.5487    1.8525   -2.2987 H   0  0  0  0  0  0  0  0  0  0  0  0
   -1.9908    1.2175   -1.6898 H   0  0  0  0  0  0  0  0  0  0  0  0
   -4.4680    1.6170    0.0476 H   0  0  0  0  0  0  0  0  0  0  0  0
   -2.2559   -0.9948   -1.0917 H   0  0  0  0  0  0  0  0  0  0  0  0
   -3.5517   -2.8277   -0.9287 H   0  0  0  0  0  0  0  0  0  0  0  0
   -4.6802   -1.6483   -0.2690 H   0  0  0  0  0  0  0  0  0  0  0  0
   -3.7149   -4.8460    0.1676 H   0  0  0  0  0  0  0  0  0  0  0  0
   -4.3979   -4.9300    1.8111 H   0  0  0  0  0  0  0  0  0  0  0  0
   -5.3921   -4.2199    0.4670 H   0  0  0  0  0  0  0  0  0  0  0  0
   -4.8063   -2.9937    3.0784 H   0  0  0  0  0  0  0  0  0  0  0  0
   -4.1270   -1.4270    2.6116 H   0  0  0  0  0  0  0  0  0  0  0  0
   -5.6352   -2.0274    1.7986 H   0  0  0  0  0  0  0  0  0  0  0  0
   -1.4158   -1.6329    1.7388 H   0  0  0  0  0  0  0  0  0  0  0  0
  1  2  1  0
  2  3  1  0
  2  4  1  0
  4  5  1  0
  5  6  1  0
  6  7  2  0
  6  8  1  0
  8  9  1  0
  9 10  1  0
 10 11  2  0
 11 12  1  0
 12 13  2  0
 13 14  1  0
 13 15  1  0
 15 16  2  0
  8 17  1  0
 17 18  1  0
 18 19  1  0
 19 20  1  0
 20 21  1  0
 21 22  2  0
 22 23  1  0
 23 24  2  0
 24 25  1  0
 25 26  2  0
 26 27  1  0
 27 28  1  0
 28 29  1  0
 29 30  1  0
 30 31  1  0
 31 32  2  0
 31 33  1  0
 33 34  1  0
 34 35  1  0
 35 36  1  0
 35 37  1  0
 33 38  1  0
 38 39  1  0
 39 40  2  0
 39  4  1  0
 16 10  1  0
 26 21  1  0
  1 41  1  0
  1 42  1  0
  1 43  1  0
  2 44  1  0
  3 45  1  0
  3 46  1  0
  3 47  1  0
  4 48  1  1
  5 49  1  0
  8 50  1  1
  9 51  1  0
  9 52  1  0
 11 53  1  0
 12 54  1  0
 15 55  1  0
 16 56  1  0
 17 57  1  0
 18 58  1  0
 18 59  1  0
 19 60  1  0
 19 61  1  0
 22 62  1  0
 23 63  1  0
 24 64  1  0
 25 65  1  0
 27 66  1  0
 27 67  1  0
 28 68  1  0
 28 69  1  0
 29 70  1  0
 29 71  1  0
 30 72  1  0
 33 73  1  6
 34 74  1  0
 34 75  1  0
 36 76  1  0
 36 77  1  0
 36 78  1  0
 37 79  1  0
 37 80  1  0
 37 81  1  0
 38 82  1  0
M  END
$$$$
