
     RDKit          3D

 95101  0  0  0  0  0  0  0  0999 V2000
    8.5050   -5.6091    3.2521 C   0  0  0  0  0  0  0  0  0  0  0  0
    7.2475   -5.1277    3.7223 O   0  0  0  0  0  0  0  0  0  0  0  0
    6.5038   -4.1157    3.0973 C   0  0  0  0  0  0  0  0  0  0  0  0
    5.2002   -3.8744    3.5484 C   0  0  0  0  0  0  0  0  0  0  0  0
    4.3952   -2.9134    2.9236 C   0  0  0  0  0  0  0  0  0  0  0  0
    4.9056   -2.1492    1.8586 C   0  0  0  0  0  0  0  0  0  0  0  0
    4.1164   -1.2043    1.1792 C   0  0  0  0  0  0  0  0  0  0  0  0
    2.7723   -1.0491    1.5331 O   0  0  0  0  0  0  0  0  0  0  0  0
    1.7245   -0.8090    0.5884 C   0  0  2  0  0  0  0  0  0  0  0  0
    1.2197    0.6427    0.6884 C   0  0  0  0  0  0  0  0  0  0  0  0
   -0.2387    0.5676    1.1669 C   0  0  1  0  0  0  0  0  0  0  0  0
   -1.2190    0.9994    0.1129 C   0  0  0  0  0  0  0  0  0  0  0  0
   -1.1752    0.4791   -1.0390 O   0  0  0  0  0  0  0  0  0  0  0  0
   -2.2711    1.9148    0.4429 N   0  0  0  0  0  0  0  0  0  0  0  0
   -3.6144    1.7943   -0.1246 C   0  0  2  0  0  0  0  0  0  0  0  0
   -4.1527    2.9917   -0.8725 C   0  0  0  0  0  0  0  0  0  0  0  0
   -4.0206    3.0562   -2.1193 O   0  0  0  0  0  0  0  0  0  0  0  0
   -4.8127    4.0411   -0.1549 N   0  0  0  0  0  0  0  0  0  0  0  0
   -5.6737    5.3368   -0.9235 S   0  0  0  0  0  6  0  0  0  0  0  0
   -5.7185    6.4797    0.0463 O   0  0  0  0  0  0  0  0  0  0  0  0
   -4.9303    5.7788   -2.1538 O   0  0  0  0  0  0  0  0  0  0  0  0
   -7.3658    4.9066   -1.3491 C   0  0  0  0  0  0  0  0  0  0  0  0
   -7.5163    3.6671   -2.2070 C   0  0  0  0  0  0  0  0  0  0  0  0
   -7.8993    3.6231   -0.7315 C   0  0  0  0  0  0  0  0  0  0  0  0
   -4.5829    1.1751    0.8819 C   0  0  0  0  0  0  0  0  0  0  0  0
   -4.1836    0.3894   -0.3555 C   0  0  1  0  0  0  0  0  0  0  0  0
   -5.2784    0.2414   -1.3837 C   0  0  0  0  0  0  0  0  0  0  0  0
   -6.3342   -0.5838   -1.2404 C   0  0  0  0  0  0  0  0  0  0  0  0
   -6.6376   -1.3985   -0.0108 C   0  0  0  0  0  0  0  0  0  0  0  0
   -6.2625   -2.8794   -0.1803 C   0  0  0  0  0  0  0  0  0  0  0  0
   -4.7498   -3.1536   -0.2088 C   0  0  0  0  0  0  0  0  0  0  0  0
   -4.0933   -2.9344    1.1623 C   0  0  0  0  0  0  0  0  0  0  0  0
   -2.5846   -3.1764    1.1141 C   0  0  0  0  0  0  0  0  0  0  0  0
   -1.9580   -2.6513    2.3267 N   0  0  0  0  0  0  0  0  0  0  0  0
   -1.4938   -1.2962    2.3776 C   0  0  0  0  0  0  0  0  0  0  0  0
   -1.9462   -0.5237    3.2588 O   0  0  0  0  0  0  0  0  0  0  0  0
   -0.4773   -0.8348    1.4714 N   0  0  0  0  0  0  0  0  0  0  0  0
    0.5463   -1.7097    0.9322 C   0  0  0  0  0  0  0  0  0  0  0  0
    4.6882   -0.4366    0.1506 C   0  0  0  0  0  0  0  0  0  0  0  0
    6.0248   -0.6553   -0.2218 C   0  0  0  0  0  0  0  0  0  0  0  0
    6.6625    0.1614   -1.2669 C   0  0  0  0  0  0  0  0  0  0  0  0
    6.1204    1.2920   -1.7736 N   0  0  0  0  0  0  0  0  0  0  0  0
    6.9351    1.8895   -2.6830 C   0  0  0  0  0  0  0  0  0  0  0  0
    6.5515    3.1522   -3.4014 C   0  0  0  0  0  0  0  0  0  0  0  0
    6.1010    4.2279   -2.4076 C   0  0  0  0  0  0  0  0  0  0  0  0
    5.4497    2.8563   -4.4221 C   0  0  0  0  0  0  0  0  0  0  0  0
    8.1388    1.2290   -2.9185 C   0  0  0  0  0  0  0  0  0  0  0  0
    8.1738   -0.1347   -1.9348 S   0  0  0  0  0  0  0  0  0  0  0  0
    6.7485   -1.6196    0.4080 N   0  0  0  0  0  0  0  0  0  0  0  0
    6.2340   -2.3639    1.4260 C   0  0  0  0  0  0  0  0  0  0  0  0
    7.0193   -3.3490    2.0335 C   0  0  0  0  0  0  0  0  0  0  0  0
    8.8348   -6.4502    3.8963 H   0  0  0  0  0  0  0  0  0  0  0  0
    9.2700   -4.8052    3.2971 H   0  0  0  0  0  0  0  0  0  0  0  0
    8.4026   -5.9807    2.2090 H   0  0  0  0  0  0  0  0  0  0  0  0
    4.7972   -4.4506    4.3756 H   0  0  0  0  0  0  0  0  0  0  0  0
    3.3748   -2.7809    3.2735 H   0  0  0  0  0  0  0  0  0  0  0  0
    2.0634   -1.0298   -0.4507 H   0  0  0  0  0  0  0  0  0  0  0  0
    1.3158    1.1527   -0.2901 H   0  0  0  0  0  0  0  0  0  0  0  0
    1.8206    1.2219    1.4242 H   0  0  0  0  0  0  0  0  0  0  0  0
   -0.3501    1.1880    2.0872 H   0  0  0  0  0  0  0  0  0  0  0  0
   -2.1015    2.6565    1.1593 H   0  0  0  0  0  0  0  0  0  0  0  0
   -4.7473    4.0667    0.8844 H   0  0  0  0  0  0  0  0  0  0  0  0
   -8.1017    5.7102   -1.5724 H   0  0  0  0  0  0  0  0  0  0  0  0
   -6.5961    3.0919   -2.4264 H   0  0  0  0  0  0  0  0  0  0  0  0
   -8.3759    3.7015   -2.9014 H   0  0  0  0  0  0  0  0  0  0  0  0
   -7.1966    3.0282   -0.1101 H   0  0  0  0  0  0  0  0  0  0  0  0
   -8.9946    3.6138   -0.5599 H   0  0  0  0  0  0  0  0  0  0  0  0
   -5.6239    1.5605    0.8705 H   0  0  0  0  0  0  0  0  0  0  0  0
   -4.1229    0.7879    1.8148 H   0  0  0  0  0  0  0  0  0  0  0  0
   -3.4879   -0.4538   -0.1810 H   0  0  0  0  0  0  0  0  0  0  0  0
   -5.1761    0.7740   -2.3174 H   0  0  0  0  0  0  0  0  0  0  0  0
   -7.0332   -0.6808   -2.0716 H   0  0  0  0  0  0  0  0  0  0  0  0
   -7.7314   -1.3448    0.1550 H   0  0  0  0  0  0  0  0  0  0  0  0
   -6.1957   -0.9662    0.9085 H   0  0  0  0  0  0  0  0  0  0  0  0
   -6.7010   -3.4589    0.6568 H   0  0  0  0  0  0  0  0  0  0  0  0
   -6.7138   -3.2677   -1.1195 H   0  0  0  0  0  0  0  0  0  0  0  0
   -4.2612   -2.5267   -0.9846 H   0  0  0  0  0  0  0  0  0  0  0  0
   -4.5934   -4.2115   -0.5117 H   0  0  0  0  0  0  0  0  0  0  0  0
   -4.5554   -3.6100    1.9165 H   0  0  0  0  0  0  0  0  0  0  0  0
   -4.2717   -1.8967    1.5014 H   0  0  0  0  0  0  0  0  0  0  0  0
   -2.3855   -4.2629    1.0477 H   0  0  0  0  0  0  0  0  0  0  0  0
   -2.1557   -2.6889    0.2199 H   0  0  0  0  0  0  0  0  0  0  0  0
   -2.1789   -3.1187    3.2340 H   0  0  0  0  0  0  0  0  0  0  0  0
    0.8431   -2.4739    1.6835 H   0  0  0  0  0  0  0  0  0  0  0  0
    0.1740   -2.2111    0.0188 H   0  0  0  0  0  0  0  0  0  0  0  0
    4.0948    0.3239   -0.3452 H   0  0  0  0  0  0  0  0  0  0  0  0
    7.4352    3.5491   -3.9556 H   0  0  0  0  0  0  0  0  0  0  0  0
    5.1819    3.9143   -1.8757 H   0  0  0  0  0  0  0  0  0  0  0  0
    6.9015    4.4224   -1.6663 H   0  0  0  0  0  0  0  0  0  0  0  0
    5.8915    5.1726   -2.9437 H   0  0  0  0  0  0  0  0  0  0  0  0
    4.5444    2.4582   -3.9152 H   0  0  0  0  0  0  0  0  0  0  0  0
    5.1659    3.7826   -4.9647 H   0  0  0  0  0  0  0  0  0  0  0  0
    5.8093    2.1127   -5.1693 H   0  0  0  0  0  0  0  0  0  0  0  0
    8.9146    1.5498   -3.5917 H   0  0  0  0  0  0  0  0  0  0  0  0
    8.0229   -3.5097    1.6707 H   0  0  0  0  0  0  0  0  0  0  0  0
  1  2  1  0
  2  3  1  0
  3  4  2  0
  4  5  1  0
  5  6  2  0
  6  7  1  0
  7  8  1  0
  8  9  1  0
  9 10  1  0
 10 11  1  0
 11 12  1  0
 12 13  2  0
 12 14  1  0
 14 15  1  0
 15 16  1  6
 16 17  2  0
 16 18  1  0
 18 19  1  0
 19 20  2  0
 19 21  2  0
 19 22  1  0
 22 23  1  0
 23 24  1  0
 15 25  1  0
 25 26  1  0
 26 27  1  0
 27 28  2  0
 28 29  1  0
 29 30  1  0
 30 31  1  0
 31 32  1  0
 32 33  1  0
 33 34  1  0
 34 35  1  0
 35 36  2  0
 35 37  1  0
 37 38  1  0
  7 39  2  0
 39 40  1  0
 40 41  1  0
 41 42  2  0
 42 43  1  0
 43 44  1  0
 44 45  1  0
 44 46  1  0
 43 47  2  0
 47 48  1  0
 40 49  2  0
 49 50  1  0
 50 51  2  0
 51  3  1  0
 50  6  1  0
 38  9  1  0
 48 41  1  0
 37 11  1  0
 26 15  1  0
 24 22  1  0
  1 52  1  0
  1 53  1  0
  1 54  1  0
  4 55  1  0
  5 56  1  0
  9 57  1  6
 10 58  1  0
 10 59  1  0
 11 60  1  1
 14 61  1  0
 18 62  1  0
 22 63  1  0
 23 64  1  0
 23 65  1  0
 24 66  1  0
 24 67  1  0
 25 68  1  0
 25 69  1  0
 26 70  1  1
 27 71  1  0
 28 72  1  0
 29 73  1  0
 29 74  1  0
 30 75  1  0
 30 76  1  0
 31 77  1  0
 31 78  1  0
 32 79  1  0
 32 80  1  0
 33 81  1  0
 33 82  1  0
 34 83  1  0
 38 84  1  0
 38 85  1  0
 39 86  1  0
 44 87  1  0
 45 88  1  0
 45 89  1  0
 45 90  1  0
 46 91  1  0
 46 92  1  0
 46 93  1  0
 47 94  1  0
 51 95  1  0
M  END
$$$$
