
     RDKit          3D

 81 83  0  0  0  0  0  0  0  0999 V2000
    0.0474   -3.5695    1.4916 C   0  0  0  0  0  0  0  0  0  0  0  0
   -0.1128   -3.7324    0.0091 C   0  0  0  0  0  0  0  0  0  0  0  0
    0.1043   -4.8689   -0.4928 O   0  0  0  0  0  0  0  0  0  0  0  0
   -0.5117   -2.6239   -0.8350 N   0  0  0  0  0  0  0  0  0  0  0  0
   -1.0131   -2.9058   -2.1979 C   0  0  0  0  0  0  0  0  0  0  0  0
   -2.2100   -3.8931   -2.2570 C   0  0  0  0  0  0  0  0  0  0  0  0
   -3.5589   -3.3033   -1.8057 C   0  0  0  0  0  0  0  0  0  0  0  0
   -3.7418   -3.3394   -0.2738 C   0  0  0  0  0  0  0  0  0  0  0  0
   -4.5671   -2.1505    0.2660 C   0  0  0  0  0  0  0  0  0  0  0  0
   -4.0649   -1.6441    1.6321 C   0  0  0  0  0  0  0  0  0  0  0  0
   -2.6841   -0.9624    1.5862 C   0  0  0  0  0  0  0  0  0  0  0  0
   -2.7105    0.2299    0.7086 N   0  0  0  0  0  0  0  0  0  0  0  0
   -2.3730    1.4753    1.4346 C   0  0  0  0  0  0  0  0  0  0  0  0
   -2.8348    2.7550    0.7059 C   0  0  0  0  0  0  0  0  0  0  0  0
   -4.3655    2.9852    0.7420 C   0  0  0  0  0  0  0  0  0  0  0  0
   -5.1230    2.0034   -0.1640 C   0  0  0  0  0  0  0  0  0  0  0  0
   -4.6864    4.4269    0.3229 C   0  0  0  0  0  0  0  0  0  0  0  0
   -2.0105    0.0183   -0.5880 C   0  0  0  0  0  0  0  0  0  0  0  0
   -0.4971   -0.1165   -0.5108 C   0  0  0  0  0  0  0  0  0  0  0  0
    0.2681    1.0636   -0.4359 C   0  0  0  0  0  0  0  0  0  0  0  0
    1.6694    1.0317   -0.4196 C   0  0  0  0  0  0  0  0  0  0  0  0
    2.4362    2.2959   -0.2967 C   0  0  0  0  0  0  0  0  0  0  0  0
    1.9347    3.2459    0.3653 O   0  0  0  0  0  0  0  0  0  0  0  0
    3.7343    2.4694   -0.9058 N   0  0  0  0  0  0  0  0  0  0  0  0
    4.0663    1.8301   -2.1838 C   0  0  0  0  0  0  0  0  0  0  0  0
    4.6990    3.4127   -0.3198 C   0  0  0  0  0  0  0  0  0  0  0  0
    5.2323    2.9073    1.0275 C   0  0  0  0  0  0  0  0  0  0  0  0
    5.9363    1.5816    0.8884 C   0  0  0  0  0  0  0  0  0  0  0  0
    7.1763    1.5039    0.2318 C   0  0  0  0  0  0  0  0  0  0  0  0
    7.8142    0.2695    0.0742 C   0  0  0  0  0  0  0  0  0  0  0  0
    7.2213   -0.8942    0.5715 C   0  0  0  0  0  0  0  0  0  0  0  0
    5.9917   -0.8245    1.2309 C   0  0  0  0  0  0  0  0  0  0  0  0
    5.3507    0.4080    1.3912 C   0  0  0  0  0  0  0  0  0  0  0  0
    2.3203   -0.2035   -0.4940 C   0  0  0  0  0  0  0  0  0  0  0  0
    1.5872   -1.3801   -0.6161 C   0  0  0  0  0  0  0  0  0  0  0  0
    0.1804   -1.3656   -0.6351 C   0  0  0  0  0  0  0  0  0  0  0  0
    0.8643   -4.2267    1.8567 H   0  0  0  0  0  0  0  0  0  0  0  0
    0.3022   -2.5248    1.7625 H   0  0  0  0  0  0  0  0  0  0  0  0
   -0.8965   -3.8581    2.0004 H   0  0  0  0  0  0  0  0  0  0  0  0
   -0.1778   -3.3393   -2.7908 H   0  0  0  0  0  0  0  0  0  0  0  0
   -1.2957   -1.9643   -2.7171 H   0  0  0  0  0  0  0  0  0  0  0  0
   -2.0041   -4.8343   -1.7101 H   0  0  0  0  0  0  0  0  0  0  0  0
   -2.3259   -4.1875   -3.3227 H   0  0  0  0  0  0  0  0  0  0  0  0
   -3.6726   -2.2858   -2.2319 H   0  0  0  0  0  0  0  0  0  0  0  0
   -4.3752   -3.9100   -2.2566 H   0  0  0  0  0  0  0  0  0  0  0  0
   -4.2507   -4.2880    0.0057 H   0  0  0  0  0  0  0  0  0  0  0  0
   -2.7624   -3.3908    0.2256 H   0  0  0  0  0  0  0  0  0  0  0  0
   -4.5984   -1.3018   -0.4462 H   0  0  0  0  0  0  0  0  0  0  0  0
   -5.6213   -2.4828    0.3829 H   0  0  0  0  0  0  0  0  0  0  0  0
   -4.0255   -2.4972    2.3446 H   0  0  0  0  0  0  0  0  0  0  0  0
   -4.8020   -0.9154    2.0330 H   0  0  0  0  0  0  0  0  0  0  0  0
   -2.4074   -0.7015    2.6324 H   0  0  0  0  0  0  0  0  0  0  0  0
   -1.9098   -1.6787    1.2724 H   0  0  0  0  0  0  0  0  0  0  0  0
   -1.2850    1.5211    1.6430 H   0  0  0  0  0  0  0  0  0  0  0  0
   -2.8689    1.4796    2.4311 H   0  0  0  0  0  0  0  0  0  0  0  0
   -2.3449    3.6046    1.2307 H   0  0  0  0  0  0  0  0  0  0  0  0
   -2.4648    2.7962   -0.3375 H   0  0  0  0  0  0  0  0  0  0  0  0
   -4.7302    2.8531    1.7849 H   0  0  0  0  0  0  0  0  0  0  0  0
   -6.1933    2.2917   -0.2394 H   0  0  0  0  0  0  0  0  0  0  0  0
   -5.0959    0.9831    0.2633 H   0  0  0  0  0  0  0  0  0  0  0  0
   -4.6873    1.9886   -1.1856 H   0  0  0  0  0  0  0  0  0  0  0  0
   -4.1854    5.1468    1.0045 H   0  0  0  0  0  0  0  0  0  0  0  0
   -4.3438    4.6185   -0.7168 H   0  0  0  0  0  0  0  0  0  0  0  0
   -5.7803    4.6117    0.3799 H   0  0  0  0  0  0  0  0  0  0  0  0
   -2.2698    0.8291   -1.2968 H   0  0  0  0  0  0  0  0  0  0  0  0
   -2.4285   -0.8722   -1.0677 H   0  0  0  0  0  0  0  0  0  0  0  0
   -0.2299    2.0232   -0.4205 H   0  0  0  0  0  0  0  0  0  0  0  0
    4.8484    1.0577   -2.0235 H   0  0  0  0  0  0  0  0  0  0  0  0
    3.1744    1.3626   -2.6505 H   0  0  0  0  0  0  0  0  0  0  0  0
    4.4505    2.5878   -2.8984 H   0  0  0  0  0  0  0  0  0  0  0  0
    5.5565    3.5767   -1.0094 H   0  0  0  0  0  0  0  0  0  0  0  0
    4.2146    4.4035   -0.1769 H   0  0  0  0  0  0  0  0  0  0  0  0
    4.3953    2.8341    1.7551 H   0  0  0  0  0  0  0  0  0  0  0  0
    5.9483    3.6545    1.4330 H   0  0  0  0  0  0  0  0  0  0  0  0
    7.6445    2.3969   -0.1630 H   0  0  0  0  0  0  0  0  0  0  0  0
    8.7673    0.2147   -0.4359 H   0  0  0  0  0  0  0  0  0  0  0  0
    7.7147   -1.8495    0.4464 H   0  0  0  0  0  0  0  0  0  0  0  0
    5.5330   -1.7264    1.6149 H   0  0  0  0  0  0  0  0  0  0  0  0
    4.3935    0.4440    1.8977 H   0  0  0  0  0  0  0  0  0  0  0  0
    3.3986   -0.2644   -0.4695 H   0  0  0  0  0  0  0  0  0  0  0  0
    2.1221   -2.3166   -0.7123 H   0  0  0  0  0  0  0  0  0  0  0  0
  1  2  1  0
  2  3  2  0
  2  4  1  0
  4  5  1  0
  5  6  1  0
  6  7  1  0
  7  8  1  0
  8  9  1  0
  9 10  1  0
 10 11  1  0
 11 12  1  0
 12 13  1  0
 13 14  1  0
 14 15  1  0
 15 16  1  0
 15 17  1  0
 12 18  1  0
 18 19  1  0
 19 20  2  0
 20 21  1  0
 21 22  1  0
 22 23  2  0
 22 24  1  0
 24 25  1  0
 24 26  1  0
 26 27  1  0
 27 28  1  0
 28 29  2  0
 29 30  1  0
 30 31  2  0
 31 32  1  0
 32 33  2  0
 21 34  2  0
 34 35  1  0
 35 36  2  0
 36  4  1  0
 36 19  1  0
 33 28  1  0
  1 37  1  0
  1 38  1  0
  1 39  1  0
  5 40  1  0
  5 41  1  0
  6 42  1  0
  6 43  1  0
  7 44  1  0
  7 45  1  0
  8 46  1  0
  8 47  1  0
  9 48  1  0
  9 49  1  0
 10 50  1  0
 10 51  1  0
 11 52  1  0
 11 53  1  0
 13 54  1  0
 13 55  1  0
 14 56  1  0
 14 57  1  0
 15 58  1  0
 16 59  1  0
 16 60  1  0
 16 61  1  0
 17 62  1  0
 17 63  1  0
 17 64  1  0
 18 65  1  0
 18 66  1  0
 20 67  1  0
 25 68  1  0
 25 69  1  0
 25 70  1  0
 26 71  1  0
 26 72  1  0
 27 73  1  0
 27 74  1  0
 29 75  1  0
 30 76  1  0
 31 77  1  0
 32 78  1  0
 33 79  1  0
 34 80  1  0
 35 81  1  0
M  END
$$$$
