
     RDKit          3D

 60 62  0  0  0  0  0  0  0  0999 V2000
   -3.2417   -1.7262    1.9992 C   0  0  0  0  0  0  0  0  0  0  0  0
   -3.3538   -2.4141    0.6410 C   0  0  0  0  0  0  0  0  0  0  0  0
   -3.7007   -1.4128   -0.4269 C   0  0  0  0  0  0  0  0  0  0  0  0
   -4.9002   -1.0528   -0.5526 O   0  0  0  0  0  0  0  0  0  0  0  0
   -2.6773   -0.7897   -1.2285 N   0  0  0  0  0  0  0  0  0  0  0  0
   -2.8949    0.5700   -1.7653 C   0  0  0  0  0  0  0  0  0  0  0  0
   -3.0397    1.6208   -0.6256 C   0  0  0  0  0  0  0  0  0  0  0  0
   -2.0065    2.7882   -0.6451 C   0  0  0  0  0  0  0  0  0  0  0  0
   -0.9860    2.6466    0.4290 N   0  0  0  0  0  0  0  0  0  0  0  0
   -1.5458    3.0704    1.7281 C   0  0  0  0  0  0  0  0  0  0  0  0
    0.2332    3.4464    0.1466 C   0  0  0  0  0  0  0  0  0  0  0  0
    1.2401    2.7414   -0.7919 C   0  0  0  0  0  0  0  0  0  0  0  0
    2.0390    1.5681   -0.1572 C   0  0  0  0  0  0  0  0  0  0  0  0
    1.3169    0.2898    0.0688 N   0  0  0  0  0  0  0  0  0  0  0  0
    1.8304   -0.6294    1.0623 C   0  0  0  0  0  0  0  0  0  0  0  0
    1.0253   -1.3397    1.7266 O   0  0  0  0  0  0  0  0  0  0  0  0
    3.2793   -0.7617    1.3394 C   0  0  0  0  0  0  0  0  0  0  0  0
    3.7240   -0.9323    2.6622 C   0  0  0  0  0  0  0  0  0  0  0  0
    5.0867   -1.0838    2.9352 C   0  0  0  0  0  0  0  0  0  0  0  0
    6.0148   -1.0816    1.8916 C   0  0  0  0  0  0  0  0  0  0  0  0
    5.5823   -0.9302    0.5718 C   0  0  0  0  0  0  0  0  0  0  0  0
    6.4834   -0.9418   -0.4413 F   0  0  0  0  0  0  0  0  0  0  0  0
    4.2204   -0.7779    0.2945 C   0  0  0  0  0  0  0  0  0  0  0  0
   -0.0356    0.0469   -0.4570 C   0  0  0  0  0  0  0  0  0  0  0  0
   -0.2189   -1.2101   -1.2638 C   0  0  0  0  0  0  0  0  0  0  0  0
    0.8690   -1.9626   -1.7425 C   0  0  0  0  0  0  0  0  0  0  0  0
    0.6529   -3.0922   -2.5352 C   0  0  0  0  0  0  0  0  0  0  0  0
    1.7096   -3.8157   -2.9807 F   0  0  0  0  0  0  0  0  0  0  0  0
   -0.6471   -3.4697   -2.8782 C   0  0  0  0  0  0  0  0  0  0  0  0
   -0.8544   -4.5644   -3.6500 F   0  0  0  0  0  0  0  0  0  0  0  0
   -1.7342   -2.7090   -2.4430 C   0  0  0  0  0  0  0  0  0  0  0  0
   -1.5335   -1.5675   -1.6515 C   0  0  0  0  0  0  0  0  0  0  0  0
   -2.9654   -2.4708    2.7737 H   0  0  0  0  0  0  0  0  0  0  0  0
   -2.4576   -0.9371    1.9709 H   0  0  0  0  0  0  0  0  0  0  0  0
   -4.2177   -1.2691    2.2801 H   0  0  0  0  0  0  0  0  0  0  0  0
   -2.3938   -2.9186    0.4184 H   0  0  0  0  0  0  0  0  0  0  0  0
   -4.1440   -3.1931    0.6881 H   0  0  0  0  0  0  0  0  0  0  0  0
   -3.8262    0.5649   -2.3731 H   0  0  0  0  0  0  0  0  0  0  0  0
   -2.0931    0.8406   -2.4846 H   0  0  0  0  0  0  0  0  0  0  0  0
   -3.0229    1.1071    0.3565 H   0  0  0  0  0  0  0  0  0  0  0  0
   -4.0562    2.0655   -0.7047 H   0  0  0  0  0  0  0  0  0  0  0  0
   -2.5485    3.7547   -0.5290 H   0  0  0  0  0  0  0  0  0  0  0  0
   -1.5250    2.8476   -1.6444 H   0  0  0  0  0  0  0  0  0  0  0  0
   -1.7471    4.1644    1.7390 H   0  0  0  0  0  0  0  0  0  0  0  0
   -0.8342    2.8239    2.5452 H   0  0  0  0  0  0  0  0  0  0  0  0
   -2.4898    2.5379    1.9606 H   0  0  0  0  0  0  0  0  0  0  0  0
    0.7820    3.6831    1.0869 H   0  0  0  0  0  0  0  0  0  0  0  0
   -0.0472    4.4280   -0.2989 H   0  0  0  0  0  0  0  0  0  0  0  0
    1.9974    3.5143   -1.0494 H   0  0  0  0  0  0  0  0  0  0  0  0
    0.8009    2.4829   -1.7752 H   0  0  0  0  0  0  0  0  0  0  0  0
    2.8978    1.3684   -0.8281 H   0  0  0  0  0  0  0  0  0  0  0  0
    2.4593    1.9268    0.8075 H   0  0  0  0  0  0  0  0  0  0  0  0
    3.0177   -0.9363    3.4832 H   0  0  0  0  0  0  0  0  0  0  0  0
    5.4227   -1.2057    3.9566 H   0  0  0  0  0  0  0  0  0  0  0  0
    7.0689   -1.2015    2.1047 H   0  0  0  0  0  0  0  0  0  0  0  0
    3.9043   -0.6971   -0.7361 H   0  0  0  0  0  0  0  0  0  0  0  0
   -0.7511    0.0419    0.3928 H   0  0  0  0  0  0  0  0  0  0  0  0
   -0.3166    0.8302   -1.1539 H   0  0  0  0  0  0  0  0  0  0  0  0
    1.8853   -1.6772   -1.5167 H   0  0  0  0  0  0  0  0  0  0  0  0
   -2.7371   -2.9991   -2.7302 H   0  0  0  0  0  0  0  0  0  0  0  0
  1  2  1  0
  2  3  1  0
  3  4  2  0
  3  5  1  0
  5  6  1  0
  6  7  1  0
  7  8  1  0
  8  9  1  0
  9 10  1  0
  9 11  1  0
 11 12  1  0
 12 13  1  0
 13 14  1  0
 14 15  1  0
 15 16  2  0
 15 17  1  0
 17 18  2  0
 18 19  1  0
 19 20  2  0
 20 21  1  0
 21 22  1  0
 21 23  2  0
 14 24  1  0
 24 25  1  0
 25 26  2  0
 26 27  1  0
 27 28  1  0
 27 29  2  0
 29 30  1  0
 29 31  1  0
 31 32  2  0
 32  5  1  0
 23 17  1  0
 32 25  1  0
  1 33  1  0
  1 34  1  0
  1 35  1  0
  2 36  1  0
  2 37  1  0
  6 38  1  0
  6 39  1  0
  7 40  1  0
  7 41  1  0
  8 42  1  0
  8 43  1  0
 10 44  1  0
 10 45  1  0
 10 46  1  0
 11 47  1  0
 11 48  1  0
 12 49  1  0
 12 50  1  0
 13 51  1  0
 13 52  1  0
 18 53  1  0
 19 54  1  0
 20 55  1  0
 23 56  1  0
 24 57  1  0
 24 58  1  0
 26 59  1  0
 31 60  1  0
M  END
$$$$
