
     RDKit          3D

 79 82  0  0  0  0  0  0  0  0999 V2000
    4.4302    2.0698    2.7047 C   0  0  0  0  0  0  0  0  0  0  0  0
    5.0795    0.9840    1.9513 N   0  0  0  0  0  0  0  0  0  0  0  0
    6.1746    0.3950    2.7492 C   0  0  0  0  0  0  0  0  0  0  0  0
    6.8017   -0.7911    2.0077 C   0  0  0  0  0  0  0  0  0  0  0  0
    7.2892   -0.3667    0.6169 C   0  0  0  0  0  0  0  0  0  0  0  0
    6.1856    0.3559   -0.1827 C   0  0  0  0  0  0  0  0  0  0  0  0
    5.0940   -0.6316   -0.6605 C   0  0  0  0  0  0  0  0  0  0  0  0
    4.1974   -0.0144   -1.6380 N   0  0  0  0  0  0  0  0  0  0  0  0
    3.0664   -0.7243   -2.1624 C   0  0  0  0  0  0  0  0  0  0  0  0
    2.8620   -1.9223   -1.8207 O   0  0  0  0  0  0  0  0  0  0  0  0
    2.1639   -0.0657   -3.1689 C   0  0  0  0  0  0  0  0  0  0  0  0
    0.7203   -0.4207   -2.9207 C   0  0  0  0  0  0  0  0  0  0  0  0
    0.1854   -1.5905   -3.4734 C   0  0  0  0  0  0  0  0  0  0  0  0
   -1.1423   -1.9442   -3.2338 C   0  0  0  0  0  0  0  0  0  0  0  0
   -1.9622   -1.1298   -2.4319 C   0  0  0  0  0  0  0  0  0  0  0  0
   -1.4333    0.0559   -1.8760 C   0  0  0  0  0  0  0  0  0  0  0  0
   -0.0925    0.3987   -2.1238 C   0  0  0  0  0  0  0  0  0  0  0  0
   -2.3208    1.0293   -1.1299 C   0  0  0  0  0  0  0  0  0  0  0  0
   -1.6867    1.4868    0.1315 N   0  0  0  0  0  0  0  0  0  0  0  0
   -1.9905    2.9123    0.4316 C   0  0  0  0  0  0  0  0  0  0  0  0
   -3.3401    3.1226    1.0947 C   0  0  0  0  0  0  0  0  0  0  0  0
   -3.4096    3.3770    2.4759 C   0  0  0  0  0  0  0  0  0  0  0  0
   -4.6481    3.4703    3.1148 C   0  0  0  0  0  0  0  0  0  0  0  0
   -5.8288    3.2983    2.3837 C   0  0  0  0  0  0  0  0  0  0  0  0
   -5.7701    3.0478    1.0113 C   0  0  0  0  0  0  0  0  0  0  0  0
   -4.5333    2.9694    0.3640 C   0  0  0  0  0  0  0  0  0  0  0  0
   -1.9856    0.6005    1.2841 C   0  0  0  0  0  0  0  0  0  0  0  0
   -1.2176   -0.6875    1.2001 C   0  0  0  0  0  0  0  0  0  0  0  0
    0.0383   -0.6379    1.2735 O   0  0  0  0  0  0  0  0  0  0  0  0
   -1.8554   -1.9684    1.0687 N   0  0  0  0  0  0  0  0  0  0  0  0
   -3.2990   -2.1746    0.8924 C   0  0  0  0  0  0  0  0  0  0  0  0
   -3.5647   -3.5572    0.2785 C   0  0  0  0  0  0  0  0  0  0  0  0
   -4.9425   -3.6974   -0.4014 C   0  0  0  0  0  0  0  0  0  0  0  0
   -5.2089   -2.8280   -1.6560 C   0  0  0  0  0  0  0  0  0  0  0  0
   -3.9971   -2.6236   -2.5817 C   0  0  0  0  0  0  0  0  0  0  0  0
   -3.2964   -1.4597   -2.1531 O   0  0  0  0  0  0  0  0  0  0  0  0
    5.5951    1.5010    0.6685 C   0  0  0  0  0  0  0  0  0  0  0  0
    3.9719    1.6671    3.6309 H   0  0  0  0  0  0  0  0  0  0  0  0
    5.1554    2.8690    2.9734 H   0  0  0  0  0  0  0  0  0  0  0  0
    3.6102    2.5178    2.1013 H   0  0  0  0  0  0  0  0  0  0  0  0
    5.7729    0.0204    3.7162 H   0  0  0  0  0  0  0  0  0  0  0  0
    6.9640    1.1522    2.9671 H   0  0  0  0  0  0  0  0  0  0  0  0
    6.0536   -1.6072    1.9125 H   0  0  0  0  0  0  0  0  0  0  0  0
    7.6625   -1.1793    2.5953 H   0  0  0  0  0  0  0  0  0  0  0  0
    8.1567    0.3198    0.7403 H   0  0  0  0  0  0  0  0  0  0  0  0
    7.6489   -1.2590    0.0593 H   0  0  0  0  0  0  0  0  0  0  0  0
    6.6675    0.7978   -1.0842 H   0  0  0  0  0  0  0  0  0  0  0  0
    5.5764   -1.5124   -1.1380 H   0  0  0  0  0  0  0  0  0  0  0  0
    4.4978   -0.9947    0.2043 H   0  0  0  0  0  0  0  0  0  0  0  0
    4.3823    0.9551   -1.9821 H   0  0  0  0  0  0  0  0  0  0  0  0
    2.2890    1.0399   -3.1321 H   0  0  0  0  0  0  0  0  0  0  0  0
    2.4694   -0.3925   -4.1880 H   0  0  0  0  0  0  0  0  0  0  0  0
    0.7991   -2.2259   -4.1011 H   0  0  0  0  0  0  0  0  0  0  0  0
   -1.5218   -2.8476   -3.6913 H   0  0  0  0  0  0  0  0  0  0  0  0
    0.3149    1.3150   -1.7119 H   0  0  0  0  0  0  0  0  0  0  0  0
   -2.4813    1.8780   -1.8302 H   0  0  0  0  0  0  0  0  0  0  0  0
   -3.3299    0.6125   -0.9314 H   0  0  0  0  0  0  0  0  0  0  0  0
   -1.9319    3.5376   -0.4886 H   0  0  0  0  0  0  0  0  0  0  0  0
   -1.1841    3.3090    1.0860 H   0  0  0  0  0  0  0  0  0  0  0  0
   -2.5003    3.4906    3.0621 H   0  0  0  0  0  0  0  0  0  0  0  0
   -4.6929    3.6661    4.1801 H   0  0  0  0  0  0  0  0  0  0  0  0
   -6.7880    3.3645    2.8827 H   0  0  0  0  0  0  0  0  0  0  0  0
   -6.6842    2.9184    0.4463 H   0  0  0  0  0  0  0  0  0  0  0  0
   -4.5100    2.7874   -0.6989 H   0  0  0  0  0  0  0  0  0  0  0  0
   -1.6642    1.0902    2.2273 H   0  0  0  0  0  0  0  0  0  0  0  0
   -3.0773    0.4336    1.3857 H   0  0  0  0  0  0  0  0  0  0  0  0
   -1.2395   -2.8133    1.1130 H   0  0  0  0  0  0  0  0  0  0  0  0
   -3.7168   -1.3908    0.2355 H   0  0  0  0  0  0  0  0  0  0  0  0
   -3.8029   -2.0970    1.8830 H   0  0  0  0  0  0  0  0  0  0  0  0
   -3.5025   -4.3134    1.0954 H   0  0  0  0  0  0  0  0  0  0  0  0
   -2.7631   -3.8180   -0.4384 H   0  0  0  0  0  0  0  0  0  0  0  0
   -5.7380   -3.4877    0.3471 H   0  0  0  0  0  0  0  0  0  0  0  0
   -5.0577   -4.7652   -0.6885 H   0  0  0  0  0  0  0  0  0  0  0  0
   -6.0149   -3.3231   -2.2345 H   0  0  0  0  0  0  0  0  0  0  0  0
   -5.6110   -1.8406   -1.3502 H   0  0  0  0  0  0  0  0  0  0  0  0
   -3.3501   -3.5235   -2.5667 H   0  0  0  0  0  0  0  0  0  0  0  0
   -4.3459   -2.4594   -3.6243 H   0  0  0  0  0  0  0  0  0  0  0  0
    6.3803    2.2708    0.8435 H   0  0  0  0  0  0  0  0  0  0  0  0
    4.7772    1.9990    0.1040 H   0  0  0  0  0  0  0  0  0  0  0  0
  1  2  1  0
  2  3  1  0
  3  4  1  0
  4  5  1  0
  5  6  1  0
  6  7  1  0
  7  8  1  0
  8  9  1  0
  9 10  2  0
  9 11  1  0
 11 12  1  0
 12 13  2  0
 13 14  1  0
 14 15  2  0
 15 16  1  0
 16 17  2  0
 16 18  1  0
 18 19  1  0
 19 20  1  0
 20 21  1  0
 21 22  2  0
 22 23  1  0
 23 24  2  0
 24 25  1  0
 25 26  2  0
 19 27  1  0
 27 28  1  0
 28 29  2  0
 28 30  1  0
 30 31  1  0
 31 32  1  0
 32 33  1  0
 33 34  1  0
 34 35  1  0
 35 36  1  0
  6 37  1  0
 37  2  1  0
 17 12  1  0
 26 21  1  0
 36 15  1  0
  1 38  1  0
  1 39  1  0
  1 40  1  0
  3 41  1  0
  3 42  1  0
  4 43  1  0
  4 44  1  0
  5 45  1  0
  5 46  1  0
  6 47  1  0
  7 48  1  0
  7 49  1  0
  8 50  1  0
 11 51  1  0
 11 52  1  0
 13 53  1  0
 14 54  1  0
 17 55  1  0
 18 56  1  0
 18 57  1  0
 20 58  1  0
 20 59  1  0
 22 60  1  0
 23 61  1  0
 24 62  1  0
 25 63  1  0
 26 64  1  0
 27 65  1  0
 27 66  1  0
 30 67  1  0
 31 68  1  0
 31 69  1  0
 32 70  1  0
 32 71  1  0
 33 72  1  0
 33 73  1  0
 34 74  1  0
 34 75  1  0
 35 76  1  0
 35 77  1  0
 37 78  1  0
 37 79  1  0
M  END
$$$$
