
     RDKit          3D

 76 78  0  0  0  0  0  0  0  0999 V2000
   -1.2149    4.5004   -3.2066 C   0  0  0  0  0  0  0  0  0  0  0  0
   -0.4495    3.3528   -2.6122 C   0  0  0  0  0  0  0  0  0  0  0  0
    0.0407    2.4992   -3.4007 O   0  0  0  0  0  0  0  0  0  0  0  0
   -0.2662    3.2022   -1.1798 N   0  0  0  0  0  0  0  0  0  0  0  0
   -0.6407    4.2773   -0.2297 C   0  0  0  0  0  0  0  0  0  0  0  0
   -1.5205    3.7370    0.9114 C   0  0  0  0  0  0  0  0  0  0  0  0
   -2.9719    3.5441    0.4451 C   0  0  0  0  0  0  0  0  0  0  0  0
   -3.8861    2.9176    1.5206 C   0  0  0  0  0  0  0  0  0  0  0  0
   -3.5044    1.4920    1.9648 C   0  0  0  0  0  0  0  0  0  0  0  0
   -3.4995    0.4580    0.8119 C   0  0  0  0  0  0  0  0  0  0  0  0
   -2.1780   -0.3510    0.7463 C   0  0  0  0  0  0  0  0  0  0  0  0
   -1.7648   -0.7587   -0.6218 N   0  0  0  0  0  0  0  0  0  0  0  0
   -2.8150   -1.4510   -1.4047 C   0  0  0  0  0  0  0  0  0  0  0  0
   -3.2265   -2.7842   -0.7508 C   0  0  0  0  0  0  0  0  0  0  0  0
   -4.0695   -3.6764   -1.6923 C   0  0  0  0  0  0  0  0  0  0  0  0
   -5.4055   -3.0176   -2.0575 C   0  0  0  0  0  0  0  0  0  0  0  0
   -4.3170   -5.0400   -1.0378 C   0  0  0  0  0  0  0  0  0  0  0  0
   -1.1585    0.3530   -1.3886 C   0  0  0  0  0  0  0  0  0  0  0  0
    0.1845    0.7618   -0.8168 C   0  0  0  0  0  0  0  0  0  0  0  0
    1.0821   -0.2459   -0.4130 C   0  0  0  0  0  0  0  0  0  0  0  0
    2.3332    0.0737    0.1394 C   0  0  0  0  0  0  0  0  0  0  0  0
    3.2477   -1.0007    0.6009 C   0  0  0  0  0  0  0  0  0  0  0  0
    2.7859   -2.1494    0.8441 O   0  0  0  0  0  0  0  0  0  0  0  0
    4.6509   -0.7510    0.7752 N   0  0  0  0  0  0  0  0  0  0  0  0
    5.5294   -1.6478    1.5306 C   0  0  0  0  0  0  0  0  0  0  0  0
    6.3161   -2.5449    0.5670 C   0  0  0  0  0  0  0  0  0  0  0  0
    7.3832   -3.3312    1.3368 C   0  0  0  0  0  0  0  0  0  0  0  0
    8.2614   -2.4557    2.0203 O   0  0  0  0  0  0  0  0  0  0  0  0
    7.5550   -1.7414    3.0199 C   0  0  0  0  0  0  0  0  0  0  0  0
    6.4969   -0.8229    2.3924 C   0  0  0  0  0  0  0  0  0  0  0  0
    2.6945    1.4247    0.2636 C   0  0  0  0  0  0  0  0  0  0  0  0
    1.8344    2.4321   -0.1684 C   0  0  0  0  0  0  0  0  0  0  0  0
    0.5776    2.1231   -0.7118 C   0  0  0  0  0  0  0  0  0  0  0  0
   -0.6542    5.4447   -3.0537 H   0  0  0  0  0  0  0  0  0  0  0  0
   -1.3424    4.3526   -4.3013 H   0  0  0  0  0  0  0  0  0  0  0  0
   -2.2241    4.5672   -2.7452 H   0  0  0  0  0  0  0  0  0  0  0  0
   -1.1909    5.1108   -0.7270 H   0  0  0  0  0  0  0  0  0  0  0  0
    0.2783    4.7404    0.1980 H   0  0  0  0  0  0  0  0  0  0  0  0
   -1.5126    4.4727    1.7484 H   0  0  0  0  0  0  0  0  0  0  0  0
   -1.0895    2.7892    1.2957 H   0  0  0  0  0  0  0  0  0  0  0  0
   -2.9956    2.9628   -0.4917 H   0  0  0  0  0  0  0  0  0  0  0  0
   -3.3923    4.5398    0.1858 H   0  0  0  0  0  0  0  0  0  0  0  0
   -3.8835    3.5776    2.4174 H   0  0  0  0  0  0  0  0  0  0  0  0
   -4.9318    2.9033    1.1354 H   0  0  0  0  0  0  0  0  0  0  0  0
   -2.5380    1.5228    2.5149 H   0  0  0  0  0  0  0  0  0  0  0  0
   -4.2492    1.1635    2.7241 H   0  0  0  0  0  0  0  0  0  0  0  0
   -3.7121    0.9481   -0.1500 H   0  0  0  0  0  0  0  0  0  0  0  0
   -4.3404   -0.2524    0.9655 H   0  0  0  0  0  0  0  0  0  0  0  0
   -2.2818   -1.2580    1.3771 H   0  0  0  0  0  0  0  0  0  0  0  0
   -1.3462    0.2142    1.2232 H   0  0  0  0  0  0  0  0  0  0  0  0
   -3.7028   -0.7979   -1.5526 H   0  0  0  0  0  0  0  0  0  0  0  0
   -2.4175   -1.6867   -2.4185 H   0  0  0  0  0  0  0  0  0  0  0  0
   -3.7985   -2.5828    0.1820 H   0  0  0  0  0  0  0  0  0  0  0  0
   -2.2989   -3.3297   -0.4717 H   0  0  0  0  0  0  0  0  0  0  0  0
   -3.5046   -3.8582   -2.6339 H   0  0  0  0  0  0  0  0  0  0  0  0
   -5.9531   -2.7139   -1.1413 H   0  0  0  0  0  0  0  0  0  0  0  0
   -5.2333   -2.1285   -2.6967 H   0  0  0  0  0  0  0  0  0  0  0  0
   -6.0379   -3.7242   -2.6369 H   0  0  0  0  0  0  0  0  0  0  0  0
   -3.3541   -5.5326   -0.7927 H   0  0  0  0  0  0  0  0  0  0  0  0
   -4.8792   -5.7042   -1.7243 H   0  0  0  0  0  0  0  0  0  0  0  0
   -4.9099   -4.9187   -0.1058 H   0  0  0  0  0  0  0  0  0  0  0  0
   -1.8595    1.2027   -1.4389 H   0  0  0  0  0  0  0  0  0  0  0  0
   -0.9675    0.0349   -2.4348 H   0  0  0  0  0  0  0  0  0  0  0  0
    0.8003   -1.2880   -0.5219 H   0  0  0  0  0  0  0  0  0  0  0  0
    5.0917    0.0321    0.2422 H   0  0  0  0  0  0  0  0  0  0  0  0
    4.9256   -2.2928    2.2108 H   0  0  0  0  0  0  0  0  0  0  0  0
    6.8100   -1.9241   -0.2136 H   0  0  0  0  0  0  0  0  0  0  0  0
    5.6216   -3.2564    0.0684 H   0  0  0  0  0  0  0  0  0  0  0  0
    7.9749   -3.9237    0.6075 H   0  0  0  0  0  0  0  0  0  0  0  0
    6.9074   -4.0573    2.0364 H   0  0  0  0  0  0  0  0  0  0  0  0
    8.2797   -1.1178    3.5830 H   0  0  0  0  0  0  0  0  0  0  0  0
    7.0896   -2.4344    3.7542 H   0  0  0  0  0  0  0  0  0  0  0  0
    7.0085   -0.0555    1.7699 H   0  0  0  0  0  0  0  0  0  0  0  0
    5.9283   -0.2990    3.1958 H   0  0  0  0  0  0  0  0  0  0  0  0
    3.6399    1.7170    0.7019 H   0  0  0  0  0  0  0  0  0  0  0  0
    2.1608    3.4613   -0.0835 H   0  0  0  0  0  0  0  0  0  0  0  0
  1  2  1  0
  2  3  2  0
  2  4  1  0
  4  5  1  0
  5  6  1  0
  6  7  1  0
  7  8  1  0
  8  9  1  0
  9 10  1  0
 10 11  1  0
 11 12  1  0
 12 13  1  0
 13 14  1  0
 14 15  1  0
 15 16  1  0
 15 17  1  0
 12 18  1  0
 18 19  1  0
 19 20  2  0
 20 21  1  0
 21 22  1  0
 22 23  2  0
 22 24  1  0
 24 25  1  0
 25 26  1  0
 26 27  1  0
 27 28  1  0
 28 29  1  0
 29 30  1  0
 21 31  2  0
 31 32  1  0
 32 33  2  0
 33  4  1  0
 33 19  1  0
 30 25  1  0
  1 34  1  0
  1 35  1  0
  1 36  1  0
  5 37  1  0
  5 38  1  0
  6 39  1  0
  6 40  1  0
  7 41  1  0
  7 42  1  0
  8 43  1  0
  8 44  1  0
  9 45  1  0
  9 46  1  0
 10 47  1  0
 10 48  1  0
 11 49  1  0
 11 50  1  0
 13 51  1  0
 13 52  1  0
 14 53  1  0
 14 54  1  0
 15 55  1  0
 16 56  1  0
 16 57  1  0
 16 58  1  0
 17 59  1  0
 17 60  1  0
 17 61  1  0
 18 62  1  0
 18 63  1  0
 20 64  1  0
 24 65  1  0
 25 66  1  0
 26 67  1  0
 26 68  1  0
 27 69  1  0
 27 70  1  0
 29 71  1  0
 29 72  1  0
 30 73  1  0
 30 74  1  0
 31 75  1  0
 32 76  1  0
M  END
$$$$
