
     RDKit          3D

 91 94  0  0  0  0  0  0  0  0999 V2000
    9.9024    0.4696   -2.7172 C   0  0  0  0  0  0  0  0  0  0  0  0
    9.0856    0.0412   -1.5322 C   0  0  0  0  0  0  0  0  0  0  0  0
    9.7239   -0.3200   -0.3393 C   0  0  0  0  0  0  0  0  0  0  0  0
    8.9680   -0.6955    0.7885 C   0  0  0  0  0  0  0  0  0  0  0  0
    9.6160   -1.0669    2.0387 N   0  0  0  0  0  0  0  0  0  0  0  0
    8.8242   -1.3003    3.2545 C   0  0  0  0  0  0  0  0  0  0  0  0
   11.0777   -1.2002    2.1152 C   0  0  0  0  0  0  0  0  0  0  0  0
    7.5642   -0.6917    0.6688 C   0  0  0  0  0  0  0  0  0  0  0  0
    6.9497   -0.2915   -0.5300 C   0  0  0  0  0  0  0  0  0  0  0  0
    5.4367   -0.2567   -0.6516 C   0  0  0  0  0  0  0  0  0  0  0  0
    4.7966    0.7549    0.3404 C   0  0  0  0  0  0  0  0  0  0  0  0
    3.4197    0.3014    0.8520 C   0  0  0  0  0  0  0  0  0  0  0  0
    2.6946   -0.4254   -0.2006 N   0  0  0  0  0  0  0  0  0  0  0  0
    1.3901   -0.0143   -0.6657 C   0  0  0  0  0  0  0  0  0  0  0  0
    0.6408   -0.8645   -1.2167 O   0  0  0  0  0  0  0  0  0  0  0  0
    0.8925    1.3995   -0.4682 C   0  0  0  0  0  0  0  0  0  0  0  0
   -0.1292    1.8573   -1.5238 C   0  0  0  0  0  0  0  0  0  0  0  0
   -1.4732    1.1795   -1.3852 C   0  0  0  0  0  0  0  0  0  0  0  0
   -1.9530    0.3478   -2.4052 C   0  0  0  0  0  0  0  0  0  0  0  0
   -3.1954   -0.2731   -2.2869 C   0  0  0  0  0  0  0  0  0  0  0  0
   -3.9921   -0.0725   -1.1428 C   0  0  0  0  0  0  0  0  0  0  0  0
   -3.5168    0.7657   -0.1085 C   0  0  0  0  0  0  0  0  0  0  0  0
   -2.2614    1.3857   -0.2431 C   0  0  0  0  0  0  0  0  0  0  0  0
   -4.2794    0.9423    1.1925 C   0  0  0  0  0  0  0  0  0  0  0  0
   -5.7330    1.1808    0.9992 N   0  0  0  0  0  0  0  0  0  0  0  0
   -6.0019    2.4505    0.2563 C   0  0  0  0  0  0  0  0  0  0  0  0
   -5.9405    3.7231    1.1263 C   0  0  0  0  0  0  0  0  0  0  0  0
   -7.3395    2.3678   -0.4886 C   0  0  0  0  0  0  0  0  0  0  0  0
   -6.4554    1.1062    2.2960 C   0  0  0  0  0  0  0  0  0  0  0  0
   -6.4772   -0.2964    2.8530 C   0  0  0  0  0  0  0  0  0  0  0  0
   -5.6585   -0.5978    3.7606 O   0  0  0  0  0  0  0  0  0  0  0  0
   -7.3900   -1.3028    2.3889 N   0  0  0  0  0  0  0  0  0  0  0  0
   -8.4172   -1.0898    1.3681 C   0  0  0  0  0  0  0  0  0  0  0  0
   -8.6019   -2.3564    0.5169 C   0  0  0  0  0  0  0  0  0  0  0  0
   -7.3597   -2.6738   -0.3331 C   0  0  0  0  0  0  0  0  0  0  0  0
   -7.2995   -1.8145   -1.6103 C   0  0  0  0  0  0  0  0  0  0  0  0
   -5.8658   -1.4886   -2.0178 C   0  0  0  0  0  0  0  0  0  0  0  0
   -5.2516   -0.6784   -1.0152 O   0  0  0  0  0  0  0  0  0  0  0  0
    3.3206   -1.6207   -0.7921 C   0  0  0  0  0  0  0  0  0  0  0  0
    4.8324   -1.6670   -0.5107 C   0  0  0  0  0  0  0  0  0  0  0  0
    7.7247    0.0676   -1.5940 N   0  0  0  0  0  4  0  0  0  0  0  0
   10.1703    1.5398   -2.6098 H   0  0  0  0  0  0  0  0  0  0  0  0
   10.8310   -0.1367   -2.7889 H   0  0  0  0  0  0  0  0  0  0  0  0
    9.3319    0.3337   -3.6595 H   0  0  0  0  0  0  0  0  0  0  0  0
   10.8048   -0.2964   -0.3053 H   0  0  0  0  0  0  0  0  0  0  0  0
    8.2058   -0.4053    3.4773 H   0  0  0  0  0  0  0  0  0  0  0  0
    9.4651   -1.4901    4.1419 H   0  0  0  0  0  0  0  0  0  0  0  0
    8.1702   -2.1874    3.1148 H   0  0  0  0  0  0  0  0  0  0  0  0
   11.4297   -1.9401    1.3670 H   0  0  0  0  0  0  0  0  0  0  0  0
   11.4125   -1.5509    3.1140 H   0  0  0  0  0  0  0  0  0  0  0  0
   11.5547   -0.2163    1.9225 H   0  0  0  0  0  0  0  0  0  0  0  0
    6.9380   -0.9858    1.4982 H   0  0  0  0  0  0  0  0  0  0  0  0
    5.1771    0.0924   -1.6774 H   0  0  0  0  0  0  0  0  0  0  0  0
    5.4482    0.9336    1.2247 H   0  0  0  0  0  0  0  0  0  0  0  0
    4.6834    1.7341   -0.1741 H   0  0  0  0  0  0  0  0  0  0  0  0
    3.5627   -0.3808    1.7179 H   0  0  0  0  0  0  0  0  0  0  0  0
    2.8545    1.1732    1.2384 H   0  0  0  0  0  0  0  0  0  0  0  0
    1.7588    2.0907   -0.5444 H   0  0  0  0  0  0  0  0  0  0  0  0
    0.4702    1.4996    0.5538 H   0  0  0  0  0  0  0  0  0  0  0  0
   -0.2823    2.9530   -1.4157 H   0  0  0  0  0  0  0  0  0  0  0  0
    0.2990    1.6963   -2.5383 H   0  0  0  0  0  0  0  0  0  0  0  0
   -1.3642    0.1759   -3.2967 H   0  0  0  0  0  0  0  0  0  0  0  0
   -3.5259   -0.9133   -3.0933 H   0  0  0  0  0  0  0  0  0  0  0  0
   -1.8917    2.0275    0.5485 H   0  0  0  0  0  0  0  0  0  0  0  0
   -3.8381    1.7577    1.8051 H   0  0  0  0  0  0  0  0  0  0  0  0
   -4.1163    0.0035    1.7611 H   0  0  0  0  0  0  0  0  0  0  0  0
   -5.2394    2.5869   -0.5416 H   0  0  0  0  0  0  0  0  0  0  0  0
   -5.0024    3.7538    1.7149 H   0  0  0  0  0  0  0  0  0  0  0  0
   -5.9564    4.6230    0.4742 H   0  0  0  0  0  0  0  0  0  0  0  0
   -6.8068    3.7829    1.8172 H   0  0  0  0  0  0  0  0  0  0  0  0
   -7.3523    1.4703   -1.1403 H   0  0  0  0  0  0  0  0  0  0  0  0
   -7.4680    3.2627   -1.1361 H   0  0  0  0  0  0  0  0  0  0  0  0
   -8.1978    2.3223    0.2117 H   0  0  0  0  0  0  0  0  0  0  0  0
   -7.5044    1.4480    2.1907 H   0  0  0  0  0  0  0  0  0  0  0  0
   -5.9808    1.7790    3.0455 H   0  0  0  0  0  0  0  0  0  0  0  0
   -7.4063   -2.2085    2.9115 H   0  0  0  0  0  0  0  0  0  0  0  0
   -8.1555   -0.2380    0.7111 H   0  0  0  0  0  0  0  0  0  0  0  0
   -9.3767   -0.8488    1.8731 H   0  0  0  0  0  0  0  0  0  0  0  0
   -8.8123   -3.2179    1.1873 H   0  0  0  0  0  0  0  0  0  0  0  0
   -9.4891   -2.2346   -0.1429 H   0  0  0  0  0  0  0  0  0  0  0  0
   -6.4444   -2.5514    0.2851 H   0  0  0  0  0  0  0  0  0  0  0  0
   -7.3931   -3.7439   -0.6306 H   0  0  0  0  0  0  0  0  0  0  0  0
   -7.7936   -2.3640   -2.4390 H   0  0  0  0  0  0  0  0  0  0  0  0
   -7.8495   -0.8596   -1.4870 H   0  0  0  0  0  0  0  0  0  0  0  0
   -5.2859   -2.4270   -2.1568 H   0  0  0  0  0  0  0  0  0  0  0  0
   -5.8963   -0.9296   -2.9794 H   0  0  0  0  0  0  0  0  0  0  0  0
    3.1751   -1.6047   -1.8964 H   0  0  0  0  0  0  0  0  0  0  0  0
    2.8321   -2.5351   -0.3899 H   0  0  0  0  0  0  0  0  0  0  0  0
    5.0037   -2.0598    0.5175 H   0  0  0  0  0  0  0  0  0  0  0  0
    5.3163   -2.3646   -1.2291 H   0  0  0  0  0  0  0  0  0  0  0  0
    7.2664    0.3688   -2.4836 H   0  0  0  0  0  0  0  0  0  0  0  0
  1  2  1  0
  2  3  2  0
  3  4  1  0
  4  5  1  0
  5  6  1  0
  5  7  1  0
  4  8  2  0
  8  9  1  0
  9 10  1  0
 10 11  1  0
 11 12  1  0
 12 13  1  0
 13 14  1  0
 14 15  2  0
 14 16  1  0
 16 17  1  0
 17 18  1  0
 18 19  2  0
 19 20  1  0
 20 21  2  0
 21 22  1  0
 22 23  2  0
 22 24  1  0
 24 25  1  0
 25 26  1  0
 26 27  1  0
 26 28  1  0
 25 29  1  0
 29 30  1  0
 30 31  2  0
 30 32  1  0
 32 33  1  0
 33 34  1  0
 34 35  1  0
 35 36  1  0
 36 37  1  0
 37 38  1  0
 13 39  1  0
 39 40  1  0
  9 41  2  0
 41  2  1  0
 40 10  1  0
 23 18  1  0
 38 21  1  0
  1 42  1  0
  1 43  1  0
  1 44  1  0
  3 45  1  0
  6 46  1  0
  6 47  1  0
  6 48  1  0
  7 49  1  0
  7 50  1  0
  7 51  1  0
  8 52  1  0
 10 53  1  0
 11 54  1  0
 11 55  1  0
 12 56  1  0
 12 57  1  0
 16 58  1  0
 16 59  1  0
 17 60  1  0
 17 61  1  0
 19 62  1  0
 20 63  1  0
 23 64  1  0
 24 65  1  0
 24 66  1  0
 26 67  1  0
 27 68  1  0
 27 69  1  0
 27 70  1  0
 28 71  1  0
 28 72  1  0
 28 73  1  0
 29 74  1  0
 29 75  1  0
 32 76  1  0
 33 77  1  0
 33 78  1  0
 34 79  1  0
 34 80  1  0
 35 81  1  0
 35 82  1  0
 36 83  1  0
 36 84  1  0
 37 85  1  0
 37 86  1  0
 39 87  1  0
 39 88  1  0
 40 89  1  0
 40 90  1  0
 41 91  1  0
M  CHG  1  41   1
M  END
$$$$
