
     RDKit          3D

 68 69  0  0  0  0  0  0  0  0999 V2000
    8.2471   -2.4634    0.0396 C   0  0  0  0  0  0  0  0  0  0  0  0
    7.5848   -1.5712    0.9798 N   0  0  0  0  0  0  0  0  0  0  0  0
    6.4703   -0.7566    0.6004 C   0  0  0  0  0  0  0  0  0  0  0  0
    5.7594   -0.0996    1.5594 N   0  0  0  0  0  0  0  0  0  0  0  0
    4.6837    0.6675    1.2338 C   0  0  0  0  0  0  0  0  0  0  0  0
    4.2900    0.7908   -0.1069 C   0  0  0  0  0  0  0  0  0  0  0  0
    3.0720    1.5930   -0.4937 C   0  0  0  0  0  0  0  0  0  0  0  0
    1.7908    0.9069   -0.1705 N   0  0  0  0  0  0  0  0  0  0  0  0
    1.6358   -0.3570   -0.9495 C   0  0  0  0  0  0  0  0  0  0  0  0
    2.1073   -1.5888   -0.1520 C   0  0  0  0  0  0  0  0  0  0  0  0
    1.1209   -2.0428    0.9408 C   0  0  0  0  0  0  0  0  0  0  0  0
    0.1674   -3.1609    0.4828 C   0  0  0  0  0  0  0  0  0  0  0  0
   -0.9946   -2.6436   -0.1394 O   0  0  0  0  0  0  0  0  0  0  0  0
   -2.0135   -2.4184    0.8198 C   0  0  0  0  0  0  0  0  0  0  0  0
   -3.3686   -2.1681    0.1275 C   0  0  0  0  0  0  0  0  0  0  0  0
   -3.8375   -3.3606   -0.4626 O   0  0  0  0  0  0  0  0  0  0  0  0
   -3.3457   -0.9810   -0.8973 C   0  0  0  0  0  0  0  0  0  0  0  0
   -3.7823   -1.4373   -2.1564 O   0  0  0  0  0  0  0  0  0  0  0  0
   -4.2531    0.1988   -0.4425 C   0  0  0  0  0  0  0  0  0  0  0  0
   -4.4549    1.0824   -1.5397 O   0  0  0  0  0  0  0  0  0  0  0  0
   -5.7641    1.6115   -1.5299 C   0  0  0  0  0  0  0  0  0  0  0  0
   -3.6493    0.9645    0.7703 C   0  0  0  0  0  0  0  0  0  0  0  0
   -3.0137    2.2427    0.3893 N   0  0  0  0  0  0  0  0  0  0  0  0
   -3.7163    3.4882    0.6077 C   0  0  0  0  0  0  0  0  0  0  0  0
   -4.5739    3.7086    1.8184 C   0  0  0  0  0  0  0  0  0  0  0  0
   -3.6071    4.4250   -0.2304 O   0  0  0  0  0  0  0  0  0  0  0  0
   -1.7866    2.2508   -0.4311 C   0  0  0  0  0  0  0  0  0  0  0  0
   -0.6035    1.5486    0.2597 C   0  0  0  0  0  0  0  0  0  0  0  0
    0.6914    1.8451   -0.5149 C   0  0  0  0  0  0  0  0  0  0  0  0
    5.0468    0.1203   -1.0794 C   0  0  0  0  0  0  0  0  0  0  0  0
    6.1117   -0.6383   -0.7087 N   0  0  0  0  0  0  0  0  0  0  0  0
    9.0622   -3.0112    0.5508 H   0  0  0  0  0  0  0  0  0  0  0  0
    8.6812   -1.8775   -0.7945 H   0  0  0  0  0  0  0  0  0  0  0  0
    7.5135   -3.1926   -0.3597 H   0  0  0  0  0  0  0  0  0  0  0  0
    7.8810   -1.5817    1.9842 H   0  0  0  0  0  0  0  0  0  0  0  0
    4.1270    1.1654    2.0215 H   0  0  0  0  0  0  0  0  0  0  0  0
    3.1383    2.5558    0.0684 H   0  0  0  0  0  0  0  0  0  0  0  0
    3.1084    1.8531   -1.5789 H   0  0  0  0  0  0  0  0  0  0  0  0
    0.5793   -0.5376   -1.2539 H   0  0  0  0  0  0  0  0  0  0  0  0
    2.2101   -0.3108   -1.9019 H   0  0  0  0  0  0  0  0  0  0  0  0
    3.0747   -1.3784    0.3440 H   0  0  0  0  0  0  0  0  0  0  0  0
    2.3165   -2.4173   -0.8628 H   0  0  0  0  0  0  0  0  0  0  0  0
    1.7236   -2.4546    1.7785 H   0  0  0  0  0  0  0  0  0  0  0  0
    0.5644   -1.1809    1.3627 H   0  0  0  0  0  0  0  0  0  0  0  0
   -0.0605   -3.8277    1.3502 H   0  0  0  0  0  0  0  0  0  0  0  0
    0.6786   -3.8291   -0.2440 H   0  0  0  0  0  0  0  0  0  0  0  0
   -2.1588   -3.3005    1.4883 H   0  0  0  0  0  0  0  0  0  0  0  0
   -1.7495   -1.5509    1.4594 H   0  0  0  0  0  0  0  0  0  0  0  0
   -4.0815   -1.9319    0.9494 H   0  0  0  0  0  0  0  0  0  0  0  0
   -3.1589   -3.6570   -1.1264 H   0  0  0  0  0  0  0  0  0  0  0  0
   -2.3034   -0.6052   -1.0018 H   0  0  0  0  0  0  0  0  0  0  0  0
   -3.3335   -0.8807   -2.8446 H   0  0  0  0  0  0  0  0  0  0  0  0
   -5.2178   -0.2663   -0.1163 H   0  0  0  0  0  0  0  0  0  0  0  0
   -6.5026    0.8312   -1.8197 H   0  0  0  0  0  0  0  0  0  0  0  0
   -5.8164    2.4308   -2.2706 H   0  0  0  0  0  0  0  0  0  0  0  0
   -6.0329    2.0423   -0.5366 H   0  0  0  0  0  0  0  0  0  0  0  0
   -2.9192    0.3467    1.3258 H   0  0  0  0  0  0  0  0  0  0  0  0
   -4.4689    1.1356    1.4979 H   0  0  0  0  0  0  0  0  0  0  0  0
   -5.5651    3.2357    1.6662 H   0  0  0  0  0  0  0  0  0  0  0  0
   -4.7232    4.7962    1.9912 H   0  0  0  0  0  0  0  0  0  0  0  0
   -4.0811    3.2790    2.7167 H   0  0  0  0  0  0  0  0  0  0  0  0
   -1.9837    1.7689   -1.4134 H   0  0  0  0  0  0  0  0  0  0  0  0
   -1.4804    3.2982   -0.6512 H   0  0  0  0  0  0  0  0  0  0  0  0
   -0.4987    1.9168    1.3044 H   0  0  0  0  0  0  0  0  0  0  0  0
   -0.7871    0.4600    0.2949 H   0  0  0  0  0  0  0  0  0  0  0  0
    0.4991    1.8310   -1.6129 H   0  0  0  0  0  0  0  0  0  0  0  0
    0.9642    2.8947   -0.2600 H   0  0  0  0  0  0  0  0  0  0  0  0
    4.7870    0.1941   -2.1295 H   0  0  0  0  0  0  0  0  0  0  0  0
  1  2  1  0
  2  3  1  0
  3  4  2  0
  4  5  1  0
  5  6  2  0
  6  7  1  0
  7  8  1  0
  8  9  1  0
  9 10  1  0
 10 11  1  0
 11 12  1  0
 12 13  1  0
 13 14  1  0
 14 15  1  0
 15 16  1  0
 15 17  1  0
 17 18  1  0
 17 19  1  0
 19 20  1  0
 20 21  1  0
 19 22  1  0
 22 23  1  0
 23 24  1  0
 24 25  1  0
 24 26  2  0
 23 27  1  0
 27 28  1  0
 28 29  1  0
  6 30  1  0
 30 31  2  0
 31  3  1  0
 29  8  1  0
  1 32  1  0
  1 33  1  0
  1 34  1  0
  2 35  1  0
  5 36  1  0
  7 37  1  0
  7 38  1  0
  9 39  1  0
  9 40  1  0
 10 41  1  0
 10 42  1  0
 11 43  1  0
 11 44  1  0
 12 45  1  0
 12 46  1  0
 14 47  1  0
 14 48  1  0
 15 49  1  0
 16 50  1  0
 17 51  1  0
 18 52  1  0
 19 53  1  0
 21 54  1  0
 21 55  1  0
 21 56  1  0
 22 57  1  0
 22 58  1  0
 25 59  1  0
 25 60  1  0
 25 61  1  0
 27 62  1  0
 27 63  1  0
 28 64  1  0
 28 65  1  0
 29 66  1  0
 29 67  1  0
 30 68  1  0
M  END
$$$$
