
     RDKit          3D

 64 66  0  0  0  0  0  0  0  0999 V2000
   -3.2246   -3.6408   -3.2806 C   0  0  0  0  0  0  0  0  0  0  0  0
   -2.2981   -2.5085   -2.8403 C   0  0  0  0  0  0  0  0  0  0  0  0
   -1.5128   -2.8577   -1.5981 C   0  0  0  0  0  0  0  0  0  0  0  0
   -1.2033   -4.0628   -1.3841 O   0  0  0  0  0  0  0  0  0  0  0  0
   -1.0562   -1.8409   -0.6790 N   0  0  0  0  0  0  0  0  0  0  0  0
   -0.9880   -0.4231   -1.0645 C   0  0  0  0  0  0  0  0  0  0  0  0
   -2.1366    0.3802   -0.4464 C   0  0  0  0  0  0  0  0  0  0  0  0
   -1.8967    1.8949   -0.5392 C   0  0  0  0  0  0  0  0  0  0  0  0
   -1.0419    2.3540    0.5879 N   0  0  0  0  0  0  0  0  0  0  0  0
   -1.6160    3.4731    1.3874 C   0  0  0  0  0  0  0  0  0  0  0  0
   -2.7433    2.9577    2.2893 C   0  0  0  0  0  0  0  0  0  0  0  0
   -2.0839    4.6755    0.5385 C   0  0  0  0  0  0  0  0  0  0  0  0
    0.3742    2.5900    0.2050 C   0  0  0  0  0  0  0  0  0  0  0  0
    1.3373    2.1877    1.3379 C   0  0  0  0  0  0  0  0  0  0  0  0
    1.2726    0.6925    1.7309 C   0  0  0  0  0  0  0  0  0  0  0  0
    2.1184   -0.1747    0.8778 N   0  0  0  0  0  0  0  0  0  0  0  0
    3.5105    0.1667    0.7182 C   0  0  0  0  0  0  0  0  0  0  0  0
    4.1584    0.6094    1.7050 O   0  0  0  0  0  0  0  0  0  0  0  0
    4.1957    0.0192   -0.5788 C   0  0  0  0  0  0  0  0  0  0  0  0
    5.5390    0.2232   -0.6619 N   0  0  0  0  0  0  0  0  0  0  0  0
    6.1944    0.1043   -1.8461 C   0  0  0  0  0  0  0  0  0  0  0  0
    5.4888   -0.2295   -3.0013 C   0  0  0  0  0  0  0  0  0  0  0  0
    4.1127   -0.4275   -2.9032 C   0  0  0  0  0  0  0  0  0  0  0  0
    3.4939   -0.2982   -1.7012 N   0  0  0  0  0  0  0  0  0  0  0  0
    1.7094   -1.5407    0.4683 C   0  0  0  0  0  0  0  0  0  0  0  0
    0.5300   -2.0831    1.2479 C   0  0  0  0  0  0  0  0  0  0  0  0
    0.7393   -2.4657    2.5850 C   0  0  0  0  0  0  0  0  0  0  0  0
   -0.3073   -2.9811    3.3517 C   0  0  0  0  0  0  0  0  0  0  0  0
   -0.0866   -3.3419    4.6402 F   0  0  0  0  0  0  0  0  0  0  0  0
   -1.5775   -3.1244    2.7931 C   0  0  0  0  0  0  0  0  0  0  0  0
   -2.5943   -3.6274    3.5364 F   0  0  0  0  0  0  0  0  0  0  0  0
   -1.8043   -2.7490    1.4681 C   0  0  0  0  0  0  0  0  0  0  0  0
   -0.7660   -2.2192    0.6834 C   0  0  0  0  0  0  0  0  0  0  0  0
   -3.9435   -3.8854   -2.4699 H   0  0  0  0  0  0  0  0  0  0  0  0
   -3.7954   -3.3234   -4.1780 H   0  0  0  0  0  0  0  0  0  0  0  0
   -2.6365   -4.5466   -3.5419 H   0  0  0  0  0  0  0  0  0  0  0  0
   -2.9279   -1.6145   -2.6504 H   0  0  0  0  0  0  0  0  0  0  0  0
   -1.5897   -2.2732   -3.6632 H   0  0  0  0  0  0  0  0  0  0  0  0
   -0.9890   -0.3035   -2.1683 H   0  0  0  0  0  0  0  0  0  0  0  0
   -0.0340   -0.0057   -0.7264 H   0  0  0  0  0  0  0  0  0  0  0  0
   -3.0758    0.1241   -0.9822 H   0  0  0  0  0  0  0  0  0  0  0  0
   -2.2781    0.1021    0.6205 H   0  0  0  0  0  0  0  0  0  0  0  0
   -2.9011    2.3624   -0.5089 H   0  0  0  0  0  0  0  0  0  0  0  0
   -1.4690    2.1725   -1.5286 H   0  0  0  0  0  0  0  0  0  0  0  0
   -0.8406    3.8655    2.0804 H   0  0  0  0  0  0  0  0  0  0  0  0
   -3.0862    3.7663    2.9695 H   0  0  0  0  0  0  0  0  0  0  0  0
   -2.3732    2.1121    2.9078 H   0  0  0  0  0  0  0  0  0  0  0  0
   -3.6108    2.6062    1.6927 H   0  0  0  0  0  0  0  0  0  0  0  0
   -1.3567    4.9089   -0.2652 H   0  0  0  0  0  0  0  0  0  0  0  0
   -3.0777    4.4977    0.0781 H   0  0  0  0  0  0  0  0  0  0  0  0
   -2.1756    5.5718    1.1879 H   0  0  0  0  0  0  0  0  0  0  0  0
    0.6641    2.0348   -0.7096 H   0  0  0  0  0  0  0  0  0  0  0  0
    0.5448    3.6610   -0.0371 H   0  0  0  0  0  0  0  0  0  0  0  0
    2.3674    2.4774    1.0448 H   0  0  0  0  0  0  0  0  0  0  0  0
    1.1074    2.7895    2.2412 H   0  0  0  0  0  0  0  0  0  0  0  0
    1.6242    0.5927    2.7806 H   0  0  0  0  0  0  0  0  0  0  0  0
    0.2126    0.3690    1.7249 H   0  0  0  0  0  0  0  0  0  0  0  0
    7.2627    0.2669   -1.8896 H   0  0  0  0  0  0  0  0  0  0  0  0
    5.9976   -0.3328   -3.9516 H   0  0  0  0  0  0  0  0  0  0  0  0
    3.5365   -0.6886   -3.7814 H   0  0  0  0  0  0  0  0  0  0  0  0
    1.5252   -1.5787   -0.6235 H   0  0  0  0  0  0  0  0  0  0  0  0
    2.5583   -2.2410    0.6380 H   0  0  0  0  0  0  0  0  0  0  0  0
    1.7194   -2.3607    3.0345 H   0  0  0  0  0  0  0  0  0  0  0  0
   -2.7966   -2.8595    1.0477 H   0  0  0  0  0  0  0  0  0  0  0  0
  1  2  1  0
  2  3  1  0
  3  4  2  0
  3  5  1  0
  5  6  1  0
  6  7  1  0
  7  8  1  0
  8  9  1  0
  9 10  1  0
 10 11  1  0
 10 12  1  0
  9 13  1  0
 13 14  1  0
 14 15  1  0
 15 16  1  0
 16 17  1  0
 17 18  2  0
 17 19  1  0
 19 20  2  0
 20 21  1  0
 21 22  2  0
 22 23  1  0
 23 24  2  0
 16 25  1  0
 25 26  1  0
 26 27  2  0
 27 28  1  0
 28 29  1  0
 28 30  2  0
 30 31  1  0
 30 32  1  0
 32 33  2  0
 33  5  1  0
 24 19  1  0
 33 26  1  0
  1 34  1  0
  1 35  1  0
  1 36  1  0
  2 37  1  0
  2 38  1  0
  6 39  1  0
  6 40  1  0
  7 41  1  0
  7 42  1  0
  8 43  1  0
  8 44  1  0
 10 45  1  0
 11 46  1  0
 11 47  1  0
 11 48  1  0
 12 49  1  0
 12 50  1  0
 12 51  1  0
 13 52  1  0
 13 53  1  0
 14 54  1  0
 14 55  1  0
 15 56  1  0
 15 57  1  0
 21 58  1  0
 22 59  1  0
 23 60  1  0
 25 61  1  0
 25 62  1  0
 27 63  1  0
 32 64  1  0
M  END
$$$$
