
     RDKit          3D

 72 74  0  0  0  0  0  0  0  0999 V2000
    4.6723   -0.3044   -2.1217 C   0  0  0  0  0  0  0  0  0  0  0  0
    5.2175    0.4793   -1.0011 N   0  0  0  0  0  0  0  0  0  0  0  0
    6.6848    0.3422   -0.9756 C   0  0  0  0  0  0  0  0  0  0  0  0
    4.6197    0.0351    0.2775 C   0  0  0  0  0  0  0  0  0  0  0  0
    4.6124    1.1872    1.2939 C   0  0  0  0  0  0  0  0  0  0  0  0
    3.9307    0.7917    2.6117 C   0  0  0  0  0  0  0  0  0  0  0  0
    2.5321    0.4226    2.3964 N   0  0  0  0  0  0  0  0  0  0  0  0
    1.5430    1.3830    1.9908 C   0  0  0  0  0  0  0  0  0  0  0  0
    1.7952    2.6135    2.1124 O   0  0  0  0  0  0  0  0  0  0  0  0
    0.2498    0.9668    1.3165 C   0  0  0  0  0  0  0  0  0  0  0  0
   -0.3212   -0.3772    1.8304 C   0  0  0  0  0  0  0  0  0  0  0  0
    0.0914   -1.6174    1.0110 C   0  0  0  0  0  0  0  0  0  0  0  0
   -0.4877   -1.6322   -0.3832 C   0  0  0  0  0  0  0  0  0  0  0  0
    0.1976   -1.1227   -1.3115 O   0  0  0  0  0  0  0  0  0  0  0  0
   -1.7716   -2.2214   -0.6990 N   0  0  0  0  0  0  0  0  0  0  0  0
   -2.1488   -2.4706   -2.0847 C   0  0  0  0  0  0  0  0  0  0  0  0
   -3.2846   -3.4891   -2.0566 C   0  0  0  0  0  0  0  0  0  0  0  0
   -3.7111   -3.6329   -0.5982 C   0  0  0  0  0  0  0  0  0  0  0  0
   -2.6085   -2.9728    0.2320 C   0  0  0  0  0  0  0  0  0  0  0  0
   -3.1645   -2.1372    1.3709 C   0  0  0  0  0  0  0  0  0  0  0  0
   -2.9785   -2.5838    2.5368 O   0  0  0  0  0  0  0  0  0  0  0  0
   -3.9019   -0.8930    1.2109 N   0  0  0  0  0  0  0  0  0  0  0  0
   -4.3884   -0.2283    2.4281 C   0  0  0  0  0  0  0  0  0  0  0  0
   -4.2655   -0.2914   -0.0839 C   0  0  0  0  0  0  0  0  0  0  0  0
   -3.5043    1.0158   -0.3443 C   0  0  0  0  0  0  0  0  0  0  0  0
   -2.2056    0.7313   -0.8529 O   0  0  0  0  0  0  0  0  0  0  0  0
   -1.4354    1.6840   -1.5284 C   0  0  0  0  0  0  0  0  0  0  0  0
   -1.1759    1.4826   -2.8900 C   0  0  0  0  0  0  0  0  0  0  0  0
   -0.4445    2.4224   -3.6185 C   0  0  0  0  0  0  0  0  0  0  0  0
    0.0383    3.5709   -2.9901 C   0  0  0  0  0  0  0  0  0  0  0  0
   -0.1941    3.7735   -1.6276 C   0  0  0  0  0  0  0  0  0  0  0  0
   -0.9112    2.8253   -0.8790 C   0  0  0  0  0  0  0  0  0  0  0  0
   -1.0687    3.0371    0.5728 C   0  0  0  0  0  0  0  0  0  0  0  0
   -1.4763    4.1571    0.9854 O   0  0  0  0  0  0  0  0  0  0  0  0
   -0.7619    2.0119    1.5308 N   0  0  0  0  0  0  0  0  0  0  0  0
    4.8499   -1.3928   -1.9742 H   0  0  0  0  0  0  0  0  0  0  0  0
    3.5801   -0.1229   -2.2164 H   0  0  0  0  0  0  0  0  0  0  0  0
    5.1371    0.0145   -3.0797 H   0  0  0  0  0  0  0  0  0  0  0  0
    7.1216    0.9460   -0.1537 H   0  0  0  0  0  0  0  0  0  0  0  0
    6.9899   -0.7203   -0.8464 H   0  0  0  0  0  0  0  0  0  0  0  0
    7.1194    0.7266   -1.9228 H   0  0  0  0  0  0  0  0  0  0  0  0
    3.5629   -0.2811    0.1198 H   0  0  0  0  0  0  0  0  0  0  0  0
    5.1629   -0.8425    0.6976 H   0  0  0  0  0  0  0  0  0  0  0  0
    5.6545    1.4920    1.5250 H   0  0  0  0  0  0  0  0  0  0  0  0
    4.0954    2.0659    0.8520 H   0  0  0  0  0  0  0  0  0  0  0  0
    3.9858    1.6375    3.3301 H   0  0  0  0  0  0  0  0  0  0  0  0
    4.4755   -0.0659    3.0636 H   0  0  0  0  0  0  0  0  0  0  0  0
    2.2697   -0.5723    2.5602 H   0  0  0  0  0  0  0  0  0  0  0  0
    0.4759    0.8805    0.2365 H   0  0  0  0  0  0  0  0  0  0  0  0
   -0.0477   -0.5282    2.8971 H   0  0  0  0  0  0  0  0  0  0  0  0
   -1.4219   -0.3128    1.8212 H   0  0  0  0  0  0  0  0  0  0  0  0
   -0.2211   -2.5298    1.5584 H   0  0  0  0  0  0  0  0  0  0  0  0
    1.1968   -1.6707    0.9318 H   0  0  0  0  0  0  0  0  0  0  0  0
   -1.2868   -2.8844   -2.6526 H   0  0  0  0  0  0  0  0  0  0  0  0
   -2.4797   -1.5251   -2.5626 H   0  0  0  0  0  0  0  0  0  0  0  0
   -4.1357   -3.1499   -2.6868 H   0  0  0  0  0  0  0  0  0  0  0  0
   -2.9232   -4.4687   -2.4400 H   0  0  0  0  0  0  0  0  0  0  0  0
   -3.8207   -4.7064   -0.3252 H   0  0  0  0  0  0  0  0  0  0  0  0
   -4.6992   -3.1457   -0.4445 H   0  0  0  0  0  0  0  0  0  0  0  0
   -1.9855   -3.7910    0.6593 H   0  0  0  0  0  0  0  0  0  0  0  0
   -4.9971    0.6704    2.1883 H   0  0  0  0  0  0  0  0  0  0  0  0
   -3.5280    0.0905    3.0534 H   0  0  0  0  0  0  0  0  0  0  0  0
   -5.0277   -0.9263    3.0098 H   0  0  0  0  0  0  0  0  0  0  0  0
   -5.3561   -0.0726   -0.0811 H   0  0  0  0  0  0  0  0  0  0  0  0
   -4.1083   -0.9796   -0.9271 H   0  0  0  0  0  0  0  0  0  0  0  0
   -4.0691    1.6037   -1.1021 H   0  0  0  0  0  0  0  0  0  0  0  0
   -3.4307    1.6250    0.5799 H   0  0  0  0  0  0  0  0  0  0  0  0
   -1.5594    0.6030   -3.3901 H   0  0  0  0  0  0  0  0  0  0  0  0
   -0.2578    2.2640   -4.6736 H   0  0  0  0  0  0  0  0  0  0  0  0
    0.6023    4.3008   -3.5573 H   0  0  0  0  0  0  0  0  0  0  0  0
    0.2096    4.6584   -1.1497 H   0  0  0  0  0  0  0  0  0  0  0  0
   -1.1082    2.1516    2.5081 H   0  0  0  0  0  0  0  0  0  0  0  0
  1  2  1  0
  2  3  1  0
  2  4  1  0
  4  5  1  0
  5  6  1  0
  6  7  1  0
  7  8  1  0
  8  9  2  0
  8 10  1  0
 10 11  1  0
 11 12  1  0
 12 13  1  0
 13 14  2  0
 13 15  1  0
 15 16  1  0
 16 17  1  0
 17 18  1  0
 18 19  1  0
 19 20  1  0
 20 21  2  0
 20 22  1  0
 22 23  1  0
 22 24  1  0
 24 25  1  0
 25 26  1  0
 26 27  1  0
 27 28  2  0
 28 29  1  0
 29 30  2  0
 30 31  1  0
 31 32  2  0
 32 33  1  0
 33 34  2  0
 33 35  1  0
 35 10  1  0
 19 15  1  0
 32 27  1  0
  1 36  1  0
  1 37  1  0
  1 38  1  0
  3 39  1  0
  3 40  1  0
  3 41  1  0
  4 42  1  0
  4 43  1  0
  5 44  1  0
  5 45  1  0
  6 46  1  0
  6 47  1  0
  7 48  1  0
 10 49  1  0
 11 50  1  0
 11 51  1  0
 12 52  1  0
 12 53  1  0
 16 54  1  0
 16 55  1  0
 17 56  1  0
 17 57  1  0
 18 58  1  0
 18 59  1  0
 19 60  1  0
 23 61  1  0
 23 62  1  0
 23 63  1  0
 24 64  1  0
 24 65  1  0
 25 66  1  0
 25 67  1  0
 28 68  1  0
 29 69  1  0
 30 70  1  0
 31 71  1  0
 35 72  1  0
M  END
$$$$
