
     RDKit          3D

 79 82  0  0  0  0  0  0  0  0999 V2000
    8.7762    1.8023   -1.2615 C   0  0  0  0  0  0  0  0  0  0  0  0
    7.3196    0.9568   -1.8409 S   0  0  0  0  0  6  0  0  0  0  0  0
    7.5609    0.5384   -3.2646 O   0  0  0  0  0  0  0  0  0  0  0  0
    6.1575    1.9086   -1.8038 O   0  0  0  0  0  0  0  0  0  0  0  0
    7.0169   -0.4638   -0.8602 N   0  0  0  0  0  0  0  0  0  0  0  0
    6.7954   -0.1575    0.5666 C   0  0  0  0  0  0  0  0  0  0  0  0
    5.3826    0.3691    0.8624 C   0  0  0  0  0  0  0  0  0  0  0  0
    4.3052   -0.5827    0.3149 C   0  0  0  0  0  0  0  0  0  0  0  0
    2.8921    0.0003    0.5739 C   0  0  0  0  0  0  0  0  0  0  0  0
    1.7807   -1.0304    0.5418 C   0  0  0  0  0  0  0  0  0  0  0  0
    2.0007   -2.1399   -0.0188 O   0  0  0  0  0  0  0  0  0  0  0  0
    0.4652   -0.7748    1.1064 N   0  0  0  0  0  0  0  0  0  0  0  0
    0.2160    0.3518    2.0314 C   0  0  0  0  0  0  0  0  0  0  0  0
    0.1414    1.7240    1.3325 C   0  0  0  0  0  0  0  0  0  0  0  0
   -0.9479    1.8492    0.2552 C   0  0  0  0  0  0  0  0  0  0  0  0
   -2.3746    1.6694    0.8215 C   0  0  0  0  0  0  0  0  0  0  0  0
   -3.5280    2.3362   -0.0118 C   0  0  0  0  0  0  0  0  0  0  0  0
   -3.4927    3.8724    0.2443 C   0  0  0  0  0  0  0  0  0  0  0  0
   -4.5284    4.5289   -0.4380 O   0  0  0  0  0  0  0  0  0  0  0  0
   -3.4083    2.0630   -1.5404 C   0  0  0  0  0  0  0  0  0  0  0  0
   -3.6635    0.5930   -1.9410 C   0  0  0  0  0  0  0  0  0  0  0  0
   -4.1336   -0.2310   -0.8079 N   0  0  0  0  0  0  0  0  0  0  0  0
   -5.2863    0.4213   -0.1542 C   0  0  0  0  0  0  0  0  0  0  0  0
   -4.8930    1.7711    0.4874 C   0  0  0  0  0  0  0  0  0  0  0  0
   -4.4692   -1.5968   -1.2708 C   0  0  0  0  0  0  0  0  0  0  0  0
   -4.3674   -2.5910   -0.1363 C   0  0  0  0  0  0  0  0  0  0  0  0
   -5.5175   -2.9021    0.6125 C   0  0  0  0  0  0  0  0  0  0  0  0
   -5.4539   -3.8112    1.6707 C   0  0  0  0  0  0  0  0  0  0  0  0
   -4.2471   -4.4350    1.9853 C   0  0  0  0  0  0  0  0  0  0  0  0
   -3.1027   -4.1576    1.2367 C   0  0  0  0  0  0  0  0  0  0  0  0
   -3.1488   -3.2395    0.1794 C   0  0  0  0  0  0  0  0  0  0  0  0
   -1.9868   -3.0376   -0.5740 O   0  0  0  0  0  0  0  0  0  0  0  0
   -1.1361   -1.9040   -0.4152 C   0  0  0  0  0  0  0  0  0  0  0  0
   -0.5545   -1.8377    0.9993 C   0  0  0  0  0  0  0  0  0  0  0  0
    4.5544   -0.8220   -1.1872 C   0  0  0  0  0  0  0  0  0  0  0  0
    5.9779   -1.3433   -1.4292 C   0  0  0  0  0  0  0  0  0  0  0  0
    9.1106    2.5309   -2.0284 H   0  0  0  0  0  0  0  0  0  0  0  0
    8.5492    2.3475   -0.3226 H   0  0  0  0  0  0  0  0  0  0  0  0
    9.5846    1.0650   -1.0782 H   0  0  0  0  0  0  0  0  0  0  0  0
    7.5459    0.5752    0.9288 H   0  0  0  0  0  0  0  0  0  0  0  0
    6.9601   -1.0856    1.1566 H   0  0  0  0  0  0  0  0  0  0  0  0
    5.2542    1.3859    0.4379 H   0  0  0  0  0  0  0  0  0  0  0  0
    5.2697    0.4587    1.9651 H   0  0  0  0  0  0  0  0  0  0  0  0
    4.4009   -1.5499    0.8593 H   0  0  0  0  0  0  0  0  0  0  0  0
    2.6779    0.7828   -0.1843 H   0  0  0  0  0  0  0  0  0  0  0  0
    2.8956    0.4814    1.5728 H   0  0  0  0  0  0  0  0  0  0  0  0
   -0.7270    0.2045    2.5990 H   0  0  0  0  0  0  0  0  0  0  0  0
    1.0104    0.3767    2.8063 H   0  0  0  0  0  0  0  0  0  0  0  0
   -0.0403    2.4975    2.1103 H   0  0  0  0  0  0  0  0  0  0  0  0
    1.1149    1.9839    0.8795 H   0  0  0  0  0  0  0  0  0  0  0  0
   -0.8367    2.8560   -0.1944 H   0  0  0  0  0  0  0  0  0  0  0  0
   -0.7585    1.1162   -0.5554 H   0  0  0  0  0  0  0  0  0  0  0  0
   -2.5566    0.5834    0.9460 H   0  0  0  0  0  0  0  0  0  0  0  0
   -2.4094    2.0825    1.8542 H   0  0  0  0  0  0  0  0  0  0  0  0
   -2.5229    4.2995   -0.0892 H   0  0  0  0  0  0  0  0  0  0  0  0
   -3.5953    4.0725    1.3351 H   0  0  0  0  0  0  0  0  0  0  0  0
   -4.4289    5.4948   -0.2314 H   0  0  0  0  0  0  0  0  0  0  0  0
   -2.4230    2.3953   -1.9302 H   0  0  0  0  0  0  0  0  0  0  0  0
   -4.1619    2.6810   -2.0761 H   0  0  0  0  0  0  0  0  0  0  0  0
   -4.4037    0.5624   -2.7741 H   0  0  0  0  0  0  0  0  0  0  0  0
   -2.7145    0.1721   -2.3383 H   0  0  0  0  0  0  0  0  0  0  0  0
   -5.6907   -0.2232    0.6522 H   0  0  0  0  0  0  0  0  0  0  0  0
   -6.1049    0.5836   -0.8929 H   0  0  0  0  0  0  0  0  0  0  0  0
   -4.8706    1.6635    1.5953 H   0  0  0  0  0  0  0  0  0  0  0  0
   -5.7171    2.4859    0.2732 H   0  0  0  0  0  0  0  0  0  0  0  0
   -3.7749   -1.9244   -2.0771 H   0  0  0  0  0  0  0  0  0  0  0  0
   -5.4870   -1.6246   -1.7233 H   0  0  0  0  0  0  0  0  0  0  0  0
   -6.4697   -2.4450    0.3738 H   0  0  0  0  0  0  0  0  0  0  0  0
   -6.3440   -4.0369    2.2433 H   0  0  0  0  0  0  0  0  0  0  0  0
   -4.2007   -5.1436    2.8023 H   0  0  0  0  0  0  0  0  0  0  0  0
   -2.1739   -4.6602    1.4751 H   0  0  0  0  0  0  0  0  0  0  0  0
   -1.6971   -0.9827   -0.6245 H   0  0  0  0  0  0  0  0  0  0  0  0
   -0.3203   -1.9772   -1.1629 H   0  0  0  0  0  0  0  0  0  0  0  0
   -1.3898   -1.6715    1.7124 H   0  0  0  0  0  0  0  0  0  0  0  0
   -0.1050   -2.8187    1.2666 H   0  0  0  0  0  0  0  0  0  0  0  0
    3.8409   -1.5735   -1.5830 H   0  0  0  0  0  0  0  0  0  0  0  0
    4.3918    0.1132   -1.7621 H   0  0  0  0  0  0  0  0  0  0  0  0
    6.1411   -1.4813   -2.5193 H   0  0  0  0  0  0  0  0  0  0  0  0
    6.0740   -2.3515   -0.9701 H   0  0  0  0  0  0  0  0  0  0  0  0
  1  2  1  0
  2  3  2  0
  2  4  2  0
  2  5  1  0
  5  6  1  0
  6  7  1  0
  7  8  1  0
  8  9  1  0
  9 10  1  0
 10 11  2  0
 10 12  1  0
 12 13  1  0
 13 14  1  0
 14 15  1  0
 15 16  1  0
 16 17  1  0
 17 18  1  0
 18 19  1  0
 17 20  1  0
 20 21  1  0
 21 22  1  0
 22 23  1  0
 23 24  1  0
 22 25  1  0
 25 26  1  0
 26 27  2  0
 27 28  1  0
 28 29  2  0
 29 30  1  0
 30 31  2  0
 31 32  1  0
 32 33  1  0
 33 34  1  0
  8 35  1  0
 35 36  1  0
 36  5  1  0
 34 12  1  0
 24 17  1  0
 31 26  1  0
  1 37  1  0
  1 38  1  0
  1 39  1  0
  6 40  1  0
  6 41  1  0
  7 42  1  0
  7 43  1  0
  8 44  1  0
  9 45  1  0
  9 46  1  0
 13 47  1  0
 13 48  1  0
 14 49  1  0
 14 50  1  0
 15 51  1  0
 15 52  1  0
 16 53  1  0
 16 54  1  0
 18 55  1  0
 18 56  1  0
 19 57  1  0
 20 58  1  0
 20 59  1  0
 21 60  1  0
 21 61  1  0
 23 62  1  0
 23 63  1  0
 24 64  1  0
 24 65  1  0
 25 66  1  0
 25 67  1  0
 27 68  1  0
 28 69  1  0
 29 70  1  0
 30 71  1  0
 33 72  1  0
 33 73  1  0
 34 74  1  0
 34 75  1  0
 35 76  1  0
 35 77  1  0
 36 78  1  0
 36 79  1  0
M  END
$$$$
