
     RDKit          3D

 59 62  0  0  0  0  0  0  0  0999 V2000
   -1.9386    2.3181    0.7859 C   0  0  0  0  0  0  0  0  0  0  0  0
   -3.4073    1.5491    1.4370 S   0  0  0  0  0  6  0  0  0  0  0  0
   -4.5946    1.9862    0.6286 O   0  0  0  0  0  0  0  0  0  0  0  0
   -3.5943    2.0047    2.8560 O   0  0  0  0  0  0  0  0  0  0  0  0
   -3.2899   -0.1858    1.4234 N   0  0  0  0  0  0  0  0  0  0  0  0
   -3.1203   -0.7319    0.0603 C   0  0  0  0  0  0  0  0  0  0  0  0
   -3.9373   -2.0261   -0.0796 C   0  0  0  0  0  0  0  0  0  0  0  0
   -3.3984   -3.1986    0.7627 C   0  0  0  0  0  0  0  0  0  0  0  0
   -1.9354   -3.0538    1.2132 C   0  0  0  0  0  0  0  0  0  0  0  0
   -1.1279   -2.2669    0.2695 N   0  0  0  0  0  0  0  0  0  0  0  0
    0.2671   -2.6155    0.1583 C   0  0  0  0  0  0  0  0  0  0  0  0
    0.5912   -3.5935   -0.5679 O   0  0  0  0  0  0  0  0  0  0  0  0
    1.3299   -1.9140    0.9749 C   0  0  0  0  0  0  0  0  0  0  0  0
    2.5597   -2.5191    0.7587 F   0  0  0  0  0  0  0  0  0  0  0  0
    0.9947   -2.0636    2.3065 F   0  0  0  0  0  0  0  0  0  0  0  0
    1.4196   -0.5360    0.5905 O   0  0  0  0  0  0  0  0  0  0  0  0
    2.2728    0.4455    1.1380 C   0  0  0  0  0  0  0  0  0  0  0  0
    2.3218    0.6476    2.5394 C   0  0  0  0  0  0  0  0  0  0  0  0
    1.4574    0.0268    3.3755 F   0  0  0  0  0  0  0  0  0  0  0  0
    3.1756    1.5971    3.0981 C   0  0  0  0  0  0  0  0  0  0  0  0
    3.9730    2.3868    2.2835 C   0  0  0  0  0  0  0  0  0  0  0  0
    4.7906    3.3167    2.8361 F   0  0  0  0  0  0  0  0  0  0  0  0
    3.8932    2.2629    0.9003 C   0  0  0  0  0  0  0  0  0  0  0  0
    3.0511    1.3067    0.2920 C   0  0  0  0  0  0  0  0  0  0  0  0
    3.0002    1.3535   -1.2493 C   0  0  0  0  0  0  0  0  0  0  0  0
    2.0327    2.4630   -1.7801 C   0  0  0  0  0  0  0  0  0  0  0  0
    0.7906    1.9444   -2.5342 C   0  0  0  0  0  0  0  0  0  0  0  0
    0.3648    0.5986   -1.9649 C   0  0  0  0  0  0  0  0  0  0  0  0
    1.4452   -0.4361   -2.3633 C   0  0  0  0  0  0  0  0  0  0  0  0
    2.8735   -0.0169   -1.9592 C   0  0  0  0  0  0  0  0  0  0  0  0
   -0.9464    0.2629   -2.3970 O   0  0  0  0  0  0  0  0  0  0  0  0
   -1.4155   -0.9723   -1.8591 C   0  0  0  0  0  0  0  0  0  0  0  0
   -1.6261   -0.9945   -0.3013 C   0  0  0  0  0  0  0  0  0  0  0  0
   -1.8537    2.1071   -0.3004 H   0  0  0  0  0  0  0  0  0  0  0  0
   -2.0014    3.4166    0.9327 H   0  0  0  0  0  0  0  0  0  0  0  0
   -1.0465    1.9293    1.3179 H   0  0  0  0  0  0  0  0  0  0  0  0
   -2.4909   -0.4433    2.0383 H   0  0  0  0  0  0  0  0  0  0  0  0
   -3.5465   -0.0142   -0.6766 H   0  0  0  0  0  0  0  0  0  0  0  0
   -3.9516   -2.3377   -1.1479 H   0  0  0  0  0  0  0  0  0  0  0  0
   -4.9958   -1.8241    0.2012 H   0  0  0  0  0  0  0  0  0  0  0  0
   -3.5032   -4.1396    0.1761 H   0  0  0  0  0  0  0  0  0  0  0  0
   -4.0324   -3.3149    1.6714 H   0  0  0  0  0  0  0  0  0  0  0  0
   -1.8939   -2.5718    2.2150 H   0  0  0  0  0  0  0  0  0  0  0  0
   -1.5015   -4.0735    1.3431 H   0  0  0  0  0  0  0  0  0  0  0  0
    3.1967    1.7391    4.1723 H   0  0  0  0  0  0  0  0  0  0  0  0
    4.4921    2.9297    0.2938 H   0  0  0  0  0  0  0  0  0  0  0  0
    4.0170    1.6914   -1.5597 H   0  0  0  0  0  0  0  0  0  0  0  0
    2.5867    3.1464   -2.4606 H   0  0  0  0  0  0  0  0  0  0  0  0
    1.6847    3.0937   -0.9305 H   0  0  0  0  0  0  0  0  0  0  0  0
   -0.0357    2.6808   -2.4322 H   0  0  0  0  0  0  0  0  0  0  0  0
    1.0188    1.8483   -3.6187 H   0  0  0  0  0  0  0  0  0  0  0  0
    0.3442    0.7919   -0.8898 H   0  0  0  0  0  0  0  0  0  0  0  0
    1.4034   -0.5912   -3.4645 H   0  0  0  0  0  0  0  0  0  0  0  0
    1.2612   -1.4210   -1.9091 H   0  0  0  0  0  0  0  0  0  0  0  0
    3.3410   -0.8059   -1.3290 H   0  0  0  0  0  0  0  0  0  0  0  0
    3.4837    0.0147   -2.8903 H   0  0  0  0  0  0  0  0  0  0  0  0
   -2.3821   -1.1802   -2.3613 H   0  0  0  0  0  0  0  0  0  0  0  0
   -0.8037   -1.8254   -2.2110 H   0  0  0  0  0  0  0  0  0  0  0  0
   -1.0630   -0.1925    0.1873 H   0  0  0  0  0  0  0  0  0  0  0  0
  1  2  1  0
  2  3  2  0
  2  4  2  0
  2  5  1  0
  5  6  1  0
  6  7  1  0
  7  8  1  0
  8  9  1  0
  9 10  1  0
 10 11  1  0
 11 12  2  0
 11 13  1  0
 13 14  1  0
 13 15  1  0
 13 16  1  0
 16 17  1  0
 17 18  2  0
 18 19  1  0
 18 20  1  0
 20 21  2  0
 21 22  1  0
 21 23  1  0
 23 24  2  0
 24 25  1  0
 25 26  1  0
 26 27  1  0
 27 28  1  0
 28 29  1  0
 29 30  1  0
 28 31  1  0
 31 32  1  0
 32 33  1  0
 33  6  1  0
 33 10  1  0
 24 17  1  0
 30 25  1  0
  1 34  1  0
  1 35  1  0
  1 36  1  0
  5 37  1  0
  6 38  1  0
  7 39  1  0
  7 40  1  0
  8 41  1  0
  8 42  1  0
  9 43  1  0
  9 44  1  0
 20 45  1  0
 23 46  1  0
 25 47  1  0
 26 48  1  0
 26 49  1  0
 27 50  1  0
 27 51  1  0
 28 52  1  0
 29 53  1  0
 29 54  1  0
 30 55  1  0
 30 56  1  0
 32 57  1  0
 32 58  1  0
 33 59  1  0
M  END
$$$$
