
     RDKit          3D

 70 73  0  0  0  0  0  0  0  0999 V2000
    9.3794    2.6262    1.4411 C   0  0  0  0  0  0  0  0  0  0  0  0
    8.7173    1.3764    0.9627 C   0  0  0  0  0  0  0  0  0  0  0  0
    7.4616    1.3272    0.4746 N   0  0  0  0  0  0  0  0  0  0  0  0
    7.2106    0.0687    0.1434 N   0  0  0  0  0  0  0  0  0  0  0  0
    5.9238   -0.3742   -0.3907 C   0  0  0  0  0  0  0  0  0  0  0  0
    4.9753   -0.7328    0.7530 C   0  0  0  0  0  0  0  0  0  0  0  0
    3.6893   -1.1875    0.2294 N   0  0  0  0  0  0  0  0  0  0  0  0
    2.6691   -0.2711   -0.2028 C   0  0  0  0  0  0  0  0  0  0  0  0
    2.9463    0.9533   -0.3302 O   0  0  0  0  0  0  0  0  0  0  0  0
    1.2931   -0.7378   -0.5035 C   0  0  0  0  0  0  0  0  0  0  0  0
    0.7822   -1.9111    0.0760 C   0  0  0  0  0  0  0  0  0  0  0  0
   -0.5307   -2.3135   -0.1760 C   0  0  0  0  0  0  0  0  0  0  0  0
   -1.3645   -1.5496   -1.0083 C   0  0  0  0  0  0  0  0  0  0  0  0
   -0.8562   -0.3819   -1.6151 C   0  0  0  0  0  0  0  0  0  0  0  0
    0.4615    0.0221   -1.3440 C   0  0  0  0  0  0  0  0  0  0  0  0
   -1.7309    0.4920   -2.4842 C   0  0  0  0  0  0  0  0  0  0  0  0
   -2.4110    1.5842   -1.6905 C   0  0  0  0  0  0  0  0  0  0  0  0
   -2.3016    2.9280   -2.0839 C   0  0  0  0  0  0  0  0  0  0  0  0
   -3.0372    3.9188   -1.4236 C   0  0  0  0  0  0  0  0  0  0  0  0
   -3.9084    3.5758   -0.3842 C   0  0  0  0  0  0  0  0  0  0  0  0
   -4.0295    2.2374    0.0166 C   0  0  0  0  0  0  0  0  0  0  0  0
   -3.2565    1.2599   -0.6181 C   0  0  0  0  0  0  0  0  0  0  0  0
   -5.0070    1.8195    1.0843 C   0  0  0  0  0  0  0  0  0  0  0  0
   -5.9658    0.8329    0.5317 N   0  0  0  0  0  0  0  0  0  0  0  0
   -7.0367    1.5219   -0.2104 C   0  0  0  0  0  0  0  0  0  0  0  0
   -6.5411   -0.0242    1.5921 C   0  0  0  0  0  0  0  0  0  0  0  0
   -5.6561   -1.2578    1.8594 C   0  0  0  0  0  0  0  0  0  0  0  0
   -5.8272   -2.3942    0.8233 C   0  0  0  0  0  0  0  0  0  0  0  0
   -4.9841   -2.2179   -0.4522 C   0  0  0  0  0  0  0  0  0  0  0  0
   -3.5036   -2.5726   -0.2372 C   0  0  0  0  0  0  0  0  0  0  0  0
   -2.7053   -1.9101   -1.2177 O   0  0  0  0  0  0  0  0  0  0  0  0
    8.2836   -0.7019    0.4335 C   0  0  0  0  0  0  0  0  0  0  0  0
    8.3871   -2.1745    0.1720 C   0  0  0  0  0  0  0  0  0  0  0  0
    9.2739    0.1116    0.9494 C   0  0  0  0  0  0  0  0  0  0  0  0
   10.8883   -0.3459    1.4694 Cl  0  0  0  0  0  0  0  0  0  0  0  0
    8.6969    3.4930    1.3153 H   0  0  0  0  0  0  0  0  0  0  0  0
   10.3045    2.8076    0.8558 H   0  0  0  0  0  0  0  0  0  0  0  0
    9.6385    2.5240    2.5154 H   0  0  0  0  0  0  0  0  0  0  0  0
    6.0666   -1.2545   -1.0538 H   0  0  0  0  0  0  0  0  0  0  0  0
    5.4841    0.4404   -1.0049 H   0  0  0  0  0  0  0  0  0  0  0  0
    5.4271   -1.5466    1.3600 H   0  0  0  0  0  0  0  0  0  0  0  0
    4.8258    0.1440    1.4203 H   0  0  0  0  0  0  0  0  0  0  0  0
    3.5302   -2.2156    0.1591 H   0  0  0  0  0  0  0  0  0  0  0  0
    1.3786   -2.5043    0.7557 H   0  0  0  0  0  0  0  0  0  0  0  0
   -0.8999   -3.2176    0.2904 H   0  0  0  0  0  0  0  0  0  0  0  0
    0.8353    0.9363   -1.7900 H   0  0  0  0  0  0  0  0  0  0  0  0
   -1.1126    0.9291   -3.2987 H   0  0  0  0  0  0  0  0  0  0  0  0
   -2.5081   -0.1195   -2.9901 H   0  0  0  0  0  0  0  0  0  0  0  0
   -1.6639    3.2089   -2.9127 H   0  0  0  0  0  0  0  0  0  0  0  0
   -2.9518    4.9515   -1.7363 H   0  0  0  0  0  0  0  0  0  0  0  0
   -4.4951    4.3488    0.0962 H   0  0  0  0  0  0  0  0  0  0  0  0
   -3.3430    0.2435   -0.2815 H   0  0  0  0  0  0  0  0  0  0  0  0
   -4.4138    1.3744    1.9130 H   0  0  0  0  0  0  0  0  0  0  0  0
   -5.5386    2.6986    1.5145 H   0  0  0  0  0  0  0  0  0  0  0  0
   -6.6057    2.1770   -0.9978 H   0  0  0  0  0  0  0  0  0  0  0  0
   -7.6800    0.7769   -0.7262 H   0  0  0  0  0  0  0  0  0  0  0  0
   -7.6648    2.1378    0.4717 H   0  0  0  0  0  0  0  0  0  0  0  0
   -7.5619   -0.3801    1.3241 H   0  0  0  0  0  0  0  0  0  0  0  0
   -6.6615    0.5527    2.5375 H   0  0  0  0  0  0  0  0  0  0  0  0
   -4.5932   -0.9581    1.9577 H   0  0  0  0  0  0  0  0  0  0  0  0
   -5.9554   -1.6661    2.8490 H   0  0  0  0  0  0  0  0  0  0  0  0
   -6.8984   -2.4795    0.5390 H   0  0  0  0  0  0  0  0  0  0  0  0
   -5.5512   -3.3604    1.3001 H   0  0  0  0  0  0  0  0  0  0  0  0
   -5.0873   -1.1812   -0.8323 H   0  0  0  0  0  0  0  0  0  0  0  0
   -5.3881   -2.8866   -1.2438 H   0  0  0  0  0  0  0  0  0  0  0  0
   -3.3586   -3.6719   -0.3181 H   0  0  0  0  0  0  0  0  0  0  0  0
   -3.1780   -2.2533    0.7762 H   0  0  0  0  0  0  0  0  0  0  0  0
    7.4898   -2.6930    0.5680 H   0  0  0  0  0  0  0  0  0  0  0  0
    8.4611   -2.3521   -0.9211 H   0  0  0  0  0  0  0  0  0  0  0  0
    9.2832   -2.6018    0.6679 H   0  0  0  0  0  0  0  0  0  0  0  0
  1  2  1  0
  2  3  2  0
  3  4  1  0
  4  5  1  0
  5  6  1  0
  6  7  1  0
  7  8  1  0
  8  9  2  0
  8 10  1  0
 10 11  2  0
 11 12  1  0
 12 13  2  0
 13 14  1  0
 14 15  2  0
 14 16  1  0
 16 17  1  0
 17 18  2  0
 18 19  1  0
 19 20  2  0
 20 21  1  0
 21 22  2  0
 21 23  1  0
 23 24  1  0
 24 25  1  0
 24 26  1  0
 26 27  1  0
 27 28  1  0
 28 29  1  0
 29 30  1  0
 30 31  1  0
  4 32  1  0
 32 33  1  0
 32 34  2  0
 34 35  1  0
 34  2  1  0
 15 10  1  0
 22 17  1  0
 31 13  1  0
  1 36  1  0
  1 37  1  0
  1 38  1  0
  5 39  1  0
  5 40  1  0
  6 41  1  0
  6 42  1  0
  7 43  1  0
 11 44  1  0
 12 45  1  0
 15 46  1  0
 16 47  1  0
 16 48  1  0
 18 49  1  0
 19 50  1  0
 20 51  1  0
 22 52  1  0
 23 53  1  0
 23 54  1  0
 25 55  1  0
 25 56  1  0
 25 57  1  0
 26 58  1  0
 26 59  1  0
 27 60  1  0
 27 61  1  0
 28 62  1  0
 28 63  1  0
 29 64  1  0
 29 65  1  0
 30 66  1  0
 30 67  1  0
 33 68  1  0
 33 69  1  0
 33 70  1  0
M  END
$$$$
