
     RDKit          3D

 81 83  0  0  0  0  0  0  0  0999 V2000
   -5.3038   -2.3957   -3.5663 C   0  0  0  0  0  0  0  0  0  0  0  0
   -4.0484   -3.0755   -2.9996 C   0  0  0  0  0  0  0  0  0  0  0  0
   -4.0733   -4.5713   -3.3377 C   0  0  0  0  0  0  0  0  0  0  0  0
   -3.9217   -2.8859   -1.4671 C   0  0  0  0  0  0  0  0  0  0  0  0
   -3.7299   -1.4188   -1.0322 C   0  0  0  0  0  0  0  0  0  0  0  0
   -2.5055   -0.8654   -1.6179 N   0  0  0  0  0  0  0  0  0  0  0  0
   -2.4463    0.4483   -2.1896 C   0  0  0  0  0  0  0  0  0  0  0  0
   -3.5017    1.0417   -2.5378 O   0  0  0  0  0  0  0  0  0  0  0  0
   -1.1253    1.1485   -2.3078 C   0  0  0  0  0  0  0  0  0  0  0  0
   -0.7997    1.8964   -1.0030 C   0  0  0  0  0  0  0  0  0  0  0  0
    0.6550    2.2820   -0.9751 C   0  0  0  0  0  0  0  0  0  0  0  0
    1.0344    3.3510   -1.5249 O   0  0  0  0  0  0  0  0  0  0  0  0
    1.6110    1.4082   -0.3623 N   0  0  0  0  0  0  0  0  0  0  0  0
    2.9921    1.8262   -0.1295 C   0  0  0  0  0  0  0  0  0  0  0  0
    3.8101    0.6794    0.4709 C   0  0  0  0  0  0  0  0  0  0  0  0
    5.2395    1.1294    0.8027 C   0  0  0  0  0  0  0  0  0  0  0  0
    6.1174   -0.0563    1.2371 C   0  0  0  0  0  0  0  0  0  0  0  0
    6.3434   -0.9888    0.1088 N   0  0  0  0  0  0  0  0  0  0  0  0
    7.3548   -0.4790   -0.8400 C   0  0  0  0  0  0  0  0  0  0  0  0
    8.5513   -1.4219   -0.8337 C   0  0  0  0  0  0  0  0  0  0  0  0
    8.3313   -2.3290    0.3518 C   0  0  0  0  0  0  0  0  0  0  0  0
    6.8347   -2.2950    0.5746 C   0  0  0  0  0  0  0  0  0  0  0  0
   -1.6417    3.0914   -0.8598 N   0  0  0  0  0  0  0  0  0  0  0  0
   -1.6342    3.9001    0.3263 C   0  0  0  0  0  0  0  0  0  0  0  0
   -1.9177    5.1240    0.2397 O   0  0  0  0  0  0  0  0  0  0  0  0
   -1.2955    3.3344    1.6462 C   0  0  0  0  0  0  0  0  0  0  0  0
   -0.2570    3.9066    2.3966 C   0  0  0  0  0  0  0  0  0  0  0  0
    0.0494    3.4112    3.6660 C   0  0  0  0  0  0  0  0  0  0  0  0
   -0.6860    2.3513    4.2002 C   0  0  0  0  0  0  0  0  0  0  0  0
   -1.7340    1.7861    3.4678 C   0  0  0  0  0  0  0  0  0  0  0  0
   -2.0509    2.2771    2.1898 C   0  0  0  0  0  0  0  0  0  0  0  0
   -3.0953    1.7150    1.4444 O   0  0  0  0  0  0  0  0  0  0  0  0
   -4.4087    1.5207    1.9645 C   0  0  0  0  0  0  0  0  0  0  0  0
   -5.1848    0.5678    1.0589 C   0  0  0  0  0  0  0  0  0  0  0  0
   -4.7228   -0.8126    1.2513 N   0  0  0  0  0  0  0  0  0  0  0  0
   -5.1870   -1.5814    2.4081 C   0  0  0  0  0  0  0  0  0  0  0  0
   -3.6400   -1.3419    0.4707 C   0  0  0  0  0  0  0  0  0  0  0  0
   -2.6312   -1.8218    1.0557 O   0  0  0  0  0  0  0  0  0  0  0  0
   -6.2103   -2.7151   -3.0072 H   0  0  0  0  0  0  0  0  0  0  0  0
   -5.4358   -2.6582   -4.6400 H   0  0  0  0  0  0  0  0  0  0  0  0
   -5.2065   -1.2917   -3.5120 H   0  0  0  0  0  0  0  0  0  0  0  0
   -3.1561   -2.6358   -3.4980 H   0  0  0  0  0  0  0  0  0  0  0  0
   -4.9539   -5.0611   -2.8697 H   0  0  0  0  0  0  0  0  0  0  0  0
   -3.1498   -5.0663   -2.9668 H   0  0  0  0  0  0  0  0  0  0  0  0
   -4.1221   -4.7186   -4.4382 H   0  0  0  0  0  0  0  0  0  0  0  0
   -3.0523   -3.4802   -1.1054 H   0  0  0  0  0  0  0  0  0  0  0  0
   -4.8304   -3.2969   -0.9702 H   0  0  0  0  0  0  0  0  0  0  0  0
   -4.6165   -0.8446   -1.3648 H   0  0  0  0  0  0  0  0  0  0  0  0
   -1.6033   -1.3548   -1.4183 H   0  0  0  0  0  0  0  0  0  0  0  0
   -1.1406    1.8508   -3.1695 H   0  0  0  0  0  0  0  0  0  0  0  0
   -0.3396    0.3896   -2.5157 H   0  0  0  0  0  0  0  0  0  0  0  0
   -0.9951    1.2088   -0.1532 H   0  0  0  0  0  0  0  0  0  0  0  0
    1.2964    0.4581   -0.0572 H   0  0  0  0  0  0  0  0  0  0  0  0
    2.9964    2.6935    0.5647 H   0  0  0  0  0  0  0  0  0  0  0  0
    3.4510    2.1334   -1.0949 H   0  0  0  0  0  0  0  0  0  0  0  0
    3.3172    0.3213    1.4011 H   0  0  0  0  0  0  0  0  0  0  0  0
    3.8356   -0.1588   -0.2581 H   0  0  0  0  0  0  0  0  0  0  0  0
    5.6923    1.6399   -0.0749 H   0  0  0  0  0  0  0  0  0  0  0  0
    5.2013    1.8660    1.6359 H   0  0  0  0  0  0  0  0  0  0  0  0
    5.5914   -0.5695    2.0733 H   0  0  0  0  0  0  0  0  0  0  0  0
    7.0837    0.3185    1.6436 H   0  0  0  0  0  0  0  0  0  0  0  0
    6.9082   -0.4402   -1.8574 H   0  0  0  0  0  0  0  0  0  0  0  0
    7.7022    0.5502   -0.5946 H   0  0  0  0  0  0  0  0  0  0  0  0
    9.5091   -0.8647   -0.7349 H   0  0  0  0  0  0  0  0  0  0  0  0
    8.5676   -2.0194   -1.7736 H   0  0  0  0  0  0  0  0  0  0  0  0
    8.8526   -1.9151    1.2430 H   0  0  0  0  0  0  0  0  0  0  0  0
    8.6943   -3.3609    0.1515 H   0  0  0  0  0  0  0  0  0  0  0  0
    6.3591   -3.0855   -0.0440 H   0  0  0  0  0  0  0  0  0  0  0  0
    6.5887   -2.5146    1.6384 H   0  0  0  0  0  0  0  0  0  0  0  0
   -2.1136    3.4874   -1.7053 H   0  0  0  0  0  0  0  0  0  0  0  0
    0.3186    4.7308    1.9944 H   0  0  0  0  0  0  0  0  0  0  0  0
    0.8606    3.8472    4.2353 H   0  0  0  0  0  0  0  0  0  0  0  0
   -0.4410    1.9641    5.1828 H   0  0  0  0  0  0  0  0  0  0  0  0
   -2.2773    0.9523    3.8900 H   0  0  0  0  0  0  0  0  0  0  0  0
   -4.9284    2.5030    1.9939 H   0  0  0  0  0  0  0  0  0  0  0  0
   -4.3809    1.1139    2.9973 H   0  0  0  0  0  0  0  0  0  0  0  0
   -5.0628    0.8885    0.0040 H   0  0  0  0  0  0  0  0  0  0  0  0
   -6.2693    0.6358    1.2968 H   0  0  0  0  0  0  0  0  0  0  0  0
   -4.3475   -1.7406    3.1196 H   0  0  0  0  0  0  0  0  0  0  0  0
   -5.5709   -2.5677    2.0690 H   0  0  0  0  0  0  0  0  0  0  0  0
   -6.0043   -1.0493    2.9416 H   0  0  0  0  0  0  0  0  0  0  0  0
  1  2  1  0
  2  3  1  0
  2  4  1  0
  4  5  1  0
  5  6  1  0
  6  7  1  0
  7  8  2  0
  7  9  1  0
  9 10  1  0
 10 11  1  0
 11 12  2  0
 11 13  1  0
 13 14  1  0
 14 15  1  0
 15 16  1  0
 16 17  1  0
 17 18  1  0
 18 19  1  0
 19 20  1  0
 20 21  1  0
 21 22  1  0
 10 23  1  0
 23 24  1  0
 24 25  2  0
 24 26  1  0
 26 27  2  0
 27 28  1  0
 28 29  2  0
 29 30  1  0
 30 31  2  0
 31 32  1  0
 32 33  1  0
 33 34  1  0
 34 35  1  0
 35 36  1  0
 35 37  1  0
 37 38  2  0
 37  5  1  0
 22 18  1  0
 31 26  1  0
  1 39  1  0
  1 40  1  0
  1 41  1  0
  2 42  1  0
  3 43  1  0
  3 44  1  0
  3 45  1  0
  4 46  1  0
  4 47  1  0
  5 48  1  0
  6 49  1  0
  9 50  1  0
  9 51  1  0
 10 52  1  0
 13 53  1  0
 14 54  1  0
 14 55  1  0
 15 56  1  0
 15 57  1  0
 16 58  1  0
 16 59  1  0
 17 60  1  0
 17 61  1  0
 19 62  1  0
 19 63  1  0
 20 64  1  0
 20 65  1  0
 21 66  1  0
 21 67  1  0
 22 68  1  0
 22 69  1  0
 23 70  1  0
 27 71  1  0
 28 72  1  0
 29 73  1  0
 30 74  1  0
 33 75  1  0
 33 76  1  0
 34 77  1  0
 34 78  1  0
 36 79  1  0
 36 80  1  0
 36 81  1  0
M  END
$$$$
