
     RDKit          3D

 83 87  0  0  0  0  0  0  0  0999 V2000
   -3.1519    2.1204    0.9449 O   0  0  0  0  0  0  0  0  0  0  0  0
   -3.3830    1.0330    0.3502 C   0  0  0  0  0  0  0  0  0  0  0  0
   -4.3826    0.0739    0.9458 C   0  0  0  0  0  0  0  0  0  0  0  0
   -5.5944    0.8030    1.5382 C   0  0  0  0  0  0  0  0  0  0  0  0
   -6.5753   -0.1844    2.0953 C   0  0  0  0  0  0  0  0  0  0  0  0
   -6.6808   -0.5907    3.4220 C   0  0  0  0  0  0  0  0  0  0  0  0
   -7.6097   -1.5664    3.5443 N   0  0  0  0  0  0  0  0  0  0  0  0
   -8.0797   -1.7903    2.3047 C   0  0  0  0  0  0  0  0  0  0  0  0
   -9.0325   -2.7326    1.9188 C   0  0  0  0  0  0  0  0  0  0  0  0
   -9.3550   -2.8199    0.5518 C   0  0  0  0  0  0  0  0  0  0  0  0
   -8.7231   -1.9750   -0.3881 C   0  0  0  0  0  0  0  0  0  0  0  0
   -7.7641   -1.0347    0.0299 C   0  0  0  0  0  0  0  0  0  0  0  0
   -7.4691   -0.9684    1.3922 C   0  0  0  0  0  0  0  0  0  0  0  0
   -2.6584    0.7144   -0.8587 N   0  0  0  0  0  0  0  0  0  0  0  0
   -2.4138   -0.6964   -1.2362 C   0  0  0  0  0  0  0  0  0  0  0  0
   -0.9579   -0.9669   -1.6587 C   0  0  0  0  0  0  0  0  0  0  0  0
    0.0555   -0.8276   -0.4986 C   0  0  0  0  0  0  0  0  0  0  0  0
    1.4652   -0.4768   -1.0357 C   0  0  0  0  0  0  0  0  0  0  0  0
    2.4623    0.0845    0.0300 C   0  0  0  0  0  0  0  0  0  0  0  0
    3.8374    0.4160   -0.6444 C   0  0  0  0  0  0  0  0  0  0  0  0
    4.8458   -0.7424   -0.5536 C   0  0  0  0  0  0  0  0  0  0  0  0
    5.1501   -1.1353    0.8480 N   0  0  0  0  0  0  0  0  0  0  0  0
    6.4037   -0.5294    1.3402 C   0  0  0  0  0  0  0  0  0  0  0  0
    7.5952   -1.2420    0.7547 C   0  0  0  0  0  0  0  0  0  0  0  0
    7.8036   -2.6023    1.0262 C   0  0  0  0  0  0  0  0  0  0  0  0
    8.9115   -3.2515    0.4775 C   0  0  0  0  0  0  0  0  0  0  0  0
    9.7826   -2.5661   -0.3106 N   0  0  0  0  0  0  0  0  0  0  0  0
    9.6055   -1.2473   -0.5893 C   0  0  0  0  0  0  0  0  0  0  0  0
    8.5093   -0.5600   -0.0623 C   0  0  0  0  0  0  0  0  0  0  0  0
    4.0386   -0.8883    1.7959 C   0  0  0  0  0  0  0  0  0  0  0  0
    2.6777   -1.0359    1.1079 C   0  0  0  0  0  0  0  0  0  0  0  0
    1.9096    1.3692    0.6900 C   0  0  0  0  0  0  0  0  0  0  0  0
    1.6737    1.3606    1.9293 O   0  0  0  0  0  0  0  0  0  0  0  0
    1.5932    2.5650    0.0137 O   0  0  0  0  0  0  0  0  0  0  0  0
    2.0080    3.0134   -1.2795 C   0  0  0  0  0  0  0  0  0  0  0  0
    0.9765    4.0329   -1.8330 C   0  0  0  0  0  0  0  0  0  0  0  0
    1.5662    4.8355   -2.8253 O   0  0  0  0  0  0  0  0  0  0  0  0
   -0.3499    3.4053   -2.3704 C   0  0  0  0  0  0  0  0  0  0  0  0
   -0.1344    2.7151   -3.5785 O   0  0  0  0  0  0  0  0  0  0  0  0
   -1.0368    2.5133   -1.3162 C   0  0  0  0  0  0  0  0  0  0  0  0
   -2.3177    1.8115   -1.7868 C   0  0  0  0  0  0  0  0  0  0  0  0
   -3.8774   -0.5219    1.7367 H   0  0  0  0  0  0  0  0  0  0  0  0
   -4.7489   -0.6191    0.1579 H   0  0  0  0  0  0  0  0  0  0  0  0
   -5.2684    1.4892    2.3505 H   0  0  0  0  0  0  0  0  0  0  0  0
   -6.0923    1.4110    0.7508 H   0  0  0  0  0  0  0  0  0  0  0  0
   -6.0980   -0.2059    4.2482 H   0  0  0  0  0  0  0  0  0  0  0  0
   -7.8855   -2.0590    4.4224 H   0  0  0  0  0  0  0  0  0  0  0  0
   -9.5034   -3.3816    2.6458 H   0  0  0  0  0  0  0  0  0  0  0  0
  -10.0876   -3.5429    0.2173 H   0  0  0  0  0  0  0  0  0  0  0  0
   -8.9747   -2.0542   -1.4378 H   0  0  0  0  0  0  0  0  0  0  0  0
   -7.2724   -0.3889   -0.6860 H   0  0  0  0  0  0  0  0  0  0  0  0
   -2.6401   -1.3828   -0.3921 H   0  0  0  0  0  0  0  0  0  0  0  0
   -3.0907   -0.9637   -2.0767 H   0  0  0  0  0  0  0  0  0  0  0  0
   -0.8923   -2.0049   -2.0524 H   0  0  0  0  0  0  0  0  0  0  0  0
   -0.7013   -0.3028   -2.5086 H   0  0  0  0  0  0  0  0  0  0  0  0
   -0.2885   -0.0632    0.2271 H   0  0  0  0  0  0  0  0  0  0  0  0
    0.0998   -1.7869    0.0598 H   0  0  0  0  0  0  0  0  0  0  0  0
    1.8957   -1.3918   -1.4990 H   0  0  0  0  0  0  0  0  0  0  0  0
    1.3665    0.2377   -1.8679 H   0  0  0  0  0  0  0  0  0  0  0  0
    3.7143    0.6673   -1.7181 H   0  0  0  0  0  0  0  0  0  0  0  0
    4.3055    1.3016   -0.1597 H   0  0  0  0  0  0  0  0  0  0  0  0
    5.7664   -0.4622   -1.1113 H   0  0  0  0  0  0  0  0  0  0  0  0
    4.4281   -1.6245   -1.0844 H   0  0  0  0  0  0  0  0  0  0  0  0
    6.4272    0.5598    1.1101 H   0  0  0  0  0  0  0  0  0  0  0  0
    6.4768   -0.6270    2.4472 H   0  0  0  0  0  0  0  0  0  0  0  0
    7.1138   -3.1524    1.6542 H   0  0  0  0  0  0  0  0  0  0  0  0
    9.0803   -4.3014    0.6794 H   0  0  0  0  0  0  0  0  0  0  0  0
   10.3170   -0.7308   -1.2192 H   0  0  0  0  0  0  0  0  0  0  0  0
    8.3759    0.4900   -0.2895 H   0  0  0  0  0  0  0  0  0  0  0  0
    4.1020   -1.6292    2.6220 H   0  0  0  0  0  0  0  0  0  0  0  0
    4.1103    0.1291    2.2441 H   0  0  0  0  0  0  0  0  0  0  0  0
    1.8664   -1.0440    1.8674 H   0  0  0  0  0  0  0  0  0  0  0  0
    2.6529   -2.0458    0.6401 H   0  0  0  0  0  0  0  0  0  0  0  0
    2.9961    3.5081   -1.1713 H   0  0  0  0  0  0  0  0  0  0  0  0
    2.1293    2.1969   -2.0011 H   0  0  0  0  0  0  0  0  0  0  0  0
    0.7053    4.7117   -0.9943 H   0  0  0  0  0  0  0  0  0  0  0  0
    1.9126    4.2321   -3.5336 H   0  0  0  0  0  0  0  0  0  0  0  0
   -1.0444    4.2447   -2.5926 H   0  0  0  0  0  0  0  0  0  0  0  0
    0.3443    1.8724   -3.3716 H   0  0  0  0  0  0  0  0  0  0  0  0
   -1.2480    3.1183   -0.4094 H   0  0  0  0  0  0  0  0  0  0  0  0
   -0.3336    1.7252   -1.0441 H   0  0  0  0  0  0  0  0  0  0  0  0
   -3.1529    2.5445   -1.8378 H   0  0  0  0  0  0  0  0  0  0  0  0
   -2.1873    1.4108   -2.8149 H   0  0  0  0  0  0  0  0  0  0  0  0
  1  2  2  0
  2  3  1  0
  3  4  1  0
  4  5  1  0
  5  6  2  0
  6  7  1  0
  7  8  1  0
  8  9  2  0
  9 10  1  0
 10 11  2  0
 11 12  1  0
 12 13  2  0
  2 14  1  0
 14 15  1  0
 15 16  1  0
 16 17  1  0
 17 18  1  0
 18 19  1  0
 19 20  1  0
 20 21  1  0
 21 22  1  0
 22 23  1  0
 23 24  1  0
 24 25  2  0
 25 26  1  0
 26 27  2  0
 27 28  1  0
 28 29  2  0
 22 30  1  0
 30 31  1  0
 19 32  1  0
 32 33  2  0
 32 34  1  0
 34 35  1  0
 35 36  1  0
 36 37  1  0
 36 38  1  0
 38 39  1  0
 38 40  1  0
 40 41  1  0
 13  5  1  0
 41 14  1  0
 13  8  1  0
 31 19  1  0
 29 24  1  0
  3 42  1  0
  3 43  1  0
  4 44  1  0
  4 45  1  0
  6 46  1  0
  7 47  1  0
  9 48  1  0
 10 49  1  0
 11 50  1  0
 12 51  1  0
 15 52  1  0
 15 53  1  0
 16 54  1  0
 16 55  1  0
 17 56  1  0
 17 57  1  0
 18 58  1  0
 18 59  1  0
 20 60  1  0
 20 61  1  0
 21 62  1  0
 21 63  1  0
 23 64  1  0
 23 65  1  0
 25 66  1  0
 26 67  1  0
 28 68  1  0
 29 69  1  0
 30 70  1  0
 30 71  1  0
 31 72  1  0
 31 73  1  0
 35 74  1  0
 35 75  1  0
 36 76  1  0
 37 77  1  0
 38 78  1  0
 39 79  1  0
 40 80  1  0
 40 81  1  0
 41 82  1  0
 41 83  1  0
M  END
$$$$
