
     RDKit          3D

 57 60  0  0  0  0  0  0  0  0999 V2000
    5.8845   -1.2712   -1.6426 C   0  0  0  0  0  0  0  0  0  0  0  0
    4.4869   -0.4890   -2.4214 S   0  0  0  0  0  6  0  0  0  0  0  0
    4.9906    0.4654   -3.4669 O   0  0  0  0  0  0  0  0  0  0  0  0
    3.6348   -1.5349   -3.0849 O   0  0  0  0  0  0  0  0  0  0  0  0
    3.5367    0.3958   -1.2609 N   0  0  0  0  0  0  0  0  0  0  0  0
    3.0040   -0.4910   -0.2015 C   0  0  0  0  0  0  0  0  0  0  0  0
    3.8725   -0.3306    1.0689 C   0  0  0  0  0  0  0  0  0  0  0  0
    3.3598    0.7328    2.0580 C   0  0  0  0  0  0  0  0  0  0  0  0
    2.4697    1.7901    1.3997 C   0  0  0  0  0  0  0  0  0  0  0  0
    1.3576    1.1879    0.6390 N   0  0  0  0  0  0  0  0  0  0  0  0
    0.2285    2.0412    0.3064 C   0  0  0  0  0  0  0  0  0  0  0  0
    0.2259    3.2406    0.6996 O   0  0  0  0  0  0  0  0  0  0  0  0
   -0.9299    1.5967   -0.5514 C   0  0  0  0  0  0  0  0  0  0  0  0
   -2.1355    2.1755   -0.0564 O   0  0  0  0  0  0  0  0  0  0  0  0
   -3.3859    1.8852   -0.6087 C   0  0  0  0  0  0  0  0  0  0  0  0
   -4.0732    2.8904   -1.2951 C   0  0  0  0  0  0  0  0  0  0  0  0
   -5.2998    2.6130   -1.8989 C   0  0  0  0  0  0  0  0  0  0  0  0
   -5.8332    1.3277   -1.8014 C   0  0  0  0  0  0  0  0  0  0  0  0
   -5.1705    0.3668   -1.1054 N   0  0  0  0  0  0  0  0  0  0  0  0
   -3.9761    0.6083   -0.4961 C   0  0  0  0  0  0  0  0  0  0  0  0
   -3.3563   -0.4364    0.2690 N   0  0  0  0  0  0  0  0  0  0  0  0
   -3.2216   -0.2775    1.7251 C   0  0  0  0  0  0  0  0  0  0  0  0
   -2.5042   -1.4818    2.3584 C   0  0  0  0  0  0  0  0  0  0  0  0
   -1.3321   -1.9294    1.4745 C   0  0  0  0  0  0  0  0  0  0  0  0
   -1.8489   -2.3984    0.0856 C   0  0  0  0  0  0  0  0  0  0  0  0
   -3.1873   -1.7617   -0.3359 C   0  0  0  0  0  0  0  0  0  0  0  0
   -0.4508   -0.8299    1.3336 O   0  0  0  0  0  0  0  0  0  0  0  0
    0.8636   -1.2342    1.0078 C   0  0  0  0  0  0  0  0  0  0  0  0
    1.5084   -0.1772    0.0841 C   0  0  0  0  0  0  0  0  0  0  0  0
    6.4985   -1.7816   -2.4129 H   0  0  0  0  0  0  0  0  0  0  0  0
    5.5350   -2.0199   -0.9026 H   0  0  0  0  0  0  0  0  0  0  0  0
    6.5028   -0.5044   -1.1323 H   0  0  0  0  0  0  0  0  0  0  0  0
    2.7650    0.8462   -1.8045 H   0  0  0  0  0  0  0  0  0  0  0  0
    3.0581   -1.5567   -0.5216 H   0  0  0  0  0  0  0  0  0  0  0  0
    3.9272   -1.3066    1.5992 H   0  0  0  0  0  0  0  0  0  0  0  0
    4.9154   -0.0774    0.7810 H   0  0  0  0  0  0  0  0  0  0  0  0
    4.2263    1.2361    2.5394 H   0  0  0  0  0  0  0  0  0  0  0  0
    2.7861    0.2429    2.8733 H   0  0  0  0  0  0  0  0  0  0  0  0
    2.0704    2.4392    2.2096 H   0  0  0  0  0  0  0  0  0  0  0  0
    3.0798    2.4226    0.7190 H   0  0  0  0  0  0  0  0  0  0  0  0
   -1.0408    0.5009   -0.5836 H   0  0  0  0  0  0  0  0  0  0  0  0
   -0.7554    1.9491   -1.5901 H   0  0  0  0  0  0  0  0  0  0  0  0
   -3.6442    3.8808   -1.3794 H   0  0  0  0  0  0  0  0  0  0  0  0
   -5.8282    3.3845   -2.4437 H   0  0  0  0  0  0  0  0  0  0  0  0
   -6.7801    1.0959   -2.2703 H   0  0  0  0  0  0  0  0  0  0  0  0
   -2.6363    0.6397    1.9473 H   0  0  0  0  0  0  0  0  0  0  0  0
   -4.2274   -0.1614    2.1832 H   0  0  0  0  0  0  0  0  0  0  0  0
   -2.1311   -1.2027    3.3678 H   0  0  0  0  0  0  0  0  0  0  0  0
   -3.2206   -2.3237    2.4826 H   0  0  0  0  0  0  0  0  0  0  0  0
   -0.8320   -2.7813    1.9946 H   0  0  0  0  0  0  0  0  0  0  0  0
   -1.0927   -2.1786   -0.6981 H   0  0  0  0  0  0  0  0  0  0  0  0
   -1.9770   -3.5027    0.1012 H   0  0  0  0  0  0  0  0  0  0  0  0
   -3.2231   -1.6940   -1.4460 H   0  0  0  0  0  0  0  0  0  0  0  0
   -4.0283   -2.4123   -0.0109 H   0  0  0  0  0  0  0  0  0  0  0  0
    1.4350   -1.3444    1.9502 H   0  0  0  0  0  0  0  0  0  0  0  0
    0.9050   -2.2181    0.4840 H   0  0  0  0  0  0  0  0  0  0  0  0
    0.9941   -0.2463   -0.8979 H   0  0  0  0  0  0  0  0  0  0  0  0
  1  2  1  0
  2  3  2  0
  2  4  2  0
  2  5  1  0
  5  6  1  0
  6  7  1  0
  7  8  1  0
  8  9  1  0
  9 10  1  0
 10 11  1  0
 11 12  2  0
 11 13  1  0
 13 14  1  0
 14 15  1  0
 15 16  2  0
 16 17  1  0
 17 18  2  0
 18 19  1  0
 19 20  2  0
 20 21  1  0
 21 22  1  0
 22 23  1  0
 23 24  1  0
 24 25  1  0
 25 26  1  0
 24 27  1  0
 27 28  1  0
 28 29  1  0
 29  6  1  0
 29 10  1  0
 20 15  1  0
 26 21  1  0
  1 30  1  0
  1 31  1  0
  1 32  1  0
  5 33  1  0
  6 34  1  0
  7 35  1  0
  7 36  1  0
  8 37  1  0
  8 38  1  0
  9 39  1  0
  9 40  1  0
 13 41  1  0
 13 42  1  0
 16 43  1  0
 17 44  1  0
 18 45  1  0
 22 46  1  0
 22 47  1  0
 23 48  1  0
 23 49  1  0
 24 50  1  0
 25 51  1  0
 25 52  1  0
 26 53  1  0
 26 54  1  0
 28 55  1  0
 28 56  1  0
 29 57  1  0
M  END
$$$$
