
     RDKit          3D

 78 82  0  0  0  0  0  0  0  0999 V2000
   10.5322    0.6458   -1.5238 C   0  0  0  0  0  0  0  0  0  0  0  0
    9.1685    0.0118   -2.4869 S   0  0  0  0  0  6  0  0  0  0  0  0
    8.9881    0.8766   -3.7047 O   0  0  0  0  0  0  0  0  0  0  0  0
    9.4910   -1.3871   -2.9322 O   0  0  0  0  0  0  0  0  0  0  0  0
    7.6836   -0.0009   -1.5634 N   0  0  0  0  0  0  0  0  0  0  0  0
    7.3972    1.3462   -1.0487 C   0  0  0  0  0  0  0  0  0  0  0  0
    6.0144    1.3527   -0.3943 C   0  0  0  0  0  0  0  0  0  0  0  0
    5.8742    0.2342    0.5498 N   0  0  0  0  0  0  0  0  0  0  0  0
    4.6754    0.0695    1.3388 C   0  0  0  0  0  0  0  0  0  0  0  0
    4.7504   -0.4586    2.4833 O   0  0  0  0  0  0  0  0  0  0  0  0
    3.3370    0.4118    0.8166 C   0  0  0  0  0  0  0  0  0  0  0  0
    2.9765    1.7369    0.5342 C   0  0  0  0  0  0  0  0  0  0  0  0
    1.6861    2.0392    0.0935 C   0  0  0  0  0  0  0  0  0  0  0  0
    0.7215    1.0225   -0.0412 C   0  0  0  0  0  0  0  0  0  0  0  0
    1.0705   -0.3063    0.2676 C   0  0  0  0  0  0  0  0  0  0  0  0
    2.3755   -0.6021    0.6934 C   0  0  0  0  0  0  0  0  0  0  0  0
    0.0256   -1.3987    0.2354 C   0  0  0  0  0  0  0  0  0  0  0  0
   -1.0395   -1.1727    1.2834 C   0  0  0  0  0  0  0  0  0  0  0  0
   -0.6843   -0.9001    2.6157 C   0  0  0  0  0  0  0  0  0  0  0  0
   -1.6706   -0.7030    3.5846 C   0  0  0  0  0  0  0  0  0  0  0  0
   -3.0195   -0.8083    3.2435 C   0  0  0  0  0  0  0  0  0  0  0  0
   -3.3939   -1.1104    1.9243 C   0  0  0  0  0  0  0  0  0  0  0  0
   -2.3992   -1.2888    0.9472 C   0  0  0  0  0  0  0  0  0  0  0  0
   -4.8401   -1.3817    1.5867 C   0  0  0  0  0  0  0  0  0  0  0  0
   -5.3206   -0.5298    0.4658 N   0  0  0  0  0  0  0  0  0  0  0  0
   -6.6439   -0.9932   -0.0748 C   0  0  0  0  0  0  0  0  0  0  0  0
   -7.0242   -0.1898   -1.3443 C   0  0  0  0  0  0  0  0  0  0  0  0
   -8.2801   -0.7550   -2.0148 C   0  0  0  0  0  0  0  0  0  0  0  0
   -8.0868   -2.1070   -2.3753 O   0  0  0  0  0  0  0  0  0  0  0  0
   -7.9360   -2.8851   -1.2067 C   0  0  0  0  0  0  0  0  0  0  0  0
   -6.6591   -2.5030   -0.4449 C   0  0  0  0  0  0  0  0  0  0  0  0
   -5.3908    0.8939    0.9144 C   0  0  0  0  0  0  0  0  0  0  0  0
   -4.6739    1.8224   -0.0716 C   0  0  0  0  0  0  0  0  0  0  0  0
   -3.2762    1.7039    0.0799 O   0  0  0  0  0  0  0  0  0  0  0  0
   -2.6306    2.4903   -0.9030 C   0  0  0  0  0  0  0  0  0  0  0  0
   -1.1489    2.5995   -0.5739 C   0  0  0  0  0  0  0  0  0  0  0  0
   -0.5932    1.2940   -0.4495 O   0  0  0  0  0  0  0  0  0  0  0  0
    7.0344   -0.6296    0.8116 C   0  0  0  0  0  0  0  0  0  0  0  0
    7.7227   -1.0441   -0.5062 C   0  0  0  0  0  0  0  0  0  0  0  0
   10.3964    1.7347   -1.3587 H   0  0  0  0  0  0  0  0  0  0  0  0
   10.5855    0.1256   -0.5430 H   0  0  0  0  0  0  0  0  0  0  0  0
   11.4821    0.4797   -2.0772 H   0  0  0  0  0  0  0  0  0  0  0  0
    8.1653    1.6563   -0.3031 H   0  0  0  0  0  0  0  0  0  0  0  0
    7.3971    2.0857   -1.8807 H   0  0  0  0  0  0  0  0  0  0  0  0
    5.2406    1.2683   -1.1887 H   0  0  0  0  0  0  0  0  0  0  0  0
    5.8853    2.3172    0.1416 H   0  0  0  0  0  0  0  0  0  0  0  0
    3.6797    2.5443    0.6832 H   0  0  0  0  0  0  0  0  0  0  0  0
    1.4421    3.0705   -0.1231 H   0  0  0  0  0  0  0  0  0  0  0  0
    2.6390   -1.6230    0.9466 H   0  0  0  0  0  0  0  0  0  0  0  0
   -0.4236   -1.4269   -0.7814 H   0  0  0  0  0  0  0  0  0  0  0  0
    0.4841   -2.3969    0.4120 H   0  0  0  0  0  0  0  0  0  0  0  0
    0.3572   -0.8387    2.9046 H   0  0  0  0  0  0  0  0  0  0  0  0
   -1.3876   -0.4849    4.6053 H   0  0  0  0  0  0  0  0  0  0  0  0
   -3.7694   -0.6805    4.0150 H   0  0  0  0  0  0  0  0  0  0  0  0
   -2.6875   -1.5407   -0.0671 H   0  0  0  0  0  0  0  0  0  0  0  0
   -4.8436   -2.4529    1.3171 H   0  0  0  0  0  0  0  0  0  0  0  0
   -5.5008   -1.2608    2.4767 H   0  0  0  0  0  0  0  0  0  0  0  0
   -7.4363   -0.8332    0.6928 H   0  0  0  0  0  0  0  0  0  0  0  0
   -7.2309    0.8712   -1.0945 H   0  0  0  0  0  0  0  0  0  0  0  0
   -6.1865   -0.2277   -2.0749 H   0  0  0  0  0  0  0  0  0  0  0  0
   -8.4792   -0.1727   -2.9395 H   0  0  0  0  0  0  0  0  0  0  0  0
   -9.1697   -0.6310   -1.3553 H   0  0  0  0  0  0  0  0  0  0  0  0
   -7.8616   -3.9520   -1.5048 H   0  0  0  0  0  0  0  0  0  0  0  0
   -8.8285   -2.7973   -0.5443 H   0  0  0  0  0  0  0  0  0  0  0  0
   -6.6589   -3.1318    0.4704 H   0  0  0  0  0  0  0  0  0  0  0  0
   -5.7684   -2.7526   -1.0632 H   0  0  0  0  0  0  0  0  0  0  0  0
   -6.4416    1.2388    1.0399 H   0  0  0  0  0  0  0  0  0  0  0  0
   -4.9317    1.0555    1.9164 H   0  0  0  0  0  0  0  0  0  0  0  0
   -4.9904    2.8662    0.1556 H   0  0  0  0  0  0  0  0  0  0  0  0
   -4.9810    1.5788   -1.1111 H   0  0  0  0  0  0  0  0  0  0  0  0
   -2.7387    2.0140   -1.9032 H   0  0  0  0  0  0  0  0  0  0  0  0
   -3.0461    3.5254   -0.9432 H   0  0  0  0  0  0  0  0  0  0  0  0
   -0.6305    3.1558   -1.3846 H   0  0  0  0  0  0  0  0  0  0  0  0
   -1.0301    3.1479    0.3876 H   0  0  0  0  0  0  0  0  0  0  0  0
    6.7327   -1.5508    1.3580 H   0  0  0  0  0  0  0  0  0  0  0  0
    7.7553   -0.0780    1.4540 H   0  0  0  0  0  0  0  0  0  0  0  0
    8.7624   -1.3563   -0.2621 H   0  0  0  0  0  0  0  0  0  0  0  0
    7.2041   -1.9430   -0.9055 H   0  0  0  0  0  0  0  0  0  0  0  0
  1  2  1  0
  2  3  2  0
  2  4  2  0
  2  5  1  0
  5  6  1  0
  6  7  1  0
  7  8  1  0
  8  9  1  0
  9 10  2  0
  9 11  1  0
 11 12  2  0
 12 13  1  0
 13 14  2  0
 14 15  1  0
 15 16  2  0
 15 17  1  0
 17 18  1  0
 18 19  2  0
 19 20  1  0
 20 21  2  0
 21 22  1  0
 22 23  2  0
 22 24  1  0
 24 25  1  0
 25 26  1  0
 26 27  1  0
 27 28  1  0
 28 29  1  0
 29 30  1  0
 30 31  1  0
 25 32  1  0
 32 33  1  0
 33 34  1  0
 34 35  1  0
 35 36  1  0
 36 37  1  0
  8 38  1  0
 38 39  1  0
 39  5  1  0
 16 11  1  0
 23 18  1  0
 31 26  1  0
 37 14  1  0
  1 40  1  0
  1 41  1  0
  1 42  1  0
  6 43  1  0
  6 44  1  0
  7 45  1  0
  7 46  1  0
 12 47  1  0
 13 48  1  0
 16 49  1  0
 17 50  1  0
 17 51  1  0
 19 52  1  0
 20 53  1  0
 21 54  1  0
 23 55  1  0
 24 56  1  0
 24 57  1  0
 26 58  1  0
 27 59  1  0
 27 60  1  0
 28 61  1  0
 28 62  1  0
 30 63  1  0
 30 64  1  0
 31 65  1  0
 31 66  1  0
 32 67  1  0
 32 68  1  0
 33 69  1  0
 33 70  1  0
 35 71  1  0
 35 72  1  0
 36 73  1  0
 36 74  1  0
 38 75  1  0
 38 76  1  0
 39 77  1  0
 39 78  1  0
M  END
$$$$
