
     RDKit          3D

 70 72  0  0  0  0  0  0  0  0999 V2000
   -3.2012   -2.5716    0.9863 O   0  0  0  0  0  0  0  0  0  0  0  0
   -3.0308   -1.4302    1.4921 C   0  0  0  0  0  0  0  0  0  0  0  0
   -1.6892   -0.7528    1.3665 C   0  0  0  0  0  0  0  0  0  0  0  0
   -0.9456   -1.1128    0.0660 C   0  0  0  0  0  0  0  0  0  0  0  0
    0.4569   -0.5426    0.0636 C   0  0  0  0  0  0  0  0  0  0  0  0
    0.7550    0.4431   -0.6633 O   0  0  0  0  0  0  0  0  0  0  0  0
    1.4522   -1.1144    0.9267 N   0  0  0  0  0  0  0  0  0  0  0  0
    2.8281   -0.6240    0.9673 C   0  0  0  0  0  0  0  0  0  0  0  0
    3.6077   -1.1283   -0.2506 C   0  0  0  0  0  0  0  0  0  0  0  0
    5.0254   -0.5448   -0.2859 C   0  0  0  0  0  0  0  0  0  0  0  0
    5.8353   -1.1469   -1.4599 C   0  0  0  0  0  0  0  0  0  0  0  0
    7.0485   -0.3856   -1.8326 N   0  0  0  0  0  0  0  0  0  0  0  0
    6.7824    0.9733   -2.3270 C   0  0  0  0  0  0  0  0  0  0  0  0
    7.4647    1.9453   -1.3810 C   0  0  0  0  0  0  0  0  0  0  0  0
    8.5700    1.1384   -0.7416 C   0  0  0  0  0  0  0  0  0  0  0  0
    8.0704   -0.2973   -0.7777 C   0  0  0  0  0  0  0  0  0  0  0  0
   -1.7162   -0.7643   -1.1441 N   0  0  0  0  0  0  0  0  0  0  0  0
   -1.8189    0.5442   -1.7349 C   0  0  0  0  0  0  0  0  0  0  0  0
   -1.6551    0.6633   -2.9780 O   0  0  0  0  0  0  0  0  0  0  0  0
   -2.1315    1.7520   -0.9477 C   0  0  0  0  0  0  0  0  0  0  0  0
   -1.2696    2.8586   -1.0290 C   0  0  0  0  0  0  0  0  0  0  0  0
   -1.5237    4.0103   -0.2802 C   0  0  0  0  0  0  0  0  0  0  0  0
   -2.6473    4.0737    0.5458 C   0  0  0  0  0  0  0  0  0  0  0  0
   -3.5307    2.9936    0.6074 C   0  0  0  0  0  0  0  0  0  0  0  0
   -3.2973    1.8435   -0.1558 C   0  0  0  0  0  0  0  0  0  0  0  0
   -4.2168    0.7978   -0.0790 O   0  0  0  0  0  0  0  0  0  0  0  0
   -5.0327    0.3919   -1.1709 C   0  0  0  0  0  0  0  0  0  0  0  0
   -5.7558   -0.9042   -0.8133 C   0  0  0  0  0  0  0  0  0  0  0  0
   -6.7356   -0.6839    0.2509 N   0  0  0  0  0  0  0  0  0  0  0  0
   -6.3903   -0.3766    1.6111 C   0  0  0  0  0  0  0  0  0  0  0  0
   -6.9115    0.6377    2.1492 O   0  0  0  0  0  0  0  0  0  0  0  0
   -5.4624   -1.2388    2.4421 C   0  0  0  0  0  0  0  0  0  0  0  0
   -5.7000   -2.7488    2.2595 C   0  0  0  0  0  0  0  0  0  0  0  0
   -6.9643   -3.0901    2.7570 O   0  0  0  0  0  0  0  0  0  0  0  0
   -4.0612   -0.8104    2.2859 N   0  0  0  0  0  0  0  0  0  0  0  0
   -1.7986    0.3455    1.4498 H   0  0  0  0  0  0  0  0  0  0  0  0
   -1.0788   -1.0771    2.2361 H   0  0  0  0  0  0  0  0  0  0  0  0
   -0.8145   -2.2186    0.0668 H   0  0  0  0  0  0  0  0  0  0  0  0
    1.1806   -1.8853    1.5774 H   0  0  0  0  0  0  0  0  0  0  0  0
    3.3184   -0.9956    1.8932 H   0  0  0  0  0  0  0  0  0  0  0  0
    2.8300    0.4871    1.0020 H   0  0  0  0  0  0  0  0  0  0  0  0
    3.0719   -0.8370   -1.1801 H   0  0  0  0  0  0  0  0  0  0  0  0
    3.6605   -2.2383   -0.2097 H   0  0  0  0  0  0  0  0  0  0  0  0
    4.9516    0.5584   -0.3724 H   0  0  0  0  0  0  0  0  0  0  0  0
    5.5257   -0.7802    0.6766 H   0  0  0  0  0  0  0  0  0  0  0  0
    5.1884   -1.2269   -2.3602 H   0  0  0  0  0  0  0  0  0  0  0  0
    6.1285   -2.1854   -1.1954 H   0  0  0  0  0  0  0  0  0  0  0  0
    7.2370    1.0699   -3.3362 H   0  0  0  0  0  0  0  0  0  0  0  0
    5.6987    1.2051   -2.4287 H   0  0  0  0  0  0  0  0  0  0  0  0
    7.8655    2.8303   -1.9210 H   0  0  0  0  0  0  0  0  0  0  0  0
    6.7457    2.2809   -0.6008 H   0  0  0  0  0  0  0  0  0  0  0  0
    9.4983    1.2292   -1.3492 H   0  0  0  0  0  0  0  0  0  0  0  0
    8.7740    1.4790    0.2976 H   0  0  0  0  0  0  0  0  0  0  0  0
    7.6823   -0.5768    0.2231 H   0  0  0  0  0  0  0  0  0  0  0  0
    8.9088   -0.9857   -1.0197 H   0  0  0  0  0  0  0  0  0  0  0  0
   -1.9704   -1.5619   -1.7679 H   0  0  0  0  0  0  0  0  0  0  0  0
   -0.3876    2.8215   -1.6566 H   0  0  0  0  0  0  0  0  0  0  0  0
   -0.8450    4.8529   -0.3374 H   0  0  0  0  0  0  0  0  0  0  0  0
   -2.8391    4.9637    1.1314 H   0  0  0  0  0  0  0  0  0  0  0  0
   -4.4081    3.0538    1.2391 H   0  0  0  0  0  0  0  0  0  0  0  0
   -5.7723    1.1891   -1.3990 H   0  0  0  0  0  0  0  0  0  0  0  0
   -4.4173    0.2163   -2.0762 H   0  0  0  0  0  0  0  0  0  0  0  0
   -5.0249   -1.6819   -0.5259 H   0  0  0  0  0  0  0  0  0  0  0  0
   -6.2859   -1.2747   -1.7178 H   0  0  0  0  0  0  0  0  0  0  0  0
   -7.7084   -0.4561   -0.0537 H   0  0  0  0  0  0  0  0  0  0  0  0
   -5.7220   -1.0403    3.5067 H   0  0  0  0  0  0  0  0  0  0  0  0
   -4.9236   -3.3061    2.8292 H   0  0  0  0  0  0  0  0  0  0  0  0
   -5.6419   -3.0414    1.1912 H   0  0  0  0  0  0  0  0  0  0  0  0
   -7.0405   -4.0756    2.6657 H   0  0  0  0  0  0  0  0  0  0  0  0
   -3.7960    0.0642    2.7969 H   0  0  0  0  0  0  0  0  0  0  0  0
  1  2  2  0
  2  3  1  0
  3  4  1  0
  4  5  1  0
  5  6  2  0
  5  7  1  0
  7  8  1  0
  8  9  1  0
  9 10  1  0
 10 11  1  0
 11 12  1  0
 12 13  1  0
 13 14  1  0
 14 15  1  0
 15 16  1  0
  4 17  1  0
 17 18  1  0
 18 19  2  0
 18 20  1  0
 20 21  2  0
 21 22  1  0
 22 23  2  0
 23 24  1  0
 24 25  2  0
 25 26  1  0
 26 27  1  0
 27 28  1  0
 28 29  1  0
 29 30  1  0
 30 31  2  0
 30 32  1  0
 32 33  1  0
 33 34  1  0
 32 35  1  0
 35  2  1  0
 16 12  1  0
 25 20  1  0
  3 36  1  0
  3 37  1  0
  4 38  1  0
  7 39  1  0
  8 40  1  0
  8 41  1  0
  9 42  1  0
  9 43  1  0
 10 44  1  0
 10 45  1  0
 11 46  1  0
 11 47  1  0
 13 48  1  0
 13 49  1  0
 14 50  1  0
 14 51  1  0
 15 52  1  0
 15 53  1  0
 16 54  1  0
 16 55  1  0
 17 56  1  0
 21 57  1  0
 22 58  1  0
 23 59  1  0
 24 60  1  0
 27 61  1  0
 27 62  1  0
 28 63  1  0
 28 64  1  0
 29 65  1  0
 32 66  1  0
 33 67  1  0
 33 68  1  0
 34 69  1  0
 35 70  1  0
M  END
$$$$
