
     RDKit          3D

 62 65  0  0  0  0  0  0  0  0999 V2000
    9.5804    0.8559    1.5151 C   0  0  0  0  0  0  0  0  0  0  0  0
    8.3992    1.0340    0.6221 C   0  0  0  0  0  0  0  0  0  0  0  0
    8.2143    0.3489   -0.5227 N   0  0  0  0  0  0  0  0  0  0  0  0
    7.0278    0.8451   -0.9337 C   0  0  0  0  0  0  0  0  0  0  0  0
    6.3653    0.4466   -2.2148 C   0  0  0  0  0  0  0  0  0  0  0  0
    4.9420    0.1950   -1.9975 N   0  0  0  0  0  0  0  0  0  0  0  0
    4.4690   -0.9410   -1.2547 C   0  0  0  0  0  0  0  0  0  0  0  0
    5.2819   -1.8444   -0.9151 O   0  0  0  0  0  0  0  0  0  0  0  0
    3.0367   -1.0789   -0.8964 C   0  0  0  0  0  0  0  0  0  0  0  0
    2.4946   -2.3501   -0.6509 C   0  0  0  0  0  0  0  0  0  0  0  0
    1.1492   -2.4922   -0.3122 C   0  0  0  0  0  0  0  0  0  0  0  0
    0.3213   -1.3713   -0.2033 C   0  0  0  0  0  0  0  0  0  0  0  0
    0.8467   -0.0796   -0.4398 C   0  0  0  0  0  0  0  0  0  0  0  0
    2.2083    0.0508   -0.7712 C   0  0  0  0  0  0  0  0  0  0  0  0
    0.0096    1.1746   -0.2749 C   0  0  0  0  0  0  0  0  0  0  0  0
   -1.2794    1.1409   -1.0603 C   0  0  0  0  0  0  0  0  0  0  0  0
   -1.2646    0.9229   -2.4472 C   0  0  0  0  0  0  0  0  0  0  0  0
   -2.4600    0.9125   -3.1713 C   0  0  0  0  0  0  0  0  0  0  0  0
   -3.6784    1.1308   -2.5219 C   0  0  0  0  0  0  0  0  0  0  0  0
   -3.7080    1.3807   -1.1418 C   0  0  0  0  0  0  0  0  0  0  0  0
   -2.5050    1.3863   -0.4175 C   0  0  0  0  0  0  0  0  0  0  0  0
   -5.0172    1.5503   -0.4200 C   0  0  0  0  0  0  0  0  0  0  0  0
   -5.3889    0.2580    0.2004 N   0  0  0  0  0  0  0  0  0  0  0  0
   -6.4275   -0.4340   -0.5823 C   0  0  0  0  0  0  0  0  0  0  0  0
   -5.7609    0.3629    1.6291 C   0  0  0  0  0  0  0  0  0  0  0  0
   -5.2858   -0.8758    2.4141 C   0  0  0  0  0  0  0  0  0  0  0  0
   -3.7525   -0.9455    2.5679 C   0  0  0  0  0  0  0  0  0  0  0  0
   -3.0649   -1.6143    1.3661 C   0  0  0  0  0  0  0  0  0  0  0  0
   -1.5426   -1.4593    1.4156 C   0  0  0  0  0  0  0  0  0  0  0  0
   -1.0276   -1.5663    0.0932 O   0  0  0  0  0  0  0  0  0  0  0  0
    6.5355    1.7805   -0.0966 N   0  0  0  0  0  0  0  0  0  0  0  0
    7.4113    1.8630    0.8581 O   0  0  0  0  0  0  0  0  0  0  0  0
    9.5703    1.6230    2.3179 H   0  0  0  0  0  0  0  0  0  0  0  0
    9.5481   -0.1544    1.9752 H   0  0  0  0  0  0  0  0  0  0  0  0
   10.5146    0.9616    0.9247 H   0  0  0  0  0  0  0  0  0  0  0  0
    6.8486   -0.4623   -2.6344 H   0  0  0  0  0  0  0  0  0  0  0  0
    6.4894    1.2715   -2.9485 H   0  0  0  0  0  0  0  0  0  0  0  0
    4.2585    0.8354   -2.4597 H   0  0  0  0  0  0  0  0  0  0  0  0
    3.1089   -3.2381   -0.7342 H   0  0  0  0  0  0  0  0  0  0  0  0
    0.7437   -3.4812   -0.1388 H   0  0  0  0  0  0  0  0  0  0  0  0
    2.6250    1.0406   -0.9055 H   0  0  0  0  0  0  0  0  0  0  0  0
   -0.1858    1.3246    0.8077 H   0  0  0  0  0  0  0  0  0  0  0  0
    0.5761    2.0708   -0.6092 H   0  0  0  0  0  0  0  0  0  0  0  0
   -0.3280    0.7548   -2.9652 H   0  0  0  0  0  0  0  0  0  0  0  0
   -2.4425    0.7309   -4.2381 H   0  0  0  0  0  0  0  0  0  0  0  0
   -4.5970    1.1034   -3.0949 H   0  0  0  0  0  0  0  0  0  0  0  0
   -2.5284    1.5645    0.6510 H   0  0  0  0  0  0  0  0  0  0  0  0
   -5.8014    1.9174   -1.1216 H   0  0  0  0  0  0  0  0  0  0  0  0
   -4.8949    2.3658    0.3259 H   0  0  0  0  0  0  0  0  0  0  0  0
   -7.3766    0.1468   -0.5863 H   0  0  0  0  0  0  0  0  0  0  0  0
   -6.6227   -1.4429   -0.1625 H   0  0  0  0  0  0  0  0  0  0  0  0
   -6.0846   -0.5754   -1.6299 H   0  0  0  0  0  0  0  0  0  0  0  0
   -5.3083    1.2547    2.1151 H   0  0  0  0  0  0  0  0  0  0  0  0
   -6.8627    0.4740    1.7466 H   0  0  0  0  0  0  0  0  0  0  0  0
   -5.7273   -0.8129    3.4327 H   0  0  0  0  0  0  0  0  0  0  0  0
   -5.6749   -1.8099    1.9558 H   0  0  0  0  0  0  0  0  0  0  0  0
   -3.3484    0.0778    2.7283 H   0  0  0  0  0  0  0  0  0  0  0  0
   -3.5120   -1.5392    3.4766 H   0  0  0  0  0  0  0  0  0  0  0  0
   -3.3246   -2.6951    1.3395 H   0  0  0  0  0  0  0  0  0  0  0  0
   -3.4264   -1.1692    0.4213 H   0  0  0  0  0  0  0  0  0  0  0  0
   -1.2643   -0.4714    1.8382 H   0  0  0  0  0  0  0  0  0  0  0  0
   -1.1025   -2.2525    2.0579 H   0  0  0  0  0  0  0  0  0  0  0  0
  1  2  1  0
  2  3  2  0
  3  4  1  0
  4  5  1  0
  5  6  1  0
  6  7  1  0
  7  8  2  0
  7  9  1  0
  9 10  2  0
 10 11  1  0
 11 12  2  0
 12 13  1  0
 13 14  2  0
 13 15  1  0
 15 16  1  0
 16 17  2  0
 17 18  1  0
 18 19  2  0
 19 20  1  0
 20 21  2  0
 20 22  1  0
 22 23  1  0
 23 24  1  0
 23 25  1  0
 25 26  1  0
 26 27  1  0
 27 28  1  0
 28 29  1  0
 29 30  1  0
  4 31  2  0
 31 32  1  0
 32  2  1  0
 14  9  1  0
 21 16  1  0
 30 12  1  0
  1 33  1  0
  1 34  1  0
  1 35  1  0
  5 36  1  0
  5 37  1  0
  6 38  1  0
 10 39  1  0
 11 40  1  0
 14 41  1  0
 15 42  1  0
 15 43  1  0
 17 44  1  0
 18 45  1  0
 19 46  1  0
 21 47  1  0
 22 48  1  0
 22 49  1  0
 24 50  1  0
 24 51  1  0
 24 52  1  0
 25 53  1  0
 25 54  1  0
 26 55  1  0
 26 56  1  0
 27 57  1  0
 27 58  1  0
 28 59  1  0
 28 60  1  0
 29 61  1  0
 29 62  1  0
M  END
$$$$
