
     RDKit          3D

 75 78  0  0  0  0  0  0  0  0999 V2000
   -0.0789    3.4000    2.7102 C   0  0  0  0  0  0  0  0  0  0  0  0
   -1.0843    3.8127    1.6756 C   0  0  0  0  0  0  0  0  0  0  0  0
   -1.8700    4.7624    1.9427 O   0  0  0  0  0  0  0  0  0  0  0  0
   -1.1711    3.1382    0.3992 N   0  0  0  0  0  0  0  0  0  0  0  0
   -2.0674    3.6525   -0.6476 C   0  0  0  0  0  0  0  0  0  0  0  0
   -3.5440    3.4578   -0.2439 C   0  0  0  0  0  0  0  0  0  0  0  0
   -4.4111    2.8693   -1.3756 C   0  0  0  0  0  0  0  0  0  0  0  0
   -5.5713    2.0080   -0.8496 C   0  0  0  0  0  0  0  0  0  0  0  0
   -5.1502    0.6918   -0.1545 C   0  0  0  0  0  0  0  0  0  0  0  0
   -4.3275   -0.2641   -1.0441 C   0  0  0  0  0  0  0  0  0  0  0  0
   -2.8061   -0.1947   -0.7914 C   0  0  0  0  0  0  0  0  0  0  0  0
   -2.4436   -0.6808    0.5680 N   0  0  0  0  0  0  0  0  0  0  0  0
   -1.9063   -2.0816    0.5820 C   0  0  0  0  0  0  0  0  0  0  0  0
   -2.8848   -3.0928   -0.0641 C   0  0  0  0  0  0  0  0  0  0  0  0
   -2.3378   -4.5404    0.0053 C   0  0  0  0  0  0  0  0  0  0  0  0
   -1.2537   -4.6897    0.9055 O   0  0  0  0  0  0  0  0  0  0  0  0
   -1.5830   -4.1057    2.1480 C   0  0  0  0  0  0  0  0  0  0  0  0
   -1.6140   -2.5712    2.0316 C   0  0  0  0  0  0  0  0  0  0  0  0
   -1.6023    0.3153    1.3048 C   0  0  0  0  0  0  0  0  0  0  0  0
   -0.3497    0.7829    0.5624 C   0  0  0  0  0  0  0  0  0  0  0  0
    0.7436   -0.0911    0.4254 C   0  0  0  0  0  0  0  0  0  0  0  0
    1.9008    0.2877   -0.2741 C   0  0  0  0  0  0  0  0  0  0  0  0
    3.0376   -0.6578   -0.3797 C   0  0  0  0  0  0  0  0  0  0  0  0
    2.8083   -1.8991   -0.3697 O   0  0  0  0  0  0  0  0  0  0  0  0
    4.3936   -0.1847   -0.4367 N   0  0  0  0  0  0  0  0  0  0  0  0
    5.5387   -1.0878   -0.5917 C   0  0  0  0  0  0  0  0  0  0  0  0
    5.9097   -1.2175   -2.0754 C   0  0  0  0  0  0  0  0  0  0  0  0
    7.2222   -2.0022   -2.2214 C   0  0  0  0  0  0  0  0  0  0  0  0
    8.2704   -1.3794   -1.4992 O   0  0  0  0  0  0  0  0  0  0  0  0
    7.9846   -1.4074   -0.1117 C   0  0  0  0  0  0  0  0  0  0  0  0
    6.7429   -0.5654    0.2063 C   0  0  0  0  0  0  0  0  0  0  0  0
    1.9638    1.5653   -0.8448 C   0  0  0  0  0  0  0  0  0  0  0  0
    0.9203    2.4702   -0.6599 C   0  0  0  0  0  0  0  0  0  0  0  0
   -0.2202    2.1084    0.0685 C   0  0  0  0  0  0  0  0  0  0  0  0
   -0.1001    4.0962    3.5741 H   0  0  0  0  0  0  0  0  0  0  0  0
   -0.3115    2.3774    3.0722 H   0  0  0  0  0  0  0  0  0  0  0  0
    0.9418    3.4135    2.2742 H   0  0  0  0  0  0  0  0  0  0  0  0
   -1.8653    4.7337   -0.8069 H   0  0  0  0  0  0  0  0  0  0  0  0
   -1.8395    3.1550   -1.6161 H   0  0  0  0  0  0  0  0  0  0  0  0
   -3.9719    4.4369    0.0621 H   0  0  0  0  0  0  0  0  0  0  0  0
   -3.5978    2.8216    0.6573 H   0  0  0  0  0  0  0  0  0  0  0  0
   -4.8368    3.7128   -1.9611 H   0  0  0  0  0  0  0  0  0  0  0  0
   -3.8188    2.2753   -2.0980 H   0  0  0  0  0  0  0  0  0  0  0  0
   -6.1747    2.6105   -0.1374 H   0  0  0  0  0  0  0  0  0  0  0  0
   -6.2356    1.7575   -1.7055 H   0  0  0  0  0  0  0  0  0  0  0  0
   -4.6339    0.8863    0.8059 H   0  0  0  0  0  0  0  0  0  0  0  0
   -6.0900    0.1683    0.1264 H   0  0  0  0  0  0  0  0  0  0  0  0
   -4.5233   -0.0502   -2.1175 H   0  0  0  0  0  0  0  0  0  0  0  0
   -4.6922   -1.2941   -0.8704 H   0  0  0  0  0  0  0  0  0  0  0  0
   -2.4940    0.8520   -0.9491 H   0  0  0  0  0  0  0  0  0  0  0  0
   -2.2702   -0.7679   -1.5783 H   0  0  0  0  0  0  0  0  0  0  0  0
   -0.9729   -2.1277   -0.0174 H   0  0  0  0  0  0  0  0  0  0  0  0
   -3.0581   -2.8586   -1.1346 H   0  0  0  0  0  0  0  0  0  0  0  0
   -3.8589   -3.0474    0.4704 H   0  0  0  0  0  0  0  0  0  0  0  0
   -1.9783   -4.8353   -1.0054 H   0  0  0  0  0  0  0  0  0  0  0  0
   -3.1559   -5.2475    0.2727 H   0  0  0  0  0  0  0  0  0  0  0  0
   -2.5598   -4.4887    2.5279 H   0  0  0  0  0  0  0  0  0  0  0  0
   -0.8169   -4.4031    2.8951 H   0  0  0  0  0  0  0  0  0  0  0  0
   -2.3891   -2.1815    2.7279 H   0  0  0  0  0  0  0  0  0  0  0  0
   -0.6282   -2.1865    2.3642 H   0  0  0  0  0  0  0  0  0  0  0  0
   -2.2457    1.1807    1.5509 H   0  0  0  0  0  0  0  0  0  0  0  0
   -1.3083   -0.0516    2.3072 H   0  0  0  0  0  0  0  0  0  0  0  0
    0.7256   -1.0561    0.9086 H   0  0  0  0  0  0  0  0  0  0  0  0
    4.5765    0.8446   -0.4174 H   0  0  0  0  0  0  0  0  0  0  0  0
    5.2837   -2.0974   -0.1966 H   0  0  0  0  0  0  0  0  0  0  0  0
    5.0971   -1.7456   -2.6221 H   0  0  0  0  0  0  0  0  0  0  0  0
    6.0356   -0.2071   -2.5234 H   0  0  0  0  0  0  0  0  0  0  0  0
    7.0845   -3.0591   -1.8965 H   0  0  0  0  0  0  0  0  0  0  0  0
    7.5037   -2.0251   -3.2956 H   0  0  0  0  0  0  0  0  0  0  0  0
    8.8517   -0.9798    0.4349 H   0  0  0  0  0  0  0  0  0  0  0  0
    7.8554   -2.4518    0.2532 H   0  0  0  0  0  0  0  0  0  0  0  0
    6.9507    0.4941   -0.0600 H   0  0  0  0  0  0  0  0  0  0  0  0
    6.5238   -0.6164    1.2948 H   0  0  0  0  0  0  0  0  0  0  0  0
    2.8252    1.8774   -1.4197 H   0  0  0  0  0  0  0  0  0  0  0  0
    1.0136    3.4759   -1.0511 H   0  0  0  0  0  0  0  0  0  0  0  0
  1  2  1  0
  2  3  2  0
  2  4  1  0
  4  5  1  0
  5  6  1  0
  6  7  1  0
  7  8  1  0
  8  9  1  0
  9 10  1  0
 10 11  1  0
 11 12  1  0
 12 13  1  0
 13 14  1  0
 14 15  1  0
 15 16  1  0
 16 17  1  0
 17 18  1  0
 12 19  1  0
 19 20  1  0
 20 21  2  0
 21 22  1  0
 22 23  1  0
 23 24  2  0
 23 25  1  0
 25 26  1  0
 26 27  1  0
 27 28  1  0
 28 29  1  0
 29 30  1  0
 30 31  1  0
 22 32  2  0
 32 33  1  0
 33 34  2  0
 34  4  1  0
 18 13  1  0
 34 20  1  0
 31 26  1  0
  1 35  1  0
  1 36  1  0
  1 37  1  0
  5 38  1  0
  5 39  1  0
  6 40  1  0
  6 41  1  0
  7 42  1  0
  7 43  1  0
  8 44  1  0
  8 45  1  0
  9 46  1  0
  9 47  1  0
 10 48  1  0
 10 49  1  0
 11 50  1  0
 11 51  1  0
 13 52  1  0
 14 53  1  0
 14 54  1  0
 15 55  1  0
 15 56  1  0
 17 57  1  0
 17 58  1  0
 18 59  1  0
 18 60  1  0
 19 61  1  0
 19 62  1  0
 21 63  1  0
 25 64  1  0
 26 65  1  0
 27 66  1  0
 27 67  1  0
 28 68  1  0
 28 69  1  0
 30 70  1  0
 30 71  1  0
 31 72  1  0
 31 73  1  0
 32 74  1  0
 33 75  1  0
M  END
$$$$
