
     RDKit          3D

 63 66  0  0  0  0  0  0  0  0999 V2000
   -0.8654    2.7970    1.6320 C   0  0  0  0  0  0  0  0  0  0  0  0
   -0.4219    3.1096    0.3452 C   0  0  0  0  0  0  0  0  0  0  0  0
   -0.9522    2.4381   -0.7590 C   0  0  0  0  0  0  0  0  0  0  0  0
   -1.9286    1.4436   -0.5804 C   0  0  0  0  0  0  0  0  0  0  0  0
   -2.3975    1.1528    0.7146 C   0  0  0  0  0  0  0  0  0  0  0  0
   -1.8478    1.8201    1.8157 C   0  0  0  0  0  0  0  0  0  0  0  0
   -3.3416    0.1455    0.9388 O   0  0  0  0  0  0  0  0  0  0  0  0
   -4.6402    0.1267    0.3490 C   0  0  0  0  0  0  0  0  0  0  0  0
   -5.0301   -1.2903   -0.0965 C   0  0  0  0  0  0  0  0  0  0  0  0
   -4.7836   -2.3715    0.9818 C   0  0  0  0  0  0  0  0  0  0  0  0
   -3.6539   -3.3690    0.6370 C   0  0  0  0  0  0  0  0  0  0  0  0
   -2.2316   -2.8176    0.8706 C   0  0  0  0  0  0  0  0  0  0  0  0
   -1.5949   -2.2573   -0.4120 C   0  0  0  0  0  0  0  0  0  0  0  0
   -0.4519   -1.3947   -0.1029 N   0  0  0  0  0  0  0  0  0  0  0  0
    0.2034   -0.5766   -1.0983 C   0  0  0  0  0  0  0  0  0  0  0  0
    1.2955    0.0770   -0.8230 N   0  0  0  0  0  0  0  0  0  0  0  0
    1.9763    0.0962    0.4676 C   0  0  0  0  0  0  0  0  0  0  0  0
    3.1835    1.0403    0.3893 C   0  0  0  0  0  0  0  0  0  0  0  0
    3.8790    1.1643    1.6957 N   0  0  0  0  0  4  0  0  0  0  0  0
    4.7593    0.0129    1.9689 C   0  0  0  0  0  0  0  0  0  0  0  0
    6.1675    0.3780    1.5086 C   0  0  0  0  0  0  0  0  0  0  0  0
    6.1357    1.8690    1.2301 C   0  0  0  0  0  0  0  0  0  0  0  0
    4.7736    2.3328    1.7160 C   0  0  0  0  0  0  0  0  0  0  0  0
   -0.3596   -0.4198   -2.4571 C   0  0  0  0  0  0  0  0  0  0  0  0
    0.3805   -0.8914   -3.5501 C   0  0  0  0  0  0  0  0  0  0  0  0
   -0.1340   -0.7936   -4.8421 C   0  0  0  0  0  0  0  0  0  0  0  0
   -1.3892   -0.2200   -5.0356 C   0  0  0  0  0  0  0  0  0  0  0  0
   -2.0917    0.2548   -3.9745 N   0  0  0  0  0  0  0  0  0  0  0  0
   -1.6146    0.1964   -2.7017 C   0  0  0  0  0  0  0  0  0  0  0  0
   -2.4145    0.7179   -1.6737 O   0  0  0  0  0  0  0  0  0  0  0  0
   -0.4456    3.3097    2.4876 H   0  0  0  0  0  0  0  0  0  0  0  0
    0.3407    3.8645    0.2042 H   0  0  0  0  0  0  0  0  0  0  0  0
   -0.5913    2.6759   -1.7514 H   0  0  0  0  0  0  0  0  0  0  0  0
   -2.1825    1.5784    2.8164 H   0  0  0  0  0  0  0  0  0  0  0  0
   -5.3714    0.4885    1.1026 H   0  0  0  0  0  0  0  0  0  0  0  0
   -4.6975    0.8110   -0.5244 H   0  0  0  0  0  0  0  0  0  0  0  0
   -6.1163   -1.2712   -0.3355 H   0  0  0  0  0  0  0  0  0  0  0  0
   -4.5282   -1.5420   -1.0520 H   0  0  0  0  0  0  0  0  0  0  0  0
   -4.6074   -1.9187    1.9822 H   0  0  0  0  0  0  0  0  0  0  0  0
   -5.7195   -2.9642    1.0831 H   0  0  0  0  0  0  0  0  0  0  0  0
   -3.7719   -3.7498   -0.4016 H   0  0  0  0  0  0  0  0  0  0  0  0
   -3.7827   -4.2487    1.3053 H   0  0  0  0  0  0  0  0  0  0  0  0
   -2.2478   -2.0479    1.6715 H   0  0  0  0  0  0  0  0  0  0  0  0
   -1.5812   -3.6414    1.2386 H   0  0  0  0  0  0  0  0  0  0  0  0
   -1.2613   -3.0933   -1.0638 H   0  0  0  0  0  0  0  0  0  0  0  0
   -2.3471   -1.6785   -0.9659 H   0  0  0  0  0  0  0  0  0  0  0  0
   -0.0952   -1.3912    0.8784 H   0  0  0  0  0  0  0  0  0  0  0  0
    1.2767    0.4702    1.2469 H   0  0  0  0  0  0  0  0  0  0  0  0
    2.2990   -0.9335    0.7264 H   0  0  0  0  0  0  0  0  0  0  0  0
    2.7915    2.0320    0.0681 H   0  0  0  0  0  0  0  0  0  0  0  0
    3.8846    0.6877   -0.4015 H   0  0  0  0  0  0  0  0  0  0  0  0
    3.1719    1.2669    2.4629 H   0  0  0  0  0  0  0  0  0  0  0  0
    4.4223   -0.9212    1.4704 H   0  0  0  0  0  0  0  0  0  0  0  0
    4.7772   -0.1882    3.0644 H   0  0  0  0  0  0  0  0  0  0  0  0
    6.9115    0.1402    2.3003 H   0  0  0  0  0  0  0  0  0  0  0  0
    6.4307   -0.1804    0.5835 H   0  0  0  0  0  0  0  0  0  0  0  0
    6.2266    2.0534    0.1370 H   0  0  0  0  0  0  0  0  0  0  0  0
    6.9548    2.4010    1.7618 H   0  0  0  0  0  0  0  0  0  0  0  0
    4.8756    2.7028    2.7623 H   0  0  0  0  0  0  0  0  0  0  0  0
    4.3982    3.1831    1.1040 H   0  0  0  0  0  0  0  0  0  0  0  0
    1.3493   -1.3522   -3.3990 H   0  0  0  0  0  0  0  0  0  0  0  0
    0.4319   -1.1673   -5.6855 H   0  0  0  0  0  0  0  0  0  0  0  0
   -1.8047   -0.1471   -6.0317 H   0  0  0  0  0  0  0  0  0  0  0  0
  1  2  2  0
  2  3  1  0
  3  4  2  0
  4  5  1  0
  5  6  2  0
  5  7  1  0
  7  8  1  0
  8  9  1  0
  9 10  1  0
 10 11  1  0
 11 12  1  0
 12 13  1  0
 13 14  1  0
 14 15  1  0
 15 16  2  3
 16 17  1  0
 17 18  1  0
 18 19  1  0
 19 20  1  0
 20 21  1  0
 21 22  1  0
 22 23  1  0
 15 24  1  0
 24 25  2  0
 25 26  1  0
 26 27  2  0
 27 28  1  0
 28 29  2  0
 29 30  1  0
  6  1  1  0
 23 19  1  0
 29 24  1  0
 30  4  1  0
  1 31  1  0
  2 32  1  0
  3 33  1  0
  6 34  1  0
  8 35  1  0
  8 36  1  0
  9 37  1  0
  9 38  1  0
 10 39  1  0
 10 40  1  0
 11 41  1  0
 11 42  1  0
 12 43  1  0
 12 44  1  0
 13 45  1  0
 13 46  1  0
 14 47  1  0
 17 48  1  0
 17 49  1  0
 18 50  1  0
 18 51  1  0
 19 52  1  0
 20 53  1  0
 20 54  1  0
 21 55  1  0
 21 56  1  0
 22 57  1  0
 22 58  1  0
 23 59  1  0
 23 60  1  0
 25 61  1  0
 26 62  1  0
 27 63  1  0
M  CHG  1  19   1
M  END
$$$$
