
     RDKit          3D

 72 75  0  0  0  0  0  0  0  0999 V2000
   -5.5750    3.8740    0.0789 C   0  0  0  0  0  0  0  0  0  0  0  0
   -4.6183    2.8600    0.7326 C   0  0  0  0  0  0  0  0  0  0  0  0
   -4.8249    1.4570    0.3068 N   0  0  0  0  0  0  0  0  0  0  0  0
   -6.1184    0.8951    0.7290 C   0  0  0  0  0  0  0  0  0  0  0  0
   -6.8841    0.4746   -0.5167 C   0  0  0  0  0  0  0  0  0  0  0  0
   -6.0854    0.9951   -1.6927 C   0  0  0  0  0  0  0  0  0  0  0  0
   -4.6825    1.2390   -1.1434 C   0  0  0  0  0  0  0  0  0  0  0  0
   -3.7587    0.0318   -1.3909 C   0  0  0  0  0  0  0  0  0  0  0  0
   -2.3941    0.3198   -0.9483 N   0  0  0  0  0  0  0  0  0  0  0  0
   -1.3149   -0.5989   -1.1702 C   0  0  0  0  0  0  0  0  0  0  0  0
   -1.5218   -1.6714   -1.7984 O   0  0  0  0  0  0  0  0  0  0  0  0
    0.0833   -0.2248   -0.7408 C   0  0  0  0  0  0  0  0  0  0  0  0
    0.9436   -1.3733   -0.3575 N   0  0  0  0  0  0  0  0  0  0  0  0
    0.3934   -2.1929    0.7508 C   0  0  0  0  0  0  0  0  0  0  0  0
    0.5549   -1.4873    2.1187 C   0  0  0  0  0  0  0  0  0  0  0  0
    1.6000   -2.1553    3.0290 C   0  0  0  0  0  0  0  0  0  0  0  0
    3.0337   -2.0308    2.4860 C   0  0  0  0  0  0  0  0  0  0  0  0
    3.6870   -0.6762    2.8250 C   0  0  0  0  0  0  0  0  0  0  0  0
    4.8248   -0.3598    1.8576 C   0  0  0  0  0  0  0  0  0  0  0  0
    4.2869   -0.1184    0.5535 O   0  0  0  0  0  0  0  0  0  0  0  0
    3.8098    1.0974    0.0432 C   0  0  0  0  0  0  0  0  0  0  0  0
    3.8129    2.2756    0.8161 C   0  0  0  0  0  0  0  0  0  0  0  0
    3.3823    3.4826    0.2647 C   0  0  0  0  0  0  0  0  0  0  0  0
    2.9499    3.5326   -1.0638 C   0  0  0  0  0  0  0  0  0  0  0  0
    2.9082    2.3675   -1.8346 C   0  0  0  0  0  0  0  0  0  0  0  0
    3.3181    1.1434   -1.2914 C   0  0  0  0  0  0  0  0  0  0  0  0
    3.1581   -0.0019   -2.0967 O   0  0  0  0  0  0  0  0  0  0  0  0
    3.7050   -1.2551   -1.8177 C   0  0  0  0  0  0  0  0  0  0  0  0
    5.0556   -1.4105   -1.8027 N   0  0  0  0  0  0  0  0  0  0  0  0
    5.6362   -2.5901   -1.4675 C   0  0  0  0  0  0  0  0  0  0  0  0
    4.8439   -3.6870   -1.1272 C   0  0  0  0  0  0  0  0  0  0  0  0
    3.4538   -3.5636   -1.1595 C   0  0  0  0  0  0  0  0  0  0  0  0
    2.8653   -2.3430   -1.5175 C   0  0  0  0  0  0  0  0  0  0  0  0
    1.3695   -2.1856   -1.5227 C   0  0  0  0  0  0  0  0  0  0  0  0
   -6.6365    3.5751    0.2007 H   0  0  0  0  0  0  0  0  0  0  0  0
   -5.4452    4.8695    0.5494 H   0  0  0  0  0  0  0  0  0  0  0  0
   -5.3491    3.9897   -0.9994 H   0  0  0  0  0  0  0  0  0  0  0  0
   -4.7268    2.9251    1.8384 H   0  0  0  0  0  0  0  0  0  0  0  0
   -3.5709    3.1546    0.5029 H   0  0  0  0  0  0  0  0  0  0  0  0
   -6.7245    1.6027    1.3368 H   0  0  0  0  0  0  0  0  0  0  0  0
   -5.9268    0.0040    1.3649 H   0  0  0  0  0  0  0  0  0  0  0  0
   -7.9105    0.9038   -0.5175 H   0  0  0  0  0  0  0  0  0  0  0  0
   -6.9442   -0.6332   -0.5686 H   0  0  0  0  0  0  0  0  0  0  0  0
   -6.1011    0.2793   -2.5458 H   0  0  0  0  0  0  0  0  0  0  0  0
   -6.5221    1.9606   -2.0344 H   0  0  0  0  0  0  0  0  0  0  0  0
   -4.2240    2.1103   -1.6646 H   0  0  0  0  0  0  0  0  0  0  0  0
   -4.1404   -0.8606   -0.8479 H   0  0  0  0  0  0  0  0  0  0  0  0
   -3.7441   -0.1990   -2.4765 H   0  0  0  0  0  0  0  0  0  0  0  0
   -2.1813    1.2404   -0.5033 H   0  0  0  0  0  0  0  0  0  0  0  0
    0.5535    0.3424   -1.5720 H   0  0  0  0  0  0  0  0  0  0  0  0
    0.0324    0.4948    0.1019 H   0  0  0  0  0  0  0  0  0  0  0  0
   -0.6779   -2.4225    0.5839 H   0  0  0  0  0  0  0  0  0  0  0  0
    0.8991   -3.1845    0.7852 H   0  0  0  0  0  0  0  0  0  0  0  0
   -0.4230   -1.5246    2.6445 H   0  0  0  0  0  0  0  0  0  0  0  0
    0.8031   -0.4157    2.0022 H   0  0  0  0  0  0  0  0  0  0  0  0
    1.3471   -3.2308    3.1447 H   0  0  0  0  0  0  0  0  0  0  0  0
    1.5453   -1.7017    4.0416 H   0  0  0  0  0  0  0  0  0  0  0  0
    3.0368   -2.2040    1.3918 H   0  0  0  0  0  0  0  0  0  0  0  0
    3.6555   -2.8428    2.9304 H   0  0  0  0  0  0  0  0  0  0  0  0
    4.0891   -0.7184    3.8604 H   0  0  0  0  0  0  0  0  0  0  0  0
    2.9407    0.1449    2.7807 H   0  0  0  0  0  0  0  0  0  0  0  0
    5.4248    0.5045    2.2113 H   0  0  0  0  0  0  0  0  0  0  0  0
    5.5148   -1.2306    1.7888 H   0  0  0  0  0  0  0  0  0  0  0  0
    4.1391    2.2752    1.8462 H   0  0  0  0  0  0  0  0  0  0  0  0
    3.3834    4.3847    0.8648 H   0  0  0  0  0  0  0  0  0  0  0  0
    2.6271    4.4755   -1.4867 H   0  0  0  0  0  0  0  0  0  0  0  0
    2.5459    2.4126   -2.8560 H   0  0  0  0  0  0  0  0  0  0  0  0
    6.7156   -2.6741   -1.4497 H   0  0  0  0  0  0  0  0  0  0  0  0
    5.3031   -4.6254   -0.8451 H   0  0  0  0  0  0  0  0  0  0  0  0
    2.8391   -4.4182   -0.9034 H   0  0  0  0  0  0  0  0  0  0  0  0
    1.0896   -1.7026   -2.4855 H   0  0  0  0  0  0  0  0  0  0  0  0
    0.8653   -3.1806   -1.5404 H   0  0  0  0  0  0  0  0  0  0  0  0
  1  2  1  0
  2  3  1  0
  3  4  1  0
  4  5  1  0
  5  6  1  0
  6  7  1  0
  7  8  1  0
  8  9  1  0
  9 10  1  0
 10 11  2  0
 10 12  1  0
 12 13  1  0
 13 14  1  0
 14 15  1  0
 15 16  1  0
 16 17  1  0
 17 18  1  0
 18 19  1  0
 19 20  1  0
 20 21  1  0
 21 22  2  0
 22 23  1  0
 23 24  2  0
 24 25  1  0
 25 26  2  0
 26 27  1  0
 27 28  1  0
 28 29  2  0
 29 30  1  0
 30 31  2  0
 31 32  1  0
 32 33  2  0
 33 34  1  0
  7  3  1  0
 34 13  1  0
 26 21  1  0
 33 28  1  0
  1 35  1  0
  1 36  1  0
  1 37  1  0
  2 38  1  0
  2 39  1  0
  4 40  1  0
  4 41  1  0
  5 42  1  0
  5 43  1  0
  6 44  1  0
  6 45  1  0
  7 46  1  0
  8 47  1  0
  8 48  1  0
  9 49  1  0
 12 50  1  0
 12 51  1  0
 14 52  1  0
 14 53  1  0
 15 54  1  0
 15 55  1  0
 16 56  1  0
 16 57  1  0
 17 58  1  0
 17 59  1  0
 18 60  1  0
 18 61  1  0
 19 62  1  0
 19 63  1  0
 22 64  1  0
 23 65  1  0
 24 66  1  0
 25 67  1  0
 30 68  1  0
 31 69  1  0
 32 70  1  0
 34 71  1  0
 34 72  1  0
M  END
$$$$
