
     RDKit          3D

 76 79  0  0  0  0  0  0  0  0999 V2000
    6.9057   -1.0991    2.1345 C   0  0  0  0  0  0  0  0  0  0  0  0
    7.1044   -0.1712    0.9713 C   0  0  0  0  0  0  0  0  0  0  0  0
    8.3405   -0.0831    0.4047 N   0  0  0  0  0  0  0  0  0  0  0  0
    8.6091    0.7746   -0.6150 C   0  0  0  0  0  0  0  0  0  0  0  0
    7.6081    1.6150   -1.1027 C   0  0  0  0  0  0  0  0  0  0  0  0
    6.3319    1.5531   -0.5443 C   0  0  0  0  0  0  0  0  0  0  0  0
    6.0559    0.6366    0.4792 C   0  0  0  0  0  0  0  0  0  0  0  0
    4.7039    0.5938    1.0666 C   0  0  0  0  0  0  0  0  0  0  0  0
    4.3598    1.5420    1.8249 O   0  0  0  0  0  0  0  0  0  0  0  0
    3.8022   -0.5162    0.8347 N   0  0  0  0  0  0  0  0  0  0  0  0
    2.8360   -0.8745    1.8973 C   0  0  0  0  0  0  0  0  0  0  0  0
    1.7214    0.1896    2.0747 C   0  0  0  0  0  0  0  0  0  0  0  0
    0.2832   -0.3438    1.8440 C   0  0  0  0  0  0  0  0  0  0  0  0
   -0.5564    0.6328    0.9880 C   0  0  0  0  0  0  0  0  0  0  0  0
   -1.8793    0.0410    0.4116 C   0  0  0  0  0  0  0  0  0  0  0  0
   -2.6125    1.1449   -0.4000 C   0  0  0  0  0  0  0  0  0  0  0  0
   -3.9959    0.6932   -0.9227 C   0  0  0  0  0  0  0  0  0  0  0  0
   -4.4740   -0.5290   -0.2429 N   0  0  0  0  0  0  0  0  0  0  0  0
   -5.8359   -0.9317   -0.6615 C   0  0  0  0  0  0  0  0  0  0  0  0
   -6.9238    0.0295   -0.2281 C   0  0  0  0  0  0  0  0  0  0  0  0
   -7.5351   -0.1071    1.0306 C   0  0  0  0  0  0  0  0  0  0  0  0
   -8.5347    0.7854    1.4303 C   0  0  0  0  0  0  0  0  0  0  0  0
   -8.9382    1.8137    0.5750 C   0  0  0  0  0  0  0  0  0  0  0  0
   -8.3469    1.9485   -0.6839 C   0  0  0  0  0  0  0  0  0  0  0  0
   -7.3468    1.0590   -1.0870 C   0  0  0  0  0  0  0  0  0  0  0  0
   -4.3113   -0.4402    1.2187 C   0  0  0  0  0  0  0  0  0  0  0  0
   -2.8170   -0.3499    1.6037 C   0  0  0  0  0  0  0  0  0  0  0  0
   -1.5965   -1.1720   -0.4964 C   0  0  0  0  0  0  0  0  0  0  0  0
   -1.8035   -2.3338   -0.0531 O   0  0  0  0  0  0  0  0  0  0  0  0
   -1.1948   -1.0612   -1.8417 O   0  0  0  0  0  0  0  0  0  0  0  0
   -0.0419   -0.3596   -2.3198 C   0  0  0  0  0  0  0  0  0  0  0  0
    1.2798   -1.1122   -2.0114 C   0  0  0  0  0  0  0  0  0  0  0  0
    1.1794   -1.8032   -0.7999 O   0  0  0  0  0  0  0  0  0  0  0  0
    2.4868   -0.1429   -1.9711 C   0  0  0  0  0  0  0  0  0  0  0  0
    2.2756    0.8806   -1.0338 O   0  0  0  0  0  0  0  0  0  0  0  0
    3.8389   -0.8355   -1.6890 C   0  0  0  0  0  0  0  0  0  0  0  0
    4.0401   -1.4573   -0.2843 C   0  0  0  0  0  0  0  0  0  0  0  0
    6.2166   -1.9232    1.8570 H   0  0  0  0  0  0  0  0  0  0  0  0
    6.4825   -0.5426    2.9970 H   0  0  0  0  0  0  0  0  0  0  0  0
    7.8755   -1.5412    2.4479 H   0  0  0  0  0  0  0  0  0  0  0  0
    9.6034    0.8115   -1.0395 H   0  0  0  0  0  0  0  0  0  0  0  0
    7.8198    2.3089   -1.9070 H   0  0  0  0  0  0  0  0  0  0  0  0
    5.5535    2.2052   -0.9212 H   0  0  0  0  0  0  0  0  0  0  0  0
    2.4047   -1.8816    1.7176 H   0  0  0  0  0  0  0  0  0  0  0  0
    3.3919   -0.9736    2.8560 H   0  0  0  0  0  0  0  0  0  0  0  0
    1.9236    1.0642    1.4252 H   0  0  0  0  0  0  0  0  0  0  0  0
    1.7778    0.5883    3.1108 H   0  0  0  0  0  0  0  0  0  0  0  0
   -0.2097   -0.4741    2.8322 H   0  0  0  0  0  0  0  0  0  0  0  0
    0.2908   -1.3458    1.3806 H   0  0  0  0  0  0  0  0  0  0  0  0
   -0.7865    1.5219    1.6164 H   0  0  0  0  0  0  0  0  0  0  0  0
    0.0579    1.0208    0.1607 H   0  0  0  0  0  0  0  0  0  0  0  0
   -2.7633    2.0298    0.2594 H   0  0  0  0  0  0  0  0  0  0  0  0
   -1.9996    1.5031   -1.2521 H   0  0  0  0  0  0  0  0  0  0  0  0
   -4.7111    1.5317   -0.7835 H   0  0  0  0  0  0  0  0  0  0  0  0
   -3.9150    0.4881   -2.0130 H   0  0  0  0  0  0  0  0  0  0  0  0
   -6.0571   -1.9423   -0.2550 H   0  0  0  0  0  0  0  0  0  0  0  0
   -5.8610   -1.0524   -1.7675 H   0  0  0  0  0  0  0  0  0  0  0  0
   -7.2360   -0.9010    1.7030 H   0  0  0  0  0  0  0  0  0  0  0  0
   -8.9953    0.6797    2.4041 H   0  0  0  0  0  0  0  0  0  0  0  0
   -9.7096    2.5052    0.8869 H   0  0  0  0  0  0  0  0  0  0  0  0
   -8.6644    2.7425   -1.3476 H   0  0  0  0  0  0  0  0  0  0  0  0
   -6.8982    1.1753   -2.0657 H   0  0  0  0  0  0  0  0  0  0  0  0
   -4.8443    0.4564    1.6090 H   0  0  0  0  0  0  0  0  0  0  0  0
   -4.7486   -1.3373    1.7093 H   0  0  0  0  0  0  0  0  0  0  0  0
   -2.7322    0.4090    2.4133 H   0  0  0  0  0  0  0  0  0  0  0  0
   -2.4908   -1.3084    2.0640 H   0  0  0  0  0  0  0  0  0  0  0  0
   -0.1345   -0.2678   -3.4232 H   0  0  0  0  0  0  0  0  0  0  0  0
   -0.0344    0.6787   -1.9487 H   0  0  0  0  0  0  0  0  0  0  0  0
    1.4627   -1.8400   -2.8400 H   0  0  0  0  0  0  0  0  0  0  0  0
    0.8072   -2.7026   -1.0024 H   0  0  0  0  0  0  0  0  0  0  0  0
    2.5672    0.2900   -2.9975 H   0  0  0  0  0  0  0  0  0  0  0  0
    2.4039    1.7508   -1.4979 H   0  0  0  0  0  0  0  0  0  0  0  0
    3.9864   -1.6372   -2.4456 H   0  0  0  0  0  0  0  0  0  0  0  0
    4.6454   -0.0978   -1.8712 H   0  0  0  0  0  0  0  0  0  0  0  0
    5.0826   -1.8325   -0.2304 H   0  0  0  0  0  0  0  0  0  0  0  0
    3.4198   -2.3696   -0.1873 H   0  0  0  0  0  0  0  0  0  0  0  0
  1  2  1  0
  2  3  2  0
  3  4  1  0
  4  5  2  0
  5  6  1  0
  6  7  2  0
  7  8  1  0
  8  9  2  0
  8 10  1  0
 10 11  1  0
 11 12  1  0
 12 13  1  0
 13 14  1  0
 14 15  1  0
 15 16  1  0
 16 17  1  0
 17 18  1  0
 18 19  1  0
 19 20  1  0
 20 21  2  0
 21 22  1  0
 22 23  2  0
 23 24  1  0
 24 25  2  0
 18 26  1  0
 26 27  1  0
 15 28  1  0
 28 29  2  0
 28 30  1  0
 30 31  1  0
 31 32  1  0
 32 33  1  0
 32 34  1  0
 34 35  1  0
 34 36  1  0
 36 37  1  0
  7  2  1  0
 37 10  1  0
 27 15  1  0
 25 20  1  0
  1 38  1  0
  1 39  1  0
  1 40  1  0
  4 41  1  0
  5 42  1  0
  6 43  1  0
 11 44  1  0
 11 45  1  0
 12 46  1  0
 12 47  1  0
 13 48  1  0
 13 49  1  0
 14 50  1  0
 14 51  1  0
 16 52  1  0
 16 53  1  0
 17 54  1  0
 17 55  1  0
 19 56  1  0
 19 57  1  0
 21 58  1  0
 22 59  1  0
 23 60  1  0
 24 61  1  0
 25 62  1  0
 26 63  1  0
 26 64  1  0
 27 65  1  0
 27 66  1  0
 31 67  1  0
 31 68  1  0
 32 69  1  0
 33 70  1  0
 34 71  1  0
 35 72  1  0
 36 73  1  0
 36 74  1  0
 37 75  1  0
 37 76  1  0
M  END
$$$$
