
     RDKit          3D

 78 79  0  0  0  0  0  0  0  0999 V2000
   -3.0967   -3.9292   -2.9681 C   0  0  0  0  0  0  0  0  0  0  0  0
   -1.9470   -3.0281   -2.6263 C   0  0  0  0  0  0  0  0  0  0  0  0
   -1.1845   -2.6463   -3.5563 O   0  0  0  0  0  0  0  0  0  0  0  0
   -1.6938   -2.6046   -1.2679 N   0  0  0  0  0  0  0  0  0  0  0  0
   -2.6064   -3.0164   -0.1780 C   0  0  0  0  0  0  0  0  0  0  0  0
   -2.1170   -2.6138    1.2280 C   0  0  0  0  0  0  0  0  0  0  0  0
   -3.1874   -2.7836    2.3191 C   0  0  0  0  0  0  0  0  0  0  0  0
   -4.3510   -1.7695    2.2634 C   0  0  0  0  0  0  0  0  0  0  0  0
   -3.9057   -0.2868    2.2823 C   0  0  0  0  0  0  0  0  0  0  0  0
   -3.8827    0.3531    0.8724 C   0  0  0  0  0  0  0  0  0  0  0  0
   -2.5967    1.1694    0.6054 C   0  0  0  0  0  0  0  0  0  0  0  0
   -2.3621    1.5031   -0.8270 N   0  0  0  0  0  0  0  0  0  0  0  0
   -3.4698    2.2604   -1.4597 C   0  0  0  0  0  0  0  0  0  0  0  0
   -3.6487    3.6734   -0.8574 C   0  0  0  0  0  0  0  0  0  0  0  0
   -2.3492    4.4860   -0.9472 C   0  0  0  0  0  0  0  0  0  0  0  0
   -4.7848    4.4132   -1.5738 C   0  0  0  0  0  0  0  0  0  0  0  0
   -1.9858    0.3310   -1.6589 C   0  0  0  0  0  0  0  0  0  0  0  0
   -0.6973   -0.3185   -1.1957 C   0  0  0  0  0  0  0  0  0  0  0  0
    0.4308    0.4922   -0.9795 C   0  0  0  0  0  0  0  0  0  0  0  0
    1.6562   -0.0630   -0.5730 C   0  0  0  0  0  0  0  0  0  0  0  0
    2.8243    0.8160   -0.3270 C   0  0  0  0  0  0  0  0  0  0  0  0
    2.6375    2.0382   -0.0786 O   0  0  0  0  0  0  0  0  0  0  0  0
    4.1637    0.2971   -0.3801 N   0  0  0  0  0  0  0  0  0  0  0  0
    5.3316    1.0951    0.0060 C   0  0  0  0  0  0  0  0  0  0  0  0
    5.9099    1.7618   -1.2520 C   0  0  0  0  0  0  0  0  0  0  0  0
    6.9183    2.6703   -0.9011 O   0  0  0  0  0  0  0  0  0  0  0  0
    6.3856    0.1997    0.7029 C   0  0  0  0  0  0  0  0  0  0  0  0
    6.0464   -0.1323    2.1771 C   0  0  0  0  0  0  0  0  0  0  0  0
    4.8156   -1.0422    2.3076 C   0  0  0  0  0  0  0  0  0  0  0  0
    7.2534   -0.7979    2.8539 C   0  0  0  0  0  0  0  0  0  0  0  0
    1.7449   -1.4517   -0.3853 C   0  0  0  0  0  0  0  0  0  0  0  0
    0.6400   -2.2697   -0.6210 C   0  0  0  0  0  0  0  0  0  0  0  0
   -0.5809   -1.7198   -1.0297 C   0  0  0  0  0  0  0  0  0  0  0  0
   -3.1605   -4.0777   -4.0665 H   0  0  0  0  0  0  0  0  0  0  0  0
   -2.9552   -4.9180   -2.4838 H   0  0  0  0  0  0  0  0  0  0  0  0
   -4.0480   -3.4770   -2.6208 H   0  0  0  0  0  0  0  0  0  0  0  0
   -3.6064   -2.5839   -0.3751 H   0  0  0  0  0  0  0  0  0  0  0  0
   -2.7162   -4.1222   -0.1908 H   0  0  0  0  0  0  0  0  0  0  0  0
   -1.2461   -3.2526    1.4891 H   0  0  0  0  0  0  0  0  0  0  0  0
   -1.7590   -1.5732    1.2440 H   0  0  0  0  0  0  0  0  0  0  0  0
   -3.6035   -3.8128    2.2669 H   0  0  0  0  0  0  0  0  0  0  0  0
   -2.6898   -2.6850    3.3094 H   0  0  0  0  0  0  0  0  0  0  0  0
   -4.9776   -1.9510    3.1642 H   0  0  0  0  0  0  0  0  0  0  0  0
   -5.0127   -1.9840    1.3972 H   0  0  0  0  0  0  0  0  0  0  0  0
   -4.6287    0.2860    2.9038 H   0  0  0  0  0  0  0  0  0  0  0  0
   -2.9274   -0.1899    2.8028 H   0  0  0  0  0  0  0  0  0  0  0  0
   -4.7631    1.0251    0.7811 H   0  0  0  0  0  0  0  0  0  0  0  0
   -4.0051   -0.4192    0.0969 H   0  0  0  0  0  0  0  0  0  0  0  0
   -1.7113    0.6374    1.0025 H   0  0  0  0  0  0  0  0  0  0  0  0
   -2.6318    2.0998    1.2077 H   0  0  0  0  0  0  0  0  0  0  0  0
   -3.2569    2.3927   -2.5448 H   0  0  0  0  0  0  0  0  0  0  0  0
   -4.4227    1.6909   -1.4005 H   0  0  0  0  0  0  0  0  0  0  0  0
   -3.9447    3.5915    0.2100 H   0  0  0  0  0  0  0  0  0  0  0  0
   -2.4981    5.4949   -0.5059 H   0  0  0  0  0  0  0  0  0  0  0  0
   -2.0332    4.6021   -2.0068 H   0  0  0  0  0  0  0  0  0  0  0  0
   -1.5338    3.9841   -0.3828 H   0  0  0  0  0  0  0  0  0  0  0  0
   -4.5530    4.5467   -2.6525 H   0  0  0  0  0  0  0  0  0  0  0  0
   -5.7324    3.8414   -1.4793 H   0  0  0  0  0  0  0  0  0  0  0  0
   -4.9407    5.4124   -1.1139 H   0  0  0  0  0  0  0  0  0  0  0  0
   -2.8213   -0.3926   -1.7219 H   0  0  0  0  0  0  0  0  0  0  0  0
   -1.7992    0.6615   -2.7042 H   0  0  0  0  0  0  0  0  0  0  0  0
    0.3499    1.5620   -1.1347 H   0  0  0  0  0  0  0  0  0  0  0  0
    4.3326   -0.6051   -0.8785 H   0  0  0  0  0  0  0  0  0  0  0  0
    5.0279    1.8991    0.7141 H   0  0  0  0  0  0  0  0  0  0  0  0
    5.0977    2.3066   -1.7828 H   0  0  0  0  0  0  0  0  0  0  0  0
    6.3199    0.9856   -1.9376 H   0  0  0  0  0  0  0  0  0  0  0  0
    7.2387    3.0685   -1.7511 H   0  0  0  0  0  0  0  0  0  0  0  0
    7.3600    0.7358    0.6961 H   0  0  0  0  0  0  0  0  0  0  0  0
    6.5347   -0.7376    0.1236 H   0  0  0  0  0  0  0  0  0  0  0  0
    5.8391    0.8146    2.7232 H   0  0  0  0  0  0  0  0  0  0  0  0
    3.8917   -0.4881    2.0451 H   0  0  0  0  0  0  0  0  0  0  0  0
    4.9137   -1.9341    1.6527 H   0  0  0  0  0  0  0  0  0  0  0  0
    4.6961   -1.3853    3.3579 H   0  0  0  0  0  0  0  0  0  0  0  0
    8.1476   -0.1407    2.7864 H   0  0  0  0  0  0  0  0  0  0  0  0
    7.0406   -0.9705    3.9315 H   0  0  0  0  0  0  0  0  0  0  0  0
    7.4861   -1.7736    2.3721 H   0  0  0  0  0  0  0  0  0  0  0  0
    2.6615   -1.9115   -0.0409 H   0  0  0  0  0  0  0  0  0  0  0  0
    0.7299   -3.3393   -0.4774 H   0  0  0  0  0  0  0  0  0  0  0  0
  1  2  1  0
  2  3  2  0
  2  4  1  0
  4  5  1  0
  5  6  1  0
  6  7  1  0
  7  8  1  0
  8  9  1  0
  9 10  1  0
 10 11  1  0
 11 12  1  0
 12 13  1  0
 13 14  1  0
 14 15  1  0
 14 16  1  0
 12 17  1  0
 17 18  1  0
 18 19  2  0
 19 20  1  0
 20 21  1  0
 21 22  2  0
 21 23  1  0
 23 24  1  0
 24 25  1  0
 25 26  1  0
 24 27  1  0
 27 28  1  0
 28 29  1  0
 28 30  1  0
 20 31  2  0
 31 32  1  0
 32 33  2  0
 33  4  1  0
 33 18  1  0
  1 34  1  0
  1 35  1  0
  1 36  1  0
  5 37  1  0
  5 38  1  0
  6 39  1  0
  6 40  1  0
  7 41  1  0
  7 42  1  0
  8 43  1  0
  8 44  1  0
  9 45  1  0
  9 46  1  0
 10 47  1  0
 10 48  1  0
 11 49  1  0
 11 50  1  0
 13 51  1  0
 13 52  1  0
 14 53  1  0
 15 54  1  0
 15 55  1  0
 15 56  1  0
 16 57  1  0
 16 58  1  0
 16 59  1  0
 17 60  1  0
 17 61  1  0
 19 62  1  0
 23 63  1  0
 24 64  1  0
 25 65  1  0
 25 66  1  0
 26 67  1  0
 27 68  1  0
 27 69  1  0
 28 70  1  0
 29 71  1  0
 29 72  1  0
 29 73  1  0
 30 74  1  0
 30 75  1  0
 30 76  1  0
 31 77  1  0
 32 78  1  0
M  END
$$$$
