
     RDKit          3D

 64 67  0  0  0  0  0  0  0  0999 V2000
   -2.4520    0.3982   -2.9853 C   0  0  0  0  0  0  0  0  0  0  0  0
   -2.6320   -0.1777   -1.6523 N   0  0  0  0  0  0  0  0  0  0  0  0
   -3.7294   -1.1179   -1.3965 C   0  0  0  0  0  0  0  0  0  0  0  0
   -5.0247   -0.3665   -1.2561 C   0  0  0  0  0  0  0  0  0  0  0  0
   -5.2863    0.3653   -0.0867 C   0  0  0  0  0  0  0  0  0  0  0  0
   -6.4710    1.0964    0.0353 C   0  0  0  0  0  0  0  0  0  0  0  0
   -7.4004    1.1027   -1.0077 C   0  0  0  0  0  0  0  0  0  0  0  0
   -7.1444    0.3819   -2.1782 C   0  0  0  0  0  0  0  0  0  0  0  0
   -5.9591   -0.3485   -2.3052 C   0  0  0  0  0  0  0  0  0  0  0  0
   -1.7748    0.2424   -0.5774 C   0  0  0  0  0  0  0  0  0  0  0  0
   -1.6208    1.6001   -0.2748 C   0  0  0  0  0  0  0  0  0  0  0  0
   -0.7812    1.9983    0.7660 C   0  0  0  0  0  0  0  0  0  0  0  0
   -0.0445    1.0547    1.4931 C   0  0  0  0  0  0  0  0  0  0  0  0
   -0.1410   -0.3153    1.1530 C   0  0  0  0  0  0  0  0  0  0  0  0
   -1.0492   -0.7085    0.1522 C   0  0  0  0  0  0  0  0  0  0  0  0
    0.6911   -1.3747    1.8505 C   0  0  0  0  0  0  0  0  0  0  0  0
    1.2176   -2.3942    0.9031 N   0  0  0  0  0  0  0  0  0  0  0  0
    1.9603   -3.4745    1.5892 C   0  0  0  0  0  0  0  0  0  0  0  0
    3.3723   -3.0459    2.0328 C   0  0  0  0  0  0  0  0  0  0  0  0
    4.1673   -2.4417    0.8695 C   0  0  0  0  0  0  0  0  0  0  0  0
    3.3670   -1.3052    0.2176 C   0  0  0  0  0  0  0  0  0  0  0  0
    1.9985   -1.8429   -0.2298 C   0  0  0  0  0  0  0  0  0  0  0  0
    4.0888   -0.6356   -0.9241 C   0  0  0  0  0  0  0  0  0  0  0  0
    5.2391   -1.0160   -1.2805 O   0  0  0  0  0  0  0  0  0  0  0  0
    3.4837    0.4884   -1.5705 N   0  0  0  0  0  0  0  0  0  0  0  0
    4.0550    1.8270   -1.4716 C   0  0  0  0  0  0  0  0  0  0  0  0
    3.8746    2.3955   -0.0630 C   0  0  0  0  0  0  0  0  0  0  0  0
    2.4973    2.4773    0.2591 O   0  0  0  0  0  0  0  0  0  0  0  0
    2.3268    3.0208    1.5575 C   0  0  0  0  0  0  0  0  0  0  0  0
    2.0523    1.9122    2.5841 C   0  0  0  0  0  0  0  0  0  0  0  0
    0.6858    1.4878    2.6072 O   0  0  0  0  0  0  0  0  0  0  0  0
   -1.3891    0.2967   -3.2950 H   0  0  0  0  0  0  0  0  0  0  0  0
   -3.0865   -0.1240   -3.7294 H   0  0  0  0  0  0  0  0  0  0  0  0
   -2.7359    1.4706   -2.9792 H   0  0  0  0  0  0  0  0  0  0  0  0
   -3.5452   -1.6964   -0.4655 H   0  0  0  0  0  0  0  0  0  0  0  0
   -3.7861   -1.8632   -2.2198 H   0  0  0  0  0  0  0  0  0  0  0  0
   -4.5740    0.3657    0.7276 H   0  0  0  0  0  0  0  0  0  0  0  0
   -6.6709    1.6545    0.9408 H   0  0  0  0  0  0  0  0  0  0  0  0
   -8.3214    1.6647   -0.9062 H   0  0  0  0  0  0  0  0  0  0  0  0
   -7.8646    0.3895   -2.9859 H   0  0  0  0  0  0  0  0  0  0  0  0
   -5.7669   -0.8939   -3.2199 H   0  0  0  0  0  0  0  0  0  0  0  0
   -2.1774    2.3490   -0.8208 H   0  0  0  0  0  0  0  0  0  0  0  0
   -0.7283    3.0468    1.0257 H   0  0  0  0  0  0  0  0  0  0  0  0
   -1.1517   -1.7570   -0.1010 H   0  0  0  0  0  0  0  0  0  0  0  0
    0.0257   -1.8729    2.5884 H   0  0  0  0  0  0  0  0  0  0  0  0
    1.5120   -0.9157    2.4310 H   0  0  0  0  0  0  0  0  0  0  0  0
    2.0491   -4.3407    0.8975 H   0  0  0  0  0  0  0  0  0  0  0  0
    1.3920   -3.8356    2.4751 H   0  0  0  0  0  0  0  0  0  0  0  0
    3.3013   -2.3125    2.8644 H   0  0  0  0  0  0  0  0  0  0  0  0
    3.9190   -3.9351    2.4196 H   0  0  0  0  0  0  0  0  0  0  0  0
    4.3843   -3.2370    0.1192 H   0  0  0  0  0  0  0  0  0  0  0  0
    5.1346   -2.0515    1.2578 H   0  0  0  0  0  0  0  0  0  0  0  0
    3.2150   -0.5191    0.9772 H   0  0  0  0  0  0  0  0  0  0  0  0
    1.4239   -1.0507   -0.7492 H   0  0  0  0  0  0  0  0  0  0  0  0
    2.1498   -2.6437   -0.9881 H   0  0  0  0  0  0  0  0  0  0  0  0
    2.5952    0.3568   -2.1067 H   0  0  0  0  0  0  0  0  0  0  0  0
    3.5512    2.4982   -2.2009 H   0  0  0  0  0  0  0  0  0  0  0  0
    5.1366    1.7940   -1.7269 H   0  0  0  0  0  0  0  0  0  0  0  0
    4.3371    3.4089   -0.0555 H   0  0  0  0  0  0  0  0  0  0  0  0
    4.4140    1.7473    0.6642 H   0  0  0  0  0  0  0  0  0  0  0  0
    3.1967    3.6302    1.9038 H   0  0  0  0  0  0  0  0  0  0  0  0
    1.4728    3.7284    1.5425 H   0  0  0  0  0  0  0  0  0  0  0  0
    2.2944    2.3118    3.5939 H   0  0  0  0  0  0  0  0  0  0  0  0
    2.7266    1.0515    2.4247 H   0  0  0  0  0  0  0  0  0  0  0  0
  1  2  1  0
  2  3  1  0
  3  4  1  0
  4  5  2  0
  5  6  1  0
  6  7  2  0
  7  8  1  0
  8  9  2  0
  2 10  1  0
 10 11  2  0
 11 12  1  0
 12 13  2  0
 13 14  1  0
 14 15  2  0
 14 16  1  0
 16 17  1  0
 17 18  1  0
 18 19  1  0
 19 20  1  0
 20 21  1  0
 21 22  1  0
 21 23  1  0
 23 24  2  0
 23 25  1  0
 25 26  1  0
 26 27  1  0
 27 28  1  0
 28 29  1  0
 29 30  1  0
 30 31  1  0
  9  4  1  0
 15 10  1  0
 22 17  1  0
 31 13  1  0
  1 32  1  0
  1 33  1  0
  1 34  1  0
  3 35  1  0
  3 36  1  0
  5 37  1  0
  6 38  1  0
  7 39  1  0
  8 40  1  0
  9 41  1  0
 11 42  1  0
 12 43  1  0
 15 44  1  0
 16 45  1  0
 16 46  1  0
 18 47  1  0
 18 48  1  0
 19 49  1  0
 19 50  1  0
 20 51  1  0
 20 52  1  0
 21 53  1  0
 22 54  1  0
 22 55  1  0
 25 56  1  0
 26 57  1  0
 26 58  1  0
 27 59  1  0
 27 60  1  0
 29 61  1  0
 29 62  1  0
 30 63  1  0
 30 64  1  0
M  END
$$$$
