
     RDKit          3D

 83 84  0  0  0  0  0  0  0  0999 V2000
    8.5515    0.3093    1.4125 C   0  0  0  0  0  0  0  0  0  0  0  0
    7.5634    1.4702    1.3097 C   0  0  0  0  0  0  0  0  0  0  0  0
    6.8449    1.5387    0.0143 N   0  0  0  0  0  0  0  0  0  0  0  0
    7.7119    1.7185   -1.1774 C   0  0  0  0  0  0  0  0  0  0  0  0
    8.0889    0.4129   -1.9030 C   0  0  0  0  0  0  0  0  0  0  0  0
    5.7395    0.5676   -0.1400 C   0  0  0  0  0  0  0  0  0  0  0  0
    4.4712    1.0839    0.5399 C   0  0  0  0  0  0  0  0  0  0  0  0
    3.3805    0.1195    0.3900 N   0  0  0  0  0  0  0  0  0  0  0  0
    2.5761    0.0346   -0.8061 C   0  0  0  0  0  0  0  0  0  0  0  0
    2.9408    0.6552   -1.8512 O   0  0  0  0  0  0  0  0  0  0  0  0
    1.3303   -0.8302   -0.8780 C   0  0  0  0  0  0  0  0  0  0  0  0
    0.6465   -1.0595    0.4946 C   0  0  0  0  0  0  0  0  0  0  0  0
   -0.7102   -1.7777    0.3655 C   0  0  0  0  0  0  0  0  0  0  0  0
   -1.4935   -1.7760    1.6607 C   0  0  0  0  0  0  0  0  0  0  0  0
   -0.8923   -1.6076    2.7616 O   0  0  0  0  0  0  0  0  0  0  0  0
   -2.9198   -1.9559    1.6709 N   0  0  0  0  0  0  0  0  0  0  0  0
   -3.6959   -2.4976    0.5444 C   0  0  0  0  0  0  0  0  0  0  0  0
   -3.9973   -4.0076    0.7586 C   0  0  0  0  0  0  0  0  0  0  0  0
   -4.8420   -4.3324    1.9951 C   0  0  0  0  0  0  0  0  0  0  0  0
   -4.6367   -4.6338   -0.4897 C   0  0  0  0  0  0  0  0  0  0  0  0
   -4.9086   -1.6255    0.3116 C   0  0  0  0  0  0  0  0  0  0  0  0
   -5.9093   -1.6808    1.0802 O   0  0  0  0  0  0  0  0  0  0  0  0
   -4.8796   -0.6498   -0.7370 N   0  0  0  0  0  0  0  0  0  0  0  0
   -4.6444    0.7711   -0.4543 C   0  0  0  0  0  0  0  0  0  0  0  0
   -5.7494    1.6520   -1.1091 C   0  0  0  0  0  0  0  0  0  0  0  0
   -5.8423    1.4873   -2.6349 C   0  0  0  0  0  0  0  0  0  0  0  0
   -7.1197    1.3939   -0.4578 C   0  0  0  0  0  0  0  0  0  0  0  0
   -3.2231    1.1690   -0.9125 C   0  0  0  0  0  0  0  0  0  0  0  0
   -2.3148    1.0754    0.1852 O   0  0  0  0  0  0  0  0  0  0  0  0
   -1.1750    1.8830    0.2930 C   0  0  0  0  0  0  0  0  0  0  0  0
   -1.0371    2.6800    1.4419 C   0  0  0  0  0  0  0  0  0  0  0  0
    0.0478    3.5486    1.5857 C   0  0  0  0  0  0  0  0  0  0  0  0
    1.0148    3.6214    0.5824 C   0  0  0  0  0  0  0  0  0  0  0  0
    0.9093    2.8087   -0.5504 C   0  0  0  0  0  0  0  0  0  0  0  0
   -0.1609    1.9119   -0.6955 C   0  0  0  0  0  0  0  0  0  0  0  0
   -0.1926    1.0344   -1.8807 C   0  0  0  0  0  0  0  0  0  0  0  0
   -0.7651    1.4457   -2.9189 O   0  0  0  0  0  0  0  0  0  0  0  0
    0.3879   -0.2878   -1.8776 N   0  0  0  0  0  0  0  0  0  0  0  0
    9.3775    0.4258    0.6820 H   0  0  0  0  0  0  0  0  0  0  0  0
    8.0465   -0.6681    1.2739 H   0  0  0  0  0  0  0  0  0  0  0  0
    9.0040    0.3178    2.4237 H   0  0  0  0  0  0  0  0  0  0  0  0
    8.1136    2.4249    1.4703 H   0  0  0  0  0  0  0  0  0  0  0  0
    6.8484    1.3954    2.1524 H   0  0  0  0  0  0  0  0  0  0  0  0
    7.1846    2.3812   -1.9013 H   0  0  0  0  0  0  0  0  0  0  0  0
    8.6467    2.2532   -0.8992 H   0  0  0  0  0  0  0  0  0  0  0  0
    7.3448    0.1846   -2.6922 H   0  0  0  0  0  0  0  0  0  0  0  0
    9.0948    0.5095   -2.3763 H   0  0  0  0  0  0  0  0  0  0  0  0
    8.1169   -0.4495   -1.1978 H   0  0  0  0  0  0  0  0  0  0  0  0
    5.4982    0.4219   -1.2173 H   0  0  0  0  0  0  0  0  0  0  0  0
    6.0197   -0.4251    0.2872 H   0  0  0  0  0  0  0  0  0  0  0  0
    4.6544    1.2424    1.6255 H   0  0  0  0  0  0  0  0  0  0  0  0
    4.1830    2.0671    0.1056 H   0  0  0  0  0  0  0  0  0  0  0  0
    3.1764   -0.5031    1.2042 H   0  0  0  0  0  0  0  0  0  0  0  0
    1.6626   -1.8312   -1.2376 H   0  0  0  0  0  0  0  0  0  0  0  0
    1.3024   -1.6942    1.1282 H   0  0  0  0  0  0  0  0  0  0  0  0
    0.5069   -0.0965    1.0098 H   0  0  0  0  0  0  0  0  0  0  0  0
   -0.5454   -2.8279    0.0265 H   0  0  0  0  0  0  0  0  0  0  0  0
   -1.3154   -1.2666   -0.4099 H   0  0  0  0  0  0  0  0  0  0  0  0
   -3.4222   -1.7741    2.5668 H   0  0  0  0  0  0  0  0  0  0  0  0
   -3.1022   -2.4386   -0.3896 H   0  0  0  0  0  0  0  0  0  0  0  0
   -3.0028   -4.5067    0.8959 H   0  0  0  0  0  0  0  0  0  0  0  0
   -4.4387   -3.8133    2.8902 H   0  0  0  0  0  0  0  0  0  0  0  0
   -4.7956   -5.4297    2.1983 H   0  0  0  0  0  0  0  0  0  0  0  0
   -5.9046   -4.0565    1.8554 H   0  0  0  0  0  0  0  0  0  0  0  0
   -3.9529   -4.5011   -1.3702 H   0  0  0  0  0  0  0  0  0  0  0  0
   -4.7799   -5.7306   -0.3222 H   0  0  0  0  0  0  0  0  0  0  0  0
   -5.6286   -4.1641   -0.7305 H   0  0  0  0  0  0  0  0  0  0  0  0
   -4.7642   -0.9951   -1.7175 H   0  0  0  0  0  0  0  0  0  0  0  0
   -4.6982    0.9473    0.6451 H   0  0  0  0  0  0  0  0  0  0  0  0
   -5.4905    2.7186   -0.9170 H   0  0  0  0  0  0  0  0  0  0  0  0
   -6.4994    2.2787   -3.0584 H   0  0  0  0  0  0  0  0  0  0  0  0
   -4.8457    1.6148   -3.1094 H   0  0  0  0  0  0  0  0  0  0  0  0
   -6.2463    0.4853   -2.9091 H   0  0  0  0  0  0  0  0  0  0  0  0
   -7.0466    1.5294    0.6426 H   0  0  0  0  0  0  0  0  0  0  0  0
   -7.4730    0.3604   -0.6605 H   0  0  0  0  0  0  0  0  0  0  0  0
   -7.8732    2.1085   -0.8492 H   0  0  0  0  0  0  0  0  0  0  0  0
   -2.8930    0.5009   -1.7324 H   0  0  0  0  0  0  0  0  0  0  0  0
   -3.2155    2.2134   -1.3020 H   0  0  0  0  0  0  0  0  0  0  0  0
   -1.7901    2.6457    2.2163 H   0  0  0  0  0  0  0  0  0  0  0  0
    0.1322    4.1715    2.4741 H   0  0  0  0  0  0  0  0  0  0  0  0
    1.8481    4.3076    0.6824 H   0  0  0  0  0  0  0  0  0  0  0  0
    1.6639    2.8807   -1.3208 H   0  0  0  0  0  0  0  0  0  0  0  0
    0.2023   -0.8850   -2.7202 H   0  0  0  0  0  0  0  0  0  0  0  0
  1  2  1  0
  2  3  1  0
  3  4  1  0
  4  5  1  0
  3  6  1  0
  6  7  1  0
  7  8  1  0
  8  9  1  0
  9 10  2  0
  9 11  1  0
 11 12  1  0
 12 13  1  0
 13 14  1  0
 14 15  2  0
 14 16  1  0
 16 17  1  0
 17 18  1  0
 18 19  1  0
 18 20  1  0
 17 21  1  0
 21 22  2  0
 21 23  1  0
 23 24  1  0
 24 25  1  0
 25 26  1  0
 25 27  1  0
 24 28  1  0
 28 29  1  0
 29 30  1  0
 30 31  2  0
 31 32  1  0
 32 33  2  0
 33 34  1  0
 34 35  2  0
 35 36  1  0
 36 37  2  0
 36 38  1  0
 38 11  1  0
 35 30  1  0
  1 39  1  0
  1 40  1  0
  1 41  1  0
  2 42  1  0
  2 43  1  0
  4 44  1  0
  4 45  1  0
  5 46  1  0
  5 47  1  0
  5 48  1  0
  6 49  1  0
  6 50  1  0
  7 51  1  0
  7 52  1  0
  8 53  1  0
 11 54  1  0
 12 55  1  0
 12 56  1  0
 13 57  1  0
 13 58  1  0
 16 59  1  0
 17 60  1  0
 18 61  1  0
 19 62  1  0
 19 63  1  0
 19 64  1  0
 20 65  1  0
 20 66  1  0
 20 67  1  0
 23 68  1  0
 24 69  1  0
 25 70  1  0
 26 71  1  0
 26 72  1  0
 26 73  1  0
 27 74  1  0
 27 75  1  0
 27 76  1  0
 28 77  1  0
 28 78  1  0
 31 79  1  0
 32 80  1  0
 33 81  1  0
 34 82  1  0
 38 83  1  0
M  END
$$$$
