
     RDKit          3D

 97101  0  0  0  0  0  0  0  0999 V2000
   -6.0694   -2.4705   -2.0236 C   0  0  0  0  0  0  0  0  0  0  0  0
   -4.8418   -1.5763   -2.2494 C   0  0  0  0  0  0  0  0  0  0  0  0
   -4.5189   -1.4385   -3.7511 C   0  0  0  0  0  0  0  0  0  0  0  0
   -4.9727   -0.2773   -1.5183 N   0  0  0  0  0  0  0  0  0  0  0  0
   -5.7426    0.7808   -2.2161 C   0  0  0  0  0  0  0  0  0  0  0  0
   -7.1849    0.4048   -2.4381 C   0  0  0  0  0  0  0  0  0  0  0  0
   -7.6246    0.3600   -3.6195 O   0  0  0  0  0  0  0  0  0  0  0  0
   -8.0776    0.0996   -1.3515 N   0  0  0  0  0  0  0  0  0  0  0  0
   -7.7827    0.3374    0.0596 C   0  0  0  0  0  0  0  0  0  0  0  0
   -8.0482    1.8071    0.4091 C   0  0  0  0  0  0  0  0  0  0  0  0
   -7.8912    2.1050    1.9105 C   0  0  0  0  0  0  0  0  0  0  0  0
   -6.4421    2.4184    2.3431 C   0  0  0  0  0  0  0  0  0  0  0  0
   -5.5820    1.1719    2.6105 C   0  0  0  0  0  0  0  0  0  0  0  0
   -4.7555    0.8909    1.4806 O   0  0  0  0  0  0  0  0  0  0  0  0
   -3.7960   -0.1357    1.4262 C   0  0  0  0  0  0  0  0  0  0  0  0
   -3.4074   -0.8488    2.5758 C   0  0  0  0  0  0  0  0  0  0  0  0
   -2.4292   -1.8412    2.4967 C   0  0  0  0  0  0  0  0  0  0  0  0
   -1.8317   -2.1556    1.2680 C   0  0  0  0  0  0  0  0  0  0  0  0
   -0.7871   -3.2413    1.1769 C   0  0  0  0  0  0  0  0  0  0  0  0
    0.6068   -2.6874    0.8344 C   0  0  0  0  0  0  0  0  0  0  0  0
    1.1922   -1.8019    1.9081 C   0  0  0  0  0  0  0  0  0  0  0  0
    0.8201   -1.9538    3.1070 O   0  0  0  0  0  0  0  0  0  0  0  0
    2.1963   -0.8104    1.5917 N   0  0  0  0  0  0  0  0  0  0  0  0
    3.1562   -1.0258    0.4977 C   0  0  0  0  0  0  0  0  0  0  0  0
    3.4419    0.2912   -0.2295 C   0  0  0  0  0  0  0  0  0  0  0  0
    3.9164    1.3915    0.7499 C   0  0  0  0  0  0  0  0  0  0  0  0
    5.3574    1.1175    1.3104 C   0  0  0  0  0  0  0  0  0  0  0  0
    5.9513    2.2823    2.1440 C   0  0  0  0  0  0  0  0  0  0  0  0
    6.3453    3.4759    1.2768 C   0  0  0  0  0  0  0  0  0  0  0  0
    7.2870    3.0379    0.1579 C   0  0  0  0  0  0  0  0  0  0  0  0
    6.6867    1.8788   -0.6468 C   0  0  0  0  0  0  0  0  0  0  0  0
    6.2762    0.7358    0.2060 N   0  0  0  0  0  0  0  0  0  0  0  0
    7.4115   -0.1066    0.6438 C   0  0  0  0  0  0  0  0  0  0  0  0
    7.9114   -0.9268   -0.5125 C   0  0  0  0  0  0  0  0  0  0  0  0
    9.2287   -0.7935   -0.9739 C   0  0  0  0  0  0  0  0  0  0  0  0
    9.6452   -1.5397   -2.0788 C   0  0  0  0  0  0  0  0  0  0  0  0
    8.7456   -2.3912   -2.7214 C   0  0  0  0  0  0  0  0  0  0  0  0
    7.4377   -2.4961   -2.2376 C   0  0  0  0  0  0  0  0  0  0  0  0
    7.0555   -1.7672   -1.1558 N   0  0  0  0  0  0  0  0  0  0  0  0
    2.8340    1.5679    1.8431 C   0  0  0  0  0  0  0  0  0  0  0  0
    2.4925    0.2561    2.5625 C   0  0  0  0  0  0  0  0  0  0  0  0
   -2.2283   -1.4612    0.1171 C   0  0  0  0  0  0  0  0  0  0  0  0
   -3.2056   -0.4547    0.1852 C   0  0  0  0  0  0  0  0  0  0  0  0
   -3.6527    0.2405   -1.0794 C   0  0  0  0  0  0  0  0  0  0  0  0
   -6.4070   -2.3977   -0.9655 H   0  0  0  0  0  0  0  0  0  0  0  0
   -5.8113   -3.5317   -2.2327 H   0  0  0  0  0  0  0  0  0  0  0  0
   -6.9093   -2.1950   -2.6964 H   0  0  0  0  0  0  0  0  0  0  0  0
   -3.9997   -2.1544   -1.8109 H   0  0  0  0  0  0  0  0  0  0  0  0
   -4.2965   -2.4438   -4.1790 H   0  0  0  0  0  0  0  0  0  0  0  0
   -3.6280   -0.7919   -3.9037 H   0  0  0  0  0  0  0  0  0  0  0  0
   -5.3768   -1.0132   -4.3121 H   0  0  0  0  0  0  0  0  0  0  0  0
   -5.2575    1.0510   -3.1791 H   0  0  0  0  0  0  0  0  0  0  0  0
   -5.7456    1.7081   -1.6069 H   0  0  0  0  0  0  0  0  0  0  0  0
   -9.0289   -0.2595   -1.5949 H   0  0  0  0  0  0  0  0  0  0  0  0
   -6.7394    0.0461    0.2918 H   0  0  0  0  0  0  0  0  0  0  0  0
   -8.4509   -0.3089    0.6746 H   0  0  0  0  0  0  0  0  0  0  0  0
   -7.3985    2.4841   -0.1911 H   0  0  0  0  0  0  0  0  0  0  0  0
   -9.1020    2.0382    0.1237 H   0  0  0  0  0  0  0  0  0  0  0  0
   -8.4955    3.0156    2.1223 H   0  0  0  0  0  0  0  0  0  0  0  0
   -8.3267    1.2893    2.5284 H   0  0  0  0  0  0  0  0  0  0  0  0
   -6.4995    3.0019    3.2937 H   0  0  0  0  0  0  0  0  0  0  0  0
   -5.9433    3.0774    1.5966 H   0  0  0  0  0  0  0  0  0  0  0  0
   -4.9393    1.3769    3.4990 H   0  0  0  0  0  0  0  0  0  0  0  0
   -6.2171    0.2796    2.8374 H   0  0  0  0  0  0  0  0  0  0  0  0
   -3.8423   -0.6330    3.5418 H   0  0  0  0  0  0  0  0  0  0  0  0
   -2.1470   -2.3757    3.3960 H   0  0  0  0  0  0  0  0  0  0  0  0
   -0.7367   -3.8292    2.1206 H   0  0  0  0  0  0  0  0  0  0  0  0
   -1.0910   -3.9529    0.3796 H   0  0  0  0  0  0  0  0  0  0  0  0
    0.5351   -2.1199   -0.1159 H   0  0  0  0  0  0  0  0  0  0  0  0
    1.2992   -3.5403    0.6733 H   0  0  0  0  0  0  0  0  0  0  0  0
    2.7815   -1.7557   -0.2475 H   0  0  0  0  0  0  0  0  0  0  0  0
    4.0964   -1.4479    0.9081 H   0  0  0  0  0  0  0  0  0  0  0  0
    4.1839    0.1151   -1.0379 H   0  0  0  0  0  0  0  0  0  0  0  0
    2.5042    0.6287   -0.7302 H   0  0  0  0  0  0  0  0  0  0  0  0
    3.9401    2.3380    0.1713 H   0  0  0  0  0  0  0  0  0  0  0  0
    5.2599    0.2614    2.0093 H   0  0  0  0  0  0  0  0  0  0  0  0
    6.8601    1.9157    2.6676 H   0  0  0  0  0  0  0  0  0  0  0  0
    5.2504    2.6141    2.9351 H   0  0  0  0  0  0  0  0  0  0  0  0
    5.4414    3.9542    0.8459 H   0  0  0  0  0  0  0  0  0  0  0  0
    6.8541    4.2329    1.9110 H   0  0  0  0  0  0  0  0  0  0  0  0
    7.4637    3.8966   -0.5221 H   0  0  0  0  0  0  0  0  0  0  0  0
    8.2702    2.7443    0.5811 H   0  0  0  0  0  0  0  0  0  0  0  0
    5.8086    2.2482   -1.2183 H   0  0  0  0  0  0  0  0  0  0  0  0
    7.4229    1.5566   -1.4144 H   0  0  0  0  0  0  0  0  0  0  0  0
    7.0933   -0.8280    1.4285 H   0  0  0  0  0  0  0  0  0  0  0  0
    8.2252    0.5114    1.0811 H   0  0  0  0  0  0  0  0  0  0  0  0
    9.9190   -0.1133   -0.4937 H   0  0  0  0  0  0  0  0  0  0  0  0
   10.6615   -1.4483   -2.4430 H   0  0  0  0  0  0  0  0  0  0  0  0
    9.0575   -2.9648   -3.5853 H   0  0  0  0  0  0  0  0  0  0  0  0
    6.7231   -3.1460   -2.7271 H   0  0  0  0  0  0  0  0  0  0  0  0
    3.1225    2.3348    2.5873 H   0  0  0  0  0  0  0  0  0  0  0  0
    1.9026    1.9417    1.3613 H   0  0  0  0  0  0  0  0  0  0  0  0
    3.3340   -0.0569    3.2146 H   0  0  0  0  0  0  0  0  0  0  0  0
    1.6127    0.4476    3.2164 H   0  0  0  0  0  0  0  0  0  0  0  0
   -1.7757   -1.7094   -0.8376 H   0  0  0  0  0  0  0  0  0  0  0  0
   -3.6902    1.3288   -0.8549 H   0  0  0  0  0  0  0  0  0  0  0  0
   -2.8909    0.1296   -1.8825 H   0  0  0  0  0  0  0  0  0  0  0  0
  1  2  1  0
  2  3  1  0
  2  4  1  0
  4  5  1  0
  5  6  1  0
  6  7  2  0
  6  8  1  0
  8  9  1  0
  9 10  1  0
 10 11  1  0
 11 12  1  0
 12 13  1  0
 13 14  1  0
 14 15  1  0
 15 16  2  0
 16 17  1  0
 17 18  2  0
 18 19  1  0
 19 20  1  0
 20 21  1  0
 21 22  2  0
 21 23  1  0
 23 24  1  0
 24 25  1  0
 25 26  1  0
 26 27  1  0
 27 28  1  0
 28 29  1  0
 29 30  1  0
 30 31  1  0
 31 32  1  0
 32 33  1  0
 33 34  1  0
 34 35  2  0
 35 36  1  0
 36 37  2  0
 37 38  1  0
 38 39  2  0
 26 40  1  0
 40 41  1  0
 18 42  1  0
 42 43  2  0
 43 44  1  0
 44  4  1  0
 43 15  1  0
 41 23  1  0
 32 27  1  0
 39 34  1  0
  1 45  1  0
  1 46  1  0
  1 47  1  0
  2 48  1  0
  3 49  1  0
  3 50  1  0
  3 51  1  0
  5 52  1  0
  5 53  1  0
  8 54  1  0
  9 55  1  0
  9 56  1  0
 10 57  1  0
 10 58  1  0
 11 59  1  0
 11 60  1  0
 12 61  1  0
 12 62  1  0
 13 63  1  0
 13 64  1  0
 16 65  1  0
 17 66  1  0
 19 67  1  0
 19 68  1  0
 20 69  1  0
 20 70  1  0
 24 71  1  0
 24 72  1  0
 25 73  1  0
 25 74  1  0
 26 75  1  0
 27 76  1  0
 28 77  1  0
 28 78  1  0
 29 79  1  0
 29 80  1  0
 30 81  1  0
 30 82  1  0
 31 83  1  0
 31 84  1  0
 33 85  1  0
 33 86  1  0
 35 87  1  0
 36 88  1  0
 37 89  1  0
 38 90  1  0
 40 91  1  0
 40 92  1  0
 41 93  1  0
 41 94  1  0
 42 95  1  0
 44 96  1  0
 44 97  1  0
M  END
$$$$
