
     RDKit          3D

 67 70  0  0  0  0  0  0  0  0999 V2000
   -3.4146    2.6030    1.3686 O   0  0  0  0  0  0  0  0  0  0  0  0
   -2.8740    2.1049    0.3439 C   0  0  0  0  0  0  0  0  0  0  0  0
   -2.8668    2.8997   -0.9065 C   0  0  0  0  0  0  0  0  0  0  0  0
   -2.8140    4.3023   -0.8523 C   0  0  0  0  0  0  0  0  0  0  0  0
   -2.8307    5.0508   -2.0300 C   0  0  0  0  0  0  0  0  0  0  0  0
   -2.9136    4.3918   -3.2580 C   0  0  0  0  0  0  0  0  0  0  0  0
   -2.9772    3.0347   -3.2983 N   0  0  0  0  0  0  0  0  0  0  0  0
   -2.9554    2.2828   -2.1642 C   0  0  0  0  0  0  0  0  0  0  0  0
   -2.2355    0.8084    0.4287 N   0  0  0  0  0  0  0  0  0  0  0  0
   -2.4754   -0.0313    1.6145 C   0  0  0  0  0  0  0  0  0  0  0  0
   -3.9431   -0.4801    1.7285 C   0  0  0  0  0  0  0  0  0  0  0  0
   -4.1421   -1.5232    2.8517 C   0  0  0  0  0  0  0  0  0  0  0  0
   -4.2794   -2.9834    2.3700 C   0  0  0  0  0  0  0  0  0  0  0  0
   -2.9849   -3.5825    1.7793 C   0  0  0  0  0  0  0  0  0  0  0  0
   -2.9526   -3.5188    0.2378 C   0  0  0  0  0  0  0  0  0  0  0  0
   -1.5413   -3.2343   -0.3170 C   0  0  0  0  0  0  0  0  0  0  0  0
   -1.5785   -2.6886   -1.6835 N   0  0  0  0  0  0  0  0  0  0  0  0
   -1.9237   -1.2554   -1.7265 C   0  0  0  0  0  0  0  0  0  0  0  0
   -0.7886   -0.3882   -1.2299 C   0  0  0  0  0  0  0  0  0  0  0  0
    0.4801   -0.5517   -1.8129 C   0  0  0  0  0  0  0  0  0  0  0  0
    1.5723    0.2292   -1.4101 C   0  0  0  0  0  0  0  0  0  0  0  0
    2.8635   -0.0117   -2.0028 N   0  0  0  0  0  0  0  0  0  0  0  0
    4.1335    0.4393   -1.4305 C   0  0  0  0  0  0  0  0  0  0  0  0
    4.4174   -0.2854   -0.1096 C   0  0  0  0  0  0  0  0  0  0  0  0
    5.7475    0.1353    0.4548 C   0  0  0  0  0  0  0  0  0  0  0  0
    5.8535    1.3139    1.2134 C   0  0  0  0  0  0  0  0  0  0  0  0
    7.0916    1.7127    1.7253 C   0  0  0  0  0  0  0  0  0  0  0  0
    8.2326    0.9447    1.4775 C   0  0  0  0  0  0  0  0  0  0  0  0
    9.4314    1.3299    1.9777 F   0  0  0  0  0  0  0  0  0  0  0  0
    8.1374   -0.2215    0.7125 C   0  0  0  0  0  0  0  0  0  0  0  0
    6.9014   -0.6231    0.1962 C   0  0  0  0  0  0  0  0  0  0  0  0
    1.3760    1.2268   -0.4418 C   0  0  0  0  0  0  0  0  0  0  0  0
    0.1172    1.4182    0.1275 C   0  0  0  0  0  0  0  0  0  0  0  0
   -0.9747    0.6208   -0.2503 C   0  0  0  0  0  0  0  0  0  0  0  0
   -2.7548    4.8174    0.0980 H   0  0  0  0  0  0  0  0  0  0  0  0
   -2.7862    6.1314   -1.9898 H   0  0  0  0  0  0  0  0  0  0  0  0
   -2.9348    4.9586   -4.1795 H   0  0  0  0  0  0  0  0  0  0  0  0
   -3.0459    1.2116   -2.2467 H   0  0  0  0  0  0  0  0  0  0  0  0
   -1.8246   -0.9225    1.5812 H   0  0  0  0  0  0  0  0  0  0  0  0
   -2.1867    0.5318    2.5286 H   0  0  0  0  0  0  0  0  0  0  0  0
   -4.3189   -0.8529    0.7560 H   0  0  0  0  0  0  0  0  0  0  0  0
   -4.5612    0.4091    1.9751 H   0  0  0  0  0  0  0  0  0  0  0  0
   -5.0823   -1.2709    3.3912 H   0  0  0  0  0  0  0  0  0  0  0  0
   -3.3306   -1.4521    3.6089 H   0  0  0  0  0  0  0  0  0  0  0  0
   -5.1298   -3.0751    1.6598 H   0  0  0  0  0  0  0  0  0  0  0  0
   -4.5543   -3.5908    3.2597 H   0  0  0  0  0  0  0  0  0  0  0  0
   -2.1002   -3.0969    2.2415 H   0  0  0  0  0  0  0  0  0  0  0  0
   -2.9221   -4.6537    2.0734 H   0  0  0  0  0  0  0  0  0  0  0  0
   -3.6688   -2.7674   -0.1345 H   0  0  0  0  0  0  0  0  0  0  0  0
   -3.3100   -4.4887   -0.1736 H   0  0  0  0  0  0  0  0  0  0  0  0
   -0.9600   -2.5596    0.3422 H   0  0  0  0  0  0  0  0  0  0  0  0
   -0.9773   -4.1913   -0.3375 H   0  0  0  0  0  0  0  0  0  0  0  0
   -2.2829   -3.2206   -2.2461 H   0  0  0  0  0  0  0  0  0  0  0  0
   -2.8657   -1.0478   -1.1852 H   0  0  0  0  0  0  0  0  0  0  0  0
   -2.1144   -0.9759   -2.7858 H   0  0  0  0  0  0  0  0  0  0  0  0
    0.6250   -1.3092   -2.5741 H   0  0  0  0  0  0  0  0  0  0  0  0
    2.9116   -0.5959   -2.8686 H   0  0  0  0  0  0  0  0  0  0  0  0
    4.9528    0.2103   -2.1479 H   0  0  0  0  0  0  0  0  0  0  0  0
    4.1200    1.5410   -1.2886 H   0  0  0  0  0  0  0  0  0  0  0  0
    3.6186   -0.0648    0.6307 H   0  0  0  0  0  0  0  0  0  0  0  0
    4.4062   -1.3842   -0.2825 H   0  0  0  0  0  0  0  0  0  0  0  0
    4.9772    1.9191    1.4098 H   0  0  0  0  0  0  0  0  0  0  0  0
    7.1660    2.6176    2.3137 H   0  0  0  0  0  0  0  0  0  0  0  0
    9.0220   -0.8132    0.5181 H   0  0  0  0  0  0  0  0  0  0  0  0
    6.8416   -1.5261   -0.3998 H   0  0  0  0  0  0  0  0  0  0  0  0
    2.1895    1.8605   -0.1164 H   0  0  0  0  0  0  0  0  0  0  0  0
   -0.0081    2.1816    0.8850 H   0  0  0  0  0  0  0  0  0  0  0  0
  1  2  2  0
  2  3  1  0
  3  4  2  0
  4  5  1  0
  5  6  2  0
  6  7  1  0
  7  8  2  0
  2  9  1  0
  9 10  1  0
 10 11  1  0
 11 12  1  0
 12 13  1  0
 13 14  1  0
 14 15  1  0
 15 16  1  0
 16 17  1  0
 17 18  1  0
 18 19  1  0
 19 20  2  0
 20 21  1  0
 21 22  1  0
 22 23  1  0
 23 24  1  0
 24 25  1  0
 25 26  2  0
 26 27  1  0
 27 28  2  0
 28 29  1  0
 28 30  1  0
 30 31  2  0
 21 32  2  0
 32 33  1  0
 33 34  2  0
  8  3  1  0
 34  9  1  0
 34 19  1  0
 31 25  1  0
  4 35  1  0
  5 36  1  0
  6 37  1  0
  8 38  1  0
 10 39  1  0
 10 40  1  0
 11 41  1  0
 11 42  1  0
 12 43  1  0
 12 44  1  0
 13 45  1  0
 13 46  1  0
 14 47  1  0
 14 48  1  0
 15 49  1  0
 15 50  1  0
 16 51  1  0
 16 52  1  0
 17 53  1  0
 18 54  1  0
 18 55  1  0
 20 56  1  0
 22 57  1  0
 23 58  1  0
 23 59  1  0
 24 60  1  0
 24 61  1  0
 26 62  1  0
 27 63  1  0
 30 64  1  0
 31 65  1  0
 32 66  1  0
 33 67  1  0
M  END
$$$$
