
     RDKit          3D

 73 75  0  0  0  0  0  0  0  0999 V2000
    5.6732    2.7832   -1.1414 C   0  0  0  0  0  0  0  0  0  0  0  0
    6.0508    1.4048   -0.6063 C   0  0  0  0  0  0  0  0  0  0  0  0
    4.8496    0.5765   -0.4157 N   0  0  0  0  0  0  0  0  0  0  0  0
    4.4728   -0.3679   -1.4819 C   0  0  0  0  0  0  0  0  0  0  0  0
    5.3371   -1.6250   -1.4317 C   0  0  0  0  0  0  0  0  0  0  0  0
    4.0237    0.7822    0.7572 C   0  0  0  0  0  0  0  0  0  0  0  0
    4.3272    1.6800    1.5898 O   0  0  0  0  0  0  0  0  0  0  0  0
    2.7847    0.0204    0.9893 C   0  0  0  0  0  0  0  0  0  0  0  0
    2.8244   -1.3520    1.2593 C   0  0  0  0  0  0  0  0  0  0  0  0
    1.6398   -2.0627    1.4597 C   0  0  0  0  0  0  0  0  0  0  0  0
    0.3981   -1.4123    1.3975 C   0  0  0  0  0  0  0  0  0  0  0  0
    0.3514   -0.0244    1.1267 C   0  0  0  0  0  0  0  0  0  0  0  0
    1.5511    0.6810    0.9403 C   0  0  0  0  0  0  0  0  0  0  0  0
   -0.9509    0.7245    0.9856 C   0  0  0  0  0  0  0  0  0  0  0  0
   -1.0592    1.3162   -0.3688 N   0  0  0  0  0  0  0  0  0  0  0  0
   -1.8497    2.5688   -0.4984 C   0  0  0  0  0  0  0  0  0  0  0  0
   -3.2201    2.5497    0.2363 C   0  0  0  0  0  0  0  0  0  0  0  0
   -3.6928    3.9763    0.5694 C   0  0  0  0  0  0  0  0  0  0  0  0
   -3.1904    4.9022   -0.3732 O   0  0  0  0  0  0  0  0  0  0  0  0
   -1.7980    5.0927   -0.1775 C   0  0  0  0  0  0  0  0  0  0  0  0
   -1.0050    3.7707   -0.0428 C   0  0  0  0  0  0  0  0  0  0  0  0
   -1.2489    0.3326   -1.4607 C   0  0  0  0  0  0  0  0  0  0  0  0
   -2.6765   -0.2383   -1.5350 C   0  0  0  0  0  0  0  0  0  0  0  0
   -2.7381   -1.5460   -2.3523 C   0  0  0  0  0  0  0  0  0  0  0  0
   -3.8160   -2.5197   -1.8316 C   0  0  0  0  0  0  0  0  0  0  0  0
   -3.2618   -3.6397   -0.9260 C   0  0  0  0  0  0  0  0  0  0  0  0
   -2.7842   -3.1638    0.4645 C   0  0  0  0  0  0  0  0  0  0  0  0
   -1.2473   -3.1049    0.5847 C   0  0  0  0  0  0  0  0  0  0  0  0
   -0.7989   -2.1733    1.6359 N   0  0  0  0  0  0  0  0  0  0  0  0
   -1.2941   -2.2173    2.9914 C   0  0  0  0  0  0  0  0  0  0  0  0
   -1.8767   -3.4621    3.5895 C   0  0  0  0  0  0  0  0  0  0  0  0
   -1.2358   -1.1800    3.7062 O   0  0  0  0  0  0  0  0  0  0  0  0
    6.5916    3.3886   -1.2940 H   0  0  0  0  0  0  0  0  0  0  0  0
    5.0153    3.3132   -0.4214 H   0  0  0  0  0  0  0  0  0  0  0  0
    5.1442    2.6815   -2.1130 H   0  0  0  0  0  0  0  0  0  0  0  0
    6.7473    0.9256   -1.3293 H   0  0  0  0  0  0  0  0  0  0  0  0
    6.6014    1.5095    0.3543 H   0  0  0  0  0  0  0  0  0  0  0  0
    3.4031   -0.6553   -1.4130 H   0  0  0  0  0  0  0  0  0  0  0  0
    4.5962    0.1204   -2.4713 H   0  0  0  0  0  0  0  0  0  0  0  0
    5.3094   -2.0812   -0.4221 H   0  0  0  0  0  0  0  0  0  0  0  0
    4.9586   -2.3660   -2.1673 H   0  0  0  0  0  0  0  0  0  0  0  0
    6.3899   -1.3837   -1.6863 H   0  0  0  0  0  0  0  0  0  0  0  0
    3.7712   -1.8694    1.3313 H   0  0  0  0  0  0  0  0  0  0  0  0
    1.6844   -3.1227    1.6728 H   0  0  0  0  0  0  0  0  0  0  0  0
    1.5222    1.7445    0.7295 H   0  0  0  0  0  0  0  0  0  0  0  0
   -1.8190    0.0754    1.2088 H   0  0  0  0  0  0  0  0  0  0  0  0
   -0.9528    1.5178    1.7620 H   0  0  0  0  0  0  0  0  0  0  0  0
   -2.0649    2.7499   -1.5769 H   0  0  0  0  0  0  0  0  0  0  0  0
   -3.1922    1.9756    1.1820 H   0  0  0  0  0  0  0  0  0  0  0  0
   -3.9782    2.0689   -0.4154 H   0  0  0  0  0  0  0  0  0  0  0  0
   -3.3841    4.2530    1.6070 H   0  0  0  0  0  0  0  0  0  0  0  0
   -4.8038    4.0095    0.5456 H   0  0  0  0  0  0  0  0  0  0  0  0
   -1.4067    5.6499   -1.0551 H   0  0  0  0  0  0  0  0  0  0  0  0
   -1.6246    5.7373    0.7131 H   0  0  0  0  0  0  0  0  0  0  0  0
   -0.0729    3.8258   -0.6482 H   0  0  0  0  0  0  0  0  0  0  0  0
   -0.7044    3.6448    1.0193 H   0  0  0  0  0  0  0  0  0  0  0  0
   -0.5137   -0.4903   -1.3342 H   0  0  0  0  0  0  0  0  0  0  0  0
   -0.9977    0.8081   -2.4333 H   0  0  0  0  0  0  0  0  0  0  0  0
   -3.3403    0.5075   -2.0198 H   0  0  0  0  0  0  0  0  0  0  0  0
   -3.0750   -0.3958   -0.5201 H   0  0  0  0  0  0  0  0  0  0  0  0
   -2.9810   -1.2766   -3.4047 H   0  0  0  0  0  0  0  0  0  0  0  0
   -1.7546   -2.0620   -2.3946 H   0  0  0  0  0  0  0  0  0  0  0  0
   -4.2817   -3.0126   -2.7133 H   0  0  0  0  0  0  0  0  0  0  0  0
   -4.6391   -1.9778   -1.3152 H   0  0  0  0  0  0  0  0  0  0  0  0
   -2.4617   -4.1995   -1.4578 H   0  0  0  0  0  0  0  0  0  0  0  0
   -4.0878   -4.3677   -0.7704 H   0  0  0  0  0  0  0  0  0  0  0  0
   -3.1559   -3.8979    1.2072 H   0  0  0  0  0  0  0  0  0  0  0  0
   -3.2436   -2.1941    0.7382 H   0  0  0  0  0  0  0  0  0  0  0  0
   -0.8182   -2.7832   -0.3864 H   0  0  0  0  0  0  0  0  0  0  0  0
   -0.8464   -4.1198    0.7899 H   0  0  0  0  0  0  0  0  0  0  0  0
   -2.9791   -3.4543    3.4743 H   0  0  0  0  0  0  0  0  0  0  0  0
   -1.6440   -3.5016    4.6732 H   0  0  0  0  0  0  0  0  0  0  0  0
   -1.4506   -4.3676    3.1145 H   0  0  0  0  0  0  0  0  0  0  0  0
  1  2  1  0
  2  3  1  0
  3  4  1  0
  4  5  1  0
  3  6  1  0
  6  7  2  0
  6  8  1  0
  8  9  2  0
  9 10  1  0
 10 11  2  0
 11 12  1  0
 12 13  2  0
 12 14  1  0
 14 15  1  0
 15 16  1  0
 16 17  1  0
 17 18  1  0
 18 19  1  0
 19 20  1  0
 20 21  1  0
 15 22  1  0
 22 23  1  0
 23 24  1  0
 24 25  1  0
 25 26  1  0
 26 27  1  0
 27 28  1  0
 28 29  1  0
 29 30  1  0
 30 31  1  0
 30 32  2  0
 13  8  1  0
 21 16  1  0
 29 11  1  0
  1 33  1  0
  1 34  1  0
  1 35  1  0
  2 36  1  0
  2 37  1  0
  4 38  1  0
  4 39  1  0
  5 40  1  0
  5 41  1  0
  5 42  1  0
  9 43  1  0
 10 44  1  0
 13 45  1  0
 14 46  1  0
 14 47  1  0
 16 48  1  0
 17 49  1  0
 17 50  1  0
 18 51  1  0
 18 52  1  0
 20 53  1  0
 20 54  1  0
 21 55  1  0
 21 56  1  0
 22 57  1  0
 22 58  1  0
 23 59  1  0
 23 60  1  0
 24 61  1  0
 24 62  1  0
 25 63  1  0
 25 64  1  0
 26 65  1  0
 26 66  1  0
 27 67  1  0
 27 68  1  0
 28 69  1  0
 28 70  1  0
 31 71  1  0
 31 72  1  0
 31 73  1  0
M  END
$$$$
