
     RDKit          3D

 72 74  0  0  0  0  0  0  0  0999 V2000
   -5.8757    0.7895    2.5313 C   0  0  0  0  0  0  0  0  0  0  0  0
   -5.1978    1.3805    1.2972 C   0  0  0  0  0  0  0  0  0  0  0  0
   -5.0887    0.3744    0.1775 C   0  0  0  0  0  0  0  0  0  0  0  0
   -6.0572   -0.4060   -0.0449 O   0  0  0  0  0  0  0  0  0  0  0  0
   -3.9273    0.3328   -0.6798 N   0  0  0  0  0  0  0  0  0  0  0  0
   -3.7588   -0.7552   -1.6563 C   0  0  0  0  0  0  0  0  0  0  0  0
   -3.6516   -2.1256   -0.9556 C   0  0  0  0  0  0  0  0  0  0  0  0
   -2.8323   -3.1460   -1.7605 C   0  0  0  0  0  0  0  0  0  0  0  0
   -1.4600   -2.6609   -2.0407 N   0  0  0  0  0  0  0  0  0  0  0  0
   -0.9250   -3.3692   -3.2188 C   0  0  0  0  0  0  0  0  0  0  0  0
   -0.5660   -2.8410   -0.8684 C   0  0  0  0  0  0  0  0  0  0  0  0
    0.6444   -1.8897   -0.9170 C   0  0  0  0  0  0  0  0  0  0  0  0
    0.2503   -0.4008   -0.9091 C   0  0  0  0  0  0  0  0  0  0  0  0
   -0.0137    0.0880    0.4548 N   0  0  0  0  0  0  0  0  0  0  0  0
    1.0289    0.1567    1.4521 C   0  0  0  0  0  0  0  0  0  0  0  0
    0.7648   -0.1642    2.6413 O   0  0  0  0  0  0  0  0  0  0  0  0
    2.3754    0.6885    1.1517 C   0  0  0  0  0  0  0  0  0  0  0  0
    3.2413    0.2552    0.1638 C   0  0  0  0  0  0  0  0  0  0  0  0
    4.3901    0.9979    0.3650 C   0  0  0  0  0  0  0  0  0  0  0  0
    5.6681    0.8678   -0.4126 C   0  0  0  0  0  0  0  0  0  0  0  0
    6.6509   -0.1610    0.1915 C   0  0  0  0  0  0  0  0  0  0  0  0
    7.1200    0.2440    1.5963 C   0  0  0  0  0  0  0  0  0  0  0  0
    6.0716   -1.5831    0.1986 C   0  0  0  0  0  0  0  0  0  0  0  0
    4.2319    1.8187    1.4216 N   0  0  0  0  0  0  0  0  0  0  0  0
    3.0086    1.6291    1.8889 N   0  0  0  0  0  0  0  0  0  0  0  0
    2.4866    2.3204    3.0637 C   0  0  0  0  0  0  0  0  0  0  0  0
   -1.3703    0.5226    0.8255 C   0  0  0  0  0  0  0  0  0  0  0  0
   -1.8678    1.6105   -0.0985 C   0  0  0  0  0  0  0  0  0  0  0  0
   -1.0991    2.7788   -0.2419 C   0  0  0  0  0  0  0  0  0  0  0  0
   -1.5156    3.8032   -1.0936 C   0  0  0  0  0  0  0  0  0  0  0  0
   -0.7531    4.9148   -1.2337 F   0  0  0  0  0  0  0  0  0  0  0  0
   -2.7132    3.6807   -1.8015 C   0  0  0  0  0  0  0  0  0  0  0  0
   -3.1172    4.6730   -2.6320 F   0  0  0  0  0  0  0  0  0  0  0  0
   -3.4976    2.5353   -1.6545 C   0  0  0  0  0  0  0  0  0  0  0  0
   -3.0893    1.4965   -0.8061 C   0  0  0  0  0  0  0  0  0  0  0  0
   -5.3177   -0.1047    2.8864 H   0  0  0  0  0  0  0  0  0  0  0  0
   -5.8890    1.5455    3.3440 H   0  0  0  0  0  0  0  0  0  0  0  0
   -6.9250    0.5049    2.3034 H   0  0  0  0  0  0  0  0  0  0  0  0
   -4.1895    1.7325    1.5994 H   0  0  0  0  0  0  0  0  0  0  0  0
   -5.7785    2.2559    0.9380 H   0  0  0  0  0  0  0  0  0  0  0  0
   -2.8577   -0.5621   -2.2761 H   0  0  0  0  0  0  0  0  0  0  0  0
   -4.6216   -0.7619   -2.3580 H   0  0  0  0  0  0  0  0  0  0  0  0
   -4.6752   -2.5358   -0.8178 H   0  0  0  0  0  0  0  0  0  0  0  0
   -3.2307   -2.0251    0.0606 H   0  0  0  0  0  0  0  0  0  0  0  0
   -3.3892   -3.3262   -2.7084 H   0  0  0  0  0  0  0  0  0  0  0  0
   -2.8036   -4.1149   -1.2127 H   0  0  0  0  0  0  0  0  0  0  0  0
   -1.5604   -3.1643   -4.1083 H   0  0  0  0  0  0  0  0  0  0  0  0
    0.0903   -3.0086   -3.4753 H   0  0  0  0  0  0  0  0  0  0  0  0
   -0.8901   -4.4678   -3.0448 H   0  0  0  0  0  0  0  0  0  0  0  0
   -0.2029   -3.8920   -0.8047 H   0  0  0  0  0  0  0  0  0  0  0  0
   -1.1006   -2.6417    0.0831 H   0  0  0  0  0  0  0  0  0  0  0  0
    1.2506   -2.0950   -1.8221 H   0  0  0  0  0  0  0  0  0  0  0  0
    1.3024   -2.1142   -0.0512 H   0  0  0  0  0  0  0  0  0  0  0  0
   -0.6327   -0.2496   -1.5614 H   0  0  0  0  0  0  0  0  0  0  0  0
    1.0512    0.2107   -1.3709 H   0  0  0  0  0  0  0  0  0  0  0  0
    3.1015   -0.5290   -0.5657 H   0  0  0  0  0  0  0  0  0  0  0  0
    5.4293    0.5796   -1.4608 H   0  0  0  0  0  0  0  0  0  0  0  0
    6.1619    1.8627   -0.4601 H   0  0  0  0  0  0  0  0  0  0  0  0
    7.5489   -0.1741   -0.4654 H   0  0  0  0  0  0  0  0  0  0  0  0
    6.2857    0.1875    2.3277 H   0  0  0  0  0  0  0  0  0  0  0  0
    7.9315   -0.4346    1.9356 H   0  0  0  0  0  0  0  0  0  0  0  0
    7.5181    1.2815    1.5831 H   0  0  0  0  0  0  0  0  0  0  0  0
    5.2237   -1.6642    0.9113 H   0  0  0  0  0  0  0  0  0  0  0  0
    6.8559   -2.3100    0.5026 H   0  0  0  0  0  0  0  0  0  0  0  0
    5.7171   -1.8583   -0.8188 H   0  0  0  0  0  0  0  0  0  0  0  0
    1.4510    2.6720    2.8700 H   0  0  0  0  0  0  0  0  0  0  0  0
    2.4883    1.6299    3.9332 H   0  0  0  0  0  0  0  0  0  0  0  0
    3.1205    3.2012    3.3018 H   0  0  0  0  0  0  0  0  0  0  0  0
   -2.0356   -0.3565    0.8348 H   0  0  0  0  0  0  0  0  0  0  0  0
   -1.3884    0.9311    1.8597 H   0  0  0  0  0  0  0  0  0  0  0  0
   -0.1679    2.8896    0.3013 H   0  0  0  0  0  0  0  0  0  0  0  0
   -4.4270    2.4500   -2.2038 H   0  0  0  0  0  0  0  0  0  0  0  0
  1  2  1  0
  2  3  1  0
  3  4  2  0
  3  5  1  0
  5  6  1  0
  6  7  1  0
  7  8  1  0
  8  9  1  0
  9 10  1  0
  9 11  1  0
 11 12  1  0
 12 13  1  0
 13 14  1  0
 14 15  1  0
 15 16  2  0
 15 17  1  0
 17 18  2  0
 18 19  1  0
 19 20  1  0
 20 21  1  0
 21 22  1  0
 21 23  1  0
 19 24  2  0
 24 25  1  0
 25 26  1  0
 14 27  1  0
 27 28  1  0
 28 29  2  0
 29 30  1  0
 30 31  1  0
 30 32  2  0
 32 33  1  0
 32 34  1  0
 34 35  2  0
 35  5  1  0
 25 17  1  0
 35 28  1  0
  1 36  1  0
  1 37  1  0
  1 38  1  0
  2 39  1  0
  2 40  1  0
  6 41  1  0
  6 42  1  0
  7 43  1  0
  7 44  1  0
  8 45  1  0
  8 46  1  0
 10 47  1  0
 10 48  1  0
 10 49  1  0
 11 50  1  0
 11 51  1  0
 12 52  1  0
 12 53  1  0
 13 54  1  0
 13 55  1  0
 18 56  1  0
 20 57  1  0
 20 58  1  0
 21 59  1  0
 22 60  1  0
 22 61  1  0
 22 62  1  0
 23 63  1  0
 23 64  1  0
 23 65  1  0
 26 66  1  0
 26 67  1  0
 26 68  1  0
 27 69  1  0
 27 70  1  0
 29 71  1  0
 34 72  1  0
M  END
$$$$
