
     RDKit          3D

 65 67  0  0  0  0  0  0  0  0999 V2000
   -2.8659   -4.1596   -2.8910 C   0  0  0  0  0  0  0  0  0  0  0  0
   -1.9983   -2.9561   -2.5257 C   0  0  0  0  0  0  0  0  0  0  0  0
   -1.3590   -3.0956   -1.1649 C   0  0  0  0  0  0  0  0  0  0  0  0
   -1.1126   -4.2502   -0.7171 O   0  0  0  0  0  0  0  0  0  0  0  0
   -0.9617   -1.9416   -0.3911 N   0  0  0  0  0  0  0  0  0  0  0  0
   -0.8844   -0.5972   -0.9817 C   0  0  0  0  0  0  0  0  0  0  0  0
   -2.0996    0.2518   -0.5974 C   0  0  0  0  0  0  0  0  0  0  0  0
   -1.8522    1.7485   -0.8341 C   0  0  0  0  0  0  0  0  0  0  0  0
   -1.0687    2.3260    0.2913 N   0  0  0  0  0  0  0  0  0  0  0  0
   -1.7308    3.4646    0.9900 C   0  0  0  0  0  0  0  0  0  0  0  0
   -2.8841    2.9547    1.8615 C   0  0  0  0  0  0  0  0  0  0  0  0
   -2.2006    4.5953    0.0485 C   0  0  0  0  0  0  0  0  0  0  0  0
    0.3502    2.6019   -0.0534 C   0  0  0  0  0  0  0  0  0  0  0  0
    1.2854    2.3841    1.1528 C   0  0  0  0  0  0  0  0  0  0  0  0
    1.2671    0.9479    1.7258 C   0  0  0  0  0  0  0  0  0  0  0  0
    2.0892   -0.0076    0.9474 N   0  0  0  0  0  0  0  0  0  0  0  0
    3.4491    0.3474    0.6310 C   0  0  0  0  0  0  0  0  0  0  0  0
    4.1655    0.8942    1.5143 O   0  0  0  0  0  0  0  0  0  0  0  0
    4.0240    0.0744   -0.7060 C   0  0  0  0  0  0  0  0  0  0  0  0
    3.2045   -0.0214   -1.8422 C   0  0  0  0  0  0  0  0  0  0  0  0
    3.7680   -0.2670   -3.0949 C   0  0  0  0  0  0  0  0  0  0  0  0
    5.1512   -0.4107   -3.2064 C   0  0  0  0  0  0  0  0  0  0  0  0
    5.9368   -0.3051   -2.1027 N   0  0  0  0  0  0  0  0  0  0  0  0
    5.4125   -0.0643   -0.8711 C   0  0  0  0  0  0  0  0  0  0  0  0
    1.7432   -1.4439    0.8144 C   0  0  0  0  0  0  0  0  0  0  0  0
    0.5308   -1.8649    1.6188 C   0  0  0  0  0  0  0  0  0  0  0  0
    0.6782   -2.0279    3.0080 C   0  0  0  0  0  0  0  0  0  0  0  0
   -0.4039   -2.4180    3.7994 C   0  0  0  0  0  0  0  0  0  0  0  0
   -0.2430   -2.5676    5.1377 F   0  0  0  0  0  0  0  0  0  0  0  0
   -1.6479   -2.6544    3.2139 C   0  0  0  0  0  0  0  0  0  0  0  0
   -2.6993   -3.0344    3.9815 F   0  0  0  0  0  0  0  0  0  0  0  0
   -1.8128   -2.4980    1.8367 C   0  0  0  0  0  0  0  0  0  0  0  0
   -0.7381   -2.0973    1.0258 C   0  0  0  0  0  0  0  0  0  0  0  0
   -3.6655   -4.3017   -2.1331 H   0  0  0  0  0  0  0  0  0  0  0  0
   -3.3397   -3.9880   -3.8801 H   0  0  0  0  0  0  0  0  0  0  0  0
   -2.2474   -5.0803   -2.9539 H   0  0  0  0  0  0  0  0  0  0  0  0
   -1.2002   -2.8364   -3.2887 H   0  0  0  0  0  0  0  0  0  0  0  0
   -2.6459   -2.0559   -2.5474 H   0  0  0  0  0  0  0  0  0  0  0  0
   -0.7809   -0.6433   -2.0863 H   0  0  0  0  0  0  0  0  0  0  0  0
    0.0231   -0.1026   -0.6215 H   0  0  0  0  0  0  0  0  0  0  0  0
   -2.9696   -0.0774   -1.2051 H   0  0  0  0  0  0  0  0  0  0  0  0
   -2.3623    0.0961    0.4714 H   0  0  0  0  0  0  0  0  0  0  0  0
   -2.8542    2.2125   -0.9216 H   0  0  0  0  0  0  0  0  0  0  0  0
   -1.3610    1.9160   -1.8188 H   0  0  0  0  0  0  0  0  0  0  0  0
   -1.0127    3.9307    1.6969 H   0  0  0  0  0  0  0  0  0  0  0  0
   -3.3054    3.7879    2.4637 H   0  0  0  0  0  0  0  0  0  0  0  0
   -2.5108    2.1735    2.5570 H   0  0  0  0  0  0  0  0  0  0  0  0
   -3.6966    2.5201    1.2438 H   0  0  0  0  0  0  0  0  0  0  0  0
   -1.4373    4.8236   -0.7220 H   0  0  0  0  0  0  0  0  0  0  0  0
   -3.1554    4.3470   -0.4590 H   0  0  0  0  0  0  0  0  0  0  0  0
   -2.3737    5.5197    0.6395 H   0  0  0  0  0  0  0  0  0  0  0  0
    0.7093    1.9599   -0.8831 H   0  0  0  0  0  0  0  0  0  0  0  0
    0.4737    3.6455   -0.4117 H   0  0  0  0  0  0  0  0  0  0  0  0
    2.3140    2.6793    0.8610 H   0  0  0  0  0  0  0  0  0  0  0  0
    1.0036    3.0809    1.9680 H   0  0  0  0  0  0  0  0  0  0  0  0
    1.6624    0.9797    2.7642 H   0  0  0  0  0  0  0  0  0  0  0  0
    0.2115    0.6174    1.7974 H   0  0  0  0  0  0  0  0  0  0  0  0
    2.1346    0.1115   -1.7677 H   0  0  0  0  0  0  0  0  0  0  0  0
    3.1385   -0.3392   -3.9721 H   0  0  0  0  0  0  0  0  0  0  0  0
    5.6017   -0.6009   -4.1714 H   0  0  0  0  0  0  0  0  0  0  0  0
    6.0793    0.0084   -0.0214 H   0  0  0  0  0  0  0  0  0  0  0  0
    1.6181   -1.7102   -0.2544 H   0  0  0  0  0  0  0  0  0  0  0  0
    2.6036   -2.0572    1.1644 H   0  0  0  0  0  0  0  0  0  0  0  0
    1.6373   -1.8468    3.4784 H   0  0  0  0  0  0  0  0  0  0  0  0
   -2.7850   -2.6778    1.3945 H   0  0  0  0  0  0  0  0  0  0  0  0
  1  2  1  0
  2  3  1  0
  3  4  2  0
  3  5  1  0
  5  6  1  0
  6  7  1  0
  7  8  1  0
  8  9  1  0
  9 10  1  0
 10 11  1  0
 10 12  1  0
  9 13  1  0
 13 14  1  0
 14 15  1  0
 15 16  1  0
 16 17  1  0
 17 18  2  0
 17 19  1  0
 19 20  2  0
 20 21  1  0
 21 22  2  0
 22 23  1  0
 23 24  2  0
 16 25  1  0
 25 26  1  0
 26 27  2  0
 27 28  1  0
 28 29  1  0
 28 30  2  0
 30 31  1  0
 30 32  1  0
 32 33  2  0
 33  5  1  0
 24 19  1  0
 33 26  1  0
  1 34  1  0
  1 35  1  0
  1 36  1  0
  2 37  1  0
  2 38  1  0
  6 39  1  0
  6 40  1  0
  7 41  1  0
  7 42  1  0
  8 43  1  0
  8 44  1  0
 10 45  1  0
 11 46  1  0
 11 47  1  0
 11 48  1  0
 12 49  1  0
 12 50  1  0
 12 51  1  0
 13 52  1  0
 13 53  1  0
 14 54  1  0
 14 55  1  0
 15 56  1  0
 15 57  1  0
 20 58  1  0
 21 59  1  0
 22 60  1  0
 24 61  1  0
 25 62  1  0
 25 63  1  0
 27 64  1  0
 32 65  1  0
M  END
$$$$
