
     RDKit          3D

 78 80  0  0  0  0  0  0  0  0999 V2000
   -2.9929    2.4319    2.5219 C   0  0  0  0  0  0  0  0  0  0  0  0
   -4.0427    2.4242    1.4009 C   0  0  0  0  0  0  0  0  0  0  0  0
   -4.6937    3.8129    1.2648 C   0  0  0  0  0  0  0  0  0  0  0  0
   -3.4422    1.8645    0.0735 C   0  0  0  0  0  0  0  0  0  0  0  0
   -2.3578    2.7221   -0.4443 N   0  0  0  0  0  0  0  0  0  0  0  0
   -1.3662    2.3168   -1.4092 C   0  0  0  0  0  0  0  0  0  0  0  0
   -0.2913    2.9696   -1.4848 O   0  0  0  0  0  0  0  0  0  0  0  0
   -1.5642    1.1590   -2.3517 C   0  0  0  0  0  0  0  0  0  0  0  0
   -1.0533   -0.1706   -1.7680 C   0  0  0  0  0  0  0  0  0  0  0  0
    0.4469   -0.2610   -1.8578 C   0  0  0  0  0  0  0  0  0  0  0  0
    0.9915   -0.6219   -2.9375 O   0  0  0  0  0  0  0  0  0  0  0  0
    1.2529    0.0874   -0.7253 N   0  0  0  0  0  0  0  0  0  0  0  0
    2.7031   -0.0973   -0.7320 C   0  0  0  0  0  0  0  0  0  0  0  0
    3.3155    0.3810    0.6008 C   0  0  0  0  0  0  0  0  0  0  0  0
    4.7871    0.2272    0.6693 N   0  0  0  0  0  0  0  0  0  0  0  0
    5.4951    1.0832   -0.3124 C   0  0  0  0  0  0  0  0  0  0  0  0
    6.7353    1.7482    0.3051 C   0  0  0  0  0  0  0  0  0  0  0  0
    7.4937    0.9007    1.3396 C   0  0  0  0  0  0  0  0  0  0  0  0
    7.6738   -0.5702    0.9293 C   0  0  0  0  0  0  0  0  0  0  0  0
    6.4931   -1.4434    1.3771 C   0  0  0  0  0  0  0  0  0  0  0  0
    5.2076   -1.1913    0.5835 C   0  0  0  0  0  0  0  0  0  0  0  0
   -1.6731   -1.2980   -2.4763 N   0  0  0  0  0  0  0  0  0  0  0  0
   -1.6327   -2.6582   -2.0130 C   0  0  0  0  0  0  0  0  0  0  0  0
   -1.8334   -3.5881   -2.8400 O   0  0  0  0  0  0  0  0  0  0  0  0
   -1.3386   -3.0109   -0.6088 C   0  0  0  0  0  0  0  0  0  0  0  0
   -0.3091   -3.9339   -0.3568 C   0  0  0  0  0  0  0  0  0  0  0  0
    0.0439   -4.2646    0.9539 C   0  0  0  0  0  0  0  0  0  0  0  0
   -0.6286   -3.6801    2.0269 C   0  0  0  0  0  0  0  0  0  0  0  0
   -1.6652   -2.7752    1.7921 C   0  0  0  0  0  0  0  0  0  0  0  0
   -2.0464   -2.4514    0.4837 C   0  0  0  0  0  0  0  0  0  0  0  0
   -3.0988   -1.5447    0.3173 O   0  0  0  0  0  0  0  0  0  0  0  0
   -4.3113   -1.8443   -0.3653 C   0  0  0  0  0  0  0  0  0  0  0  0
   -5.2857   -0.6694   -0.2162 C   0  0  0  0  0  0  0  0  0  0  0  0
   -5.0805    0.3532   -1.2569 N   0  0  0  0  0  0  0  0  0  0  0  0
   -5.5950    0.0918   -2.6054 C   0  0  0  0  0  0  0  0  0  0  0  0
   -4.5121    1.6557   -0.9781 C   0  0  0  0  0  0  0  0  0  0  0  0
   -4.8722    2.6457   -1.6731 O   0  0  0  0  0  0  0  0  0  0  0  0
   -2.5544    1.4182    2.6441 H   0  0  0  0  0  0  0  0  0  0  0  0
   -2.1768    3.1519    2.3047 H   0  0  0  0  0  0  0  0  0  0  0  0
   -3.4648    2.7179    3.4854 H   0  0  0  0  0  0  0  0  0  0  0  0
   -4.8473    1.7370    1.7349 H   0  0  0  0  0  0  0  0  0  0  0  0
   -5.5223    3.7882    0.5278 H   0  0  0  0  0  0  0  0  0  0  0  0
   -3.9613    4.5894    0.9643 H   0  0  0  0  0  0  0  0  0  0  0  0
   -5.1332    4.1174    2.2388 H   0  0  0  0  0  0  0  0  0  0  0  0
   -3.0025    0.8840    0.3180 H   0  0  0  0  0  0  0  0  0  0  0  0
   -2.1879    3.6489    0.0042 H   0  0  0  0  0  0  0  0  0  0  0  0
   -2.6338    1.0737   -2.6103 H   0  0  0  0  0  0  0  0  0  0  0  0
   -1.0451    1.3728   -3.3118 H   0  0  0  0  0  0  0  0  0  0  0  0
   -1.3353   -0.2096   -0.7038 H   0  0  0  0  0  0  0  0  0  0  0  0
    0.7809    0.4681    0.1268 H   0  0  0  0  0  0  0  0  0  0  0  0
    3.1344    0.4785   -1.5779 H   0  0  0  0  0  0  0  0  0  0  0  0
    2.9223   -1.1749   -0.8877 H   0  0  0  0  0  0  0  0  0  0  0  0
    3.0501    1.4495    0.7634 H   0  0  0  0  0  0  0  0  0  0  0  0
    2.8490   -0.1807    1.4404 H   0  0  0  0  0  0  0  0  0  0  0  0
    4.8417    1.9058   -0.6819 H   0  0  0  0  0  0  0  0  0  0  0  0
    5.7946    0.5110   -1.2187 H   0  0  0  0  0  0  0  0  0  0  0  0
    7.4311    2.0251   -0.5161 H   0  0  0  0  0  0  0  0  0  0  0  0
    6.4264    2.6949    0.7994 H   0  0  0  0  0  0  0  0  0  0  0  0
    8.4980    1.3553    1.4799 H   0  0  0  0  0  0  0  0  0  0  0  0
    6.9796    0.9688    2.3235 H   0  0  0  0  0  0  0  0  0  0  0  0
    7.8398   -0.6631   -0.1661 H   0  0  0  0  0  0  0  0  0  0  0  0
    8.5869   -0.9586    1.4304 H   0  0  0  0  0  0  0  0  0  0  0  0
    6.7767   -2.5103    1.2458 H   0  0  0  0  0  0  0  0  0  0  0  0
    6.2970   -1.2915    2.4609 H   0  0  0  0  0  0  0  0  0  0  0  0
    5.3428   -1.5204   -0.4711 H   0  0  0  0  0  0  0  0  0  0  0  0
    4.4310   -1.8574    1.0217 H   0  0  0  0  0  0  0  0  0  0  0  0
   -2.0100   -1.1439   -3.4544 H   0  0  0  0  0  0  0  0  0  0  0  0
    0.2386   -4.3828   -1.1769 H   0  0  0  0  0  0  0  0  0  0  0  0
    0.8462   -4.9680    1.1371 H   0  0  0  0  0  0  0  0  0  0  0  0
   -0.3492   -3.9318    3.0421 H   0  0  0  0  0  0  0  0  0  0  0  0
   -2.1861   -2.3312    2.6304 H   0  0  0  0  0  0  0  0  0  0  0  0
   -4.7663   -2.7471    0.0981 H   0  0  0  0  0  0  0  0  0  0  0  0
   -4.1280   -2.0621   -1.4364 H   0  0  0  0  0  0  0  0  0  0  0  0
   -6.3259   -1.0554   -0.2919 H   0  0  0  0  0  0  0  0  0  0  0  0
   -5.1994   -0.2395    0.7996 H   0  0  0  0  0  0  0  0  0  0  0  0
   -6.0173   -0.9327   -2.6863 H   0  0  0  0  0  0  0  0  0  0  0  0
   -4.7747    0.1862   -3.3469 H   0  0  0  0  0  0  0  0  0  0  0  0
   -6.3982    0.8179   -2.8518 H   0  0  0  0  0  0  0  0  0  0  0  0
  1  2  1  0
  2  3  1  0
  2  4  1  0
  4  5  1  0
  5  6  1  0
  6  7  2  0
  6  8  1  0
  8  9  1  0
  9 10  1  0
 10 11  2  0
 10 12  1  0
 12 13  1  0
 13 14  1  0
 14 15  1  0
 15 16  1  0
 16 17  1  0
 17 18  1  0
 18 19  1  0
 19 20  1  0
 20 21  1  0
  9 22  1  0
 22 23  1  0
 23 24  2  0
 23 25  1  0
 25 26  2  0
 26 27  1  0
 27 28  2  0
 28 29  1  0
 29 30  2  0
 30 31  1  0
 31 32  1  0
 32 33  1  0
 33 34  1  0
 34 35  1  0
 34 36  1  0
 36 37  2  0
 36  4  1  0
 21 15  1  0
 30 25  1  0
  1 38  1  0
  1 39  1  0
  1 40  1  0
  2 41  1  0
  3 42  1  0
  3 43  1  0
  3 44  1  0
  4 45  1  0
  5 46  1  0
  8 47  1  0
  8 48  1  0
  9 49  1  0
 12 50  1  0
 13 51  1  0
 13 52  1  0
 14 53  1  0
 14 54  1  0
 16 55  1  0
 16 56  1  0
 17 57  1  0
 17 58  1  0
 18 59  1  0
 18 60  1  0
 19 61  1  0
 19 62  1  0
 20 63  1  0
 20 64  1  0
 21 65  1  0
 21 66  1  0
 22 67  1  0
 26 68  1  0
 27 69  1  0
 28 70  1  0
 29 71  1  0
 32 72  1  0
 32 73  1  0
 33 74  1  0
 33 75  1  0
 35 76  1  0
 35 77  1  0
 35 78  1  0
M  END
$$$$
