
     RDKit          3D

 82 86  0  0  0  0  0  0  0  0999 V2000
    0.9533    0.4365    1.2990 O   0  0  0  0  0  0  0  0  0  0  0  0
    0.8656    0.1415    0.0778 C   0  0  0  0  0  0  0  0  0  0  0  0
   -0.0513    0.9363   -0.8080 C   0  0  0  0  0  0  0  0  0  0  0  0
   -1.4550    0.7992   -0.3613 N   0  0  0  0  0  0  0  0  0  0  0  0
   -2.2783    1.8829   -0.9541 C   0  0  0  0  0  0  0  0  0  0  0  0
   -3.6652    1.9723   -0.2973 C   0  0  0  0  0  0  0  0  0  0  0  0
   -4.4572    3.1922   -0.7930 C   0  0  0  0  0  0  0  0  0  0  0  0
   -5.6684    3.5356    0.0961 C   0  0  0  0  0  0  0  0  0  0  0  0
   -6.8953    2.6134   -0.0878 C   0  0  0  0  0  0  0  0  0  0  0  0
   -6.9182    1.4023    0.8628 C   0  0  0  0  0  0  0  0  0  0  0  0
   -6.3087    0.2622    0.2626 O   0  0  0  0  0  0  0  0  0  0  0  0
   -6.8600   -0.5426   -0.7487 C   0  0  0  0  0  0  0  0  0  0  0  0
   -8.2063   -0.4238   -1.1472 C   0  0  0  0  0  0  0  0  0  0  0  0
   -8.7155   -1.2300   -2.1680 C   0  0  0  0  0  0  0  0  0  0  0  0
   -7.8889   -2.1499   -2.8132 C   0  0  0  0  0  0  0  0  0  0  0  0
   -6.5497   -2.2677   -2.4379 C   0  0  0  0  0  0  0  0  0  0  0  0
   -6.0306   -1.4846   -1.4001 C   0  0  0  0  0  0  0  0  0  0  0  0
   -4.6711   -1.6182   -1.0854 O   0  0  0  0  0  0  0  0  0  0  0  0
   -4.1522   -1.5655    0.2138 C   0  0  0  0  0  0  0  0  0  0  0  0
   -4.9016   -2.0079    1.2630 N   0  0  0  0  0  0  0  0  0  0  0  0
   -4.4405   -1.9836    2.5405 C   0  0  0  0  0  0  0  0  0  0  0  0
   -3.1596   -1.5060    2.8100 C   0  0  0  0  0  0  0  0  0  0  0  0
   -2.3631   -1.0549    1.7580 C   0  0  0  0  0  0  0  0  0  0  0  0
   -2.8536   -1.0646    0.4422 C   0  0  0  0  0  0  0  0  0  0  0  0
   -1.9882   -0.5517   -0.6864 C   0  0  0  0  0  0  0  0  0  0  0  0
    1.6420   -0.9359   -0.4663 N   0  0  0  0  0  0  0  0  0  0  0  0
    2.2945   -1.9356    0.3782 C   0  0  0  0  0  0  0  0  0  0  0  0
    3.4219   -1.3251    1.1688 C   0  0  0  0  0  0  0  0  0  0  0  0
    3.4467   -1.4344    2.5689 C   0  0  0  0  0  0  0  0  0  0  0  0
    4.5117   -0.9009    3.2989 C   0  0  0  0  0  0  0  0  0  0  0  0
    5.5602   -0.2547    2.6399 C   0  0  0  0  0  0  0  0  0  0  0  0
    5.5482   -0.1326    1.2418 C   0  0  0  0  0  0  0  0  0  0  0  0
    6.6935    0.5461    0.5385 C   0  0  0  0  0  0  0  0  0  0  0  0
    7.8979   -0.3129    0.5689 N   0  0  0  0  0  0  0  0  0  0  0  0
    9.1529    0.4574    0.4306 C   0  0  0  0  0  0  0  0  0  0  0  0
    9.3634    0.9729   -0.9998 C   0  0  0  0  0  0  0  0  0  0  0  0
    9.3465   -0.1898   -1.9913 C   0  0  0  0  0  0  0  0  0  0  0  0
    8.0601   -1.0050   -1.8485 C   0  0  0  0  0  0  0  0  0  0  0  0
    7.8417   -1.4420   -0.3887 C   0  0  0  0  0  0  0  0  0  0  0  0
    4.4795   -0.6768    0.5098 C   0  0  0  0  0  0  0  0  0  0  0  0
    0.0529    0.6238   -1.8718 H   0  0  0  0  0  0  0  0  0  0  0  0
    0.2859    1.9944   -0.7401 H   0  0  0  0  0  0  0  0  0  0  0  0
   -1.7749    2.8615   -0.7902 H   0  0  0  0  0  0  0  0  0  0  0  0
   -2.3848    1.7426   -2.0543 H   0  0  0  0  0  0  0  0  0  0  0  0
   -3.5457    2.0107    0.8074 H   0  0  0  0  0  0  0  0  0  0  0  0
   -4.2317    1.0714   -0.5754 H   0  0  0  0  0  0  0  0  0  0  0  0
   -3.7876    4.0813   -0.7927 H   0  0  0  0  0  0  0  0  0  0  0  0
   -4.7856    3.0277   -1.8430 H   0  0  0  0  0  0  0  0  0  0  0  0
   -5.3644    3.5952    1.1632 H   0  0  0  0  0  0  0  0  0  0  0  0
   -5.9865    4.5637   -0.1828 H   0  0  0  0  0  0  0  0  0  0  0  0
   -7.8003    3.2192    0.1385 H   0  0  0  0  0  0  0  0  0  0  0  0
   -6.9932    2.2905   -1.1460 H   0  0  0  0  0  0  0  0  0  0  0  0
   -6.3745    1.6360    1.8024 H   0  0  0  0  0  0  0  0  0  0  0  0
   -7.9582    1.1617    1.1676 H   0  0  0  0  0  0  0  0  0  0  0  0
   -8.8703    0.2903   -0.6830 H   0  0  0  0  0  0  0  0  0  0  0  0
   -9.7533   -1.1364   -2.4626 H   0  0  0  0  0  0  0  0  0  0  0  0
   -8.2857   -2.7693   -3.6078 H   0  0  0  0  0  0  0  0  0  0  0  0
   -5.9117   -2.9770   -2.9505 H   0  0  0  0  0  0  0  0  0  0  0  0
   -5.0675   -2.3412    3.3463 H   0  0  0  0  0  0  0  0  0  0  0  0
   -2.7860   -1.4884    3.8257 H   0  0  0  0  0  0  0  0  0  0  0  0
   -1.3684   -0.6891    1.9719 H   0  0  0  0  0  0  0  0  0  0  0  0
   -1.1721   -1.2977   -0.8154 H   0  0  0  0  0  0  0  0  0  0  0  0
   -2.5349   -0.5431   -1.6559 H   0  0  0  0  0  0  0  0  0  0  0  0
    1.6587   -1.0807   -1.5012 H   0  0  0  0  0  0  0  0  0  0  0  0
    2.7097   -2.7440   -0.2626 H   0  0  0  0  0  0  0  0  0  0  0  0
    1.5359   -2.4015    1.0458 H   0  0  0  0  0  0  0  0  0  0  0  0
    2.6469   -1.9402    3.0957 H   0  0  0  0  0  0  0  0  0  0  0  0
    4.5268   -0.9936    4.3775 H   0  0  0  0  0  0  0  0  0  0  0  0
    6.3822    0.1508    3.2177 H   0  0  0  0  0  0  0  0  0  0  0  0
    6.8859    1.5043    1.0705 H   0  0  0  0  0  0  0  0  0  0  0  0
    6.4123    0.8217   -0.4996 H   0  0  0  0  0  0  0  0  0  0  0  0
   10.0112   -0.1921    0.7129 H   0  0  0  0  0  0  0  0  0  0  0  0
    9.1667    1.3129    1.1408 H   0  0  0  0  0  0  0  0  0  0  0  0
   10.3434    1.4921   -1.0616 H   0  0  0  0  0  0  0  0  0  0  0  0
    8.5732    1.7082   -1.2632 H   0  0  0  0  0  0  0  0  0  0  0  0
    9.4231    0.2051   -3.0270 H   0  0  0  0  0  0  0  0  0  0  0  0
   10.2253   -0.8463   -1.8072 H   0  0  0  0  0  0  0  0  0  0  0  0
    7.1940   -0.4125   -2.2112 H   0  0  0  0  0  0  0  0  0  0  0  0
    8.1310   -1.9087   -2.4917 H   0  0  0  0  0  0  0  0  0  0  0  0
    6.8711   -1.9758   -0.3074 H   0  0  0  0  0  0  0  0  0  0  0  0
    8.6267   -2.1804   -0.1146 H   0  0  0  0  0  0  0  0  0  0  0  0
    4.4730   -0.6013   -0.5710 H   0  0  0  0  0  0  0  0  0  0  0  0
  1  2  2  0
  2  3  1  0
  3  4  1  0
  4  5  1  0
  5  6  1  0
  6  7  1  0
  7  8  1  0
  8  9  1  0
  9 10  1  0
 10 11  1  0
 11 12  1  0
 12 13  2  0
 13 14  1  0
 14 15  2  0
 15 16  1  0
 16 17  2  0
 17 18  1  0
 18 19  1  0
 19 20  2  0
 20 21  1  0
 21 22  2  0
 22 23  1  0
 23 24  2  0
 24 25  1  0
  2 26  1  0
 26 27  1  0
 27 28  1  0
 28 29  2  0
 29 30  1  0
 30 31  2  0
 31 32  1  0
 32 33  1  0
 33 34  1  0
 34 35  1  0
 35 36  1  0
 36 37  1  0
 37 38  1  0
 38 39  1  0
 32 40  2  0
 25  4  1  0
 40 28  1  0
 17 12  1  0
 24 19  1  0
 39 34  1  0
  3 41  1  0
  3 42  1  0
  5 43  1  0
  5 44  1  0
  6 45  1  0
  6 46  1  0
  7 47  1  0
  7 48  1  0
  8 49  1  0
  8 50  1  0
  9 51  1  0
  9 52  1  0
 10 53  1  0
 10 54  1  0
 13 55  1  0
 14 56  1  0
 15 57  1  0
 16 58  1  0
 21 59  1  0
 22 60  1  0
 23 61  1  0
 25 62  1  0
 25 63  1  0
 26 64  1  0
 27 65  1  0
 27 66  1  0
 29 67  1  0
 30 68  1  0
 31 69  1  0
 33 70  1  0
 33 71  1  0
 35 72  1  0
 35 73  1  0
 36 74  1  0
 36 75  1  0
 37 76  1  0
 37 77  1  0
 38 78  1  0
 38 79  1  0
 39 80  1  0
 39 81  1  0
 40 82  1  0
M  END
$$$$
