
     RDKit          3D

 71 74  0  0  0  0  0  0  0  0999 V2000
   -3.3175    4.0362    0.1542 C   0  0  0  0  0  0  0  0  0  0  0  0
   -2.1159    3.1578    0.5383 C   0  0  0  0  0  0  0  0  0  0  0  0
   -1.7100    3.4485    1.9912 C   0  0  0  0  0  0  0  0  0  0  0  0
   -2.4775    1.6587    0.3024 C   0  0  0  0  0  0  0  0  0  0  0  0
   -1.3597    0.6925    0.4444 N   0  0  0  0  0  0  0  0  0  0  0  0
   -1.1040    0.2597    1.8374 C   0  0  0  0  0  0  0  0  0  0  0  0
   -1.2459   -1.2633    1.9793 C   0  0  0  0  0  0  0  0  0  0  0  0
   -2.6037   -1.7000    2.0000 O   0  0  0  0  0  0  0  0  0  0  0  0
   -3.4405   -1.7965    0.8810 C   0  0  0  0  0  0  0  0  0  0  0  0
   -4.6113   -1.0216    0.8941 C   0  0  0  0  0  0  0  0  0  0  0  0
   -5.5393   -1.0992   -0.1449 C   0  0  0  0  0  0  0  0  0  0  0  0
   -5.3166   -1.9662   -1.2084 C   0  0  0  0  0  0  0  0  0  0  0  0
   -4.1700   -2.7647   -1.2353 C   0  0  0  0  0  0  0  0  0  0  0  0
   -3.2214   -2.7093   -0.1959 C   0  0  0  0  0  0  0  0  0  0  0  0
   -2.1251   -3.7595   -0.1874 C   0  0  0  0  0  0  0  0  0  0  0  0
   -1.1850   -3.7106   -1.4259 C   0  0  0  0  0  0  0  0  0  0  0  0
    0.0142   -2.7521   -1.2779 C   0  0  0  0  0  0  0  0  0  0  0  0
   -0.3784   -1.2679   -1.4655 C   0  0  0  0  0  0  0  0  0  0  0  0
    0.6463   -0.1584   -0.9725 C   0  0  0  0  0  0  0  0  0  0  0  0
    1.7340   -0.6995    0.0177 C   0  0  0  0  0  0  0  0  0  0  0  0
    2.8595    0.2946    0.3417 C   0  0  0  0  0  0  0  0  0  0  0  0
    3.4367    0.8753   -0.8822 N   0  0  0  0  0  0  0  0  0  0  0  0
    4.8566    1.1480   -1.0084 C   0  0  0  0  0  0  0  0  0  0  0  0
    5.3008    1.6592   -2.0775 O   0  0  0  0  0  0  0  0  0  0  0  0
    5.8432    0.8200    0.0507 C   0  0  0  0  0  0  0  0  0  0  0  0
    7.0102    0.1154   -0.2799 C   0  0  0  0  0  0  0  0  0  0  0  0
    7.9106   -0.2045    0.6852 N   0  0  0  0  0  0  0  0  0  0  0  0
    7.7042    0.1542    1.9820 C   0  0  0  0  0  0  0  0  0  0  0  0
    6.6026    0.8723    2.3243 N   0  0  0  0  0  0  0  0  0  0  0  0
    5.6807    1.2252    1.3881 C   0  0  0  0  0  0  0  0  0  0  0  0
    2.5017    1.3827   -1.8981 C   0  0  0  0  0  0  0  0  0  0  0  0
    1.4295    0.3357   -2.2280 C   0  0  0  0  0  0  0  0  0  0  0  0
   -0.1548    1.0589   -0.3564 C   0  0  0  0  0  0  0  0  0  0  0  0
   -3.6399    3.8157   -0.8870 H   0  0  0  0  0  0  0  0  0  0  0  0
   -4.1737    3.8526    0.8362 H   0  0  0  0  0  0  0  0  0  0  0  0
   -3.0400    5.1142    0.1981 H   0  0  0  0  0  0  0  0  0  0  0  0
   -1.2747    3.4676   -0.1188 H   0  0  0  0  0  0  0  0  0  0  0  0
   -2.4829    3.0810    2.6996 H   0  0  0  0  0  0  0  0  0  0  0  0
   -1.5780    4.5430    2.1396 H   0  0  0  0  0  0  0  0  0  0  0  0
   -0.7399    2.9639    2.2178 H   0  0  0  0  0  0  0  0  0  0  0  0
   -2.8850    1.5391   -0.7263 H   0  0  0  0  0  0  0  0  0  0  0  0
   -3.3163    1.3846    0.9763 H   0  0  0  0  0  0  0  0  0  0  0  0
   -1.8080    0.7256    2.5598 H   0  0  0  0  0  0  0  0  0  0  0  0
   -0.0848    0.5579    2.1649 H   0  0  0  0  0  0  0  0  0  0  0  0
   -0.7097   -1.7645    1.1710 H   0  0  0  0  0  0  0  0  0  0  0  0
   -0.7738   -1.5791    2.9364 H   0  0  0  0  0  0  0  0  0  0  0  0
   -4.8191   -0.3691    1.7332 H   0  0  0  0  0  0  0  0  0  0  0  0
   -6.4552   -0.5136   -0.1045 H   0  0  0  0  0  0  0  0  0  0  0  0
   -6.0527   -2.0468   -1.9960 H   0  0  0  0  0  0  0  0  0  0  0  0
   -4.0649   -3.4795   -2.0417 H   0  0  0  0  0  0  0  0  0  0  0  0
   -1.5419   -3.7562    0.7570 H   0  0  0  0  0  0  0  0  0  0  0  0
   -2.6315   -4.7467   -0.1903 H   0  0  0  0  0  0  0  0  0  0  0  0
   -0.7630   -4.7297   -1.5621 H   0  0  0  0  0  0  0  0  0  0  0  0
   -1.7485   -3.4846   -2.3559 H   0  0  0  0  0  0  0  0  0  0  0  0
    0.4744   -2.9566   -0.2949 H   0  0  0  0  0  0  0  0  0  0  0  0
    0.7718   -3.0057   -2.0494 H   0  0  0  0  0  0  0  0  0  0  0  0
   -1.3593   -1.1273   -0.9985 H   0  0  0  0  0  0  0  0  0  0  0  0
   -0.6090   -1.1236   -2.5433 H   0  0  0  0  0  0  0  0  0  0  0  0
    2.2375   -1.5828   -0.4360 H   0  0  0  0  0  0  0  0  0  0  0  0
    1.3025   -1.0249    0.9766 H   0  0  0  0  0  0  0  0  0  0  0  0
    3.6213   -0.2843    0.9014 H   0  0  0  0  0  0  0  0  0  0  0  0
    2.5011    1.1052    1.0086 H   0  0  0  0  0  0  0  0  0  0  0  0
    7.2027   -0.1869   -1.3027 H   0  0  0  0  0  0  0  0  0  0  0  0
    8.4297   -0.1189    2.7364 H   0  0  0  0  0  0  0  0  0  0  0  0
    4.8202    1.8072    1.6903 H   0  0  0  0  0  0  0  0  0  0  0  0
    3.0241    1.6281   -2.8478 H   0  0  0  0  0  0  0  0  0  0  0  0
    2.0343    2.3239   -1.5333 H   0  0  0  0  0  0  0  0  0  0  0  0
    1.9272   -0.5304   -2.7183 H   0  0  0  0  0  0  0  0  0  0  0  0
    0.7337    0.7709   -2.9780 H   0  0  0  0  0  0  0  0  0  0  0  0
    0.5047    1.7314    0.2351 H   0  0  0  0  0  0  0  0  0  0  0  0
   -0.4874    1.6776   -1.2212 H   0  0  0  0  0  0  0  0  0  0  0  0
  1  2  1  0
  2  3  1  0
  2  4  1  0
  4  5  1  0
  5  6  1  0
  6  7  1  0
  7  8  1  0
  8  9  1  0
  9 10  2  0
 10 11  1  0
 11 12  2  0
 12 13  1  0
 13 14  2  0
 14 15  1  0
 15 16  1  0
 16 17  1  0
 17 18  1  0
 18 19  1  0
 19 20  1  0
 20 21  1  0
 21 22  1  0
 22 23  1  0
 23 24  2  0
 23 25  1  0
 25 26  2  0
 26 27  1  0
 27 28  2  0
 28 29  1  0
 29 30  2  0
 22 31  1  0
 31 32  1  0
 19 33  1  0
 33  5  1  0
 14  9  1  0
 32 19  1  0
 30 25  1  0
  1 34  1  0
  1 35  1  0
  1 36  1  0
  2 37  1  0
  3 38  1  0
  3 39  1  0
  3 40  1  0
  4 41  1  0
  4 42  1  0
  6 43  1  0
  6 44  1  0
  7 45  1  0
  7 46  1  0
 10 47  1  0
 11 48  1  0
 12 49  1  0
 13 50  1  0
 15 51  1  0
 15 52  1  0
 16 53  1  0
 16 54  1  0
 17 55  1  0
 17 56  1  0
 18 57  1  0
 18 58  1  0
 20 59  1  0
 20 60  1  0
 21 61  1  0
 21 62  1  0
 26 63  1  0
 28 64  1  0
 30 65  1  0
 31 66  1  0
 31 67  1  0
 32 68  1  0
 32 69  1  0
 33 70  1  0
 33 71  1  0
M  END
$$$$
