
     RDKit          3D

 70 73  0  0  0  0  0  0  0  0999 V2000
   -6.9483   -1.2991    1.3108 C   0  0  0  0  0  0  0  0  0  0  0  0
   -5.6476   -1.9803    1.1906 N   0  0  0  0  0  0  0  0  0  0  0  0
   -5.1795   -2.0774   -0.2053 C   0  0  0  0  0  0  0  0  0  0  0  0
   -4.6531   -0.7387   -0.7514 C   0  0  0  0  0  0  0  0  0  0  0  0
   -3.5407   -0.0946    0.1356 C   0  0  0  0  0  0  0  0  0  0  0  0
   -2.2225   -0.9323    0.0579 C   0  0  0  0  0  0  0  0  0  0  0  0
   -1.5550   -0.9661   -1.3408 C   0  0  0  0  0  0  0  0  0  0  0  0
   -0.0849   -1.4292   -1.2579 C   0  0  0  0  0  0  0  0  0  0  0  0
    0.7930   -0.8412   -2.3822 C   0  0  0  0  0  0  0  0  0  0  0  0
    1.5281    0.3704   -1.9539 N   0  0  0  0  0  0  0  0  0  0  0  0
    2.8424    0.2123   -1.3637 C   0  0  0  0  0  0  0  0  0  0  0  0
    3.7646    1.0175   -1.6777 O   0  0  0  0  0  0  0  0  0  0  0  0
    3.1352   -0.9055   -0.3895 C   0  0  0  0  0  0  0  0  0  0  0  0
    4.5523   -0.8759    0.1274 C   0  0  0  0  0  0  0  0  0  0  0  0
    5.6234   -1.2857   -0.7099 C   0  0  0  0  0  0  0  0  0  0  0  0
    6.9499   -1.2502   -0.2429 C   0  0  0  0  0  0  0  0  0  0  0  0
    7.1671   -0.8086    1.0593 C   0  0  0  0  0  0  0  0  0  0  0  0
    6.1492   -0.4148    1.8661 C   0  0  0  0  0  0  0  0  0  0  0  0
    4.8244   -0.4247    1.4398 C   0  0  0  0  0  0  0  0  0  0  0  0
    6.6548   -0.0381    3.0969 O   0  0  0  0  0  0  0  0  0  0  0  0
    8.0785   -0.2092    3.0610 C   0  0  0  0  0  0  0  0  0  0  0  0
    8.3632   -0.6955    1.7404 O   0  0  0  0  0  0  0  0  0  0  0  0
    1.1716    1.6672   -2.5709 C   0  0  0  0  0  0  0  0  0  0  0  0
    1.2913    2.8820   -1.6062 C   0  0  0  0  0  0  0  0  0  0  0  0
    0.0740    3.1683   -0.6898 C   0  0  0  0  0  0  0  0  0  0  0  0
   -1.0493    3.5376   -1.4511 O   0  0  0  0  0  0  0  0  0  0  0  0
   -0.2219    2.0086    0.2858 C   0  0  0  0  0  0  0  0  0  0  0  0
    0.9027    1.7996    1.0998 O   0  0  0  0  0  0  0  0  0  0  0  0
   -1.4539    2.2486    1.1817 C   0  0  0  0  0  0  0  0  0  0  0  0
   -2.6721    2.3500    0.4370 O   0  0  0  0  0  0  0  0  0  0  0  0
   -3.2892    1.3493   -0.3405 C   0  0  0  0  0  0  0  0  0  0  0  0
   -3.7344    1.7039   -1.4655 O   0  0  0  0  0  0  0  0  0  0  0  0
   -4.0798   -0.0524    1.5936 C   0  0  0  0  0  0  0  0  0  0  0  0
   -4.6233   -1.4085    2.0848 C   0  0  0  0  0  0  0  0  0  0  0  0
   -7.7091   -1.8123    0.6833 H   0  0  0  0  0  0  0  0  0  0  0  0
   -7.3066   -1.3453    2.3617 H   0  0  0  0  0  0  0  0  0  0  0  0
   -6.8909   -0.2354    1.0009 H   0  0  0  0  0  0  0  0  0  0  0  0
   -4.3896   -2.8535   -0.2724 H   0  0  0  0  0  0  0  0  0  0  0  0
   -6.0034   -2.4357   -0.8606 H   0  0  0  0  0  0  0  0  0  0  0  0
   -4.2894   -0.8973   -1.7885 H   0  0  0  0  0  0  0  0  0  0  0  0
   -5.5148   -0.0412   -0.8368 H   0  0  0  0  0  0  0  0  0  0  0  0
   -2.3994   -1.9814    0.3671 H   0  0  0  0  0  0  0  0  0  0  0  0
   -1.5124   -0.5368    0.8086 H   0  0  0  0  0  0  0  0  0  0  0  0
   -1.6123    0.0296   -1.8260 H   0  0  0  0  0  0  0  0  0  0  0  0
   -2.1080   -1.6682   -2.0019 H   0  0  0  0  0  0  0  0  0  0  0  0
    0.3515   -1.1737   -0.2745 H   0  0  0  0  0  0  0  0  0  0  0  0
   -0.0686   -2.5390   -1.3259 H   0  0  0  0  0  0  0  0  0  0  0  0
    0.1720   -0.6344   -3.2814 H   0  0  0  0  0  0  0  0  0  0  0  0
    1.5209   -1.6116   -2.7172 H   0  0  0  0  0  0  0  0  0  0  0  0
    2.9595   -1.8860   -0.8781 H   0  0  0  0  0  0  0  0  0  0  0  0
    2.4328   -0.8265    0.4670 H   0  0  0  0  0  0  0  0  0  0  0  0
    5.4260   -1.6249   -1.7189 H   0  0  0  0  0  0  0  0  0  0  0  0
    7.7748   -1.5591   -0.8720 H   0  0  0  0  0  0  0  0  0  0  0  0
    4.0329   -0.1007    2.1047 H   0  0  0  0  0  0  0  0  0  0  0  0
    8.3938   -0.9566    3.8202 H   0  0  0  0  0  0  0  0  0  0  0  0
    8.5863    0.7645    3.2301 H   0  0  0  0  0  0  0  0  0  0  0  0
    1.8625    1.8406   -3.4244 H   0  0  0  0  0  0  0  0  0  0  0  0
    0.1577    1.6277   -3.0156 H   0  0  0  0  0  0  0  0  0  0  0  0
    1.4475    3.7883   -2.2317 H   0  0  0  0  0  0  0  0  0  0  0  0
    2.1995    2.8014   -0.9758 H   0  0  0  0  0  0  0  0  0  0  0  0
    0.3440    4.0522   -0.0718 H   0  0  0  0  0  0  0  0  0  0  0  0
   -1.3783    2.7310   -1.9203 H   0  0  0  0  0  0  0  0  0  0  0  0
   -0.3969    1.1167   -0.3198 H   0  0  0  0  0  0  0  0  0  0  0  0
    0.8440    0.8705    1.4443 H   0  0  0  0  0  0  0  0  0  0  0  0
   -1.5249    1.4542    1.9466 H   0  0  0  0  0  0  0  0  0  0  0  0
   -1.3092    3.2025    1.7343 H   0  0  0  0  0  0  0  0  0  0  0  0
   -3.2899    0.2562    2.3030 H   0  0  0  0  0  0  0  0  0  0  0  0
   -4.8864    0.7086    1.6743 H   0  0  0  0  0  0  0  0  0  0  0  0
   -3.7880   -2.1327    2.1882 H   0  0  0  0  0  0  0  0  0  0  0  0
   -5.0379   -1.2838    3.1101 H   0  0  0  0  0  0  0  0  0  0  0  0
  1  2  1  0
  2  3  1  0
  3  4  1  0
  4  5  1  0
  5  6  1  0
  6  7  1  0
  7  8  1  0
  8  9  1  0
  9 10  1  0
 10 11  1  0
 11 12  2  0
 11 13  1  0
 13 14  1  0
 14 15  2  0
 15 16  1  0
 16 17  2  0
 17 18  1  0
 18 19  2  0
 18 20  1  0
 20 21  1  0
 21 22  1  0
 10 23  1  0
 23 24  1  0
 24 25  1  0
 25 26  1  0
 25 27  1  0
 27 28  1  0
 27 29  1  0
 29 30  1  0
 30 31  1  0
 31 32  2  0
  5 33  1  0
 33 34  1  0
 34  2  1  0
 31  5  1  0
 19 14  1  0
 22 17  1  0
  1 35  1  0
  1 36  1  0
  1 37  1  0
  3 38  1  0
  3 39  1  0
  4 40  1  0
  4 41  1  0
  6 42  1  0
  6 43  1  0
  7 44  1  0
  7 45  1  0
  8 46  1  0
  8 47  1  0
  9 48  1  0
  9 49  1  0
 13 50  1  0
 13 51  1  0
 15 52  1  0
 16 53  1  0
 19 54  1  0
 21 55  1  0
 21 56  1  0
 23 57  1  0
 23 58  1  0
 24 59  1  0
 24 60  1  0
 25 61  1  0
 26 62  1  0
 27 63  1  0
 28 64  1  0
 29 65  1  0
 29 66  1  0
 33 67  1  0
 33 68  1  0
 34 69  1  0
 34 70  1  0
M  END
$$$$
