
     RDKit          3D

104107  0  0  0  0  0  0  0  0999 V2000
    1.1083   -4.5234   -4.5844 C   0  0  0  0  0  0  0  0  0  0  0  0
    0.3139   -3.5838   -3.8703 O   0  0  0  0  0  0  0  0  0  0  0  0
    0.3115   -3.4452   -2.4732 C   0  0  0  0  0  0  0  0  0  0  0  0
    1.0101   -4.3229   -1.6279 C   0  0  0  0  0  0  0  0  0  0  0  0
    1.0136   -4.1103   -0.2492 C   0  0  0  0  0  0  0  0  0  0  0  0
    0.3266   -3.0248    0.2982 C   0  0  0  0  0  0  0  0  0  0  0  0
   -0.4216   -2.1560   -0.5161 C   0  0  0  0  0  0  0  0  0  0  0  0
   -1.1286   -0.9103    0.0287 C   0  0  0  0  0  0  0  0  0  0  0  0
   -2.3100   -1.0988    1.0575 C   0  0  0  0  0  0  0  0  0  0  0  0
   -2.1190   -1.8610    2.4158 C   0  0  0  0  0  0  0  0  0  0  0  0
   -1.0246   -1.3215    3.3471 C   0  0  0  0  0  0  0  0  0  0  0  0
   -2.0606   -3.4000    2.2720 C   0  0  0  0  0  0  0  0  0  0  0  0
   -3.0344    0.2622    1.2815 C   0  0  0  0  0  0  0  0  0  0  0  0
   -4.4859    0.1010    1.4790 N   0  0  0  0  0  0  0  0  0  0  0  0
   -5.0173    0.1870    2.8143 C   0  0  0  0  0  0  0  0  0  0  0  0
   -6.0520   -0.7741    3.3100 C   0  0  0  0  0  0  0  0  0  0  0  0
   -4.6084    1.0878    3.5923 O   0  0  0  0  0  0  0  0  0  0  0  0
   -5.3765   -0.2357    0.3486 C   0  0  0  0  0  0  0  0  0  0  0  0
   -5.3716    0.8370   -0.7668 C   0  0  0  0  0  0  0  0  0  0  0  0
   -6.1885    0.3781   -1.8355 O   0  0  0  0  0  0  0  0  0  0  0  0
   -5.4177   -0.2831   -2.8142 C   0  0  0  0  0  0  0  0  0  0  0  0
   -5.9326    2.1865   -0.2334 C   0  0  0  0  0  0  0  0  0  0  0  0
   -7.3110    2.0413    0.0047 O   0  0  0  0  0  0  0  0  0  0  0  0
   -5.7030    3.3981   -1.1890 C   0  0  0  0  0  0  0  0  0  0  0  0
   -5.8171    3.0075   -2.5319 O   0  0  0  0  0  0  0  0  0  0  0  0
   -4.3646    4.1216   -0.9497 C   0  0  0  0  0  0  0  0  0  0  0  0
   -3.2730    3.3253   -1.3707 O   0  0  0  0  0  0  0  0  0  0  0  0
   -2.0498    3.9919   -1.0994 C   0  0  0  0  0  0  0  0  0  0  0  0
   -1.5136    3.5979    0.2948 C   0  0  0  0  0  0  0  0  0  0  0  0
   -0.2126    2.7743    0.2534 C   0  0  0  0  0  0  0  0  0  0  0  0
   -0.3119    1.4442   -0.5447 C   0  0  0  0  0  0  0  0  0  0  0  0
   -0.2067    0.2338    0.2996 N   0  0  0  0  0  0  0  0  0  0  0  0
    1.0099    0.0733    1.0591 C   0  0  0  0  0  0  0  0  0  0  0  0
    1.0750    0.5305    2.2321 O   0  0  0  0  0  0  0  0  0  0  0  0
    2.2430   -0.5563    0.4545 C   0  0  0  0  0  0  0  0  0  0  0  0
    3.3912    0.3680    0.4097 N   0  0  0  0  0  0  0  0  0  0  0  0
    3.3066    1.3070   -0.7116 C   0  0  0  0  0  0  0  0  0  0  0  0
    4.6816    1.9067   -1.0264 C   0  0  0  0  0  0  0  0  0  0  0  0
    5.7576    0.8620   -1.1717 C   0  0  0  0  0  0  0  0  0  0  0  0
    5.6163   -0.3047   -1.9241 C   0  0  0  0  0  0  0  0  0  0  0  0
    7.0515   -1.1737   -1.7971 S   0  0  0  0  0  0  0  0  0  0  0  0
    7.7970   -0.0256   -0.8080 C   0  0  0  0  0  0  0  0  0  0  0  0
    9.1692   -0.1175   -0.2548 C   0  0  0  0  0  0  0  0  0  0  0  0
    9.9352   -1.2906   -0.3945 C   0  0  0  0  0  0  0  0  0  0  0  0
   11.2287   -1.3641    0.1386 C   0  0  0  0  0  0  0  0  0  0  0  0
   11.7763   -0.2643    0.8043 C   0  0  0  0  0  0  0  0  0  0  0  0
   11.0262    0.9080    0.9468 C   0  0  0  0  0  0  0  0  0  0  0  0
    9.7309    0.9819    0.4220 C   0  0  0  0  0  0  0  0  0  0  0  0
    6.9678    1.0151   -0.5725 N   0  0  0  0  0  0  0  0  0  0  0  0
   -0.4093   -2.3847   -1.9112 C   0  0  0  0  0  0  0  0  0  0  0  0
    0.8105   -5.5613   -4.3171 H   0  0  0  0  0  0  0  0  0  0  0  0
    0.9488   -4.3773   -5.6728 H   0  0  0  0  0  0  0  0  0  0  0  0
    2.1841   -4.3643   -4.3570 H   0  0  0  0  0  0  0  0  0  0  0  0
    1.5722   -5.1574   -2.0264 H   0  0  0  0  0  0  0  0  0  0  0  0
    1.5777   -4.7728    0.3952 H   0  0  0  0  0  0  0  0  0  0  0  0
    0.4273   -2.8554    1.3497 H   0  0  0  0  0  0  0  0  0  0  0  0
   -1.7363   -0.6031   -0.8500 H   0  0  0  0  0  0  0  0  0  0  0  0
   -3.0341   -1.7315    0.4986 H   0  0  0  0  0  0  0  0  0  0  0  0
   -3.0580   -1.6854    2.9825 H   0  0  0  0  0  0  0  0  0  0  0  0
   -1.1520   -1.7801    4.3540 H   0  0  0  0  0  0  0  0  0  0  0  0
   -0.0062   -1.5774    3.0029 H   0  0  0  0  0  0  0  0  0  0  0  0
   -1.1050   -0.2244    3.4753 H   0  0  0  0  0  0  0  0  0  0  0  0
   -2.1315   -3.7263    1.2146 H   0  0  0  0  0  0  0  0  0  0  0  0
   -2.9164   -3.8632    2.8081 H   0  0  0  0  0  0  0  0  0  0  0  0
   -1.1337   -3.8212    2.7224 H   0  0  0  0  0  0  0  0  0  0  0  0
   -2.5774    0.8105    2.1312 H   0  0  0  0  0  0  0  0  0  0  0  0
   -2.8760    0.9256    0.4222 H   0  0  0  0  0  0  0  0  0  0  0  0
   -6.0359   -1.7139    2.7153 H   0  0  0  0  0  0  0  0  0  0  0  0
   -5.8416   -1.0263    4.3752 H   0  0  0  0  0  0  0  0  0  0  0  0
   -7.0547   -0.3037    3.2312 H   0  0  0  0  0  0  0  0  0  0  0  0
   -6.4253   -0.3576    0.6998 H   0  0  0  0  0  0  0  0  0  0  0  0
   -5.0819   -1.2190   -0.0743 H   0  0  0  0  0  0  0  0  0  0  0  0
   -4.3299    1.0151   -1.1053 H   0  0  0  0  0  0  0  0  0  0  0  0
   -6.1025   -0.7795   -3.5299 H   0  0  0  0  0  0  0  0  0  0  0  0
   -4.7974    0.4402   -3.3851 H   0  0  0  0  0  0  0  0  0  0  0  0
   -4.7636   -1.0663   -2.3778 H   0  0  0  0  0  0  0  0  0  0  0  0
   -5.4247    2.4147    0.7337 H   0  0  0  0  0  0  0  0  0  0  0  0
   -7.5615    2.7169    0.6880 H   0  0  0  0  0  0  0  0  0  0  0  0
   -6.5006    4.1476   -0.9679 H   0  0  0  0  0  0  0  0  0  0  0  0
   -5.9424    3.8370   -3.0704 H   0  0  0  0  0  0  0  0  0  0  0  0
   -4.3886    5.0692   -1.5409 H   0  0  0  0  0  0  0  0  0  0  0  0
   -4.2804    4.3871    0.1312 H   0  0  0  0  0  0  0  0  0  0  0  0
   -2.1362    5.1018   -1.1742 H   0  0  0  0  0  0  0  0  0  0  0  0
   -1.3226    3.7154   -1.8952 H   0  0  0  0  0  0  0  0  0  0  0  0
   -1.2930    4.5303    0.8624 H   0  0  0  0  0  0  0  0  0  0  0  0
   -2.2877    3.0589    0.8808 H   0  0  0  0  0  0  0  0  0  0  0  0
    0.0993    2.5956    1.3008 H   0  0  0  0  0  0  0  0  0  0  0  0
    0.5794    3.4084   -0.2098 H   0  0  0  0  0  0  0  0  0  0  0  0
   -1.2362    1.4362   -1.1532 H   0  0  0  0  0  0  0  0  0  0  0  0
    0.5051    1.4109   -1.2941 H   0  0  0  0  0  0  0  0  0  0  0  0
    2.0282   -0.9583   -0.5548 H   0  0  0  0  0  0  0  0  0  0  0  0
    2.5264   -1.4249    1.0858 H   0  0  0  0  0  0  0  0  0  0  0  0
    3.4584    0.9088    1.3057 H   0  0  0  0  0  0  0  0  0  0  0  0
    2.9317    0.8034   -1.6273 H   0  0  0  0  0  0  0  0  0  0  0  0
    2.6159    2.1312   -0.4573 H   0  0  0  0  0  0  0  0  0  0  0  0
    4.6237    2.5033   -1.9624 H   0  0  0  0  0  0  0  0  0  0  0  0
    4.9630    2.5974   -0.2031 H   0  0  0  0  0  0  0  0  0  0  0  0
    4.7410   -0.6049   -2.4838 H   0  0  0  0  0  0  0  0  0  0  0  0
    9.5348   -2.1539   -0.9030 H   0  0  0  0  0  0  0  0  0  0  0  0
   11.8060   -2.2769    0.0295 H   0  0  0  0  0  0  0  0  0  0  0  0
   12.7813   -0.3211    1.2031 H   0  0  0  0  0  0  0  0  0  0  0  0
   11.4540    1.7607    1.4627 H   0  0  0  0  0  0  0  0  0  0  0  0
    9.1751    1.9019    0.5462 H   0  0  0  0  0  0  0  0  0  0  0  0
   -0.9370   -1.7163   -2.5797 H   0  0  0  0  0  0  0  0  0  0  0  0
  1  2  1  0
  2  3  1  0
  3  4  2  0
  4  5  1  0
  5  6  2  0
  6  7  1  0
  7  8  1  0
  8  9  1  0
  9 10  1  0
 10 11  1  0
 10 12  1  0
  9 13  1  0
 13 14  1  0
 14 15  1  0
 15 16  1  0
 15 17  2  0
 14 18  1  0
 18 19  1  0
 19 20  1  0
 20 21  1  0
 19 22  1  0
 22 23  1  0
 22 24  1  0
 24 25  1  0
 24 26  1  0
 26 27  1  0
 27 28  1  0
 28 29  1  0
 29 30  1  0
 30 31  1  0
 31 32  1  0
 32 33  1  0
 33 34  2  0
 33 35  1  0
 35 36  1  0
 36 37  1  0
 37 38  1  0
 38 39  1  0
 39 40  2  0
 40 41  1  0
 41 42  1  0
 42 43  1  0
 43 44  2  0
 44 45  1  0
 45 46  2  0
 46 47  1  0
 47 48  2  0
 42 49  2  0
  7 50  2  0
 50  3  1  0
 32  8  1  0
 49 39  1  0
 48 43  1  0
  1 51  1  0
  1 52  1  0
  1 53  1  0
  4 54  1  0
  5 55  1  0
  6 56  1  0
  8 57  1  0
  9 58  1  0
 10 59  1  0
 11 60  1  0
 11 61  1  0
 11 62  1  0
 12 63  1  0
 12 64  1  0
 12 65  1  0
 13 66  1  0
 13 67  1  0
 16 68  1  0
 16 69  1  0
 16 70  1  0
 18 71  1  0
 18 72  1  0
 19 73  1  0
 21 74  1  0
 21 75  1  0
 21 76  1  0
 22 77  1  0
 23 78  1  0
 24 79  1  0
 25 80  1  0
 26 81  1  0
 26 82  1  0
 28 83  1  0
 28 84  1  0
 29 85  1  0
 29 86  1  0
 30 87  1  0
 30 88  1  0
 31 89  1  0
 31 90  1  0
 35 91  1  0
 35 92  1  0
 36 93  1  0
 37 94  1  0
 37 95  1  0
 38 96  1  0
 38 97  1  0
 40 98  1  0
 44 99  1  0
 45100  1  0
 46101  1  0
 47102  1  0
 48103  1  0
 50104  1  0
M  END
$$$$
