
     RDKit          3D

 79 83  0  0  0  0  0  0  0  0999 V2000
    1.0813    3.4881    0.8214 O   0  0  0  0  0  0  0  0  0  0  0  0
    0.9075    2.4680    0.1009 C   0  0  0  0  0  0  0  0  0  0  0  0
    0.3659    2.6458   -1.2993 C   0  0  0  0  0  0  0  0  0  0  0  0
   -0.9960    2.1001   -1.5008 N   0  0  0  0  0  0  0  0  0  0  0  0
   -1.0131    0.6646   -1.8643 C   0  0  0  0  0  0  0  0  0  0  0  0
   -1.6175    0.5000   -3.2677 C   0  0  0  0  0  0  0  0  0  0  0  0
   -1.7595   -0.9680   -3.7253 C   0  0  0  0  0  0  0  0  0  0  0  0
   -2.4131   -1.9210   -2.7043 C   0  0  0  0  0  0  0  0  0  0  0  0
   -3.8254   -1.4846   -2.2533 C   0  0  0  0  0  0  0  0  0  0  0  0
   -4.0889   -1.8767   -0.8024 C   0  0  0  0  0  0  0  0  0  0  0  0
   -5.3235   -1.3169   -0.3650 O   0  0  0  0  0  0  0  0  0  0  0  0
   -5.5498   -1.0326    0.9823 C   0  0  0  0  0  0  0  0  0  0  0  0
   -6.4527   -1.8228    1.6987 C   0  0  0  0  0  0  0  0  0  0  0  0
   -6.6222   -1.6282    3.0717 C   0  0  0  0  0  0  0  0  0  0  0  0
   -5.8964   -0.6342    3.7316 C   0  0  0  0  0  0  0  0  0  0  0  0
   -5.0177    0.1832    3.0165 C   0  0  0  0  0  0  0  0  0  0  0  0
   -4.8545    0.0103    1.6375 C   0  0  0  0  0  0  0  0  0  0  0  0
   -3.9848    0.8728    0.9525 O   0  0  0  0  0  0  0  0  0  0  0  0
   -4.3361    1.5903   -0.2013 C   0  0  0  0  0  0  0  0  0  0  0  0
   -5.6230    1.5762   -0.6507 N   0  0  0  0  0  0  0  0  0  0  0  0
   -6.0163    2.2703   -1.7499 C   0  0  0  0  0  0  0  0  0  0  0  0
   -5.0955    3.0482   -2.4471 C   0  0  0  0  0  0  0  0  0  0  0  0
   -3.7742    3.1042   -2.0031 C   0  0  0  0  0  0  0  0  0  0  0  0
   -3.3703    2.3613   -0.8825 C   0  0  0  0  0  0  0  0  0  0  0  0
   -1.9381    2.4515   -0.4121 C   0  0  0  0  0  0  0  0  0  0  0  0
    1.2481    1.1708    0.6108 N   0  0  0  0  0  0  0  0  0  0  0  0
    2.2508    1.0025    1.6686 C   0  0  0  0  0  0  0  0  0  0  0  0
    3.6565    1.2880    1.0881 C   0  0  0  0  0  0  0  0  0  0  0  0
    4.7329    0.4240    1.7579 C   0  0  0  0  0  0  0  0  0  0  0  0
    4.4856   -1.0335    1.5848 N   0  0  0  0  0  0  0  0  0  0  0  0
    5.1976   -1.5848    0.4120 C   0  0  0  0  0  0  0  0  0  0  0  0
    6.6845   -1.6438    0.6550 C   0  0  0  0  0  0  0  0  0  0  0  0
    7.1989   -2.4039    1.7183 C   0  0  0  0  0  0  0  0  0  0  0  0
    8.5797   -2.4677    1.9359 C   0  0  0  0  0  0  0  0  0  0  0  0
    9.4545   -1.7794    1.0912 C   0  0  0  0  0  0  0  0  0  0  0  0
    8.9511   -1.0241    0.0278 C   0  0  0  0  0  0  0  0  0  0  0  0
    7.5715   -0.9554   -0.1912 C   0  0  0  0  0  0  0  0  0  0  0  0
    3.0460   -1.4006    1.5274 C   0  0  0  0  0  0  0  0  0  0  0  0
    2.1578   -0.4102    2.2905 C   0  0  0  0  0  0  0  0  0  0  0  0
    0.3381    3.7323   -1.5371 H   0  0  0  0  0  0  0  0  0  0  0  0
    1.0829    2.2051   -2.0292 H   0  0  0  0  0  0  0  0  0  0  0  0
   -1.5967    0.0853   -1.1205 H   0  0  0  0  0  0  0  0  0  0  0  0
    0.0068    0.2251   -1.8893 H   0  0  0  0  0  0  0  0  0  0  0  0
   -0.9609    1.0249   -3.9948 H   0  0  0  0  0  0  0  0  0  0  0  0
   -2.6006    1.0079   -3.3263 H   0  0  0  0  0  0  0  0  0  0  0  0
   -2.3477   -0.9912   -4.6689 H   0  0  0  0  0  0  0  0  0  0  0  0
   -0.7452   -1.3604   -3.9611 H   0  0  0  0  0  0  0  0  0  0  0  0
   -2.4889   -2.9315   -3.1631 H   0  0  0  0  0  0  0  0  0  0  0  0
   -1.7256   -2.0425   -1.8371 H   0  0  0  0  0  0  0  0  0  0  0  0
   -3.9605   -0.3906   -2.3299 H   0  0  0  0  0  0  0  0  0  0  0  0
   -4.5887   -1.9501   -2.9125 H   0  0  0  0  0  0  0  0  0  0  0  0
   -4.1329   -2.9823   -0.7043 H   0  0  0  0  0  0  0  0  0  0  0  0
   -3.2588   -1.4987   -0.1651 H   0  0  0  0  0  0  0  0  0  0  0  0
   -6.9962   -2.6135    1.1977 H   0  0  0  0  0  0  0  0  0  0  0  0
   -7.3064   -2.2543    3.6259 H   0  0  0  0  0  0  0  0  0  0  0  0
   -6.0170   -0.4930    4.7975 H   0  0  0  0  0  0  0  0  0  0  0  0
   -4.4696    0.9619    3.5339 H   0  0  0  0  0  0  0  0  0  0  0  0
   -7.0452    2.2238   -2.0783 H   0  0  0  0  0  0  0  0  0  0  0  0
   -5.4029    3.6043   -3.3228 H   0  0  0  0  0  0  0  0  0  0  0  0
   -3.0616    3.7191   -2.5370 H   0  0  0  0  0  0  0  0  0  0  0  0
   -1.7548    1.8095    0.4769 H   0  0  0  0  0  0  0  0  0  0  0  0
   -1.7693    3.5022   -0.0895 H   0  0  0  0  0  0  0  0  0  0  0  0
    0.8314    0.3201    0.1701 H   0  0  0  0  0  0  0  0  0  0  0  0
    2.0388    1.7300    2.4835 H   0  0  0  0  0  0  0  0  0  0  0  0
    3.9070    2.3627    1.2261 H   0  0  0  0  0  0  0  0  0  0  0  0
    3.6726    1.0798   -0.0066 H   0  0  0  0  0  0  0  0  0  0  0  0
    4.7507    0.6538    2.8457 H   0  0  0  0  0  0  0  0  0  0  0  0
    5.7308    0.7229    1.3686 H   0  0  0  0  0  0  0  0  0  0  0  0
    4.8601   -2.6279    0.2129 H   0  0  0  0  0  0  0  0  0  0  0  0
    4.9599   -0.9900   -0.4994 H   0  0  0  0  0  0  0  0  0  0  0  0
    6.5301   -2.9417    2.3786 H   0  0  0  0  0  0  0  0  0  0  0  0
    8.9722   -3.0514    2.7593 H   0  0  0  0  0  0  0  0  0  0  0  0
   10.5226   -1.8281    1.2613 H   0  0  0  0  0  0  0  0  0  0  0  0
    9.6288   -0.4892   -0.6267 H   0  0  0  0  0  0  0  0  0  0  0  0
    7.1962   -0.3631   -1.0189 H   0  0  0  0  0  0  0  0  0  0  0  0
    2.9183   -2.4125    1.9717 H   0  0  0  0  0  0  0  0  0  0  0  0
    2.6819   -1.4478    0.4737 H   0  0  0  0  0  0  0  0  0  0  0  0
    2.4943   -0.3724    3.3505 H   0  0  0  0  0  0  0  0  0  0  0  0
    1.1046   -0.7697    2.2978 H   0  0  0  0  0  0  0  0  0  0  0  0
  1  2  2  0
  2  3  1  0
  3  4  1  0
  4  5  1  0
  5  6  1  0
  6  7  1  0
  7  8  1  0
  8  9  1  0
  9 10  1  0
 10 11  1  0
 11 12  1  0
 12 13  2  0
 13 14  1  0
 14 15  2  0
 15 16  1  0
 16 17  2  0
 17 18  1  0
 18 19  1  0
 19 20  2  0
 20 21  1  0
 21 22  2  0
 22 23  1  0
 23 24  2  0
 24 25  1  0
  2 26  1  0
 26 27  1  0
 27 28  1  0
 28 29  1  0
 29 30  1  0
 30 31  1  0
 31 32  1  0
 32 33  2  0
 33 34  1  0
 34 35  2  0
 35 36  1  0
 36 37  2  0
 30 38  1  0
 38 39  1  0
 25  4  1  0
 39 27  1  0
 17 12  1  0
 24 19  1  0
 37 32  1  0
  3 40  1  0
  3 41  1  0
  5 42  1  0
  5 43  1  0
  6 44  1  0
  6 45  1  0
  7 46  1  0
  7 47  1  0
  8 48  1  0
  8 49  1  0
  9 50  1  0
  9 51  1  0
 10 52  1  0
 10 53  1  0
 13 54  1  0
 14 55  1  0
 15 56  1  0
 16 57  1  0
 21 58  1  0
 22 59  1  0
 23 60  1  0
 25 61  1  0
 25 62  1  0
 26 63  1  0
 27 64  1  0
 28 65  1  0
 28 66  1  0
 29 67  1  0
 29 68  1  0
 31 69  1  0
 31 70  1  0
 33 71  1  0
 34 72  1  0
 35 73  1  0
 36 74  1  0
 37 75  1  0
 38 76  1  0
 38 77  1  0
 39 78  1  0
 39 79  1  0
M  END
$$$$
