
     RDKit          3D

 59 62  0  0  0  0  0  0  0  0999 V2000
   -0.5753    3.7299    0.0851 O   0  0  0  0  0  0  0  0  0  0  0  0
   -1.4581    2.8392    0.2248 C   0  0  0  0  0  0  0  0  0  0  0  0
   -2.7862    3.2412    0.7340 C   0  0  0  0  0  0  0  0  0  0  0  0
   -3.4157    4.3891    0.2314 C   0  0  0  0  0  0  0  0  0  0  0  0
   -4.6630    4.7758    0.7250 C   0  0  0  0  0  0  0  0  0  0  0  0
   -5.2647    4.0182    1.7310 C   0  0  0  0  0  0  0  0  0  0  0  0
   -4.6330    2.9216    2.2270 N   0  0  0  0  0  0  0  0  0  0  0  0
   -3.4198    2.5223    1.7598 C   0  0  0  0  0  0  0  0  0  0  0  0
   -1.1553    1.4710   -0.1274 N   0  0  0  0  0  0  0  0  0  0  0  0
   -2.2446    0.5483   -0.5154 C   0  0  0  0  0  0  0  0  0  0  0  0
   -1.7661   -0.6505   -1.3637 C   0  0  0  0  0  0  0  0  0  0  0  0
   -2.7732   -1.8158   -1.3654 C   0  0  0  0  0  0  0  0  0  0  0  0
   -2.0782   -3.1822   -1.5481 C   0  0  0  0  0  0  0  0  0  0  0  0
   -1.7132   -3.8945   -0.2251 C   0  0  0  0  0  0  0  0  0  0  0  0
   -0.5297   -3.2726    0.5515 C   0  0  0  0  0  0  0  0  0  0  0  0
   -0.9975   -2.3010    1.6529 C   0  0  0  0  0  0  0  0  0  0  0  0
    0.1242   -1.5849    2.2889 N   0  0  0  0  0  0  0  0  0  0  0  0
    0.1253   -0.1238    2.0651 C   0  0  0  0  0  0  0  0  0  0  0  0
    0.8471    0.2846    0.7929 C   0  0  0  0  0  0  0  0  0  0  0  0
    2.2086   -0.0453    0.6534 C   0  0  0  0  0  0  0  0  0  0  0  0
    2.9404    0.3407   -0.4819 C   0  0  0  0  0  0  0  0  0  0  0  0
    4.3681   -0.0427   -0.6240 C   0  0  0  0  0  0  0  0  0  0  0  0
    4.8016   -1.3301   -0.2565 C   0  0  0  0  0  0  0  0  0  0  0  0
    6.1453   -1.6907   -0.3917 C   0  0  0  0  0  0  0  0  0  0  0  0
    7.0726   -0.7731   -0.8940 C   0  0  0  0  0  0  0  0  0  0  0  0
    8.7573   -1.2386   -1.0584 Cl  0  0  0  0  0  0  0  0  0  0  0  0
    6.6532    0.5103   -1.2628 C   0  0  0  0  0  0  0  0  0  0  0  0
    7.5458    1.4098   -1.7472 F   0  0  0  0  0  0  0  0  0  0  0  0
    5.3092    0.8737   -1.1294 C   0  0  0  0  0  0  0  0  0  0  0  0
    2.3038    1.0961   -1.4770 C   0  0  0  0  0  0  0  0  0  0  0  0
    0.9673    1.4649   -1.3368 C   0  0  0  0  0  0  0  0  0  0  0  0
    0.2311    1.0800   -0.2080 C   0  0  0  0  0  0  0  0  0  0  0  0
   -2.9480    4.9759   -0.5498 H   0  0  0  0  0  0  0  0  0  0  0  0
   -5.1578    5.6547    0.3326 H   0  0  0  0  0  0  0  0  0  0  0  0
   -6.2305    4.3066    2.1238 H   0  0  0  0  0  0  0  0  0  0  0  0
   -2.9425    1.6615    2.2069 H   0  0  0  0  0  0  0  0  0  0  0  0
   -2.7485    0.1919    0.4028 H   0  0  0  0  0  0  0  0  0  0  0  0
   -3.0062    1.1009   -1.1080 H   0  0  0  0  0  0  0  0  0  0  0  0
   -0.8046   -1.0228   -0.9825 H   0  0  0  0  0  0  0  0  0  0  0  0
   -1.5812   -0.3138   -2.4071 H   0  0  0  0  0  0  0  0  0  0  0  0
   -3.3890   -1.8350   -0.4407 H   0  0  0  0  0  0  0  0  0  0  0  0
   -3.4810   -1.6543   -2.2077 H   0  0  0  0  0  0  0  0  0  0  0  0
   -1.1797   -3.0899   -2.1974 H   0  0  0  0  0  0  0  0  0  0  0  0
   -2.7859   -3.8467   -2.0906 H   0  0  0  0  0  0  0  0  0  0  0  0
   -1.4272   -4.9363   -0.4897 H   0  0  0  0  0  0  0  0  0  0  0  0
   -2.6123   -3.9788    0.4240 H   0  0  0  0  0  0  0  0  0  0  0  0
    0.1906   -2.7874   -0.1390 H   0  0  0  0  0  0  0  0  0  0  0  0
    0.0303   -4.0945    1.0496 H   0  0  0  0  0  0  0  0  0  0  0  0
   -1.5112   -2.8930    2.4399 H   0  0  0  0  0  0  0  0  0  0  0  0
   -1.7570   -1.6077    1.2594 H   0  0  0  0  0  0  0  0  0  0  0  0
    1.0487   -2.0214    2.0691 H   0  0  0  0  0  0  0  0  0  0  0  0
   -0.9050    0.2836    2.1132 H   0  0  0  0  0  0  0  0  0  0  0  0
    0.6586    0.3500    2.9163 H   0  0  0  0  0  0  0  0  0  0  0  0
    2.7113   -0.5825    1.4480 H   0  0  0  0  0  0  0  0  0  0  0  0
    4.0985   -2.0631    0.1191 H   0  0  0  0  0  0  0  0  0  0  0  0
    6.4638   -2.6860   -0.1086 H   0  0  0  0  0  0  0  0  0  0  0  0
    5.0079    1.8767   -1.4048 H   0  0  0  0  0  0  0  0  0  0  0  0
    2.8369    1.3930   -2.3714 H   0  0  0  0  0  0  0  0  0  0  0  0
    0.4936    2.0473   -2.1173 H   0  0  0  0  0  0  0  0  0  0  0  0
  1  2  2  0
  2  3  1  0
  3  4  2  0
  4  5  1  0
  5  6  2  0
  6  7  1  0
  7  8  2  0
  2  9  1  0
  9 10  1  0
 10 11  1  0
 11 12  1  0
 12 13  1  0
 13 14  1  0
 14 15  1  0
 15 16  1  0
 16 17  1  0
 17 18  1  0
 18 19  1  0
 19 20  2  0
 20 21  1  0
 21 22  1  0
 22 23  2  0
 23 24  1  0
 24 25  2  0
 25 26  1  0
 25 27  1  0
 27 28  1  0
 27 29  2  0
 21 30  2  0
 30 31  1  0
 31 32  2  0
  8  3  1  0
 32  9  1  0
 32 19  1  0
 29 22  1  0
  4 33  1  0
  5 34  1  0
  6 35  1  0
  8 36  1  0
 10 37  1  0
 10 38  1  0
 11 39  1  0
 11 40  1  0
 12 41  1  0
 12 42  1  0
 13 43  1  0
 13 44  1  0
 14 45  1  0
 14 46  1  0
 15 47  1  0
 15 48  1  0
 16 49  1  0
 16 50  1  0
 17 51  1  0
 18 52  1  0
 18 53  1  0
 20 54  1  0
 23 55  1  0
 24 56  1  0
 29 57  1  0
 30 58  1  0
 31 59  1  0
M  END
$$$$
