
     RDKit          3D

 75 78  0  0  0  0  0  0  0  0999 V2000
    6.0727   -0.1082    1.2181 C   0  0  0  0  0  0  0  0  0  0  0  0
    6.1945   -1.1277    0.1162 C   0  0  0  0  0  0  0  0  0  0  0  0
    7.0384   -2.2362    0.2944 C   0  0  0  0  0  0  0  0  0  0  0  0
    7.1917   -3.1533   -0.6973 N   0  0  0  0  0  0  0  0  0  0  0  0
    6.5411   -3.0353   -1.8827 C   0  0  0  0  0  0  0  0  0  0  0  0
    5.6790   -1.9599   -2.1058 C   0  0  0  0  0  0  0  0  0  0  0  0
    5.4791   -1.0079   -1.0974 C   0  0  0  0  0  0  0  0  0  0  0  0
    4.5298    0.0996   -1.3401 C   0  0  0  0  0  0  0  0  0  0  0  0
    4.6800    0.8173   -2.3669 O   0  0  0  0  0  0  0  0  0  0  0  0
    3.4193    0.3401   -0.4493 N   0  0  0  0  0  0  0  0  0  0  0  0
    2.6923   -0.8067    0.1283 C   0  0  0  0  0  0  0  0  0  0  0  0
    1.8337   -1.5378   -0.9234 C   0  0  0  0  0  0  0  0  0  0  0  0
    0.4978   -0.8362   -1.2353 C   0  0  0  0  0  0  0  0  0  0  0  0
   -0.5446   -1.0018   -0.1059 C   0  0  0  0  0  0  0  0  0  0  0  0
   -1.6921    0.0620   -0.1187 C   0  0  0  0  0  0  0  0  0  0  0  0
   -2.7166   -0.2679    1.0005 C   0  0  0  0  0  0  0  0  0  0  0  0
   -3.5972   -1.4952    0.6855 C   0  0  0  0  0  0  0  0  0  0  0  0
   -4.2507   -1.4194   -0.6402 N   0  0  0  0  0  0  0  0  0  0  0  0
   -5.3870   -0.4721   -0.6818 C   0  0  0  0  0  0  0  0  0  0  0  0
   -6.6022   -1.0827   -0.0361 C   0  0  0  0  0  0  0  0  0  0  0  0
   -7.0125   -0.6821    1.2445 C   0  0  0  0  0  0  0  0  0  0  0  0
   -8.1388   -1.2743    1.8220 C   0  0  0  0  0  0  0  0  0  0  0  0
   -8.8329   -2.2253    1.1432 N   0  0  0  0  0  0  0  0  0  0  0  0
   -8.4523   -2.6378   -0.0954 C   0  0  0  0  0  0  0  0  0  0  0  0
   -7.3286   -2.0768   -0.7064 C   0  0  0  0  0  0  0  0  0  0  0  0
   -3.2693   -1.1857   -1.7195 C   0  0  0  0  0  0  0  0  0  0  0  0
   -2.4406    0.0873   -1.4842 C   0  0  0  0  0  0  0  0  0  0  0  0
   -1.1177    1.4393    0.2042 C   0  0  0  0  0  0  0  0  0  0  0  0
   -1.5450    2.4652   -0.3985 O   0  0  0  0  0  0  0  0  0  0  0  0
   -0.2161    1.5875    1.2702 O   0  0  0  0  0  0  0  0  0  0  0  0
    0.0179    2.8379    1.9262 C   0  0  0  0  0  0  0  0  0  0  0  0
    0.9448    3.7670    1.1019 C   0  0  0  0  0  0  0  0  0  0  0  0
    0.5981    5.1066    1.3533 O   0  0  0  0  0  0  0  0  0  0  0  0
    2.4520    3.5821    1.4317 C   0  0  0  0  0  0  0  0  0  0  0  0
    2.6963    3.9455    2.7677 O   0  0  0  0  0  0  0  0  0  0  0  0
    2.9746    2.1471    1.2164 C   0  0  0  0  0  0  0  0  0  0  0  0
    2.9260    1.7152   -0.2589 C   0  0  0  0  0  0  0  0  0  0  0  0
    5.1480   -0.2908    1.7999 H   0  0  0  0  0  0  0  0  0  0  0  0
    6.9382   -0.1608    1.9107 H   0  0  0  0  0  0  0  0  0  0  0  0
    6.0506    0.9178    0.7953 H   0  0  0  0  0  0  0  0  0  0  0  0
    7.5842   -2.3655    1.2202 H   0  0  0  0  0  0  0  0  0  0  0  0
    6.6887   -3.7801   -2.6534 H   0  0  0  0  0  0  0  0  0  0  0  0
    5.1529   -1.8857   -3.0496 H   0  0  0  0  0  0  0  0  0  0  0  0
    2.0651   -0.4910    0.9793 H   0  0  0  0  0  0  0  0  0  0  0  0
    3.4184   -1.5309    0.5550 H   0  0  0  0  0  0  0  0  0  0  0  0
    1.6213   -2.5685   -0.5627 H   0  0  0  0  0  0  0  0  0  0  0  0
    2.4144   -1.6449   -1.8645 H   0  0  0  0  0  0  0  0  0  0  0  0
    0.0824   -1.2972   -2.1582 H   0  0  0  0  0  0  0  0  0  0  0  0
    0.6678    0.2274   -1.4760 H   0  0  0  0  0  0  0  0  0  0  0  0
   -0.0540   -0.9722    0.8874 H   0  0  0  0  0  0  0  0  0  0  0  0
   -0.9546   -2.0294   -0.1878 H   0  0  0  0  0  0  0  0  0  0  0  0
   -3.3765    0.6085    1.1835 H   0  0  0  0  0  0  0  0  0  0  0  0
   -2.1839   -0.4557    1.9594 H   0  0  0  0  0  0  0  0  0  0  0  0
   -2.9860   -2.4198    0.7347 H   0  0  0  0  0  0  0  0  0  0  0  0
   -4.3570   -1.6075    1.4863 H   0  0  0  0  0  0  0  0  0  0  0  0
   -5.6577   -0.2281   -1.7342 H   0  0  0  0  0  0  0  0  0  0  0  0
   -5.1340    0.4958   -0.2006 H   0  0  0  0  0  0  0  0  0  0  0  0
   -6.4658    0.0758    1.7920 H   0  0  0  0  0  0  0  0  0  0  0  0
   -8.4676   -0.9704    2.8094 H   0  0  0  0  0  0  0  0  0  0  0  0
   -9.0233   -3.3993   -0.6082 H   0  0  0  0  0  0  0  0  0  0  0  0
   -7.0326   -2.4083   -1.6933 H   0  0  0  0  0  0  0  0  0  0  0  0
   -2.5984   -2.0660   -1.8064 H   0  0  0  0  0  0  0  0  0  0  0  0
   -3.7871   -1.1094   -2.7016 H   0  0  0  0  0  0  0  0  0  0  0  0
   -3.1391    0.9512   -1.5229 H   0  0  0  0  0  0  0  0  0  0  0  0
   -1.7312    0.2264   -2.3288 H   0  0  0  0  0  0  0  0  0  0  0  0
    0.4568    2.6401    2.9271 H   0  0  0  0  0  0  0  0  0  0  0  0
   -0.9622    3.3322    2.1072 H   0  0  0  0  0  0  0  0  0  0  0  0
    0.7958    3.5759    0.0153 H   0  0  0  0  0  0  0  0  0  0  0  0
   -0.2233    5.2973    0.8293 H   0  0  0  0  0  0  0  0  0  0  0  0
    3.0369    4.2527    0.7566 H   0  0  0  0  0  0  0  0  0  0  0  0
    2.8262    4.9293    2.7874 H   0  0  0  0  0  0  0  0  0  0  0  0
    2.4038    1.4563    1.8646 H   0  0  0  0  0  0  0  0  0  0  0  0
    4.0324    2.1053    1.5560 H   0  0  0  0  0  0  0  0  0  0  0  0
    1.8970    1.7857   -0.6454 H   0  0  0  0  0  0  0  0  0  0  0  0
    3.5383    2.4344   -0.8462 H   0  0  0  0  0  0  0  0  0  0  0  0
  1  2  1  0
  2  3  2  0
  3  4  1  0
  4  5  2  0
  5  6  1  0
  6  7  2  0
  7  8  1  0
  8  9  2  0
  8 10  1  0
 10 11  1  0
 11 12  1  0
 12 13  1  0
 13 14  1  0
 14 15  1  0
 15 16  1  0
 16 17  1  0
 17 18  1  0
 18 19  1  0
 19 20  1  0
 20 21  2  0
 21 22  1  0
 22 23  2  0
 23 24  1  0
 24 25  2  0
 18 26  1  0
 26 27  1  0
 15 28  1  0
 28 29  2  0
 28 30  1  0
 30 31  1  0
 31 32  1  0
 32 33  1  0
 32 34  1  0
 34 35  1  0
 34 36  1  0
 36 37  1  0
  7  2  1  0
 37 10  1  0
 27 15  1  0
 25 20  1  0
  1 38  1  0
  1 39  1  0
  1 40  1  0
  3 41  1  0
  5 42  1  0
  6 43  1  0
 11 44  1  0
 11 45  1  0
 12 46  1  0
 12 47  1  0
 13 48  1  0
 13 49  1  0
 14 50  1  0
 14 51  1  0
 16 52  1  0
 16 53  1  0
 17 54  1  0
 17 55  1  0
 19 56  1  0
 19 57  1  0
 21 58  1  0
 22 59  1  0
 24 60  1  0
 25 61  1  0
 26 62  1  0
 26 63  1  0
 27 64  1  0
 27 65  1  0
 31 66  1  0
 31 67  1  0
 32 68  1  0
 33 69  1  0
 34 70  1  0
 35 71  1  0
 36 72  1  0
 36 73  1  0
 37 74  1  0
 37 75  1  0
M  END
$$$$
