
     RDKit          3D

 77 78  0  0  0  0  0  0  0  0999 V2000
   -6.7886   -0.9850   -0.0604 C   0  0  0  0  0  0  0  0  0  0  0  0
   -5.9023   -0.4387   -1.0119 O   0  0  0  0  0  0  0  0  0  0  0  0
   -4.8370    0.2567   -0.3788 C   0  0  0  0  0  0  0  0  0  0  0  0
   -3.5223   -0.1517   -1.0740 C   0  0  0  0  0  0  0  0  0  0  0  0
   -3.1982   -1.5543   -0.7649 N   0  0  0  0  0  0  0  0  0  0  0  0
   -3.7041   -2.6176   -1.6036 C   0  0  0  0  0  0  0  0  0  0  0  0
   -3.7756   -4.0360   -1.1176 C   0  0  0  0  0  0  0  0  0  0  0  0
   -4.1258   -2.3587   -2.7627 O   0  0  0  0  0  0  0  0  0  0  0  0
   -2.4107   -1.8368    0.4461 C   0  0  0  0  0  0  0  0  0  0  0  0
   -0.9371   -2.0950    0.0898 C   0  0  0  0  0  0  0  0  0  0  0  0
   -0.0054   -1.9193    1.3121 C   0  0  0  0  0  0  0  0  0  0  0  0
    0.9366   -0.7977    1.1235 N   0  0  0  0  0  0  0  0  0  0  0  0
    2.3673   -1.0324    1.1188 C   0  0  0  0  0  0  0  0  0  0  0  0
    2.8094   -2.1776    1.4100 O   0  0  0  0  0  0  0  0  0  0  0  0
    3.3493    0.0758    0.7975 C   0  0  0  0  0  0  0  0  0  0  0  0
    4.8082   -0.4027    0.6920 C   0  0  0  0  0  0  0  0  0  0  0  0
    4.9749   -1.4521   -0.3399 N   0  0  0  0  0  0  0  0  0  0  0  0
    6.1843   -2.2527   -0.0880 C   0  0  0  0  0  0  0  0  0  0  0  0
    4.9124   -0.9562   -1.7365 C   0  0  0  0  0  0  0  0  0  0  0  0
    5.9970    0.0412   -2.0902 C   0  0  0  0  0  0  0  0  0  0  0  0
    5.7563    1.4213   -2.0051 C   0  0  0  0  0  0  0  0  0  0  0  0
    6.7624    2.3290   -2.3391 C   0  0  0  0  0  0  0  0  0  0  0  0
    8.0018    1.8495   -2.7642 C   0  0  0  0  0  0  0  0  0  0  0  0
    8.2183    0.5112   -2.8573 N   0  0  0  0  0  0  0  0  0  0  0  0
    7.2548   -0.3930   -2.5383 C   0  0  0  0  0  0  0  0  0  0  0  0
    0.3852    0.5641    0.9902 C   0  0  0  0  0  0  0  0  0  0  0  0
    0.5655    1.3873    2.2844 C   0  0  0  0  0  0  0  0  0  0  0  0
   -0.7608    1.9544    2.8186 C   0  0  0  0  0  0  0  0  0  0  0  0
   -1.3875    2.9942    1.8656 C   0  0  0  0  0  0  0  0  0  0  0  0
   -2.7476    3.2319    2.1857 O   0  0  0  0  0  0  0  0  0  0  0  0
   -3.6011    2.2742    1.5775 C   0  0  0  0  0  0  0  0  0  0  0  0
   -4.0223    2.7061    0.1581 C   0  0  0  0  0  0  0  0  0  0  0  0
   -4.5111    4.0221    0.2243 O   0  0  0  0  0  0  0  0  0  0  0  0
   -5.1150    1.7866   -0.4605 C   0  0  0  0  0  0  0  0  0  0  0  0
   -5.3053    2.1592   -1.8032 O   0  0  0  0  0  0  0  0  0  0  0  0
   -7.1863   -0.2002    0.6206 H   0  0  0  0  0  0  0  0  0  0  0  0
   -7.6464   -1.4382   -0.5971 H   0  0  0  0  0  0  0  0  0  0  0  0
   -6.2893   -1.7902    0.5217 H   0  0  0  0  0  0  0  0  0  0  0  0
   -4.7360   -0.0217    0.6960 H   0  0  0  0  0  0  0  0  0  0  0  0
   -3.6037    0.0027   -2.1715 H   0  0  0  0  0  0  0  0  0  0  0  0
   -2.6821    0.4885   -0.7382 H   0  0  0  0  0  0  0  0  0  0  0  0
   -4.4433   -4.0906   -0.2323 H   0  0  0  0  0  0  0  0  0  0  0  0
   -2.7665   -4.4011   -0.8447 H   0  0  0  0  0  0  0  0  0  0  0  0
   -4.1846   -4.7002   -1.9072 H   0  0  0  0  0  0  0  0  0  0  0  0
   -2.4798   -0.9741    1.1409 H   0  0  0  0  0  0  0  0  0  0  0  0
   -2.8324   -2.7005    1.0023 H   0  0  0  0  0  0  0  0  0  0  0  0
   -0.8385   -3.1291   -0.3026 H   0  0  0  0  0  0  0  0  0  0  0  0
   -0.6251   -1.4170   -0.7346 H   0  0  0  0  0  0  0  0  0  0  0  0
    0.5338   -2.8765    1.4727 H   0  0  0  0  0  0  0  0  0  0  0  0
   -0.5828   -1.7469    2.2468 H   0  0  0  0  0  0  0  0  0  0  0  0
    3.2985    0.8354    1.6058 H   0  0  0  0  0  0  0  0  0  0  0  0
    3.0573    0.5784   -0.1463 H   0  0  0  0  0  0  0  0  0  0  0  0
    5.0963   -0.7983    1.6931 H   0  0  0  0  0  0  0  0  0  0  0  0
    5.4769    0.4622    0.5024 H   0  0  0  0  0  0  0  0  0  0  0  0
    7.0861   -1.6066   -0.0103 H   0  0  0  0  0  0  0  0  0  0  0  0
    6.3345   -3.0013   -0.8939 H   0  0  0  0  0  0  0  0  0  0  0  0
    6.0697   -2.8165    0.8637 H   0  0  0  0  0  0  0  0  0  0  0  0
    3.9149   -0.5118   -1.9320 H   0  0  0  0  0  0  0  0  0  0  0  0
    4.9699   -1.8190   -2.4364 H   0  0  0  0  0  0  0  0  0  0  0  0
    4.7929    1.7928   -1.6782 H   0  0  0  0  0  0  0  0  0  0  0  0
    6.5833    3.3944   -2.2699 H   0  0  0  0  0  0  0  0  0  0  0  0
    8.7910    2.5416   -3.0244 H   0  0  0  0  0  0  0  0  0  0  0  0
    7.4685   -1.4492   -2.6366 H   0  0  0  0  0  0  0  0  0  0  0  0
   -0.6891    0.5050    0.7275 H   0  0  0  0  0  0  0  0  0  0  0  0
    0.8564    1.0886    0.1338 H   0  0  0  0  0  0  0  0  0  0  0  0
    1.0129    0.7532    3.0810 H   0  0  0  0  0  0  0  0  0  0  0  0
    1.2720    2.2243    2.0983 H   0  0  0  0  0  0  0  0  0  0  0  0
   -1.4553    1.1090    3.0091 H   0  0  0  0  0  0  0  0  0  0  0  0
   -0.5739    2.4415    3.8002 H   0  0  0  0  0  0  0  0  0  0  0  0
   -0.8367    3.9503    1.9912 H   0  0  0  0  0  0  0  0  0  0  0  0
   -1.2558    2.7182    0.7973 H   0  0  0  0  0  0  0  0  0  0  0  0
   -4.5120    2.1874    2.2067 H   0  0  0  0  0  0  0  0  0  0  0  0
   -3.1366    1.2684    1.5524 H   0  0  0  0  0  0  0  0  0  0  0  0
   -3.1246    2.6883   -0.4987 H   0  0  0  0  0  0  0  0  0  0  0  0
   -4.4543    4.4000   -0.6931 H   0  0  0  0  0  0  0  0  0  0  0  0
   -6.0530    1.9807    0.1139 H   0  0  0  0  0  0  0  0  0  0  0  0
   -6.2530    1.9709   -2.0302 H   0  0  0  0  0  0  0  0  0  0  0  0
  1  2  1  0
  2  3  1  0
  3  4  1  0
  4  5  1  0
  5  6  1  0
  6  7  1  0
  6  8  2  0
  5  9  1  0
  9 10  1  0
 10 11  1  0
 11 12  1  0
 12 13  1  0
 13 14  2  0
 13 15  1  0
 15 16  1  0
 16 17  1  0
 17 18  1  0
 17 19  1  0
 19 20  1  0
 20 21  2  0
 21 22  1  0
 22 23  2  0
 23 24  1  0
 24 25  2  0
 12 26  1  0
 26 27  1  0
 27 28  1  0
 28 29  1  0
 29 30  1  0
 30 31  1  0
 31 32  1  0
 32 33  1  0
 32 34  1  0
 34 35  1  0
 34  3  1  0
 25 20  1  0
  1 36  1  0
  1 37  1  0
  1 38  1  0
  3 39  1  0
  4 40  1  0
  4 41  1  0
  7 42  1  0
  7 43  1  0
  7 44  1  0
  9 45  1  0
  9 46  1  0
 10 47  1  0
 10 48  1  0
 11 49  1  0
 11 50  1  0
 15 51  1  0
 15 52  1  0
 16 53  1  0
 16 54  1  0
 18 55  1  0
 18 56  1  0
 18 57  1  0
 19 58  1  0
 19 59  1  0
 21 60  1  0
 22 61  1  0
 23 62  1  0
 25 63  1  0
 26 64  1  0
 26 65  1  0
 27 66  1  0
 27 67  1  0
 28 68  1  0
 28 69  1  0
 29 70  1  0
 29 71  1  0
 31 72  1  0
 31 73  1  0
 32 74  1  0
 33 75  1  0
 34 76  1  0
 35 77  1  0
M  END
$$$$
