
     RDKit          3D

 76 78  0  0  0  0  0  0  0  0999 V2000
    0.2956    4.6414   -2.5166 C   0  0  0  0  0  0  0  0  0  0  0  0
    0.2234    3.2687   -1.9068 C   0  0  0  0  0  0  0  0  0  0  0  0
    0.3233    2.2787   -2.6833 O   0  0  0  0  0  0  0  0  0  0  0  0
    0.0767    3.0474   -0.4810 N   0  0  0  0  0  0  0  0  0  0  0  0
   -0.2762    4.1495    0.4433 C   0  0  0  0  0  0  0  0  0  0  0  0
   -1.6585    4.7877    0.1786 C   0  0  0  0  0  0  0  0  0  0  0  0
   -2.8088    3.7790    0.0781 C   0  0  0  0  0  0  0  0  0  0  0  0
   -3.1578    3.1547    1.4413 C   0  0  0  0  0  0  0  0  0  0  0  0
   -4.1853    2.0086    1.3485 C   0  0  0  0  0  0  0  0  0  0  0  0
   -3.7602    0.8161    0.4718 C   0  0  0  0  0  0  0  0  0  0  0  0
   -2.5112    0.0653    1.0042 C   0  0  0  0  0  0  0  0  0  0  0  0
   -1.7655   -0.6871   -0.0355 N   0  0  0  0  0  0  0  0  0  0  0  0
   -2.5955   -1.5996   -0.8561 C   0  0  0  0  0  0  0  0  0  0  0  0
   -3.2838   -2.6777    0.0048 C   0  0  0  0  0  0  0  0  0  0  0  0
   -3.8591   -3.8418   -0.8325 C   0  0  0  0  0  0  0  0  0  0  0  0
   -4.9557   -3.3651   -1.7991 C   0  0  0  0  0  0  0  0  0  0  0  0
   -4.4192   -4.9262    0.0967 C   0  0  0  0  0  0  0  0  0  0  0  0
   -0.9217    0.2041   -0.8686 C   0  0  0  0  0  0  0  0  0  0  0  0
    0.3498    0.5688   -0.1310 C   0  0  0  0  0  0  0  0  0  0  0  0
    1.1460   -0.4841    0.3543 C   0  0  0  0  0  0  0  0  0  0  0  0
    2.3237   -0.2322    1.0644 C   0  0  0  0  0  0  0  0  0  0  0  0
    3.1156   -1.3647    1.5790 C   0  0  0  0  0  0  0  0  0  0  0  0
    2.5784   -2.1181    2.4361 O   0  0  0  0  0  0  0  0  0  0  0  0
    4.4355   -1.6703    1.0731 N   0  0  0  0  0  0  0  0  0  0  0  0
    5.0354   -2.9894    1.3400 C   0  0  0  0  0  0  0  0  0  0  0  0
    5.6451   -3.5793    0.0596 C   0  0  0  0  0  0  0  0  0  0  0  0
    6.4776   -2.5686   -0.7625 C   0  0  0  0  0  0  0  0  0  0  0  0
    6.5846   -1.1778   -0.1129 C   0  0  0  0  0  0  0  0  0  0  0  0
    7.4166   -1.2252    1.0215 O   0  0  0  0  0  0  0  0  0  0  0  0
    5.1902   -0.6729    0.2916 C   0  0  0  0  0  0  0  0  0  0  0  0
    2.7010    1.0880    1.3248 C   0  0  0  0  0  0  0  0  0  0  0  0
    1.9478    2.1446    0.8178 C   0  0  0  0  0  0  0  0  0  0  0  0
    0.7749    1.9103    0.0778 C   0  0  0  0  0  0  0  0  0  0  0  0
   -0.7183    4.9788   -2.8107 H   0  0  0  0  0  0  0  0  0  0  0  0
    0.9222    4.6071   -3.4285 H   0  0  0  0  0  0  0  0  0  0  0  0
    0.7668    5.3709   -1.8292 H   0  0  0  0  0  0  0  0  0  0  0  0
    0.5064    4.9369    0.3949 H   0  0  0  0  0  0  0  0  0  0  0  0
   -0.2610    3.7842    1.4941 H   0  0  0  0  0  0  0  0  0  0  0  0
   -1.8777    5.5060    0.9984 H   0  0  0  0  0  0  0  0  0  0  0  0
   -1.6286    5.3888   -0.7513 H   0  0  0  0  0  0  0  0  0  0  0  0
   -3.7099    4.3019   -0.3065 H   0  0  0  0  0  0  0  0  0  0  0  0
   -2.5331    3.0185   -0.6682 H   0  0  0  0  0  0  0  0  0  0  0  0
   -2.2470    2.8095    1.9654 H   0  0  0  0  0  0  0  0  0  0  0  0
   -3.5965    3.9505    2.0836 H   0  0  0  0  0  0  0  0  0  0  0  0
   -4.3874    1.6396    2.3783 H   0  0  0  0  0  0  0  0  0  0  0  0
   -5.1408    2.4184    0.9502 H   0  0  0  0  0  0  0  0  0  0  0  0
   -3.6355    1.1497   -0.5745 H   0  0  0  0  0  0  0  0  0  0  0  0
   -4.6096    0.1008    0.4507 H   0  0  0  0  0  0  0  0  0  0  0  0
   -2.8258   -0.6337    1.8082 H   0  0  0  0  0  0  0  0  0  0  0  0
   -1.8077    0.7542    1.5093 H   0  0  0  0  0  0  0  0  0  0  0  0
   -3.3485   -1.0295   -1.4399 H   0  0  0  0  0  0  0  0  0  0  0  0
   -1.9419   -2.1255   -1.5879 H   0  0  0  0  0  0  0  0  0  0  0  0
   -4.1038   -2.2217    0.5977 H   0  0  0  0  0  0  0  0  0  0  0  0
   -2.5365   -3.0888    0.7187 H   0  0  0  0  0  0  0  0  0  0  0  0
   -3.0388   -4.2958   -1.4292 H   0  0  0  0  0  0  0  0  0  0  0  0
   -5.7497   -2.8114   -1.2532 H   0  0  0  0  0  0  0  0  0  0  0  0
   -5.4187   -4.2334   -2.3168 H   0  0  0  0  0  0  0  0  0  0  0  0
   -4.5283   -2.7022   -2.5810 H   0  0  0  0  0  0  0  0  0  0  0  0
   -3.6236   -5.3033    0.7761 H   0  0  0  0  0  0  0  0  0  0  0  0
   -4.7977   -5.7852   -0.4962 H   0  0  0  0  0  0  0  0  0  0  0  0
   -5.2507   -4.5217    0.7132 H   0  0  0  0  0  0  0  0  0  0  0  0
   -0.6118   -0.3099   -1.8052 H   0  0  0  0  0  0  0  0  0  0  0  0
   -1.4814    1.1006   -1.1874 H   0  0  0  0  0  0  0  0  0  0  0  0
    0.8479   -1.5115    0.1733 H   0  0  0  0  0  0  0  0  0  0  0  0
    5.8178   -2.8851    2.1209 H   0  0  0  0  0  0  0  0  0  0  0  0
    4.2823   -3.7117    1.7246 H   0  0  0  0  0  0  0  0  0  0  0  0
    4.8215   -3.9670   -0.5781 H   0  0  0  0  0  0  0  0  0  0  0  0
    6.2837   -4.4470    0.3368 H   0  0  0  0  0  0  0  0  0  0  0  0
    7.4991   -2.9757   -0.9289 H   0  0  0  0  0  0  0  0  0  0  0  0
    6.0119   -2.4509   -1.7667 H   0  0  0  0  0  0  0  0  0  0  0  0
    7.0178   -0.4577   -0.8495 H   0  0  0  0  0  0  0  0  0  0  0  0
    8.3395   -1.3771    0.6933 H   0  0  0  0  0  0  0  0  0  0  0  0
    4.6180   -0.4176   -0.6278 H   0  0  0  0  0  0  0  0  0  0  0  0
    5.3264    0.2515    0.8887 H   0  0  0  0  0  0  0  0  0  0  0  0
    3.5803    1.3048    1.9221 H   0  0  0  0  0  0  0  0  0  0  0  0
    2.2859    3.1576    0.9967 H   0  0  0  0  0  0  0  0  0  0  0  0
  1  2  1  0
  2  3  2  0
  2  4  1  0
  4  5  1  0
  5  6  1  0
  6  7  1  0
  7  8  1  0
  8  9  1  0
  9 10  1  0
 10 11  1  0
 11 12  1  0
 12 13  1  0
 13 14  1  0
 14 15  1  0
 15 16  1  0
 15 17  1  0
 12 18  1  0
 18 19  1  0
 19 20  2  0
 20 21  1  0
 21 22  1  0
 22 23  2  0
 22 24  1  0
 24 25  1  0
 25 26  1  0
 26 27  1  0
 27 28  1  0
 28 29  1  0
 28 30  1  0
 21 31  2  0
 31 32  1  0
 32 33  2  0
 33  4  1  0
 33 19  1  0
 30 24  1  0
  1 34  1  0
  1 35  1  0
  1 36  1  0
  5 37  1  0
  5 38  1  0
  6 39  1  0
  6 40  1  0
  7 41  1  0
  7 42  1  0
  8 43  1  0
  8 44  1  0
  9 45  1  0
  9 46  1  0
 10 47  1  0
 10 48  1  0
 11 49  1  0
 11 50  1  0
 13 51  1  0
 13 52  1  0
 14 53  1  0
 14 54  1  0
 15 55  1  0
 16 56  1  0
 16 57  1  0
 16 58  1  0
 17 59  1  0
 17 60  1  0
 17 61  1  0
 18 62  1  0
 18 63  1  0
 20 64  1  0
 25 65  1  0
 25 66  1  0
 26 67  1  0
 26 68  1  0
 27 69  1  0
 27 70  1  0
 28 71  1  0
 29 72  1  0
 30 73  1  0
 30 74  1  0
 31 75  1  0
 32 76  1  0
M  END
$$$$
