
     RDKit          3D

 80 83  0  0  0  0  0  0  0  0999 V2000
   -0.9236   -5.0565   -2.4743 C   0  0  0  0  0  0  0  0  0  0  0  0
   -0.5129   -3.6787   -2.0419 C   0  0  0  0  0  0  0  0  0  0  0  0
    0.0025   -2.9173   -2.9053 O   0  0  0  0  0  0  0  0  0  0  0  0
   -0.6998   -3.2023   -0.6876 N   0  0  0  0  0  0  0  0  0  0  0  0
   -1.3883   -4.0006    0.3493 C   0  0  0  0  0  0  0  0  0  0  0  0
   -2.8865   -4.1709    0.0256 C   0  0  0  0  0  0  0  0  0  0  0  0
   -3.7536   -4.4698    1.2673 C   0  0  0  0  0  0  0  0  0  0  0  0
   -3.9789   -3.2852    2.2325 C   0  0  0  0  0  0  0  0  0  0  0  0
   -4.5488   -2.0211    1.5505 C   0  0  0  0  0  0  0  0  0  0  0  0
   -3.4289   -1.0301    1.1803 C   0  0  0  0  0  0  0  0  0  0  0  0
   -3.7749   -0.1635   -0.0410 C   0  0  0  0  0  0  0  0  0  0  0  0
   -2.5440    0.4797   -0.5585 N   0  0  0  0  0  0  0  0  0  0  0  0
   -2.8284    1.7464   -1.2647 C   0  0  0  0  0  0  0  0  0  0  0  0
   -2.9356    2.8987   -0.2505 C   0  0  0  0  0  0  0  0  0  0  0  0
   -3.1016    4.2845   -0.9182 C   0  0  0  0  0  0  0  0  0  0  0  0
   -1.8053    4.7538   -1.5995 C   0  0  0  0  0  0  0  0  0  0  0  0
   -3.5390    5.3225    0.1256 C   0  0  0  0  0  0  0  0  0  0  0  0
   -1.7085   -0.4577   -1.3603 C   0  0  0  0  0  0  0  0  0  0  0  0
   -0.4094   -0.7199   -0.6323 C   0  0  0  0  0  0  0  0  0  0  0  0
    0.3955    0.3792   -0.2834 C   0  0  0  0  0  0  0  0  0  0  0  0
    1.5957    0.2072    0.4219 C   0  0  0  0  0  0  0  0  0  0  0  0
    2.4011    1.3898    0.7889 C   0  0  0  0  0  0  0  0  0  0  0  0
    1.8024    2.4005    1.2556 O   0  0  0  0  0  0  0  0  0  0  0  0
    3.8415    1.4219    0.6227 N   0  0  0  0  0  0  0  0  0  0  0  0
    4.6575    2.6031    0.8267 C   0  0  0  0  0  0  0  0  0  0  0  0
    5.2709    2.8554   -0.5588 C   0  0  0  0  0  0  0  0  0  0  0  0
    5.2569    1.4785   -1.2444 C   0  0  0  0  0  0  0  0  0  0  0  0
    4.6352    0.5336   -0.2062 C   0  0  0  0  0  0  0  0  0  0  0  0
    5.7161   -0.0935    0.7083 C   0  0  0  0  0  0  0  0  0  0  0  0
    6.5601    0.9736    1.4651 C   0  0  0  0  0  0  0  0  0  0  0  0
    7.6499    1.3564    0.6688 O   0  0  0  0  0  0  0  0  0  0  0  0
    5.7326    2.2294    1.8723 C   0  0  0  0  0  0  0  0  0  0  0  0
    1.9827   -1.0800    0.8078 C   0  0  0  0  0  0  0  0  0  0  0  0
    1.2100   -2.1844    0.4482 C   0  0  0  0  0  0  0  0  0  0  0  0
    0.0188   -2.0233   -0.2784 C   0  0  0  0  0  0  0  0  0  0  0  0
   -0.7357   -5.8015   -1.6723 H   0  0  0  0  0  0  0  0  0  0  0  0
   -0.3393   -5.3641   -3.3658 H   0  0  0  0  0  0  0  0  0  0  0  0
   -1.9993   -5.0519   -2.7606 H   0  0  0  0  0  0  0  0  0  0  0  0
   -1.2685   -3.5052    1.3351 H   0  0  0  0  0  0  0  0  0  0  0  0
   -0.9053   -4.9938    0.4551 H   0  0  0  0  0  0  0  0  0  0  0  0
   -2.9980   -5.0329   -0.6644 H   0  0  0  0  0  0  0  0  0  0  0  0
   -3.2807   -3.2893   -0.5195 H   0  0  0  0  0  0  0  0  0  0  0  0
   -3.2970   -5.3072    1.8357 H   0  0  0  0  0  0  0  0  0  0  0  0
   -4.7491   -4.8199    0.9173 H   0  0  0  0  0  0  0  0  0  0  0  0
   -4.7128   -3.6206    3.0028 H   0  0  0  0  0  0  0  0  0  0  0  0
   -3.0479   -3.0502    2.7878 H   0  0  0  0  0  0  0  0  0  0  0  0
   -5.1458   -2.3151    0.6600 H   0  0  0  0  0  0  0  0  0  0  0  0
   -5.2468   -1.5109    2.2484 H   0  0  0  0  0  0  0  0  0  0  0  0
   -3.1994   -0.3832    2.0540 H   0  0  0  0  0  0  0  0  0  0  0  0
   -2.5033   -1.5800    0.9634 H   0  0  0  0  0  0  0  0  0  0  0  0
   -4.5323    0.5867    0.2750 H   0  0  0  0  0  0  0  0  0  0  0  0
   -4.2550   -0.7764   -0.8398 H   0  0  0  0  0  0  0  0  0  0  0  0
   -2.0012    1.9961   -1.9607 H   0  0  0  0  0  0  0  0  0  0  0  0
   -3.7641    1.6670   -1.8679 H   0  0  0  0  0  0  0  0  0  0  0  0
   -3.8137    2.7122    0.4025 H   0  0  0  0  0  0  0  0  0  0  0  0
   -2.0348    2.9040    0.4015 H   0  0  0  0  0  0  0  0  0  0  0  0
   -3.9056    4.2253   -1.6899 H   0  0  0  0  0  0  0  0  0  0  0  0
   -1.8999    5.8082   -1.9407 H   0  0  0  0  0  0  0  0  0  0  0  0
   -0.9475    4.6914   -0.8947 H   0  0  0  0  0  0  0  0  0  0  0  0
   -1.5870    4.1388   -2.4979 H   0  0  0  0  0  0  0  0  0  0  0  0
   -4.4808    5.0061    0.6180 H   0  0  0  0  0  0  0  0  0  0  0  0
   -3.7313    6.3024   -0.3617 H   0  0  0  0  0  0  0  0  0  0  0  0
   -2.7567    5.4482    0.9032 H   0  0  0  0  0  0  0  0  0  0  0  0
   -1.4587   -0.0607   -2.3711 H   0  0  0  0  0  0  0  0  0  0  0  0
   -2.2431   -1.4062   -1.5705 H   0  0  0  0  0  0  0  0  0  0  0  0
    0.0899    1.3779   -0.5709 H   0  0  0  0  0  0  0  0  0  0  0  0
    4.0662    3.4820    1.1726 H   0  0  0  0  0  0  0  0  0  0  0  0
    6.2971    3.2733   -0.4943 H   0  0  0  0  0  0  0  0  0  0  0  0
    4.6283    3.5661   -1.1288 H   0  0  0  0  0  0  0  0  0  0  0  0
    6.2780    1.1589   -1.5570 H   0  0  0  0  0  0  0  0  0  0  0  0
    4.6059    1.5177   -2.1456 H   0  0  0  0  0  0  0  0  0  0  0  0
    4.0309   -0.2533   -0.7041 H   0  0  0  0  0  0  0  0  0  0  0  0
    6.3789   -0.7559    0.1105 H   0  0  0  0  0  0  0  0  0  0  0  0
    5.2071   -0.7384    1.4598 H   0  0  0  0  0  0  0  0  0  0  0  0
    6.9483    0.4939    2.3938 H   0  0  0  0  0  0  0  0  0  0  0  0
    8.3067    1.7983    1.2717 H   0  0  0  0  0  0  0  0  0  0  0  0
    6.3992    3.0987    2.0547 H   0  0  0  0  0  0  0  0  0  0  0  0
    5.2157    2.0149    2.8337 H   0  0  0  0  0  0  0  0  0  0  0  0
    2.8844   -1.2319    1.3864 H   0  0  0  0  0  0  0  0  0  0  0  0
    1.5424   -3.1791    0.7231 H   0  0  0  0  0  0  0  0  0  0  0  0
  1  2  1  0
  2  3  2  0
  2  4  1  0
  4  5  1  0
  5  6  1  0
  6  7  1  0
  7  8  1  0
  8  9  1  0
  9 10  1  0
 10 11  1  0
 11 12  1  0
 12 13  1  0
 13 14  1  0
 14 15  1  0
 15 16  1  0
 15 17  1  0
 12 18  1  0
 18 19  1  0
 19 20  2  0
 20 21  1  0
 21 22  1  0
 22 23  2  0
 22 24  1  0
 24 25  1  0
 25 26  1  0
 26 27  1  0
 27 28  1  0
 28 29  1  0
 29 30  1  0
 30 31  1  0
 30 32  1  0
 21 33  2  0
 33 34  1  0
 34 35  2  0
 35  4  1  0
 35 19  1  0
 28 24  1  0
 32 25  1  0
  1 36  1  0
  1 37  1  0
  1 38  1  0
  5 39  1  0
  5 40  1  0
  6 41  1  0
  6 42  1  0
  7 43  1  0
  7 44  1  0
  8 45  1  0
  8 46  1  0
  9 47  1  0
  9 48  1  0
 10 49  1  0
 10 50  1  0
 11 51  1  0
 11 52  1  0
 13 53  1  0
 13 54  1  0
 14 55  1  0
 14 56  1  0
 15 57  1  0
 16 58  1  0
 16 59  1  0
 16 60  1  0
 17 61  1  0
 17 62  1  0
 17 63  1  0
 18 64  1  0
 18 65  1  0
 20 66  1  0
 25 67  1  0
 26 68  1  0
 26 69  1  0
 27 70  1  0
 27 71  1  0
 28 72  1  0
 29 73  1  0
 29 74  1  0
 30 75  1  0
 31 76  1  0
 32 77  1  0
 32 78  1  0
 33 79  1  0
 34 80  1  0
M  END
$$$$
