
     RDKit          3D

 75 78  0  0  0  0  0  0  0  0999 V2000
   -6.6191    0.7820   -1.2341 C   0  0  0  0  0  0  0  0  0  0  0  0
   -6.3628    1.8316   -0.1913 C   0  0  0  0  0  0  0  0  0  0  0  0
   -7.0955    2.9771   -0.2263 N   0  0  0  0  0  0  0  0  0  0  0  0
   -6.9530    3.9378    0.7217 C   0  0  0  0  0  0  0  0  0  0  0  0
   -6.0767    3.7615    1.7421 N   0  0  0  0  0  0  0  0  0  0  0  0
   -5.3188    2.6388    1.8247 C   0  0  0  0  0  0  0  0  0  0  0  0
   -5.4196    1.6470    0.8420 C   0  0  0  0  0  0  0  0  0  0  0  0
   -4.5688    0.4438    0.9316 C   0  0  0  0  0  0  0  0  0  0  0  0
   -4.6080   -0.2555    1.9795 O   0  0  0  0  0  0  0  0  0  0  0  0
   -3.6968    0.0639   -0.1503 N   0  0  0  0  0  0  0  0  0  0  0  0
   -2.9702    1.0866   -0.9281 C   0  0  0  0  0  0  0  0  0  0  0  0
   -2.0634    1.9738   -0.0526 C   0  0  0  0  0  0  0  0  0  0  0  0
   -1.0035    1.2140    0.7621 C   0  0  0  0  0  0  0  0  0  0  0  0
    0.0870    0.5682   -0.1260 C   0  0  0  0  0  0  0  0  0  0  0  0
    1.2498   -0.1279    0.6546 C   0  0  0  0  0  0  0  0  0  0  0  0
    1.9485    0.9146    1.5945 C   0  0  0  0  0  0  0  0  0  0  0  0
    3.4314    0.5848    1.7950 C   0  0  0  0  0  0  0  0  0  0  0  0
    4.1893    0.7244    0.5288 N   0  0  0  0  0  0  0  0  0  0  0  0
    5.4719   -0.0036    0.6069 C   0  0  0  0  0  0  0  0  0  0  0  0
    6.4675    0.5842   -0.3585 C   0  0  0  0  0  0  0  0  0  0  0  0
    6.9270    1.8991   -0.1776 C   0  0  0  0  0  0  0  0  0  0  0  0
    7.8406    2.4561   -1.0774 C   0  0  0  0  0  0  0  0  0  0  0  0
    8.3007    1.7059   -2.1628 C   0  0  0  0  0  0  0  0  0  0  0  0
    7.8491    0.3963   -2.3492 C   0  0  0  0  0  0  0  0  0  0  0  0
    6.9359   -0.1649   -1.4513 C   0  0  0  0  0  0  0  0  0  0  0  0
    3.4060    0.3580   -0.6817 C   0  0  0  0  0  0  0  0  0  0  0  0
    2.2997   -0.6665   -0.3803 C   0  0  0  0  0  0  0  0  0  0  0  0
    0.7003   -1.2943    1.4908 C   0  0  0  0  0  0  0  0  0  0  0  0
    0.1241   -1.0595    2.5870 O   0  0  0  0  0  0  0  0  0  0  0  0
    0.8698   -2.6364    1.1233 O   0  0  0  0  0  0  0  0  0  0  0  0
    0.3054   -3.2333   -0.0463 C   0  0  0  0  0  0  0  0  0  0  0  0
   -0.9641   -4.0630    0.2873 C   0  0  0  0  0  0  0  0  0  0  0  0
   -1.1190   -4.1916    1.6797 O   0  0  0  0  0  0  0  0  0  0  0  0
   -2.2477   -3.4717   -0.3550 C   0  0  0  0  0  0  0  0  0  0  0  0
   -3.3140   -4.3767   -0.2211 O   0  0  0  0  0  0  0  0  0  0  0  0
   -2.6471   -2.1331    0.2910 C   0  0  0  0  0  0  0  0  0  0  0  0
   -3.6453   -1.3465   -0.5658 C   0  0  0  0  0  0  0  0  0  0  0  0
   -7.5373    1.0241   -1.8099 H   0  0  0  0  0  0  0  0  0  0  0  0
   -5.7699    0.7264   -1.9431 H   0  0  0  0  0  0  0  0  0  0  0  0
   -6.7657   -0.2066   -0.7516 H   0  0  0  0  0  0  0  0  0  0  0  0
   -7.5474    4.8394    0.6699 H   0  0  0  0  0  0  0  0  0  0  0  0
   -4.6211    2.5295    2.6453 H   0  0  0  0  0  0  0  0  0  0  0  0
   -2.3582    0.6185   -1.7278 H   0  0  0  0  0  0  0  0  0  0  0  0
   -3.7003    1.7444   -1.4433 H   0  0  0  0  0  0  0  0  0  0  0  0
   -1.5556    2.7163   -0.7061 H   0  0  0  0  0  0  0  0  0  0  0  0
   -2.6958    2.5555    0.6501 H   0  0  0  0  0  0  0  0  0  0  0  0
   -0.5297    1.9499    1.4445 H   0  0  0  0  0  0  0  0  0  0  0  0
   -1.5059    0.4655    1.4038 H   0  0  0  0  0  0  0  0  0  0  0  0
   -0.3841   -0.1652   -0.8101 H   0  0  0  0  0  0  0  0  0  0  0  0
    0.5164    1.3626   -0.7752 H   0  0  0  0  0  0  0  0  0  0  0  0
    1.4523    0.9842    2.5861 H   0  0  0  0  0  0  0  0  0  0  0  0
    1.8961    1.9347    1.1523 H   0  0  0  0  0  0  0  0  0  0  0  0
    3.8552    1.2873    2.5450 H   0  0  0  0  0  0  0  0  0  0  0  0
    3.5172   -0.4478    2.2063 H   0  0  0  0  0  0  0  0  0  0  0  0
    5.9113    0.0866    1.6264 H   0  0  0  0  0  0  0  0  0  0  0  0
    5.3169   -1.0905    0.4199 H   0  0  0  0  0  0  0  0  0  0  0  0
    6.5743    2.4915    0.6579 H   0  0  0  0  0  0  0  0  0  0  0  0
    8.1900    3.4704   -0.9341 H   0  0  0  0  0  0  0  0  0  0  0  0
    9.0067    2.1390   -2.8594 H   0  0  0  0  0  0  0  0  0  0  0  0
    8.2052   -0.1837   -3.1904 H   0  0  0  0  0  0  0  0  0  0  0  0
    6.5917   -1.1788   -1.6111 H   0  0  0  0  0  0  0  0  0  0  0  0
    4.0570   -0.0444   -1.4888 H   0  0  0  0  0  0  0  0  0  0  0  0
    2.9453    1.2795   -1.0960 H   0  0  0  0  0  0  0  0  0  0  0  0
    1.8129   -0.9543   -1.3370 H   0  0  0  0  0  0  0  0  0  0  0  0
    2.8093   -1.5766    0.0047 H   0  0  0  0  0  0  0  0  0  0  0  0
    0.1051   -2.4732   -0.8282 H   0  0  0  0  0  0  0  0  0  0  0  0
    1.0717   -3.9158   -0.4718 H   0  0  0  0  0  0  0  0  0  0  0  0
   -0.8098   -5.0775   -0.1524 H   0  0  0  0  0  0  0  0  0  0  0  0
   -1.7302   -4.9584    1.8348 H   0  0  0  0  0  0  0  0  0  0  0  0
   -2.0431   -3.3059   -1.4395 H   0  0  0  0  0  0  0  0  0  0  0  0
   -3.1583   -5.1055   -0.8772 H   0  0  0  0  0  0  0  0  0  0  0  0
   -3.0731   -2.3106    1.3016 H   0  0  0  0  0  0  0  0  0  0  0  0
   -1.7466   -1.5202    0.4162 H   0  0  0  0  0  0  0  0  0  0  0  0
   -3.3583   -1.4101   -1.6379 H   0  0  0  0  0  0  0  0  0  0  0  0
   -4.6549   -1.8053   -0.4824 H   0  0  0  0  0  0  0  0  0  0  0  0
  1  2  1  0
  2  3  2  0
  3  4  1  0
  4  5  2  0
  5  6  1  0
  6  7  2  0
  7  8  1  0
  8  9  2  0
  8 10  1  0
 10 11  1  0
 11 12  1  0
 12 13  1  0
 13 14  1  0
 14 15  1  0
 15 16  1  0
 16 17  1  0
 17 18  1  0
 18 19  1  0
 19 20  1  0
 20 21  2  0
 21 22  1  0
 22 23  2  0
 23 24  1  0
 24 25  2  0
 18 26  1  0
 26 27  1  0
 15 28  1  0
 28 29  2  0
 28 30  1  0
 30 31  1  0
 31 32  1  0
 32 33  1  0
 32 34  1  0
 34 35  1  0
 34 36  1  0
 36 37  1  0
  7  2  1  0
 37 10  1  0
 27 15  1  0
 25 20  1  0
  1 38  1  0
  1 39  1  0
  1 40  1  0
  4 41  1  0
  6 42  1  0
 11 43  1  0
 11 44  1  0
 12 45  1  0
 12 46  1  0
 13 47  1  0
 13 48  1  0
 14 49  1  0
 14 50  1  0
 16 51  1  0
 16 52  1  0
 17 53  1  0
 17 54  1  0
 19 55  1  0
 19 56  1  0
 21 57  1  0
 22 58  1  0
 23 59  1  0
 24 60  1  0
 25 61  1  0
 26 62  1  0
 26 63  1  0
 27 64  1  0
 27 65  1  0
 31 66  1  0
 31 67  1  0
 32 68  1  0
 33 69  1  0
 34 70  1  0
 35 71  1  0
 36 72  1  0
 36 73  1  0
 37 74  1  0
 37 75  1  0
M  END
$$$$
