
     RDKit          3D

 78 82  0  0  0  0  0  0  0  0999 V2000
   -4.0810   -1.3325   -0.9557 C   0  0  0  0  0  0  0  0  0  0  0  0
   -3.5573   -2.3283    0.0837 C   0  0  0  0  0  0  0  0  0  0  0  0
   -2.0489   -2.1120    0.3928 C   0  0  0  0  0  0  0  0  0  0  0  0
   -1.8462   -0.8061    1.1086 C   0  0  0  0  0  0  0  0  0  0  0  0
   -1.9858   -0.6324    2.4358 N   0  0  0  0  0  0  0  0  0  0  0  0
   -1.6412    0.6277    2.6794 N   0  0  0  0  0  0  0  0  0  0  0  0
   -1.3175    1.1655    1.4889 C   0  0  0  0  0  0  0  0  0  0  0  0
   -1.4345    0.2907    0.5216 O   0  0  0  0  0  0  0  0  0  0  0  0
   -0.7670    2.5565    1.3079 C   0  0  2  0  0  0  0  0  0  0  0  0
   -1.3592    3.2323    0.0540 C   0  0  0  0  0  0  0  0  0  0  0  0
   -2.8443    3.4678    0.1790 C   0  0  0  0  0  0  0  0  0  0  0  0
   -3.7525    2.6515   -0.5146 C   0  0  0  0  0  0  0  0  0  0  0  0
   -5.1297    2.8485   -0.3526 C   0  0  0  0  0  0  0  0  0  0  0  0
   -5.6040    3.8663    0.4787 C   0  0  0  0  0  0  0  0  0  0  0  0
   -4.7017    4.6906    1.1598 C   0  0  0  0  0  0  0  0  0  0  0  0
   -3.3254    4.4912    1.0099 C   0  0  0  0  0  0  0  0  0  0  0  0
    0.6883    2.4722    1.1784 N   0  0  0  0  0  0  0  0  0  0  0  0
    1.5138    3.6438    1.2176 C   0  0  0  0  0  0  0  0  0  0  0  0
    1.3947    4.4579    2.1782 O   0  0  0  0  0  0  0  0  0  0  0  0
    2.5716    3.8739    0.1749 C   0  0  0  0  0  0  0  0  0  0  0  0
    2.1581    3.3382   -1.1258 N   0  0  0  0  0  0  0  0  0  0  0  0
    2.3327    1.9776   -1.5640 C   0  0  0  0  0  0  0  0  0  0  0  0
    1.7962    1.6313   -2.6527 O   0  0  0  0  0  0  0  0  0  0  0  0
    3.2241    0.9965   -0.8302 C   0  0  2  0  0  0  0  0  0  0  0  0
    4.6626    1.0357   -1.4045 C   0  0  0  0  0  0  0  0  0  0  0  0
    5.7481    0.2697   -0.6009 C   0  0  0  0  0  0  0  0  0  0  0  0
    5.5550   -1.2496   -0.6093 C   0  0  0  0  0  0  0  0  0  0  0  0
    5.9184    0.7901    0.8331 C   0  0  0  0  0  0  0  0  0  0  0  0
    2.6238   -0.3481   -0.8266 N   0  0  0  0  0  0  0  0  0  0  0  0
    2.4354   -1.2037   -1.9686 C   0  0  0  0  0  0  0  0  0  0  0  0
    2.9358   -0.9127   -3.0869 O   0  0  0  0  0  0  0  0  0  0  0  0
    1.6101   -2.4177   -1.8336 C   0  0  0  0  0  0  0  0  0  0  0  0
    1.3871   -3.3405   -2.8560 C   0  0  0  0  0  0  0  0  0  0  0  0
    0.2864   -4.4866   -2.2906 S   0  0  0  0  0  0  0  0  0  0  0  0
    0.1228   -3.7490   -0.7843 C   0  0  0  0  0  0  0  0  0  0  0  0
    0.9064   -2.6573   -0.7000 N   0  0  0  0  0  0  0  0  0  0  0  0
   -0.6796   -4.2503    0.3893 C   0  0  2  0  0  0  0  0  0  0  0  0
   -1.7221   -5.3159    0.1097 C   0  0  0  0  0  0  0  0  0  0  0  0
   -2.6192   -5.2577    1.3462 C   0  0  0  0  0  0  0  0  0  0  0  0
   -2.2250   -3.9661    2.0828 C   0  0  0  0  0  0  0  0  0  0  0  0
   -1.3553   -3.1956    1.1775 N   0  0  0  0  0  0  0  0  0  0  0  0
   -5.1425   -1.5565   -1.1843 H   0  0  0  0  0  0  0  0  0  0  0  0
   -4.0162   -0.2970   -0.5645 H   0  0  0  0  0  0  0  0  0  0  0  0
   -3.5020   -1.3994   -1.9018 H   0  0  0  0  0  0  0  0  0  0  0  0
   -3.7211   -3.3374   -0.3309 H   0  0  0  0  0  0  0  0  0  0  0  0
   -4.1792   -2.2079    0.9956 H   0  0  0  0  0  0  0  0  0  0  0  0
   -1.5606   -1.9694   -0.5902 H   0  0  0  0  0  0  0  0  0  0  0  0
   -1.0174    3.1598    2.2052 H   0  0  0  0  0  0  0  0  0  0  0  0
   -1.1302    2.6217   -0.8467 H   0  0  0  0  0  0  0  0  0  0  0  0
   -0.8680    4.2197   -0.0883 H   0  0  0  0  0  0  0  0  0  0  0  0
   -3.4022    1.8610   -1.1616 H   0  0  0  0  0  0  0  0  0  0  0  0
   -5.8235    2.2049   -0.8769 H   0  0  0  0  0  0  0  0  0  0  0  0
   -6.6684    4.0157    0.5955 H   0  0  0  0  0  0  0  0  0  0  0  0
   -5.0636    5.4748    1.8024 H   0  0  0  0  0  0  0  0  0  0  0  0
   -2.6314    5.1208    1.5509 H   0  0  0  0  0  0  0  0  0  0  0  0
    1.1465    1.5423    1.0183 H   0  0  0  0  0  0  0  0  0  0  0  0
    2.7209    4.9718    0.0705 H   0  0  0  0  0  0  0  0  0  0  0  0
    3.5478    3.4521    0.4970 H   0  0  0  0  0  0  0  0  0  0  0  0
    1.6458    3.9850   -1.7678 H   0  0  0  0  0  0  0  0  0  0  0  0
    3.2874    1.3147    0.2265 H   0  0  0  0  0  0  0  0  0  0  0  0
    4.6731    0.6952   -2.4588 H   0  0  0  0  0  0  0  0  0  0  0  0
    4.9804    2.0996   -1.4397 H   0  0  0  0  0  0  0  0  0  0  0  0
    6.7113    0.4642   -1.1313 H   0  0  0  0  0  0  0  0  0  0  0  0
    6.4955   -1.7411   -0.2844 H   0  0  0  0  0  0  0  0  0  0  0  0
    5.3226   -1.6110   -1.6290 H   0  0  0  0  0  0  0  0  0  0  0  0
    4.7486   -1.5668    0.0841 H   0  0  0  0  0  0  0  0  0  0  0  0
    6.0308    1.8958    0.8328 H   0  0  0  0  0  0  0  0  0  0  0  0
    5.0531    0.5082    1.4674 H   0  0  0  0  0  0  0  0  0  0  0  0
    6.8276    0.3442    1.2959 H   0  0  0  0  0  0  0  0  0  0  0  0
    2.1782   -0.6336    0.0725 H   0  0  0  0  0  0  0  0  0  0  0  0
    1.8255   -3.3292   -3.8418 H   0  0  0  0  0  0  0  0  0  0  0  0
    0.0826   -4.7155    1.0491 H   0  0  0  0  0  0  0  0  0  0  0  0
   -2.3037   -5.0768   -0.8114 H   0  0  0  0  0  0  0  0  0  0  0  0
   -1.2614   -6.3229   -0.0034 H   0  0  0  0  0  0  0  0  0  0  0  0
   -3.6936   -5.2327    1.0625 H   0  0  0  0  0  0  0  0  0  0  0  0
   -2.4406   -6.1382    2.0026 H   0  0  0  0  0  0  0  0  0  0  0  0
   -3.0938   -3.3984    2.4646 H   0  0  0  0  0  0  0  0  0  0  0  0
   -1.6324   -4.2310    2.9881 H   0  0  0  0  0  0  0  0  0  0  0  0
  1  2  1  0
  2  3  1  0
  3  4  1  0
  4  5  2  0
  5  6  1  0
  6  7  2  0
  7  8  1  0
  7  9  1  0
  9 10  1  0
 10 11  1  0
 11 12  2  0
 12 13  1  0
 13 14  2  0
 14 15  1  0
 15 16  2  0
  9 17  1  0
 17 18  1  0
 18 19  2  0
 18 20  1  0
 20 21  1  0
 21 22  1  0
 22 23  2  0
 22 24  1  0
 24 25  1  0
 25 26  1  0
 26 27  1  0
 26 28  1  0
 24 29  1  0
 29 30  1  0
 30 31  2  0
 30 32  1  0
 32 33  2  0
 33 34  1  0
 34 35  1  0
 35 36  2  0
 35 37  1  0
 37 38  1  0
 38 39  1  0
 39 40  1  0
 40 41  1  0
 41  3  1  0
  8  4  1  0
 16 11  1  0
 36 32  1  0
 41 37  1  0
  1 42  1  0
  1 43  1  0
  1 44  1  0
  2 45  1  0
  2 46  1  0
  3 47  1  0
  9 48  1  1
 10 49  1  0
 10 50  1  0
 12 51  1  0
 13 52  1  0
 14 53  1  0
 15 54  1  0
 16 55  1  0
 17 56  1  0
 20 57  1  0
 20 58  1  0
 21 59  1  0
 24 60  1  1
 25 61  1  0
 25 62  1  0
 26 63  1  0
 27 64  1  0
 27 65  1  0
 27 66  1  0
 28 67  1  0
 28 68  1  0
 28 69  1  0
 29 70  1  0
 33 71  1  0
 37 72  1  1
 38 73  1  0
 38 74  1  0
 39 75  1  0
 39 76  1  0
 40 77  1  0
 40 78  1  0
M  END
$$$$
