
     RDKit          3D

 68 71  0  0  0  0  0  0  0  0999 V2000
   -1.6774    0.0180   -3.5254 O   0  0  0  0  0  0  0  0  0  0  0  0
   -2.3299   -0.2705   -2.4850 C   0  0  0  0  0  0  0  0  0  0  0  0
   -1.9551    0.3638   -1.1652 C   0  0  0  0  0  0  0  0  0  0  0  0
   -0.5519    0.1130   -0.7514 N   0  0  0  0  0  0  0  0  0  0  0  0
    0.4244    1.0221   -1.3867 C   0  0  0  0  0  0  0  0  0  0  0  0
    0.3624    2.3843   -0.7473 C   0  0  0  0  0  0  0  0  0  0  0  0
    0.5907    2.5251    0.6325 C   0  0  0  0  0  0  0  0  0  0  0  0
    0.5480    3.7894    1.2295 C   0  0  0  0  0  0  0  0  0  0  0  0
    0.2746    4.9201    0.4558 C   0  0  0  0  0  0  0  0  0  0  0  0
    0.0474    4.7888   -0.9184 C   0  0  0  0  0  0  0  0  0  0  0  0
    0.0917    3.5255   -1.5197 C   0  0  0  0  0  0  0  0  0  0  0  0
   -0.1422   -1.3117   -0.7644 C   0  0  0  0  0  0  0  0  0  0  0  0
    0.0204   -1.8017    0.6628 C   0  0  0  0  0  0  0  0  0  0  0  0
   -1.0790   -2.4315    1.2928 C   0  0  0  0  0  0  0  0  0  0  0  0
   -1.0056   -2.7760    2.6523 C   0  0  0  0  0  0  0  0  0  0  0  0
    0.1491   -2.5118    3.3834 C   0  0  0  0  0  0  0  0  0  0  0  0
    1.2476   -1.9144    2.7687 C   0  0  0  0  0  0  0  0  0  0  0  0
    1.2079   -1.5646    1.4095 C   0  0  0  0  0  0  0  0  0  0  0  0
    2.4372   -1.0093    0.7982 C   0  0  0  0  0  0  0  0  0  0  0  0
    2.8984   -1.5309   -0.2542 O   0  0  0  0  0  0  0  0  0  0  0  0
    3.1436    0.0725    1.4287 N   0  0  0  0  0  0  0  0  0  0  0  0
    4.4157    0.5722    0.8919 C   0  0  0  0  0  0  0  0  0  0  0  0
    4.2099    1.4081   -0.3692 C   0  0  0  0  0  0  0  0  0  0  0  0
    5.3361    2.4400   -0.3809 C   0  0  0  0  0  0  0  0  0  0  0  0
    6.0287    2.3542    0.9789 C   0  0  0  0  0  0  0  0  0  0  0  0
    5.1243    1.5073    1.8604 C   0  0  0  0  0  0  0  0  0  0  0  0
   -2.2385   -2.6773    0.5437 O   0  0  0  0  0  0  0  0  0  0  0  0
   -3.1273   -3.7818    0.7245 C   0  0  0  0  0  0  0  0  0  0  0  0
   -4.5376   -3.2978    1.1022 C   0  0  0  0  0  0  0  0  0  0  0  0
   -4.9871   -2.0454    0.3275 C   0  0  0  0  0  0  0  0  0  0  0  0
   -5.1530   -2.2771   -1.1913 C   0  0  0  0  0  0  0  0  0  0  0  0
   -4.7016   -1.0629   -2.0299 C   0  0  0  0  0  0  0  0  0  0  0  0
   -3.3514   -1.2698   -2.5585 N   0  0  0  0  0  0  0  0  0  0  0  0
   -2.6188   -0.0138   -0.3659 H   0  0  0  0  0  0  0  0  0  0  0  0
   -2.1541    1.4543   -1.2289 H   0  0  0  0  0  0  0  0  0  0  0  0
    1.4597    0.6492   -1.2471 H   0  0  0  0  0  0  0  0  0  0  0  0
    0.2648    1.0829   -2.4827 H   0  0  0  0  0  0  0  0  0  0  0  0
    0.8035    1.6575    1.2434 H   0  0  0  0  0  0  0  0  0  0  0  0
    0.7271    3.8909    2.2923 H   0  0  0  0  0  0  0  0  0  0  0  0
    0.2407    5.8981    0.9204 H   0  0  0  0  0  0  0  0  0  0  0  0
   -0.1643    5.6667   -1.5159 H   0  0  0  0  0  0  0  0  0  0  0  0
   -0.0846    3.4356   -2.5853 H   0  0  0  0  0  0  0  0  0  0  0  0
   -0.8738   -1.9527   -1.2963 H   0  0  0  0  0  0  0  0  0  0  0  0
    0.7796   -1.4777   -1.3539 H   0  0  0  0  0  0  0  0  0  0  0  0
   -1.8533   -3.2178    3.1589 H   0  0  0  0  0  0  0  0  0  0  0  0
    0.1963   -2.7718    4.4333 H   0  0  0  0  0  0  0  0  0  0  0  0
    2.1428   -1.7420    3.3537 H   0  0  0  0  0  0  0  0  0  0  0  0
    2.7849    0.4386    2.3395 H   0  0  0  0  0  0  0  0  0  0  0  0
    5.0932   -0.2844    0.6660 H   0  0  0  0  0  0  0  0  0  0  0  0
    4.2283    0.7690   -1.2792 H   0  0  0  0  0  0  0  0  0  0  0  0
    3.2355    1.9429   -0.3205 H   0  0  0  0  0  0  0  0  0  0  0  0
    6.0579    2.2250   -1.1984 H   0  0  0  0  0  0  0  0  0  0  0  0
    4.9201    3.4593   -0.5345 H   0  0  0  0  0  0  0  0  0  0  0  0
    6.1888    3.3615    1.4186 H   0  0  0  0  0  0  0  0  0  0  0  0
    7.0142    1.8492    0.8628 H   0  0  0  0  0  0  0  0  0  0  0  0
    5.7084    0.9421    2.6182 H   0  0  0  0  0  0  0  0  0  0  0  0
    4.3893    2.1665    2.3719 H   0  0  0  0  0  0  0  0  0  0  0  0
   -2.7568   -4.4923    1.4913 H   0  0  0  0  0  0  0  0  0  0  0  0
   -3.1643   -4.3483   -0.2310 H   0  0  0  0  0  0  0  0  0  0  0  0
   -4.5464   -3.0524    2.1871 H   0  0  0  0  0  0  0  0  0  0  0  0
   -5.2650   -4.1228    0.9402 H   0  0  0  0  0  0  0  0  0  0  0  0
   -4.2803   -1.2202    0.5489 H   0  0  0  0  0  0  0  0  0  0  0  0
   -5.9647   -1.7131    0.7430 H   0  0  0  0  0  0  0  0  0  0  0  0
   -6.2263   -2.4746   -1.3963 H   0  0  0  0  0  0  0  0  0  0  0  0
   -4.6106   -3.1823   -1.5309 H   0  0  0  0  0  0  0  0  0  0  0  0
   -5.3906   -0.9471   -2.8955 H   0  0  0  0  0  0  0  0  0  0  0  0
   -4.7689   -0.1168   -1.4490 H   0  0  0  0  0  0  0  0  0  0  0  0
   -3.2330   -2.0292   -3.2684 H   0  0  0  0  0  0  0  0  0  0  0  0
  1  2  2  0
  2  3  1  0
  3  4  1  0
  4  5  1  0
  5  6  1  0
  6  7  2  0
  7  8  1  0
  8  9  2  0
  9 10  1  0
 10 11  2  0
  4 12  1  0
 12 13  1  0
 13 14  2  0
 14 15  1  0
 15 16  2  0
 16 17  1  0
 17 18  2  0
 18 19  1  0
 19 20  2  0
 19 21  1  0
 21 22  1  0
 22 23  1  0
 23 24  1  0
 24 25  1  0
 25 26  1  0
 14 27  1  0
 27 28  1  0
 28 29  1  0
 29 30  1  0
 30 31  1  0
 31 32  1  0
 32 33  1  0
 33  2  1  0
 11  6  1  0
 18 13  1  0
 26 22  1  0
  3 34  1  0
  3 35  1  0
  5 36  1  0
  5 37  1  0
  7 38  1  0
  8 39  1  0
  9 40  1  0
 10 41  1  0
 11 42  1  0
 12 43  1  0
 12 44  1  0
 15 45  1  0
 16 46  1  0
 17 47  1  0
 21 48  1  0
 22 49  1  0
 23 50  1  0
 23 51  1  0
 24 52  1  0
 24 53  1  0
 25 54  1  0
 25 55  1  0
 26 56  1  0
 26 57  1  0
 28 58  1  0
 28 59  1  0
 29 60  1  0
 29 61  1  0
 30 62  1  0
 30 63  1  0
 31 64  1  0
 31 65  1  0
 32 66  1  0
 32 67  1  0
 33 68  1  0
M  END
$$$$
