
     RDKit          3D

105109  0  0  0  0  0  0  0  0999 V2000
    9.2462   -3.4710    0.1093 C   0  0  0  0  0  0  0  0  0  0  0  0
    8.2692   -2.9207    1.1594 C   0  0  0  0  0  0  0  0  0  0  0  0
    9.0899   -2.1477    2.2068 C   0  0  0  0  0  0  0  0  0  0  0  0
    7.2242   -2.0125    0.6073 N   0  0  0  0  0  0  0  0  0  0  0  0
    6.8855   -2.1885   -0.8294 C   0  0  0  0  0  0  0  0  0  0  0  0
    5.4963   -1.6400   -1.2239 C   0  0  0  0  0  0  0  0  0  0  0  0
    4.9530   -0.4950   -0.3264 C   0  0  0  0  0  0  0  0  0  0  0  0
    5.3920    0.9104   -0.8162 C   0  0  0  0  0  0  0  0  0  0  0  0
    4.7553    1.3376   -2.1553 C   0  0  0  0  0  0  0  0  0  0  0  0
    3.3023    1.1625   -2.1540 N   0  0  0  0  0  0  0  0  0  0  0  0
    2.4214    1.9553   -1.3438 C   0  0  0  0  0  0  0  0  0  0  0  0
    2.8972    2.8266   -0.5765 O   0  0  0  0  0  0  0  0  0  0  0  0
    0.9340    1.7187   -1.3896 C   0  0  0  0  0  0  0  0  0  0  0  0
    0.5244    0.5670   -0.4338 C   0  0  0  0  0  0  0  0  0  0  0  0
   -0.4904   -0.3701   -1.0563 C   0  0  0  0  0  0  0  0  0  0  0  0
   -0.2855   -0.8199   -2.2194 O   0  0  0  0  0  0  0  0  0  0  0  0
   -1.6989   -0.7290   -0.3772 N   0  0  0  0  0  0  0  0  0  0  0  0
   -1.7508   -1.8173    0.6227 C   0  0  0  0  0  0  0  0  0  0  0  0
   -0.9743   -1.4009    1.8931 C   0  0  0  0  0  0  0  0  0  0  0  0
   -0.6307   -2.5639    2.7738 C   0  0  0  0  0  0  0  0  0  0  0  0
   -0.6216   -2.5374    4.1513 C   0  0  0  0  0  0  0  0  0  0  0  0
    0.1751   -3.5200    4.6128 N   0  0  0  0  0  0  0  0  0  0  0  0
    0.6245   -4.1349    3.4967 C   0  0  0  0  0  0  0  0  0  0  0  0
    0.1396   -3.5938    2.3669 N   0  0  0  0  0  0  0  0  0  0  0  0
   -3.1954   -2.1720    0.9414 C   0  0  0  0  0  0  0  0  0  0  0  0
   -3.7267   -3.1949    0.3979 O   0  0  0  0  0  0  0  0  0  0  0  0
   -3.9556   -1.3681    1.8445 N   0  0  0  0  0  0  0  0  0  0  0  0
   -5.3086   -0.8247    1.5584 C   0  0  0  0  0  0  0  0  0  0  0  0
   -5.4730   -0.4174    0.0756 C   0  0  0  0  0  0  0  0  0  0  0  0
   -6.8099    0.2133   -0.2160 C   0  0  0  0  0  0  0  0  0  0  0  0
   -6.9604    1.6106   -0.2402 C   0  0  0  0  0  0  0  0  0  0  0  0
   -8.2097    2.1819   -0.5009 C   0  0  0  0  0  0  0  0  0  0  0  0
   -9.3266    1.3634   -0.7195 C   0  0  0  0  0  0  0  0  0  0  0  0
   -9.1919   -0.0307   -0.6510 C   0  0  0  0  0  0  0  0  0  0  0  0
   -7.9409   -0.6059   -0.4040 C   0  0  0  0  0  0  0  0  0  0  0  0
   -5.6039    0.3303    2.4947 C   0  0  0  0  0  0  0  0  0  0  0  0
   -6.7931    0.5369    2.8628 O   0  0  0  0  0  0  0  0  0  0  0  0
   -4.5521    1.1289    3.0562 N   0  0  0  0  0  0  0  0  0  0  0  0
   -4.0539    2.3432    2.3899 C   0  0  0  0  0  0  0  0  0  0  0  0
   -2.9207    2.0053    1.4069 C   0  0  0  0  0  0  0  0  0  0  0  0
   -2.9298    2.8785    0.1454 C   0  0  0  0  0  0  0  0  0  0  0  0
   -2.4169    2.1082   -0.9371 O   0  0  0  0  0  0  0  0  0  0  0  0
   -2.5185    2.5263   -2.2575 C   0  0  0  0  0  0  0  0  0  0  0  0
   -3.6154    2.1128   -3.0200 C   0  0  0  0  0  0  0  0  0  0  0  0
   -3.7476    2.5410   -4.3412 C   0  0  0  0  0  0  0  0  0  0  0  0
   -2.7889    3.3846   -4.9086 C   0  0  0  0  0  0  0  0  0  0  0  0
   -1.6757    3.7821   -4.1590 C   0  0  0  0  0  0  0  0  0  0  0  0
   -1.5218    3.3501   -2.8283 C   0  0  0  0  0  0  0  0  0  0  0  0
   -0.3540    3.7924   -2.0370 C   0  0  0  0  0  0  0  0  0  0  0  0
    0.1267    4.9375   -2.2255 O   0  0  0  0  0  0  0  0  0  0  0  0
    0.2293    2.9540   -1.0366 N   0  0  0  0  0  0  0  0  0  0  0  0
    5.2722   -0.7051    1.1775 C   0  0  0  0  0  0  0  0  0  0  0  0
    6.0166   -1.9995    1.4459 C   0  0  0  0  0  0  0  0  0  0  0  0
    8.7661   -4.2691   -0.4970 H   0  0  0  0  0  0  0  0  0  0  0  0
   10.1308   -3.9425    0.5968 H   0  0  0  0  0  0  0  0  0  0  0  0
    9.6236   -2.6729   -0.5557 H   0  0  0  0  0  0  0  0  0  0  0  0
    7.8015   -3.7966    1.6524 H   0  0  0  0  0  0  0  0  0  0  0  0
    9.9296   -2.7523    2.6274 H   0  0  0  0  0  0  0  0  0  0  0  0
    8.4456   -1.8377    3.0626 H   0  0  0  0  0  0  0  0  0  0  0  0
    9.5348   -1.2296    1.7490 H   0  0  0  0  0  0  0  0  0  0  0  0
    7.6498   -1.6626   -1.4429 H   0  0  0  0  0  0  0  0  0  0  0  0
    6.8890   -3.2680   -1.1043 H   0  0  0  0  0  0  0  0  0  0  0  0
    4.7715   -2.4801   -1.1592 H   0  0  0  0  0  0  0  0  0  0  0  0
    5.5100   -1.3586   -2.2970 H   0  0  0  0  0  0  0  0  0  0  0  0
    3.8469   -0.5404   -0.3991 H   0  0  0  0  0  0  0  0  0  0  0  0
    5.1113    1.6714   -0.0546 H   0  0  0  0  0  0  0  0  0  0  0  0
    6.4979    0.9536   -0.9133 H   0  0  0  0  0  0  0  0  0  0  0  0
    5.1963    0.7531   -2.9905 H   0  0  0  0  0  0  0  0  0  0  0  0
    4.9953    2.4095   -2.3416 H   0  0  0  0  0  0  0  0  0  0  0  0
    2.8856    0.4354   -2.7730 H   0  0  0  0  0  0  0  0  0  0  0  0
    0.6820    1.4535   -2.4414 H   0  0  0  0  0  0  0  0  0  0  0  0
    1.4069   -0.0454   -0.1382 H   0  0  0  0  0  0  0  0  0  0  0  0
    0.1101    1.0029    0.5078 H   0  0  0  0  0  0  0  0  0  0  0  0
   -2.5693   -0.5831   -0.9334 H   0  0  0  0  0  0  0  0  0  0  0  0
   -1.2546   -2.7129    0.1862 H   0  0  0  0  0  0  0  0  0  0  0  0
    0.0143   -0.9716    1.6090 H   0  0  0  0  0  0  0  0  0  0  0  0
   -1.5282   -0.6242    2.4636 H   0  0  0  0  0  0  0  0  0  0  0  0
   -1.0739   -1.7769    4.7751 H   0  0  0  0  0  0  0  0  0  0  0  0
    1.4227   -4.8474    3.4932 H   0  0  0  0  0  0  0  0  0  0  0  0
    0.4402   -3.8080    1.3954 H   0  0  0  0  0  0  0  0  0  0  0  0
   -3.7004   -1.4520    2.8572 H   0  0  0  0  0  0  0  0  0  0  0  0
   -6.0477   -1.6382    1.7607 H   0  0  0  0  0  0  0  0  0  0  0  0
   -5.3940   -1.3319   -0.5596 H   0  0  0  0  0  0  0  0  0  0  0  0
   -4.6695    0.2777   -0.2353 H   0  0  0  0  0  0  0  0  0  0  0  0
   -6.1026    2.2613   -0.0802 H   0  0  0  0  0  0  0  0  0  0  0  0
   -8.3116    3.2602   -0.5466 H   0  0  0  0  0  0  0  0  0  0  0  0
  -10.2981    1.8083   -0.9107 H   0  0  0  0  0  0  0  0  0  0  0  0
  -10.0526   -0.6631   -0.8387 H   0  0  0  0  0  0  0  0  0  0  0  0
   -7.8498   -1.6869   -0.3670 H   0  0  0  0  0  0  0  0  0  0  0  0
   -4.4326    1.0855    4.0924 H   0  0  0  0  0  0  0  0  0  0  0  0
   -3.6380    3.0366    3.1618 H   0  0  0  0  0  0  0  0  0  0  0  0
   -4.9044    2.8758    1.9014 H   0  0  0  0  0  0  0  0  0  0  0  0
   -1.9316    2.0950    1.9158 H   0  0  0  0  0  0  0  0  0  0  0  0
   -3.0169    0.9523    1.1021 H   0  0  0  0  0  0  0  0  0  0  0  0
   -2.2980    3.7799    0.3051 H   0  0  0  0  0  0  0  0  0  0  0  0
   -3.9562    3.2206   -0.1141 H   0  0  0  0  0  0  0  0  0  0  0  0
   -4.3762    1.4622   -2.5852 H   0  0  0  0  0  0  0  0  0  0  0  0
   -4.6027    2.2331   -4.9248 H   0  0  0  0  0  0  0  0  0  0  0  0
   -2.9076    3.7260   -5.9255 H   0  0  0  0  0  0  0  0  0  0  0  0
   -0.9369    4.4397   -4.6171 H   0  0  0  0  0  0  0  0  0  0  0  0
    0.3817    3.3716   -0.0932 H   0  0  0  0  0  0  0  0  0  0  0  0
    4.3365   -0.7082    1.7701 H   0  0  0  0  0  0  0  0  0  0  0  0
    5.8995    0.1226    1.5667 H   0  0  0  0  0  0  0  0  0  0  0  0
    5.3839   -2.8887    1.2412 H   0  0  0  0  0  0  0  0  0  0  0  0
    6.2588   -2.0176    2.5281 H   0  0  0  0  0  0  0  0  0  0  0  0
  1  2  1  0
  2  3  1  0
  2  4  1  0
  4  5  1  0
  5  6  1  0
  6  7  1  0
  7  8  1  0
  8  9  1  0
  9 10  1  0
 10 11  1  0
 11 12  2  0
 11 13  1  0
 13 14  1  0
 14 15  1  0
 15 16  2  0
 15 17  1  0
 17 18  1  0
 18 19  1  0
 19 20  1  0
 20 21  2  0
 21 22  1  0
 22 23  2  0
 23 24  1  0
 18 25  1  0
 25 26  2  0
 25 27  1  0
 27 28  1  0
 28 29  1  0
 29 30  1  0
 30 31  2  0
 31 32  1  0
 32 33  2  0
 33 34  1  0
 34 35  2  0
 28 36  1  0
 36 37  2  0
 36 38  1  0
 38 39  1  0
 39 40  1  0
 40 41  1  0
 41 42  1  0
 42 43  1  0
 43 44  2  0
 44 45  1  0
 45 46  2  0
 46 47  1  0
 47 48  2  0
 48 49  1  0
 49 50  2  0
 49 51  1  0
  7 52  1  0
 52 53  1  0
 53  4  1  0
 51 13  1  0
 24 20  1  0
 35 30  1  0
 48 43  1  0
  1 54  1  0
  1 55  1  0
  1 56  1  0
  2 57  1  0
  3 58  1  0
  3 59  1  0
  3 60  1  0
  5 61  1  0
  5 62  1  0
  6 63  1  0
  6 64  1  0
  7 65  1  0
  8 66  1  0
  8 67  1  0
  9 68  1  0
  9 69  1  0
 10 70  1  0
 13 71  1  0
 14 72  1  0
 14 73  1  0
 17 74  1  0
 18 75  1  0
 19 76  1  0
 19 77  1  0
 21 78  1  0
 23 79  1  0
 24 80  1  0
 27 81  1  0
 28 82  1  0
 29 83  1  0
 29 84  1  0
 31 85  1  0
 32 86  1  0
 33 87  1  0
 34 88  1  0
 35 89  1  0
 38 90  1  0
 39 91  1  0
 39 92  1  0
 40 93  1  0
 40 94  1  0
 41 95  1  0
 41 96  1  0
 44 97  1  0
 45 98  1  0
 46 99  1  0
 47100  1  0
 51101  1  0
 52102  1  0
 52103  1  0
 53104  1  0
 53105  1  0
M  END
$$$$
