
     RDKit          3D

 76 79  0  0  0  0  0  0  0  0999 V2000
    7.1582    0.9967    1.9199 C   0  0  0  0  0  0  0  0  0  0  0  0
    7.1776    0.0893    0.7167 C   0  0  0  0  0  0  0  0  0  0  0  0
    8.3410   -0.0087   -0.0662 C   0  0  0  0  0  0  0  0  0  0  0  0
    8.3940   -0.8717   -1.1141 N   0  0  0  0  0  0  0  0  0  0  0  0
    7.3426   -1.6678   -1.4405 C   0  0  0  0  0  0  0  0  0  0  0  0
    6.1680   -1.6155   -0.6914 C   0  0  0  0  0  0  0  0  0  0  0  0
    6.0735   -0.7311    0.3899 C   0  0  0  0  0  0  0  0  0  0  0  0
    4.8302   -0.7169    1.1848 C   0  0  0  0  0  0  0  0  0  0  0  0
    4.5886   -1.7132    1.9203 O   0  0  0  0  0  0  0  0  0  0  0  0
    3.8995    0.3922    1.1427 N   0  0  0  0  0  0  0  0  0  0  0  0
    2.8912    0.5163    2.2134 C   0  0  0  0  0  0  0  0  0  0  0  0
    1.7822   -0.5521    2.0633 C   0  0  0  0  0  0  0  0  0  0  0  0
    0.3613    0.0488    1.9626 C   0  0  0  0  0  0  0  0  0  0  0  0
   -0.5922   -0.8766    1.1684 C   0  0  0  0  0  0  0  0  0  0  0  0
   -1.8403   -0.1628    0.5568 C   0  0  0  0  0  0  0  0  0  0  0  0
   -2.6076   -1.1741   -0.3369 C   0  0  0  0  0  0  0  0  0  0  0  0
   -3.9509   -0.6261   -0.8716 C   0  0  0  0  0  0  0  0  0  0  0  0
   -4.3804    0.5858   -0.1457 N   0  0  0  0  0  0  0  0  0  0  0  0
   -5.6905    1.1101   -0.5903 C   0  0  0  0  0  0  0  0  0  0  0  0
   -6.8530    0.1841   -0.3015 C   0  0  0  0  0  0  0  0  0  0  0  0
   -7.5220    0.2404    0.9348 C   0  0  0  0  0  0  0  0  0  0  0  0
   -8.6029   -0.6081    1.1919 C   0  0  0  0  0  0  0  0  0  0  0  0
   -9.0304   -1.5124    0.2172 C   0  0  0  0  0  0  0  0  0  0  0  0
   -8.3836   -1.5643   -1.0198 C   0  0  0  0  0  0  0  0  0  0  0  0
   -7.2999   -0.7208   -1.2800 C   0  0  0  0  0  0  0  0  0  0  0  0
   -4.2670    0.4241    1.3127 C   0  0  0  0  0  0  0  0  0  0  0  0
   -2.7874    0.2629    1.7309 C   0  0  0  0  0  0  0  0  0  0  0  0
   -1.4199    1.0592   -0.2820 C   0  0  0  0  0  0  0  0  0  0  0  0
   -2.0736    2.1349   -0.1861 O   0  0  0  0  0  0  0  0  0  0  0  0
   -0.2539    1.0909   -1.0586 O   0  0  0  0  0  0  0  0  0  0  0  0
    0.0867    0.1671   -2.0861 C   0  0  0  0  0  0  0  0  0  0  0  0
    1.4186    0.5683   -2.7637 C   0  0  0  0  0  0  0  0  0  0  0  0
    1.3273    1.8276   -3.3832 O   0  0  0  0  0  0  0  0  0  0  0  0
    2.6848    0.4658   -1.8559 C   0  0  0  0  0  0  0  0  0  0  0  0
    2.7539   -0.8078   -1.2661 O   0  0  0  0  0  0  0  0  0  0  0  0
    2.7635    1.5581   -0.7650 C   0  0  0  0  0  0  0  0  0  0  0  0
    4.0148    1.4589    0.1261 C   0  0  0  0  0  0  0  0  0  0  0  0
    8.0646    1.6363    1.9635 H   0  0  0  0  0  0  0  0  0  0  0  0
    7.1142    0.3825    2.8436 H   0  0  0  0  0  0  0  0  0  0  0  0
    6.2762    1.6646    1.8841 H   0  0  0  0  0  0  0  0  0  0  0  0
    9.2127    0.5916    0.1625 H   0  0  0  0  0  0  0  0  0  0  0  0
    7.4209   -2.3468   -2.2801 H   0  0  0  0  0  0  0  0  0  0  0  0
    5.3383   -2.2596   -0.9525 H   0  0  0  0  0  0  0  0  0  0  0  0
    2.4680    1.5450    2.2261 H   0  0  0  0  0  0  0  0  0  0  0  0
    3.3918    0.3902    3.1992 H   0  0  0  0  0  0  0  0  0  0  0  0
    1.9997   -1.1709    1.1650 H   0  0  0  0  0  0  0  0  0  0  0  0
    1.8165   -1.2473    2.9364 H   0  0  0  0  0  0  0  0  0  0  0  0
   -0.0414    0.2064    2.9885 H   0  0  0  0  0  0  0  0  0  0  0  0
    0.4043    1.0468    1.4881 H   0  0  0  0  0  0  0  0  0  0  0  0
   -0.9187   -1.6960    1.8457 H   0  0  0  0  0  0  0  0  0  0  0  0
   -0.0369   -1.3911    0.3641 H   0  0  0  0  0  0  0  0  0  0  0  0
   -2.8237   -2.0855    0.2658 H   0  0  0  0  0  0  0  0  0  0  0  0
   -1.9852   -1.5096   -1.1931 H   0  0  0  0  0  0  0  0  0  0  0  0
   -4.7150   -1.4274   -0.7882 H   0  0  0  0  0  0  0  0  0  0  0  0
   -3.8316   -0.3765   -1.9482 H   0  0  0  0  0  0  0  0  0  0  0  0
   -5.8724    2.0978   -0.1093 H   0  0  0  0  0  0  0  0  0  0  0  0
   -5.6437    1.3243   -1.6809 H   0  0  0  0  0  0  0  0  0  0  0  0
   -7.2118    0.9459    1.6958 H   0  0  0  0  0  0  0  0  0  0  0  0
   -9.1162   -0.5574    2.1448 H   0  0  0  0  0  0  0  0  0  0  0  0
   -9.8672   -2.1677    0.4156 H   0  0  0  0  0  0  0  0  0  0  0  0
   -8.7247   -2.2557   -1.7801 H   0  0  0  0  0  0  0  0  0  0  0  0
   -6.8105   -0.7720   -2.2443 H   0  0  0  0  0  0  0  0  0  0  0  0
   -4.8422   -0.4694    1.6415 H   0  0  0  0  0  0  0  0  0  0  0  0
   -4.6852    1.3124    1.8347 H   0  0  0  0  0  0  0  0  0  0  0  0
   -2.7602   -0.4965    2.5448 H   0  0  0  0  0  0  0  0  0  0  0  0
   -2.4199    1.2092    2.1882 H   0  0  0  0  0  0  0  0  0  0  0  0
   -0.7205    0.1677   -2.8497 H   0  0  0  0  0  0  0  0  0  0  0  0
    0.1790   -0.8615   -1.6954 H   0  0  0  0  0  0  0  0  0  0  0  0
    1.5674   -0.1681   -3.5839 H   0  0  0  0  0  0  0  0  0  0  0  0
    0.9829    2.4759   -2.7166 H   0  0  0  0  0  0  0  0  0  0  0  0
    3.5746    0.6057   -2.5153 H   0  0  0  0  0  0  0  0  0  0  0  0
    2.9883   -1.4448   -1.9911 H   0  0  0  0  0  0  0  0  0  0  0  0
    1.8734    1.5420   -0.1243 H   0  0  0  0  0  0  0  0  0  0  0  0
    2.7900    2.5514   -1.2620 H   0  0  0  0  0  0  0  0  0  0  0  0
    4.9043    1.3263   -0.5227 H   0  0  0  0  0  0  0  0  0  0  0  0
    4.1582    2.4305    0.6476 H   0  0  0  0  0  0  0  0  0  0  0  0
  1  2  1  0
  2  3  2  0
  3  4  1  0
  4  5  2  0
  5  6  1  0
  6  7  2  0
  7  8  1  0
  8  9  2  0
  8 10  1  0
 10 11  1  0
 11 12  1  0
 12 13  1  0
 13 14  1  0
 14 15  1  0
 15 16  1  0
 16 17  1  0
 17 18  1  0
 18 19  1  0
 19 20  1  0
 20 21  2  0
 21 22  1  0
 22 23  2  0
 23 24  1  0
 24 25  2  0
 18 26  1  0
 26 27  1  0
 15 28  1  0
 28 29  2  0
 28 30  1  0
 30 31  1  0
 31 32  1  0
 32 33  1  0
 32 34  1  0
 34 35  1  0
 34 36  1  0
 36 37  1  0
  7  2  1  0
 37 10  1  0
 27 15  1  0
 25 20  1  0
  1 38  1  0
  1 39  1  0
  1 40  1  0
  3 41  1  0
  5 42  1  0
  6 43  1  0
 11 44  1  0
 11 45  1  0
 12 46  1  0
 12 47  1  0
 13 48  1  0
 13 49  1  0
 14 50  1  0
 14 51  1  0
 16 52  1  0
 16 53  1  0
 17 54  1  0
 17 55  1  0
 19 56  1  0
 19 57  1  0
 21 58  1  0
 22 59  1  0
 23 60  1  0
 24 61  1  0
 25 62  1  0
 26 63  1  0
 26 64  1  0
 27 65  1  0
 27 66  1  0
 31 67  1  0
 31 68  1  0
 32 69  1  0
 33 70  1  0
 34 71  1  0
 35 72  1  0
 36 73  1  0
 36 74  1  0
 37 75  1  0
 37 76  1  0
M  END
$$$$
