
     RDKit          3D

 72 75  0  0  0  0  0  0  0  0999 V2000
   -3.8996    4.1682   -0.4219 C   0  0  0  0  0  0  0  0  0  0  0  0
   -2.6458    3.5892   -1.0819 C   0  0  0  0  0  0  0  0  0  0  0  0
   -1.4136    3.6628   -0.1673 C   0  0  0  0  0  0  0  0  0  0  0  0
   -1.3520    2.6279    0.9914 C   0  0  0  0  0  0  0  0  0  0  0  0
   -1.4014    1.1854    0.6190 N   0  0  0  0  0  0  0  0  0  0  0  0
   -2.7806    0.6529    0.4930 C   0  0  0  0  0  0  0  0  0  0  0  0
   -3.1302   -0.1814    1.7309 C   0  0  0  0  0  0  0  0  0  0  0  0
   -4.2993   -0.9837    1.5476 O   0  0  0  0  0  0  0  0  0  0  0  0
   -4.5602   -1.7789    0.4225 C   0  0  0  0  0  0  0  0  0  0  0  0
   -5.6109   -1.3747   -0.4103 C   0  0  0  0  0  0  0  0  0  0  0  0
   -5.9619   -2.1228   -1.5330 C   0  0  0  0  0  0  0  0  0  0  0  0
   -5.2772   -3.2996   -1.8273 C   0  0  0  0  0  0  0  0  0  0  0  0
   -4.2360   -3.7277   -1.0021 C   0  0  0  0  0  0  0  0  0  0  0  0
   -3.8469   -2.9726    0.1229 C   0  0  0  0  0  0  0  0  0  0  0  0
   -2.7325   -3.5143    0.9984 C   0  0  0  0  0  0  0  0  0  0  0  0
   -1.3880   -3.6683    0.2506 C   0  0  0  0  0  0  0  0  0  0  0  0
   -0.8407   -2.3617   -0.3624 C   0  0  0  0  0  0  0  0  0  0  0  0
    0.1192   -1.6236    0.5956 C   0  0  0  0  0  0  0  0  0  0  0  0
    0.6809   -0.2422    0.1122 C   0  0  0  0  0  0  0  0  0  0  0  0
    1.4011    0.4048    1.3428 C   0  0  0  0  0  0  0  0  0  0  0  0
    2.4725    1.4205    0.9361 C   0  0  0  0  0  0  0  0  0  0  0  0
    3.4959    0.7778    0.1001 N   0  0  0  0  0  0  0  0  0  0  0  0
    4.7945    1.3949   -0.0109 C   0  0  0  0  0  0  0  0  0  0  0  0
    4.8917    2.6494    0.0790 O   0  0  0  0  0  0  0  0  0  0  0  0
    6.0268    0.6011   -0.1873 C   0  0  0  0  0  0  0  0  0  0  0  0
    7.2942    1.0955   -0.4171 C   0  0  0  0  0  0  0  0  0  0  0  0
    8.1051    0.0268   -0.4732 N   0  0  0  0  0  0  0  0  0  0  0  0
    9.5335    0.0346   -0.7550 C   0  0  0  0  0  0  0  0  0  0  0  0
    7.3780   -1.0651   -0.3029 N   0  0  0  0  0  0  0  0  0  0  0  0
    6.1056   -0.7448   -0.1168 N   0  0  0  0  0  0  0  0  0  0  0  0
    3.1819   -0.4798   -0.5932 C   0  0  0  0  0  0  0  0  0  0  0  0
    1.7172   -0.4860   -1.0517 C   0  0  0  0  0  0  0  0  0  0  0  0
   -0.4312    0.7369   -0.4215 C   0  0  0  0  0  0  0  0  0  0  0  0
   -4.7592    4.0821   -1.1218 H   0  0  0  0  0  0  0  0  0  0  0  0
   -4.1532    3.6319    0.5161 H   0  0  0  0  0  0  0  0  0  0  0  0
   -3.7430    5.2439   -0.1862 H   0  0  0  0  0  0  0  0  0  0  0  0
   -2.4376    4.1953   -1.9903 H   0  0  0  0  0  0  0  0  0  0  0  0
   -2.8227    2.5534   -1.4361 H   0  0  0  0  0  0  0  0  0  0  0  0
   -0.5006    3.6188   -0.7932 H   0  0  0  0  0  0  0  0  0  0  0  0
   -1.3765    4.6767    0.2880 H   0  0  0  0  0  0  0  0  0  0  0  0
   -2.1554    2.8579    1.7253 H   0  0  0  0  0  0  0  0  0  0  0  0
   -0.4056    2.8165    1.5386 H   0  0  0  0  0  0  0  0  0  0  0  0
   -2.9142    0.0649   -0.4325 H   0  0  0  0  0  0  0  0  0  0  0  0
   -3.5369    1.4577    0.4293 H   0  0  0  0  0  0  0  0  0  0  0  0
   -2.2860   -0.8110    2.0288 H   0  0  0  0  0  0  0  0  0  0  0  0
   -3.3131    0.5069    2.5834 H   0  0  0  0  0  0  0  0  0  0  0  0
   -6.1601   -0.4702   -0.1841 H   0  0  0  0  0  0  0  0  0  0  0  0
   -6.7747   -1.7962   -2.1687 H   0  0  0  0  0  0  0  0  0  0  0  0
   -5.5603   -3.8870   -2.6917 H   0  0  0  0  0  0  0  0  0  0  0  0
   -3.7365   -4.6588   -1.2392 H   0  0  0  0  0  0  0  0  0  0  0  0
   -2.5956   -2.9256    1.9210 H   0  0  0  0  0  0  0  0  0  0  0  0
   -3.0415   -4.5216    1.3512 H   0  0  0  0  0  0  0  0  0  0  0  0
   -0.6395   -4.1079    0.9475 H   0  0  0  0  0  0  0  0  0  0  0  0
   -1.5156   -4.4138   -0.5641 H   0  0  0  0  0  0  0  0  0  0  0  0
   -1.6790   -1.7207   -0.6641 H   0  0  0  0  0  0  0  0  0  0  0  0
   -0.3014   -2.6256   -1.2925 H   0  0  0  0  0  0  0  0  0  0  0  0
   -0.3553   -1.5084    1.5848 H   0  0  0  0  0  0  0  0  0  0  0  0
    0.9845   -2.2998    0.7805 H   0  0  0  0  0  0  0  0  0  0  0  0
    0.6817    0.8679    2.0475 H   0  0  0  0  0  0  0  0  0  0  0  0
    1.9182   -0.3824    1.9379 H   0  0  0  0  0  0  0  0  0  0  0  0
    2.0202    2.2729    0.3865 H   0  0  0  0  0  0  0  0  0  0  0  0
    2.9427    1.8153    1.8641 H   0  0  0  0  0  0  0  0  0  0  0  0
    7.5984    2.1280   -0.5339 H   0  0  0  0  0  0  0  0  0  0  0  0
    9.6967    0.1919   -1.8424 H   0  0  0  0  0  0  0  0  0  0  0  0
    9.9876   -0.9326   -0.4525 H   0  0  0  0  0  0  0  0  0  0  0  0
   10.0267    0.8497   -0.1853 H   0  0  0  0  0  0  0  0  0  0  0  0
    3.8226   -0.5930   -1.4946 H   0  0  0  0  0  0  0  0  0  0  0  0
    3.3725   -1.3380    0.0866 H   0  0  0  0  0  0  0  0  0  0  0  0
    1.6295    0.2999   -1.8340 H   0  0  0  0  0  0  0  0  0  0  0  0
    1.5316   -1.4415   -1.5806 H   0  0  0  0  0  0  0  0  0  0  0  0
    0.1006    1.6032   -0.8464 H   0  0  0  0  0  0  0  0  0  0  0  0
   -0.9401    0.2977   -1.3044 H   0  0  0  0  0  0  0  0  0  0  0  0
  1  2  1  0
  2  3  1  0
  3  4  1  0
  4  5  1  0
  5  6  1  0
  6  7  1  0
  7  8  1  0
  8  9  1  0
  9 10  2  0
 10 11  1  0
 11 12  2  0
 12 13  1  0
 13 14  2  0
 14 15  1  0
 15 16  1  0
 16 17  1  0
 17 18  1  0
 18 19  1  0
 19 20  1  0
 20 21  1  0
 21 22  1  0
 22 23  1  0
 23 24  2  0
 23 25  1  0
 25 26  2  0
 26 27  1  0
 27 28  1  0
 27 29  1  0
 29 30  2  0
 22 31  1  0
 31 32  1  0
 19 33  1  0
 33  5  1  0
 14  9  1  0
 32 19  1  0
 30 25  1  0
  1 34  1  0
  1 35  1  0
  1 36  1  0
  2 37  1  0
  2 38  1  0
  3 39  1  0
  3 40  1  0
  4 41  1  0
  4 42  1  0
  6 43  1  0
  6 44  1  0
  7 45  1  0
  7 46  1  0
 10 47  1  0
 11 48  1  0
 12 49  1  0
 13 50  1  0
 15 51  1  0
 15 52  1  0
 16 53  1  0
 16 54  1  0
 17 55  1  0
 17 56  1  0
 18 57  1  0
 18 58  1  0
 20 59  1  0
 20 60  1  0
 21 61  1  0
 21 62  1  0
 26 63  1  0
 28 64  1  0
 28 65  1  0
 28 66  1  0
 31 67  1  0
 31 68  1  0
 32 69  1  0
 32 70  1  0
 33 71  1  0
 33 72  1  0
M  END
$$$$
