
     RDKit          3D

 79 83  0  0  0  0  0  0  0  0999 V2000
   -2.3037   -3.2310    3.7857 C   0  0  0  0  0  0  0  0  0  0  0  0
   -1.2209   -2.5716    2.9893 C   0  0  0  0  0  0  0  0  0  0  0  0
   -0.3873   -1.8413    3.5951 O   0  0  0  0  0  0  0  0  0  0  0  0
   -1.1143   -2.7540    1.5595 N   0  0  0  0  0  0  0  0  0  0  0  0
   -1.5248   -4.0438    0.9525 C   0  0  0  0  0  0  0  0  0  0  0  0
   -1.9329   -3.9200   -0.5290 C   0  0  0  0  0  0  0  0  0  0  0  0
   -3.1254   -2.9723   -0.7155 C   0  0  0  0  0  0  0  0  0  0  0  0
   -3.2556   -2.4723   -2.1661 C   0  0  0  0  0  0  0  0  0  0  0  0
   -3.9440   -1.0969   -2.2575 C   0  0  0  0  0  0  0  0  0  0  0  0
   -3.0838    0.0416   -1.6574 C   0  0  0  0  0  0  0  0  0  0  0  0
   -3.6085    0.5318   -0.2941 C   0  0  0  0  0  0  0  0  0  0  0  0
   -2.5118    1.1532    0.5002 N   0  0  0  0  0  0  0  0  0  0  0  0
   -2.9385    2.4553    1.1077 C   0  0  0  0  0  0  0  0  0  0  0  0
   -3.0414    3.5141   -0.0269 C   0  0  0  0  0  0  0  0  0  0  0  0
   -2.9790    4.9639    0.4784 C   0  0  0  0  0  0  0  0  0  0  0  0
   -3.3394    5.0326    1.8387 O   0  0  0  0  0  0  0  0  0  0  0  0
   -2.3120    4.4561    2.6190 C   0  0  0  0  0  0  0  0  0  0  0  0
   -1.9936    2.9958    2.2164 C   0  0  0  0  0  0  0  0  0  0  0  0
   -1.8496    0.1518    1.3904 C   0  0  0  0  0  0  0  0  0  0  0  0
   -0.6256   -0.4443    0.7193 C   0  0  0  0  0  0  0  0  0  0  0  0
    0.2612    0.4256    0.0564 C   0  0  0  0  0  0  0  0  0  0  0  0
    1.4432   -0.0480   -0.5295 C   0  0  0  0  0  0  0  0  0  0  0  0
    2.3581    0.8904   -1.2177 C   0  0  0  0  0  0  0  0  0  0  0  0
    1.8701    1.8853   -1.8210 O   0  0  0  0  0  0  0  0  0  0  0  0
    3.7844    0.6822   -1.2225 N   0  0  0  0  0  0  0  0  0  0  0  0
    4.7203    1.5371   -1.9403 C   0  0  0  0  0  0  0  0  0  0  0  0
    5.3671    2.3671   -0.8226 C   0  0  0  0  0  0  0  0  0  0  0  0
    5.2577    1.4801    0.4234 C   0  0  0  0  0  0  0  0  0  0  0  0
    4.5349    0.2150   -0.0631 C   0  0  0  0  0  0  0  0  0  0  0  0
    5.5494   -0.8642   -0.5374 C   0  0  0  0  0  0  0  0  0  0  0  0
    5.8150   -0.8140   -2.0680 C   0  0  0  0  0  0  0  0  0  0  0  0
    4.8511   -1.6038   -2.7205 O   0  0  0  0  0  0  0  0  0  0  0  0
    5.7724    0.6316   -2.6444 C   0  0  0  0  0  0  0  0  0  0  0  0
    1.7383   -1.4143   -0.4614 C   0  0  0  0  0  0  0  0  0  0  0  0
    0.8905   -2.2868    0.2179 C   0  0  0  0  0  0  0  0  0  0  0  0
   -0.2908   -1.8230    0.8193 C   0  0  0  0  0  0  0  0  0  0  0  0
   -3.2769   -3.1160    3.2633 H   0  0  0  0  0  0  0  0  0  0  0  0
   -2.0732   -4.3077    3.9167 H   0  0  0  0  0  0  0  0  0  0  0  0
   -2.3871   -2.7613    4.7874 H   0  0  0  0  0  0  0  0  0  0  0  0
   -2.3870   -4.4786    1.4963 H   0  0  0  0  0  0  0  0  0  0  0  0
   -0.6868   -4.7682    1.0392 H   0  0  0  0  0  0  0  0  0  0  0  0
   -2.2115   -4.9253   -0.9134 H   0  0  0  0  0  0  0  0  0  0  0  0
   -1.0592   -3.5784   -1.1209 H   0  0  0  0  0  0  0  0  0  0  0  0
   -2.9880   -2.1181   -0.0401 H   0  0  0  0  0  0  0  0  0  0  0  0
   -4.0644   -3.4813   -0.4062 H   0  0  0  0  0  0  0  0  0  0  0  0
   -2.2600   -2.3957   -2.6554 H   0  0  0  0  0  0  0  0  0  0  0  0
   -3.8458   -3.2139   -2.7469 H   0  0  0  0  0  0  0  0  0  0  0  0
   -4.1101   -0.8775   -3.3351 H   0  0  0  0  0  0  0  0  0  0  0  0
   -4.9508   -1.1442   -1.7873 H   0  0  0  0  0  0  0  0  0  0  0  0
   -2.0263   -0.2833   -1.5769 H   0  0  0  0  0  0  0  0  0  0  0  0
   -3.0850    0.9066   -2.3567 H   0  0  0  0  0  0  0  0  0  0  0  0
   -4.1182   -0.2735    0.2735 H   0  0  0  0  0  0  0  0  0  0  0  0
   -4.4364    1.2405   -0.5009 H   0  0  0  0  0  0  0  0  0  0  0  0
   -3.9429    2.3344    1.5759 H   0  0  0  0  0  0  0  0  0  0  0  0
   -3.9986    3.3874   -0.5745 H   0  0  0  0  0  0  0  0  0  0  0  0
   -2.2179    3.3596   -0.7585 H   0  0  0  0  0  0  0  0  0  0  0  0
   -3.6882    5.5892   -0.1060 H   0  0  0  0  0  0  0  0  0  0  0  0
   -1.9661    5.3984    0.3044 H   0  0  0  0  0  0  0  0  0  0  0  0
   -1.3909    5.0812    2.5697 H   0  0  0  0  0  0  0  0  0  0  0  0
   -2.6394    4.4788    3.6813 H   0  0  0  0  0  0  0  0  0  0  0  0
   -0.9407    2.9369    1.8661 H   0  0  0  0  0  0  0  0  0  0  0  0
   -2.1014    2.3914    3.1419 H   0  0  0  0  0  0  0  0  0  0  0  0
   -1.4713    0.5739    2.3314 H   0  0  0  0  0  0  0  0  0  0  0  0
   -2.5643   -0.6288    1.7203 H   0  0  0  0  0  0  0  0  0  0  0  0
    0.0376    1.4846    0.0122 H   0  0  0  0  0  0  0  0  0  0  0  0
    4.2159    2.1920   -2.6848 H   0  0  0  0  0  0  0  0  0  0  0  0
    4.7769    3.2986   -0.6715 H   0  0  0  0  0  0  0  0  0  0  0  0
    6.4211    2.6492   -1.0341 H   0  0  0  0  0  0  0  0  0  0  0  0
    4.6329    1.9900    1.1885 H   0  0  0  0  0  0  0  0  0  0  0  0
    6.2541    1.2762    0.8699 H   0  0  0  0  0  0  0  0  0  0  0  0
    3.8800   -0.1888    0.7395 H   0  0  0  0  0  0  0  0  0  0  0  0
    5.1506   -1.8697   -0.2767 H   0  0  0  0  0  0  0  0  0  0  0  0
    6.5145   -0.7717    0.0063 H   0  0  0  0  0  0  0  0  0  0  0  0
    6.8263   -1.2449   -2.2553 H   0  0  0  0  0  0  0  0  0  0  0  0
    5.2381   -1.8666   -3.5964 H   0  0  0  0  0  0  0  0  0  0  0  0
    5.5293    0.5804   -3.7283 H   0  0  0  0  0  0  0  0  0  0  0  0
    6.7889    1.0756   -2.5865 H   0  0  0  0  0  0  0  0  0  0  0  0
    2.6289   -1.8086   -0.9317 H   0  0  0  0  0  0  0  0  0  0  0  0
    1.1623   -3.3319    0.2862 H   0  0  0  0  0  0  0  0  0  0  0  0
  1  2  1  0
  2  3  2  0
  2  4  1  0
  4  5  1  0
  5  6  1  0
  6  7  1  0
  7  8  1  0
  8  9  1  0
  9 10  1  0
 10 11  1  0
 11 12  1  0
 12 13  1  0
 13 14  1  0
 14 15  1  0
 15 16  1  0
 16 17  1  0
 17 18  1  0
 12 19  1  0
 19 20  1  0
 20 21  2  0
 21 22  1  0
 22 23  1  0
 23 24  2  0
 23 25  1  0
 25 26  1  0
 26 27  1  0
 27 28  1  0
 28 29  1  0
 29 30  1  0
 30 31  1  0
 31 32  1  0
 31 33  1  0
 22 34  2  0
 34 35  1  0
 35 36  2  0
 36  4  1  0
 18 13  1  0
 36 20  1  0
 29 25  1  0
 33 26  1  0
  1 37  1  0
  1 38  1  0
  1 39  1  0
  5 40  1  0
  5 41  1  0
  6 42  1  0
  6 43  1  0
  7 44  1  0
  7 45  1  0
  8 46  1  0
  8 47  1  0
  9 48  1  0
  9 49  1  0
 10 50  1  0
 10 51  1  0
 11 52  1  0
 11 53  1  0
 13 54  1  0
 14 55  1  0
 14 56  1  0
 15 57  1  0
 15 58  1  0
 17 59  1  0
 17 60  1  0
 18 61  1  0
 18 62  1  0
 19 63  1  0
 19 64  1  0
 21 65  1  0
 26 66  1  0
 27 67  1  0
 27 68  1  0
 28 69  1  0
 28 70  1  0
 29 71  1  0
 30 72  1  0
 30 73  1  0
 31 74  1  0
 32 75  1  0
 33 76  1  0
 33 77  1  0
 34 78  1  0
 35 79  1  0
M  END
$$$$
