
     RDKit          3D

 85 89  0  0  0  0  0  0  0  0999 V2000
   -6.2131    3.1213    0.2943 C   0  0  0  0  0  0  0  0  0  0  0  0
   -5.2621    2.3878   -0.6846 C   0  0  0  0  0  0  0  0  0  0  0  0
   -5.0512    3.3160   -1.9073 C   0  0  0  0  0  0  0  0  0  0  0  0
   -3.9074    2.1409    0.0432 C   0  0  0  0  0  0  0  0  0  0  0  0
   -2.7328    1.7498   -0.8819 C   0  0  0  0  0  0  0  0  0  0  0  0
   -1.4778    1.3459   -0.0897 C   0  0  0  0  0  0  0  0  0  0  0  0
   -1.7259    0.0902    0.6626 N   0  0  0  0  0  0  0  0  0  0  0  0
   -1.2550    0.1748    2.0689 C   0  0  0  0  0  0  0  0  0  0  0  0
    0.2516    0.1848    2.1898 C   0  0  0  0  0  0  0  0  0  0  0  0
    0.8909    1.2625    2.0457 O   0  0  0  0  0  0  0  0  0  0  0  0
    0.9548   -1.0383    2.4582 N   0  0  0  0  0  0  0  0  0  0  0  0
    2.4120   -1.1250    2.5234 C   0  0  0  0  0  0  0  0  0  0  0  0
    3.0332   -0.8970    1.1688 C   0  0  0  0  0  0  0  0  0  0  0  0
    2.5908   -1.6171    0.0439 C   0  0  0  0  0  0  0  0  0  0  0  0
    3.1728   -1.4073   -1.1982 C   0  0  0  0  0  0  0  0  0  0  0  0
    4.2324   -0.5073   -1.3312 C   0  0  0  0  0  0  0  0  0  0  0  0
    4.7257    0.1837   -0.2112 C   0  0  0  0  0  0  0  0  0  0  0  0
    5.9568    1.0613   -0.3404 C   0  0  0  0  0  0  0  0  0  0  0  0
    7.1213    0.2538   -0.7660 N   0  0  0  0  0  0  0  0  0  0  0  0
    8.2019    1.0734   -1.3632 C   0  0  0  0  0  0  0  0  0  0  0  0
    8.9703    1.9069   -0.3128 C   0  0  0  0  0  0  0  0  0  0  0  0
    9.1436    1.1666    1.0246 C   0  0  0  0  0  0  0  0  0  0  0  0
    8.9875   -0.3480    0.8632 C   0  0  0  0  0  0  0  0  0  0  0  0
    7.6007   -0.7006    0.2749 C   0  0  0  0  0  0  0  0  0  0  0  0
    4.1087   -0.0062    1.0307 C   0  0  0  0  0  0  0  0  0  0  0  0
   -1.2007   -1.1165   -0.0163 C   0  0  0  0  0  0  0  0  0  0  0  0
   -2.0867   -1.6099   -1.1422 C   0  0  0  0  0  0  0  0  0  0  0  0
   -1.4842   -2.2266   -2.2536 C   0  0  0  0  0  0  0  0  0  0  0  0
   -2.2636   -2.8857   -3.2006 C   0  0  0  0  0  0  0  0  0  0  0  0
   -3.6428   -2.9336   -3.0366 C   0  0  0  0  0  0  0  0  0  0  0  0
   -4.2193   -2.3375   -1.9531 N   0  0  0  0  0  0  0  0  0  0  0  0
   -3.4859   -1.6757   -1.0169 C   0  0  0  0  0  0  0  0  0  0  0  0
   -4.1292   -1.0052    0.0253 O   0  0  0  0  0  0  0  0  0  0  0  0
   -5.2907   -1.4762    0.6237 C   0  0  0  0  0  0  0  0  0  0  0  0
   -5.2248   -2.6842    1.3431 C   0  0  0  0  0  0  0  0  0  0  0  0
   -6.3296   -3.1283    2.0754 C   0  0  0  0  0  0  0  0  0  0  0  0
   -7.5135   -2.3976    2.0745 C   0  0  0  0  0  0  0  0  0  0  0  0
   -7.6023   -1.2268    1.3213 C   0  0  0  0  0  0  0  0  0  0  0  0
   -6.5052   -0.7465    0.5940 C   0  0  0  0  0  0  0  0  0  0  0  0
   -6.7246    0.4376   -0.1407 O   0  0  0  0  0  0  0  0  0  0  0  0
   -5.9154    1.0466   -1.1576 C   0  0  0  0  0  0  0  0  0  0  0  0
   -5.8060    4.1102    0.5825 H   0  0  0  0  0  0  0  0  0  0  0  0
   -7.2026    3.2699   -0.1670 H   0  0  0  0  0  0  0  0  0  0  0  0
   -6.3647    2.5327    1.2218 H   0  0  0  0  0  0  0  0  0  0  0  0
   -6.0232    3.6230   -2.3366 H   0  0  0  0  0  0  0  0  0  0  0  0
   -4.4936    2.7924   -2.7118 H   0  0  0  0  0  0  0  0  0  0  0  0
   -4.4994    4.2309   -1.6206 H   0  0  0  0  0  0  0  0  0  0  0  0
   -4.0564    1.3790    0.8322 H   0  0  0  0  0  0  0  0  0  0  0  0
   -3.6094    3.0696    0.5687 H   0  0  0  0  0  0  0  0  0  0  0  0
   -2.4631    2.6241   -1.5208 H   0  0  0  0  0  0  0  0  0  0  0  0
   -3.0190    0.9406   -1.5746 H   0  0  0  0  0  0  0  0  0  0  0  0
   -0.6110    1.2466   -0.7910 H   0  0  0  0  0  0  0  0  0  0  0  0
   -1.2317    2.1822    0.5940 H   0  0  0  0  0  0  0  0  0  0  0  0
   -1.6740    1.0809    2.5545 H   0  0  0  0  0  0  0  0  0  0  0  0
   -1.6829   -0.6718    2.6498 H   0  0  0  0  0  0  0  0  0  0  0  0
    0.4023   -1.9077    2.6275 H   0  0  0  0  0  0  0  0  0  0  0  0
    2.6955   -2.1367    2.8728 H   0  0  0  0  0  0  0  0  0  0  0  0
    2.7785   -0.3912    3.2690 H   0  0  0  0  0  0  0  0  0  0  0  0
    1.8050   -2.3551    0.1509 H   0  0  0  0  0  0  0  0  0  0  0  0
    2.8276   -1.9652   -2.0601 H   0  0  0  0  0  0  0  0  0  0  0  0
    4.6825   -0.3553   -2.3082 H   0  0  0  0  0  0  0  0  0  0  0  0
    6.1785    1.5870    0.6131 H   0  0  0  0  0  0  0  0  0  0  0  0
    5.7310    1.8351   -1.1073 H   0  0  0  0  0  0  0  0  0  0  0  0
    8.9117    0.3984   -1.8837 H   0  0  0  0  0  0  0  0  0  0  0  0
    7.7970    1.7443   -2.1535 H   0  0  0  0  0  0  0  0  0  0  0  0
    9.9782    2.1599   -0.7298 H   0  0  0  0  0  0  0  0  0  0  0  0
    8.4212    2.8589   -0.1324 H   0  0  0  0  0  0  0  0  0  0  0  0
   10.1501    1.3927    1.4513 H   0  0  0  0  0  0  0  0  0  0  0  0
    8.3981    1.5286    1.7592 H   0  0  0  0  0  0  0  0  0  0  0  0
    9.7822   -0.7312    0.1943 H   0  0  0  0  0  0  0  0  0  0  0  0
    9.1077   -0.8383    1.8541 H   0  0  0  0  0  0  0  0  0  0  0  0
    6.8815   -0.7630    1.1249 H   0  0  0  0  0  0  0  0  0  0  0  0
    7.6570   -1.7205   -0.1786 H   0  0  0  0  0  0  0  0  0  0  0  0
    4.4841    0.5172    1.9035 H   0  0  0  0  0  0  0  0  0  0  0  0
   -0.1663   -0.9248   -0.3805 H   0  0  0  0  0  0  0  0  0  0  0  0
   -1.1449   -1.9683    0.6999 H   0  0  0  0  0  0  0  0  0  0  0  0
   -0.4068   -2.2569   -2.3430 H   0  0  0  0  0  0  0  0  0  0  0  0
   -1.7927   -3.3754   -4.0490 H   0  0  0  0  0  0  0  0  0  0  0  0
   -4.2578   -3.4624   -3.7533 H   0  0  0  0  0  0  0  0  0  0  0  0
   -4.3000   -3.2475    1.3838 H   0  0  0  0  0  0  0  0  0  0  0  0
   -6.2613   -4.0373    2.6547 H   0  0  0  0  0  0  0  0  0  0  0  0
   -8.3714   -2.7414    2.6514 H   0  0  0  0  0  0  0  0  0  0  0  0
   -8.5426   -0.6851    1.3096 H   0  0  0  0  0  0  0  0  0  0  0  0
   -5.1876    0.3473   -1.6010 H   0  0  0  0  0  0  0  0  0  0  0  0
   -6.6125    1.2767   -1.9981 H   0  0  0  0  0  0  0  0  0  0  0  0
  1  2  1  0
  2  3  1  0
  2  4  1  0
  4  5  1  0
  5  6  1  0
  6  7  1  0
  7  8  1  0
  8  9  1  0
  9 10  2  0
  9 11  1  0
 11 12  1  0
 12 13  1  0
 13 14  2  0
 14 15  1  0
 15 16  2  0
 16 17  1  0
 17 18  1  0
 18 19  1  0
 19 20  1  0
 20 21  1  0
 21 22  1  0
 22 23  1  0
 23 24  1  0
 17 25  2  0
  7 26  1  0
 26 27  1  0
 27 28  2  0
 28 29  1  0
 29 30  2  0
 30 31  1  0
 31 32  2  0
 32 33  1  0
 33 34  1  0
 34 35  2  0
 35 36  1  0
 36 37  2  0
 37 38  1  0
 38 39  2  0
 39 40  1  0
 40 41  1  0
 41  2  1  0
 25 13  1  0
 32 27  1  0
 39 34  1  0
 24 19  1  0
  1 42  1  0
  1 43  1  0
  1 44  1  0
  3 45  1  0
  3 46  1  0
  3 47  1  0
  4 48  1  0
  4 49  1  0
  5 50  1  0
  5 51  1  0
  6 52  1  0
  6 53  1  0
  8 54  1  0
  8 55  1  0
 11 56  1  0
 12 57  1  0
 12 58  1  0
 14 59  1  0
 15 60  1  0
 16 61  1  0
 18 62  1  0
 18 63  1  0
 20 64  1  0
 20 65  1  0
 21 66  1  0
 21 67  1  0
 22 68  1  0
 22 69  1  0
 23 70  1  0
 23 71  1  0
 24 72  1  0
 24 73  1  0
 25 74  1  0
 26 75  1  0
 26 76  1  0
 28 77  1  0
 29 78  1  0
 30 79  1  0
 35 80  1  0
 36 81  1  0
 37 82  1  0
 38 83  1  0
 41 84  1  0
 41 85  1  0
M  END
$$$$
