
     RDKit          3D

 74 77  0  0  0  0  0  0  0  0999 V2000
   -7.0338    1.9258    0.5772 C   0  0  0  0  0  0  0  0  0  0  0  0
   -5.6269    1.6852    0.2222 N   0  0  0  0  0  0  0  0  0  0  0  0
   -5.5339    0.9352   -1.0419 C   0  0  0  0  0  0  0  0  0  0  0  0
   -4.0784    0.4961   -1.3192 C   0  0  0  0  0  0  0  0  0  0  0  0
   -3.0188    1.3083   -0.5093 C   0  0  0  0  0  0  0  0  0  0  0  0
   -1.6257    1.2334   -1.2131 C   0  0  0  0  0  0  0  0  0  0  0  0
   -1.0337   -0.1858   -1.2308 C   0  0  0  0  0  0  0  0  0  0  0  0
    0.3314   -0.2562   -1.9179 C   0  0  0  0  0  0  0  0  0  0  0  0
    0.8105   -1.7111   -2.0901 C   0  0  0  0  0  0  0  0  0  0  0  0
    1.2193   -2.3347   -0.8157 N   0  0  0  0  0  0  0  0  0  0  0  0
    2.6213   -2.4983   -0.5039 C   0  0  0  0  0  0  0  0  0  0  0  0
    3.0008   -3.5228    0.1274 O   0  0  0  0  0  0  0  0  0  0  0  0
    3.6514   -1.5003   -0.9705 C   0  0  0  0  0  0  0  0  0  0  0  0
    4.8460   -1.4166   -0.0112 C   0  0  0  0  0  0  0  0  0  0  0  0
    5.7617   -0.2976   -0.4066 C   0  0  0  0  0  0  0  0  0  0  0  0
    6.8633   -0.3822   -1.2522 C   0  0  0  0  0  0  0  0  0  0  0  0
    7.4128    0.8408   -1.4339 N   0  0  0  0  0  0  0  0  0  0  0  0
    6.6611    1.6966   -0.7197 C   0  0  0  0  0  0  0  0  0  0  0  0
    6.8248    3.0771   -0.6073 C   0  0  0  0  0  0  0  0  0  0  0  0
    5.8995    3.7866    0.1811 C   0  0  0  0  0  0  0  0  0  0  0  0
    4.8419    3.1092    0.8277 C   0  0  0  0  0  0  0  0  0  0  0  0
    4.7003    1.7160    0.6944 C   0  0  0  0  0  0  0  0  0  0  0  0
    5.6378    1.0395   -0.0859 C   0  0  0  0  0  0  0  0  0  0  0  0
    0.2168   -3.0321    0.0128 C   0  0  0  0  0  0  0  0  0  0  0  0
    0.2361   -2.5028    1.4607 C   0  0  0  0  0  0  0  0  0  0  0  0
   -0.9967   -2.9477    2.3067 C   0  0  0  0  0  0  0  0  0  0  0  0
   -0.5425   -3.4256    3.5492 O   0  0  0  0  0  0  0  0  0  0  0  0
   -2.0013   -1.7807    2.5537 C   0  0  0  0  0  0  0  0  0  0  0  0
   -2.7287   -2.0087    3.7365 O   0  0  0  0  0  0  0  0  0  0  0  0
   -3.0126   -1.6346    1.3989 C   0  0  0  0  0  0  0  0  0  0  0  0
   -3.5949   -0.3295    1.3678 O   0  0  0  0  0  0  0  0  0  0  0  0
   -2.8899    0.7983    0.9261 C   0  0  0  0  0  0  0  0  0  0  0  0
   -2.1484    1.4140    1.7394 O   0  0  0  0  0  0  0  0  0  0  0  0
   -3.4804    2.7890   -0.4805 C   0  0  0  0  0  0  0  0  0  0  0  0
   -4.8924    2.9659    0.1296 C   0  0  0  0  0  0  0  0  0  0  0  0
   -7.5678    2.4726   -0.2335 H   0  0  0  0  0  0  0  0  0  0  0  0
   -7.5482    0.9568    0.7634 H   0  0  0  0  0  0  0  0  0  0  0  0
   -7.0977    2.5196    1.5142 H   0  0  0  0  0  0  0  0  0  0  0  0
   -6.1724    0.0263   -0.9980 H   0  0  0  0  0  0  0  0  0  0  0  0
   -5.9013    1.5606   -1.8870 H   0  0  0  0  0  0  0  0  0  0  0  0
   -3.9794   -0.5908   -1.1162 H   0  0  0  0  0  0  0  0  0  0  0  0
   -3.8922    0.6184   -2.4100 H   0  0  0  0  0  0  0  0  0  0  0  0
   -1.7159    1.6041   -2.2584 H   0  0  0  0  0  0  0  0  0  0  0  0
   -0.9097    1.9063   -0.6903 H   0  0  0  0  0  0  0  0  0  0  0  0
   -0.8920   -0.5045   -0.1865 H   0  0  0  0  0  0  0  0  0  0  0  0
   -1.7343   -0.8793   -1.7416 H   0  0  0  0  0  0  0  0  0  0  0  0
    1.0722    0.3305   -1.3385 H   0  0  0  0  0  0  0  0  0  0  0  0
    0.2487    0.2016   -2.9272 H   0  0  0  0  0  0  0  0  0  0  0  0
    0.0109   -2.3171   -2.5698 H   0  0  0  0  0  0  0  0  0  0  0  0
    1.6561   -1.7260   -2.8106 H   0  0  0  0  0  0  0  0  0  0  0  0
    4.0077   -1.7952   -1.9819 H   0  0  0  0  0  0  0  0  0  0  0  0
    3.1831   -0.4972   -1.0399 H   0  0  0  0  0  0  0  0  0  0  0  0
    4.4879   -1.2437    1.0270 H   0  0  0  0  0  0  0  0  0  0  0  0
    5.4108   -2.3752   -0.0255 H   0  0  0  0  0  0  0  0  0  0  0  0
    7.2369   -1.2872   -1.7145 H   0  0  0  0  0  0  0  0  0  0  0  0
    8.2457    1.0689   -2.0205 H   0  0  0  0  0  0  0  0  0  0  0  0
    7.6334    3.5891   -1.1129 H   0  0  0  0  0  0  0  0  0  0  0  0
    5.9940    4.8600    0.2875 H   0  0  0  0  0  0  0  0  0  0  0  0
    4.1338    3.6653    1.4268 H   0  0  0  0  0  0  0  0  0  0  0  0
    3.8878    1.1920    1.1809 H   0  0  0  0  0  0  0  0  0  0  0  0
   -0.7934   -2.9207   -0.4277 H   0  0  0  0  0  0  0  0  0  0  0  0
    0.4328   -4.1222    0.0178 H   0  0  0  0  0  0  0  0  0  0  0  0
    1.1650   -2.8814    1.9399 H   0  0  0  0  0  0  0  0  0  0  0  0
    0.3497   -1.3993    1.4575 H   0  0  0  0  0  0  0  0  0  0  0  0
   -1.5390   -3.7752    1.7901 H   0  0  0  0  0  0  0  0  0  0  0  0
   -0.1812   -4.3376    3.3957 H   0  0  0  0  0  0  0  0  0  0  0  0
   -1.4294   -0.8299    2.6555 H   0  0  0  0  0  0  0  0  0  0  0  0
   -2.2229   -1.5935    4.4822 H   0  0  0  0  0  0  0  0  0  0  0  0
   -3.8264   -2.3796    1.5259 H   0  0  0  0  0  0  0  0  0  0  0  0
   -2.5554   -1.8552    0.4215 H   0  0  0  0  0  0  0  0  0  0  0  0
   -2.7522    3.4186    0.0779 H   0  0  0  0  0  0  0  0  0  0  0  0
   -3.5013    3.1777   -1.5231 H   0  0  0  0  0  0  0  0  0  0  0  0
   -4.7818    3.3849    1.1538 H   0  0  0  0  0  0  0  0  0  0  0  0
   -5.4605    3.7080   -0.4783 H   0  0  0  0  0  0  0  0  0  0  0  0
  1  2  1  0
  2  3  1  0
  3  4  1  0
  4  5  1  0
  5  6  1  0
  6  7  1  0
  7  8  1  0
  8  9  1  0
  9 10  1  0
 10 11  1  0
 11 12  2  0
 11 13  1  0
 13 14  1  0
 14 15  1  0
 15 16  2  0
 16 17  1  0
 17 18  1  0
 18 19  2  0
 19 20  1  0
 20 21  2  0
 21 22  1  0
 22 23  2  0
 10 24  1  0
 24 25  1  0
 25 26  1  0
 26 27  1  0
 26 28  1  0
 28 29  1  0
 28 30  1  0
 30 31  1  0
 31 32  1  0
 32 33  2  0
  5 34  1  0
 34 35  1  0
 35  2  1  0
 32  5  1  0
 23 15  1  0
 23 18  1  0
  1 36  1  0
  1 37  1  0
  1 38  1  0
  3 39  1  0
  3 40  1  0
  4 41  1  0
  4 42  1  0
  6 43  1  0
  6 44  1  0
  7 45  1  0
  7 46  1  0
  8 47  1  0
  8 48  1  0
  9 49  1  0
  9 50  1  0
 13 51  1  0
 13 52  1  0
 14 53  1  0
 14 54  1  0
 16 55  1  0
 17 56  1  0
 19 57  1  0
 20 58  1  0
 21 59  1  0
 22 60  1  0
 24 61  1  0
 24 62  1  0
 25 63  1  0
 25 64  1  0
 26 65  1  0
 27 66  1  0
 28 67  1  0
 29 68  1  0
 30 69  1  0
 30 70  1  0
 34 71  1  0
 34 72  1  0
 35 73  1  0
 35 74  1  0
M  END
$$$$
