
     RDKit          3D

105105  0  0  0  0  0  0  0  0999 V2000
   -2.6580    2.0845    3.8741 C   0  0  0  0  0  0  0  0  0  0  0  0
   -2.0192    1.0624    2.9350 C   0  0  0  0  0  0  0  0  0  0  0  0
   -3.0664    0.3024    2.0836 C   0  0  2  0  0  0  0  0  0  0  0  0
   -3.6769   -0.8602    2.8782 C   0  0  0  0  0  0  0  0  0  0  0  0
   -2.4942   -0.1724    0.7051 C   0  0  1  0  0  0  0  0  0  0  0  0
   -1.9072    0.8944   -0.0727 O   0  0  0  0  0  0  0  0  0  0  0  0
   -2.5484    2.0957   -0.4361 C   0  0  0  0  0  0  0  0  0  0  0  0
   -3.4274    2.6052    0.3093 O   0  0  0  0  0  0  0  0  0  0  0  0
   -2.2026    2.8225   -1.7182 C   0  0  2  0  0  0  0  0  0  0  0  0
   -2.1098    1.8800   -2.9534 C   0  0  0  0  0  0  0  0  0  0  0  0
   -1.8943    2.6783   -4.2520 C   0  0  0  0  0  0  0  0  0  0  0  0
   -3.3915    1.0451   -3.1122 C   0  0  0  0  0  0  0  0  0  0  0  0
   -1.0050    3.6788   -1.5434 N   0  0  0  0  0  0  0  0  0  0  0  0
   -1.1689    5.1254   -1.7230 C   0  0  0  0  0  0  0  0  0  0  0  0
    0.3318    3.1401   -1.5400 C   0  0  0  0  0  0  0  0  0  0  0  0
    0.8299    2.7247   -2.6215 O   0  0  0  0  0  0  0  0  0  0  0  0
    1.1818    3.0468   -0.2908 C   0  0  1  0  0  0  0  0  0  0  0  0
    1.0832    4.2499    0.6869 C   0  0  0  0  0  0  0  0  0  0  0  0
    2.3401    4.3183    1.5710 C   0  0  0  0  0  0  0  0  0  0  0  0
   -0.1615    4.2126    1.5857 C   0  0  0  0  0  0  0  0  0  0  0  0
    0.9263    1.8134    0.3747 O   0  0  0  0  0  0  0  0  0  0  0  0
    1.5215    0.6293   -0.0659 C   0  0  0  0  0  0  0  0  0  0  0  0
    0.9172   -0.1018   -0.8919 O   0  0  0  0  0  0  0  0  0  0  0  0
    2.8739    0.2357    0.4654 C   0  0  2  0  0  0  0  0  0  0  0  0
    3.8550   -0.2532   -0.6527 C   0  0  0  0  0  0  0  0  0  0  0  0
    5.2946   -0.3889   -0.1251 C   0  0  0  0  0  0  0  0  0  0  0  0
    3.8790    0.7159   -1.8506 C   0  0  0  0  0  0  0  0  0  0  0  0
    2.6879   -0.6988    1.6008 N   0  0  0  0  0  0  0  0  0  0  0  0
    2.3266   -0.1199    2.8993 C   0  0  0  0  0  0  0  0  0  0  0  0
    3.1140   -2.0770    1.6107 C   0  0  0  0  0  0  0  0  0  0  0  0
    4.0310   -2.4104    2.4100 O   0  0  0  0  0  0  0  0  0  0  0  0
    2.4650   -3.1378    0.7366 C   0  0  1  0  0  0  0  0  0  0  0  0
    2.4313   -4.5239    1.4680 C   0  0  0  0  0  0  0  0  0  0  0  0
    3.7569   -5.2826    1.2817 C   0  0  0  0  0  0  0  0  0  0  0  0
    1.2749   -5.4320    1.0189 C   0  0  0  0  0  0  0  0  0  0  0  0
    1.1427   -2.7143    0.3877 O   0  0  0  0  0  0  0  0  0  0  0  0
    0.5159   -3.0353   -0.8261 C   0  0  0  0  0  0  0  0  0  0  0  0
    1.1995   -3.5150   -1.7716 O   0  0  0  0  0  0  0  0  0  0  0  0
   -0.9957   -2.9730   -0.9594 C   0  0  2  0  0  0  0  0  0  0  0  0
   -1.5433   -2.1037   -2.1333 C   0  0  0  0  0  0  0  0  0  0  0  0
   -0.7507   -2.2444   -3.4423 C   0  0  0  0  0  0  0  0  0  0  0  0
   -3.0141   -2.4739   -2.3992 C   0  0  0  0  0  0  0  0  0  0  0  0
   -1.6336   -2.5789    0.3182 N   0  0  0  0  0  0  0  0  0  0  0  0
   -2.3227   -3.5824    1.1346 C   0  0  0  0  0  0  0  0  0  0  0  0
   -1.4581   -1.2630    0.8849 C   0  0  0  0  0  0  0  0  0  0  0  0
   -0.4479   -1.0329    1.5988 O   0  0  0  0  0  0  0  0  0  0  0  0
   -1.8592    2.6198    4.4273 H   0  0  0  0  0  0  0  0  0  0  0  0
   -3.2407    2.8293    3.2954 H   0  0  0  0  0  0  0  0  0  0  0  0
   -3.3222    1.5850    4.6099 H   0  0  0  0  0  0  0  0  0  0  0  0
   -1.3156    1.5979    2.2737 H   0  0  0  0  0  0  0  0  0  0  0  0
   -1.4178    0.3542    3.5422 H   0  0  0  0  0  0  0  0  0  0  0  0
   -3.9237    0.9729    1.8782 H   0  0  0  0  0  0  0  0  0  0  0  0
   -2.8937   -1.5664    3.2176 H   0  0  0  0  0  0  0  0  0  0  0  0
   -4.2072   -0.4794    3.7760 H   0  0  0  0  0  0  0  0  0  0  0  0
   -4.4191   -1.4061    2.2572 H   0  0  0  0  0  0  0  0  0  0  0  0
   -3.3389   -0.5871    0.1161 H   0  0  0  0  0  0  0  0  0  0  0  0
   -3.0755    3.4878   -1.9243 H   0  0  0  0  0  0  0  0  0  0  0  0
   -1.2562    1.1816   -2.8215 H   0  0  0  0  0  0  0  0  0  0  0  0
   -1.7854    1.9823   -5.1116 H   0  0  0  0  0  0  0  0  0  0  0  0
   -0.9770    3.2952   -4.2051 H   0  0  0  0  0  0  0  0  0  0  0  0
   -2.7547    3.3554   -4.4443 H   0  0  0  0  0  0  0  0  0  0  0  0
   -3.3091    0.3846   -4.0023 H   0  0  0  0  0  0  0  0  0  0  0  0
   -3.5633    0.4049   -2.2238 H   0  0  0  0  0  0  0  0  0  0  0  0
   -4.2769    1.7037   -3.2427 H   0  0  0  0  0  0  0  0  0  0  0  0
   -1.6274    5.3304   -2.7163 H   0  0  0  0  0  0  0  0  0  0  0  0
   -1.8320    5.5292   -0.9259 H   0  0  0  0  0  0  0  0  0  0  0  0
   -0.1946    5.6587   -1.6879 H   0  0  0  0  0  0  0  0  0  0  0  0
    2.2367    3.0330   -0.6498 H   0  0  0  0  0  0  0  0  0  0  0  0
    1.0626    5.1908    0.0982 H   0  0  0  0  0  0  0  0  0  0  0  0
    2.2754    5.1879    2.2620 H   0  0  0  0  0  0  0  0  0  0  0  0
    3.2447    4.4524    0.9403 H   0  0  0  0  0  0  0  0  0  0  0  0
    2.4493    3.3870    2.1691 H   0  0  0  0  0  0  0  0  0  0  0  0
   -0.0518    3.4362    2.3717 H   0  0  0  0  0  0  0  0  0  0  0  0
   -1.0832    4.0160    1.0065 H   0  0  0  0  0  0  0  0  0  0  0  0
   -0.2847    5.1955    2.0925 H   0  0  0  0  0  0  0  0  0  0  0  0
    3.3268    1.1690    0.8706 H   0  0  0  0  0  0  0  0  0  0  0  0
    3.5211   -1.2335   -1.0443 H   0  0  0  0  0  0  0  0  0  0  0  0
    5.6562    0.5821    0.2767 H   0  0  0  0  0  0  0  0  0  0  0  0
    5.9752   -0.7078   -0.9435 H   0  0  0  0  0  0  0  0  0  0  0  0
    5.3729   -1.1516    0.6706 H   0  0  0  0  0  0  0  0  0  0  0  0
    4.1724    1.7360   -1.5215 H   0  0  0  0  0  0  0  0  0  0  0  0
    4.6055    0.3675   -2.6152 H   0  0  0  0  0  0  0  0  0  0  0  0
    2.8885    0.7651   -2.3477 H   0  0  0  0  0  0  0  0  0  0  0  0
    1.6336    0.7366    2.7682 H   0  0  0  0  0  0  0  0  0  0  0  0
    3.2419    0.2343    3.4211 H   0  0  0  0  0  0  0  0  0  0  0  0
    1.8102   -0.8770    3.5314 H   0  0  0  0  0  0  0  0  0  0  0  0
    3.0815   -3.2356   -0.1811 H   0  0  0  0  0  0  0  0  0  0  0  0
    2.2843   -4.3510    2.5589 H   0  0  0  0  0  0  0  0  0  0  0  0
    4.6267   -4.6554    1.5555 H   0  0  0  0  0  0  0  0  0  0  0  0
    3.8729   -5.6053    0.2242 H   0  0  0  0  0  0  0  0  0  0  0  0
    3.7737   -6.1835    1.9307 H   0  0  0  0  0  0  0  0  0  0  0  0
    1.3304   -5.6395   -0.0705 H   0  0  0  0  0  0  0  0  0  0  0  0
    0.2974   -4.9649    1.2566 H   0  0  0  0  0  0  0  0  0  0  0  0
    1.3116   -6.3995    1.5645 H   0  0  0  0  0  0  0  0  0  0  0  0
   -1.2809   -4.0213   -1.1966 H   0  0  0  0  0  0  0  0  0  0  0  0
   -1.5004   -1.0366   -1.8463 H   0  0  0  0  0  0  0  0  0  0  0  0
    0.2605   -1.7971   -3.3328 H   0  0  0  0  0  0  0  0  0  0  0  0
   -1.2571   -1.6928   -4.2629 H   0  0  0  0  0  0  0  0  0  0  0  0
   -0.6612   -3.3098   -3.7362 H   0  0  0  0  0  0  0  0  0  0  0  0
   -3.1017   -3.5435   -2.6859 H   0  0  0  0  0  0  0  0  0  0  0  0
   -3.6344   -2.2991   -1.4961 H   0  0  0  0  0  0  0  0  0  0  0  0
   -3.4357   -1.8681   -3.2254 H   0  0  0  0  0  0  0  0  0  0  0  0
   -3.3892   -3.2988    1.2518 H   0  0  0  0  0  0  0  0  0  0  0  0
   -1.8412   -3.6463    2.1339 H   0  0  0  0  0  0  0  0  0  0  0  0
   -2.2831   -4.5908    0.6743 H   0  0  0  0  0  0  0  0  0  0  0  0
  1  2  1  0
  2  3  1  0
  3  4  1  0
  3  5  1  0
  5  6  1  0
  6  7  1  0
  7  8  2  0
  7  9  1  0
  9 10  1  0
 10 11  1  0
 10 12  1  0
  9 13  1  0
 13 14  1  0
 13 15  1  0
 15 16  2  0
 15 17  1  0
 17 18  1  0
 18 19  1  0
 18 20  1  0
 17 21  1  0
 21 22  1  0
 22 23  2  0
 22 24  1  0
 24 25  1  0
 25 26  1  0
 25 27  1  0
 24 28  1  0
 28 29  1  0
 28 30  1  0
 30 31  2  0
 30 32  1  0
 32 33  1  0
 33 34  1  0
 33 35  1  0
 32 36  1  0
 36 37  1  0
 37 38  2  0
 37 39  1  0
 39 40  1  0
 40 41  1  0
 40 42  1  0
 39 43  1  0
 43 44  1  0
 43 45  1  0
 45 46  2  0
 45  5  1  0
  1 47  1  0
  1 48  1  0
  1 49  1  0
  2 50  1  0
  2 51  1  0
  3 52  1  6
  4 53  1  0
  4 54  1  0
  4 55  1  0
  5 56  1  6
  9 57  1  6
 10 58  1  0
 11 59  1  0
 11 60  1  0
 11 61  1  0
 12 62  1  0
 12 63  1  0
 12 64  1  0
 14 65  1  0
 14 66  1  0
 14 67  1  0
 17 68  1  6
 18 69  1  0
 19 70  1  0
 19 71  1  0
 19 72  1  0
 20 73  1  0
 20 74  1  0
 20 75  1  0
 24 76  1  1
 25 77  1  0
 26 78  1  0
 26 79  1  0
 26 80  1  0
 27 81  1  0
 27 82  1  0
 27 83  1  0
 29 84  1  0
 29 85  1  0
 29 86  1  0
 32 87  1  6
 33 88  1  0
 34 89  1  0
 34 90  1  0
 34 91  1  0
 35 92  1  0
 35 93  1  0
 35 94  1  0
 39 95  1  6
 40 96  1  0
 41 97  1  0
 41 98  1  0
 41 99  1  0
 42100  1  0
 42101  1  0
 42102  1  0
 44103  1  0
 44104  1  0
 44105  1  0
M  END
$$$$
