
     RDKit          3D

 73 74  0  0  0  0  0  0  0  0999 V2000
   -0.4418   -4.7230   -1.3314 C   0  0  0  0  0  0  0  0  0  0  0  0
   -0.7056   -3.2790   -1.0158 C   0  0  0  0  0  0  0  0  0  0  0  0
   -0.7194   -2.4489   -1.9643 O   0  0  0  0  0  0  0  0  0  0  0  0
   -0.7925   -2.8003    0.3450 N   0  0  0  0  0  0  0  0  0  0  0  0
   -1.4378   -3.6258    1.3844 C   0  0  0  0  0  0  0  0  0  0  0  0
   -2.9707   -3.4500    1.4692 C   0  0  0  0  0  0  0  0  0  0  0  0
   -3.7709   -3.8122    0.2002 C   0  0  0  0  0  0  0  0  0  0  0  0
   -4.0140   -2.6127   -0.7311 C   0  0  0  0  0  0  0  0  0  0  0  0
   -5.0542   -1.6201   -0.1730 C   0  0  0  0  0  0  0  0  0  0  0  0
   -4.7108   -0.1541   -0.4925 C   0  0  0  0  0  0  0  0  0  0  0  0
   -3.6702    0.4517    0.4722 C   0  0  0  0  0  0  0  0  0  0  0  0
   -2.2966   -0.0463    0.2137 N   0  0  0  0  0  0  0  0  0  0  0  0
   -1.6256    0.6422   -0.9237 C   0  0  0  0  0  0  0  0  0  0  0  0
   -1.2668    2.1291   -0.6744 C   0  0  0  0  0  0  0  0  0  0  0  0
   -0.3014    2.6842   -1.7489 C   0  0  0  0  0  0  0  0  0  0  0  0
   -0.3507    4.2175   -1.7679 C   0  0  0  0  0  0  0  0  0  0  0  0
    1.1459    2.2212   -1.5102 C   0  0  0  0  0  0  0  0  0  0  0  0
   -1.4970   -0.0753    1.4619 C   0  0  0  0  0  0  0  0  0  0  0  0
   -0.0790   -0.5674    1.2569 C   0  0  0  0  0  0  0  0  0  0  0  0
    0.9739    0.3098    1.5779 C   0  0  0  0  0  0  0  0  0  0  0  0
    2.3123   -0.0495    1.3675 C   0  0  0  0  0  0  0  0  0  0  0  0
    3.3888    0.9251    1.6524 C   0  0  0  0  0  0  0  0  0  0  0  0
    3.2267    1.7713    2.5732 O   0  0  0  0  0  0  0  0  0  0  0  0
    4.5951    0.9430    0.8722 N   0  0  0  0  0  0  0  0  0  0  0  0
    5.6240    1.9688    1.0442 C   0  0  0  0  0  0  0  0  0  0  0  0
    5.1690    3.3185    0.4619 C   0  0  0  0  0  0  0  0  0  0  0  0
    6.1427    4.2891    0.7475 O   0  0  0  0  0  0  0  0  0  0  0  0
    4.9325    3.2389   -1.0586 C   0  0  0  0  0  0  0  0  0  0  0  0
    6.1158    2.9209   -1.7400 O   0  0  0  0  0  0  0  0  0  0  0  0
    2.6048   -1.3294    0.8823 C   0  0  0  0  0  0  0  0  0  0  0  0
    1.5759   -2.2201    0.5828 C   0  0  0  0  0  0  0  0  0  0  0  0
    0.2271   -1.8560    0.7445 C   0  0  0  0  0  0  0  0  0  0  0  0
    0.5140   -5.0366   -0.8615 H   0  0  0  0  0  0  0  0  0  0  0  0
   -0.3574   -4.8685   -2.4302 H   0  0  0  0  0  0  0  0  0  0  0  0
   -1.2536   -5.3776   -0.9596 H   0  0  0  0  0  0  0  0  0  0  0  0
   -1.1910   -4.6982    1.2438 H   0  0  0  0  0  0  0  0  0  0  0  0
   -1.0232   -3.3584    2.3822 H   0  0  0  0  0  0  0  0  0  0  0  0
   -3.3190   -4.1251    2.2813 H   0  0  0  0  0  0  0  0  0  0  0  0
   -3.2275   -2.4338    1.8105 H   0  0  0  0  0  0  0  0  0  0  0  0
   -3.2651   -4.6223   -0.3571 H   0  0  0  0  0  0  0  0  0  0  0  0
   -4.7604   -4.2223    0.5027 H   0  0  0  0  0  0  0  0  0  0  0  0
   -3.0600   -2.1068   -0.9460 H   0  0  0  0  0  0  0  0  0  0  0  0
   -4.3800   -2.9953   -1.7080 H   0  0  0  0  0  0  0  0  0  0  0  0
   -5.1995   -1.7365    0.9219 H   0  0  0  0  0  0  0  0  0  0  0  0
   -6.0379   -1.8578   -0.6326 H   0  0  0  0  0  0  0  0  0  0  0  0
   -5.6446    0.4391   -0.3855 H   0  0  0  0  0  0  0  0  0  0  0  0
   -4.3973   -0.0520   -1.5516 H   0  0  0  0  0  0  0  0  0  0  0  0
   -3.9931    0.2118    1.5107 H   0  0  0  0  0  0  0  0  0  0  0  0
   -3.7148    1.5571    0.4041 H   0  0  0  0  0  0  0  0  0  0  0  0
   -2.2627    0.5825   -1.8297 H   0  0  0  0  0  0  0  0  0  0  0  0
   -0.7151    0.0750   -1.1934 H   0  0  0  0  0  0  0  0  0  0  0  0
   -2.2052    2.7217   -0.7044 H   0  0  0  0  0  0  0  0  0  0  0  0
   -0.8122    2.2825    0.3234 H   0  0  0  0  0  0  0  0  0  0  0  0
   -0.6263    2.3263   -2.7517 H   0  0  0  0  0  0  0  0  0  0  0  0
   -1.3787    4.5672   -2.0036 H   0  0  0  0  0  0  0  0  0  0  0  0
    0.3315    4.6162   -2.5486 H   0  0  0  0  0  0  0  0  0  0  0  0
   -0.0483    4.6302   -0.7810 H   0  0  0  0  0  0  0  0  0  0  0  0
    1.2297    1.1175   -1.5533 H   0  0  0  0  0  0  0  0  0  0  0  0
    1.8112    2.6356   -2.2971 H   0  0  0  0  0  0  0  0  0  0  0  0
    1.5102    2.5689   -0.5193 H   0  0  0  0  0  0  0  0  0  0  0  0
   -1.9672   -0.7420    2.2066 H   0  0  0  0  0  0  0  0  0  0  0  0
   -1.5109    0.9259    1.9464 H   0  0  0  0  0  0  0  0  0  0  0  0
    0.7501    1.2982    1.9618 H   0  0  0  0  0  0  0  0  0  0  0  0
    4.7326    0.2426    0.1109 H   0  0  0  0  0  0  0  0  0  0  0  0
    5.8569    2.0815    2.1252 H   0  0  0  0  0  0  0  0  0  0  0  0
    6.5590    1.6415    0.5392 H   0  0  0  0  0  0  0  0  0  0  0  0
    4.2107    3.6082    0.9518 H   0  0  0  0  0  0  0  0  0  0  0  0
    5.7176    5.1744    0.5994 H   0  0  0  0  0  0  0  0  0  0  0  0
    4.5208    4.2062   -1.4262 H   0  0  0  0  0  0  0  0  0  0  0  0
    4.1735    2.4603   -1.2823 H   0  0  0  0  0  0  0  0  0  0  0  0
    6.6445    3.7587   -1.8024 H   0  0  0  0  0  0  0  0  0  0  0  0
    3.6287   -1.6532    0.7487 H   0  0  0  0  0  0  0  0  0  0  0  0
    1.8308   -3.2041    0.2119 H   0  0  0  0  0  0  0  0  0  0  0  0
  1  2  1  0
  2  3  2  0
  2  4  1  0
  4  5  1  0
  5  6  1  0
  6  7  1  0
  7  8  1  0
  8  9  1  0
  9 10  1  0
 10 11  1  0
 11 12  1  0
 12 13  1  0
 13 14  1  0
 14 15  1  0
 15 16  1  0
 15 17  1  0
 12 18  1  0
 18 19  1  0
 19 20  2  0
 20 21  1  0
 21 22  1  0
 22 23  2  0
 22 24  1  0
 24 25  1  0
 25 26  1  0
 26 27  1  0
 26 28  1  0
 28 29  1  0
 21 30  2  0
 30 31  1  0
 31 32  2  0
 32  4  1  0
 32 19  1  0
  1 33  1  0
  1 34  1  0
  1 35  1  0
  5 36  1  0
  5 37  1  0
  6 38  1  0
  6 39  1  0
  7 40  1  0
  7 41  1  0
  8 42  1  0
  8 43  1  0
  9 44  1  0
  9 45  1  0
 10 46  1  0
 10 47  1  0
 11 48  1  0
 11 49  1  0
 13 50  1  0
 13 51  1  0
 14 52  1  0
 14 53  1  0
 15 54  1  0
 16 55  1  0
 16 56  1  0
 16 57  1  0
 17 58  1  0
 17 59  1  0
 17 60  1  0
 18 61  1  0
 18 62  1  0
 20 63  1  0
 24 64  1  0
 25 65  1  0
 25 66  1  0
 26 67  1  0
 27 68  1  0
 28 69  1  0
 28 70  1  0
 29 71  1  0
 30 72  1  0
 31 73  1  0
M  END
$$$$
