
     RDKit          3D

 77 80  0  0  0  0  0  0  0  0999 V2000
   -4.7025   -2.6178    0.7936 O   0  0  0  0  0  0  0  0  0  0  0  0
   -4.7009   -1.4794    0.2532 C   0  0  0  0  0  0  0  0  0  0  0  0
   -6.0080   -0.8952   -0.2338 C   0  0  0  0  0  0  0  0  0  0  0  0
   -5.8139    0.2817   -1.2057 C   0  0  0  0  0  0  0  0  0  0  0  0
   -7.1769    0.8852   -1.5690 C   0  0  0  0  0  0  0  0  0  0  0  0
   -7.8643    1.3157   -0.4074 O   0  0  0  0  0  0  0  0  0  0  0  0
   -8.1732    0.2037    0.4138 C   0  0  0  0  0  0  0  0  0  0  0  0
   -6.8959   -0.4622    0.9434 C   0  0  0  0  0  0  0  0  0  0  0  0
   -3.4576   -0.7728    0.1139 N   0  0  0  0  0  0  0  0  0  0  0  0
   -2.4172   -1.3802   -0.7380 C   0  0  0  0  0  0  0  0  0  0  0  0
   -1.2476   -1.9163    0.1016 C   0  0  0  0  0  0  0  0  0  0  0  0
   -0.0565   -2.3505   -0.7665 C   0  0  0  0  0  0  0  0  0  0  0  0
    1.2204   -2.5580    0.0910 C   0  0  0  0  0  0  0  0  0  0  0  0
    2.4106   -1.6241   -0.2915 C   0  0  0  0  0  0  0  0  0  0  0  0
    3.5486   -1.8318    0.7374 C   0  0  0  0  0  0  0  0  0  0  0  0
    4.8147   -1.0118    0.4002 C   0  0  0  0  0  0  0  0  0  0  0  0
    4.8803   -0.6218   -1.0300 N   0  0  0  0  0  0  0  0  0  0  0  0
    6.2303   -0.1497   -1.3963 C   0  0  0  0  0  0  0  0  0  0  0  0
    6.4893    1.2058   -0.7933 C   0  0  0  0  0  0  0  0  0  0  0  0
    5.8593    2.3416   -1.3212 C   0  0  0  0  0  0  0  0  0  0  0  0
    6.0846    3.5900   -0.7361 C   0  0  0  0  0  0  0  0  0  0  0  0
    6.9007    3.6974    0.3453 N   0  0  0  0  0  0  0  0  0  0  0  0
    7.5187    2.6111    0.8838 C   0  0  0  0  0  0  0  0  0  0  0  0
    7.3251    1.3446    0.3263 C   0  0  0  0  0  0  0  0  0  0  0  0
    4.4499   -1.7305   -1.8989 C   0  0  0  0  0  0  0  0  0  0  0  0
    2.9440   -2.0125   -1.7103 C   0  0  0  0  0  0  0  0  0  0  0  0
    1.9674   -0.1637   -0.2263 C   0  0  0  0  0  0  0  0  0  0  0  0
    2.2973    0.6497   -1.1342 O   0  0  0  0  0  0  0  0  0  0  0  0
    1.2204    0.2845    0.8704 O   0  0  0  0  0  0  0  0  0  0  0  0
    0.7817    1.6363    1.0068 C   0  0  0  0  0  0  0  0  0  0  0  0
   -0.3259    1.7294    2.0881 C   0  0  0  0  0  0  0  0  0  0  0  0
    0.1320    2.5164    3.1578 O   0  0  0  0  0  0  0  0  0  0  0  0
   -1.6428    2.3512    1.5371 C   0  0  0  0  0  0  0  0  0  0  0  0
   -2.5189    2.7101    2.5796 O   0  0  0  0  0  0  0  0  0  0  0  0
   -2.3643    1.4607    0.4932 C   0  0  0  0  0  0  0  0  0  0  0  0
   -3.1386    0.2723    1.1059 C   0  0  0  0  0  0  0  0  0  0  0  0
   -6.5396   -1.7031   -0.7883 H   0  0  0  0  0  0  0  0  0  0  0  0
   -5.3037   -0.0668   -2.1308 H   0  0  0  0  0  0  0  0  0  0  0  0
   -5.1959    1.0772   -0.7385 H   0  0  0  0  0  0  0  0  0  0  0  0
   -7.7877    0.1588   -2.1524 H   0  0  0  0  0  0  0  0  0  0  0  0
   -7.0077    1.7651   -2.2241 H   0  0  0  0  0  0  0  0  0  0  0  0
   -8.8047   -0.5349   -0.1299 H   0  0  0  0  0  0  0  0  0  0  0  0
   -8.7702    0.5619    1.2782 H   0  0  0  0  0  0  0  0  0  0  0  0
   -6.3560    0.2571    1.5952 H   0  0  0  0  0  0  0  0  0  0  0  0
   -7.1697   -1.3497    1.5559 H   0  0  0  0  0  0  0  0  0  0  0  0
   -2.0607   -0.6317   -1.4763 H   0  0  0  0  0  0  0  0  0  0  0  0
   -2.8434   -2.2157   -1.3374 H   0  0  0  0  0  0  0  0  0  0  0  0
   -1.5946   -2.7757    0.7178 H   0  0  0  0  0  0  0  0  0  0  0  0
   -0.8978   -1.1204    0.7858 H   0  0  0  0  0  0  0  0  0  0  0  0
   -0.3154   -3.3002   -1.2836 H   0  0  0  0  0  0  0  0  0  0  0  0
    0.1195   -1.5904   -1.5574 H   0  0  0  0  0  0  0  0  0  0  0  0
    0.9885   -2.4294    1.1723 H   0  0  0  0  0  0  0  0  0  0  0  0
    1.5402   -3.6202   -0.0021 H   0  0  0  0  0  0  0  0  0  0  0  0
    3.8249   -2.9092    0.7564 H   0  0  0  0  0  0  0  0  0  0  0  0
    3.2019   -1.5702    1.7626 H   0  0  0  0  0  0  0  0  0  0  0  0
    4.8011   -0.0884    1.0195 H   0  0  0  0  0  0  0  0  0  0  0  0
    5.7110   -1.6033    0.6994 H   0  0  0  0  0  0  0  0  0  0  0  0
    6.3176   -0.0422   -2.5005 H   0  0  0  0  0  0  0  0  0  0  0  0
    7.0086   -0.8836   -1.0879 H   0  0  0  0  0  0  0  0  0  0  0  0
    5.1936    2.2600   -2.1733 H   0  0  0  0  0  0  0  0  0  0  0  0
    5.6028    4.4737   -1.1384 H   0  0  0  0  0  0  0  0  0  0  0  0
    8.1585    2.7287    1.7474 H   0  0  0  0  0  0  0  0  0  0  0  0
    7.8117    0.4823    0.7655 H   0  0  0  0  0  0  0  0  0  0  0  0
    5.0398   -2.6481   -1.6715 H   0  0  0  0  0  0  0  0  0  0  0  0
    4.6192   -1.4812   -2.9702 H   0  0  0  0  0  0  0  0  0  0  0  0
    2.3662   -1.4828   -2.5005 H   0  0  0  0  0  0  0  0  0  0  0  0
    2.7904   -3.0987   -1.8998 H   0  0  0  0  0  0  0  0  0  0  0  0
    0.4226    2.0154    0.0252 H   0  0  0  0  0  0  0  0  0  0  0  0
    1.6562    2.2674    1.2829 H   0  0  0  0  0  0  0  0  0  0  0  0
   -0.5551    0.7107    2.4734 H   0  0  0  0  0  0  0  0  0  0  0  0
    0.7936    1.9683    3.6568 H   0  0  0  0  0  0  0  0  0  0  0  0
   -1.3664    3.2957    1.0198 H   0  0  0  0  0  0  0  0  0  0  0  0
   -2.6125    1.9286    3.1847 H   0  0  0  0  0  0  0  0  0  0  0  0
   -1.6187    1.1135   -0.2431 H   0  0  0  0  0  0  0  0  0  0  0  0
   -3.0872    2.0901   -0.0694 H   0  0  0  0  0  0  0  0  0  0  0  0
   -4.0736    0.6726    1.5517 H   0  0  0  0  0  0  0  0  0  0  0  0
   -2.5778   -0.1904    1.9425 H   0  0  0  0  0  0  0  0  0  0  0  0
  1  2  2  0
  2  3  1  0
  3  4  1  0
  4  5  1  0
  5  6  1  0
  6  7  1  0
  7  8  1  0
  2  9  1  0
  9 10  1  0
 10 11  1  0
 11 12  1  0
 12 13  1  0
 13 14  1  0
 14 15  1  0
 15 16  1  0
 16 17  1  0
 17 18  1  0
 18 19  1  0
 19 20  2  0
 20 21  1  0
 21 22  2  0
 22 23  1  0
 23 24  2  0
 17 25  1  0
 25 26  1  0
 14 27  1  0
 27 28  2  0
 27 29  1  0
 29 30  1  0
 30 31  1  0
 31 32  1  0
 31 33  1  0
 33 34  1  0
 33 35  1  0
 35 36  1  0
  8  3  1  0
 36  9  1  0
 26 14  1  0
 24 19  1  0
  3 37  1  0
  4 38  1  0
  4 39  1  0
  5 40  1  0
  5 41  1  0
  7 42  1  0
  7 43  1  0
  8 44  1  0
  8 45  1  0
 10 46  1  0
 10 47  1  0
 11 48  1  0
 11 49  1  0
 12 50  1  0
 12 51  1  0
 13 52  1  0
 13 53  1  0
 15 54  1  0
 15 55  1  0
 16 56  1  0
 16 57  1  0
 18 58  1  0
 18 59  1  0
 20 60  1  0
 21 61  1  0
 23 62  1  0
 24 63  1  0
 25 64  1  0
 25 65  1  0
 26 66  1  0
 26 67  1  0
 30 68  1  0
 30 69  1  0
 31 70  1  0
 32 71  1  0
 33 72  1  0
 34 73  1  0
 35 74  1  0
 35 75  1  0
 36 76  1  0
 36 77  1  0
M  END
$$$$
