
     RDKit          3D

 69 71  0  0  0  0  0  0  0  0999 V2000
   -5.0926   -0.0072   -1.2288 C   0  0  0  0  0  0  0  0  0  0  0  0
   -4.7888   -1.4549   -0.8590 C   0  0  0  0  0  0  0  0  0  0  0  0
   -3.3321   -1.7777   -1.0528 C   0  0  0  0  0  0  0  0  0  0  0  0
   -2.9340   -2.0534   -2.2175 O   0  0  0  0  0  0  0  0  0  0  0  0
   -2.4032   -1.8489    0.0509 N   0  0  0  0  0  0  0  0  0  0  0  0
   -2.5372   -1.0015    1.2507 C   0  0  0  0  0  0  0  0  0  0  0  0
   -1.4621    0.0937    1.2813 C   0  0  0  0  0  0  0  0  0  0  0  0
   -1.7567    1.2285    0.2788 C   0  0  0  0  0  0  0  0  0  0  0  0
   -0.7575    2.3376    0.3074 N   0  0  0  0  0  0  0  0  0  0  0  0
   -1.1785    3.5045   -0.5364 C   0  0  0  0  0  0  0  0  0  0  0  0
   -0.1535    4.6592   -0.4771 C   0  0  0  0  0  0  0  0  0  0  0  0
   -2.5452    4.0700   -0.0903 C   0  0  0  0  0  0  0  0  0  0  0  0
    0.6284    1.8725    0.0088 C   0  0  0  0  0  0  0  0  0  0  0  0
    0.8468    1.4021   -1.4530 C   0  0  0  0  0  0  0  0  0  0  0  0
    1.8151    0.2123   -1.5773 C   0  0  0  0  0  0  0  0  0  0  0  0
    1.3452   -0.9684   -0.8222 N   0  0  0  0  0  0  0  0  0  0  0  0
    2.0038   -1.3673    0.4172 C   0  0  0  0  0  0  0  0  0  0  0  0
    1.4091   -2.0927    1.2587 O   0  0  0  0  0  0  0  0  0  0  0  0
    3.3726   -0.9435    0.7557 C   0  0  0  0  0  0  0  0  0  0  0  0
    4.3901   -1.8973    0.8857 C   0  0  0  0  0  0  0  0  0  0  0  0
    5.6698   -1.4857    1.2632 C   0  0  0  0  0  0  0  0  0  0  0  0
    5.9191   -0.1356    1.5180 C   0  0  0  0  0  0  0  0  0  0  0  0
    4.8777    0.7892    1.3981 C   0  0  0  0  0  0  0  0  0  0  0  0
    5.1243    2.1406    1.6574 O   0  0  0  0  0  0  0  0  0  0  0  0
    4.1233    3.1430    1.5278 C   0  0  0  0  0  0  0  0  0  0  0  0
    3.6359    0.3636    1.0319 N   0  0  0  0  0  0  0  0  0  0  0  0
    0.2054   -1.7016   -1.4310 C   0  0  0  0  0  0  0  0  0  0  0  0
   -0.2615   -2.9274   -0.6767 C   0  0  0  0  0  0  0  0  0  0  0  0
    0.5430   -4.0807   -0.7106 C   0  0  0  0  0  0  0  0  0  0  0  0
    0.1832   -5.2210    0.0100 C   0  0  0  0  0  0  0  0  0  0  0  0
    0.9789   -6.3186   -0.0213 F   0  0  0  0  0  0  0  0  0  0  0  0
   -0.9907   -5.2297    0.7646 C   0  0  0  0  0  0  0  0  0  0  0  0
   -1.3411   -6.3380    1.4629 F   0  0  0  0  0  0  0  0  0  0  0  0
   -1.8144   -4.1029    0.7888 C   0  0  0  0  0  0  0  0  0  0  0  0
   -1.4695   -2.9473    0.0710 C   0  0  0  0  0  0  0  0  0  0  0  0
   -6.1850    0.1737   -1.1488 H   0  0  0  0  0  0  0  0  0  0  0  0
   -4.5734    0.6898   -0.5425 H   0  0  0  0  0  0  0  0  0  0  0  0
   -4.7740    0.2017   -2.2723 H   0  0  0  0  0  0  0  0  0  0  0  0
   -5.1071   -1.6621    0.1840 H   0  0  0  0  0  0  0  0  0  0  0  0
   -5.3913   -2.1213   -1.5135 H   0  0  0  0  0  0  0  0  0  0  0  0
   -3.5393   -0.5349    1.3222 H   0  0  0  0  0  0  0  0  0  0  0  0
   -2.4242   -1.6318    2.1594 H   0  0  0  0  0  0  0  0  0  0  0  0
   -0.5015   -0.3980    1.0751 H   0  0  0  0  0  0  0  0  0  0  0  0
   -1.4129    0.5254    2.3046 H   0  0  0  0  0  0  0  0  0  0  0  0
   -2.7416    1.6176    0.5974 H   0  0  0  0  0  0  0  0  0  0  0  0
   -1.8866    0.8254   -0.7450 H   0  0  0  0  0  0  0  0  0  0  0  0
   -1.2783    3.1919   -1.5994 H   0  0  0  0  0  0  0  0  0  0  0  0
    0.1084    4.8911    0.5779 H   0  0  0  0  0  0  0  0  0  0  0  0
    0.7670    4.4079   -1.0421 H   0  0  0  0  0  0  0  0  0  0  0  0
   -0.5560    5.5780   -0.9549 H   0  0  0  0  0  0  0  0  0  0  0  0
   -2.5831    4.1653    1.0160 H   0  0  0  0  0  0  0  0  0  0  0  0
   -2.7377    5.0684   -0.5379 H   0  0  0  0  0  0  0  0  0  0  0  0
   -3.3764    3.4240   -0.4418 H   0  0  0  0  0  0  0  0  0  0  0  0
    0.9373    1.1074    0.7388 H   0  0  0  0  0  0  0  0  0  0  0  0
    1.3551    2.6758    0.2386 H   0  0  0  0  0  0  0  0  0  0  0  0
    1.2684    2.2482   -2.0370 H   0  0  0  0  0  0  0  0  0  0  0  0
   -0.1021    1.1453   -1.9574 H   0  0  0  0  0  0  0  0  0  0  0  0
    1.9043   -0.0544   -2.6529 H   0  0  0  0  0  0  0  0  0  0  0  0
    2.8301    0.5321   -1.2800 H   0  0  0  0  0  0  0  0  0  0  0  0
    4.1939   -2.9458    0.6965 H   0  0  0  0  0  0  0  0  0  0  0  0
    6.4658   -2.2130    1.3617 H   0  0  0  0  0  0  0  0  0  0  0  0
    6.9097    0.1890    1.8112 H   0  0  0  0  0  0  0  0  0  0  0  0
    3.7747    3.1936    0.4746 H   0  0  0  0  0  0  0  0  0  0  0  0
    3.2674    2.9170    2.1988 H   0  0  0  0  0  0  0  0  0  0  0  0
    4.5526    4.1262    1.8102 H   0  0  0  0  0  0  0  0  0  0  0  0
    0.4970   -2.0257   -2.4538 H   0  0  0  0  0  0  0  0  0  0  0  0
   -0.6403   -1.0069   -1.5715 H   0  0  0  0  0  0  0  0  0  0  0  0
    1.4642   -4.0850   -1.2806 H   0  0  0  0  0  0  0  0  0  0  0  0
   -2.7378   -4.1312    1.3539 H   0  0  0  0  0  0  0  0  0  0  0  0
  1  2  1  0
  2  3  1  0
  3  4  2  0
  3  5  1  0
  5  6  1  0
  6  7  1  0
  7  8  1  0
  8  9  1  0
  9 10  1  0
 10 11  1  0
 10 12  1  0
  9 13  1  0
 13 14  1  0
 14 15  1  0
 15 16  1  0
 16 17  1  0
 17 18  2  0
 17 19  1  0
 19 20  2  0
 20 21  1  0
 21 22  2  0
 22 23  1  0
 23 24  1  0
 24 25  1  0
 23 26  2  0
 16 27  1  0
 27 28  1  0
 28 29  2  0
 29 30  1  0
 30 31  1  0
 30 32  2  0
 32 33  1  0
 32 34  1  0
 34 35  2  0
 35  5  1  0
 26 19  1  0
 35 28  1  0
  1 36  1  0
  1 37  1  0
  1 38  1  0
  2 39  1  0
  2 40  1  0
  6 41  1  0
  6 42  1  0
  7 43  1  0
  7 44  1  0
  8 45  1  0
  8 46  1  0
 10 47  1  0
 11 48  1  0
 11 49  1  0
 11 50  1  0
 12 51  1  0
 12 52  1  0
 12 53  1  0
 13 54  1  0
 13 55  1  0
 14 56  1  0
 14 57  1  0
 15 58  1  0
 15 59  1  0
 20 60  1  0
 21 61  1  0
 22 62  1  0
 25 63  1  0
 25 64  1  0
 25 65  1  0
 27 66  1  0
 27 67  1  0
 29 68  1  0
 34 69  1  0
M  END
$$$$
