
     RDKit          3D

 40 42  0  0  0  0  0  0  0  0999 V2000
   -3.3765    1.7184   -0.6799 C   0  0  0  0  0  0  0  0  0  0  0  0
   -2.4556    1.2004    0.4331 C   0  0  1  0  0  0  0  0  0  0  0  0
   -3.0444   -0.0448    1.1309 C   0  0  0  0  0  0  0  0  0  0  0  0
   -3.2248   -1.2958    0.2357 C   0  0  0  0  0  0  0  0  0  0  0  0
   -1.9305   -1.9055   -0.3421 C   0  0  0  0  0  0  0  0  0  0  0  0
   -0.9776   -2.4074    0.7549 C   0  0  2  0  0  0  0  0  0  0  0  0
   -0.2475   -1.3678    1.3622 O   0  0  0  0  0  0  0  0  0  0  0  0
    0.5037   -2.2846    0.6007 C   0  0  2  0  0  0  0  0  0  0  0  0
    1.1412   -1.5703   -0.5638 C   0  0  0  0  0  0  0  0  0  0  0  0
    0.8843   -1.9371   -1.7413 O   0  0  0  0  0  0  0  0  0  0  0  0
    2.1734   -0.5306   -0.3203 C   0  0  0  0  0  0  0  0  0  0  0  0
    3.3617   -0.8785    0.3706 C   0  0  0  0  0  0  0  0  0  0  0  0
    3.6873   -2.2038    0.6672 O   0  0  0  0  0  0  0  0  0  0  0  0
    4.2714    0.1126    0.7471 C   0  0  0  0  0  0  0  0  0  0  0  0
    4.0558    1.4439    0.4014 C   0  0  0  0  0  0  0  0  0  0  0  0
    4.9788    2.4127    0.7897 O   0  0  0  0  0  0  0  0  0  0  0  0
    2.9262    1.7935   -0.3412 C   0  0  0  0  0  0  0  0  0  0  0  0
    1.9867    0.8217   -0.7274 C   0  0  0  0  0  0  0  0  0  0  0  0
    0.8019    1.2842   -1.5424 C   0  0  0  0  0  0  0  0  0  0  0  0
   -0.2888    1.7980   -0.6601 C   0  0  0  0  0  0  0  0  0  0  0  0
   -0.4022    3.0339   -0.4374 O   0  0  0  0  0  0  0  0  0  0  0  0
   -1.1696    0.8829   -0.0884 O   0  0  0  0  0  0  0  0  0  0  0  0
   -4.4155    1.8319   -0.3041 H   0  0  0  0  0  0  0  0  0  0  0  0
   -3.3725    1.0258   -1.5475 H   0  0  0  0  0  0  0  0  0  0  0  0
   -3.0278    2.7125   -1.0292 H   0  0  0  0  0  0  0  0  0  0  0  0
   -2.3480    1.9988    1.2005 H   0  0  0  0  0  0  0  0  0  0  0  0
   -4.0405    0.2256    1.5447 H   0  0  0  0  0  0  0  0  0  0  0  0
   -2.4170   -0.3009    2.0095 H   0  0  0  0  0  0  0  0  0  0  0  0
   -3.7354   -2.0769    0.8403 H   0  0  0  0  0  0  0  0  0  0  0  0
   -3.9124   -1.0561   -0.6023 H   0  0  0  0  0  0  0  0  0  0  0  0
   -1.4568   -1.2142   -1.0611 H   0  0  0  0  0  0  0  0  0  0  0  0
   -2.2197   -2.7929   -0.9440 H   0  0  0  0  0  0  0  0  0  0  0  0
   -1.3482   -3.1361    1.5062 H   0  0  0  0  0  0  0  0  0  0  0  0
    1.1285   -2.9175    1.2623 H   0  0  0  0  0  0  0  0  0  0  0  0
    3.1924   -2.9935    0.2736 H   0  0  0  0  0  0  0  0  0  0  0  0
    5.1659   -0.1595    1.2937 H   0  0  0  0  0  0  0  0  0  0  0  0
    4.8541    3.3897    0.5513 H   0  0  0  0  0  0  0  0  0  0  0  0
    2.7785    2.8304   -0.6192 H   0  0  0  0  0  0  0  0  0  0  0  0
    1.1162    2.0871   -2.2452 H   0  0  0  0  0  0  0  0  0  0  0  0
    0.4029    0.4699   -2.1787 H   0  0  0  0  0  0  0  0  0  0  0  0
  1  2  1  0
  2  3  1  0
  3  4  1  0
  4  5  1  0
  5  6  1  0
  6  7  1  0
  7  8  1  0
  8  9  1  0
  9 10  2  0
  9 11  1  0
 11 12  2  0
 12 13  1  0
 12 14  1  0
 14 15  2  0
 15 16  1  0
 15 17  1  0
 17 18  2  0
 18 19  1  0
 19 20  1  0
 20 21  2  0
 20 22  1  0
 22  2  1  0
  8  6  1  0
 18 11  1  0
  1 23  1  0
  1 24  1  0
  1 25  1  0
  2 26  1  1
  3 27  1  0
  3 28  1  0
  4 29  1  0
  4 30  1  0
  5 31  1  0
  5 32  1  0
  6 33  1  1
  8 34  1  1
 13 35  1  0
 14 36  1  0
 16 37  1  0
 17 38  1  0
 19 39  1  0
 19 40  1  0
M  END
$$$$
