
     RDKit          3D

 76 79  0  0  0  0  0  0  0  0999 V2000
   -3.2595   -2.4652   -2.4771 C   0  0  0  0  0  0  0  0  0  0  0  0
   -2.9589   -2.9553   -1.0912 C   0  0  0  0  0  0  0  0  0  0  0  0
   -3.5006   -4.0348   -0.7200 O   0  0  0  0  0  0  0  0  0  0  0  0
   -2.1284   -2.2010   -0.1667 N   0  0  0  0  0  0  0  0  0  0  0  0
   -2.1417   -2.5919    1.2577 C   0  0  0  0  0  0  0  0  0  0  0  0
   -3.3621   -2.0521    2.0488 C   0  0  0  0  0  0  0  0  0  0  0  0
   -4.5748   -1.6330    1.1931 C   0  0  0  0  0  0  0  0  0  0  0  0
   -5.5677   -0.7262    1.9505 C   0  0  0  0  0  0  0  0  0  0  0  0
   -5.8553    0.5919    1.1947 C   0  0  0  0  0  0  0  0  0  0  0  0
   -5.0344    1.7925    1.6928 C   0  0  0  0  0  0  0  0  0  0  0  0
   -3.4971    1.6302    1.6906 C   0  0  0  0  0  0  0  0  0  0  0  0
   -2.9047    1.0461    0.4510 N   0  0  0  0  0  0  0  0  0  0  0  0
   -3.0968    1.9526   -0.7261 C   0  0  0  0  0  0  0  0  0  0  0  0
   -2.1291    3.1492   -0.8012 C   0  0  0  0  0  0  0  0  0  0  0  0
   -3.1133    1.1690   -2.0406 C   0  0  0  0  0  0  0  0  0  0  0  0
   -1.4869    0.6833    0.7533 C   0  0  0  0  0  0  0  0  0  0  0  0
   -0.7372   -0.0891   -0.3252 C   0  0  0  0  0  0  0  0  0  0  0  0
    0.3920    0.5426   -0.8922 C   0  0  0  0  0  0  0  0  0  0  0  0
    1.2177   -0.1173   -1.8100 C   0  0  0  0  0  0  0  0  0  0  0  0
    2.3770    0.5565   -2.4252 C   0  0  0  0  0  0  0  0  0  0  0  0
    2.3654    0.7437   -3.6722 O   0  0  0  0  0  0  0  0  0  0  0  0
    3.5485    0.9096   -1.6583 N   0  0  0  0  0  0  0  0  0  0  0  0
    4.8644    0.9129   -2.3079 C   0  0  0  0  0  0  0  0  0  0  0  0
    5.8710    0.1474   -1.4428 C   0  0  0  0  0  0  0  0  0  0  0  0
    5.8075    0.5705   -0.0354 N   0  0  0  0  0  0  0  0  0  0  0  0
    6.8048    0.0926    0.8893 C   0  0  0  0  0  0  0  0  0  0  0  0
    7.0328    0.7497    2.0624 N   0  0  0  0  0  0  0  0  0  0  0  0
    7.9680    0.3142    2.9458 C   0  0  0  0  0  0  0  0  0  0  0  0
    8.7163   -0.8249    2.6554 C   0  0  0  0  0  0  0  0  0  0  0  0
    8.4731   -1.4906    1.4536 C   0  0  0  0  0  0  0  0  0  0  0  0
    7.5314   -1.0217    0.5956 N   0  0  0  0  0  0  0  0  0  0  0  0
    4.8140    1.5682    0.3855 C   0  0  0  0  0  0  0  0  0  0  0  0
    3.4460    1.2533   -0.2309 C   0  0  0  0  0  0  0  0  0  0  0  0
    0.9274   -1.4317   -2.1711 C   0  0  0  0  0  0  0  0  0  0  0  0
   -0.1583   -2.0900   -1.6043 C   0  0  0  0  0  0  0  0  0  0  0  0
   -1.0118   -1.4443   -0.6889 C   0  0  0  0  0  0  0  0  0  0  0  0
   -3.1367   -3.2983   -3.2018 H   0  0  0  0  0  0  0  0  0  0  0  0
   -4.3068   -2.1012   -2.5155 H   0  0  0  0  0  0  0  0  0  0  0  0
   -2.5894   -1.6385   -2.7861 H   0  0  0  0  0  0  0  0  0  0  0  0
   -2.1214   -3.7007    1.3374 H   0  0  0  0  0  0  0  0  0  0  0  0
   -1.2065   -2.2583    1.7593 H   0  0  0  0  0  0  0  0  0  0  0  0
   -3.6962   -2.8351    2.7676 H   0  0  0  0  0  0  0  0  0  0  0  0
   -3.0241   -1.2026    2.6717 H   0  0  0  0  0  0  0  0  0  0  0  0
   -4.2334   -1.1103    0.2831 H   0  0  0  0  0  0  0  0  0  0  0  0
   -5.1053   -2.5503    0.8527 H   0  0  0  0  0  0  0  0  0  0  0  0
   -5.2343   -0.5123    2.9895 H   0  0  0  0  0  0  0  0  0  0  0  0
   -6.5253   -1.2838    2.0535 H   0  0  0  0  0  0  0  0  0  0  0  0
   -6.9278    0.8481    1.3473 H   0  0  0  0  0  0  0  0  0  0  0  0
   -5.7334    0.4787    0.0957 H   0  0  0  0  0  0  0  0  0  0  0  0
   -5.3461    2.0116    2.7375 H   0  0  0  0  0  0  0  0  0  0  0  0
   -5.3256    2.6915    1.1107 H   0  0  0  0  0  0  0  0  0  0  0  0
   -3.2525    1.0021    2.5696 H   0  0  0  0  0  0  0  0  0  0  0  0
   -3.0435    2.6202    1.9100 H   0  0  0  0  0  0  0  0  0  0  0  0
   -4.1119    2.3950   -0.6829 H   0  0  0  0  0  0  0  0  0  0  0  0
   -2.0507    3.6746    0.1699 H   0  0  0  0  0  0  0  0  0  0  0  0
   -1.1225    2.8390   -1.1314 H   0  0  0  0  0  0  0  0  0  0  0  0
   -2.5068    3.8807   -1.5463 H   0  0  0  0  0  0  0  0  0  0  0  0
   -2.1024    0.8284   -2.3371 H   0  0  0  0  0  0  0  0  0  0  0  0
   -3.7889    0.2946   -1.9432 H   0  0  0  0  0  0  0  0  0  0  0  0
   -3.5045    1.8105   -2.8592 H   0  0  0  0  0  0  0  0  0  0  0  0
   -0.9219    1.5994    1.0397 H   0  0  0  0  0  0  0  0  0  0  0  0
   -1.4349    0.0618    1.6678 H   0  0  0  0  0  0  0  0  0  0  0  0
    0.6406    1.5560   -0.6111 H   0  0  0  0  0  0  0  0  0  0  0  0
    4.8298    0.4380   -3.3114 H   0  0  0  0  0  0  0  0  0  0  0  0
    5.2041    1.9617   -2.4357 H   0  0  0  0  0  0  0  0  0  0  0  0
    5.6554   -0.9429   -1.5072 H   0  0  0  0  0  0  0  0  0  0  0  0
    6.8927    0.3286   -1.8440 H   0  0  0  0  0  0  0  0  0  0  0  0
    8.1282    0.8519    3.8718 H   0  0  0  0  0  0  0  0  0  0  0  0
    9.4673   -1.1882    3.3457 H   0  0  0  0  0  0  0  0  0  0  0  0
    9.0346   -2.3790    1.1981 H   0  0  0  0  0  0  0  0  0  0  0  0
    4.6996    1.5818    1.4905 H   0  0  0  0  0  0  0  0  0  0  0  0
    5.1513    2.5766    0.0628 H   0  0  0  0  0  0  0  0  0  0  0  0
    2.9997    0.3965    0.3178 H   0  0  0  0  0  0  0  0  0  0  0  0
    2.7956    2.1445   -0.1063 H   0  0  0  0  0  0  0  0  0  0  0  0
    1.5582   -1.9582   -2.8777 H   0  0  0  0  0  0  0  0  0  0  0  0
   -0.3428   -3.1194   -1.8860 H   0  0  0  0  0  0  0  0  0  0  0  0
  1  2  1  0
  2  3  2  0
  2  4  1  0
  4  5  1  0
  5  6  1  0
  6  7  1  0
  7  8  1  0
  8  9  1  0
  9 10  1  0
 10 11  1  0
 11 12  1  0
 12 13  1  0
 13 14  1  0
 13 15  1  0
 12 16  1  0
 16 17  1  0
 17 18  2  0
 18 19  1  0
 19 20  1  0
 20 21  2  0
 20 22  1  0
 22 23  1  0
 23 24  1  0
 24 25  1  0
 25 26  1  0
 26 27  2  0
 27 28  1  0
 28 29  2  0
 29 30  1  0
 30 31  2  0
 25 32  1  0
 32 33  1  0
 19 34  2  0
 34 35  1  0
 35 36  2  0
 36  4  1  0
 36 17  1  0
 33 22  1  0
 31 26  1  0
  1 37  1  0
  1 38  1  0
  1 39  1  0
  5 40  1  0
  5 41  1  0
  6 42  1  0
  6 43  1  0
  7 44  1  0
  7 45  1  0
  8 46  1  0
  8 47  1  0
  9 48  1  0
  9 49  1  0
 10 50  1  0
 10 51  1  0
 11 52  1  0
 11 53  1  0
 13 54  1  0
 14 55  1  0
 14 56  1  0
 14 57  1  0
 15 58  1  0
 15 59  1  0
 15 60  1  0
 16 61  1  0
 16 62  1  0
 18 63  1  0
 23 64  1  0
 23 65  1  0
 24 66  1  0
 24 67  1  0
 28 68  1  0
 29 69  1  0
 30 70  1  0
 32 71  1  0
 32 72  1  0
 33 73  1  0
 33 74  1  0
 34 75  1  0
 35 76  1  0
M  END
$$$$
