
     RDKit          3D

 66 68  0  0  0  0  0  0  0  0999 V2000
   -4.7149   -2.4601    1.8254 C   0  0  0  0  0  0  0  0  0  0  0  0
   -4.1876   -1.0370    1.9656 C   0  0  0  0  0  0  0  0  0  0  0  0
   -2.8034   -0.9308    1.3855 C   0  0  0  0  0  0  0  0  0  0  0  0
   -1.8244   -1.2942    2.0914 O   0  0  0  0  0  0  0  0  0  0  0  0
   -2.5851   -0.5513    0.0126 N   0  0  0  0  0  0  0  0  0  0  0  0
   -3.3561    0.5326   -0.6195 C   0  0  0  0  0  0  0  0  0  0  0  0
   -3.3299    1.8455    0.1903 C   0  0  0  0  0  0  0  0  0  0  0  0
   -1.9245    2.4483    0.3614 C   0  0  0  0  0  0  0  0  0  0  0  0
   -1.2047    2.5739   -0.9269 N   0  0  0  0  0  0  0  0  0  0  0  0
   -1.7614    3.6781   -1.7336 C   0  0  0  0  0  0  0  0  0  0  0  0
    0.2482    2.7735   -0.7090 C   0  0  0  0  0  0  0  0  0  0  0  0
    1.0673    2.2037   -1.8788 C   0  0  0  0  0  0  0  0  0  0  0  0
    0.7875    0.7140   -2.1306 C   0  0  0  0  0  0  0  0  0  0  0  0
    1.3200   -0.1253   -1.0427 N   0  0  0  0  0  0  0  0  0  0  0  0
    2.7528   -0.2996   -0.9346 C   0  0  0  0  0  0  0  0  0  0  0  0
    3.4502   -0.2485   -1.9857 O   0  0  0  0  0  0  0  0  0  0  0  0
    3.4400   -0.5221    0.4058 C   0  0  0  0  0  0  0  0  0  0  0  0
    4.9844   -0.6361    0.2703 C   0  0  0  0  0  0  0  0  0  0  0  0
    5.7436   -0.4035    1.5956 C   0  0  0  0  0  0  0  0  0  0  0  0
    4.8580   -0.6322    2.8231 C   0  0  0  0  0  0  0  0  0  0  0  0
    3.6352    0.3043    2.8175 C   0  0  0  0  0  0  0  0  0  0  0  0
    3.0877    0.5981    1.4042 C   0  0  0  0  0  0  0  0  0  0  0  0
    0.3814   -0.8059   -0.1324 C   0  0  0  0  0  0  0  0  0  0  0  0
   -0.5645   -1.7015   -0.8950 C   0  0  0  0  0  0  0  0  0  0  0  0
   -0.0238   -2.7204   -1.6984 C   0  0  0  0  0  0  0  0  0  0  0  0
   -0.8562   -3.5439   -2.4591 C   0  0  0  0  0  0  0  0  0  0  0  0
   -0.3176   -4.5164   -3.2356 F   0  0  0  0  0  0  0  0  0  0  0  0
   -2.2394   -3.3620   -2.4247 C   0  0  0  0  0  0  0  0  0  0  0  0
   -3.0484   -4.1589   -3.1656 F   0  0  0  0  0  0  0  0  0  0  0  0
   -2.7930   -2.3641   -1.6207 C   0  0  0  0  0  0  0  0  0  0  0  0
   -1.9705   -1.5330   -0.8426 C   0  0  0  0  0  0  0  0  0  0  0  0
   -5.7263   -2.5285    2.2785 H   0  0  0  0  0  0  0  0  0  0  0  0
   -4.7872   -2.7399    0.7531 H   0  0  0  0  0  0  0  0  0  0  0  0
   -4.0432   -3.1753    2.3464 H   0  0  0  0  0  0  0  0  0  0  0  0
   -4.1565   -0.7636    3.0423 H   0  0  0  0  0  0  0  0  0  0  0  0
   -4.8934   -0.3448    1.4654 H   0  0  0  0  0  0  0  0  0  0  0  0
   -4.4093    0.2057   -0.7525 H   0  0  0  0  0  0  0  0  0  0  0  0
   -2.9583    0.7348   -1.6384 H   0  0  0  0  0  0  0  0  0  0  0  0
   -3.9931    2.5833   -0.3077 H   0  0  0  0  0  0  0  0  0  0  0  0
   -3.7646    1.6823    1.1978 H   0  0  0  0  0  0  0  0  0  0  0  0
   -2.0048    3.4371    0.8670 H   0  0  0  0  0  0  0  0  0  0  0  0
   -1.3755    1.7834    1.0606 H   0  0  0  0  0  0  0  0  0  0  0  0
   -1.7526    4.6372   -1.1697 H   0  0  0  0  0  0  0  0  0  0  0  0
   -1.1836    3.8134   -2.6708 H   0  0  0  0  0  0  0  0  0  0  0  0
   -2.7998    3.4451   -2.0449 H   0  0  0  0  0  0  0  0  0  0  0  0
    0.5990    2.2674    0.2152 H   0  0  0  0  0  0  0  0  0  0  0  0
    0.4918    3.8524   -0.5777 H   0  0  0  0  0  0  0  0  0  0  0  0
    0.8419    2.7705   -2.8058 H   0  0  0  0  0  0  0  0  0  0  0  0
    2.1487    2.3511   -1.6693 H   0  0  0  0  0  0  0  0  0  0  0  0
    1.2502    0.4112   -3.0945 H   0  0  0  0  0  0  0  0  0  0  0  0
   -0.3051    0.5613   -2.2584 H   0  0  0  0  0  0  0  0  0  0  0  0
    3.0825   -1.4905    0.8155 H   0  0  0  0  0  0  0  0  0  0  0  0
    5.3669    0.1068   -0.4638 H   0  0  0  0  0  0  0  0  0  0  0  0
    5.2322   -1.6469   -0.1221 H   0  0  0  0  0  0  0  0  0  0  0  0
    6.6245   -1.0797    1.6437 H   0  0  0  0  0  0  0  0  0  0  0  0
    6.1247    0.6414    1.6250 H   0  0  0  0  0  0  0  0  0  0  0  0
    4.5185   -1.6914    2.8341 H   0  0  0  0  0  0  0  0  0  0  0  0
    5.4511   -0.4613    3.7474 H   0  0  0  0  0  0  0  0  0  0  0  0
    3.9075    1.2673    3.3018 H   0  0  0  0  0  0  0  0  0  0  0  0
    2.8350   -0.1597    3.4346 H   0  0  0  0  0  0  0  0  0  0  0  0
    3.5128    1.5583    1.0353 H   0  0  0  0  0  0  0  0  0  0  0  0
    1.9897    0.7330    1.4791 H   0  0  0  0  0  0  0  0  0  0  0  0
    0.9081   -1.4366    0.6083 H   0  0  0  0  0  0  0  0  0  0  0  0
   -0.1624   -0.0398    0.4459 H   0  0  0  0  0  0  0  0  0  0  0  0
    1.0485   -2.8680   -1.7428 H   0  0  0  0  0  0  0  0  0  0  0  0
   -3.8684   -2.2424   -1.5916 H   0  0  0  0  0  0  0  0  0  0  0  0
  1  2  1  0
  2  3  1  0
  3  4  2  0
  3  5  1  0
  5  6  1  0
  6  7  1  0
  7  8  1  0
  8  9  1  0
  9 10  1  0
  9 11  1  0
 11 12  1  0
 12 13  1  0
 13 14  1  0
 14 15  1  0
 15 16  2  0
 15 17  1  0
 17 18  1  0
 18 19  1  0
 19 20  1  0
 20 21  1  0
 21 22  1  0
 14 23  1  0
 23 24  1  0
 24 25  2  0
 25 26  1  0
 26 27  1  0
 26 28  2  0
 28 29  1  0
 28 30  1  0
 30 31  2  0
 31  5  1  0
 22 17  1  0
 31 24  1  0
  1 32  1  0
  1 33  1  0
  1 34  1  0
  2 35  1  0
  2 36  1  0
  6 37  1  0
  6 38  1  0
  7 39  1  0
  7 40  1  0
  8 41  1  0
  8 42  1  0
 10 43  1  0
 10 44  1  0
 10 45  1  0
 11 46  1  0
 11 47  1  0
 12 48  1  0
 12 49  1  0
 13 50  1  0
 13 51  1  0
 17 52  1  0
 18 53  1  0
 18 54  1  0
 19 55  1  0
 19 56  1  0
 20 57  1  0
 20 58  1  0
 21 59  1  0
 21 60  1  0
 22 61  1  0
 22 62  1  0
 23 63  1  0
 23 64  1  0
 25 65  1  0
 30 66  1  0
M  END
$$$$
