
     RDKit          3D

 69 72  0  0  0  0  0  0  0  0999 V2000
   -3.0968   -4.8117    0.4759 C   0  0  0  0  0  0  0  0  0  0  0  0
   -1.8053   -4.3460   -0.1861 C   0  0  0  0  0  0  0  0  0  0  0  0
   -1.7923   -2.8889   -0.3447 N   0  0  0  0  0  0  0  0  0  0  0  0
   -2.3802   -2.2762   -1.5517 C   0  0  0  0  0  0  0  0  0  0  0  0
   -3.7050   -1.5646   -1.2250 C   0  0  0  0  0  0  0  0  0  0  0  0
   -3.5971   -0.1787   -1.5493 O   0  0  0  0  0  0  0  0  0  0  0  0
   -4.2523    0.8531   -0.8567 C   0  0  0  0  0  0  0  0  0  0  0  0
   -5.4211    0.6074   -0.1100 C   0  0  0  0  0  0  0  0  0  0  0  0
   -6.0153    1.6314    0.6330 C   0  0  0  0  0  0  0  0  0  0  0  0
   -5.4472    2.9052    0.6488 C   0  0  0  0  0  0  0  0  0  0  0  0
   -4.2945    3.1663   -0.0977 C   0  0  0  0  0  0  0  0  0  0  0  0
   -3.6992    2.1535   -0.8688 C   0  0  0  0  0  0  0  0  0  0  0  0
   -2.4717    2.4849   -1.6923 C   0  0  0  0  0  0  0  0  0  0  0  0
   -1.1796    2.6006   -0.8550 C   0  0  0  0  0  0  0  0  0  0  0  0
   -0.3989    1.2753   -0.7226 C   0  0  0  0  0  0  0  0  0  0  0  0
   -0.9227    0.3847    0.4209 C   0  0  0  0  0  0  0  0  0  0  0  0
   -0.2335   -1.0220    0.5243 C   0  0  0  0  0  0  0  0  0  0  0  0
    0.7449   -1.0365    1.7510 C   0  0  0  0  0  0  0  0  0  0  0  0
    2.0972   -0.6858    1.3102 N   0  0  0  0  0  0  0  0  0  0  0  0
    2.8012    0.4299    1.8859 C   0  0  0  0  0  0  0  0  0  0  0  0
    2.1552    1.3701    2.4154 O   0  0  0  0  0  0  0  0  0  0  0  0
    4.2984    0.5174    1.8300 C   0  0  0  0  0  0  0  0  0  0  0  0
    4.7303    1.0363    0.5190 N   0  0  0  0  0  0  0  0  0  0  0  0
    6.1620    0.8023    0.2743 C   0  0  0  0  0  0  0  0  0  0  0  0
    6.7016    1.9983   -0.5085 C   0  0  0  0  0  0  0  0  0  0  0  0
    5.5289    2.9529   -0.6489 C   0  0  0  0  0  0  0  0  0  0  0  0
    4.5351    2.4865    0.3948 C   0  0  0  0  0  0  0  0  0  0  0  0
    2.6662   -1.4563    0.1993 C   0  0  0  0  0  0  0  0  0  0  0  0
    1.5447   -2.1796   -0.5555 C   0  0  0  0  0  0  0  0  0  0  0  0
    0.4378   -1.3068   -0.7118 O   0  0  0  0  0  0  0  0  0  0  0  0
   -1.3192   -2.0666    0.7379 C   0  0  0  0  0  0  0  0  0  0  0  0
   -1.8489   -2.1822    1.8747 O   0  0  0  0  0  0  0  0  0  0  0  0
   -3.1012   -5.9181    0.5518 H   0  0  0  0  0  0  0  0  0  0  0  0
   -3.9713   -4.4897   -0.1291 H   0  0  0  0  0  0  0  0  0  0  0  0
   -3.1808   -4.3920    1.5001 H   0  0  0  0  0  0  0  0  0  0  0  0
   -1.7098   -4.8393   -1.1777 H   0  0  0  0  0  0  0  0  0  0  0  0
   -0.9364   -4.6729    0.4268 H   0  0  0  0  0  0  0  0  0  0  0  0
   -1.6624   -1.5433   -1.9831 H   0  0  0  0  0  0  0  0  0  0  0  0
   -2.5514   -3.0405   -2.3425 H   0  0  0  0  0  0  0  0  0  0  0  0
   -3.9389   -1.6859   -0.1480 H   0  0  0  0  0  0  0  0  0  0  0  0
   -4.5381   -2.0069   -1.8143 H   0  0  0  0  0  0  0  0  0  0  0  0
   -5.8781   -0.3727   -0.1004 H   0  0  0  0  0  0  0  0  0  0  0  0
   -6.9117    1.4341    1.2065 H   0  0  0  0  0  0  0  0  0  0  0  0
   -5.9107    3.6961    1.2262 H   0  0  0  0  0  0  0  0  0  0  0  0
   -3.8770    4.1660   -0.0860 H   0  0  0  0  0  0  0  0  0  0  0  0
   -2.3379    1.7605   -2.5248 H   0  0  0  0  0  0  0  0  0  0  0  0
   -2.6518    3.4657   -2.1887 H   0  0  0  0  0  0  0  0  0  0  0  0
   -1.3858    3.0417    0.1374 H   0  0  0  0  0  0  0  0  0  0  0  0
   -0.5051    3.3055   -1.3807 H   0  0  0  0  0  0  0  0  0  0  0  0
    0.6666    1.5139   -0.5049 H   0  0  0  0  0  0  0  0  0  0  0  0
   -0.4322    0.7353   -1.6937 H   0  0  0  0  0  0  0  0  0  0  0  0
   -0.8251    0.9559    1.3693 H   0  0  0  0  0  0  0  0  0  0  0  0
   -2.0117    0.2670    0.3008 H   0  0  0  0  0  0  0  0  0  0  0  0
    0.7923   -2.0592    2.1877 H   0  0  0  0  0  0  0  0  0  0  0  0
    0.4005   -0.3874    2.5847 H   0  0  0  0  0  0  0  0  0  0  0  0
    4.6851    1.1475    2.6636 H   0  0  0  0  0  0  0  0  0  0  0  0
    4.7044   -0.5065    1.9921 H   0  0  0  0  0  0  0  0  0  0  0  0
    6.7397    0.7028    1.2250 H   0  0  0  0  0  0  0  0  0  0  0  0
    6.2790   -0.1325   -0.3146 H   0  0  0  0  0  0  0  0  0  0  0  0
    7.0761    1.6837   -1.5095 H   0  0  0  0  0  0  0  0  0  0  0  0
    7.5322    2.4835    0.0555 H   0  0  0  0  0  0  0  0  0  0  0  0
    5.8380    4.0087   -0.4787 H   0  0  0  0  0  0  0  0  0  0  0  0
    5.0811    2.8537   -1.6608 H   0  0  0  0  0  0  0  0  0  0  0  0
    4.7649    3.0081    1.3506 H   0  0  0  0  0  0  0  0  0  0  0  0
    3.4896    2.7109    0.0848 H   0  0  0  0  0  0  0  0  0  0  0  0
    3.4106   -2.1892    0.5819 H   0  0  0  0  0  0  0  0  0  0  0  0
    3.1694   -0.7687   -0.5130 H   0  0  0  0  0  0  0  0  0  0  0  0
    1.9175   -2.4782   -1.5596 H   0  0  0  0  0  0  0  0  0  0  0  0
    1.2478   -3.1113   -0.0209 H   0  0  0  0  0  0  0  0  0  0  0  0
  1  2  1  0
  2  3  1  0
  3  4  1  0
  4  5  1  0
  5  6  1  0
  6  7  1  0
  7  8  2  0
  8  9  1  0
  9 10  2  0
 10 11  1  0
 11 12  2  0
 12 13  1  0
 13 14  1  0
 14 15  1  0
 15 16  1  0
 16 17  1  0
 17 18  1  0
 18 19  1  0
 19 20  1  0
 20 21  2  0
 20 22  1  0
 22 23  1  0
 23 24  1  0
 24 25  1  0
 25 26  1  0
 26 27  1  0
 19 28  1  0
 28 29  1  0
 29 30  1  0
 17 31  1  0
 31 32  2  0
 31  3  1  0
 12  7  1  0
 30 17  1  0
 27 23  1  0
  1 33  1  0
  1 34  1  0
  1 35  1  0
  2 36  1  0
  2 37  1  0
  4 38  1  0
  4 39  1  0
  5 40  1  0
  5 41  1  0
  8 42  1  0
  9 43  1  0
 10 44  1  0
 11 45  1  0
 13 46  1  0
 13 47  1  0
 14 48  1  0
 14 49  1  0
 15 50  1  0
 15 51  1  0
 16 52  1  0
 16 53  1  0
 18 54  1  0
 18 55  1  0
 22 56  1  0
 22 57  1  0
 24 58  1  0
 24 59  1  0
 25 60  1  0
 25 61  1  0
 26 62  1  0
 26 63  1  0
 27 64  1  0
 27 65  1  0
 28 66  1  0
 28 67  1  0
 29 68  1  0
 29 69  1  0
M  END
$$$$
