
     RDKit          3D

 41 42  0  0  0  0  0  0  0  0999 V2000
   -3.3562   -2.2054    0.3676 C   0  0  0  0  0  0  0  0  0  0  0  0
   -2.6378   -0.8778    0.1131 C   0  0  2  0  0  0  0  0  0  0  0  0
   -3.6230    0.1825   -0.4244 C   0  0  0  0  0  0  0  0  0  0  0  0
   -3.2031    1.6356   -0.1205 C   0  0  0  0  0  0  0  0  0  0  0  0
   -1.8476    2.0464   -0.7357 C   0  0  0  0  0  0  0  0  0  0  0  0
   -0.7384    2.1390    0.3300 C   0  0  0  0  0  0  0  0  0  0  0  0
    0.6705    2.2532   -0.2674 C   0  0  0  0  0  0  0  0  0  0  0  0
    1.1557    0.9572   -0.8618 C   0  0  0  0  0  0  0  0  0  0  0  0
    0.7772    0.6244   -2.0164 O   0  0  0  0  0  0  0  0  0  0  0  0
    2.1643    0.1233   -0.1710 C   0  0  0  0  0  0  0  0  0  0  0  0
    3.5259    0.5057   -0.2356 C   0  0  0  0  0  0  0  0  0  0  0  0
    3.9398    1.6637   -0.8996 O   0  0  0  0  0  0  0  0  0  0  0  0
    4.5055   -0.2876    0.3651 C   0  0  0  0  0  0  0  0  0  0  0  0
    4.1592   -1.4688    1.0226 C   0  0  0  0  0  0  0  0  0  0  0  0
    5.1374   -2.2616    1.6190 O   0  0  0  0  0  0  0  0  0  0  0  0
    2.8229   -1.8609    1.0881 C   0  0  0  0  0  0  0  0  0  0  0  0
    1.8094   -1.0851    0.4968 C   0  0  0  0  0  0  0  0  0  0  0  0
    0.3709   -1.5299    0.6928 C   0  0  0  0  0  0  0  0  0  0  0  0
   -0.3648   -1.6930   -0.6092 C   0  0  0  0  0  0  0  0  0  0  0  0
    0.1699   -2.3656   -1.5303 O   0  0  0  0  0  0  0  0  0  0  0  0
   -1.6061   -1.0895   -0.8563 O   0  0  0  0  0  0  0  0  0  0  0  0
   -2.6333   -2.9599    0.7437 H   0  0  0  0  0  0  0  0  0  0  0  0
   -4.1508   -2.0752    1.1330 H   0  0  0  0  0  0  0  0  0  0  0  0
   -3.8123   -2.5843   -0.5720 H   0  0  0  0  0  0  0  0  0  0  0  0
   -2.2323   -0.5248    1.0806 H   0  0  0  0  0  0  0  0  0  0  0  0
   -3.7548    0.0531   -1.5214 H   0  0  0  0  0  0  0  0  0  0  0  0
   -4.6234    0.0334    0.0390 H   0  0  0  0  0  0  0  0  0  0  0  0
   -3.9903    2.3008   -0.5386 H   0  0  0  0  0  0  0  0  0  0  0  0
   -3.2119    1.8016    0.9796 H   0  0  0  0  0  0  0  0  0  0  0  0
   -1.5718    1.3520   -1.5532 H   0  0  0  0  0  0  0  0  0  0  0  0
   -1.9540    3.0493   -1.2047 H   0  0  0  0  0  0  0  0  0  0  0  0
   -0.7763    1.2775    1.0193 H   0  0  0  0  0  0  0  0  0  0  0  0
   -0.9285    3.0437    0.9481 H   0  0  0  0  0  0  0  0  0  0  0  0
    0.6877    3.0481   -1.0442 H   0  0  0  0  0  0  0  0  0  0  0  0
    1.3695    2.5681    0.5378 H   0  0  0  0  0  0  0  0  0  0  0  0
    3.3029    2.2835   -1.3836 H   0  0  0  0  0  0  0  0  0  0  0  0
    5.5442    0.0144    0.3122 H   0  0  0  0  0  0  0  0  0  0  0  0
    6.1175   -2.0053    1.5909 H   0  0  0  0  0  0  0  0  0  0  0  0
    2.5767   -2.7746    1.6156 H   0  0  0  0  0  0  0  0  0  0  0  0
   -0.1131   -0.8006    1.3609 H   0  0  0  0  0  0  0  0  0  0  0  0
    0.3227   -2.5066    1.2207 H   0  0  0  0  0  0  0  0  0  0  0  0
  1  2  1  0
  2  3  1  0
  3  4  1  0
  4  5  1  0
  5  6  1  0
  6  7  1  0
  7  8  1  0
  8  9  2  0
  8 10  1  0
 10 11  2  0
 11 12  1  0
 11 13  1  0
 13 14  2  0
 14 15  1  0
 14 16  1  0
 16 17  2  0
 17 18  1  0
 18 19  1  0
 19 20  2  0
 19 21  1  0
 21  2  1  0
 17 10  1  0
  1 22  1  0
  1 23  1  0
  1 24  1  0
  2 25  1  1
  3 26  1  0
  3 27  1  0
  4 28  1  0
  4 29  1  0
  5 30  1  0
  5 31  1  0
  6 32  1  0
  6 33  1  0
  7 34  1  0
  7 35  1  0
 12 36  1  0
 13 37  1  0
 15 38  1  0
 16 39  1  0
 18 40  1  0
 18 41  1  0
M  END
$$$$
