
     RDKit          3D

 68 69  0  0  0  0  0  0  0  0999 V2000
   -6.2674   -0.1090   -2.3688 C   0  0  0  0  0  0  0  0  0  0  0  0
   -5.4616   -0.5062   -1.2029 N   0  0  0  0  0  0  0  0  0  0  0  0
   -5.3259   -1.9743   -1.1785 C   0  0  0  0  0  0  0  0  0  0  0  0
   -6.0876   -0.0045    0.0427 C   0  0  0  0  0  0  0  0  0  0  0  0
   -5.0717    0.0947    1.1909 C   0  0  0  0  0  0  0  0  0  0  0  0
   -3.8734    0.9831    0.8239 C   0  0  0  0  0  0  0  0  0  0  0  0
   -2.8994    1.1058    1.9998 C   0  0  0  0  0  0  0  0  0  0  0  0
   -1.6941    1.8339    1.6053 N   0  0  0  0  0  0  0  0  0  0  0  0
   -0.5349    1.8432    2.4538 C   0  0  0  0  0  0  0  0  0  0  0  0
   -0.6869    1.6821    3.6964 O   0  0  0  0  0  0  0  0  0  0  0  0
    0.8629    2.1058    1.9122 C   0  0  0  0  0  0  0  0  0  0  0  0
    1.0200    2.0286    0.3761 C   0  0  0  0  0  0  0  0  0  0  0  0
    0.7086    0.6887   -0.2560 C   0  0  0  0  0  0  0  0  0  0  0  0
   -0.0858   -0.0977    0.3281 O   0  0  0  0  0  0  0  0  0  0  0  0
    1.2403    0.3108   -1.5473 N   0  0  0  0  0  0  0  0  0  0  0  0
    0.9475   -1.0352   -2.0517 C   0  0  0  0  0  0  0  0  0  0  0  0
    2.0364    1.2195   -2.3887 C   0  0  0  0  0  0  0  0  0  0  0  0
    3.4476    0.7245   -2.4874 C   0  0  0  0  0  0  0  0  0  0  0  0
    3.8068    0.0875   -3.5164 O   0  0  0  0  0  0  0  0  0  0  0  0
    4.3763    0.9093   -1.4075 N   0  0  0  0  0  0  0  0  0  0  0  0
    4.8666    2.2632   -1.1317 C   0  0  0  0  0  0  0  0  0  0  0  0
    5.1175   -0.2605   -0.9156 C   0  0  0  0  0  0  0  0  0  0  0  0
    5.1535   -0.3216    0.6201 C   0  0  0  0  0  0  0  0  0  0  0  0
    3.8488   -0.2743    1.2018 O   0  0  0  0  0  0  0  0  0  0  0  0
    2.9945   -1.3764    1.3950 C   0  0  0  0  0  0  0  0  0  0  0  0
    3.2226   -2.6126    0.7550 C   0  0  0  0  0  0  0  0  0  0  0  0
    2.3428   -3.6822    0.9372 C   0  0  0  0  0  0  0  0  0  0  0  0
    1.2355   -3.5446    1.7694 C   0  0  0  0  0  0  0  0  0  0  0  0
    1.0174   -2.3425    2.4430 C   0  0  0  0  0  0  0  0  0  0  0  0
    1.8895   -1.2536    2.2717 C   0  0  0  0  0  0  0  0  0  0  0  0
    1.6616   -0.0375    3.0832 C   0  0  0  0  0  0  0  0  0  0  0  0
    1.3067   -0.1582    4.2889 O   0  0  0  0  0  0  0  0  0  0  0  0
    1.8918    1.2753    2.5582 N   0  0  0  0  0  0  0  0  0  0  0  0
   -7.3070   -0.5010   -2.2914 H   0  0  0  0  0  0  0  0  0  0  0  0
   -5.8044   -0.4866   -3.3062 H   0  0  0  0  0  0  0  0  0  0  0  0
   -6.2999    0.9989   -2.4522 H   0  0  0  0  0  0  0  0  0  0  0  0
   -4.8426   -2.3293   -2.1158 H   0  0  0  0  0  0  0  0  0  0  0  0
   -6.3164   -2.4720   -1.0760 H   0  0  0  0  0  0  0  0  0  0  0  0
   -4.6676   -2.2918   -0.3446 H   0  0  0  0  0  0  0  0  0  0  0  0
   -6.5057    1.0173   -0.1130 H   0  0  0  0  0  0  0  0  0  0  0  0
   -6.9354   -0.6558    0.3566 H   0  0  0  0  0  0  0  0  0  0  0  0
   -5.5882    0.5245    2.0766 H   0  0  0  0  0  0  0  0  0  0  0  0
   -4.7186   -0.9179    1.4777 H   0  0  0  0  0  0  0  0  0  0  0  0
   -4.2299    1.9972    0.5366 H   0  0  0  0  0  0  0  0  0  0  0  0
   -3.3352    0.5377   -0.0416 H   0  0  0  0  0  0  0  0  0  0  0  0
   -2.6088    0.0854    2.3356 H   0  0  0  0  0  0  0  0  0  0  0  0
   -3.3913    1.6348    2.8453 H   0  0  0  0  0  0  0  0  0  0  0  0
   -1.6482    2.2709    0.6584 H   0  0  0  0  0  0  0  0  0  0  0  0
    1.0831    3.1618    2.1824 H   0  0  0  0  0  0  0  0  0  0  0  0
    2.0767    2.2794    0.1721 H   0  0  0  0  0  0  0  0  0  0  0  0
    0.4066    2.8136   -0.1124 H   0  0  0  0  0  0  0  0  0  0  0  0
    1.3823   -1.1939   -3.0620 H   0  0  0  0  0  0  0  0  0  0  0  0
    1.3740   -1.7950   -1.3642 H   0  0  0  0  0  0  0  0  0  0  0  0
   -0.1509   -1.1801   -2.1218 H   0  0  0  0  0  0  0  0  0  0  0  0
    1.5861    1.2610   -3.4046 H   0  0  0  0  0  0  0  0  0  0  0  0
    2.0258    2.2625   -2.0201 H   0  0  0  0  0  0  0  0  0  0  0  0
    4.1721    2.7907   -0.4513 H   0  0  0  0  0  0  0  0  0  0  0  0
    5.8715    2.2373   -0.6616 H   0  0  0  0  0  0  0  0  0  0  0  0
    4.9512    2.8407   -2.0759 H   0  0  0  0  0  0  0  0  0  0  0  0
    6.1592   -0.2256   -1.3044 H   0  0  0  0  0  0  0  0  0  0  0  0
    4.6600   -1.1916   -1.3101 H   0  0  0  0  0  0  0  0  0  0  0  0
    5.7325    0.5434    1.0014 H   0  0  0  0  0  0  0  0  0  0  0  0
    5.6931   -1.2325    0.9550 H   0  0  0  0  0  0  0  0  0  0  0  0
    4.0794   -2.7695    0.1203 H   0  0  0  0  0  0  0  0  0  0  0  0
    2.5220   -4.6226    0.4315 H   0  0  0  0  0  0  0  0  0  0  0  0
    0.5555   -4.3761    1.9112 H   0  0  0  0  0  0  0  0  0  0  0  0
    0.1633   -2.2610    3.1061 H   0  0  0  0  0  0  0  0  0  0  0  0
    2.8490    1.6798    2.6679 H   0  0  0  0  0  0  0  0  0  0  0  0
  1  2  1  0
  2  3  1  0
  2  4  1  0
  4  5  1  0
  5  6  1  0
  6  7  1  0
  7  8  1  0
  8  9  1  0
  9 10  2  0
  9 11  1  0
 11 12  1  0
 12 13  1  0
 13 14  2  0
 13 15  1  0
 15 16  1  0
 15 17  1  0
 17 18  1  0
 18 19  2  0
 18 20  1  0
 20 21  1  0
 20 22  1  0
 22 23  1  0
 23 24  1  0
 24 25  1  0
 25 26  2  0
 26 27  1  0
 27 28  2  0
 28 29  1  0
 29 30  2  0
 30 31  1  0
 31 32  2  0
 31 33  1  0
 33 11  1  0
 30 25  1  0
  1 34  1  0
  1 35  1  0
  1 36  1  0
  3 37  1  0
  3 38  1  0
  3 39  1  0
  4 40  1  0
  4 41  1  0
  5 42  1  0
  5 43  1  0
  6 44  1  0
  6 45  1  0
  7 46  1  0
  7 47  1  0
  8 48  1  0
 11 49  1  0
 12 50  1  0
 12 51  1  0
 16 52  1  0
 16 53  1  0
 16 54  1  0
 17 55  1  0
 17 56  1  0
 21 57  1  0
 21 58  1  0
 21 59  1  0
 22 60  1  0
 22 61  1  0
 23 62  1  0
 23 63  1  0
 26 64  1  0
 27 65  1  0
 28 66  1  0
 29 67  1  0
 33 68  1  0
M  END
$$$$
