
     RDKit          3D

 89 93  0  0  0  0  0  0  0  0999 V2000
   -9.0403   -0.8512   -3.3674 C   0  0  0  0  0  0  0  0  0  0  0  0
   -8.5707   -0.3053   -2.0088 C   0  0  0  0  0  0  0  0  0  0  0  0
   -9.4799    0.8618   -1.5920 C   0  0  0  0  0  0  0  0  0  0  0  0
   -8.5314   -1.4332   -0.9424 C   0  0  0  0  0  0  0  0  0  0  0  0
   -7.4167   -1.2166    0.0165 N   0  0  0  0  0  0  0  0  0  0  0  0
   -7.8422   -0.4378    1.2108 C   0  0  0  0  0  0  0  0  0  0  0  0
   -6.8959    0.7407    1.4595 C   0  0  0  0  0  0  0  0  0  0  0  0
   -6.7000    1.4680    0.2596 O   0  0  0  0  0  0  0  0  0  0  0  0
   -5.5191    2.2481    0.3134 C   0  0  0  0  0  0  0  0  0  0  0  0
   -4.3073    1.3871   -0.0373 C   0  0  0  0  0  0  0  0  0  0  0  0
   -3.1618    2.1700   -0.3310 O   0  0  0  0  0  0  0  0  0  0  0  0
   -1.8330    1.7467   -0.1324 C   0  0  0  0  0  0  0  0  0  0  0  0
   -0.9269    2.7441    0.2444 C   0  0  0  0  0  0  0  0  0  0  0  0
    0.3971    2.4398    0.5564 C   0  0  0  0  0  0  0  0  0  0  0  0
    0.8533    1.1156    0.4964 C   0  0  0  0  0  0  0  0  0  0  0  0
    2.2461    0.7695    0.8733 C   0  0  0  0  0  0  0  0  0  0  0  0
    2.7854   -0.2537    0.3729 O   0  0  0  0  0  0  0  0  0  0  0  0
    2.9780    1.5654    1.8204 N   0  0  0  0  0  0  0  0  0  0  0  0
    4.3408    1.2324    2.2401 C   0  0  0  0  0  0  0  0  0  0  0  0
    5.3648    1.5150    1.1662 C   0  0  0  0  0  0  0  0  0  0  0  0
    5.1271    2.4330    0.1272 C   0  0  0  0  0  0  0  0  0  0  0  0
    6.1214    2.7068   -0.8164 C   0  0  0  0  0  0  0  0  0  0  0  0
    7.3717    2.0965   -0.7163 C   0  0  0  0  0  0  0  0  0  0  0  0
    7.6424    1.2141    0.3402 C   0  0  0  0  0  0  0  0  0  0  0  0
    9.0120    0.6032    0.4920 C   0  0  0  0  0  0  0  0  0  0  0  0
    8.9648   -0.8653    0.2920 N   0  0  0  0  0  0  0  0  0  0  0  0
   10.1616   -1.5613    0.8448 C   0  0  0  0  0  0  0  0  0  0  0  0
   11.1663   -2.0448   -0.2231 C   0  0  0  0  0  0  0  0  0  0  0  0
   11.2140   -1.0937   -1.4161 C   0  0  0  0  0  0  0  0  0  0  0  0
    9.8307   -0.9375   -2.0704 C   0  0  0  0  0  0  0  0  0  0  0  0
    8.6702   -1.2518   -1.1057 C   0  0  0  0  0  0  0  0  0  0  0  0
    6.6326    0.9195    1.2715 C   0  0  0  0  0  0  0  0  0  0  0  0
   -0.0238    0.1153    0.0525 C   0  0  0  0  0  0  0  0  0  0  0  0
   -1.3629    0.4014   -0.2814 C   0  0  0  0  0  0  0  0  0  0  0  0
   -2.1873   -0.7412   -0.8607 C   0  0  0  0  0  0  0  0  0  0  0  0
   -3.0768   -1.4350    0.1515 C   0  0  0  0  0  0  0  0  0  0  0  0
   -2.6356   -1.6983    1.4598 C   0  0  0  0  0  0  0  0  0  0  0  0
   -3.5216   -2.2088    2.4121 C   0  0  0  0  0  0  0  0  0  0  0  0
   -4.8552   -2.4570    2.0745 C   0  0  0  0  0  0  0  0  0  0  0  0
   -5.3020   -2.2418    0.7644 C   0  0  0  0  0  0  0  0  0  0  0  0
   -4.3962   -1.7769   -0.2017 C   0  0  0  0  0  0  0  0  0  0  0  0
   -6.7405   -2.4881    0.3863 C   0  0  0  0  0  0  0  0  0  0  0  0
   -9.0680   -0.0352   -4.1250 H   0  0  0  0  0  0  0  0  0  0  0  0
   -8.3354   -1.6298   -3.7323 H   0  0  0  0  0  0  0  0  0  0  0  0
  -10.0568   -1.2922   -3.2767 H   0  0  0  0  0  0  0  0  0  0  0  0
   -7.5402    0.0908   -2.1515 H   0  0  0  0  0  0  0  0  0  0  0  0
  -10.5143    0.5060   -1.3960 H   0  0  0  0  0  0  0  0  0  0  0  0
   -9.0933    1.3628   -0.6840 H   0  0  0  0  0  0  0  0  0  0  0  0
   -9.5235    1.6253   -2.3968 H   0  0  0  0  0  0  0  0  0  0  0  0
   -9.5137   -1.5343   -0.4255 H   0  0  0  0  0  0  0  0  0  0  0  0
   -8.4079   -2.4036   -1.4744 H   0  0  0  0  0  0  0  0  0  0  0  0
   -8.8666   -0.0278    1.0994 H   0  0  0  0  0  0  0  0  0  0  0  0
   -7.8766   -1.0658    2.1285 H   0  0  0  0  0  0  0  0  0  0  0  0
   -7.3495    1.4079    2.2257 H   0  0  0  0  0  0  0  0  0  0  0  0
   -5.9539    0.3338    1.8831 H   0  0  0  0  0  0  0  0  0  0  0  0
   -5.6107    3.0542   -0.4448 H   0  0  0  0  0  0  0  0  0  0  0  0
   -5.3813    2.7387    1.3054 H   0  0  0  0  0  0  0  0  0  0  0  0
   -4.5651    0.7808   -0.9267 H   0  0  0  0  0  0  0  0  0  0  0  0
   -4.0862    0.7686    0.8505 H   0  0  0  0  0  0  0  0  0  0  0  0
   -1.2659    3.7703    0.3269 H   0  0  0  0  0  0  0  0  0  0  0  0
    1.0592    3.2469    0.8391 H   0  0  0  0  0  0  0  0  0  0  0  0
    2.4922    2.3351    2.3304 H   0  0  0  0  0  0  0  0  0  0  0  0
    4.3816    0.1589    2.5287 H   0  0  0  0  0  0  0  0  0  0  0  0
    4.6046    1.8373    3.1354 H   0  0  0  0  0  0  0  0  0  0  0  0
    4.1786    2.9412    0.0404 H   0  0  0  0  0  0  0  0  0  0  0  0
    5.9238    3.4061   -1.6197 H   0  0  0  0  0  0  0  0  0  0  0  0
    8.1347    2.3232   -1.4500 H   0  0  0  0  0  0  0  0  0  0  0  0
    9.7441    1.0811   -0.1940 H   0  0  0  0  0  0  0  0  0  0  0  0
    9.3468    0.8408    1.5268 H   0  0  0  0  0  0  0  0  0  0  0  0
   10.7051   -0.9290    1.5817 H   0  0  0  0  0  0  0  0  0  0  0  0
    9.8109   -2.4480    1.4111 H   0  0  0  0  0  0  0  0  0  0  0  0
   12.1796   -2.1279    0.2285 H   0  0  0  0  0  0  0  0  0  0  0  0
   10.8742   -3.0572   -0.5778 H   0  0  0  0  0  0  0  0  0  0  0  0
   11.5872   -0.1019   -1.0739 H   0  0  0  0  0  0  0  0  0  0  0  0
   11.9389   -1.4819   -2.1681 H   0  0  0  0  0  0  0  0  0  0  0  0
    9.7247    0.0985   -2.4558 H   0  0  0  0  0  0  0  0  0  0  0  0
    9.7570   -1.6204   -2.9462 H   0  0  0  0  0  0  0  0  0  0  0  0
    7.7400   -0.7608   -1.4650 H   0  0  0  0  0  0  0  0  0  0  0  0
    8.4685   -2.3446   -1.1355 H   0  0  0  0  0  0  0  0  0  0  0  0
    6.8424    0.2383    2.0902 H   0  0  0  0  0  0  0  0  0  0  0  0
    0.3358   -0.9033   -0.0302 H   0  0  0  0  0  0  0  0  0  0  0  0
   -1.5185   -1.5132   -1.3010 H   0  0  0  0  0  0  0  0  0  0  0  0
   -2.7775   -0.3577   -1.7200 H   0  0  0  0  0  0  0  0  0  0  0  0
   -1.6202   -1.4773    1.7569 H   0  0  0  0  0  0  0  0  0  0  0  0
   -3.1811   -2.3865    3.4243 H   0  0  0  0  0  0  0  0  0  0  0  0
   -5.5373   -2.8166    2.8348 H   0  0  0  0  0  0  0  0  0  0  0  0
   -4.7434   -1.6122   -1.2143 H   0  0  0  0  0  0  0  0  0  0  0  0
   -6.7009   -3.1926   -0.4724 H   0  0  0  0  0  0  0  0  0  0  0  0
   -7.2952   -3.0219    1.1912 H   0  0  0  0  0  0  0  0  0  0  0  0
  1  2  1  0
  2  3  1  0
  2  4  1  0
  4  5  1  0
  5  6  1  0
  6  7  1  0
  7  8  1  0
  8  9  1  0
  9 10  1  0
 10 11  1  0
 11 12  1  0
 12 13  2  0
 13 14  1  0
 14 15  2  0
 15 16  1  0
 16 17  2  0
 16 18  1  0
 18 19  1  0
 19 20  1  0
 20 21  2  0
 21 22  1  0
 22 23  2  0
 23 24  1  0
 24 25  1  0
 25 26  1  0
 26 27  1  0
 27 28  1  0
 28 29  1  0
 29 30  1  0
 30 31  1  0
 24 32  2  0
 15 33  1  0
 33 34  2  0
 34 35  1  0
 35 36  1  0
 36 37  1  0
 37 38  2  0
 38 39  1  0
 39 40  2  0
 40 41  1  0
 40 42  1  0
 42  5  1  0
 34 12  1  0
 41 36  2  0
 32 20  1  0
 31 26  1  0
  1 43  1  0
  1 44  1  0
  1 45  1  0
  2 46  1  0
  3 47  1  0
  3 48  1  0
  3 49  1  0
  4 50  1  0
  4 51  1  0
  6 52  1  0
  6 53  1  0
  7 54  1  0
  7 55  1  0
  9 56  1  0
  9 57  1  0
 10 58  1  0
 10 59  1  0
 13 60  1  0
 14 61  1  0
 18 62  1  0
 19 63  1  0
 19 64  1  0
 21 65  1  0
 22 66  1  0
 23 67  1  0
 25 68  1  0
 25 69  1  0
 27 70  1  0
 27 71  1  0
 28 72  1  0
 28 73  1  0
 29 74  1  0
 29 75  1  0
 30 76  1  0
 30 77  1  0
 31 78  1  0
 31 79  1  0
 32 80  1  0
 33 81  1  0
 35 82  1  0
 35 83  1  0
 37 84  1  0
 38 85  1  0
 39 86  1  0
 41 87  1  0
 42 88  1  0
 42 89  1  0
M  END
$$$$
