
     RDKit          3D

 79 81  0  0  0  0  0  0  0  0999 V2000
   -2.9381   -0.7162    4.4418 C   0  0  0  0  0  0  0  0  0  0  0  0
   -1.7487   -0.4403    3.5697 C   0  0  0  0  0  0  0  0  0  0  0  0
   -1.0253    0.5628    3.8322 O   0  0  0  0  0  0  0  0  0  0  0  0
   -1.4100   -1.2985    2.4583 N   0  0  0  0  0  0  0  0  0  0  0  0
   -1.7843   -2.7376    2.4827 C   0  0  0  0  0  0  0  0  0  0  0  0
   -3.1947   -3.0524    1.9256 C   0  0  0  0  0  0  0  0  0  0  0  0
   -3.7317   -1.9722    0.9808 C   0  0  0  0  0  0  0  0  0  0  0  0
   -4.4956   -2.5077   -0.2362 C   0  0  0  0  0  0  0  0  0  0  0  0
   -5.0155   -1.3672   -1.1406 C   0  0  0  0  0  0  0  0  0  0  0  0
   -3.9378   -0.3392   -1.5731 C   0  0  0  0  0  0  0  0  0  0  0  0
   -3.8489    0.8482   -0.5851 C   0  0  0  0  0  0  0  0  0  0  0  0
   -2.4913    1.4663   -0.5971 N   0  0  0  0  0  0  0  0  0  0  0  0
   -2.6151    2.9239   -0.8933 C   0  0  0  0  0  0  0  0  0  0  0  0
   -1.3440    3.5106   -1.5433 C   0  0  0  0  0  0  0  0  0  0  0  0
   -1.1106    2.9005   -2.9397 C   0  0  0  0  0  0  0  0  0  0  0  0
   -1.4616    5.0391   -1.6593 C   0  0  0  0  0  0  0  0  0  0  0  0
   -1.7558    1.2256    0.6919 C   0  0  0  0  0  0  0  0  0  0  0  0
   -0.6319    0.1996    0.5603 C   0  0  0  0  0  0  0  0  0  0  0  0
    0.3640    0.4472   -0.4052 C   0  0  0  0  0  0  0  0  0  0  0  0
    1.5727   -0.2689   -0.4310 C   0  0  0  0  0  0  0  0  0  0  0  0
    2.6356    0.0688   -1.4104 C   0  0  0  0  0  0  0  0  0  0  0  0
    2.5702    1.1467   -2.0657 O   0  0  0  0  0  0  0  0  0  0  0  0
    3.7564   -0.8121   -1.6178 N   0  0  0  0  0  0  0  0  0  0  0  0
    3.4883   -2.0967   -2.2818 C   0  0  0  0  0  0  0  0  0  0  0  0
    4.3211   -3.2408   -1.6953 C   0  0  0  0  0  0  0  0  0  0  0  0
    3.7501   -4.4616   -2.0670 O   0  0  0  0  0  0  0  0  0  0  0  0
    5.1088   -0.2307   -1.6473 C   0  0  0  0  0  0  0  0  0  0  0  0
    5.3513    0.6253   -0.4312 C   0  0  0  0  0  0  0  0  0  0  0  0
    5.4569    0.0319    0.8401 C   0  0  0  0  0  0  0  0  0  0  0  0
    5.6359    0.8257    1.9754 C   0  0  0  0  0  0  0  0  0  0  0  0
    5.7058    2.2170    1.8518 C   0  0  0  0  0  0  0  0  0  0  0  0
    5.5855    2.8125    0.5944 C   0  0  0  0  0  0  0  0  0  0  0  0
    5.4062    2.0201   -0.5444 C   0  0  0  0  0  0  0  0  0  0  0  0
    1.7954   -1.2477    0.5380 C   0  0  0  0  0  0  0  0  0  0  0  0
    0.8127   -1.5444    1.4798 C   0  0  0  0  0  0  0  0  0  0  0  0
   -0.4115   -0.8601    1.5012 C   0  0  0  0  0  0  0  0  0  0  0  0
   -3.0929    0.1147    5.1676 H   0  0  0  0  0  0  0  0  0  0  0  0
   -3.8472   -0.8106    3.8112 H   0  0  0  0  0  0  0  0  0  0  0  0
   -2.7848   -1.6592    5.0098 H   0  0  0  0  0  0  0  0  0  0  0  0
   -1.6985   -3.1333    3.5179 H   0  0  0  0  0  0  0  0  0  0  0  0
   -1.0627   -3.3345    1.8834 H   0  0  0  0  0  0  0  0  0  0  0  0
   -3.9062   -3.1824    2.7663 H   0  0  0  0  0  0  0  0  0  0  0  0
   -3.1466   -4.0291    1.3971 H   0  0  0  0  0  0  0  0  0  0  0  0
   -2.8844   -1.4037    0.5769 H   0  0  0  0  0  0  0  0  0  0  0  0
   -4.3987   -1.2995    1.5669 H   0  0  0  0  0  0  0  0  0  0  0  0
   -5.3654   -3.1077    0.1124 H   0  0  0  0  0  0  0  0  0  0  0  0
   -3.8266   -3.1717   -0.8335 H   0  0  0  0  0  0  0  0  0  0  0  0
   -5.4400   -1.8346   -2.0584 H   0  0  0  0  0  0  0  0  0  0  0  0
   -5.8457   -0.8506   -0.6184 H   0  0  0  0  0  0  0  0  0  0  0  0
   -2.9491   -0.8471   -1.6870 H   0  0  0  0  0  0  0  0  0  0  0  0
   -4.2054    0.0735   -2.5714 H   0  0  0  0  0  0  0  0  0  0  0  0
   -4.1622    0.5521    0.4357 H   0  0  0  0  0  0  0  0  0  0  0  0
   -4.6678    1.5628   -0.8397 H   0  0  0  0  0  0  0  0  0  0  0  0
   -2.8798    3.4839    0.0317 H   0  0  0  0  0  0  0  0  0  0  0  0
   -3.4353    3.1172   -1.6202 H   0  0  0  0  0  0  0  0  0  0  0  0
   -0.4660    3.3092   -0.8983 H   0  0  0  0  0  0  0  0  0  0  0  0
   -1.0587    1.7918   -2.8883 H   0  0  0  0  0  0  0  0  0  0  0  0
   -0.1611    3.2795   -3.3763 H   0  0  0  0  0  0  0  0  0  0  0  0
   -1.9501    3.1662   -3.6235 H   0  0  0  0  0  0  0  0  0  0  0  0
   -1.6093    5.4898   -0.6550 H   0  0  0  0  0  0  0  0  0  0  0  0
   -0.5318    5.4649   -2.0791 H   0  0  0  0  0  0  0  0  0  0  0  0
   -2.3181    5.3259   -2.3155 H   0  0  0  0  0  0  0  0  0  0  0  0
   -2.4421    0.9667    1.5231 H   0  0  0  0  0  0  0  0  0  0  0  0
   -1.2661    2.1561    1.0541 H   0  0  0  0  0  0  0  0  0  0  0  0
    0.2272    1.2347   -1.1228 H   0  0  0  0  0  0  0  0  0  0  0  0
    3.6990   -2.0009   -3.3662 H   0  0  0  0  0  0  0  0  0  0  0  0
    2.4076   -2.3576   -2.1711 H   0  0  0  0  0  0  0  0  0  0  0  0
    5.3580   -3.1956   -2.0851 H   0  0  0  0  0  0  0  0  0  0  0  0
    4.3535   -3.1616   -0.5872 H   0  0  0  0  0  0  0  0  0  0  0  0
    4.2812   -5.1654   -1.6056 H   0  0  0  0  0  0  0  0  0  0  0  0
    5.8849   -1.0213   -1.6670 H   0  0  0  0  0  0  0  0  0  0  0  0
    5.2266    0.3616   -2.5801 H   0  0  0  0  0  0  0  0  0  0  0  0
    5.3846   -1.0455    0.9543 H   0  0  0  0  0  0  0  0  0  0  0  0
    5.7069    0.3656    2.9537 H   0  0  0  0  0  0  0  0  0  0  0  0
    5.8396    2.8296    2.7357 H   0  0  0  0  0  0  0  0  0  0  0  0
    5.6222    3.8934    0.5056 H   0  0  0  0  0  0  0  0  0  0  0  0
    5.2993    2.4994   -1.5105 H   0  0  0  0  0  0  0  0  0  0  0  0
    2.7300   -1.7879    0.5852 H   0  0  0  0  0  0  0  0  0  0  0  0
    1.0179   -2.3158    2.2128 H   0  0  0  0  0  0  0  0  0  0  0  0
  1  2  1  0
  2  3  2  0
  2  4  1  0
  4  5  1  0
  5  6  1  0
  6  7  1  0
  7  8  1  0
  8  9  1  0
  9 10  1  0
 10 11  1  0
 11 12  1  0
 12 13  1  0
 13 14  1  0
 14 15  1  0
 14 16  1  0
 12 17  1  0
 17 18  1  0
 18 19  2  0
 19 20  1  0
 20 21  1  0
 21 22  2  0
 21 23  1  0
 23 24  1  0
 24 25  1  0
 25 26  1  0
 23 27  1  0
 27 28  1  0
 28 29  2  0
 29 30  1  0
 30 31  2  0
 31 32  1  0
 32 33  2  0
 20 34  2  0
 34 35  1  0
 35 36  2  0
 36  4  1  0
 36 18  1  0
 33 28  1  0
  1 37  1  0
  1 38  1  0
  1 39  1  0
  5 40  1  0
  5 41  1  0
  6 42  1  0
  6 43  1  0
  7 44  1  0
  7 45  1  0
  8 46  1  0
  8 47  1  0
  9 48  1  0
  9 49  1  0
 10 50  1  0
 10 51  1  0
 11 52  1  0
 11 53  1  0
 13 54  1  0
 13 55  1  0
 14 56  1  0
 15 57  1  0
 15 58  1  0
 15 59  1  0
 16 60  1  0
 16 61  1  0
 16 62  1  0
 17 63  1  0
 17 64  1  0
 19 65  1  0
 24 66  1  0
 24 67  1  0
 25 68  1  0
 25 69  1  0
 26 70  1  0
 27 71  1  0
 27 72  1  0
 29 73  1  0
 30 74  1  0
 31 75  1  0
 32 76  1  0
 33 77  1  0
 34 78  1  0
 35 79  1  0
M  END
$$$$
