
     RDKit          3D

 77 79  0  0  0  0  0  0  0  0999 V2000
   -1.2250   -3.0556   -4.1001 C   0  0  0  0  0  0  0  0  0  0  0  0
   -2.1619   -3.3012   -2.9540 C   0  0  0  0  0  0  0  0  0  0  0  0
   -3.1607   -4.0479   -3.1441 O   0  0  0  0  0  0  0  0  0  0  0  0
   -1.9286   -2.7114   -1.6550 N   0  0  0  0  0  0  0  0  0  0  0  0
   -2.9622   -2.7785   -0.6038 C   0  0  0  0  0  0  0  0  0  0  0  0
   -2.4122   -3.3564    0.7123 C   0  0  0  0  0  0  0  0  0  0  0  0
   -3.4565   -3.3757    1.8463 C   0  0  0  0  0  0  0  0  0  0  0  0
   -4.1274   -2.0198    2.1681 C   0  0  0  0  0  0  0  0  0  0  0  0
   -3.1684   -0.9364    2.7259 C   0  0  0  0  0  0  0  0  0  0  0  0
   -3.1124    0.3509    1.8609 C   0  0  0  0  0  0  0  0  0  0  0  0
   -1.9285    0.3625    0.8726 C   0  0  0  0  0  0  0  0  0  0  0  0
   -2.2732    1.0516   -0.4044 N   0  0  0  0  0  0  0  0  0  0  0  0
   -1.9228    2.5074   -0.4671 C   0  0  0  0  0  0  0  0  0  0  0  0
   -2.2027    3.2701    0.8542 C   0  0  0  0  0  0  0  0  0  0  0  0
   -1.9181    4.7857    0.7136 C   0  0  0  0  0  0  0  0  0  0  0  0
   -1.8802    5.2378   -0.6297 O   0  0  0  0  0  0  0  0  0  0  0  0
   -2.9617    4.6962   -1.3516 C   0  0  0  0  0  0  0  0  0  0  0  0
   -2.7184    3.2023   -1.6133 C   0  0  0  0  0  0  0  0  0  0  0  0
   -1.8702    0.2971   -1.6398 C   0  0  0  0  0  0  0  0  0  0  0  0
   -0.6295   -0.5729   -1.4908 C   0  0  0  0  0  0  0  0  0  0  0  0
    0.6205    0.0546   -1.3585 C   0  0  0  0  0  0  0  0  0  0  0  0
    1.7818   -0.6883   -1.0998 C   0  0  0  0  0  0  0  0  0  0  0  0
    3.0770    0.0045   -0.9277 C   0  0  0  0  0  0  0  0  0  0  0  0
    3.2891    1.0789   -1.5524 O   0  0  0  0  0  0  0  0  0  0  0  0
    4.0715   -0.5091   -0.0265 N   0  0  0  0  0  0  0  0  0  0  0  0
    5.3639    0.1517    0.1960 C   0  0  0  0  0  0  0  0  0  0  0  0
    6.4711   -0.9201    0.2081 C   0  0  0  0  0  0  0  0  0  0  0  0
    6.3611   -1.7303    1.3475 O   0  0  0  0  0  0  0  0  0  0  0  0
    5.3193    0.9989    1.5045 C   0  0  0  0  0  0  0  0  0  0  0  0
    4.2063    2.0582    1.4418 C   0  0  0  0  0  0  0  0  0  0  0  0
    6.6644    1.6914    1.7856 C   0  0  0  0  0  0  0  0  0  0  0  0
    1.6933   -2.0841   -1.0050 C   0  0  0  0  0  0  0  0  0  0  0  0
    0.4674   -2.7258   -1.1787 C   0  0  0  0  0  0  0  0  0  0  0  0
   -0.7006   -1.9900   -1.4210 C   0  0  0  0  0  0  0  0  0  0  0  0
   -1.6418   -3.4733   -5.0407 H   0  0  0  0  0  0  0  0  0  0  0  0
   -1.0756   -1.9639   -4.2384 H   0  0  0  0  0  0  0  0  0  0  0  0
   -0.2495   -3.5422   -3.8986 H   0  0  0  0  0  0  0  0  0  0  0  0
   -3.8186   -3.4111   -0.9233 H   0  0  0  0  0  0  0  0  0  0  0  0
   -3.3718   -1.7666   -0.4452 H   0  0  0  0  0  0  0  0  0  0  0  0
   -2.0873   -4.4023    0.5222 H   0  0  0  0  0  0  0  0  0  0  0  0
   -1.5120   -2.8119    1.0543 H   0  0  0  0  0  0  0  0  0  0  0  0
   -2.9712   -3.7633    2.7689 H   0  0  0  0  0  0  0  0  0  0  0  0
   -4.2529   -4.1016    1.5724 H   0  0  0  0  0  0  0  0  0  0  0  0
   -4.7109   -1.6595    1.2970 H   0  0  0  0  0  0  0  0  0  0  0  0
   -4.8958   -2.2240    2.9466 H   0  0  0  0  0  0  0  0  0  0  0  0
   -3.5366   -0.6458    3.7345 H   0  0  0  0  0  0  0  0  0  0  0  0
   -2.1480   -1.3438    2.8943 H   0  0  0  0  0  0  0  0  0  0  0  0
   -4.0717    0.5034    1.3194 H   0  0  0  0  0  0  0  0  0  0  0  0
   -3.0007    1.2130    2.5527 H   0  0  0  0  0  0  0  0  0  0  0  0
   -1.0163    0.7917    1.3370 H   0  0  0  0  0  0  0  0  0  0  0  0
   -1.6670   -0.6825    0.6982 H   0  0  0  0  0  0  0  0  0  0  0  0
   -0.8368    2.6185   -0.6748 H   0  0  0  0  0  0  0  0  0  0  0  0
   -1.5708    2.8950    1.6861 H   0  0  0  0  0  0  0  0  0  0  0  0
   -3.2727    3.1317    1.1320 H   0  0  0  0  0  0  0  0  0  0  0  0
   -2.6731    5.3684    1.2881 H   0  0  0  0  0  0  0  0  0  0  0  0
   -0.9284    5.0077    1.1702 H   0  0  0  0  0  0  0  0  0  0  0  0
   -3.0487    5.2312   -2.3216 H   0  0  0  0  0  0  0  0  0  0  0  0
   -3.9266    4.8509   -0.8139 H   0  0  0  0  0  0  0  0  0  0  0  0
   -3.7026    2.7033   -1.7563 H   0  0  0  0  0  0  0  0  0  0  0  0
   -2.1490    3.1187   -2.5642 H   0  0  0  0  0  0  0  0  0  0  0  0
   -1.6740    0.9725   -2.4938 H   0  0  0  0  0  0  0  0  0  0  0  0
   -2.7355   -0.2991   -1.9867 H   0  0  0  0  0  0  0  0  0  0  0  0
    0.6886    1.1308   -1.4340 H   0  0  0  0  0  0  0  0  0  0  0  0
    3.8065   -1.2897    0.6152 H   0  0  0  0  0  0  0  0  0  0  0  0
    5.5891    0.8300   -0.6578 H   0  0  0  0  0  0  0  0  0  0  0  0
    7.4726   -0.4367    0.1799 H   0  0  0  0  0  0  0  0  0  0  0  0
    6.3758   -1.5480   -0.7068 H   0  0  0  0  0  0  0  0  0  0  0  0
    7.0758   -2.4130    1.2692 H   0  0  0  0  0  0  0  0  0  0  0  0
    5.0910    0.3279    2.3636 H   0  0  0  0  0  0  0  0  0  0  0  0
    3.2083    1.5751    1.3899 H   0  0  0  0  0  0  0  0  0  0  0  0
    4.3435    2.7176    0.5570 H   0  0  0  0  0  0  0  0  0  0  0  0
    4.2147    2.6879    2.3576 H   0  0  0  0  0  0  0  0  0  0  0  0
    6.5736    2.3903    2.6461 H   0  0  0  0  0  0  0  0  0  0  0  0
    7.4374    0.9434    2.0560 H   0  0  0  0  0  0  0  0  0  0  0  0
    7.0036    2.2637    0.8948 H   0  0  0  0  0  0  0  0  0  0  0  0
    2.5771   -2.6844   -0.8306 H   0  0  0  0  0  0  0  0  0  0  0  0
    0.4226   -3.8065   -1.1304 H   0  0  0  0  0  0  0  0  0  0  0  0
  1  2  1  0
  2  3  2  0
  2  4  1  0
  4  5  1  0
  5  6  1  0
  6  7  1  0
  7  8  1  0
  8  9  1  0
  9 10  1  0
 10 11  1  0
 11 12  1  0
 12 13  1  0
 13 14  1  0
 14 15  1  0
 15 16  1  0
 16 17  1  0
 17 18  1  0
 12 19  1  0
 19 20  1  0
 20 21  2  0
 21 22  1  0
 22 23  1  0
 23 24  2  0
 23 25  1  0
 25 26  1  0
 26 27  1  0
 27 28  1  0
 26 29  1  0
 29 30  1  0
 29 31  1  0
 22 32  2  0
 32 33  1  0
 33 34  2  0
 34  4  1  0
 18 13  1  0
 34 20  1  0
  1 35  1  0
  1 36  1  0
  1 37  1  0
  5 38  1  0
  5 39  1  0
  6 40  1  0
  6 41  1  0
  7 42  1  0
  7 43  1  0
  8 44  1  0
  8 45  1  0
  9 46  1  0
  9 47  1  0
 10 48  1  0
 10 49  1  0
 11 50  1  0
 11 51  1  0
 13 52  1  0
 14 53  1  0
 14 54  1  0
 15 55  1  0
 15 56  1  0
 17 57  1  0
 17 58  1  0
 18 59  1  0
 18 60  1  0
 19 61  1  0
 19 62  1  0
 21 63  1  0
 25 64  1  0
 26 65  1  0
 27 66  1  0
 27 67  1  0
 28 68  1  0
 29 69  1  0
 30 70  1  0
 30 71  1  0
 30 72  1  0
 31 73  1  0
 31 74  1  0
 31 75  1  0
 32 76  1  0
 33 77  1  0
M  END
$$$$
