
     RDKit          3D

 79 82  0  0  0  0  0  0  0  0999 V2000
   -6.0763   -4.5624   -2.7420 C   0  0  0  0  0  0  0  0  0  0  0  0
   -4.6542   -4.5178   -2.6484 O   0  0  0  0  0  0  0  0  0  0  0  0
   -3.9537   -3.9891   -1.5539 C   0  0  0  0  0  0  0  0  0  0  0  0
   -4.6099   -3.4994   -0.4081 C   0  0  0  0  0  0  0  0  0  0  0  0
   -3.8738   -2.9497    0.6420 C   0  0  0  0  0  0  0  0  0  0  0  0
   -2.4735   -2.8580    0.5612 C   0  0  0  0  0  0  0  0  0  0  0  0
   -1.6691   -2.2250    1.6872 C   0  0  0  0  0  0  0  0  0  0  0  0
   -1.5671   -0.7397    1.6139 N   0  0  0  0  0  0  0  0  0  0  0  0
   -2.9023   -0.1155    1.7971 C   0  0  0  0  0  0  0  0  0  0  0  0
   -2.7817    1.2372    2.4964 C   0  0  0  0  0  0  0  0  0  0  0  0
   -3.6506    2.2131    1.9333 O   0  0  0  0  0  0  0  0  0  0  0  0
   -3.4382    2.8188    0.6876 C   0  0  0  0  0  0  0  0  0  0  0  0
   -4.2810    2.4568   -0.3736 C   0  0  0  0  0  0  0  0  0  0  0  0
   -4.1794    3.0985   -1.6153 C   0  0  0  0  0  0  0  0  0  0  0  0
   -3.2116    4.0856   -1.8138 C   0  0  0  0  0  0  0  0  0  0  0  0
   -2.3508    4.4443   -0.7747 C   0  0  0  0  0  0  0  0  0  0  0  0
   -2.4271    3.8010    0.4764 C   0  0  0  0  0  0  0  0  0  0  0  0
   -1.4467    4.2135    1.5547 C   0  0  0  0  0  0  0  0  0  0  0  0
    0.0438    4.0280    1.1609 C   0  0  0  0  0  0  0  0  0  0  0  0
    0.3831    2.7553    0.3458 C   0  0  0  0  0  0  0  0  0  0  0  0
    0.8151    1.5589    1.2269 C   0  0  0  0  0  0  0  0  0  0  0  0
    0.6429    0.1400    0.5654 C   0  0  0  0  0  0  0  0  0  0  0  0
    1.3763   -0.9287    1.4081 C   0  0  0  0  0  0  0  0  0  0  0  0
    2.8872   -0.6864    1.5422 C   0  0  0  0  0  0  0  0  0  0  0  0
    3.5337   -0.2417    0.2942 N   0  0  0  0  0  0  0  0  0  0  0  0
    4.9748   -0.1706    0.2820 C   0  0  0  0  0  0  0  0  0  0  0  0
    5.5957    0.0305    1.3619 O   0  0  0  0  0  0  0  0  0  0  0  0
    5.7389   -0.2745   -1.0160 C   0  0  0  0  0  0  0  0  0  0  0  0
    7.1964   -0.3643   -0.7844 N   0  0  0  0  0  0  0  0  0  0  0  0
    7.5707   -1.7119   -0.3133 C   0  0  0  0  0  0  0  0  0  0  0  0
    7.9288   -0.0625   -2.0271 C   0  0  0  0  0  0  0  0  0  0  0  0
    2.8031    0.3704   -0.8356 C   0  0  0  0  0  0  0  0  0  0  0  0
    1.3015    0.0849   -0.8341 C   0  0  0  0  0  0  0  0  0  0  0  0
   -0.8837   -0.2409    0.3798 C   0  0  0  0  0  0  0  0  0  0  0  0
   -1.8182   -3.3960   -0.5641 C   0  0  0  0  0  0  0  0  0  0  0  0
   -2.5568   -3.9477   -1.6127 C   0  0  0  0  0  0  0  0  0  0  0  0
   -6.4892   -5.2054   -1.9381 H   0  0  0  0  0  0  0  0  0  0  0  0
   -6.3620   -4.9880   -3.7225 H   0  0  0  0  0  0  0  0  0  0  0  0
   -6.4899   -3.5324   -2.6651 H   0  0  0  0  0  0  0  0  0  0  0  0
   -5.6862   -3.5403   -0.3175 H   0  0  0  0  0  0  0  0  0  0  0  0
   -4.3976   -2.6041    1.5202 H   0  0  0  0  0  0  0  0  0  0  0  0
   -2.1173   -2.5169    2.6593 H   0  0  0  0  0  0  0  0  0  0  0  0
   -0.6615   -2.6786    1.7151 H   0  0  0  0  0  0  0  0  0  0  0  0
   -3.5514   -0.7369    2.4515 H   0  0  0  0  0  0  0  0  0  0  0  0
   -3.4316   -0.0325    0.8231 H   0  0  0  0  0  0  0  0  0  0  0  0
   -1.7514    1.5895    2.4586 H   0  0  0  0  0  0  0  0  0  0  0  0
   -3.0386    1.1195    3.5700 H   0  0  0  0  0  0  0  0  0  0  0  0
   -5.0457    1.7045   -0.2255 H   0  0  0  0  0  0  0  0  0  0  0  0
   -4.8319    2.8144   -2.4299 H   0  0  0  0  0  0  0  0  0  0  0  0
   -3.1462    4.5997   -2.7677 H   0  0  0  0  0  0  0  0  0  0  0  0
   -1.6041    5.2075   -0.9499 H   0  0  0  0  0  0  0  0  0  0  0  0
   -1.6190    5.2881    1.7571 H   0  0  0  0  0  0  0  0  0  0  0  0
   -1.6536    3.7241    2.5276 H   0  0  0  0  0  0  0  0  0  0  0  0
    0.3626    4.9095    0.5683 H   0  0  0  0  0  0  0  0  0  0  0  0
    0.6482    4.0520    2.0901 H   0  0  0  0  0  0  0  0  0  0  0  0
    1.2479    3.0064   -0.3028 H   0  0  0  0  0  0  0  0  0  0  0  0
   -0.4252    2.4988   -0.3523 H   0  0  0  0  0  0  0  0  0  0  0  0
    1.8819    1.7429    1.4588 H   0  0  0  0  0  0  0  0  0  0  0  0
    0.3237    1.5704    2.2154 H   0  0  0  0  0  0  0  0  0  0  0  0
    1.2487   -1.9189    0.9223 H   0  0  0  0  0  0  0  0  0  0  0  0
    0.9369   -0.9796    2.4292 H   0  0  0  0  0  0  0  0  0  0  0  0
    3.3541   -1.6434    1.8697 H   0  0  0  0  0  0  0  0  0  0  0  0
    3.0733    0.0618    2.3454 H   0  0  0  0  0  0  0  0  0  0  0  0
    5.3690   -1.1475   -1.6027 H   0  0  0  0  0  0  0  0  0  0  0  0
    5.4992    0.6432   -1.5989 H   0  0  0  0  0  0  0  0  0  0  0  0
    8.6554   -1.7444   -0.0835 H   0  0  0  0  0  0  0  0  0  0  0  0
    7.3409   -2.4956   -1.0734 H   0  0  0  0  0  0  0  0  0  0  0  0
    7.0365   -1.9632    0.6251 H   0  0  0  0  0  0  0  0  0  0  0  0
    7.8387   -0.8928   -2.7685 H   0  0  0  0  0  0  0  0  0  0  0  0
    7.5553    0.8769   -2.4937 H   0  0  0  0  0  0  0  0  0  0  0  0
    9.0013    0.1012   -1.7979 H   0  0  0  0  0  0  0  0  0  0  0  0
    3.1954   -0.0285   -1.7949 H   0  0  0  0  0  0  0  0  0  0  0  0
    2.9760    1.4724   -0.8320 H   0  0  0  0  0  0  0  0  0  0  0  0
    1.1518   -0.9302   -1.2684 H   0  0  0  0  0  0  0  0  0  0  0  0
    0.7989    0.7870   -1.5351 H   0  0  0  0  0  0  0  0  0  0  0  0
   -0.9788   -0.9764   -0.4343 H   0  0  0  0  0  0  0  0  0  0  0  0
   -1.4208    0.6354   -0.0366 H   0  0  0  0  0  0  0  0  0  0  0  0
   -0.7361   -3.3704   -0.6345 H   0  0  0  0  0  0  0  0  0  0  0  0
   -2.0438   -4.3342   -2.4810 H   0  0  0  0  0  0  0  0  0  0  0  0
  1  2  1  0
  2  3  1  0
  3  4  2  0
  4  5  1  0
  5  6  2  0
  6  7  1  0
  7  8  1  0
  8  9  1  0
  9 10  1  0
 10 11  1  0
 11 12  1  0
 12 13  2  0
 13 14  1  0
 14 15  2  0
 15 16  1  0
 16 17  2  0
 17 18  1  0
 18 19  1  0
 19 20  1  0
 20 21  1  0
 21 22  1  0
 22 23  1  0
 23 24  1  0
 24 25  1  0
 25 26  1  0
 26 27  2  0
 26 28  1  0
 28 29  1  0
 29 30  1  0
 29 31  1  0
 25 32  1  0
 32 33  1  0
 22 34  1  0
  6 35  1  0
 35 36  2  0
 36  3  1  0
 34  8  1  0
 17 12  1  0
 33 22  1  0
  1 37  1  0
  1 38  1  0
  1 39  1  0
  4 40  1  0
  5 41  1  0
  7 42  1  0
  7 43  1  0
  9 44  1  0
  9 45  1  0
 10 46  1  0
 10 47  1  0
 13 48  1  0
 14 49  1  0
 15 50  1  0
 16 51  1  0
 18 52  1  0
 18 53  1  0
 19 54  1  0
 19 55  1  0
 20 56  1  0
 20 57  1  0
 21 58  1  0
 21 59  1  0
 23 60  1  0
 23 61  1  0
 24 62  1  0
 24 63  1  0
 28 64  1  0
 28 65  1  0
 30 66  1  0
 30 67  1  0
 30 68  1  0
 31 69  1  0
 31 70  1  0
 31 71  1  0
 32 72  1  0
 32 73  1  0
 33 74  1  0
 33 75  1  0
 34 76  1  0
 34 77  1  0
 35 78  1  0
 36 79  1  0
M  END
$$$$
