
     RDKit          3D

 61 63  0  0  0  0  0  0  0  0999 V2000
   -3.4210   -4.2745   -0.8971 C   0  0  0  0  0  0  0  0  0  0  0  0
   -3.1661   -3.2177    0.1759 C   0  0  0  0  0  0  0  0  0  0  0  0
   -3.1858   -1.8248   -0.4028 C   0  0  0  0  0  0  0  0  0  0  0  0
   -4.1237   -1.5005   -1.1824 O   0  0  0  0  0  0  0  0  0  0  0  0
   -2.1767   -0.8512   -0.0514 N   0  0  0  0  0  0  0  0  0  0  0  0
   -2.0467    0.3732   -0.8537 C   0  0  0  0  0  0  0  0  0  0  0  0
   -2.9523    1.5024   -0.3312 C   0  0  0  0  0  0  0  0  0  0  0  0
   -2.3048    2.8853   -0.5329 C   0  0  0  0  0  0  0  0  0  0  0  0
   -1.3447    3.1482    0.5667 N   0  0  0  0  0  0  0  0  0  0  0  0
   -1.9558    3.9840    1.6155 C   0  0  0  0  0  0  0  0  0  0  0  0
   -0.0684    3.7402    0.1020 C   0  0  0  0  0  0  0  0  0  0  0  0
    0.8958    2.6576   -0.4163 C   0  0  0  0  0  0  0  0  0  0  0  0
    1.1617    1.5545    0.6319 C   0  0  0  0  0  0  0  0  0  0  0  0
    1.5979    0.2994   -0.0137 N   0  0  0  0  0  0  0  0  0  0  0  0
    2.8599    0.3014   -0.7076 C   0  0  0  0  0  0  0  0  0  0  0  0
    3.8449    0.8962   -0.1934 O   0  0  0  0  0  0  0  0  0  0  0  0
    3.0051   -0.3368   -2.0327 C   0  0  0  0  0  0  0  0  0  0  0  0
    1.7911   -0.5708   -3.1538 S   0  0  0  0  0  0  0  0  0  0  0  0
    2.7022   -1.2518   -4.3601 N   0  0  0  0  0  0  0  0  0  0  0  0
    3.9605   -1.3021   -3.9316 N   0  0  0  0  0  0  0  0  0  0  0  0
    4.1672   -0.7969   -2.6752 C   0  0  0  0  0  0  0  0  0  0  0  0
    5.5376   -0.8225   -2.0564 C   0  0  0  0  0  0  0  0  0  0  0  0
    5.6499   -1.9478   -1.0308 C   0  0  0  0  0  0  0  0  0  0  0  0
    0.8402   -0.9732    0.0791 C   0  0  0  0  0  0  0  0  0  0  0  0
   -0.0638   -1.0482    1.2930 C   0  0  0  0  0  0  0  0  0  0  0  0
    0.5430   -1.1766    2.5545 C   0  0  0  0  0  0  0  0  0  0  0  0
   -0.2271   -1.2074    3.7181 C   0  0  0  0  0  0  0  0  0  0  0  0
    0.3798   -1.3256    4.9254 F   0  0  0  0  0  0  0  0  0  0  0  0
   -1.6165   -1.1099    3.6393 C   0  0  0  0  0  0  0  0  0  0  0  0
   -2.3655   -1.1436    4.7695 F   0  0  0  0  0  0  0  0  0  0  0  0
   -2.2381   -0.9805    2.3966 C   0  0  0  0  0  0  0  0  0  0  0  0
   -1.4811   -0.9502    1.2119 C   0  0  0  0  0  0  0  0  0  0  0  0
   -4.4314   -4.1394   -1.3427 H   0  0  0  0  0  0  0  0  0  0  0  0
   -3.3665   -5.2857   -0.4418 H   0  0  0  0  0  0  0  0  0  0  0  0
   -2.6503   -4.2023   -1.6949 H   0  0  0  0  0  0  0  0  0  0  0  0
   -3.9465   -3.2909    0.9655 H   0  0  0  0  0  0  0  0  0  0  0  0
   -2.1802   -3.4313    0.6443 H   0  0  0  0  0  0  0  0  0  0  0  0
   -2.2828    0.1651   -1.9203 H   0  0  0  0  0  0  0  0  0  0  0  0
   -1.0013    0.7000   -0.8439 H   0  0  0  0  0  0  0  0  0  0  0  0
   -3.9211    1.4628   -0.8768 H   0  0  0  0  0  0  0  0  0  0  0  0
   -3.1808    1.3569    0.7474 H   0  0  0  0  0  0  0  0  0  0  0  0
   -1.8142    2.9140   -1.5325 H   0  0  0  0  0  0  0  0  0  0  0  0
   -3.1044    3.6613   -0.5704 H   0  0  0  0  0  0  0  0  0  0  0  0
   -2.1331    5.0186    1.2453 H   0  0  0  0  0  0  0  0  0  0  0  0
   -1.2919    4.0250    2.5073 H   0  0  0  0  0  0  0  0  0  0  0  0
   -2.9216    3.5433    1.9457 H   0  0  0  0  0  0  0  0  0  0  0  0
    0.4519    4.2626    0.9375 H   0  0  0  0  0  0  0  0  0  0  0  0
   -0.2496    4.5006   -0.6911 H   0  0  0  0  0  0  0  0  0  0  0  0
    1.8628    3.1405   -0.6808 H   0  0  0  0  0  0  0  0  0  0  0  0
    0.4978    2.2255   -1.3574 H   0  0  0  0  0  0  0  0  0  0  0  0
    1.9440    1.9012    1.3424 H   0  0  0  0  0  0  0  0  0  0  0  0
    0.2555    1.3929    1.2430 H   0  0  0  0  0  0  0  0  0  0  0  0
    6.2984   -0.9842   -2.8525 H   0  0  0  0  0  0  0  0  0  0  0  0
    5.7696    0.1526   -1.5794 H   0  0  0  0  0  0  0  0  0  0  0  0
    5.4497   -2.9303   -1.5154 H   0  0  0  0  0  0  0  0  0  0  0  0
    6.6777   -1.9756   -0.6133 H   0  0  0  0  0  0  0  0  0  0  0  0
    4.9280   -1.7953   -0.2004 H   0  0  0  0  0  0  0  0  0  0  0  0
    0.2747   -1.1552   -0.8543 H   0  0  0  0  0  0  0  0  0  0  0  0
    1.5617   -1.8174    0.1499 H   0  0  0  0  0  0  0  0  0  0  0  0
    1.6220   -1.2412    2.6333 H   0  0  0  0  0  0  0  0  0  0  0  0
   -3.3169   -0.9037    2.3502 H   0  0  0  0  0  0  0  0  0  0  0  0
  1  2  1  0
  2  3  1  0
  3  4  2  0
  3  5  1  0
  5  6  1  0
  6  7  1  0
  7  8  1  0
  8  9  1  0
  9 10  1  0
  9 11  1  0
 11 12  1  0
 12 13  1  0
 13 14  1  0
 14 15  1  0
 15 16  2  0
 15 17  1  0
 17 18  1  0
 18 19  1  0
 19 20  2  0
 20 21  1  0
 21 22  1  0
 22 23  1  0
 14 24  1  0
 24 25  1  0
 25 26  2  0
 26 27  1  0
 27 28  1  0
 27 29  2  0
 29 30  1  0
 29 31  1  0
 31 32  2  0
 32  5  1  0
 21 17  2  0
 32 25  1  0
  1 33  1  0
  1 34  1  0
  1 35  1  0
  2 36  1  0
  2 37  1  0
  6 38  1  0
  6 39  1  0
  7 40  1  0
  7 41  1  0
  8 42  1  0
  8 43  1  0
 10 44  1  0
 10 45  1  0
 10 46  1  0
 11 47  1  0
 11 48  1  0
 12 49  1  0
 12 50  1  0
 13 51  1  0
 13 52  1  0
 22 53  1  0
 22 54  1  0
 23 55  1  0
 23 56  1  0
 23 57  1  0
 24 58  1  0
 24 59  1  0
 26 60  1  0
 31 61  1  0
M  END
$$$$
