
     RDKit          3D

 83 87  0  0  0  0  0  0  0  0999 V2000
   -5.1026    0.8607    1.7281 O   0  0  0  0  0  0  0  0  0  0  0  0
   -5.0407    0.4789    0.5275 C   0  0  0  0  0  0  0  0  0  0  0  0
   -3.7789    0.6991   -0.2580 C   0  0  0  0  0  0  0  0  0  0  0  0
   -2.6136    0.3325    0.5716 N   0  0  0  0  0  0  0  0  0  0  0  0
   -1.3840    1.0615    0.2049 C   0  0  0  0  0  0  0  0  0  0  0  0
   -1.4770    2.5178    0.5678 C   0  0  0  0  0  0  0  0  0  0  0  0
   -1.8887    2.9040    1.8549 C   0  0  0  0  0  0  0  0  0  0  0  0
   -1.8919    4.2550    2.2133 C   0  0  0  0  0  0  0  0  0  0  0  0
   -1.4665    5.2255    1.2990 C   0  0  0  0  0  0  0  0  0  0  0  0
   -1.0437    4.8463    0.0225 C   0  0  0  0  0  0  0  0  0  0  0  0
   -1.0471    3.4973   -0.3425 C   0  0  0  0  0  0  0  0  0  0  0  0
   -2.4220   -1.1359    0.7248 C   0  0  0  0  0  0  0  0  0  0  0  0
   -1.8761   -1.8559   -0.5107 C   0  0  0  0  0  0  0  0  0  0  0  0
   -2.7685   -2.4824   -1.4303 C   0  0  0  0  0  0  0  0  0  0  0  0
   -2.2376   -3.1056   -2.5806 C   0  0  0  0  0  0  0  0  0  0  0  0
   -0.8714   -3.1333   -2.8166 C   0  0  0  0  0  0  0  0  0  0  0  0
    0.0046   -2.5829   -1.8959 C   0  0  0  0  0  0  0  0  0  0  0  0
   -0.4710   -1.9795   -0.7280 C   0  0  0  0  0  0  0  0  0  0  0  0
    0.5446   -1.5335    0.2458 C   0  0  0  0  0  0  0  0  0  0  0  0
    0.5425   -1.9986    1.4158 O   0  0  0  0  0  0  0  0  0  0  0  0
    1.5496   -0.5901   -0.1574 N   0  0  0  0  0  0  0  0  0  0  0  0
    2.4438    0.0682    0.7983 C   0  0  0  0  0  0  0  0  0  0  0  0
    2.6082    1.5609    0.4279 C   0  0  0  0  0  0  0  0  0  0  0  0
    3.9577    2.0976    0.9213 C   0  0  0  0  0  0  0  0  0  0  0  0
    5.1123    1.3841    0.3101 N   0  0  0  0  0  0  0  0  0  0  0  0
    6.2970    1.4721    1.1956 C   0  0  0  0  0  0  0  0  0  0  0  0
    7.5685    1.2171    0.4273 C   0  0  0  0  0  0  0  0  0  0  0  0
    8.0024    2.1373   -0.5393 C   0  0  0  0  0  0  0  0  0  0  0  0
    9.1778    1.9040   -1.2591 C   0  0  0  0  0  0  0  0  0  0  0  0
    9.9291    0.7500   -1.0199 C   0  0  0  0  0  0  0  0  0  0  0  0
    9.5006   -0.1751   -0.0646 C   0  0  0  0  0  0  0  0  0  0  0  0
    8.3266    0.0560    0.6596 C   0  0  0  0  0  0  0  0  0  0  0  0
    4.8156   -0.0209   -0.0769 C   0  0  0  0  0  0  0  0  0  0  0  0
    3.7923   -0.6783    0.8514 C   0  0  0  0  0  0  0  0  0  0  0  0
   -4.1658   -2.4953   -1.1856 O   0  0  0  0  0  0  0  0  0  0  0  0
   -5.0613   -3.4494   -1.7797 C   0  0  0  0  0  0  0  0  0  0  0  0
   -6.5399   -3.1210   -1.5304 C   0  0  0  0  0  0  0  0  0  0  0  0
   -7.0291   -3.3831   -0.0959 C   0  0  0  0  0  0  0  0  0  0  0  0
   -6.5822   -2.3367    0.9440 C   0  0  0  0  0  0  0  0  0  0  0  0
   -7.1333   -0.9175    0.6857 C   0  0  0  0  0  0  0  0  0  0  0  0
   -6.1794   -0.1274   -0.0891 N   0  0  0  0  0  0  0  0  0  0  0  0
   -3.7573    1.7782   -0.5334 H   0  0  0  0  0  0  0  0  0  0  0  0
   -3.7904    0.1174   -1.2011 H   0  0  0  0  0  0  0  0  0  0  0  0
   -1.1542    0.9211   -0.8804 H   0  0  0  0  0  0  0  0  0  0  0  0
   -0.5426    0.6829    0.8096 H   0  0  0  0  0  0  0  0  0  0  0  0
   -2.1957    2.1588    2.5798 H   0  0  0  0  0  0  0  0  0  0  0  0
   -2.2124    4.5511    3.2041 H   0  0  0  0  0  0  0  0  0  0  0  0
   -1.4549    6.2692    1.5843 H   0  0  0  0  0  0  0  0  0  0  0  0
   -0.6949    5.5968   -0.6806 H   0  0  0  0  0  0  0  0  0  0  0  0
   -0.6976    3.2157   -1.3280 H   0  0  0  0  0  0  0  0  0  0  0  0
   -3.3735   -1.6039    1.0382 H   0  0  0  0  0  0  0  0  0  0  0  0
   -1.7697   -1.3179    1.6004 H   0  0  0  0  0  0  0  0  0  0  0  0
   -2.8674   -3.5729   -3.3187 H   0  0  0  0  0  0  0  0  0  0  0  0
   -0.4874   -3.6074   -3.7092 H   0  0  0  0  0  0  0  0  0  0  0  0
    1.0662   -2.6649   -2.0730 H   0  0  0  0  0  0  0  0  0  0  0  0
    1.6585   -0.3839   -1.1755 H   0  0  0  0  0  0  0  0  0  0  0  0
    1.9961    0.0232    1.8136 H   0  0  0  0  0  0  0  0  0  0  0  0
    1.7817    2.1515    0.8801 H   0  0  0  0  0  0  0  0  0  0  0  0
    2.5660    1.7007   -0.6747 H   0  0  0  0  0  0  0  0  0  0  0  0
    3.9756    2.0181    2.0340 H   0  0  0  0  0  0  0  0  0  0  0  0
    4.0285    3.1765    0.6601 H   0  0  0  0  0  0  0  0  0  0  0  0
    6.3736    2.4920    1.6345 H   0  0  0  0  0  0  0  0  0  0  0  0
    6.1989    0.7691    2.0587 H   0  0  0  0  0  0  0  0  0  0  0  0
    7.4305    3.0341   -0.7326 H   0  0  0  0  0  0  0  0  0  0  0  0
    9.5055    2.6171   -2.0040 H   0  0  0  0  0  0  0  0  0  0  0  0
   10.8441    0.5774   -1.5655 H   0  0  0  0  0  0  0  0  0  0  0  0
   10.0831   -1.0665    0.1181 H   0  0  0  0  0  0  0  0  0  0  0  0
    8.0085   -0.6743    1.3891 H   0  0  0  0  0  0  0  0  0  0  0  0
    4.4060   -0.0186   -1.1061 H   0  0  0  0  0  0  0  0  0  0  0  0
    5.7325   -0.6432   -0.1212 H   0  0  0  0  0  0  0  0  0  0  0  0
    4.1900   -0.6603    1.8864 H   0  0  0  0  0  0  0  0  0  0  0  0
    3.6647   -1.7476    0.5746 H   0  0  0  0  0  0  0  0  0  0  0  0
   -4.8239   -4.4742   -1.3990 H   0  0  0  0  0  0  0  0  0  0  0  0
   -4.9466   -3.4535   -2.8819 H   0  0  0  0  0  0  0  0  0  0  0  0
   -7.1360   -3.7866   -2.1969 H   0  0  0  0  0  0  0  0  0  0  0  0
   -6.7720   -2.0934   -1.8631 H   0  0  0  0  0  0  0  0  0  0  0  0
   -8.1437   -3.4070   -0.1092 H   0  0  0  0  0  0  0  0  0  0  0  0
   -6.6944   -4.3942    0.2324 H   0  0  0  0  0  0  0  0  0  0  0  0
   -6.9616   -2.6656    1.9362 H   0  0  0  0  0  0  0  0  0  0  0  0
   -5.4801   -2.3298    1.0199 H   0  0  0  0  0  0  0  0  0  0  0  0
   -7.3251   -0.4170    1.6663 H   0  0  0  0  0  0  0  0  0  0  0  0
   -8.1090   -0.9548    0.1590 H   0  0  0  0  0  0  0  0  0  0  0  0
   -6.2204   -0.1372   -1.1291 H   0  0  0  0  0  0  0  0  0  0  0  0
  1  2  2  0
  2  3  1  0
  3  4  1  0
  4  5  1  0
  5  6  1  0
  6  7  2  0
  7  8  1  0
  8  9  2  0
  9 10  1  0
 10 11  2  0
  4 12  1  0
 12 13  1  0
 13 14  2  0
 14 15  1  0
 15 16  2  0
 16 17  1  0
 17 18  2  0
 18 19  1  0
 19 20  2  0
 19 21  1  0
 21 22  1  0
 22 23  1  0
 23 24  1  0
 24 25  1  0
 25 26  1  0
 26 27  1  0
 27 28  2  0
 28 29  1  0
 29 30  2  0
 30 31  1  0
 31 32  2  0
 25 33  1  0
 33 34  1  0
 14 35  1  0
 35 36  1  0
 36 37  1  0
 37 38  1  0
 38 39  1  0
 39 40  1  0
 40 41  1  0
 41  2  1  0
 11  6  1  0
 18 13  1  0
 34 22  1  0
 32 27  1  0
  3 42  1  0
  3 43  1  0
  5 44  1  0
  5 45  1  0
  7 46  1  0
  8 47  1  0
  9 48  1  0
 10 49  1  0
 11 50  1  0
 12 51  1  0
 12 52  1  0
 15 53  1  0
 16 54  1  0
 17 55  1  0
 21 56  1  0
 22 57  1  0
 23 58  1  0
 23 59  1  0
 24 60  1  0
 24 61  1  0
 26 62  1  0
 26 63  1  0
 28 64  1  0
 29 65  1  0
 30 66  1  0
 31 67  1  0
 32 68  1  0
 33 69  1  0
 33 70  1  0
 34 71  1  0
 34 72  1  0
 36 73  1  0
 36 74  1  0
 37 75  1  0
 37 76  1  0
 38 77  1  0
 38 78  1  0
 39 79  1  0
 39 80  1  0
 40 81  1  0
 40 82  1  0
 41 83  1  0
M  END
$$$$
