
     RDKit          3D

 70 72  0  0  0  0  0  0  0  0999 V2000
   -3.1266    4.1869   -1.6113 C   0  0  0  0  0  0  0  0  0  0  0  0
   -2.7035    2.9693   -2.4468 C   0  0  0  0  0  0  0  0  0  0  0  0
   -3.8824    2.4825   -3.3073 C   0  0  0  0  0  0  0  0  0  0  0  0
   -2.0688    1.8536   -1.5628 C   0  0  0  0  0  0  0  0  0  0  0  0
   -3.1034    1.0362   -0.7629 C   0  0  0  0  0  0  0  0  0  0  0  0
   -2.4207    0.2880    0.2352 O   0  0  0  0  0  0  0  0  0  0  0  0
   -3.0467   -0.4501    1.2435 C   0  0  0  0  0  0  0  0  0  0  0  0
   -2.7144   -0.1362    2.5672 C   0  0  0  0  0  0  0  0  0  0  0  0
   -3.2881   -0.8326    3.6309 C   0  0  0  0  0  0  0  0  0  0  0  0
   -4.1967   -1.8617    3.3815 C   0  0  0  0  0  0  0  0  0  0  0  0
   -4.9192   -2.7372    4.7184 Cl  0  0  0  0  0  0  0  0  0  0  0  0
   -4.5233   -2.2001    2.0658 C   0  0  0  0  0  0  0  0  0  0  0  0
   -3.9440   -1.5155    0.9847 C   0  0  0  0  0  0  0  0  0  0  0  0
   -4.3014   -1.9674   -0.3724 C   0  0  0  0  0  0  0  0  0  0  0  0
   -5.4768   -1.7672   -0.7808 O   0  0  0  0  0  0  0  0  0  0  0  0
   -3.4170   -2.7715   -1.1695 N   0  0  0  0  0  0  0  0  0  0  0  0
   -1.9854   -2.5116   -1.3026 C   0  0  0  0  0  0  0  0  0  0  0  0
   -1.1669   -3.1274   -0.1517 C   0  0  0  0  0  0  0  0  0  0  0  0
   -0.0174   -2.2128    0.3104 C   0  0  0  0  0  0  0  0  0  0  0  0
    0.9803   -1.8568   -0.8115 C   0  0  0  0  0  0  0  0  0  0  0  0
    1.5720   -0.5237   -0.5907 N   0  0  0  0  0  0  0  0  0  0  0  0
    2.7388   -0.4181    0.2420 C   0  0  0  0  0  0  0  0  0  0  0  0
    2.7046    0.3103    1.2705 O   0  0  0  0  0  0  0  0  0  0  0  0
    3.9974   -1.1718   -0.0941 C   0  0  0  0  0  0  0  0  0  0  0  0
    5.2051   -0.2376   -0.2442 C   0  0  0  0  0  0  0  0  0  0  0  0
    5.6282    0.2996    1.0498 N   0  0  0  0  0  0  0  0  0  0  0  0
    5.6599    1.7132    1.3806 C   0  0  0  0  0  0  0  0  0  0  0  0
    6.1836    1.7952    2.8270 C   0  0  0  0  0  0  0  0  0  0  0  0
    6.7518    0.4121    3.1799 C   0  0  0  0  0  0  0  0  0  0  0  0
    6.3011   -0.4324    2.0565 C   0  0  0  0  0  0  0  0  0  0  0  0
    6.5274   -1.6686    1.9766 O   0  0  0  0  0  0  0  0  0  0  0  0
    0.7832    0.6997   -0.8356 C   0  0  0  0  0  0  0  0  0  0  0  0
    0.1411    0.6906   -2.1998 C   0  0  0  0  0  0  0  0  0  0  0  0
    0.8573    0.4226   -3.2025 O   0  0  0  0  0  0  0  0  0  0  0  0
   -1.2594    0.9530   -2.3973 N   0  0  0  0  0  0  0  0  0  0  0  0
   -3.4817    5.0030   -2.2777 H   0  0  0  0  0  0  0  0  0  0  0  0
   -2.2625    4.5760   -1.0314 H   0  0  0  0  0  0  0  0  0  0  0  0
   -3.9441    3.9301   -0.9073 H   0  0  0  0  0  0  0  0  0  0  0  0
   -1.9136    3.3272   -3.1451 H   0  0  0  0  0  0  0  0  0  0  0  0
   -3.5806    1.6257   -3.9445 H   0  0  0  0  0  0  0  0  0  0  0  0
   -4.7441    2.1799   -2.6746 H   0  0  0  0  0  0  0  0  0  0  0  0
   -4.2189    3.2990   -3.9824 H   0  0  0  0  0  0  0  0  0  0  0  0
   -1.4036    2.3644   -0.8328 H   0  0  0  0  0  0  0  0  0  0  0  0
   -3.8317    1.7106   -0.2656 H   0  0  0  0  0  0  0  0  0  0  0  0
   -3.6539    0.3574   -1.4453 H   0  0  0  0  0  0  0  0  0  0  0  0
   -2.0114    0.6620    2.7706 H   0  0  0  0  0  0  0  0  0  0  0  0
   -3.0254   -0.5714    4.6479 H   0  0  0  0  0  0  0  0  0  0  0  0
   -5.2177   -3.0129    1.8845 H   0  0  0  0  0  0  0  0  0  0  0  0
   -3.8553   -3.3800   -1.8978 H   0  0  0  0  0  0  0  0  0  0  0  0
   -1.6293   -2.9496   -2.2611 H   0  0  0  0  0  0  0  0  0  0  0  0
   -1.8217   -1.4247   -1.3874 H   0  0  0  0  0  0  0  0  0  0  0  0
   -0.7519   -4.1066   -0.4759 H   0  0  0  0  0  0  0  0  0  0  0  0
   -1.8212   -3.3262    0.7241 H   0  0  0  0  0  0  0  0  0  0  0  0
    0.5355   -2.7189    1.1315 H   0  0  0  0  0  0  0  0  0  0  0  0
   -0.4515   -1.2966    0.7524 H   0  0  0  0  0  0  0  0  0  0  0  0
    1.7680   -2.6391   -0.8405 H   0  0  0  0  0  0  0  0  0  0  0  0
    0.5085   -1.8866   -1.8127 H   0  0  0  0  0  0  0  0  0  0  0  0
    4.1886   -1.9358    0.6886 H   0  0  0  0  0  0  0  0  0  0  0  0
    3.8649   -1.7033   -1.0604 H   0  0  0  0  0  0  0  0  0  0  0  0
    4.9495    0.5931   -0.9384 H   0  0  0  0  0  0  0  0  0  0  0  0
    6.0497   -0.8005   -0.6962 H   0  0  0  0  0  0  0  0  0  0  0  0
    4.6461    2.1579    1.2960 H   0  0  0  0  0  0  0  0  0  0  0  0
    6.3560    2.2386    0.6923 H   0  0  0  0  0  0  0  0  0  0  0  0
    5.3430    2.0390    3.5135 H   0  0  0  0  0  0  0  0  0  0  0  0
    6.9645    2.5815    2.9217 H   0  0  0  0  0  0  0  0  0  0  0  0
    7.8622    0.4367    3.2108 H   0  0  0  0  0  0  0  0  0  0  0  0
    6.3426    0.0369    4.1418 H   0  0  0  0  0  0  0  0  0  0  0  0
    0.0322    0.8095   -0.0327 H   0  0  0  0  0  0  0  0  0  0  0  0
    1.4449    1.5915   -0.7881 H   0  0  0  0  0  0  0  0  0  0  0  0
   -1.7058    0.5196   -3.2357 H   0  0  0  0  0  0  0  0  0  0  0  0
  1  2  1  0
  2  3  1  0
  2  4  1  0
  4  5  1  0
  5  6  1  0
  6  7  1  0
  7  8  2  0
  8  9  1  0
  9 10  2  0
 10 11  1  0
 10 12  1  0
 12 13  2  0
 13 14  1  0
 14 15  2  0
 14 16  1  0
 16 17  1  0
 17 18  1  0
 18 19  1  0
 19 20  1  0
 20 21  1  0
 21 22  1  0
 22 23  2  0
 22 24  1  0
 24 25  1  0
 25 26  1  0
 26 27  1  0
 27 28  1  0
 28 29  1  0
 29 30  1  0
 30 31  2  0
 21 32  1  0
 32 33  1  0
 33 34  2  0
 33 35  1  0
 35  4  1  0
 13  7  1  0
 30 26  1  0
  1 36  1  0
  1 37  1  0
  1 38  1  0
  2 39  1  0
  3 40  1  0
  3 41  1  0
  3 42  1  0
  4 43  1  0
  5 44  1  0
  5 45  1  0
  8 46  1  0
  9 47  1  0
 12 48  1  0
 16 49  1  0
 17 50  1  0
 17 51  1  0
 18 52  1  0
 18 53  1  0
 19 54  1  0
 19 55  1  0
 20 56  1  0
 20 57  1  0
 24 58  1  0
 24 59  1  0
 25 60  1  0
 25 61  1  0
 27 62  1  0
 27 63  1  0
 28 64  1  0
 28 65  1  0
 29 66  1  0
 29 67  1  0
 32 68  1  0
 32 69  1  0
 35 70  1  0
M  END
$$$$
