
     RDKit          3D

 76 79  0  0  0  0  0  0  0  0999 V2000
    9.6749    0.5921    0.5689 C   0  0  0  0  0  0  0  0  0  0  0  0
    8.1878    0.4835    0.7101 C   0  0  0  0  0  0  0  0  0  0  0  0
    7.3432    1.0078   -0.2731 C   0  0  0  0  0  0  0  0  0  0  0  0
    5.9570    0.9214   -0.1092 C   0  0  0  0  0  0  0  0  0  0  0  0
    5.4275    0.3065    1.0322 C   0  0  0  0  0  0  0  0  0  0  0  0
    3.9778    0.2711    1.2729 C   0  0  0  0  0  0  0  0  0  0  0  0
    3.4767    1.1277    2.0525 O   0  0  0  0  0  0  0  0  0  0  0  0
    3.1520   -0.7897    0.7557 N   0  0  0  0  0  0  0  0  0  0  0  0
    2.4057   -1.6144    1.7243 C   0  0  0  0  0  0  0  0  0  0  0  0
    0.8828   -1.4626    1.5801 C   0  0  0  0  0  0  0  0  0  0  0  0
    0.4250   -0.0033    1.7462 C   0  0  0  0  0  0  0  0  0  0  0  0
   -1.1176    0.1737    1.7447 C   0  0  0  0  0  0  0  0  0  0  0  0
   -1.8094    0.5348    0.3789 C   0  0  0  0  0  0  0  0  0  0  0  0
   -3.2072    1.1597    0.6478 C   0  0  0  0  0  0  0  0  0  0  0  0
   -4.2245    0.1334    1.1580 C   0  0  0  0  0  0  0  0  0  0  0  0
   -4.3811   -0.9626    0.1824 N   0  0  0  0  0  0  0  0  0  0  0  0
   -5.4405   -1.8988    0.6112 C   0  0  0  0  0  0  0  0  0  0  0  0
   -6.8105   -1.2958    0.4152 C   0  0  0  0  0  0  0  0  0  0  0  0
   -7.1349   -0.6435   -0.7898 C   0  0  0  0  0  0  0  0  0  0  0  0
   -8.4131   -0.1102   -0.9816 C   0  0  0  0  0  0  0  0  0  0  0  0
   -9.3859   -0.2466    0.0121 C   0  0  0  0  0  0  0  0  0  0  0  0
   -9.0755   -0.9026    1.2105 C   0  0  0  0  0  0  0  0  0  0  0  0
   -7.7955   -1.4324    1.4111 C   0  0  0  0  0  0  0  0  0  0  0  0
   -3.1011   -1.6755    0.0057 C   0  0  0  0  0  0  0  0  0  0  0  0
   -2.0227   -0.7162   -0.5256 C   0  0  0  0  0  0  0  0  0  0  0  0
   -0.9833    1.5757   -0.3584 C   0  0  0  0  0  0  0  0  0  0  0  0
   -0.8084    2.7152    0.1690 O   0  0  0  0  0  0  0  0  0  0  0  0
   -0.3664    1.2551   -1.5820 O   0  0  0  0  0  0  0  0  0  0  0  0
    0.3673    2.1946   -2.3671 C   0  0  0  0  0  0  0  0  0  0  0  0
    1.6004    1.5305   -3.0122 C   0  0  0  0  0  0  0  0  0  0  0  0
    2.2813    2.5015   -3.7640 O   0  0  0  0  0  0  0  0  0  0  0  0
    2.5921    0.9290   -1.9751 C   0  0  0  0  0  0  0  0  0  0  0  0
    2.6869    1.7580   -0.8446 O   0  0  0  0  0  0  0  0  0  0  0  0
    2.1998   -0.5054   -1.5505 C   0  0  0  0  0  0  0  0  0  0  0  0
    3.2460   -1.2079   -0.6574 C   0  0  0  0  0  0  0  0  0  0  0  0
    6.3081   -0.1873    2.0063 C   0  0  0  0  0  0  0  0  0  0  0  0
    7.6523   -0.0938    1.8221 N   0  0  0  0  0  0  0  0  0  0  0  0
    9.9773    1.6648    0.5740 H   0  0  0  0  0  0  0  0  0  0  0  0
    9.9948    0.1275   -0.3861 H   0  0  0  0  0  0  0  0  0  0  0  0
   10.1801    0.0754    1.4141 H   0  0  0  0  0  0  0  0  0  0  0  0
    7.7547    1.4908   -1.1483 H   0  0  0  0  0  0  0  0  0  0  0  0
    5.3032    1.3364   -0.8639 H   0  0  0  0  0  0  0  0  0  0  0  0
    2.6820   -2.6854    1.5964 H   0  0  0  0  0  0  0  0  0  0  0  0
    2.6894   -1.3423    2.7673 H   0  0  0  0  0  0  0  0  0  0  0  0
    0.5684   -1.8841    0.6088 H   0  0  0  0  0  0  0  0  0  0  0  0
    0.4029   -2.0830    2.3662 H   0  0  0  0  0  0  0  0  0  0  0  0
    0.9139    0.6402    0.9944 H   0  0  0  0  0  0  0  0  0  0  0  0
    0.7991    0.3457    2.7346 H   0  0  0  0  0  0  0  0  0  0  0  0
   -1.3334    0.9934    2.4648 H   0  0  0  0  0  0  0  0  0  0  0  0
   -1.5874   -0.7226    2.2014 H   0  0  0  0  0  0  0  0  0  0  0  0
   -3.1316    1.9917    1.3872 H   0  0  0  0  0  0  0  0  0  0  0  0
   -3.6119    1.5967   -0.2957 H   0  0  0  0  0  0  0  0  0  0  0  0
   -3.9185   -0.2572    2.1532 H   0  0  0  0  0  0  0  0  0  0  0  0
   -5.1907    0.6635    1.2963 H   0  0  0  0  0  0  0  0  0  0  0  0
   -5.4035   -2.8265   -0.0023 H   0  0  0  0  0  0  0  0  0  0  0  0
   -5.2897   -2.2072    1.6710 H   0  0  0  0  0  0  0  0  0  0  0  0
   -6.3923   -0.5392   -1.5758 H   0  0  0  0  0  0  0  0  0  0  0  0
   -8.6522    0.4038   -1.9022 H   0  0  0  0  0  0  0  0  0  0  0  0
  -10.3761    0.1681   -0.1383 H   0  0  0  0  0  0  0  0  0  0  0  0
   -9.8250   -1.0023    1.9863 H   0  0  0  0  0  0  0  0  0  0  0  0
   -7.5733   -1.9458    2.3380 H   0  0  0  0  0  0  0  0  0  0  0  0
   -2.7793   -2.1584    0.9521 H   0  0  0  0  0  0  0  0  0  0  0  0
   -3.2271   -2.4858   -0.7454 H   0  0  0  0  0  0  0  0  0  0  0  0
   -1.0797   -1.2708   -0.6674 H   0  0  0  0  0  0  0  0  0  0  0  0
   -2.3460   -0.3843   -1.5391 H   0  0  0  0  0  0  0  0  0  0  0  0
    0.6910    3.0694   -1.7602 H   0  0  0  0  0  0  0  0  0  0  0  0
   -0.3057    2.5793   -3.1640 H   0  0  0  0  0  0  0  0  0  0  0  0
    1.2579    0.7220   -3.7008 H   0  0  0  0  0  0  0  0  0  0  0  0
    1.7737    2.6394   -4.6053 H   0  0  0  0  0  0  0  0  0  0  0  0
    3.5932    0.8568   -2.4645 H   0  0  0  0  0  0  0  0  0  0  0  0
    3.1147    2.6028   -1.1467 H   0  0  0  0  0  0  0  0  0  0  0  0
    1.2287   -0.4871   -1.0383 H   0  0  0  0  0  0  0  0  0  0  0  0
    2.0698   -1.1229   -2.4606 H   0  0  0  0  0  0  0  0  0  0  0  0
    3.0697   -2.3025   -0.7239 H   0  0  0  0  0  0  0  0  0  0  0  0
    4.2680   -1.0419   -1.0587 H   0  0  0  0  0  0  0  0  0  0  0  0
    5.9244   -0.6413    2.9093 H   0  0  0  0  0  0  0  0  0  0  0  0
  1  2  1  0
  2  3  2  0
  3  4  1  0
  4  5  2  0
  5  6  1  0
  6  7  2  0
  6  8  1  0
  8  9  1  0
  9 10  1  0
 10 11  1  0
 11 12  1  0
 12 13  1  0
 13 14  1  0
 14 15  1  0
 15 16  1  0
 16 17  1  0
 17 18  1  0
 18 19  2  0
 19 20  1  0
 20 21  2  0
 21 22  1  0
 22 23  2  0
 16 24  1  0
 24 25  1  0
 13 26  1  0
 26 27  2  0
 26 28  1  0
 28 29  1  0
 29 30  1  0
 30 31  1  0
 30 32  1  0
 32 33  1  0
 32 34  1  0
 34 35  1  0
  5 36  1  0
 36 37  2  0
 37  2  1  0
 35  8  1  0
 25 13  1  0
 23 18  1  0
  1 38  1  0
  1 39  1  0
  1 40  1  0
  3 41  1  0
  4 42  1  0
  9 43  1  0
  9 44  1  0
 10 45  1  0
 10 46  1  0
 11 47  1  0
 11 48  1  0
 12 49  1  0
 12 50  1  0
 14 51  1  0
 14 52  1  0
 15 53  1  0
 15 54  1  0
 17 55  1  0
 17 56  1  0
 19 57  1  0
 20 58  1  0
 21 59  1  0
 22 60  1  0
 23 61  1  0
 24 62  1  0
 24 63  1  0
 25 64  1  0
 25 65  1  0
 29 66  1  0
 29 67  1  0
 30 68  1  0
 31 69  1  0
 32 70  1  0
 33 71  1  0
 34 72  1  0
 34 73  1  0
 35 74  1  0
 35 75  1  0
 36 76  1  0
M  END
$$$$
