
     RDKit          3D

 59 62  0  0  0  0  0  0  0  0999 V2000
    6.4820   -1.0934   -0.3819 C   0  0  0  0  0  0  0  0  0  0  0  0
    5.0540   -0.9975   -1.4408 S   0  0  0  0  0  6  0  0  0  0  0  0
    4.5189   -2.3797   -1.6928 O   0  0  0  0  0  0  0  0  0  0  0  0
    5.4621   -0.3830   -2.7497 O   0  0  0  0  0  0  0  0  0  0  0  0
    3.8246   -0.0070   -0.7099 N   0  0  0  0  0  0  0  0  0  0  0  0
    3.3149   -0.5987    0.5488 C   0  0  0  0  0  0  0  0  0  0  0  0
    3.7973    0.2707    1.7208 C   0  0  0  0  0  0  0  0  0  0  0  0
    3.2243    1.7045    1.6638 C   0  0  0  0  0  0  0  0  0  0  0  0
    1.8941    1.8057    0.8940 C   0  0  0  0  0  0  0  0  0  0  0  0
    1.1229    0.5625    1.0300 N   0  0  0  0  0  0  0  0  0  0  0  0
   -0.1164    0.5627    1.7750 C   0  0  0  0  0  0  0  0  0  0  0  0
   -0.3802   -0.3988    2.5478 O   0  0  0  0  0  0  0  0  0  0  0  0
   -1.0999    1.7013    1.6699 C   0  0  0  0  0  0  0  0  0  0  0  0
   -2.4131    1.2625    2.0312 O   0  0  0  0  0  0  0  0  0  0  0  0
   -3.5462    1.4747    1.2321 C   0  0  0  0  0  0  0  0  0  0  0  0
   -4.4785    2.4357    1.6416 C   0  0  0  0  0  0  0  0  0  0  0  0
   -5.6308    2.6699    0.8899 C   0  0  0  0  0  0  0  0  0  0  0  0
   -5.8662    1.9409   -0.2775 C   0  0  0  0  0  0  0  0  0  0  0  0
   -7.3121    2.2447   -1.2233 Cl  0  0  0  0  0  0  0  0  0  0  0  0
   -4.9502    0.9701   -0.6939 C   0  0  0  0  0  0  0  0  0  0  0  0
   -3.7893    0.7125    0.0594 C   0  0  0  0  0  0  0  0  0  0  0  0
   -2.7952   -0.3320   -0.4084 C   0  0  0  0  0  0  0  0  0  0  0  0
   -3.3989   -1.7319   -0.6431 C   0  0  0  0  0  0  0  0  0  0  0  0
   -2.2856   -2.7859   -0.9196 C   0  0  0  0  0  0  0  0  0  0  0  0
   -0.9570   -2.1676   -1.4325 C   0  0  0  0  0  0  0  0  0  0  0  0
   -1.3143   -1.0093   -2.3962 C   0  0  0  0  0  0  0  0  0  0  0  0
   -2.0083    0.1499   -1.6536 C   0  0  0  0  0  0  0  0  0  0  0  0
   -0.2180   -1.7285   -0.2978 O   0  0  0  0  0  0  0  0  0  0  0  0
    1.0916   -1.3120   -0.6222 C   0  0  0  0  0  0  0  0  0  0  0  0
    1.7560   -0.7210    0.6391 C   0  0  0  0  0  0  0  0  0  0  0  0
    6.8240   -0.0686   -0.1291 H   0  0  0  0  0  0  0  0  0  0  0  0
    7.2968   -1.6335   -0.9067 H   0  0  0  0  0  0  0  0  0  0  0  0
    6.2259   -1.6380    0.5499 H   0  0  0  0  0  0  0  0  0  0  0  0
    3.0874    0.1450   -1.4270 H   0  0  0  0  0  0  0  0  0  0  0  0
    3.7253   -1.6226    0.7031 H   0  0  0  0  0  0  0  0  0  0  0  0
    4.9082    0.3163    1.7305 H   0  0  0  0  0  0  0  0  0  0  0  0
    3.4837   -0.2077    2.6755 H   0  0  0  0  0  0  0  0  0  0  0  0
    3.0726    2.0661    2.7045 H   0  0  0  0  0  0  0  0  0  0  0  0
    3.9648    2.3803    1.1839 H   0  0  0  0  0  0  0  0  0  0  0  0
    1.3302    2.6871    1.2660 H   0  0  0  0  0  0  0  0  0  0  0  0
    2.0948    1.9897   -0.1827 H   0  0  0  0  0  0  0  0  0  0  0  0
   -1.0917    2.1137    0.6393 H   0  0  0  0  0  0  0  0  0  0  0  0
   -0.7954    2.5074    2.3684 H   0  0  0  0  0  0  0  0  0  0  0  0
   -4.3045    3.0058    2.5449 H   0  0  0  0  0  0  0  0  0  0  0  0
   -6.3400    3.4197    1.2162 H   0  0  0  0  0  0  0  0  0  0  0  0
   -5.1437    0.4213   -1.6072 H   0  0  0  0  0  0  0  0  0  0  0  0
   -2.0832   -0.4843    0.4152 H   0  0  0  0  0  0  0  0  0  0  0  0
   -4.0899   -1.6987   -1.5130 H   0  0  0  0  0  0  0  0  0  0  0  0
   -3.9903   -2.0435    0.2459 H   0  0  0  0  0  0  0  0  0  0  0  0
   -2.6638   -3.5141   -1.6698 H   0  0  0  0  0  0  0  0  0  0  0  0
   -2.0825   -3.3598    0.0112 H   0  0  0  0  0  0  0  0  0  0  0  0
   -0.3917   -2.9558   -1.9815 H   0  0  0  0  0  0  0  0  0  0  0  0
   -0.4286   -0.6400   -2.9524 H   0  0  0  0  0  0  0  0  0  0  0  0
   -2.0059   -1.4005   -3.1758 H   0  0  0  0  0  0  0  0  0  0  0  0
   -1.2378    0.8825   -1.3348 H   0  0  0  0  0  0  0  0  0  0  0  0
   -2.6831    0.6704   -2.3675 H   0  0  0  0  0  0  0  0  0  0  0  0
    1.0677   -0.5232   -1.3960 H   0  0  0  0  0  0  0  0  0  0  0  0
    1.6862   -2.1807   -0.9825 H   0  0  0  0  0  0  0  0  0  0  0  0
    1.5817   -1.4562    1.4577 H   0  0  0  0  0  0  0  0  0  0  0  0
  1  2  1  0
  2  3  2  0
  2  4  2  0
  2  5  1  0
  5  6  1  0
  6  7  1  0
  7  8  1  0
  8  9  1  0
  9 10  1  0
 10 11  1  0
 11 12  2  0
 11 13  1  0
 13 14  1  0
 14 15  1  0
 15 16  2  0
 16 17  1  0
 17 18  2  0
 18 19  1  0
 18 20  1  0
 20 21  2  0
 21 22  1  0
 22 23  1  0
 23 24  1  0
 24 25  1  0
 25 26  1  0
 26 27  1  0
 25 28  1  0
 28 29  1  0
 29 30  1  0
 30  6  1  0
 30 10  1  0
 21 15  1  0
 27 22  1  0
  1 31  1  0
  1 32  1  0
  1 33  1  0
  5 34  1  0
  6 35  1  0
  7 36  1  0
  7 37  1  0
  8 38  1  0
  8 39  1  0
  9 40  1  0
  9 41  1  0
 13 42  1  0
 13 43  1  0
 16 44  1  0
 17 45  1  0
 20 46  1  0
 22 47  1  0
 23 48  1  0
 23 49  1  0
 24 50  1  0
 24 51  1  0
 25 52  1  0
 26 53  1  0
 26 54  1  0
 27 55  1  0
 27 56  1  0
 29 57  1  0
 29 58  1  0
 30 59  1  0
M  END
$$$$
