
     RDKit          3D

 75 76  0  0  0  0  0  0  0  0999 V2000
   -1.6079   -3.2677    2.4811 C   0  0  0  0  0  0  0  0  0  0  0  0
   -2.4626   -3.3443    1.2468 C   0  0  0  0  0  0  0  0  0  0  0  0
   -3.4505   -4.1257    1.2612 O   0  0  0  0  0  0  0  0  0  0  0  0
   -2.1739   -2.5472    0.0705 N   0  0  0  0  0  0  0  0  0  0  0  0
   -2.7809   -2.8853   -1.2382 C   0  0  0  0  0  0  0  0  0  0  0  0
   -4.3268   -2.9650   -1.2543 C   0  0  0  0  0  0  0  0  0  0  0  0
   -5.0744   -1.8607   -0.4690 C   0  0  0  0  0  0  0  0  0  0  0  0
   -5.8881   -0.8998   -1.3591 C   0  0  0  0  0  0  0  0  0  0  0  0
   -5.0515    0.1663   -2.0919 C   0  0  0  0  0  0  0  0  0  0  0  0
   -4.4051    1.1958   -1.1365 C   0  0  0  0  0  0  0  0  0  0  0  0
   -2.9392    0.8618   -0.8252 C   0  0  0  0  0  0  0  0  0  0  0  0
   -2.6070    1.2550    0.5615 N   0  0  0  0  0  0  0  0  0  0  0  0
   -1.9031    2.5566    0.6196 C   0  0  0  0  0  0  0  0  0  0  0  0
   -2.1477    3.2918    1.9559 C   0  0  0  0  0  0  0  0  0  0  0  0
   -1.3945    4.6278    1.9669 C   0  0  0  0  0  0  0  0  0  0  0  0
   -3.6459    3.5255    2.1928 C   0  0  0  0  0  0  0  0  0  0  0  0
   -1.9990    0.1641    1.3730 C   0  0  0  0  0  0  0  0  0  0  0  0
   -0.8174   -0.5338    0.7146 C   0  0  0  0  0  0  0  0  0  0  0  0
    0.4512    0.0674    0.7963 C   0  0  0  0  0  0  0  0  0  0  0  0
    1.5711   -0.4988    0.1661 C   0  0  0  0  0  0  0  0  0  0  0  0
    2.8886    0.1786    0.2570 C   0  0  0  0  0  0  0  0  0  0  0  0
    2.9292    1.4166    0.4966 O   0  0  0  0  0  0  0  0  0  0  0  0
    4.1175   -0.5497    0.1016 N   0  0  0  0  0  0  0  0  0  0  0  0
    5.4093    0.1383    0.1175 C   0  0  0  0  0  0  0  0  0  0  0  0
    6.5629   -0.8538   -0.0866 C   0  0  0  0  0  0  0  0  0  0  0  0
    7.9435   -0.1650   -0.0596 C   0  0  0  0  0  0  0  0  0  0  0  0
    8.5507    0.0627   -1.4564 C   0  0  0  0  0  0  0  0  0  0  0  0
    7.7913    1.0901   -2.3065 C   0  0  0  0  0  0  0  0  0  0  0  0
    7.6614    2.3120   -1.6288 O   0  0  0  0  0  0  0  0  0  0  0  0
    1.4121   -1.6920   -0.5543 C   0  0  0  0  0  0  0  0  0  0  0  0
    0.1739   -2.3320   -0.5974 C   0  0  0  0  0  0  0  0  0  0  0  0
   -0.9450   -1.7837    0.0478 C   0  0  0  0  0  0  0  0  0  0  0  0
   -1.7660   -2.2972    2.9922 H   0  0  0  0  0  0  0  0  0  0  0  0
   -1.8741   -4.0831    3.1868 H   0  0  0  0  0  0  0  0  0  0  0  0
   -0.5367   -3.3800    2.2151 H   0  0  0  0  0  0  0  0  0  0  0  0
   -2.4663   -2.1495   -2.0098 H   0  0  0  0  0  0  0  0  0  0  0  0
   -2.3781   -3.8656   -1.5738 H   0  0  0  0  0  0  0  0  0  0  0  0
   -4.6552   -2.9741   -2.3178 H   0  0  0  0  0  0  0  0  0  0  0  0
   -4.6376   -3.9576   -0.8644 H   0  0  0  0  0  0  0  0  0  0  0  0
   -4.4115   -1.2968    0.2077 H   0  0  0  0  0  0  0  0  0  0  0  0
   -5.8033   -2.3673    0.2027 H   0  0  0  0  0  0  0  0  0  0  0  0
   -6.4640   -1.4861   -2.1078 H   0  0  0  0  0  0  0  0  0  0  0  0
   -6.6424   -0.3823   -0.7256 H   0  0  0  0  0  0  0  0  0  0  0  0
   -4.2952   -0.3185   -2.7462 H   0  0  0  0  0  0  0  0  0  0  0  0
   -5.7413    0.7163   -2.7684 H   0  0  0  0  0  0  0  0  0  0  0  0
   -4.9957    1.2677   -0.1959 H   0  0  0  0  0  0  0  0  0  0  0  0
   -4.4378    2.2031   -1.6069 H   0  0  0  0  0  0  0  0  0  0  0  0
   -2.2698    1.3522   -1.5689 H   0  0  0  0  0  0  0  0  0  0  0  0
   -2.7863   -0.2107   -0.9756 H   0  0  0  0  0  0  0  0  0  0  0  0
   -0.8190    2.4284    0.4356 H   0  0  0  0  0  0  0  0  0  0  0  0
   -2.2751    3.2245   -0.1915 H   0  0  0  0  0  0  0  0  0  0  0  0
   -1.7510    2.6909    2.7999 H   0  0  0  0  0  0  0  0  0  0  0  0
   -1.7555    5.2901    1.1508 H   0  0  0  0  0  0  0  0  0  0  0  0
   -0.3057    4.4537    1.8320 H   0  0  0  0  0  0  0  0  0  0  0  0
   -1.5437    5.1447    2.9383 H   0  0  0  0  0  0  0  0  0  0  0  0
   -4.1834    2.5555    2.2580 H   0  0  0  0  0  0  0  0  0  0  0  0
   -4.0845    4.1233    1.3654 H   0  0  0  0  0  0  0  0  0  0  0  0
   -3.8029    4.0661    3.1514 H   0  0  0  0  0  0  0  0  0  0  0  0
   -1.6804    0.5416    2.3644 H   0  0  0  0  0  0  0  0  0  0  0  0
   -2.7919   -0.5676    1.6164 H   0  0  0  0  0  0  0  0  0  0  0  0
    0.5752    0.9698    1.3811 H   0  0  0  0  0  0  0  0  0  0  0  0
    4.0962   -1.5922    0.0346 H   0  0  0  0  0  0  0  0  0  0  0  0
    5.5331    0.6510    1.0971 H   0  0  0  0  0  0  0  0  0  0  0  0
    5.4199    0.9051   -0.6840 H   0  0  0  0  0  0  0  0  0  0  0  0
    6.5243   -1.5963    0.7402 H   0  0  0  0  0  0  0  0  0  0  0  0
    6.4169   -1.4124   -1.0368 H   0  0  0  0  0  0  0  0  0  0  0  0
    7.9073    0.7917    0.5056 H   0  0  0  0  0  0  0  0  0  0  0  0
    8.6447   -0.8246    0.4971 H   0  0  0  0  0  0  0  0  0  0  0  0
    9.5977    0.4165   -1.3301 H   0  0  0  0  0  0  0  0  0  0  0  0
    8.5950   -0.9030   -2.0069 H   0  0  0  0  0  0  0  0  0  0  0  0
    8.3315    1.2436   -3.2682 H   0  0  0  0  0  0  0  0  0  0  0  0
    6.7835    0.7015   -2.5600 H   0  0  0  0  0  0  0  0  0  0  0  0
    8.5594    2.7362   -1.6323 H   0  0  0  0  0  0  0  0  0  0  0  0
    2.2397   -2.1393   -1.0881 H   0  0  0  0  0  0  0  0  0  0  0  0
    0.0885   -3.2753   -1.1218 H   0  0  0  0  0  0  0  0  0  0  0  0
  1  2  1  0
  2  3  2  0
  2  4  1  0
  4  5  1  0
  5  6  1  0
  6  7  1  0
  7  8  1  0
  8  9  1  0
  9 10  1  0
 10 11  1  0
 11 12  1  0
 12 13  1  0
 13 14  1  0
 14 15  1  0
 14 16  1  0
 12 17  1  0
 17 18  1  0
 18 19  2  0
 19 20  1  0
 20 21  1  0
 21 22  2  0
 21 23  1  0
 23 24  1  0
 24 25  1  0
 25 26  1  0
 26 27  1  0
 27 28  1  0
 28 29  1  0
 20 30  2  0
 30 31  1  0
 31 32  2  0
 32  4  1  0
 32 18  1  0
  1 33  1  0
  1 34  1  0
  1 35  1  0
  5 36  1  0
  5 37  1  0
  6 38  1  0
  6 39  1  0
  7 40  1  0
  7 41  1  0
  8 42  1  0
  8 43  1  0
  9 44  1  0
  9 45  1  0
 10 46  1  0
 10 47  1  0
 11 48  1  0
 11 49  1  0
 13 50  1  0
 13 51  1  0
 14 52  1  0
 15 53  1  0
 15 54  1  0
 15 55  1  0
 16 56  1  0
 16 57  1  0
 16 58  1  0
 17 59  1  0
 17 60  1  0
 19 61  1  0
 23 62  1  0
 24 63  1  0
 24 64  1  0
 25 65  1  0
 25 66  1  0
 26 67  1  0
 26 68  1  0
 27 69  1  0
 27 70  1  0
 28 71  1  0
 28 72  1  0
 29 73  1  0
 30 74  1  0
 31 75  1  0
M  END
$$$$
