
     RDKit          3D

 58 61  0  0  0  0  0  0  0  0999 V2000
    3.2320    1.0869    2.5839 C   0  0  0  0  0  0  0  0  0  0  0  0
    4.5330    1.3622    1.3984 S   0  0  0  0  0  6  0  0  0  0  0  0
    5.6796    0.4377    1.6983 O   0  0  0  0  0  0  0  0  0  0  0  0
    5.0066    2.7829    1.5248 O   0  0  0  0  0  0  0  0  0  0  0  0
    3.9821    1.0962   -0.2310 N   0  0  0  0  0  0  0  0  0  0  0  0
    3.4710   -0.2761   -0.4273 C   0  0  0  0  0  0  0  0  0  0  0  0
    3.9878   -0.8123   -1.7779 C   0  0  0  0  0  0  0  0  0  0  0  0
    3.3202   -0.1151   -2.9695 C   0  0  0  0  0  0  0  0  0  0  0  0
    1.7976   -0.2335   -2.8920 C   0  0  0  0  0  0  0  0  0  0  0  0
    1.3297    0.2376   -1.5844 N   0  0  0  0  0  0  0  0  0  0  0  0
    0.2519    1.1826   -1.4965 C   0  0  0  0  0  0  0  0  0  0  0  0
    0.3864    2.2194   -0.7928 O   0  0  0  0  0  0  0  0  0  0  0  0
   -1.0753    0.8899   -2.1185 C   0  0  0  0  0  0  0  0  0  0  0  0
   -1.9512    0.3958   -1.1071 O   0  0  0  0  0  0  0  0  0  0  0  0
   -3.1079    1.0446   -0.6565 C   0  0  0  0  0  0  0  0  0  0  0  0
   -3.5399    2.1745   -1.2860 N   0  0  0  0  0  0  0  0  0  0  0  0
   -4.6535    2.8467   -0.8962 C   0  0  0  0  0  0  0  0  0  0  0  0
   -5.3971    2.3878    0.1858 C   0  0  0  0  0  0  0  0  0  0  0  0
   -4.9874    1.2370    0.8573 C   0  0  0  0  0  0  0  0  0  0  0  0
   -3.8408    0.5317    0.4451 C   0  0  0  0  0  0  0  0  0  0  0  0
   -3.3932   -0.6721    1.2766 C   0  0  0  0  0  0  0  0  0  0  0  0
   -2.2881   -0.2883    2.2938 C   0  0  0  0  0  0  0  0  0  0  0  0
   -0.8712   -0.4854    1.7454 C   0  0  0  0  0  0  0  0  0  0  0  0
   -0.6148   -1.8977    1.1531 C   0  0  0  0  0  0  0  0  0  0  0  0
   -1.9015   -2.7403    1.0316 C   0  0  0  0  0  0  0  0  0  0  0  0
   -3.0646   -1.9383    0.4377 C   0  0  0  0  0  0  0  0  0  0  0  0
   -0.0284   -1.7842   -0.1368 O   0  0  0  0  0  0  0  0  0  0  0  0
    1.3915   -1.7514   -0.1007 C   0  0  0  0  0  0  0  0  0  0  0  0
    1.9159   -0.3225   -0.3552 C   0  0  0  0  0  0  0  0  0  0  0  0
    2.3614    1.7271    2.3375 H   0  0  0  0  0  0  0  0  0  0  0  0
    3.5966    1.3454    3.5983 H   0  0  0  0  0  0  0  0  0  0  0  0
    2.9281    0.0201    2.5708 H   0  0  0  0  0  0  0  0  0  0  0  0
    3.2500    1.8112   -0.4464 H   0  0  0  0  0  0  0  0  0  0  0  0
    3.8852   -0.9530    0.3542 H   0  0  0  0  0  0  0  0  0  0  0  0
    3.8102   -1.9072   -1.8461 H   0  0  0  0  0  0  0  0  0  0  0  0
    5.0877   -0.6603   -1.8378 H   0  0  0  0  0  0  0  0  0  0  0  0
    3.6072    0.9593   -2.9829 H   0  0  0  0  0  0  0  0  0  0  0  0
    3.6779   -0.5771   -3.9151 H   0  0  0  0  0  0  0  0  0  0  0  0
    1.4890   -1.2906   -3.0420 H   0  0  0  0  0  0  0  0  0  0  0  0
    1.3538    0.3741   -3.7113 H   0  0  0  0  0  0  0  0  0  0  0  0
   -1.4684    1.8060   -2.6081 H   0  0  0  0  0  0  0  0  0  0  0  0
   -0.9682    0.1100   -2.9005 H   0  0  0  0  0  0  0  0  0  0  0  0
   -4.9559    3.7409   -1.4246 H   0  0  0  0  0  0  0  0  0  0  0  0
   -6.2798    2.9247    0.5084 H   0  0  0  0  0  0  0  0  0  0  0  0
   -5.5650    0.9035    1.7106 H   0  0  0  0  0  0  0  0  0  0  0  0
   -4.2606   -0.9722    1.9088 H   0  0  0  0  0  0  0  0  0  0  0  0
   -2.3950   -0.9203    3.2041 H   0  0  0  0  0  0  0  0  0  0  0  0
   -2.4133    0.7670    2.6261 H   0  0  0  0  0  0  0  0  0  0  0  0
   -0.1437   -0.2973    2.5642 H   0  0  0  0  0  0  0  0  0  0  0  0
   -0.6863    0.2990    0.9899 H   0  0  0  0  0  0  0  0  0  0  0  0
    0.0246   -2.4689    1.8653 H   0  0  0  0  0  0  0  0  0  0  0  0
   -2.1977   -3.1163    2.0359 H   0  0  0  0  0  0  0  0  0  0  0  0
   -1.7046   -3.6315    0.3963 H   0  0  0  0  0  0  0  0  0  0  0  0
   -3.9619   -2.5953    0.4075 H   0  0  0  0  0  0  0  0  0  0  0  0
   -2.8376   -1.7137   -0.6208 H   0  0  0  0  0  0  0  0  0  0  0  0
    1.8393   -2.1425    0.8411 H   0  0  0  0  0  0  0  0  0  0  0  0
    1.7538   -2.4268   -0.9022 H   0  0  0  0  0  0  0  0  0  0  0  0
    1.6033    0.2885    0.5151 H   0  0  0  0  0  0  0  0  0  0  0  0
  1  2  1  0
  2  3  2  0
  2  4  2  0
  2  5  1  0
  5  6  1  0
  6  7  1  0
  7  8  1  0
  8  9  1  0
  9 10  1  0
 10 11  1  0
 11 12  2  0
 11 13  1  0
 13 14  1  0
 14 15  1  0
 15 16  2  0
 16 17  1  0
 17 18  2  0
 18 19  1  0
 19 20  2  0
 20 21  1  0
 21 22  1  0
 22 23  1  0
 23 24  1  0
 24 25  1  0
 25 26  1  0
 24 27  1  0
 27 28  1  0
 28 29  1  0
 29  6  1  0
 29 10  1  0
 20 15  1  0
 26 21  1  0
  1 30  1  0
  1 31  1  0
  1 32  1  0
  5 33  1  0
  6 34  1  0
  7 35  1  0
  7 36  1  0
  8 37  1  0
  8 38  1  0
  9 39  1  0
  9 40  1  0
 13 41  1  0
 13 42  1  0
 17 43  1  0
 18 44  1  0
 19 45  1  0
 21 46  1  0
 22 47  1  0
 22 48  1  0
 23 49  1  0
 23 50  1  0
 24 51  1  0
 25 52  1  0
 25 53  1  0
 26 54  1  0
 26 55  1  0
 28 56  1  0
 28 57  1  0
 29 58  1  0
M  END
$$$$
