
     RDKit          3D

 75 78  0  0  0  0  0  0  0  0999 V2000
   -6.1764    3.6997    0.9511 C   0  0  0  0  0  0  0  0  0  0  0  0
   -5.4035    2.6226    0.4719 O   0  0  0  0  0  0  0  0  0  0  0  0
   -4.1413    2.6214    1.1147 C   0  0  0  0  0  0  0  0  0  0  0  0
   -3.2916    1.4054    0.6433 C   0  0  0  0  0  0  0  0  0  0  0  0
   -1.9422    1.3987    1.4445 C   0  0  0  0  0  0  0  0  0  0  0  0
   -0.9455    2.5536    1.1515 C   0  0  0  0  0  0  0  0  0  0  0  0
    0.3440    2.0652    0.4620 C   0  0  0  0  0  0  0  0  0  0  0  0
    1.2601    1.2484    1.3985 C   0  0  0  0  0  0  0  0  0  0  0  0
    1.9272    0.1638    0.6559 N   0  0  0  0  0  0  0  0  0  0  0  0
    2.8705    0.4521   -0.3996 C   0  0  0  0  0  0  0  0  0  0  0  0
    2.9257   -0.3144   -1.4025 O   0  0  0  0  0  0  0  0  0  0  0  0
    3.8489    1.6094   -0.2789 C   0  0  0  0  0  0  0  0  0  0  0  0
    4.8846    1.3129    0.8200 C   0  0  0  0  0  0  0  0  0  0  0  0
    5.8590    0.1783    0.4232 C   0  0  0  0  0  0  0  0  0  0  0  0
    5.8361   -0.1123   -1.0282 N   0  0  0  0  0  0  0  0  0  0  0  0
    6.9662   -0.9829   -1.3899 C   0  0  0  0  0  0  0  0  0  0  0  0
    5.8657    1.1326   -1.8187 C   0  0  0  0  0  0  0  0  0  0  0  0
    4.5685    1.9443   -1.6110 C   0  0  0  0  0  0  0  0  0  0  0  0
    1.5921   -1.2348    0.9606 C   0  0  0  0  0  0  0  0  0  0  0  0
    0.4692   -1.7433    0.0552 C   0  0  0  0  0  0  0  0  0  0  0  0
   -0.1081   -2.9066    0.6429 O   0  0  0  0  0  0  0  0  0  0  0  0
   -1.0859   -3.7458    0.0780 C   0  0  0  0  0  0  0  0  0  0  0  0
   -1.1637   -5.0438    0.6012 C   0  0  0  0  0  0  0  0  0  0  0  0
   -2.0802   -5.9682    0.0989 C   0  0  0  0  0  0  0  0  0  0  0  0
   -2.9471   -5.6028   -0.9279 C   0  0  0  0  0  0  0  0  0  0  0  0
   -2.9064   -4.3114   -1.4491 C   0  0  0  0  0  0  0  0  0  0  0  0
   -1.9903   -3.3687   -0.9549 C   0  0  0  0  0  0  0  0  0  0  0  0
   -2.0652   -2.0125   -1.5227 C   0  0  0  0  0  0  0  0  0  0  0  0
   -1.4716   -1.7886   -2.6118 O   0  0  0  0  0  0  0  0  0  0  0  0
   -2.8550   -0.9754   -0.8953 N   0  0  0  0  0  0  0  0  0  0  0  0
   -3.4047   -1.1752    0.4539 C   0  0  0  0  0  0  0  0  0  0  0  0
   -4.0803    0.1013    0.9918 C   0  0  0  0  0  0  0  0  0  0  0  0
   -3.3012    0.1860   -1.6729 C   0  0  0  0  0  0  0  0  0  0  0  0
   -3.0481    1.4919   -0.9072 C   0  0  0  0  0  0  0  0  0  0  0  0
   -5.6826    4.6747    0.7413 H   0  0  0  0  0  0  0  0  0  0  0  0
   -7.1508    3.6968    0.4206 H   0  0  0  0  0  0  0  0  0  0  0  0
   -6.3868    3.5930    2.0392 H   0  0  0  0  0  0  0  0  0  0  0  0
   -3.6016    3.5658    0.8803 H   0  0  0  0  0  0  0  0  0  0  0  0
   -4.2714    2.5631    2.2211 H   0  0  0  0  0  0  0  0  0  0  0  0
   -1.4286    0.4326    1.2978 H   0  0  0  0  0  0  0  0  0  0  0  0
   -2.1788    1.4209    2.5313 H   0  0  0  0  0  0  0  0  0  0  0  0
   -0.6714    3.0604    2.1032 H   0  0  0  0  0  0  0  0  0  0  0  0
   -1.4058    3.3341    0.5110 H   0  0  0  0  0  0  0  0  0  0  0  0
    0.0819    1.4656   -0.4353 H   0  0  0  0  0  0  0  0  0  0  0  0
    0.9056    2.9517    0.0954 H   0  0  0  0  0  0  0  0  0  0  0  0
    2.0149    1.9155    1.8651 H   0  0  0  0  0  0  0  0  0  0  0  0
    0.6711    0.8294    2.2438 H   0  0  0  0  0  0  0  0  0  0  0  0
    3.2809    2.5184    0.0122 H   0  0  0  0  0  0  0  0  0  0  0  0
    4.3749    1.0564    1.7765 H   0  0  0  0  0  0  0  0  0  0  0  0
    5.4722    2.2392    1.0047 H   0  0  0  0  0  0  0  0  0  0  0  0
    6.8838    0.4561    0.7597 H   0  0  0  0  0  0  0  0  0  0  0  0
    5.5671   -0.7440    0.9712 H   0  0  0  0  0  0  0  0  0  0  0  0
    7.9417   -0.4969   -1.1599 H   0  0  0  0  0  0  0  0  0  0  0  0
    6.8902   -1.9474   -0.8441 H   0  0  0  0  0  0  0  0  0  0  0  0
    6.9295   -1.2193   -2.4741 H   0  0  0  0  0  0  0  0  0  0  0  0
    5.9583    0.8989   -2.9039 H   0  0  0  0  0  0  0  0  0  0  0  0
    6.7483    1.7501   -1.5321 H   0  0  0  0  0  0  0  0  0  0  0  0
    4.8357    3.0251   -1.6112 H   0  0  0  0  0  0  0  0  0  0  0  0
    3.8793    1.7927   -2.4708 H   0  0  0  0  0  0  0  0  0  0  0  0
    2.4890   -1.8780    0.8403 H   0  0  0  0  0  0  0  0  0  0  0  0
    1.2762   -1.3263    2.0223 H   0  0  0  0  0  0  0  0  0  0  0  0
   -0.2918   -0.9509   -0.0376 H   0  0  0  0  0  0  0  0  0  0  0  0
    0.8736   -1.9924   -0.9496 H   0  0  0  0  0  0  0  0  0  0  0  0
   -0.4950   -5.3445    1.3961 H   0  0  0  0  0  0  0  0  0  0  0  0
   -2.1180   -6.9699    0.5089 H   0  0  0  0  0  0  0  0  0  0  0  0
   -3.6584   -6.3198   -1.3174 H   0  0  0  0  0  0  0  0  0  0  0  0
   -3.5980   -4.0399   -2.2364 H   0  0  0  0  0  0  0  0  0  0  0  0
   -4.1470   -2.0027    0.4331 H   0  0  0  0  0  0  0  0  0  0  0  0
   -2.5934   -1.4779    1.1490 H   0  0  0  0  0  0  0  0  0  0  0  0
   -4.2079    0.0061    2.0920 H   0  0  0  0  0  0  0  0  0  0  0  0
   -5.1006    0.1474    0.5546 H   0  0  0  0  0  0  0  0  0  0  0  0
   -2.7896    0.2474   -2.6580 H   0  0  0  0  0  0  0  0  0  0  0  0
   -4.3885    0.0813   -1.8784 H   0  0  0  0  0  0  0  0  0  0  0  0
   -3.6980    2.2660   -1.3679 H   0  0  0  0  0  0  0  0  0  0  0  0
   -2.0201    1.8202   -1.1427 H   0  0  0  0  0  0  0  0  0  0  0  0
  1  2  1  0
  2  3  1  0
  3  4  1  0
  4  5  1  0
  5  6  1  0
  6  7  1  0
  7  8  1  0
  8  9  1  0
  9 10  1  0
 10 11  2  0
 10 12  1  0
 12 13  1  0
 13 14  1  0
 14 15  1  0
 15 16  1  0
 15 17  1  0
 17 18  1  0
  9 19  1  0
 19 20  1  0
 20 21  1  0
 21 22  1  0
 22 23  2  0
 23 24  1  0
 24 25  2  0
 25 26  1  0
 26 27  2  0
 27 28  1  0
 28 29  2  0
 28 30  1  0
 30 31  1  0
 31 32  1  0
 30 33  1  0
 33 34  1  0
 32  4  1  0
 34  4  1  0
 18 12  1  0
 27 22  1  0
  1 35  1  0
  1 36  1  0
  1 37  1  0
  3 38  1  0
  3 39  1  0
  5 40  1  0
  5 41  1  0
  6 42  1  0
  6 43  1  0
  7 44  1  0
  7 45  1  0
  8 46  1  0
  8 47  1  0
 12 48  1  0
 13 49  1  0
 13 50  1  0
 14 51  1  0
 14 52  1  0
 16 53  1  0
 16 54  1  0
 16 55  1  0
 17 56  1  0
 17 57  1  0
 18 58  1  0
 18 59  1  0
 19 60  1  0
 19 61  1  0
 20 62  1  0
 20 63  1  0
 23 64  1  0
 24 65  1  0
 25 66  1  0
 26 67  1  0
 31 68  1  0
 31 69  1  0
 32 70  1  0
 32 71  1  0
 33 72  1  0
 33 73  1  0
 34 74  1  0
 34 75  1  0
M  END
$$$$
