
     RDKit          3D

 73 75  0  0  0  0  0  0  0  0999 V2000
   -0.7566   -4.8364   -2.8236 C   0  0  0  0  0  0  0  0  0  0  0  0
   -0.2204   -3.5611   -2.2435 C   0  0  0  0  0  0  0  0  0  0  0  0
    0.9223   -3.1716   -2.6117 O   0  0  0  0  0  0  0  0  0  0  0  0
   -0.9741   -2.7695   -1.2949 N   0  0  0  0  0  0  0  0  0  0  0  0
   -2.3993   -3.0421   -1.0268 C   0  0  0  0  0  0  0  0  0  0  0  0
   -2.6299   -3.7792    0.3085 C   0  0  0  0  0  0  0  0  0  0  0  0
   -2.7885   -2.8422    1.5224 C   0  0  0  0  0  0  0  0  0  0  0  0
   -4.0758   -1.9783    1.4717 C   0  0  0  0  0  0  0  0  0  0  0  0
   -3.9017   -0.5501    2.0342 C   0  0  0  0  0  0  0  0  0  0  0  0
   -2.8943    0.3422    1.2771 C   0  0  0  0  0  0  0  0  0  0  0  0
   -3.3190    0.7060   -0.1612 C   0  0  0  0  0  0  0  0  0  0  0  0
   -2.1712    1.2684   -0.9227 N   0  0  0  0  0  0  0  0  0  0  0  0
   -2.5669    2.3773   -1.8283 C   0  0  0  0  0  0  0  0  0  0  0  0
   -1.6010    3.5649   -1.6490 C   0  0  0  0  0  0  0  0  0  0  0  0
   -1.7176    4.1584   -0.2364 C   0  0  0  0  0  0  0  0  0  0  0  0
   -1.8714    4.6445   -2.7042 C   0  0  0  0  0  0  0  0  0  0  0  0
   -1.3675    0.2323   -1.6336 C   0  0  0  0  0  0  0  0  0  0  0  0
   -0.3635   -0.4064   -0.6979 C   0  0  0  0  0  0  0  0  0  0  0  0
    0.5081    0.4530   -0.0033 C   0  0  0  0  0  0  0  0  0  0  0  0
    1.4410   -0.0397    0.9220 C   0  0  0  0  0  0  0  0  0  0  0  0
    2.2948    0.9263    1.6562 C   0  0  0  0  0  0  0  0  0  0  0  0
    1.7229    1.9139    2.2002 O   0  0  0  0  0  0  0  0  0  0  0  0
    3.7420    0.8676    1.6342 N   0  0  0  0  0  0  0  0  0  0  0  0
    4.4571   -0.4020    1.4038 C   0  0  0  0  0  0  0  0  0  0  0  0
    5.9824   -0.2298    1.4671 C   0  0  0  0  0  0  0  0  0  0  0  0
    6.4654    0.9379    0.5920 C   0  0  0  0  0  0  0  0  0  0  0  0
    5.5888    2.2111    0.7196 C   0  0  0  0  0  0  0  0  0  0  0  0
    6.3832    3.3600    0.8960 O   0  0  0  0  0  0  0  0  0  0  0  0
    4.5270    2.1015    1.8276 C   0  0  0  0  0  0  0  0  0  0  0  0
    1.4765   -1.4179    1.1777 C   0  0  0  0  0  0  0  0  0  0  0  0
    0.6645   -2.2912    0.4532 C   0  0  0  0  0  0  0  0  0  0  0  0
   -0.2534   -1.8083   -0.4958 C   0  0  0  0  0  0  0  0  0  0  0  0
   -1.5302   -4.6071   -3.5860 H   0  0  0  0  0  0  0  0  0  0  0  0
   -1.1968   -5.4636   -2.0205 H   0  0  0  0  0  0  0  0  0  0  0  0
    0.0576   -5.4153   -3.3076 H   0  0  0  0  0  0  0  0  0  0  0  0
   -2.9659   -2.1081   -1.0595 H   0  0  0  0  0  0  0  0  0  0  0  0
   -2.8420   -3.6497   -1.8419 H   0  0  0  0  0  0  0  0  0  0  0  0
   -3.5478   -4.4019    0.2246 H   0  0  0  0  0  0  0  0  0  0  0  0
   -1.7861   -4.4789    0.4910 H   0  0  0  0  0  0  0  0  0  0  0  0
   -2.8315   -3.4727    2.4374 H   0  0  0  0  0  0  0  0  0  0  0  0
   -1.8729   -2.2383    1.6398 H   0  0  0  0  0  0  0  0  0  0  0  0
   -4.5157   -1.9233    0.4576 H   0  0  0  0  0  0  0  0  0  0  0  0
   -4.8515   -2.4912    2.0811 H   0  0  0  0  0  0  0  0  0  0  0  0
   -4.8928   -0.0443    2.0377 H   0  0  0  0  0  0  0  0  0  0  0  0
   -3.5757   -0.6293    3.0941 H   0  0  0  0  0  0  0  0  0  0  0  0
   -2.7867    1.2924    1.8444 H   0  0  0  0  0  0  0  0  0  0  0  0
   -1.8971   -0.1186    1.3037 H   0  0  0  0  0  0  0  0  0  0  0  0
   -4.1388    1.4482   -0.0441 H   0  0  0  0  0  0  0  0  0  0  0  0
   -3.7766   -0.1388   -0.7038 H   0  0  0  0  0  0  0  0  0  0  0  0
   -3.6032    2.7396   -1.6427 H   0  0  0  0  0  0  0  0  0  0  0  0
   -2.5625    2.0511   -2.8944 H   0  0  0  0  0  0  0  0  0  0  0  0
   -0.5587    3.2012   -1.7898 H   0  0  0  0  0  0  0  0  0  0  0  0
   -2.7496    4.5265   -0.0488 H   0  0  0  0  0  0  0  0  0  0  0  0
   -1.4685    3.3913    0.5262 H   0  0  0  0  0  0  0  0  0  0  0  0
   -1.0073    5.0017   -0.1135 H   0  0  0  0  0  0  0  0  0  0  0  0
   -1.1763    5.5033   -2.5727 H   0  0  0  0  0  0  0  0  0  0  0  0
   -2.9192    5.0130   -2.6318 H   0  0  0  0  0  0  0  0  0  0  0  0
   -1.7091    4.2279   -3.7229 H   0  0  0  0  0  0  0  0  0  0  0  0
   -0.7645    0.6894   -2.4491 H   0  0  0  0  0  0  0  0  0  0  0  0
   -2.0188   -0.4988   -2.1464 H   0  0  0  0  0  0  0  0  0  0  0  0
    0.4551    1.5211   -0.1811 H   0  0  0  0  0  0  0  0  0  0  0  0
    4.1764   -0.8114    0.4063 H   0  0  0  0  0  0  0  0  0  0  0  0
    4.1810   -1.1322    2.1928 H   0  0  0  0  0  0  0  0  0  0  0  0
    6.4767   -1.1712    1.1377 H   0  0  0  0  0  0  0  0  0  0  0  0
    6.2888   -0.0464    2.5223 H   0  0  0  0  0  0  0  0  0  0  0  0
    7.5213    1.1615    0.8629 H   0  0  0  0  0  0  0  0  0  0  0  0
    6.4712    0.6096   -0.4698 H   0  0  0  0  0  0  0  0  0  0  0  0
    5.0391    2.3385   -0.2373 H   0  0  0  0  0  0  0  0  0  0  0  0
    6.8254    3.2854    1.7817 H   0  0  0  0  0  0  0  0  0  0  0  0
    3.8830    3.0078    1.7848 H   0  0  0  0  0  0  0  0  0  0  0  0
    5.0093    2.0768    2.8285 H   0  0  0  0  0  0  0  0  0  0  0  0
    2.1167   -1.8292    1.9436 H   0  0  0  0  0  0  0  0  0  0  0  0
    0.7403   -3.3558    0.6350 H   0  0  0  0  0  0  0  0  0  0  0  0
  1  2  1  0
  2  3  2  0
  2  4  1  0
  4  5  1  0
  5  6  1  0
  6  7  1  0
  7  8  1  0
  8  9  1  0
  9 10  1  0
 10 11  1  0
 11 12  1  0
 12 13  1  0
 13 14  1  0
 14 15  1  0
 14 16  1  0
 12 17  1  0
 17 18  1  0
 18 19  2  0
 19 20  1  0
 20 21  1  0
 21 22  2  0
 21 23  1  0
 23 24  1  0
 24 25  1  0
 25 26  1  0
 26 27  1  0
 27 28  1  0
 27 29  1  0
 20 30  2  0
 30 31  1  0
 31 32  2  0
 32  4  1  0
 32 18  1  0
 29 23  1  0
  1 33  1  0
  1 34  1  0
  1 35  1  0
  5 36  1  0
  5 37  1  0
  6 38  1  0
  6 39  1  0
  7 40  1  0
  7 41  1  0
  8 42  1  0
  8 43  1  0
  9 44  1  0
  9 45  1  0
 10 46  1  0
 10 47  1  0
 11 48  1  0
 11 49  1  0
 13 50  1  0
 13 51  1  0
 14 52  1  0
 15 53  1  0
 15 54  1  0
 15 55  1  0
 16 56  1  0
 16 57  1  0
 16 58  1  0
 17 59  1  0
 17 60  1  0
 19 61  1  0
 24 62  1  0
 24 63  1  0
 25 64  1  0
 25 65  1  0
 26 66  1  0
 26 67  1  0
 27 68  1  0
 28 69  1  0
 29 70  1  0
 29 71  1  0
 30 72  1  0
 31 73  1  0
M  END
$$$$
