
     RDKit          3D

 69 72  0  0  0  0  0  0  0  0999 V2000
    6.9832    0.5697   -3.2958 C   0  0  0  0  0  0  0  0  0  0  0  0
    7.7245    0.4758   -1.9642 C   0  0  0  0  0  0  0  0  0  0  0  0
    7.3537   -0.7973   -1.1941 C   0  0  0  0  0  0  0  0  0  0  0  0
    5.9535   -0.8472   -0.9130 O   0  0  0  0  0  0  0  0  0  0  0  0
    5.2838   -0.0756    0.0507 C   0  0  0  0  0  0  0  0  0  0  0  0
    5.9587    0.7510    0.9688 C   0  0  0  0  0  0  0  0  0  0  0  0
    5.2376    1.4989    1.9020 C   0  0  0  0  0  0  0  0  0  0  0  0
    3.8434    1.4300    1.9337 C   0  0  0  0  0  0  0  0  0  0  0  0
    3.1514    0.6064    1.0289 C   0  0  0  0  0  0  0  0  0  0  0  0
    1.6683    0.5344    1.0564 C   0  0  0  0  0  0  0  0  0  0  0  0
    0.9036    1.6963    1.2370 C   0  0  0  0  0  0  0  0  0  0  0  0
   -0.4890    1.6312    1.2564 C   0  0  0  0  0  0  0  0  0  0  0  0
   -1.1529    0.4095    1.0875 C   0  0  0  0  0  0  0  0  0  0  0  0
   -0.3943   -0.7768    0.9084 C   0  0  0  0  0  0  0  0  0  0  0  0
    1.0095   -0.6965    0.8980 C   0  0  0  0  0  0  0  0  0  0  0  0
   -1.0326   -2.1341    0.7037 C   0  0  0  0  0  0  0  0  0  0  0  0
   -0.6711   -2.6823   -0.6176 N   0  0  0  0  0  0  0  0  0  0  0  0
   -1.5756   -3.7407   -1.1002 C   0  0  0  0  0  0  0  0  0  0  0  0
   -2.9725   -3.2368   -1.5265 C   0  0  0  0  0  0  0  0  0  0  0  0
   -2.9797   -2.3241   -2.7767 C   0  0  0  0  0  0  0  0  0  0  0  0
   -4.1137   -1.2685   -2.7332 C   0  0  0  0  0  0  0  0  0  0  0  0
   -3.6248    0.1896   -2.5809 C   0  0  0  0  0  0  0  0  0  0  0  0
   -2.7442    0.4724   -1.3494 C   0  0  0  0  0  0  0  0  0  0  0  0
   -3.4743    0.2694   -0.0106 C   0  0  0  0  0  0  0  0  0  0  0  0
   -2.5923    0.4012    1.1662 N   0  0  0  0  0  0  0  0  0  0  0  0
   -3.1828    0.3816    2.4748 C   0  0  0  0  0  0  0  0  0  0  0  0
   -2.8496   -0.5258    3.2839 O   0  0  0  0  0  0  0  0  0  0  0  0
   -4.1599    1.4147    2.8927 C   0  0  0  0  0  0  0  0  0  0  0  0
   -4.2170    2.6618    2.2471 C   0  0  0  0  0  0  0  0  0  0  0  0
   -5.1303    3.6290    2.6700 C   0  0  0  0  0  0  0  0  0  0  0  0
   -5.9779    3.3479    3.7424 C   0  0  0  0  0  0  0  0  0  0  0  0
   -5.9095    2.1425    4.3657 N   0  0  0  0  0  0  0  0  0  0  0  0
   -5.0285    1.1826    3.9739 C   0  0  0  0  0  0  0  0  0  0  0  0
    3.8857   -0.1444    0.0927 C   0  0  0  0  0  0  0  0  0  0  0  0
    7.3220    1.4732   -3.8450 H   0  0  0  0  0  0  0  0  0  0  0  0
    5.8882    0.6512   -3.1253 H   0  0  0  0  0  0  0  0  0  0  0  0
    7.1919   -0.3255   -3.9202 H   0  0  0  0  0  0  0  0  0  0  0  0
    7.4951    1.3746   -1.3548 H   0  0  0  0  0  0  0  0  0  0  0  0
    8.8184    0.4692   -2.1618 H   0  0  0  0  0  0  0  0  0  0  0  0
    7.6189   -1.6812   -1.8121 H   0  0  0  0  0  0  0  0  0  0  0  0
    7.9437   -0.8721   -0.2562 H   0  0  0  0  0  0  0  0  0  0  0  0
    7.0369    0.8234    0.9748 H   0  0  0  0  0  0  0  0  0  0  0  0
    5.7618    2.1320    2.6064 H   0  0  0  0  0  0  0  0  0  0  0  0
    3.3072    2.0068    2.6768 H   0  0  0  0  0  0  0  0  0  0  0  0
    1.3827    2.6607    1.3496 H   0  0  0  0  0  0  0  0  0  0  0  0
   -1.0591    2.5402    1.4010 H   0  0  0  0  0  0  0  0  0  0  0  0
    1.5890   -1.6041    0.7753 H   0  0  0  0  0  0  0  0  0  0  0  0
   -0.6525   -2.8230    1.4884 H   0  0  0  0  0  0  0  0  0  0  0  0
   -2.1247   -2.0762    0.8504 H   0  0  0  0  0  0  0  0  0  0  0  0
   -0.5545   -1.9377   -1.3370 H   0  0  0  0  0  0  0  0  0  0  0  0
   -1.0999   -4.2448   -1.9691 H   0  0  0  0  0  0  0  0  0  0  0  0
   -1.6945   -4.5131   -0.3084 H   0  0  0  0  0  0  0  0  0  0  0  0
   -3.5949   -4.1293   -1.7563 H   0  0  0  0  0  0  0  0  0  0  0  0
   -3.4770   -2.7634   -0.6688 H   0  0  0  0  0  0  0  0  0  0  0  0
   -2.0021   -1.8377   -2.9564 H   0  0  0  0  0  0  0  0  0  0  0  0
   -3.1353   -2.9746   -3.6662 H   0  0  0  0  0  0  0  0  0  0  0  0
   -4.8675   -1.5017   -1.9514 H   0  0  0  0  0  0  0  0  0  0  0  0
   -4.6704   -1.3231   -3.6946 H   0  0  0  0  0  0  0  0  0  0  0  0
   -4.5101    0.8615   -2.5535 H   0  0  0  0  0  0  0  0  0  0  0  0
   -3.0442    0.4596   -3.4891 H   0  0  0  0  0  0  0  0  0  0  0  0
   -2.4019    1.5289   -1.4010 H   0  0  0  0  0  0  0  0  0  0  0  0
   -1.8411   -0.1537   -1.4025 H   0  0  0  0  0  0  0  0  0  0  0  0
   -4.2937    1.0161    0.0478 H   0  0  0  0  0  0  0  0  0  0  0  0
   -3.9560   -0.7232    0.0272 H   0  0  0  0  0  0  0  0  0  0  0  0
   -3.5518    2.8947    1.4249 H   0  0  0  0  0  0  0  0  0  0  0  0
   -5.1781    4.5899    2.1740 H   0  0  0  0  0  0  0  0  0  0  0  0
   -6.6894    4.0896    4.0804 H   0  0  0  0  0  0  0  0  0  0  0  0
   -5.0143    0.2374    4.5015 H   0  0  0  0  0  0  0  0  0  0  0  0
    3.3727   -0.7707   -0.6272 H   0  0  0  0  0  0  0  0  0  0  0  0
  1  2  1  0
  2  3  1  0
  3  4  1  0
  4  5  1  0
  5  6  2  0
  6  7  1  0
  7  8  2  0
  8  9  1  0
  9 10  1  0
 10 11  2  0
 11 12  1  0
 12 13  2  0
 13 14  1  0
 14 15  2  0
 14 16  1  0
 16 17  1  0
 17 18  1  0
 18 19  1  0
 19 20  1  0
 20 21  1  0
 21 22  1  0
 22 23  1  0
 23 24  1  0
 24 25  1  0
 25 26  1  0
 26 27  2  0
 26 28  1  0
 28 29  2  0
 29 30  1  0
 30 31  2  0
 31 32  1  0
 32 33  2  0
  9 34  2  0
 34  5  1  0
 15 10  1  0
 33 28  1  0
 25 13  1  0
  1 35  1  0
  1 36  1  0
  1 37  1  0
  2 38  1  0
  2 39  1  0
  3 40  1  0
  3 41  1  0
  6 42  1  0
  7 43  1  0
  8 44  1  0
 11 45  1  0
 12 46  1  0
 15 47  1  0
 16 48  1  0
 16 49  1  0
 17 50  1  0
 18 51  1  0
 18 52  1  0
 19 53  1  0
 19 54  1  0
 20 55  1  0
 20 56  1  0
 21 57  1  0
 21 58  1  0
 22 59  1  0
 22 60  1  0
 23 61  1  0
 23 62  1  0
 24 63  1  0
 24 64  1  0
 29 65  1  0
 30 66  1  0
 31 67  1  0
 33 68  1  0
 34 69  1  0
M  END
$$$$
