
     RDKit          3D

 74 76  0  0  0  0  0  0  0  0999 V2000
    4.0403    3.5245    1.5919 C   0  0  0  0  0  0  0  0  0  0  0  0
    2.8347    3.2171    0.6884 C   0  0  0  0  0  0  0  0  0  0  0  0
    2.2565    4.5347    0.1472 C   0  0  0  0  0  0  0  0  0  0  0  0
    3.2236    2.2575   -0.4748 C   0  0  0  0  0  0  0  0  0  0  0  0
    3.7374    0.8819    0.0019 C   0  0  0  0  0  0  0  0  0  0  0  0
    3.8193   -0.0053   -1.1121 O   0  0  0  0  0  0  0  0  0  0  0  0
    4.5476   -1.2051   -1.1836 C   0  0  0  0  0  0  0  0  0  0  0  0
    5.0025   -1.5791   -2.4556 C   0  0  0  0  0  0  0  0  0  0  0  0
    5.7439   -2.7466   -2.6406 C   0  0  0  0  0  0  0  0  0  0  0  0
    6.0341   -3.5691   -1.5530 C   0  0  0  0  0  0  0  0  0  0  0  0
    6.9607   -5.0404   -1.7874 Cl  0  0  0  0  0  0  0  0  0  0  0  0
    5.5712   -3.2293   -0.2805 C   0  0  0  0  0  0  0  0  0  0  0  0
    4.8232   -2.0569   -0.0786 C   0  0  0  0  0  0  0  0  0  0  0  0
    4.2874   -1.8288    1.2723 C   0  0  0  0  0  0  0  0  0  0  0  0
    4.9014   -1.0498    2.0491 O   0  0  0  0  0  0  0  0  0  0  0  0
    3.1378   -2.5409    1.7574 N   0  0  0  0  0  0  0  0  0  0  0  0
    2.3410   -3.4784    0.9581 C   0  0  0  0  0  0  0  0  0  0  0  0
    0.8626   -3.0742    0.9825 C   0  0  0  0  0  0  0  0  0  0  0  0
    0.6180   -1.7909    0.1742 C   0  0  0  0  0  0  0  0  0  0  0  0
   -0.6816   -1.0930    0.6024 C   0  0  0  0  0  0  0  0  0  0  0  0
   -0.8749    0.1811   -0.1152 N   0  0  0  0  0  0  0  0  0  0  0  0
   -2.1470    0.5190   -0.7123 C   0  0  0  0  0  0  0  0  0  0  0  0
   -2.1897    1.3658   -1.6466 O   0  0  0  0  0  0  0  0  0  0  0  0
   -3.4305   -0.1292   -0.2586 C   0  0  0  0  0  0  0  0  0  0  0  0
   -4.5834    0.7736   -0.4750 N   0  0  0  0  0  0  0  0  0  0  0  0
   -4.6426    1.8366    0.5547 C   0  0  0  0  0  0  0  0  0  0  0  0
   -5.8481    0.0071   -0.6524 C   0  0  0  0  0  0  0  0  0  0  0  0
   -6.2624   -0.8510    0.5603 C   0  0  0  0  0  0  0  0  0  0  0  0
   -7.7419   -0.5684    0.8035 C   0  0  0  0  0  0  0  0  0  0  0  0
   -8.2536    0.1271   -0.4476 C   0  0  0  0  0  0  0  0  0  0  0  0
   -7.0588    0.8813   -1.0011 C   0  0  0  0  0  0  0  0  0  0  0  0
    0.1707    1.2176   -0.0500 C   0  0  0  0  0  0  0  0  0  0  0  0
    0.9771    1.2684   -1.3233 C   0  0  0  0  0  0  0  0  0  0  0  0
    0.5777    0.6296   -2.3342 O   0  0  0  0  0  0  0  0  0  0  0  0
    2.1372    2.1077   -1.4597 N   0  0  0  0  0  0  0  0  0  0  0  0
    4.3870    2.6053    2.1076 H   0  0  0  0  0  0  0  0  0  0  0  0
    3.7559    4.2533    2.3799 H   0  0  0  0  0  0  0  0  0  0  0  0
    4.8791    3.9490    0.9996 H   0  0  0  0  0  0  0  0  0  0  0  0
    2.0625    2.7505    1.3299 H   0  0  0  0  0  0  0  0  0  0  0  0
    2.0053    5.2196    0.9853 H   0  0  0  0  0  0  0  0  0  0  0  0
    2.9886    5.0384   -0.5200 H   0  0  0  0  0  0  0  0  0  0  0  0
    1.3207    4.3479   -0.4199 H   0  0  0  0  0  0  0  0  0  0  0  0
    4.0783    2.7338   -1.0087 H   0  0  0  0  0  0  0  0  0  0  0  0
    4.7522    1.0073    0.4363 H   0  0  0  0  0  0  0  0  0  0  0  0
    3.0610    0.4704    0.7738 H   0  0  0  0  0  0  0  0  0  0  0  0
    4.7866   -0.9493   -3.3094 H   0  0  0  0  0  0  0  0  0  0  0  0
    6.0921   -3.0107   -3.6312 H   0  0  0  0  0  0  0  0  0  0  0  0
    5.7804   -3.8905    0.5524 H   0  0  0  0  0  0  0  0  0  0  0  0
    2.8693   -2.4061    2.7590 H   0  0  0  0  0  0  0  0  0  0  0  0
    2.4451   -4.4939    1.3959 H   0  0  0  0  0  0  0  0  0  0  0  0
    2.6916   -3.5289   -0.0942 H   0  0  0  0  0  0  0  0  0  0  0  0
    0.2497   -3.8956    0.5519 H   0  0  0  0  0  0  0  0  0  0  0  0
    0.5481   -2.9391    2.0411 H   0  0  0  0  0  0  0  0  0  0  0  0
    0.5702   -2.0374   -0.9093 H   0  0  0  0  0  0  0  0  0  0  0  0
    1.4705   -1.1052    0.3234 H   0  0  0  0  0  0  0  0  0  0  0  0
   -0.6609   -0.8879    1.6947 H   0  0  0  0  0  0  0  0  0  0  0  0
   -1.5160   -1.7968    0.3990 H   0  0  0  0  0  0  0  0  0  0  0  0
   -3.3587   -0.4063    0.8169 H   0  0  0  0  0  0  0  0  0  0  0  0
   -3.5442   -1.0664   -0.8465 H   0  0  0  0  0  0  0  0  0  0  0  0
   -3.6286    2.1129    0.9172 H   0  0  0  0  0  0  0  0  0  0  0  0
   -5.2540    1.5460    1.4324 H   0  0  0  0  0  0  0  0  0  0  0  0
   -5.0652    2.7605    0.1097 H   0  0  0  0  0  0  0  0  0  0  0  0
   -5.7172   -0.6824   -1.5192 H   0  0  0  0  0  0  0  0  0  0  0  0
   -5.6760   -0.6371    1.4774 H   0  0  0  0  0  0  0  0  0  0  0  0
   -6.1222   -1.9281    0.3199 H   0  0  0  0  0  0  0  0  0  0  0  0
   -8.3083   -1.5043    1.0015 H   0  0  0  0  0  0  0  0  0  0  0  0
   -7.8512    0.1138    1.6755 H   0  0  0  0  0  0  0  0  0  0  0  0
   -8.5900   -0.6335   -1.1870 H   0  0  0  0  0  0  0  0  0  0  0  0
   -9.0975    0.8126   -0.2155 H   0  0  0  0  0  0  0  0  0  0  0  0
   -7.0242    1.8755   -0.5126 H   0  0  0  0  0  0  0  0  0  0  0  0
   -7.1515    1.0274   -2.0996 H   0  0  0  0  0  0  0  0  0  0  0  0
    0.8299    1.0145    0.8129 H   0  0  0  0  0  0  0  0  0  0  0  0
   -0.2912    2.2122    0.1303 H   0  0  0  0  0  0  0  0  0  0  0  0
    2.3412    2.4544   -2.4248 H   0  0  0  0  0  0  0  0  0  0  0  0
  1  2  1  0
  2  3  1  0
  2  4  1  0
  4  5  1  0
  5  6  1  0
  6  7  1  0
  7  8  2  0
  8  9  1  0
  9 10  2  0
 10 11  1  0
 10 12  1  0
 12 13  2  0
 13 14  1  0
 14 15  2  0
 14 16  1  0
 16 17  1  0
 17 18  1  0
 18 19  1  0
 19 20  1  0
 20 21  1  0
 21 22  1  0
 22 23  2  0
 22 24  1  0
 24 25  1  0
 25 26  1  0
 25 27  1  0
 27 28  1  0
 28 29  1  0
 29 30  1  0
 30 31  1  0
 21 32  1  0
 32 33  1  0
 33 34  2  0
 33 35  1  0
 35  4  1  0
 13  7  1  0
 31 27  1  0
  1 36  1  0
  1 37  1  0
  1 38  1  0
  2 39  1  0
  3 40  1  0
  3 41  1  0
  3 42  1  0
  4 43  1  0
  5 44  1  0
  5 45  1  0
  8 46  1  0
  9 47  1  0
 12 48  1  0
 16 49  1  0
 17 50  1  0
 17 51  1  0
 18 52  1  0
 18 53  1  0
 19 54  1  0
 19 55  1  0
 20 56  1  0
 20 57  1  0
 24 58  1  0
 24 59  1  0
 26 60  1  0
 26 61  1  0
 26 62  1  0
 27 63  1  0
 28 64  1  0
 28 65  1  0
 29 66  1  0
 29 67  1  0
 30 68  1  0
 30 69  1  0
 31 70  1  0
 31 71  1  0
 32 72  1  0
 32 73  1  0
 35 74  1  0
M  END
$$$$
