
     RDKit          3D

 74 77  0  0  0  0  0  0  0  0999 V2000
    8.2066   -1.2260    2.7328 C   0  0  0  0  0  0  0  0  0  0  0  0
    7.2220   -1.1172    1.6114 C   0  0  0  0  0  0  0  0  0  0  0  0
    5.8509   -1.0148    1.8653 C   0  0  0  0  0  0  0  0  0  0  0  0
    4.9880   -0.8694    0.8249 N   0  0  0  0  0  0  0  0  0  0  0  0
    5.4155   -0.7947   -0.4649 C   0  0  0  0  0  0  0  0  0  0  0  0
    4.4585   -0.5958   -1.5929 C   0  0  0  0  0  0  0  0  0  0  0  0
    4.8967   -0.7701   -2.7658 O   0  0  0  0  0  0  0  0  0  0  0  0
    3.0610   -0.2231   -1.4144 N   0  0  0  0  0  0  0  0  0  0  0  0
    2.1090   -0.6274   -2.4650 C   0  0  0  0  0  0  0  0  0  0  0  0
    0.9118    0.3229   -2.5394 C   0  0  0  0  0  0  0  0  0  0  0  0
    0.1921    0.4841   -1.1740 C   0  0  0  0  0  0  0  0  0  0  0  0
   -0.3647   -0.8760   -0.6275 C   0  0  0  0  0  0  0  0  0  0  0  0
   -1.3146   -1.6334   -1.5756 C   0  0  0  0  0  0  0  0  0  0  0  0
   -1.7392   -2.9986   -0.9831 C   0  0  0  0  0  0  0  0  0  0  0  0
   -3.2567   -3.2639   -1.0728 C   0  0  0  0  0  0  0  0  0  0  0  0
   -3.9295   -3.1168    0.2734 C   0  0  0  0  0  0  0  0  0  0  0  0
   -4.3056   -4.2673    0.9877 C   0  0  0  0  0  0  0  0  0  0  0  0
   -4.9182   -4.1537    2.2369 C   0  0  0  0  0  0  0  0  0  0  0  0
   -5.1730   -2.8922    2.7791 C   0  0  0  0  0  0  0  0  0  0  0  0
   -4.7990   -1.7399    2.0841 C   0  0  0  0  0  0  0  0  0  0  0  0
   -4.1692   -1.8416    0.8284 C   0  0  0  0  0  0  0  0  0  0  0  0
   -3.7445   -0.7058    0.1200 O   0  0  0  0  0  0  0  0  0  0  0  0
   -4.0207    0.6434    0.4818 C   0  0  0  0  0  0  0  0  0  0  0  0
   -3.3168    1.5848   -0.4967 C   0  0  0  0  0  0  0  0  0  0  0  0
   -1.8641    1.6481   -0.1850 N   0  0  0  0  0  0  0  0  0  0  0  0
   -1.5518    2.6891    0.8378 C   0  0  0  0  0  0  0  0  0  0  0  0
   -1.0818    4.0783    0.3205 C   0  0  0  0  0  0  0  0  0  0  0  0
   -0.8665    5.0194    1.5127 C   0  0  0  0  0  0  0  0  0  0  0  0
   -2.0745    4.7255   -0.6609 C   0  0  0  0  0  0  0  0  0  0  0  0
   -0.9615    1.5281   -1.3668 C   0  0  0  0  0  0  0  0  0  0  0  0
    1.2516    1.0465   -0.1918 C   0  0  0  0  0  0  0  0  0  0  0  0
    2.5460    0.2156   -0.1044 C   0  0  0  0  0  0  0  0  0  0  0  0
    6.7934   -0.9157   -0.7146 C   0  0  0  0  0  0  0  0  0  0  0  0
    7.6582   -1.0639    0.3243 N   0  0  0  0  0  0  0  0  0  0  0  0
    8.3972   -0.2153    3.1526 H   0  0  0  0  0  0  0  0  0  0  0  0
    7.8095   -1.8858    3.5337 H   0  0  0  0  0  0  0  0  0  0  0  0
    9.1647   -1.6527    2.3679 H   0  0  0  0  0  0  0  0  0  0  0  0
    5.4692   -1.0371    2.8786 H   0  0  0  0  0  0  0  0  0  0  0  0
    1.7742   -1.6739   -2.2859 H   0  0  0  0  0  0  0  0  0  0  0  0
    2.5940   -0.6064   -3.4660 H   0  0  0  0  0  0  0  0  0  0  0  0
    1.2867    1.3166   -2.8801 H   0  0  0  0  0  0  0  0  0  0  0  0
    0.2136   -0.0251   -3.3306 H   0  0  0  0  0  0  0  0  0  0  0  0
   -0.9006   -0.6932    0.3278 H   0  0  0  0  0  0  0  0  0  0  0  0
    0.4738   -1.5582   -0.3803 H   0  0  0  0  0  0  0  0  0  0  0  0
   -2.1907   -0.9926   -1.8090 H   0  0  0  0  0  0  0  0  0  0  0  0
   -0.8085   -1.8357   -2.5437 H   0  0  0  0  0  0  0  0  0  0  0  0
   -1.2074   -3.7962   -1.5469 H   0  0  0  0  0  0  0  0  0  0  0  0
   -1.3942   -3.1081    0.0663 H   0  0  0  0  0  0  0  0  0  0  0  0
   -3.4137   -4.2966   -1.4579 H   0  0  0  0  0  0  0  0  0  0  0  0
   -3.7492   -2.5991   -1.8153 H   0  0  0  0  0  0  0  0  0  0  0  0
   -4.1231   -5.2558    0.5790 H   0  0  0  0  0  0  0  0  0  0  0  0
   -5.2181   -5.0448    2.7715 H   0  0  0  0  0  0  0  0  0  0  0  0
   -5.6421   -2.8092    3.7508 H   0  0  0  0  0  0  0  0  0  0  0  0
   -4.9984   -0.7781    2.5333 H   0  0  0  0  0  0  0  0  0  0  0  0
   -5.1172    0.8148    0.4332 H   0  0  0  0  0  0  0  0  0  0  0  0
   -3.6687    0.8384    1.5192 H   0  0  0  0  0  0  0  0  0  0  0  0
   -3.5237    1.2156   -1.5224 H   0  0  0  0  0  0  0  0  0  0  0  0
   -3.7864    2.5888   -0.4275 H   0  0  0  0  0  0  0  0  0  0  0  0
   -0.7896    2.2891    1.5296 H   0  0  0  0  0  0  0  0  0  0  0  0
   -2.4342    2.8553    1.4946 H   0  0  0  0  0  0  0  0  0  0  0  0
   -0.0920    3.9790   -0.1683 H   0  0  0  0  0  0  0  0  0  0  0  0
   -0.1423    4.5742    2.2305 H   0  0  0  0  0  0  0  0  0  0  0  0
   -1.8287    5.2018    2.0389 H   0  0  0  0  0  0  0  0  0  0  0  0
   -0.4533    5.9937    1.1692 H   0  0  0  0  0  0  0  0  0  0  0  0
   -2.2247    4.0921   -1.5599 H   0  0  0  0  0  0  0  0  0  0  0  0
   -1.6731    5.7032   -1.0086 H   0  0  0  0  0  0  0  0  0  0  0  0
   -3.0597    4.9044   -0.1804 H   0  0  0  0  0  0  0  0  0  0  0  0
   -1.5333    1.2231   -2.2661 H   0  0  0  0  0  0  0  0  0  0  0  0
   -0.5407    2.4998   -1.6728 H   0  0  0  0  0  0  0  0  0  0  0  0
    1.5250    2.0821   -0.4918 H   0  0  0  0  0  0  0  0  0  0  0  0
    0.8393    1.0933    0.8332 H   0  0  0  0  0  0  0  0  0  0  0  0
    3.2956    0.8697    0.3921 H   0  0  0  0  0  0  0  0  0  0  0  0
    2.3783   -0.6735    0.5396 H   0  0  0  0  0  0  0  0  0  0  0  0
    7.1829   -0.8761   -1.7214 H   0  0  0  0  0  0  0  0  0  0  0  0
  1  2  1  0
  2  3  2  0
  3  4  1  0
  4  5  2  0
  5  6  1  0
  6  7  2  0
  6  8  1  0
  8  9  1  0
  9 10  1  0
 10 11  1  0
 11 12  1  0
 12 13  1  0
 13 14  1  0
 14 15  1  0
 15 16  1  0
 16 17  2  0
 17 18  1  0
 18 19  2  0
 19 20  1  0
 20 21  2  0
 21 22  1  0
 22 23  1  0
 23 24  1  0
 24 25  1  0
 25 26  1  0
 26 27  1  0
 27 28  1  0
 27 29  1  0
 25 30  1  0
 11 31  1  0
 31 32  1  0
  5 33  1  0
 33 34  2  0
 34  2  1  0
 32  8  1  0
 30 11  1  0
 21 16  1  0
  1 35  1  0
  1 36  1  0
  1 37  1  0
  3 38  1  0
  9 39  1  0
  9 40  1  0
 10 41  1  0
 10 42  1  0
 12 43  1  0
 12 44  1  0
 13 45  1  0
 13 46  1  0
 14 47  1  0
 14 48  1  0
 15 49  1  0
 15 50  1  0
 17 51  1  0
 18 52  1  0
 19 53  1  0
 20 54  1  0
 23 55  1  0
 23 56  1  0
 24 57  1  0
 24 58  1  0
 26 59  1  0
 26 60  1  0
 27 61  1  0
 28 62  1  0
 28 63  1  0
 28 64  1  0
 29 65  1  0
 29 66  1  0
 29 67  1  0
 30 68  1  0
 30 69  1  0
 31 70  1  0
 31 71  1  0
 32 72  1  0
 32 73  1  0
 33 74  1  0
M  END
$$$$
