
     RDKit          3D

 72 73  0  0  0  0  0  0  0  0999 V2000
    4.8186   -0.6165   -1.2977 C   0  0  0  0  0  0  0  0  0  0  0  0
    4.2375    0.7544   -0.9613 C   0  0  0  0  0  0  0  0  0  0  0  0
    4.5261    1.1324    0.4335 N   0  0  0  0  0  0  0  0  0  0  0  0
    5.8310    1.7304    0.7560 C   0  0  0  0  0  0  0  0  0  0  0  0
    5.8104    3.2416    0.5216 C   0  0  0  0  0  0  0  0  0  0  0  0
    7.0501    3.7864    0.8757 O   0  0  0  0  0  0  0  0  0  0  0  0
    3.4816    1.1227    1.4329 C   0  0  0  0  0  0  0  0  0  0  0  0
    3.5414    1.9099    2.4150 O   0  0  0  0  0  0  0  0  0  0  0  0
    2.3317    0.2087    1.3343 C   0  0  0  0  0  0  0  0  0  0  0  0
    2.5248   -1.1743    1.3663 C   0  0  0  0  0  0  0  0  0  0  0  0
    1.4383   -2.0381    1.2238 C   0  0  0  0  0  0  0  0  0  0  0  0
    0.1367   -1.5362    1.0611 C   0  0  0  0  0  0  0  0  0  0  0  0
   -0.0698   -0.1333    1.0958 C   0  0  0  0  0  0  0  0  0  0  0  0
    1.0358    0.7241    1.2241 C   0  0  0  0  0  0  0  0  0  0  0  0
   -1.4379    0.4757    0.9843 C   0  0  0  0  0  0  0  0  0  0  0  0
   -1.8254    0.6254   -0.4342 N   0  0  0  0  0  0  0  0  0  0  0  0
   -1.8476    2.0311   -0.8987 C   0  0  0  0  0  0  0  0  0  0  0  0
   -1.3043    2.1361   -2.3380 C   0  0  0  0  0  0  0  0  0  0  0  0
   -1.4895    3.5623   -2.8734 C   0  0  0  0  0  0  0  0  0  0  0  0
    0.1786    1.7364   -2.3998 C   0  0  0  0  0  0  0  0  0  0  0  0
   -3.0556   -0.1263   -0.7792 C   0  0  0  0  0  0  0  0  0  0  0  0
   -4.3150    0.2949    0.0267 C   0  0  0  0  0  0  0  0  0  0  0  0
   -5.1439   -0.9093    0.5368 C   0  0  0  0  0  0  0  0  0  0  0  0
   -4.7570   -1.3796    1.9663 C   0  0  0  0  0  0  0  0  0  0  0  0
   -4.4364   -2.8826    2.0930 C   0  0  0  0  0  0  0  0  0  0  0  0
   -3.2167   -3.3702    1.2893 C   0  0  0  0  0  0  0  0  0  0  0  0
   -1.8381   -2.9039    1.8328 C   0  0  0  0  0  0  0  0  0  0  0  0
   -0.9286   -2.4631    0.7541 N   0  0  0  0  0  0  0  0  0  0  0  0
   -0.7814   -3.2578   -0.4448 C   0  0  0  0  0  0  0  0  0  0  0  0
   -0.1942   -2.6647   -1.6894 C   0  0  0  0  0  0  0  0  0  0  0  0
   -1.1132   -4.4752   -0.4476 O   0  0  0  0  0  0  0  0  0  0  0  0
    5.9067   -0.6469   -1.0814 H   0  0  0  0  0  0  0  0  0  0  0  0
    4.6664   -0.8340   -2.3768 H   0  0  0  0  0  0  0  0  0  0  0  0
    4.3126   -1.4132   -0.7203 H   0  0  0  0  0  0  0  0  0  0  0  0
    3.1433    0.7499   -1.1553 H   0  0  0  0  0  0  0  0  0  0  0  0
    4.6747    1.5082   -1.6501 H   0  0  0  0  0  0  0  0  0  0  0  0
    6.6269    1.2749    0.1275 H   0  0  0  0  0  0  0  0  0  0  0  0
    6.0966    1.5190    1.8156 H   0  0  0  0  0  0  0  0  0  0  0  0
    5.6041    3.4475   -0.5521 H   0  0  0  0  0  0  0  0  0  0  0  0
    5.0094    3.7093    1.1350 H   0  0  0  0  0  0  0  0  0  0  0  0
    6.9917    4.7587    0.6746 H   0  0  0  0  0  0  0  0  0  0  0  0
    3.5186   -1.5856    1.4958 H   0  0  0  0  0  0  0  0  0  0  0  0
    1.6107   -3.1072    1.2126 H   0  0  0  0  0  0  0  0  0  0  0  0
    0.8888    1.7977    1.2178 H   0  0  0  0  0  0  0  0  0  0  0  0
   -2.1295   -0.1716    1.5295 H   0  0  0  0  0  0  0  0  0  0  0  0
   -1.4826    1.4398    1.5381 H   0  0  0  0  0  0  0  0  0  0  0  0
   -1.2109    2.6812   -0.2566 H   0  0  0  0  0  0  0  0  0  0  0  0
   -2.8799    2.4477   -0.8502 H   0  0  0  0  0  0  0  0  0  0  0  0
   -1.8784    1.4519   -3.0006 H   0  0  0  0  0  0  0  0  0  0  0  0
   -2.5642    3.8464   -2.8474 H   0  0  0  0  0  0  0  0  0  0  0  0
   -1.1439    3.6230   -3.9279 H   0  0  0  0  0  0  0  0  0  0  0  0
   -0.9111    4.2890   -2.2598 H   0  0  0  0  0  0  0  0  0  0  0  0
    0.7927    2.4003   -1.7517 H   0  0  0  0  0  0  0  0  0  0  0  0
    0.5489    1.8127   -3.4464 H   0  0  0  0  0  0  0  0  0  0  0  0
    0.3125    0.6860   -2.0665 H   0  0  0  0  0  0  0  0  0  0  0  0
   -3.2696   -0.0259   -1.8648 H   0  0  0  0  0  0  0  0  0  0  0  0
   -2.8438   -1.1976   -0.6440 H   0  0  0  0  0  0  0  0  0  0  0  0
   -4.0678    0.9761    0.8681 H   0  0  0  0  0  0  0  0  0  0  0  0
   -4.9630    0.8901   -0.6532 H   0  0  0  0  0  0  0  0  0  0  0  0
   -5.1177   -1.7390   -0.1997 H   0  0  0  0  0  0  0  0  0  0  0  0
   -6.2097   -0.5895    0.5660 H   0  0  0  0  0  0  0  0  0  0  0  0
   -3.9443   -0.7841    2.4124 H   0  0  0  0  0  0  0  0  0  0  0  0
   -5.6250   -1.1807    2.6332 H   0  0  0  0  0  0  0  0  0  0  0  0
   -5.3278   -3.4590    1.7606 H   0  0  0  0  0  0  0  0  0  0  0  0
   -4.2784   -3.1269    3.1660 H   0  0  0  0  0  0  0  0  0  0  0  0
   -3.3549   -3.1170    0.2230 H   0  0  0  0  0  0  0  0  0  0  0  0
   -3.2292   -4.4817    1.3209 H   0  0  0  0  0  0  0  0  0  0  0  0
   -1.3593   -3.7490    2.3751 H   0  0  0  0  0  0  0  0  0  0  0  0
   -1.9616   -2.1014    2.5874 H   0  0  0  0  0  0  0  0  0  0  0  0
   -0.5553   -3.2136   -2.5844 H   0  0  0  0  0  0  0  0  0  0  0  0
   -0.4977   -1.6005   -1.7819 H   0  0  0  0  0  0  0  0  0  0  0  0
    0.9134   -2.7267   -1.6475 H   0  0  0  0  0  0  0  0  0  0  0  0
  1  2  1  0
  2  3  1  0
  3  4  1  0
  4  5  1  0
  5  6  1  0
  3  7  1  0
  7  8  2  0
  7  9  1  0
  9 10  2  0
 10 11  1  0
 11 12  2  0
 12 13  1  0
 13 14  2  0
 13 15  1  0
 15 16  1  0
 16 17  1  0
 17 18  1  0
 18 19  1  0
 18 20  1  0
 16 21  1  0
 21 22  1  0
 22 23  1  0
 23 24  1  0
 24 25  1  0
 25 26  1  0
 26 27  1  0
 27 28  1  0
 28 29  1  0
 29 30  1  0
 29 31  2  0
 14  9  1  0
 28 12  1  0
  1 32  1  0
  1 33  1  0
  1 34  1  0
  2 35  1  0
  2 36  1  0
  4 37  1  0
  4 38  1  0
  5 39  1  0
  5 40  1  0
  6 41  1  0
 10 42  1  0
 11 43  1  0
 14 44  1  0
 15 45  1  0
 15 46  1  0
 17 47  1  0
 17 48  1  0
 18 49  1  0
 19 50  1  0
 19 51  1  0
 19 52  1  0
 20 53  1  0
 20 54  1  0
 20 55  1  0
 21 56  1  0
 21 57  1  0
 22 58  1  0
 22 59  1  0
 23 60  1  0
 23 61  1  0
 24 62  1  0
 24 63  1  0
 25 64  1  0
 25 65  1  0
 26 66  1  0
 26 67  1  0
 27 68  1  0
 27 69  1  0
 30 70  1  0
 30 71  1  0
 30 72  1  0
M  END
$$$$
