
     RDKit          3D

 65 67  0  0  0  0  0  0  0  0999 V2000
    2.8744    3.6700   -0.0324 C   0  0  0  0  0  0  0  0  0  0  0  0
    2.8110    2.7395   -1.2528 C   0  0  0  0  0  0  0  0  0  0  0  0
    3.4510    1.3430   -1.0458 C   0  0  0  0  0  0  0  0  0  0  0  0
    3.6919    1.0670    0.3345 O   0  0  0  0  0  0  0  0  0  0  0  0
    4.6009    0.1228    0.8454 C   0  0  0  0  0  0  0  0  0  0  0  0
    5.1142    0.3753    2.1245 C   0  0  0  0  0  0  0  0  0  0  0  0
    6.0628   -0.4726    2.6977 C   0  0  0  0  0  0  0  0  0  0  0  0
    6.5095   -1.5950    1.9999 C   0  0  0  0  0  0  0  0  0  0  0  0
    7.7026   -2.6593    2.7213 Cl  0  0  0  0  0  0  0  0  0  0  0  0
    5.9905   -1.8815    0.7353 C   0  0  0  0  0  0  0  0  0  0  0  0
    5.0248   -1.0451    0.1530 C   0  0  0  0  0  0  0  0  0  0  0  0
    4.4317   -1.4772   -1.1227 C   0  0  0  0  0  0  0  0  0  0  0  0
    5.1067   -1.3679   -2.1806 O   0  0  0  0  0  0  0  0  0  0  0  0
    3.1115   -2.0349   -1.1821 N   0  0  0  0  0  0  0  0  0  0  0  0
    2.4093   -2.5214    0.0082 C   0  0  0  0  0  0  0  0  0  0  0  0
    0.9266   -2.7981   -0.2893 C   0  0  0  0  0  0  0  0  0  0  0  0
    0.1266   -1.5093   -0.5465 C   0  0  0  0  0  0  0  0  0  0  0  0
   -0.2794   -0.8064    0.7588 C   0  0  0  0  0  0  0  0  0  0  0  0
   -0.7495    0.5613    0.4879 N   0  0  0  0  0  0  0  0  0  0  0  0
   -2.1558    0.9011    0.5185 C   0  0  0  0  0  0  0  0  0  0  0  0
   -2.4981    2.1019    0.7029 O   0  0  0  0  0  0  0  0  0  0  0  0
   -3.2292   -0.1527    0.3867 C   0  0  0  0  0  0  0  0  0  0  0  0
   -4.4967    0.3920   -0.2901 C   0  0  0  0  0  0  0  0  0  0  0  0
   -5.4721   -0.6997   -0.5146 N   0  0  0  0  0  0  0  0  0  0  0  0
   -6.2615   -0.9817    0.6979 C   0  0  0  0  0  0  0  0  0  0  0  0
   -7.6021   -0.2617    0.5800 C   0  0  0  0  0  0  0  0  0  0  0  0
   -7.6318    0.3223   -0.8170 C   0  0  0  0  0  0  0  0  0  0  0  0
   -6.4646   -0.3289   -1.5327 C   0  0  0  0  0  0  0  0  0  0  0  0
    0.2531    1.6163    0.2562 C   0  0  0  0  0  0  0  0  0  0  0  0
    0.2939    2.0326   -1.1933 C   0  0  0  0  0  0  0  0  0  0  0  0
   -0.7473    1.9030   -1.8928 O   0  0  0  0  0  0  0  0  0  0  0  0
    1.4474    2.6486   -1.7993 N   0  0  0  0  0  0  0  0  0  0  0  0
    2.3470    3.2513    0.8454 H   0  0  0  0  0  0  0  0  0  0  0  0
    3.9347    3.8413    0.2524 H   0  0  0  0  0  0  0  0  0  0  0  0
    2.4185    4.6512   -0.2834 H   0  0  0  0  0  0  0  0  0  0  0  0
    3.4291    3.2460   -2.0294 H   0  0  0  0  0  0  0  0  0  0  0  0
    2.7880    0.5651   -1.4739 H   0  0  0  0  0  0  0  0  0  0  0  0
    4.4196    1.3128   -1.5924 H   0  0  0  0  0  0  0  0  0  0  0  0
    4.7884    1.2516    2.6708 H   0  0  0  0  0  0  0  0  0  0  0  0
    6.4548   -0.2514    3.6824 H   0  0  0  0  0  0  0  0  0  0  0  0
    6.3199   -2.7740    0.2160 H   0  0  0  0  0  0  0  0  0  0  0  0
    2.6848   -2.1764   -2.1259 H   0  0  0  0  0  0  0  0  0  0  0  0
    2.4950   -1.7837    0.8311 H   0  0  0  0  0  0  0  0  0  0  0  0
    2.8932   -3.4619    0.3474 H   0  0  0  0  0  0  0  0  0  0  0  0
    0.8545   -3.4566   -1.1822 H   0  0  0  0  0  0  0  0  0  0  0  0
    0.4777   -3.3561    0.5613 H   0  0  0  0  0  0  0  0  0  0  0  0
    0.7167   -0.8222   -1.1883 H   0  0  0  0  0  0  0  0  0  0  0  0
   -0.7933   -1.7691   -1.1114 H   0  0  0  0  0  0  0  0  0  0  0  0
    0.5774   -0.7599    1.4627 H   0  0  0  0  0  0  0  0  0  0  0  0
   -1.0577   -1.4027    1.2803 H   0  0  0  0  0  0  0  0  0  0  0  0
   -2.8538   -0.9951   -0.2294 H   0  0  0  0  0  0  0  0  0  0  0  0
   -3.4653   -0.5391    1.3995 H   0  0  0  0  0  0  0  0  0  0  0  0
   -4.1778    0.8317   -1.2621 H   0  0  0  0  0  0  0  0  0  0  0  0
   -4.9453    1.2106    0.3187 H   0  0  0  0  0  0  0  0  0  0  0  0
   -5.7438   -0.6819    1.6356 H   0  0  0  0  0  0  0  0  0  0  0  0
   -6.4352   -2.0784    0.7564 H   0  0  0  0  0  0  0  0  0  0  0  0
   -7.6843    0.5456    1.3404 H   0  0  0  0  0  0  0  0  0  0  0  0
   -8.4399   -0.9796    0.7197 H   0  0  0  0  0  0  0  0  0  0  0  0
   -7.4742    1.4222   -0.7718 H   0  0  0  0  0  0  0  0  0  0  0  0
   -8.5931    0.1070   -1.3319 H   0  0  0  0  0  0  0  0  0  0  0  0
   -6.0572    0.3365   -2.3257 H   0  0  0  0  0  0  0  0  0  0  0  0
   -6.8172   -1.2573   -2.0335 H   0  0  0  0  0  0  0  0  0  0  0  0
    0.0263    2.5007    0.8884 H   0  0  0  0  0  0  0  0  0  0  0  0
    1.2462    1.2474    0.5631 H   0  0  0  0  0  0  0  0  0  0  0  0
    1.3145    3.0208   -2.7673 H   0  0  0  0  0  0  0  0  0  0  0  0
  1  2  1  0
  2  3  1  0
  3  4  1  0
  4  5  1  0
  5  6  2  0
  6  7  1  0
  7  8  2  0
  8  9  1  0
  8 10  1  0
 10 11  2  0
 11 12  1  0
 12 13  2  0
 12 14  1  0
 14 15  1  0
 15 16  1  0
 16 17  1  0
 17 18  1  0
 18 19  1  0
 19 20  1  0
 20 21  2  0
 20 22  1  0
 22 23  1  0
 23 24  1  0
 24 25  1  0
 25 26  1  0
 26 27  1  0
 27 28  1  0
 19 29  1  0
 29 30  1  0
 30 31  2  0
 30 32  1  0
 32  2  1  0
 11  5  1  0
 28 24  1  0
  1 33  1  0
  1 34  1  0
  1 35  1  0
  2 36  1  0
  3 37  1  0
  3 38  1  0
  6 39  1  0
  7 40  1  0
 10 41  1  0
 14 42  1  0
 15 43  1  0
 15 44  1  0
 16 45  1  0
 16 46  1  0
 17 47  1  0
 17 48  1  0
 18 49  1  0
 18 50  1  0
 22 51  1  0
 22 52  1  0
 23 53  1  0
 23 54  1  0
 25 55  1  0
 25 56  1  0
 26 57  1  0
 26 58  1  0
 27 59  1  0
 27 60  1  0
 28 61  1  0
 28 62  1  0
 29 63  1  0
 29 64  1  0
 32 65  1  0
M  END
$$$$
