
     RDKit          3D

 63 66  0  0  0  0  0  0  0  0999 V2000
   -3.8114   -3.7364    0.4138 C   0  0  0  0  0  0  0  0  0  0  0  0
   -3.4283   -2.3725    0.0254 N   0  0  0  0  0  0  0  0  0  0  0  0
   -2.8394   -2.1217   -1.2972 C   0  0  0  0  0  0  0  0  0  0  0  0
   -1.3093   -2.2570   -1.2120 C   0  0  0  0  0  0  0  0  0  0  0  0
   -0.5741   -1.3184   -2.1896 C   0  0  0  0  0  0  0  0  0  0  0  0
    0.9151   -1.1926   -1.8341 C   0  0  0  0  0  0  0  0  0  0  0  0
    1.1160   -0.5969   -0.4952 N   0  0  0  0  0  0  0  0  0  0  0  0
    1.6142   -1.4262    0.5794 C   0  0  0  0  0  0  0  0  0  0  0  0
    0.9645   -1.4918    1.6573 O   0  0  0  0  0  0  0  0  0  0  0  0
    2.8872   -2.1872    0.4605 C   0  0  0  0  0  0  0  0  0  0  0  0
    3.2028   -3.1831    1.4043 C   0  0  0  0  0  0  0  0  0  0  0  0
    4.4048   -3.8907    1.3113 C   0  0  0  0  0  0  0  0  0  0  0  0
    5.3101   -3.6063    0.2855 C   0  0  0  0  0  0  0  0  0  0  0  0
    5.0068   -2.6285   -0.6680 C   0  0  0  0  0  0  0  0  0  0  0  0
    5.8916   -2.3355   -1.6490 F   0  0  0  0  0  0  0  0  0  0  0  0
    3.8064   -1.9179   -0.5771 C   0  0  0  0  0  0  0  0  0  0  0  0
    0.8973    0.8526   -0.2823 C   0  0  0  0  0  0  0  0  0  0  0  0
    2.1919    1.5010    0.2633 C   0  0  0  0  0  0  0  0  0  0  0  0
    2.1462    3.0079    0.2555 C   0  0  0  0  0  0  0  0  0  0  0  0
    1.7954    3.7133    1.4199 C   0  0  0  0  0  0  0  0  0  0  0  0
    1.7484    5.1062    1.4131 C   0  0  0  0  0  0  0  0  0  0  0  0
    2.0552    5.8112    0.2465 C   0  0  0  0  0  0  0  0  0  0  0  0
    2.3976    5.1219   -0.9201 C   0  0  0  0  0  0  0  0  0  0  0  0
    2.4291    3.7241   -0.9221 C   0  0  0  0  0  0  0  0  0  0  0  0
   -0.3126    1.1205    0.6468 C   0  0  0  0  0  0  0  0  0  0  0  0
   -1.4986    0.5437    0.0843 O   0  0  0  0  0  0  0  0  0  0  0  0
   -2.7989    0.9916    0.3450 C   0  0  0  0  0  0  0  0  0  0  0  0
   -3.1389    2.3515    0.2123 C   0  0  0  0  0  0  0  0  0  0  0  0
   -4.4582    2.7692    0.4055 C   0  0  0  0  0  0  0  0  0  0  0  0
   -5.4521    1.8353    0.7183 C   0  0  0  0  0  0  0  0  0  0  0  0
   -5.1239    0.4830    0.8597 C   0  0  0  0  0  0  0  0  0  0  0  0
   -3.8019    0.0530    0.6775 C   0  0  0  0  0  0  0  0  0  0  0  0
   -3.4626   -1.3325    1.0222 C   0  0  0  0  0  0  0  0  0  0  0  0
   -3.2197   -1.6007    2.2278 O   0  0  0  0  0  0  0  0  0  0  0  0
   -3.7985   -4.4215   -0.4624 H   0  0  0  0  0  0  0  0  0  0  0  0
   -3.0921   -4.1248    1.1707 H   0  0  0  0  0  0  0  0  0  0  0  0
   -4.8412   -3.7433    0.8410 H   0  0  0  0  0  0  0  0  0  0  0  0
   -3.1414   -1.1138   -1.6604 H   0  0  0  0  0  0  0  0  0  0  0  0
   -3.2254   -2.8499   -2.0433 H   0  0  0  0  0  0  0  0  0  0  0  0
   -0.9914   -2.0380   -0.1667 H   0  0  0  0  0  0  0  0  0  0  0  0
   -1.0281   -3.3150   -1.4082 H   0  0  0  0  0  0  0  0  0  0  0  0
   -1.0257   -0.3027   -2.2063 H   0  0  0  0  0  0  0  0  0  0  0  0
   -0.6644   -1.7252   -3.2230 H   0  0  0  0  0  0  0  0  0  0  0  0
    1.4214   -0.5659   -2.5954 H   0  0  0  0  0  0  0  0  0  0  0  0
    1.3684   -2.2016   -1.8887 H   0  0  0  0  0  0  0  0  0  0  0  0
    2.5190   -3.4204    2.2106 H   0  0  0  0  0  0  0  0  0  0  0  0
    4.6368   -4.6455    2.0481 H   0  0  0  0  0  0  0  0  0  0  0  0
    6.2445   -4.1487    0.2210 H   0  0  0  0  0  0  0  0  0  0  0  0
    3.6054   -1.1413   -1.3029 H   0  0  0  0  0  0  0  0  0  0  0  0
    0.6623    1.3244   -1.2664 H   0  0  0  0  0  0  0  0  0  0  0  0
    2.3971    1.1419    1.2895 H   0  0  0  0  0  0  0  0  0  0  0  0
    3.0448    1.1672   -0.3600 H   0  0  0  0  0  0  0  0  0  0  0  0
    1.5550    3.1897    2.3372 H   0  0  0  0  0  0  0  0  0  0  0  0
    1.4848    5.6421    2.3134 H   0  0  0  0  0  0  0  0  0  0  0  0
    2.0373    6.8930    0.2458 H   0  0  0  0  0  0  0  0  0  0  0  0
    2.6521    5.6698   -1.8171 H   0  0  0  0  0  0  0  0  0  0  0  0
    2.7019    3.1936   -1.8264 H   0  0  0  0  0  0  0  0  0  0  0  0
   -0.4409    2.2203    0.7764 H   0  0  0  0  0  0  0  0  0  0  0  0
   -0.1522    0.6878    1.6611 H   0  0  0  0  0  0  0  0  0  0  0  0
   -2.3923    3.0866   -0.0707 H   0  0  0  0  0  0  0  0  0  0  0  0
   -4.7134    3.8206    0.2993 H   0  0  0  0  0  0  0  0  0  0  0  0
   -6.4782    2.1574    0.8607 H   0  0  0  0  0  0  0  0  0  0  0  0
   -5.8962   -0.2272    1.1348 H   0  0  0  0  0  0  0  0  0  0  0  0
  1  2  1  0
  2  3  1  0
  3  4  1  0
  4  5  1  0
  5  6  1  0
  6  7  1  0
  7  8  1  0
  8  9  2  0
  8 10  1  0
 10 11  2  0
 11 12  1  0
 12 13  2  0
 13 14  1  0
 14 15  1  0
 14 16  2  0
  7 17  1  0
 17 18  1  0
 18 19  1  0
 19 20  2  0
 20 21  1  0
 21 22  2  0
 22 23  1  0
 23 24  2  0
 17 25  1  0
 25 26  1  0
 26 27  1  0
 27 28  2  0
 28 29  1  0
 29 30  2  0
 30 31  1  0
 31 32  2  0
 32 33  1  0
 33 34  2  0
 33  2  1  0
 16 10  1  0
 24 19  1  0
 32 27  1  0
  1 35  1  0
  1 36  1  0
  1 37  1  0
  3 38  1  0
  3 39  1  0
  4 40  1  0
  4 41  1  0
  5 42  1  0
  5 43  1  0
  6 44  1  0
  6 45  1  0
 11 46  1  0
 12 47  1  0
 13 48  1  0
 16 49  1  0
 17 50  1  0
 18 51  1  0
 18 52  1  0
 20 53  1  0
 21 54  1  0
 22 55  1  0
 23 56  1  0
 24 57  1  0
 25 58  1  0
 25 59  1  0
 28 60  1  0
 29 61  1  0
 30 62  1  0
 31 63  1  0
M  END
$$$$
