
     RDKit          3D

 65 67  0  0  0  0  0  0  0  0999 V2000
    7.2176    2.4687    4.0261 C   0  0  0  0  0  0  0  0  0  0  0  0
    6.0722    2.1378    3.0738 C   0  0  0  0  0  0  0  0  0  0  0  0
    5.3185    0.8860    3.5309 C   0  0  0  0  0  0  0  0  0  0  0  0
    4.2001    0.5738    2.5878 C   0  0  0  0  0  0  0  0  0  0  0  0
    4.2928   -0.1535    1.4209 C   0  0  0  0  0  0  0  0  0  0  0  0
    3.0060   -0.1235    0.9194 C   0  0  0  0  0  0  0  0  0  0  0  0
    2.5466   -0.8003   -0.3108 C   0  0  0  0  0  0  0  0  0  0  0  0
    3.3312   -1.6058   -0.8832 O   0  0  0  0  0  0  0  0  0  0  0  0
    1.2266   -0.5871   -0.8581 N   0  0  0  0  0  0  0  0  0  0  0  0
    0.5777   -1.7173   -1.5567 C   0  0  0  0  0  0  0  0  0  0  0  0
    0.2570   -2.8699   -0.5812 C   0  0  0  0  0  0  0  0  0  0  0  0
   -0.8603   -3.7883   -1.1090 C   0  0  0  0  0  0  0  0  0  0  0  0
   -2.0851   -3.0185   -1.4305 N   0  0  0  0  0  0  0  0  0  0  0  0
   -2.8534   -3.6831   -2.4964 C   0  0  0  0  0  0  0  0  0  0  0  0
   -2.9383   -2.7535   -0.2471 C   0  0  0  0  0  0  0  0  0  0  0  0
   -3.4239   -1.2923   -0.2744 C   0  0  0  0  0  0  0  0  0  0  0  0
   -2.3645   -0.3341    0.2989 C   0  0  0  0  0  0  0  0  0  0  0  0
   -2.3874    0.9794   -0.3633 N   0  0  0  0  0  0  0  0  0  0  0  0
   -3.0940    2.1050    0.2054 C   0  0  0  0  0  0  0  0  0  0  0  0
   -2.8685    3.2637   -0.2427 O   0  0  0  0  0  0  0  0  0  0  0  0
   -4.0490    1.9368    1.3633 C   0  0  0  0  0  0  0  0  0  0  0  0
   -5.0539    3.0832    1.4683 C   0  0  0  0  0  0  0  0  0  0  0  0
   -1.7842    1.1265   -1.6672 C   0  0  0  0  0  0  0  0  0  0  0  0
   -2.6212    1.3876   -2.7651 C   0  0  0  0  0  0  0  0  0  0  0  0
   -2.0894    1.5657   -4.0430 C   0  0  0  0  0  0  0  0  0  0  0  0
   -2.9155    1.8128   -5.0899 F   0  0  0  0  0  0  0  0  0  0  0  0
   -0.7108    1.4928   -4.2421 C   0  0  0  0  0  0  0  0  0  0  0  0
   -0.1936    1.6642   -5.4837 F   0  0  0  0  0  0  0  0  0  0  0  0
    0.1388    1.2401   -3.1639 C   0  0  0  0  0  0  0  0  0  0  0  0
   -0.3773    1.0553   -1.8687 C   0  0  0  0  0  0  0  0  0  0  0  0
    0.6026    0.7551   -0.7522 C   0  0  0  0  0  0  0  0  0  0  0  0
    2.2137    0.5772    1.7551 N   0  0  0  0  0  0  0  0  0  0  0  0
    2.9630    0.9853    2.7376 O   0  0  0  0  0  0  0  0  0  0  0  0
    7.7372    3.3864    3.6792 H   0  0  0  0  0  0  0  0  0  0  0  0
    6.8280    2.6479    5.0510 H   0  0  0  0  0  0  0  0  0  0  0  0
    7.9500    1.6339    4.0527 H   0  0  0  0  0  0  0  0  0  0  0  0
    6.4868    1.9763    2.0547 H   0  0  0  0  0  0  0  0  0  0  0  0
    5.3733    3.0023    3.0366 H   0  0  0  0  0  0  0  0  0  0  0  0
    6.0129    0.0183    3.5769 H   0  0  0  0  0  0  0  0  0  0  0  0
    4.8987    1.0507    4.5472 H   0  0  0  0  0  0  0  0  0  0  0  0
    5.1675   -0.6327    1.0005 H   0  0  0  0  0  0  0  0  0  0  0  0
    1.2433   -2.0904   -2.3651 H   0  0  0  0  0  0  0  0  0  0  0  0
   -0.3485   -1.3930   -2.0638 H   0  0  0  0  0  0  0  0  0  0  0  0
   -0.0228   -2.4807    0.4185 H   0  0  0  0  0  0  0  0  0  0  0  0
    1.1752   -3.4776   -0.4300 H   0  0  0  0  0  0  0  0  0  0  0  0
   -1.0767   -4.5884   -0.3657 H   0  0  0  0  0  0  0  0  0  0  0  0
   -0.4606   -4.2934   -2.0180 H   0  0  0  0  0  0  0  0  0  0  0  0
   -3.7783   -3.1097   -2.7224 H   0  0  0  0  0  0  0  0  0  0  0  0
   -3.1302   -4.7193   -2.2001 H   0  0  0  0  0  0  0  0  0  0  0  0
   -2.2549   -3.7177   -3.4317 H   0  0  0  0  0  0  0  0  0  0  0  0
   -2.3979   -2.9388    0.7086 H   0  0  0  0  0  0  0  0  0  0  0  0
   -3.8236   -3.4295   -0.2241 H   0  0  0  0  0  0  0  0  0  0  0  0
   -4.3493   -1.2089    0.3339 H   0  0  0  0  0  0  0  0  0  0  0  0
   -3.6893   -1.0098   -1.3160 H   0  0  0  0  0  0  0  0  0  0  0  0
   -1.3689   -0.7733    0.1752 H   0  0  0  0  0  0  0  0  0  0  0  0
   -2.4985   -0.2322    1.3968 H   0  0  0  0  0  0  0  0  0  0  0  0
   -4.6229    0.9954    1.2407 H   0  0  0  0  0  0  0  0  0  0  0  0
   -3.4660    1.8768    2.3067 H   0  0  0  0  0  0  0  0  0  0  0  0
   -4.5305    4.0402    1.6788 H   0  0  0  0  0  0  0  0  0  0  0  0
   -5.6310    3.1768    0.5233 H   0  0  0  0  0  0  0  0  0  0  0  0
   -5.7630    2.8811    2.2990 H   0  0  0  0  0  0  0  0  0  0  0  0
   -3.6931    1.4490   -2.6237 H   0  0  0  0  0  0  0  0  0  0  0  0
    1.2064    1.1798   -3.3382 H   0  0  0  0  0  0  0  0  0  0  0  0
    1.3988    1.5304   -0.8038 H   0  0  0  0  0  0  0  0  0  0  0  0
    0.1336    0.8800    0.2434 H   0  0  0  0  0  0  0  0  0  0  0  0
  1  2  1  0
  2  3  1  0
  3  4  1  0
  4  5  2  0
  5  6  1  0
  6  7  1  0
  7  8  2  0
  7  9  1  0
  9 10  1  0
 10 11  1  0
 11 12  1  0
 12 13  1  0
 13 14  1  0
 13 15  1  0
 15 16  1  0
 16 17  1  0
 17 18  1  0
 18 19  1  0
 19 20  2  0
 19 21  1  0
 21 22  1  0
 18 23  1  0
 23 24  2  0
 24 25  1  0
 25 26  1  0
 25 27  2  0
 27 28  1  0
 27 29  1  0
 29 30  2  0
 30 31  1  0
  6 32  2  0
 32 33  1  0
 33  4  1  0
 31  9  1  0
 30 23  1  0
  1 34  1  0
  1 35  1  0
  1 36  1  0
  2 37  1  0
  2 38  1  0
  3 39  1  0
  3 40  1  0
  5 41  1  0
 10 42  1  0
 10 43  1  0
 11 44  1  0
 11 45  1  0
 12 46  1  0
 12 47  1  0
 14 48  1  0
 14 49  1  0
 14 50  1  0
 15 51  1  0
 15 52  1  0
 16 53  1  0
 16 54  1  0
 17 55  1  0
 17 56  1  0
 21 57  1  0
 21 58  1  0
 22 59  1  0
 22 60  1  0
 22 61  1  0
 24 62  1  0
 29 63  1  0
 31 64  1  0
 31 65  1  0
M  END
$$$$
