
     RDKit          3D

 63 65  0  0  0  0  0  0  0  0999 V2000
   -6.3243    3.2442   -0.3762 C   0  0  0  0  0  0  0  0  0  0  0  0
   -6.1722    1.7798    0.0219 C   0  0  0  0  0  0  0  0  0  0  0  0
   -4.9044    1.2717   -0.3936 O   0  0  0  0  0  0  0  0  0  0  0  0
   -3.6691    1.5314    0.2260 C   0  0  0  0  0  0  0  0  0  0  0  0
   -3.5669    2.2749    1.4163 C   0  0  0  0  0  0  0  0  0  0  0  0
   -2.3186    2.5423    1.9732 C   0  0  0  0  0  0  0  0  0  0  0  0
   -1.1600    2.0827    1.3512 C   0  0  0  0  0  0  0  0  0  0  0  0
   -1.2321    1.3062    0.1821 C   0  0  0  0  0  0  0  0  0  0  0  0
   -2.5048    1.0183   -0.3749 C   0  0  0  0  0  0  0  0  0  0  0  0
   -2.6440    0.2584   -1.5453 O   0  0  0  0  0  0  0  0  0  0  0  0
   -2.4748   -1.1607   -1.5823 C   0  0  0  0  0  0  0  0  0  0  0  0
   -3.6243   -1.8993   -0.8620 C   0  0  0  0  0  0  0  0  0  0  0  0
   -3.1037   -2.9972    0.0794 C   0  0  0  0  0  0  0  0  0  0  0  0
   -2.4435   -2.4023    1.3443 C   0  0  0  0  0  0  0  0  0  0  0  0
   -1.1778   -3.1579    1.7747 C   0  0  0  0  0  0  0  0  0  0  0  0
   -0.1572   -3.1458    0.7237 N   0  0  0  0  0  0  0  0  0  0  0  0
    0.7019   -2.0358    0.4078 C   0  0  0  0  0  0  0  0  0  0  0  0
    1.5072   -2.1522   -0.5555 O   0  0  0  0  0  0  0  0  0  0  0  0
    0.7430   -0.7780    1.2371 C   0  0  0  0  0  0  0  0  0  0  0  0
    1.0639    0.3926    0.4015 N   0  0  0  0  0  0  0  0  0  0  0  0
    2.4287    0.8560    0.3534 C   0  0  0  0  0  0  0  0  0  0  0  0
    3.0983    0.9269    1.4202 O   0  0  0  0  0  0  0  0  0  0  0  0
    3.0593    1.2979   -0.9418 C   0  0  0  0  0  0  0  0  0  0  0  0
    4.4830    0.8170   -1.0449 C   0  0  0  0  0  0  0  0  0  0  0  0
    4.7549   -0.5046   -1.4325 C   0  0  0  0  0  0  0  0  0  0  0  0
    6.0735   -0.9637   -1.4983 C   0  0  0  0  0  0  0  0  0  0  0  0
    7.1367   -0.1137   -1.1586 C   0  0  0  0  0  0  0  0  0  0  0  0
    8.5527   -0.5965   -1.2671 C   0  0  0  0  0  0  0  0  0  0  0  0
    6.8666    1.2099   -0.7798 C   0  0  0  0  0  0  0  0  0  0  0  0
    5.5477    1.6691   -0.7128 C   0  0  0  0  0  0  0  0  0  0  0  0
    0.0586    0.9511   -0.5246 C   0  0  0  0  0  0  0  0  0  0  0  0
   -7.3431    3.5980   -0.1127 H   0  0  0  0  0  0  0  0  0  0  0  0
   -5.5833    3.8743    0.1554 H   0  0  0  0  0  0  0  0  0  0  0  0
   -6.1741    3.3574   -1.4702 H   0  0  0  0  0  0  0  0  0  0  0  0
   -6.9652    1.1944   -0.4903 H   0  0  0  0  0  0  0  0  0  0  0  0
   -6.3167    1.6443    1.1149 H   0  0  0  0  0  0  0  0  0  0  0  0
   -4.4428    2.6617    1.9168 H   0  0  0  0  0  0  0  0  0  0  0  0
   -2.2463    3.1298    2.8797 H   0  0  0  0  0  0  0  0  0  0  0  0
   -0.1995    2.3437    1.7788 H   0  0  0  0  0  0  0  0  0  0  0  0
   -1.4929   -1.4359   -1.1539 H   0  0  0  0  0  0  0  0  0  0  0  0
   -2.4513   -1.4801   -2.6455 H   0  0  0  0  0  0  0  0  0  0  0  0
   -4.2565   -1.1998   -0.2789 H   0  0  0  0  0  0  0  0  0  0  0  0
   -4.2852   -2.3663   -1.6241 H   0  0  0  0  0  0  0  0  0  0  0  0
   -2.4061   -3.6521   -0.4859 H   0  0  0  0  0  0  0  0  0  0  0  0
   -3.9577   -3.6380    0.3901 H   0  0  0  0  0  0  0  0  0  0  0  0
   -3.1756   -2.4348    2.1804 H   0  0  0  0  0  0  0  0  0  0  0  0
   -2.2008   -1.3331    1.1975 H   0  0  0  0  0  0  0  0  0  0  0  0
   -0.7672   -2.7205    2.7101 H   0  0  0  0  0  0  0  0  0  0  0  0
   -1.4544   -4.2109    2.0010 H   0  0  0  0  0  0  0  0  0  0  0  0
   -0.0153   -4.0304    0.1852 H   0  0  0  0  0  0  0  0  0  0  0  0
   -0.2074   -0.6014    1.7698 H   0  0  0  0  0  0  0  0  0  0  0  0
    1.5091   -0.9176    2.0295 H   0  0  0  0  0  0  0  0  0  0  0  0
    2.4863    0.8930   -1.8037 H   0  0  0  0  0  0  0  0  0  0  0  0
    3.0152    2.4067   -1.0037 H   0  0  0  0  0  0  0  0  0  0  0  0
    3.9456   -1.1780   -1.6856 H   0  0  0  0  0  0  0  0  0  0  0  0
    6.2645   -1.9833   -1.8103 H   0  0  0  0  0  0  0  0  0  0  0  0
    8.9133   -0.4516   -2.3069 H   0  0  0  0  0  0  0  0  0  0  0  0
    9.2159   -0.0369   -0.5728 H   0  0  0  0  0  0  0  0  0  0  0  0
    8.6167   -1.6746   -1.0081 H   0  0  0  0  0  0  0  0  0  0  0  0
    7.6760    1.8848   -0.5310 H   0  0  0  0  0  0  0  0  0  0  0  0
    5.3569    2.6896   -0.4040 H   0  0  0  0  0  0  0  0  0  0  0  0
   -0.0905    0.2500   -1.3668 H   0  0  0  0  0  0  0  0  0  0  0  0
    0.4342    1.8944   -0.9749 H   0  0  0  0  0  0  0  0  0  0  0  0
  1  2  1  0
  2  3  1  0
  3  4  1  0
  4  5  2  0
  5  6  1  0
  6  7  2  0
  7  8  1  0
  8  9  2  0
  9 10  1  0
 10 11  1  0
 11 12  1  0
 12 13  1  0
 13 14  1  0
 14 15  1  0
 15 16  1  0
 16 17  1  0
 17 18  2  0
 17 19  1  0
 19 20  1  0
 20 21  1  0
 21 22  2  0
 21 23  1  0
 23 24  1  0
 24 25  2  0
 25 26  1  0
 26 27  2  0
 27 28  1  0
 27 29  1  0
 29 30  2  0
 20 31  1  0
  9  4  1  0
 30 24  1  0
 31  8  1  0
  1 32  1  0
  1 33  1  0
  1 34  1  0
  2 35  1  0
  2 36  1  0
  5 37  1  0
  6 38  1  0
  7 39  1  0
 11 40  1  0
 11 41  1  0
 12 42  1  0
 12 43  1  0
 13 44  1  0
 13 45  1  0
 14 46  1  0
 14 47  1  0
 15 48  1  0
 15 49  1  0
 16 50  1  0
 19 51  1  0
 19 52  1  0
 23 53  1  0
 23 54  1  0
 25 55  1  0
 26 56  1  0
 28 57  1  0
 28 58  1  0
 28 59  1  0
 29 60  1  0
 30 61  1  0
 31 62  1  0
 31 63  1  0
M  END
$$$$
