
     RDKit          3D

 78 81  0  0  0  0  0  0  0  0999 V2000
   -0.7071   -4.0147    2.5944 C   0  0  0  0  0  0  0  0  0  0  0  0
    0.6549   -3.8142    1.9200 C   0  0  0  0  0  0  0  0  0  0  0  0
    1.5851   -3.3560    2.8707 O   0  0  0  0  0  0  0  0  0  0  0  0
    0.5926   -2.8475    0.6993 C   0  0  1  0  0  0  0  0  0  0  0  0
    1.9916   -2.6540    0.1341 C   0  0  0  0  0  0  0  0  0  0  0  0
    2.6708   -3.6622   -0.1983 O   0  0  0  0  0  0  0  0  0  0  0  0
    2.6003   -1.3546    0.0537 N   0  0  0  0  0  0  0  0  0  0  0  0
    1.8598   -0.1638   -0.3623 C   0  0  2  0  0  0  0  0  0  0  0  0
    2.4740    0.5167   -1.6136 C   0  0  0  0  0  0  0  0  0  0  0  0
    3.9251    0.9264   -1.5040 C   0  0  0  0  0  0  0  0  0  0  0  0
    4.9501   -0.0230   -1.6647 C   0  0  0  0  0  0  0  0  0  0  0  0
    6.2923    0.3641   -1.5895 C   0  0  0  0  0  0  0  0  0  0  0  0
    6.6236    1.7046   -1.3708 C   0  0  0  0  0  0  0  0  0  0  0  0
    5.6125    2.6607   -1.2371 C   0  0  0  0  0  0  0  0  0  0  0  0
    4.2694    2.2767   -1.3155 C   0  0  0  0  0  0  0  0  0  0  0  0
    1.6263    0.7476    0.8142 C   0  0  0  0  0  0  0  0  0  0  0  0
    0.5906    0.5876    1.5173 O   0  0  0  0  0  0  0  0  0  0  0  0
    2.5839    1.7425    1.1921 N   0  0  0  0  0  0  0  0  0  0  0  0
    2.2181    3.0310    1.7901 C   0  0  0  0  0  0  0  0  0  0  0  0
    0.8389    3.4216    1.4546 C   0  0  0  0  0  0  0  0  0  0  0  0
   -0.3031    3.7177    1.2055 C   0  0  0  0  0  0  0  0  0  0  0  0
   -1.6691    4.1018    0.9580 C   0  0  0  0  0  0  0  0  0  0  0  0
   -2.1908    5.1898    1.6719 C   0  0  0  0  0  0  0  0  0  0  0  0
   -3.5017    5.6128    1.4547 C   0  0  0  0  0  0  0  0  0  0  0  0
   -4.3023    4.9505    0.5241 C   0  0  0  0  0  0  0  0  0  0  0  0
   -5.5795    5.3553    0.3246 F   0  0  0  0  0  0  0  0  0  0  0  0
   -3.7939    3.8636   -0.1928 C   0  0  0  0  0  0  0  0  0  0  0  0
   -2.4692    3.4209    0.0142 C   0  0  0  0  0  0  0  0  0  0  0  0
   -1.9386    2.3214   -0.6892 O   0  0  0  0  0  0  0  0  0  0  0  0
   -2.3727    1.9301   -1.9936 C   0  0  0  0  0  0  0  0  0  0  0  0
   -1.7355    0.5994   -2.4260 C   0  0  0  0  0  0  0  0  0  0  0  0
   -2.4842   -0.5764   -1.9375 N   0  0  0  0  0  0  0  0  0  0  0  0
   -1.8708   -1.2404   -0.7662 C   0  0  1  0  0  0  0  0  0  0  0  0
   -2.9793   -1.8247    0.1487 C   0  0  0  0  0  0  0  0  0  0  0  0
   -3.7878   -3.0416   -0.3248 C   0  0  0  0  0  0  0  0  0  0  0  0
   -2.8438   -1.6220    1.6538 C   0  0  0  0  0  0  0  0  0  0  0  0
   -3.8174   -0.7624    0.8646 C   0  0  0  0  0  0  0  0  0  0  0  0
   -0.9240   -2.3335   -1.2516 C   0  0  0  0  0  0  0  0  0  0  0  0
   -0.6551   -2.4039   -2.4836 O   0  0  0  0  0  0  0  0  0  0  0  0
   -0.3364   -3.3077   -0.3608 N   0  0  0  0  0  0  0  0  0  0  0  0
   -0.2830   -4.6940   -0.8515 C   0  0  0  0  0  0  0  0  0  0  0  0
   -0.6244   -4.8153    3.3615 H   0  0  0  0  0  0  0  0  0  0  0  0
   -1.0272   -3.0847    3.1056 H   0  0  0  0  0  0  0  0  0  0  0  0
   -1.4817   -4.3167    1.8581 H   0  0  0  0  0  0  0  0  0  0  0  0
    1.0133   -4.8078    1.5801 H   0  0  0  0  0  0  0  0  0  0  0  0
    1.2885   -2.4599    3.1761 H   0  0  0  0  0  0  0  0  0  0  0  0
    0.2272   -1.8802    1.0923 H   0  0  0  0  0  0  0  0  0  0  0  0
    3.6126   -1.2702    0.2991 H   0  0  0  0  0  0  0  0  0  0  0  0
    0.8661   -0.4815   -0.7076 H   0  0  0  0  0  0  0  0  0  0  0  0
    1.8528    1.4000   -1.8786 H   0  0  0  0  0  0  0  0  0  0  0  0
    2.3773   -0.1800   -2.4738 H   0  0  0  0  0  0  0  0  0  0  0  0
    4.7083   -1.0609   -1.8552 H   0  0  0  0  0  0  0  0  0  0  0  0
    7.0760   -0.3748   -1.7052 H   0  0  0  0  0  0  0  0  0  0  0  0
    7.6615    2.0036   -1.3098 H   0  0  0  0  0  0  0  0  0  0  0  0
    5.8681    3.7008   -1.0737 H   0  0  0  0  0  0  0  0  0  0  0  0
    3.4966    3.0301   -1.2206 H   0  0  0  0  0  0  0  0  0  0  0  0
    3.5954    1.4906    1.1676 H   0  0  0  0  0  0  0  0  0  0  0  0
    2.3243    2.9702    2.8956 H   0  0  0  0  0  0  0  0  0  0  0  0
    2.9069    3.8150    1.4057 H   0  0  0  0  0  0  0  0  0  0  0  0
   -1.5822    5.7142    2.3999 H   0  0  0  0  0  0  0  0  0  0  0  0
   -3.8960    6.4515    2.0114 H   0  0  0  0  0  0  0  0  0  0  0  0
   -4.4547    3.3662   -0.8863 H   0  0  0  0  0  0  0  0  0  0  0  0
   -2.0683    2.7186   -2.7123 H   0  0  0  0  0  0  0  0  0  0  0  0
   -3.4731    1.8372   -2.0472 H   0  0  0  0  0  0  0  0  0  0  0  0
   -1.7552    0.5632   -3.5368 H   0  0  0  0  0  0  0  0  0  0  0  0
   -0.6646    0.5718   -2.1328 H   0  0  0  0  0  0  0  0  0  0  0  0
   -3.4949   -0.3476   -1.7893 H   0  0  0  0  0  0  0  0  0  0  0  0
   -1.2942   -0.4988   -0.1750 H   0  0  0  0  0  0  0  0  0  0  0  0
   -4.2551   -2.8199   -1.3095 H   0  0  0  0  0  0  0  0  0  0  0  0
   -4.5943   -3.3118    0.3933 H   0  0  0  0  0  0  0  0  0  0  0  0
   -3.1178   -3.9217   -0.4320 H   0  0  0  0  0  0  0  0  0  0  0  0
   -3.3474   -2.3761    2.2958 H   0  0  0  0  0  0  0  0  0  0  0  0
   -1.9528   -1.0575    2.0019 H   0  0  0  0  0  0  0  0  0  0  0  0
   -3.4818    0.2917    0.7567 H   0  0  0  0  0  0  0  0  0  0  0  0
   -4.8838   -1.0162    1.0560 H   0  0  0  0  0  0  0  0  0  0  0  0
   -1.1023   -4.8871   -1.5769 H   0  0  0  0  0  0  0  0  0  0  0  0
    0.6853   -4.8853   -1.3577 H   0  0  0  0  0  0  0  0  0  0  0  0
   -0.4228   -5.4172   -0.0256 H   0  0  0  0  0  0  0  0  0  0  0  0
  1  2  1  0
  2  3  1  0
  2  4  1  0
  4  5  1  0
  5  6  2  0
  5  7  1  0
  7  8  1  0
  8  9  1  0
  9 10  1  0
 10 11  2  0
 11 12  1  0
 12 13  2  0
 13 14  1  0
 14 15  2  0
  8 16  1  0
 16 17  2  0
 16 18  1  0
 18 19  1  0
 19 20  1  0
 20 21  3  0
 21 22  1  0
 22 23  2  0
 23 24  1  0
 24 25  2  0
 25 26  1  0
 25 27  1  0
 27 28  2  0
 28 29  1  0
 29 30  1  0
 30 31  1  0
 31 32  1  0
 32 33  1  0
 33 34  1  0
 34 35  1  0
 34 36  1  0
 36 37  1  0
 33 38  1  0
 38 39  2  0
 38 40  1  0
 40 41  1  0
 40  4  1  0
 15 10  1  0
 28 22  1  0
 37 34  1  0
  1 42  1  0
  1 43  1  0
  1 44  1  0
  2 45  1  0
  3 46  1  0
  4 47  1  1
  7 48  1  0
  8 49  1  6
  9 50  1  0
  9 51  1  0
 11 52  1  0
 12 53  1  0
 13 54  1  0
 14 55  1  0
 15 56  1  0
 18 57  1  0
 19 58  1  0
 19 59  1  0
 23 60  1  0
 24 61  1  0
 27 62  1  0
 30 63  1  0
 30 64  1  0
 31 65  1  0
 31 66  1  0
 32 67  1  0
 33 68  1  1
 35 69  1  0
 35 70  1  0
 35 71  1  0
 36 72  1  0
 36 73  1  0
 37 74  1  0
 37 75  1  0
 41 76  1  0
 41 77  1  0
 41 78  1  0
M  END
$$$$
