
     RDKit          3D

 74 78  0  0  0  0  0  0  0  0999 V2000
    5.5806    1.3588    1.6700 C   0  0  0  0  0  0  0  0  0  0  0  0
    5.8395    0.0232    1.1238 N   0  0  0  0  0  0  0  0  0  0  0  0
    7.2221   -0.4400    0.9143 C   0  0  0  0  0  0  0  0  0  0  0  0
    7.4861   -0.6377   -0.5574 C   0  0  0  0  0  0  0  0  0  0  0  0
    7.4603    0.4636   -1.4264 C   0  0  0  0  0  0  0  0  0  0  0  0
    7.7002    0.2853   -2.7919 C   0  0  0  0  0  0  0  0  0  0  0  0
    7.9721   -0.9894   -3.3019 C   0  0  0  0  0  0  0  0  0  0  0  0
    8.0081   -2.0923   -2.4442 C   0  0  0  0  0  0  0  0  0  0  0  0
    7.7607   -1.9195   -1.0756 C   0  0  0  0  0  0  0  0  0  0  0  0
    4.7427   -0.8981    0.9459 C   0  0  0  0  0  0  0  0  0  0  0  0
    4.9277   -2.1329    1.1258 O   0  0  0  0  0  0  0  0  0  0  0  0
    3.3961   -0.4224    0.5606 C   0  0  0  0  0  0  0  0  0  0  0  0
    3.2463    0.5032   -0.4817 C   0  0  0  0  0  0  0  0  0  0  0  0
    1.9786    0.9476   -0.8588 C   0  0  0  0  0  0  0  0  0  0  0  0
    0.8275    0.4873   -0.1854 C   0  0  0  0  0  0  0  0  0  0  0  0
    0.9711   -0.4386    0.8781 C   0  0  0  0  0  0  0  0  0  0  0  0
    2.2577   -0.9045    1.2186 C   0  0  0  0  0  0  0  0  0  0  0  0
   -0.2257   -1.0499    1.5848 C   0  0  0  0  0  0  0  0  0  0  0  0
   -1.2981   -0.0512    1.9536 C   0  0  0  0  0  0  0  0  0  0  0  0
   -0.9794    1.1172    2.6680 C   0  0  0  0  0  0  0  0  0  0  0  0
   -1.9858    2.0263    3.0154 C   0  0  0  0  0  0  0  0  0  0  0  0
   -3.3128    1.7711    2.6624 C   0  0  0  0  0  0  0  0  0  0  0  0
   -3.6495    0.6058    1.9521 C   0  0  0  0  0  0  0  0  0  0  0  0
   -2.6409   -0.3126    1.6267 C   0  0  0  0  0  0  0  0  0  0  0  0
   -5.0949    0.2915    1.6396 C   0  0  0  0  0  0  0  0  0  0  0  0
   -5.2430   -0.2387    0.2626 N   0  0  0  0  0  0  0  0  0  0  0  0
   -6.5697   -0.8809    0.0969 C   0  0  0  0  0  0  0  0  0  0  0  0
   -6.7466   -2.1600    0.9272 C   0  0  0  0  0  0  0  0  0  0  0  0
   -6.9422   -2.9691   -0.3450 C   0  0  0  0  0  0  0  0  0  0  0  0
   -6.6838   -1.7228   -1.1781 C   0  0  0  0  0  0  0  0  0  0  0  0
   -5.0377    0.8444   -0.7369 C   0  0  0  0  0  0  0  0  0  0  0  0
   -3.9648    0.4300   -1.7594 C   0  0  0  0  0  0  0  0  0  0  0  0
   -3.3283    1.6398   -2.4684 C   0  0  0  0  0  0  0  0  0  0  0  0
   -2.1604    2.2459   -1.6686 C   0  0  0  0  0  0  0  0  0  0  0  0
   -0.8575    1.4367   -1.7979 C   0  0  0  0  0  0  0  0  0  0  0  0
   -0.4528    0.9647   -0.5107 O   0  0  0  0  0  0  0  0  0  0  0  0
    5.1298    2.0111    0.8914 H   0  0  0  0  0  0  0  0  0  0  0  0
    4.8800    1.2908    2.5270 H   0  0  0  0  0  0  0  0  0  0  0  0
    6.5104    1.8497    2.0296 H   0  0  0  0  0  0  0  0  0  0  0  0
    7.9556    0.3055    1.2984 H   0  0  0  0  0  0  0  0  0  0  0  0
    7.3994   -1.3803    1.4869 H   0  0  0  0  0  0  0  0  0  0  0  0
    7.2552    1.4547   -1.0454 H   0  0  0  0  0  0  0  0  0  0  0  0
    7.6708    1.1354   -3.4558 H   0  0  0  0  0  0  0  0  0  0  0  0
    8.1628   -1.1208   -4.3605 H   0  0  0  0  0  0  0  0  0  0  0  0
    8.2319   -3.0800   -2.8380 H   0  0  0  0  0  0  0  0  0  0  0  0
    7.7870   -2.7814   -0.4215 H   0  0  0  0  0  0  0  0  0  0  0  0
    4.1138    0.8727   -1.0146 H   0  0  0  0  0  0  0  0  0  0  0  0
    1.9246    1.6813   -1.6583 H   0  0  0  0  0  0  0  0  0  0  0  0
    2.3752   -1.6370    2.0107 H   0  0  0  0  0  0  0  0  0  0  0  0
    0.0950   -1.5430    2.5276 H   0  0  0  0  0  0  0  0  0  0  0  0
   -0.6429   -1.8420    0.9251 H   0  0  0  0  0  0  0  0  0  0  0  0
    0.0470    1.3274    2.9490 H   0  0  0  0  0  0  0  0  0  0  0  0
   -1.7334    2.9257    3.5660 H   0  0  0  0  0  0  0  0  0  0  0  0
   -4.0755    2.4780    2.9581 H   0  0  0  0  0  0  0  0  0  0  0  0
   -2.9007   -1.2304    1.1105 H   0  0  0  0  0  0  0  0  0  0  0  0
   -5.4208   -0.4534    2.3970 H   0  0  0  0  0  0  0  0  0  0  0  0
   -5.7481    1.1851    1.7851 H   0  0  0  0  0  0  0  0  0  0  0  0
   -7.4210   -0.1727    0.2199 H   0  0  0  0  0  0  0  0  0  0  0  0
   -5.8294   -2.4852    1.4681 H   0  0  0  0  0  0  0  0  0  0  0  0
   -7.6534   -2.1393    1.5697 H   0  0  0  0  0  0  0  0  0  0  0  0
   -7.9854   -3.3443   -0.4545 H   0  0  0  0  0  0  0  0  0  0  0  0
   -6.1664   -3.7551   -0.4844 H   0  0  0  0  0  0  0  0  0  0  0  0
   -7.5541   -1.4462   -1.8078 H   0  0  0  0  0  0  0  0  0  0  0  0
   -5.7320   -1.8270   -1.7382 H   0  0  0  0  0  0  0  0  0  0  0  0
   -4.7264    1.7975   -0.2499 H   0  0  0  0  0  0  0  0  0  0  0  0
   -5.9764    1.0905   -1.2859 H   0  0  0  0  0  0  0  0  0  0  0  0
   -3.1785   -0.1904   -1.2751 H   0  0  0  0  0  0  0  0  0  0  0  0
   -4.4434   -0.2029   -2.5406 H   0  0  0  0  0  0  0  0  0  0  0  0
   -2.9654    1.3197   -3.4725 H   0  0  0  0  0  0  0  0  0  0  0  0
   -4.0959    2.4270   -2.6428 H   0  0  0  0  0  0  0  0  0  0  0  0
   -1.9761    3.2722   -2.0522 H   0  0  0  0  0  0  0  0  0  0  0  0
   -2.4476    2.3613   -0.6007 H   0  0  0  0  0  0  0  0  0  0  0  0
   -0.9788    0.5583   -2.4731 H   0  0  0  0  0  0  0  0  0  0  0  0
   -0.0904    2.1055   -2.2451 H   0  0  0  0  0  0  0  0  0  0  0  0
  1  2  1  0
  2  3  1  0
  3  4  1  0
  4  5  2  0
  5  6  1  0
  6  7  2  0
  7  8  1  0
  8  9  2  0
  2 10  1  0
 10 11  2  0
 10 12  1  0
 12 13  2  0
 13 14  1  0
 14 15  2  0
 15 16  1  0
 16 17  2  0
 16 18  1  0
 18 19  1  0
 19 20  2  0
 20 21  1  0
 21 22  2  0
 22 23  1  0
 23 24  2  0
 23 25  1  0
 25 26  1  0
 26 27  1  0
 27 28  1  0
 28 29  1  0
 29 30  1  0
 26 31  1  0
 31 32  1  0
 32 33  1  0
 33 34  1  0
 34 35  1  0
 35 36  1  0
  9  4  1  0
 17 12  1  0
 24 19  1  0
 30 27  1  0
 36 15  1  0
  1 37  1  0
  1 38  1  0
  1 39  1  0
  3 40  1  0
  3 41  1  0
  5 42  1  0
  6 43  1  0
  7 44  1  0
  8 45  1  0
  9 46  1  0
 13 47  1  0
 14 48  1  0
 17 49  1  0
 18 50  1  0
 18 51  1  0
 20 52  1  0
 21 53  1  0
 22 54  1  0
 24 55  1  0
 25 56  1  0
 25 57  1  0
 27 58  1  0
 28 59  1  0
 28 60  1  0
 29 61  1  0
 29 62  1  0
 30 63  1  0
 30 64  1  0
 31 65  1  0
 31 66  1  0
 32 67  1  0
 32 68  1  0
 33 69  1  0
 33 70  1  0
 34 71  1  0
 34 72  1  0
 35 73  1  0
 35 74  1  0
M  END
$$$$
