
     RDKit          3D

 80 84  0  0  0  0  0  0  0  0999 V2000
   -2.3658    3.0820   -2.6292 O   0  0  0  0  0  0  0  0  0  0  0  0
   -2.7488    2.4084   -1.6363 C   0  0  0  0  0  0  0  0  0  0  0  0
   -2.9902    1.0086   -1.8070 N   0  0  0  0  0  0  0  0  0  0  0  0
   -2.0231   -0.0319   -1.4280 C   0  0  0  0  0  0  0  0  0  0  0  0
   -0.6228    0.3348   -1.8636 C   0  0  0  0  0  0  0  0  0  0  0  0
   -0.0617    1.3470   -1.3625 O   0  0  0  0  0  0  0  0  0  0  0  0
    0.0743   -0.4644   -2.8297 N   0  0  0  0  0  0  0  0  0  0  0  0
    1.3934   -0.1029   -3.3493 C   0  0  0  0  0  0  0  0  0  0  0  0
    2.4153   -0.0682   -2.2427 C   0  0  0  0  0  0  0  0  0  0  0  0
    3.0533    1.1351   -1.9059 C   0  0  0  0  0  0  0  0  0  0  0  0
    3.9527    1.1809   -0.8380 C   0  0  0  0  0  0  0  0  0  0  0  0
    4.2278    0.0243   -0.0909 C   0  0  0  0  0  0  0  0  0  0  0  0
    5.1467    0.0823    1.0996 C   0  0  0  0  0  0  0  0  0  0  0  0
    6.3696   -0.7110    0.8590 N   0  0  0  0  0  0  0  0  0  0  0  0
    6.9863   -1.1144    2.1473 C   0  0  0  0  0  0  0  0  0  0  0  0
    8.4815   -1.4238    2.0035 C   0  0  0  0  0  0  0  0  0  0  0  0
    9.2558   -0.1754    1.5434 C   0  0  0  0  0  0  0  0  0  0  0  0
    8.4034    0.7578    0.6668 C   0  0  0  0  0  0  0  0  0  0  0  0
    7.3048   -0.0205   -0.0689 C   0  0  0  0  0  0  0  0  0  0  0  0
    3.6128   -1.1845   -0.4458 C   0  0  0  0  0  0  0  0  0  0  0  0
    2.7098   -1.2308   -1.5118 C   0  0  0  0  0  0  0  0  0  0  0  0
   -2.0847   -0.3369    0.0914 C   0  0  0  0  0  0  0  0  0  0  0  0
   -2.1596   -1.8202    0.3318 C   0  0  0  0  0  0  0  0  0  0  0  0
   -1.0999   -2.4493    0.5948 O   0  0  0  0  0  0  0  0  0  0  0  0
   -3.3976   -2.5393    0.1798 N   0  0  0  0  0  0  0  0  0  0  0  0
   -3.4436   -3.9831    0.0272 C   0  0  0  0  0  0  0  0  0  0  0  0
   -4.9173   -4.3416   -0.1000 C   0  0  0  0  0  0  0  0  0  0  0  0
   -5.6200   -3.0397   -0.4779 C   0  0  0  0  0  0  0  0  0  0  0  0
   -4.7095   -1.9182    0.0288 C   0  0  0  0  0  0  0  0  0  0  0  0
   -5.2048   -1.3834    1.3525 C   0  0  0  0  0  0  0  0  0  0  0  0
   -4.7154   -1.8452    2.4193 O   0  0  0  0  0  0  0  0  0  0  0  0
   -6.2843   -0.4382    1.4419 N   0  0  0  0  0  0  0  0  0  0  0  0
   -6.8709    0.2891    0.3138 C   0  0  0  0  0  0  0  0  0  0  0  0
   -6.3274    1.7143    0.2715 C   0  0  0  0  0  0  0  0  0  0  0  0
   -4.9033    1.6787    0.1362 O   0  0  0  0  0  0  0  0  0  0  0  0
   -4.0520    2.7350    0.4998 C   0  0  0  0  0  0  0  0  0  0  0  0
   -4.2467    3.4439    1.7010 C   0  0  0  0  0  0  0  0  0  0  0  0
   -3.4049    4.5030    2.0418 C   0  0  0  0  0  0  0  0  0  0  0  0
   -2.3485    4.8551    1.2029 C   0  0  0  0  0  0  0  0  0  0  0  0
   -2.1276    4.1506    0.0197 C   0  0  0  0  0  0  0  0  0  0  0  0
   -2.9674    3.0818   -0.3385 C   0  0  0  0  0  0  0  0  0  0  0  0
   -3.7396    0.7412   -2.4866 H   0  0  0  0  0  0  0  0  0  0  0  0
   -2.3182   -0.9475   -1.9904 H   0  0  0  0  0  0  0  0  0  0  0  0
   -0.3844   -1.3206   -3.2060 H   0  0  0  0  0  0  0  0  0  0  0  0
    1.3217    0.8766   -3.8661 H   0  0  0  0  0  0  0  0  0  0  0  0
    1.7127   -0.8490   -4.1102 H   0  0  0  0  0  0  0  0  0  0  0  0
    2.8419    2.0429   -2.4606 H   0  0  0  0  0  0  0  0  0  0  0  0
    4.4258    2.1214   -0.5870 H   0  0  0  0  0  0  0  0  0  0  0  0
    5.4040    1.1349    1.3641 H   0  0  0  0  0  0  0  0  0  0  0  0
    4.5805   -0.3312    1.9633 H   0  0  0  0  0  0  0  0  0  0  0  0
    6.4643   -2.0234    2.5264 H   0  0  0  0  0  0  0  0  0  0  0  0
    6.8702   -0.3096    2.9119 H   0  0  0  0  0  0  0  0  0  0  0  0
    8.8860   -1.7760    2.9761 H   0  0  0  0  0  0  0  0  0  0  0  0
    8.6094   -2.2395    1.2588 H   0  0  0  0  0  0  0  0  0  0  0  0
    9.5984    0.3919    2.4338 H   0  0  0  0  0  0  0  0  0  0  0  0
   10.1601   -0.4983    0.9810 H   0  0  0  0  0  0  0  0  0  0  0  0
    9.0552    1.2701   -0.0714 H   0  0  0  0  0  0  0  0  0  0  0  0
    7.9269    1.5425    1.2969 H   0  0  0  0  0  0  0  0  0  0  0  0
    7.7800   -0.7842   -0.7197 H   0  0  0  0  0  0  0  0  0  0  0  0
    6.7725    0.6716   -0.7562 H   0  0  0  0  0  0  0  0  0  0  0  0
    3.8199   -2.0863    0.1197 H   0  0  0  0  0  0  0  0  0  0  0  0
    2.2262   -2.1692   -1.7539 H   0  0  0  0  0  0  0  0  0  0  0  0
   -1.1993    0.0706    0.6294 H   0  0  0  0  0  0  0  0  0  0  0  0
   -2.9610    0.1434    0.5651 H   0  0  0  0  0  0  0  0  0  0  0  0
   -2.9002   -4.2654   -0.8943 H   0  0  0  0  0  0  0  0  0  0  0  0
   -2.9874   -4.4835    0.9039 H   0  0  0  0  0  0  0  0  0  0  0  0
   -5.0875   -5.1337   -0.8657 H   0  0  0  0  0  0  0  0  0  0  0  0
   -5.3040   -4.6926    0.8792 H   0  0  0  0  0  0  0  0  0  0  0  0
   -5.6947   -2.9755   -1.5847 H   0  0  0  0  0  0  0  0  0  0  0  0
   -6.6461   -2.9948   -0.0507 H   0  0  0  0  0  0  0  0  0  0  0  0
   -4.6453   -1.1044   -0.7246 H   0  0  0  0  0  0  0  0  0  0  0  0
   -6.5998   -0.1585    2.3997 H   0  0  0  0  0  0  0  0  0  0  0  0
   -6.6798   -0.2156   -0.6559 H   0  0  0  0  0  0  0  0  0  0  0  0
   -7.9745    0.3284    0.4458 H   0  0  0  0  0  0  0  0  0  0  0  0
   -6.7654    2.2496   -0.6036 H   0  0  0  0  0  0  0  0  0  0  0  0
   -6.6460    2.2372    1.2002 H   0  0  0  0  0  0  0  0  0  0  0  0
   -5.0358    3.1730    2.3867 H   0  0  0  0  0  0  0  0  0  0  0  0
   -3.5718    5.0570    2.9566 H   0  0  0  0  0  0  0  0  0  0  0  0
   -1.7003    5.6740    1.4709 H   0  0  0  0  0  0  0  0  0  0  0  0
   -1.3040    4.4429   -0.6229 H   0  0  0  0  0  0  0  0  0  0  0  0
  1  2  2  0
  2  3  1  0
  3  4  1  0
  4  5  1  0
  5  6  2  0
  5  7  1  0
  7  8  1  0
  8  9  1  0
  9 10  2  0
 10 11  1  0
 11 12  2  0
 12 13  1  0
 13 14  1  0
 14 15  1  0
 15 16  1  0
 16 17  1  0
 17 18  1  0
 18 19  1  0
 12 20  1  0
 20 21  2  0
  4 22  1  0
 22 23  1  0
 23 24  2  0
 23 25  1  0
 25 26  1  0
 26 27  1  0
 27 28  1  0
 28 29  1  0
 29 30  1  0
 30 31  2  0
 30 32  1  0
 32 33  1  0
 33 34  1  0
 34 35  1  0
 35 36  1  0
 36 37  2  0
 37 38  1  0
 38 39  2  0
 39 40  1  0
 40 41  2  0
 41  2  1  0
 21  9  1  0
 29 25  1  0
 41 36  1  0
 19 14  1  0
  3 42  1  0
  4 43  1  0
  7 44  1  0
  8 45  1  0
  8 46  1  0
 10 47  1  0
 11 48  1  0
 13 49  1  0
 13 50  1  0
 15 51  1  0
 15 52  1  0
 16 53  1  0
 16 54  1  0
 17 55  1  0
 17 56  1  0
 18 57  1  0
 18 58  1  0
 19 59  1  0
 19 60  1  0
 20 61  1  0
 21 62  1  0
 22 63  1  0
 22 64  1  0
 26 65  1  0
 26 66  1  0
 27 67  1  0
 27 68  1  0
 28 69  1  0
 28 70  1  0
 29 71  1  0
 32 72  1  0
 33 73  1  0
 33 74  1  0
 34 75  1  0
 34 76  1  0
 37 77  1  0
 38 78  1  0
 39 79  1  0
 40 80  1  0
M  END
$$$$
