
     RDKit          3D

 76 79  0  0  0  0  0  0  0  0999 V2000
    2.2818    0.1792    0.3113 O   0  0  0  0  0  0  0  0  0  0  0  0
    2.8532    0.3758   -0.7978 C   0  0  0  0  0  0  0  0  0  0  0  0
    2.6351   -0.5832   -1.9354 C   0  0  0  0  0  0  0  0  0  0  0  0
    1.2279   -1.1206   -1.9396 C   0  0  0  0  0  0  0  0  0  0  0  0
    0.9707   -2.4462   -1.5697 C   0  0  0  0  0  0  0  0  0  0  0  0
   -0.3397   -2.9271   -1.5280 C   0  0  0  0  0  0  0  0  0  0  0  0
   -1.4246   -2.0812   -1.8328 C   0  0  0  0  0  0  0  0  0  0  0  0
   -1.1685   -0.7387   -2.1887 C   0  0  0  0  0  0  0  0  0  0  0  0
    0.1564   -0.2764   -2.2586 C   0  0  0  0  0  0  0  0  0  0  0  0
   -2.3031    0.2329   -2.4496 C   0  0  0  0  0  0  0  0  0  0  0  0
   -2.6988    1.0773   -1.2853 N   0  0  0  0  0  0  0  0  0  0  0  0
   -2.0806    0.7555    0.0271 C   0  0  0  0  0  0  0  0  0  0  0  0
   -2.3051    1.8522    1.0380 C   0  0  0  0  0  0  0  0  0  0  0  0
   -2.8397    1.5583    2.3037 C   0  0  0  0  0  0  0  0  0  0  0  0
   -3.0200    2.5753    3.2453 C   0  0  0  0  0  0  0  0  0  0  0  0
   -2.6542    3.8879    2.9370 C   0  0  0  0  0  0  0  0  0  0  0  0
   -2.1028    4.1851    1.6877 C   0  0  0  0  0  0  0  0  0  0  0  0
   -1.9226    3.1713    0.7424 C   0  0  0  0  0  0  0  0  0  0  0  0
   -4.1629    1.3260   -1.2337 C   0  0  0  0  0  0  0  0  0  0  0  0
   -4.9291    0.2610   -0.4880 C   0  0  0  0  0  0  0  0  0  0  0  0
   -5.2789    0.4777    0.7042 O   0  0  0  0  0  0  0  0  0  0  0  0
   -5.2419   -0.9950   -1.1078 N   0  0  0  0  0  0  0  0  0  0  0  0
   -5.8378   -2.1054   -0.3649 C   0  0  0  0  0  0  0  0  0  0  0  0
   -4.8854   -2.6248    0.7378 C   0  0  0  0  0  0  0  0  0  0  0  0
   -4.4843   -4.1049    0.5696 C   0  0  0  0  0  0  0  0  0  0  0  0
   -3.1359   -4.3016   -0.1468 C   0  0  0  0  0  0  0  0  0  0  0  0
   -3.1581   -3.8988   -1.6286 C   0  0  0  0  0  0  0  0  0  0  0  0
   -2.7549   -2.5395   -1.8060 O   0  0  0  0  0  0  0  0  0  0  0  0
    3.7563    1.4795   -0.9602 N   0  0  0  0  0  0  0  0  0  0  0  0
    4.0314    2.4424    0.1067 C   0  0  0  0  0  0  0  0  0  0  0  0
    4.8667    1.8071    1.2291 C   0  0  0  0  0  0  0  0  0  0  0  0
    6.0292    1.0698    0.6796 N   0  0  0  0  0  0  0  0  0  0  0  0
    7.1419    1.9752    0.3415 C   0  0  0  0  0  0  0  0  0  0  0  0
    8.1625    1.9319    1.4749 C   0  0  0  0  0  0  0  0  0  0  0  0
    7.6702    0.8648    2.4306 C   0  0  0  0  0  0  0  0  0  0  0  0
    6.5837    0.1334    1.6666 C   0  0  0  0  0  0  0  0  0  0  0  0
    3.3757   -1.4071   -1.8504 H   0  0  0  0  0  0  0  0  0  0  0  0
    2.8222   -0.0689   -2.9024 H   0  0  0  0  0  0  0  0  0  0  0  0
    1.7849   -3.1104   -1.3079 H   0  0  0  0  0  0  0  0  0  0  0  0
   -0.4953   -3.9581   -1.2425 H   0  0  0  0  0  0  0  0  0  0  0  0
    0.3523    0.7570   -2.5221 H   0  0  0  0  0  0  0  0  0  0  0  0
   -3.1631   -0.3254   -2.8686 H   0  0  0  0  0  0  0  0  0  0  0  0
   -1.9974    0.9169   -3.2704 H   0  0  0  0  0  0  0  0  0  0  0  0
   -2.4456   -0.2255    0.3990 H   0  0  0  0  0  0  0  0  0  0  0  0
   -0.9798    0.6795   -0.0734 H   0  0  0  0  0  0  0  0  0  0  0  0
   -3.1186    0.5441    2.5628 H   0  0  0  0  0  0  0  0  0  0  0  0
   -3.4393    2.3443    4.2163 H   0  0  0  0  0  0  0  0  0  0  0  0
   -2.7901    4.6736    3.6691 H   0  0  0  0  0  0  0  0  0  0  0  0
   -1.8109    5.2000    1.4535 H   0  0  0  0  0  0  0  0  0  0  0  0
   -1.4879    3.4119   -0.2197 H   0  0  0  0  0  0  0  0  0  0  0  0
   -4.5808    1.4285   -2.2595 H   0  0  0  0  0  0  0  0  0  0  0  0
   -4.3441    2.3094   -0.7486 H   0  0  0  0  0  0  0  0  0  0  0  0
   -5.1208   -1.1040   -2.1385 H   0  0  0  0  0  0  0  0  0  0  0  0
   -6.7897   -1.7597    0.0961 H   0  0  0  0  0  0  0  0  0  0  0  0
   -6.1117   -2.9102   -1.0791 H   0  0  0  0  0  0  0  0  0  0  0  0
   -5.4081   -2.5192    1.7146 H   0  0  0  0  0  0  0  0  0  0  0  0
   -3.9749   -1.9953    0.8188 H   0  0  0  0  0  0  0  0  0  0  0  0
   -4.3739   -4.5416    1.5862 H   0  0  0  0  0  0  0  0  0  0  0  0
   -5.2817   -4.6936    0.0649 H   0  0  0  0  0  0  0  0  0  0  0  0
   -2.3401   -3.7514    0.4016 H   0  0  0  0  0  0  0  0  0  0  0  0
   -2.8807   -5.3820   -0.0879 H   0  0  0  0  0  0  0  0  0  0  0  0
   -2.4983   -4.5670   -2.2223 H   0  0  0  0  0  0  0  0  0  0  0  0
   -4.1779   -4.0275   -2.0465 H   0  0  0  0  0  0  0  0  0  0  0  0
    4.2074    1.6313   -1.8911 H   0  0  0  0  0  0  0  0  0  0  0  0
    4.5762    3.3114   -0.3192 H   0  0  0  0  0  0  0  0  0  0  0  0
    3.0740    2.8281    0.5207 H   0  0  0  0  0  0  0  0  0  0  0  0
    4.1950    1.1173    1.7866 H   0  0  0  0  0  0  0  0  0  0  0  0
    5.1911    2.5942    1.9482 H   0  0  0  0  0  0  0  0  0  0  0  0
    7.6150    1.6114   -0.5963 H   0  0  0  0  0  0  0  0  0  0  0  0
    6.8132    3.0225    0.1579 H   0  0  0  0  0  0  0  0  0  0  0  0
    8.2241    2.9163    1.9896 H   0  0  0  0  0  0  0  0  0  0  0  0
    9.1683    1.6671    1.0797 H   0  0  0  0  0  0  0  0  0  0  0  0
    7.2331    1.3400    3.3368 H   0  0  0  0  0  0  0  0  0  0  0  0
    8.4888    0.1755    2.7337 H   0  0  0  0  0  0  0  0  0  0  0  0
    7.0345   -0.7250    1.1206 H   0  0  0  0  0  0  0  0  0  0  0  0
    5.8175   -0.2850    2.3574 H   0  0  0  0  0  0  0  0  0  0  0  0
  1  2  2  0
  2  3  1  0
  3  4  1  0
  4  5  2  0
  5  6  1  0
  6  7  2  0
  7  8  1  0
  8  9  2  0
  8 10  1  0
 10 11  1  0
 11 12  1  0
 12 13  1  0
 13 14  2  0
 14 15  1  0
 15 16  2  0
 16 17  1  0
 17 18  2  0
 11 19  1  0
 19 20  1  0
 20 21  2  0
 20 22  1  0
 22 23  1  0
 23 24  1  0
 24 25  1  0
 25 26  1  0
 26 27  1  0
 27 28  1  0
  2 29  1  0
 29 30  1  0
 30 31  1  0
 31 32  1  0
 32 33  1  0
 33 34  1  0
 34 35  1  0
 35 36  1  0
  9  4  1  0
 18 13  1  0
 36 32  1  0
 28  7  1  0
  3 37  1  0
  3 38  1  0
  5 39  1  0
  6 40  1  0
  9 41  1  0
 10 42  1  0
 10 43  1  0
 12 44  1  0
 12 45  1  0
 14 46  1  0
 15 47  1  0
 16 48  1  0
 17 49  1  0
 18 50  1  0
 19 51  1  0
 19 52  1  0
 22 53  1  0
 23 54  1  0
 23 55  1  0
 24 56  1  0
 24 57  1  0
 25 58  1  0
 25 59  1  0
 26 60  1  0
 26 61  1  0
 27 62  1  0
 27 63  1  0
 29 64  1  0
 30 65  1  0
 30 66  1  0
 31 67  1  0
 31 68  1  0
 33 69  1  0
 33 70  1  0
 34 71  1  0
 34 72  1  0
 35 73  1  0
 35 74  1  0
 36 75  1  0
 36 76  1  0
M  END
$$$$
