
     RDKit          3D

 79 81  0  0  0  0  0  0  0  0999 V2000
   -6.4378   -2.6327    0.3455 C   0  0  0  0  0  0  0  0  0  0  0  0
   -5.9861   -2.4638    1.7275 N   0  0  0  0  0  0  0  0  0  0  0  0
   -4.5307   -2.6537    1.8729 C   0  0  0  0  0  0  0  0  0  0  0  0
   -3.6857   -1.5086    1.2548 C   0  0  2  0  0  0  0  0  0  0  0  0
   -2.2680   -1.8701    1.3188 N   0  0  0  0  0  0  0  0  0  0  0  0
   -1.5346   -2.3364    0.1688 C   0  0  0  0  0  0  0  0  0  0  0  0
   -2.1524   -2.5808   -0.9020 O   0  0  0  0  0  0  0  0  0  0  0  0
   -0.0288   -2.5314    0.2601 C   0  0  1  0  0  0  0  0  0  0  0  0
    0.6221   -3.2578   -0.9608 C   0  0  0  0  0  0  0  0  0  0  0  0
    0.6394   -2.4180   -2.2493 C   0  0  0  0  0  0  0  0  0  0  0  0
    0.0231   -4.6538   -1.2143 C   0  0  0  0  0  0  0  0  0  0  0  0
    0.6212   -1.2342    0.4818 N   0  0  0  0  0  0  0  0  0  0  0  0
    2.0247   -1.1120    0.7681 C   0  0  0  0  0  0  0  0  0  0  0  0
    2.5754   -1.9759    1.5010 O   0  0  0  0  0  0  0  0  0  0  0  0
    2.8463    0.0510    0.2334 C   0  0  1  0  0  0  0  0  0  0  0  0
    4.0204   -0.4756   -0.6407 C   0  0  0  0  0  0  0  0  0  0  0  0
    4.9532   -1.4160    0.0852 C   0  0  0  0  0  0  0  0  0  0  0  0
    5.1200   -2.7403   -0.3636 C   0  0  0  0  0  0  0  0  0  0  0  0
    5.9918   -3.6026    0.3073 C   0  0  0  0  0  0  0  0  0  0  0  0
    6.7001   -3.1558    1.4275 C   0  0  0  0  0  0  0  0  0  0  0  0
    6.5420   -1.8405    1.8787 C   0  0  0  0  0  0  0  0  0  0  0  0
    7.4333   -1.2732    3.2774 Cl  0  0  0  0  0  0  0  0  0  0  0  0
    5.6787   -0.9714    1.2052 C   0  0  0  0  0  0  0  0  0  0  0  0
    1.9603    0.9723   -0.5219 N   0  0  0  0  0  0  0  0  0  0  0  0
    2.6742    2.0866   -1.1596 C   0  0  0  0  0  0  0  0  0  0  0  0
    1.7193    3.1752   -1.6558 C   0  0  0  0  0  0  0  0  0  0  0  0
    0.8842    3.6323   -0.5931 O   0  0  0  0  0  0  0  0  0  0  0  0
    0.0200    4.7297   -0.6832 C   0  0  0  0  0  0  0  0  0  0  0  0
    0.4045    5.9083   -1.3405 C   0  0  0  0  0  0  0  0  0  0  0  0
   -0.4507    7.0154   -1.3710 C   0  0  0  0  0  0  0  0  0  0  0  0
   -1.6920    6.9483   -0.7371 C   0  0  0  0  0  0  0  0  0  0  0  0
   -2.0936    5.7744   -0.0997 C   0  0  0  0  0  0  0  0  0  0  0  0
   -1.2446    4.6590   -0.0584 C   0  0  0  0  0  0  0  0  0  0  0  0
   -1.7292    3.3766    0.5781 C   0  0  0  0  0  0  0  0  0  0  0  0
   -2.5914    2.5807   -0.4115 C   0  0  0  0  0  0  0  0  0  0  0  0
   -2.8384    1.1368    0.0417 C   0  0  0  0  0  0  0  0  0  0  0  0
   -3.5748    1.0602    1.3054 N   0  0  0  0  0  0  0  0  0  0  0  0
   -3.8939   -0.1775    1.9494 C   0  0  0  0  0  0  0  0  0  0  0  0
   -4.3044   -0.1536    3.1419 O   0  0  0  0  0  0  0  0  0  0  0  0
   -6.2078   -1.7256   -0.2599 H   0  0  0  0  0  0  0  0  0  0  0  0
   -5.9786   -3.5319   -0.1201 H   0  0  0  0  0  0  0  0  0  0  0  0
   -7.5394   -2.7805    0.3314 H   0  0  0  0  0  0  0  0  0  0  0  0
   -6.2641   -1.5130    2.0647 H   0  0  0  0  0  0  0  0  0  0  0  0
   -4.2320   -3.6175    1.4167 H   0  0  0  0  0  0  0  0  0  0  0  0
   -4.2944   -2.7514    2.9532 H   0  0  0  0  0  0  0  0  0  0  0  0
   -3.9965   -1.4019    0.1986 H   0  0  0  0  0  0  0  0  0  0  0  0
   -1.7421   -1.7147    2.2162 H   0  0  0  0  0  0  0  0  0  0  0  0
    0.1547   -3.1590    1.1547 H   0  0  0  0  0  0  0  0  0  0  0  0
    1.6889   -3.4299   -0.6846 H   0  0  0  0  0  0  0  0  0  0  0  0
    1.1234   -2.9871   -3.0654 H   0  0  0  0  0  0  0  0  0  0  0  0
   -0.3795   -2.1514   -2.5907 H   0  0  0  0  0  0  0  0  0  0  0  0
    1.2087   -1.4790   -2.0947 H   0  0  0  0  0  0  0  0  0  0  0  0
    0.6896   -5.2223   -1.8865 H   0  0  0  0  0  0  0  0  0  0  0  0
   -0.0499   -5.2191   -0.2602 H   0  0  0  0  0  0  0  0  0  0  0  0
   -0.9785   -4.5981   -1.6948 H   0  0  0  0  0  0  0  0  0  0  0  0
    0.0229   -0.3912    0.6630 H   0  0  0  0  0  0  0  0  0  0  0  0
    3.2781    0.6014    1.1055 H   0  0  0  0  0  0  0  0  0  0  0  0
    4.6501    0.3661   -0.9820 H   0  0  0  0  0  0  0  0  0  0  0  0
    3.6038   -0.9577   -1.5477 H   0  0  0  0  0  0  0  0  0  0  0  0
    4.5778   -3.1005   -1.2303 H   0  0  0  0  0  0  0  0  0  0  0  0
    6.1207   -4.6209   -0.0463 H   0  0  0  0  0  0  0  0  0  0  0  0
    7.3768   -3.8327    1.9375 H   0  0  0  0  0  0  0  0  0  0  0  0
    5.5760    0.0497    1.5532 H   0  0  0  0  0  0  0  0  0  0  0  0
    1.3182    1.3904    0.1911 H   0  0  0  0  0  0  0  0  0  0  0  0
    3.4118    2.5408   -0.4612 H   0  0  0  0  0  0  0  0  0  0  0  0
    3.2034    1.7024   -2.0552 H   0  0  0  0  0  0  0  0  0  0  0  0
    2.3360    4.0064   -2.0554 H   0  0  0  0  0  0  0  0  0  0  0  0
    1.0823    2.7781   -2.4794 H   0  0  0  0  0  0  0  0  0  0  0  0
    1.3774    6.0035   -1.8010 H   0  0  0  0  0  0  0  0  0  0  0  0
   -0.1375    7.9244   -1.8761 H   0  0  0  0  0  0  0  0  0  0  0  0
   -2.3520    7.8058   -0.7481 H   0  0  0  0  0  0  0  0  0  0  0  0
   -3.0699    5.7342    0.3568 H   0  0  0  0  0  0  0  0  0  0  0  0
   -0.8632    2.7683    0.9163 H   0  0  0  0  0  0  0  0  0  0  0  0
   -2.3200    3.6157    1.4918 H   0  0  0  0  0  0  0  0  0  0  0  0
   -3.5668    3.0878   -0.5472 H   0  0  0  0  0  0  0  0  0  0  0  0
   -2.0865    2.5469   -1.4022 H   0  0  0  0  0  0  0  0  0  0  0  0
   -1.8650    0.6282    0.1576 H   0  0  0  0  0  0  0  0  0  0  0  0
   -3.4112    0.6217   -0.7575 H   0  0  0  0  0  0  0  0  0  0  0  0
   -3.8830    1.9425    1.7705 H   0  0  0  0  0  0  0  0  0  0  0  0
  1  2  1  0
  2  3  1  0
  3  4  1  0
  4  5  1  0
  5  6  1  0
  6  7  2  0
  6  8  1  0
  8  9  1  0
  9 10  1  0
  9 11  1  0
  8 12  1  0
 12 13  1  0
 13 14  2  0
 13 15  1  0
 15 16  1  0
 16 17  1  0
 17 18  2  0
 18 19  1  0
 19 20  2  0
 20 21  1  0
 21 22  1  0
 21 23  2  0
 15 24  1  0
 24 25  1  0
 25 26  1  0
 26 27  1  0
 27 28  1  0
 28 29  2  0
 29 30  1  0
 30 31  2  0
 31 32  1  0
 32 33  2  0
 33 34  1  0
 34 35  1  0
 35 36  1  0
 36 37  1  0
 37 38  1  0
 38 39  2  0
 38  4  1  0
 23 17  1  0
 33 28  1  0
  1 40  1  0
  1 41  1  0
  1 42  1  0
  2 43  1  0
  3 44  1  0
  3 45  1  0
  4 46  1  6
  5 47  1  0
  8 48  1  1
  9 49  1  0
 10 50  1  0
 10 51  1  0
 10 52  1  0
 11 53  1  0
 11 54  1  0
 11 55  1  0
 12 56  1  0
 15 57  1  1
 16 58  1  0
 16 59  1  0
 18 60  1  0
 19 61  1  0
 20 62  1  0
 23 63  1  0
 24 64  1  0
 25 65  1  0
 25 66  1  0
 26 67  1  0
 26 68  1  0
 29 69  1  0
 30 70  1  0
 31 71  1  0
 32 72  1  0
 34 73  1  0
 34 74  1  0
 35 75  1  0
 35 76  1  0
 36 77  1  0
 36 78  1  0
 37 79  1  0
M  END
$$$$
