
     RDKit          3D

 82 86  0  0  0  0  0  0  0  0999 V2000
    1.5372   -1.2545    3.1899 O   0  0  0  0  0  0  0  0  0  0  0  0
    0.8045   -1.0942    2.1762 C   0  0  0  0  0  0  0  0  0  0  0  0
   -0.6827   -0.9724    2.3743 C   0  0  0  0  0  0  0  0  0  0  0  0
   -1.4013   -1.2358    1.1052 N   0  0  0  0  0  0  0  0  0  0  0  0
   -2.2756   -0.1222    0.6845 C   0  0  0  0  0  0  0  0  0  0  0  0
   -1.4904    1.1043    0.1987 C   0  0  0  0  0  0  0  0  0  0  0  0
   -2.4316    2.1241   -0.4687 C   0  0  0  0  0  0  0  0  0  0  0  0
   -3.3311    2.8789    0.5381 C   0  0  0  0  0  0  0  0  0  0  0  0
   -4.8277    2.8780    0.1515 C   0  0  0  0  0  0  0  0  0  0  0  0
   -5.6186    1.7130    0.7720 C   0  0  0  0  0  0  0  0  0  0  0  0
   -5.2417    0.4523    0.2128 O   0  0  0  0  0  0  0  0  0  0  0  0
   -5.7505   -0.1180   -0.9671 C   0  0  0  0  0  0  0  0  0  0  0  0
   -6.6002    0.5984   -1.8367 C   0  0  0  0  0  0  0  0  0  0  0  0
   -7.0559    0.0128   -3.0195 C   0  0  0  0  0  0  0  0  0  0  0  0
   -6.6742   -1.2868   -3.3511 C   0  0  0  0  0  0  0  0  0  0  0  0
   -5.8296   -2.0062   -2.5026 C   0  0  0  0  0  0  0  0  0  0  0  0
   -5.3760   -1.4397   -1.3072 C   0  0  0  0  0  0  0  0  0  0  0  0
   -4.5139   -2.1968   -0.4992 O   0  0  0  0  0  0  0  0  0  0  0  0
   -4.6294   -2.3006    0.8931 C   0  0  0  0  0  0  0  0  0  0  0  0
   -5.8529   -2.1862    1.4812 N   0  0  0  0  0  0  0  0  0  0  0  0
   -6.0186   -2.3017    2.8238 C   0  0  0  0  0  0  0  0  0  0  0  0
   -4.9208   -2.5592    3.6435 C   0  0  0  0  0  0  0  0  0  0  0  0
   -3.6538   -2.6796    3.0734 C   0  0  0  0  0  0  0  0  0  0  0  0
   -3.4842   -2.5367    1.6872 C   0  0  0  0  0  0  0  0  0  0  0  0
   -2.0886   -2.5553    1.0767 C   0  0  0  0  0  0  0  0  0  0  0  0
    1.3997   -0.9611    0.8733 N   0  0  0  0  0  0  0  0  0  0  0  0
    2.8395   -0.8122    0.6557 C   0  0  0  0  0  0  0  0  0  0  0  0
    3.1985    0.6324    0.3622 C   0  0  0  0  0  0  0  0  0  0  0  0
    2.5854    1.6450    1.1320 C   0  0  0  0  0  0  0  0  0  0  0  0
    2.8302    2.9934    0.8758 C   0  0  0  0  0  0  0  0  0  0  0  0
    3.6977    3.3597   -0.1474 C   0  0  0  0  0  0  0  0  0  0  0  0
    4.3539    2.3797   -0.8918 C   0  0  0  0  0  0  0  0  0  0  0  0
    4.1606    1.0091   -0.6212 C   0  0  0  0  0  0  0  0  0  0  0  0
    4.9393    0.0027   -1.4528 C   0  0  0  0  0  0  0  0  0  0  0  0
    6.3288    0.4586   -1.6755 N   0  0  0  0  0  0  0  0  0  0  0  0
    6.8819   -0.1226   -2.9252 C   0  0  0  0  0  0  0  0  0  0  0  0
    8.4156   -0.0864   -2.9411 C   0  0  0  0  0  0  0  0  0  0  0  0
    8.9950   -0.9370   -1.7979 C   0  0  0  0  0  0  0  0  0  0  0  0
    8.0542   -1.0135   -0.5820 C   0  0  0  0  0  0  0  0  0  0  0  0
    7.1804    0.2452   -0.4725 C   0  0  0  0  0  0  0  0  0  0  0  0
   -0.8969    0.0452    2.7749 H   0  0  0  0  0  0  0  0  0  0  0  0
   -0.9820   -1.6817    3.1774 H   0  0  0  0  0  0  0  0  0  0  0  0
   -2.8674   -0.4551   -0.1918 H   0  0  0  0  0  0  0  0  0  0  0  0
   -2.9626    0.1609    1.5110 H   0  0  0  0  0  0  0  0  0  0  0  0
   -0.9423    1.5868    1.0356 H   0  0  0  0  0  0  0  0  0  0  0  0
   -0.7474    0.7758   -0.5575 H   0  0  0  0  0  0  0  0  0  0  0  0
   -1.8043    2.8665   -1.0079 H   0  0  0  0  0  0  0  0  0  0  0  0
   -3.0332    1.6089   -1.2480 H   0  0  0  0  0  0  0  0  0  0  0  0
   -3.1992    2.5010    1.5739 H   0  0  0  0  0  0  0  0  0  0  0  0
   -2.9915    3.9367    0.5659 H   0  0  0  0  0  0  0  0  0  0  0  0
   -5.2825    3.8173    0.5335 H   0  0  0  0  0  0  0  0  0  0  0  0
   -4.9569    2.8871   -0.9509 H   0  0  0  0  0  0  0  0  0  0  0  0
   -5.4281    1.6813    1.8653 H   0  0  0  0  0  0  0  0  0  0  0  0
   -6.7080    1.8801    0.6532 H   0  0  0  0  0  0  0  0  0  0  0  0
   -6.9058    1.6087   -1.6142 H   0  0  0  0  0  0  0  0  0  0  0  0
   -7.7086    0.5659   -3.6780 H   0  0  0  0  0  0  0  0  0  0  0  0
   -7.0316   -1.7374   -4.2663 H   0  0  0  0  0  0  0  0  0  0  0  0
   -5.5409   -3.0157   -2.7658 H   0  0  0  0  0  0  0  0  0  0  0  0
   -7.0067   -2.2057    3.2541 H   0  0  0  0  0  0  0  0  0  0  0  0
   -5.0505   -2.6651    4.7147 H   0  0  0  0  0  0  0  0  0  0  0  0
   -2.8100   -2.8865    3.7177 H   0  0  0  0  0  0  0  0  0  0  0  0
   -1.4660   -3.3252    1.5848 H   0  0  0  0  0  0  0  0  0  0  0  0
   -2.1486   -2.8965    0.0224 H   0  0  0  0  0  0  0  0  0  0  0  0
    0.7929   -0.8815    0.0285 H   0  0  0  0  0  0  0  0  0  0  0  0
    3.0887   -1.4785   -0.1911 H   0  0  0  0  0  0  0  0  0  0  0  0
    3.4145   -1.1560    1.5416 H   0  0  0  0  0  0  0  0  0  0  0  0
    1.8970    1.4003    1.9263 H   0  0  0  0  0  0  0  0  0  0  0  0
    2.3322    3.7571    1.4622 H   0  0  0  0  0  0  0  0  0  0  0  0
    3.8734    4.4048   -0.3593 H   0  0  0  0  0  0  0  0  0  0  0  0
    5.0304    2.6955   -1.6746 H   0  0  0  0  0  0  0  0  0  0  0  0
    4.9726   -1.0014   -0.9856 H   0  0  0  0  0  0  0  0  0  0  0  0
    4.3977   -0.0962   -2.4198 H   0  0  0  0  0  0  0  0  0  0  0  0
    6.5473   -1.1767   -3.0593 H   0  0  0  0  0  0  0  0  0  0  0  0
    6.5056    0.4641   -3.7896 H   0  0  0  0  0  0  0  0  0  0  0  0
    8.7959   -0.4643   -3.9171 H   0  0  0  0  0  0  0  0  0  0  0  0
    8.7519    0.9696   -2.8266 H   0  0  0  0  0  0  0  0  0  0  0  0
    9.1878   -1.9697   -2.1661 H   0  0  0  0  0  0  0  0  0  0  0  0
    9.9707   -0.5035   -1.4895 H   0  0  0  0  0  0  0  0  0  0  0  0
    8.6525   -1.1339    0.3476 H   0  0  0  0  0  0  0  0  0  0  0  0
    7.3918   -1.9024   -0.6788 H   0  0  0  0  0  0  0  0  0  0  0  0
    7.8412    1.1310   -0.3517 H   0  0  0  0  0  0  0  0  0  0  0  0
    6.5737    0.1797    0.4584 H   0  0  0  0  0  0  0  0  0  0  0  0
  1  2  2  0
  2  3  1  0
  3  4  1  0
  4  5  1  0
  5  6  1  0
  6  7  1  0
  7  8  1  0
  8  9  1  0
  9 10  1  0
 10 11  1  0
 11 12  1  0
 12 13  2  0
 13 14  1  0
 14 15  2  0
 15 16  1  0
 16 17  2  0
 17 18  1  0
 18 19  1  0
 19 20  2  0
 20 21  1  0
 21 22  2  0
 22 23  1  0
 23 24  2  0
 24 25  1  0
  2 26  1  0
 26 27  1  0
 27 28  1  0
 28 29  2  0
 29 30  1  0
 30 31  2  0
 31 32  1  0
 32 33  2  0
 33 34  1  0
 34 35  1  0
 35 36  1  0
 36 37  1  0
 37 38  1  0
 38 39  1  0
 39 40  1  0
 25  4  1  0
 33 28  1  0
 40 35  1  0
 17 12  1  0
 24 19  1  0
  3 41  1  0
  3 42  1  0
  5 43  1  0
  5 44  1  0
  6 45  1  0
  6 46  1  0
  7 47  1  0
  7 48  1  0
  8 49  1  0
  8 50  1  0
  9 51  1  0
  9 52  1  0
 10 53  1  0
 10 54  1  0
 13 55  1  0
 14 56  1  0
 15 57  1  0
 16 58  1  0
 21 59  1  0
 22 60  1  0
 23 61  1  0
 25 62  1  0
 25 63  1  0
 26 64  1  0
 27 65  1  0
 27 66  1  0
 29 67  1  0
 30 68  1  0
 31 69  1  0
 32 70  1  0
 34 71  1  0
 34 72  1  0
 36 73  1  0
 36 74  1  0
 37 75  1  0
 37 76  1  0
 38 77  1  0
 38 78  1  0
 39 79  1  0
 39 80  1  0
 40 81  1  0
 40 82  1  0
M  END
$$$$
