
     RDKit          3D

 82 84  0  0  0  0  0  0  0  0999 V2000
   -2.6727   -4.5952   -3.2841 C   0  0  0  0  0  0  0  0  0  0  0  0
   -1.9657   -3.4318   -2.6553 C   0  0  0  0  0  0  0  0  0  0  0  0
   -1.1824   -2.7526   -3.3729 O   0  0  0  0  0  0  0  0  0  0  0  0
   -2.1648   -3.0675   -1.2683 N   0  0  0  0  0  0  0  0  0  0  0  0
   -3.3581   -3.5061   -0.5157 C   0  0  0  0  0  0  0  0  0  0  0  0
   -3.0351   -4.1281    0.8618 C   0  0  0  0  0  0  0  0  0  0  0  0
   -2.8307   -3.1165    2.0070 C   0  0  0  0  0  0  0  0  0  0  0  0
   -4.1120   -2.3349    2.3789 C   0  0  0  0  0  0  0  0  0  0  0  0
   -3.8478   -0.8856    2.8396 C   0  0  0  0  0  0  0  0  0  0  0  0
   -3.1792    0.0379    1.7990 C   0  0  0  0  0  0  0  0  0  0  0  0
   -4.0225    0.2607    0.5242 C   0  0  0  0  0  0  0  0  0  0  0  0
   -3.2612    0.8691   -0.5898 N   0  0  0  0  0  0  0  0  0  0  0  0
   -2.6363    2.1652   -0.2434 C   0  0  0  0  0  0  0  0  0  0  0  0
   -2.3071    3.0473   -1.4642 C   0  0  0  0  0  0  0  0  0  0  0  0
   -3.5515    3.6404   -2.1714 C   0  0  0  0  0  0  0  0  0  0  0  0
   -4.3344    2.5871   -2.9698 C   0  0  0  0  0  0  0  0  0  0  0  0
   -3.1249    4.7802   -3.1080 C   0  0  0  0  0  0  0  0  0  0  0  0
   -2.5226   -0.0842   -1.4682 C   0  0  0  0  0  0  0  0  0  0  0  0
   -1.3041   -0.7507   -0.8429 C   0  0  0  0  0  0  0  0  0  0  0  0
   -0.1725    0.0325   -0.5398 C   0  0  0  0  0  0  0  0  0  0  0  0
    0.9730   -0.5289    0.0468 C   0  0  0  0  0  0  0  0  0  0  0  0
    2.1298    0.3335    0.3911 C   0  0  0  0  0  0  0  0  0  0  0  0
    1.9380    1.5597    0.6171 O   0  0  0  0  0  0  0  0  0  0  0  0
    3.4627   -0.2032    0.4436 N   0  0  0  0  0  0  0  0  0  0  0  0
    4.6023    0.5246    1.0101 C   0  0  0  0  0  0  0  0  0  0  0  0
    5.0013   -0.1415    2.3412 C   0  0  0  0  0  0  0  0  0  0  0  0
    5.9103    0.6516    3.0573 O   0  0  0  0  0  0  0  0  0  0  0  0
    5.7505    0.5237   -0.0204 C   0  0  0  0  0  0  0  0  0  0  0  0
    6.9150    1.3843    0.4000 C   0  0  0  0  0  0  0  0  0  0  0  0
    8.1079    0.7957    0.8537 C   0  0  0  0  0  0  0  0  0  0  0  0
    9.1812    1.5967    1.2549 C   0  0  0  0  0  0  0  0  0  0  0  0
    9.0712    2.9889    1.2067 C   0  0  0  0  0  0  0  0  0  0  0  0
    7.8866    3.5822    0.7616 C   0  0  0  0  0  0  0  0  0  0  0  0
    6.8108    2.7849    0.3593 C   0  0  0  0  0  0  0  0  0  0  0  0
    1.0026   -1.9081    0.2922 C   0  0  0  0  0  0  0  0  0  0  0  0
   -0.0589   -2.7156   -0.1058 C   0  0  0  0  0  0  0  0  0  0  0  0
   -1.2100   -2.1616   -0.6826 C   0  0  0  0  0  0  0  0  0  0  0  0
   -3.7425   -4.3426   -3.4475 H   0  0  0  0  0  0  0  0  0  0  0  0
   -2.5874   -5.4888   -2.6316 H   0  0  0  0  0  0  0  0  0  0  0  0
   -2.2147   -4.8412   -4.2657 H   0  0  0  0  0  0  0  0  0  0  0  0
   -4.0667   -2.6720   -0.4392 H   0  0  0  0  0  0  0  0  0  0  0  0
   -3.9125   -4.2810   -1.0808 H   0  0  0  0  0  0  0  0  0  0  0  0
   -2.1312   -4.7677    0.7689 H   0  0  0  0  0  0  0  0  0  0  0  0
   -3.8702   -4.8037    1.1500 H   0  0  0  0  0  0  0  0  0  0  0  0
   -2.5005   -3.6826    2.9055 H   0  0  0  0  0  0  0  0  0  0  0  0
   -1.9894   -2.4494    1.7713 H   0  0  0  0  0  0  0  0  0  0  0  0
   -4.8657   -2.3408    1.5703 H   0  0  0  0  0  0  0  0  0  0  0  0
   -4.6061   -2.8705    3.2189 H   0  0  0  0  0  0  0  0  0  0  0  0
   -4.8172   -0.4331    3.1417 H   0  0  0  0  0  0  0  0  0  0  0  0
   -3.2072   -0.9146    3.7475 H   0  0  0  0  0  0  0  0  0  0  0  0
   -3.0348    1.0250    2.2893 H   0  0  0  0  0  0  0  0  0  0  0  0
   -2.1636   -0.3182    1.5591 H   0  0  0  0  0  0  0  0  0  0  0  0
   -4.4993   -0.6670    0.1753 H   0  0  0  0  0  0  0  0  0  0  0  0
   -4.8745    0.9285    0.7828 H   0  0  0  0  0  0  0  0  0  0  0  0
   -3.3274    2.7492    0.4035 H   0  0  0  0  0  0  0  0  0  0  0  0
   -1.7312    2.0105    0.3742 H   0  0  0  0  0  0  0  0  0  0  0  0
   -1.6984    3.8933   -1.0733 H   0  0  0  0  0  0  0  0  0  0  0  0
   -1.6540    2.5223   -2.1900 H   0  0  0  0  0  0  0  0  0  0  0  0
   -4.2319    4.0750   -1.4065 H   0  0  0  0  0  0  0  0  0  0  0  0
   -5.1377    3.0728   -3.5640 H   0  0  0  0  0  0  0  0  0  0  0  0
   -3.6632    2.0410   -3.6661 H   0  0  0  0  0  0  0  0  0  0  0  0
   -4.8299    1.8659   -2.2908 H   0  0  0  0  0  0  0  0  0  0  0  0
   -2.4368    4.4023   -3.8954 H   0  0  0  0  0  0  0  0  0  0  0  0
   -2.6087    5.5796   -2.5337 H   0  0  0  0  0  0  0  0  0  0  0  0
   -4.0151    5.2334   -3.5953 H   0  0  0  0  0  0  0  0  0  0  0  0
   -3.2408   -0.8478   -1.8297 H   0  0  0  0  0  0  0  0  0  0  0  0
   -2.2015    0.4211   -2.3984 H   0  0  0  0  0  0  0  0  0  0  0  0
   -0.1552    1.0782   -0.8087 H   0  0  0  0  0  0  0  0  0  0  0  0
    3.6354   -1.1734    0.0962 H   0  0  0  0  0  0  0  0  0  0  0  0
    4.3127    1.5779    1.2169 H   0  0  0  0  0  0  0  0  0  0  0  0
    5.4634   -1.1330    2.1464 H   0  0  0  0  0  0  0  0  0  0  0  0
    4.0926   -0.3153    2.9623 H   0  0  0  0  0  0  0  0  0  0  0  0
    5.3981    1.4259    3.4090 H   0  0  0  0  0  0  0  0  0  0  0  0
    5.3623    0.9097   -0.9884 H   0  0  0  0  0  0  0  0  0  0  0  0
    6.0852   -0.5206   -0.2075 H   0  0  0  0  0  0  0  0  0  0  0  0
    8.2045   -0.2814    0.9036 H   0  0  0  0  0  0  0  0  0  0  0  0
   10.0974    1.1384    1.6047 H   0  0  0  0  0  0  0  0  0  0  0  0
    9.9035    3.6073    1.5169 H   0  0  0  0  0  0  0  0  0  0  0  0
    7.8015    4.6603    0.7292 H   0  0  0  0  0  0  0  0  0  0  0  0
    5.8969    3.2563    0.0177 H   0  0  0  0  0  0  0  0  0  0  0  0
    1.8524   -2.3749    0.7708 H   0  0  0  0  0  0  0  0  0  0  0  0
    0.0205   -3.7880    0.0178 H   0  0  0  0  0  0  0  0  0  0  0  0
  1  2  1  0
  2  3  2  0
  2  4  1  0
  4  5  1  0
  5  6  1  0
  6  7  1  0
  7  8  1  0
  8  9  1  0
  9 10  1  0
 10 11  1  0
 11 12  1  0
 12 13  1  0
 13 14  1  0
 14 15  1  0
 15 16  1  0
 15 17  1  0
 12 18  1  0
 18 19  1  0
 19 20  2  0
 20 21  1  0
 21 22  1  0
 22 23  2  0
 22 24  1  0
 24 25  1  0
 25 26  1  0
 26 27  1  0
 25 28  1  0
 28 29  1  0
 29 30  2  0
 30 31  1  0
 31 32  2  0
 32 33  1  0
 33 34  2  0
 21 35  2  0
 35 36  1  0
 36 37  2  0
 37  4  1  0
 37 19  1  0
 34 29  1  0
  1 38  1  0
  1 39  1  0
  1 40  1  0
  5 41  1  0
  5 42  1  0
  6 43  1  0
  6 44  1  0
  7 45  1  0
  7 46  1  0
  8 47  1  0
  8 48  1  0
  9 49  1  0
  9 50  1  0
 10 51  1  0
 10 52  1  0
 11 53  1  0
 11 54  1  0
 13 55  1  0
 13 56  1  0
 14 57  1  0
 14 58  1  0
 15 59  1  0
 16 60  1  0
 16 61  1  0
 16 62  1  0
 17 63  1  0
 17 64  1  0
 17 65  1  0
 18 66  1  0
 18 67  1  0
 20 68  1  0
 24 69  1  0
 25 70  1  0
 26 71  1  0
 26 72  1  0
 27 73  1  0
 28 74  1  0
 28 75  1  0
 30 76  1  0
 31 77  1  0
 32 78  1  0
 33 79  1  0
 34 80  1  0
 35 81  1  0
 36 82  1  0
M  END
$$$$
