
     RDKit          3D

 76 79  0  0  0  0  0  0  0  0999 V2000
    9.4193   -0.8055   -1.6262 C   0  0  0  0  0  0  0  0  0  0  0  0
    8.2514   -0.4305   -0.6970 C   0  0  0  0  0  0  0  0  0  0  0  0
    8.0611   -1.5419    0.3474 C   0  0  0  0  0  0  0  0  0  0  0  0
    6.9326   -0.1811   -1.4830 C   0  0  0  0  0  0  0  0  0  0  0  0
    7.0648    0.9672   -2.4969 C   0  0  0  0  0  0  0  0  0  0  0  0
    5.8186    1.2253   -3.0847 O   0  0  0  0  0  0  0  0  0  0  0  0
    5.8527    0.1460   -0.5443 N   0  0  0  0  0  0  0  0  0  0  0  0
    4.6399   -0.6191   -0.4453 C   0  0  0  0  0  0  0  0  0  0  0  0
    4.5892   -1.7797   -0.9437 O   0  0  0  0  0  0  0  0  0  0  0  0
    3.4519   -0.0761    0.2605 C   0  0  0  0  0  0  0  0  0  0  0  0
    3.2850    1.3074    0.4377 C   0  0  0  0  0  0  0  0  0  0  0  0
    2.1664    1.8064    1.1054 C   0  0  0  0  0  0  0  0  0  0  0  0
    1.1850    0.9365    1.6087 C   0  0  0  0  0  0  0  0  0  0  0  0
    1.3390   -0.4570    1.4329 C   0  0  0  0  0  0  0  0  0  0  0  0
    2.4618   -0.9476    0.7461 C   0  0  0  0  0  0  0  0  0  0  0  0
    0.2979   -1.4345    1.9379 C   0  0  0  0  0  0  0  0  0  0  0  0
   -0.7715   -1.7311    0.9082 C   0  0  0  0  0  0  0  0  0  0  0  0
   -1.1186   -3.0536    0.5963 C   0  0  0  0  0  0  0  0  0  0  0  0
   -2.1944   -3.3190   -0.2594 C   0  0  0  0  0  0  0  0  0  0  0  0
   -2.9586   -2.2673   -0.7783 C   0  0  0  0  0  0  0  0  0  0  0  0
   -2.6391   -0.9394   -0.4580 C   0  0  0  0  0  0  0  0  0  0  0  0
   -1.5169   -0.6895    0.3411 C   0  0  0  0  0  0  0  0  0  0  0  0
   -3.4566    0.2282   -0.9832 C   0  0  0  0  0  0  0  0  0  0  0  0
   -4.7188    0.5239   -0.2324 N   0  0  0  0  0  0  0  0  0  0  0  0
   -5.9120   -0.2123   -0.7703 C   0  0  0  0  0  0  0  0  0  0  0  0
   -6.3307    0.3639   -2.1493 C   0  0  0  0  0  0  0  0  0  0  0  0
   -7.5622   -0.3760   -2.7271 C   0  0  0  0  0  0  0  0  0  0  0  0
   -8.2152   -1.1993   -1.7785 O   0  0  0  0  0  0  0  0  0  0  0  0
   -8.4773   -0.4588   -0.6071 C   0  0  0  0  0  0  0  0  0  0  0  0
   -7.1707   -0.1436    0.1447 C   0  0  0  0  0  0  0  0  0  0  0  0
   -4.5350    0.5498    1.2508 C   0  0  0  0  0  0  0  0  0  0  0  0
   -4.0065    1.9095    1.7309 C   0  0  0  0  0  0  0  0  0  0  0  0
   -2.6282    2.0128    1.4467 O   0  0  0  0  0  0  0  0  0  0  0  0
   -1.9545    2.7643    2.4347 C   0  0  0  0  0  0  0  0  0  0  0  0
   -0.4619    2.7539    2.1218 C   0  0  0  0  0  0  0  0  0  0  0  0
    0.0461    1.4268    2.2672 O   0  0  0  0  0  0  0  0  0  0  0  0
    9.7112    0.0550   -2.2620 H   0  0  0  0  0  0  0  0  0  0  0  0
    9.1459   -1.6668   -2.2758 H   0  0  0  0  0  0  0  0  0  0  0  0
   10.3159   -1.0804   -1.0293 H   0  0  0  0  0  0  0  0  0  0  0  0
    8.5309    0.4997   -0.1525 H   0  0  0  0  0  0  0  0  0  0  0  0
    7.3020   -1.2500    1.1028 H   0  0  0  0  0  0  0  0  0  0  0  0
    7.7372   -2.4853   -0.1390 H   0  0  0  0  0  0  0  0  0  0  0  0
    9.0120   -1.7266    0.8883 H   0  0  0  0  0  0  0  0  0  0  0  0
    6.6807   -1.1038   -2.0531 H   0  0  0  0  0  0  0  0  0  0  0  0
    7.4293    1.8847   -1.9794 H   0  0  0  0  0  0  0  0  0  0  0  0
    7.7848    0.6892   -3.2988 H   0  0  0  0  0  0  0  0  0  0  0  0
    5.9607    1.9810   -3.7100 H   0  0  0  0  0  0  0  0  0  0  0  0
    5.9908    0.9718    0.0811 H   0  0  0  0  0  0  0  0  0  0  0  0
    4.0045    2.0122    0.0435 H   0  0  0  0  0  0  0  0  0  0  0  0
    2.0733    2.8763    1.2329 H   0  0  0  0  0  0  0  0  0  0  0  0
    2.5692   -2.0172    0.6068 H   0  0  0  0  0  0  0  0  0  0  0  0
    0.8031   -2.3753    2.2502 H   0  0  0  0  0  0  0  0  0  0  0  0
   -0.1889   -1.0366    2.8548 H   0  0  0  0  0  0  0  0  0  0  0  0
   -0.5660   -3.8831    1.0214 H   0  0  0  0  0  0  0  0  0  0  0  0
   -2.4490   -4.3412   -0.5000 H   0  0  0  0  0  0  0  0  0  0  0  0
   -3.7901   -2.4936   -1.4312 H   0  0  0  0  0  0  0  0  0  0  0  0
   -1.2338    0.3225    0.5306 H   0  0  0  0  0  0  0  0  0  0  0  0
   -2.8338    1.1504   -0.9997 H   0  0  0  0  0  0  0  0  0  0  0  0
   -3.6444    0.0199   -2.0524 H   0  0  0  0  0  0  0  0  0  0  0  0
   -5.6581   -1.2847   -0.8994 H   0  0  0  0  0  0  0  0  0  0  0  0
   -6.5775    1.4437   -2.0256 H   0  0  0  0  0  0  0  0  0  0  0  0
   -5.5280    0.3048   -2.9071 H   0  0  0  0  0  0  0  0  0  0  0  0
   -8.2828    0.3532   -3.1645 H   0  0  0  0  0  0  0  0  0  0  0  0
   -7.2277   -1.0286   -3.5613 H   0  0  0  0  0  0  0  0  0  0  0  0
   -9.0277    0.4827   -0.8431 H   0  0  0  0  0  0  0  0  0  0  0  0
   -9.1473   -1.0550    0.0484 H   0  0  0  0  0  0  0  0  0  0  0  0
   -7.2714    0.8750    0.5810 H   0  0  0  0  0  0  0  0  0  0  0  0
   -7.0641   -0.8854    0.9674 H   0  0  0  0  0  0  0  0  0  0  0  0
   -5.4740    0.3964    1.8068 H   0  0  0  0  0  0  0  0  0  0  0  0
   -3.8808   -0.2671    1.6154 H   0  0  0  0  0  0  0  0  0  0  0  0
   -4.2317    1.9930    2.8210 H   0  0  0  0  0  0  0  0  0  0  0  0
   -4.5516    2.7257    1.2097 H   0  0  0  0  0  0  0  0  0  0  0  0
   -2.3196    3.8153    2.4331 H   0  0  0  0  0  0  0  0  0  0  0  0
   -2.0955    2.3200    3.4457 H   0  0  0  0  0  0  0  0  0  0  0  0
    0.0771    3.4354    2.8164 H   0  0  0  0  0  0  0  0  0  0  0  0
   -0.3185    3.1140    1.0773 H   0  0  0  0  0  0  0  0  0  0  0  0
  1  2  1  0
  2  3  1  0
  2  4  1  0
  4  5  1  0
  5  6  1  0
  4  7  1  0
  7  8  1  0
  8  9  2  0
  8 10  1  0
 10 11  2  0
 11 12  1  0
 12 13  2  0
 13 14  1  0
 14 15  2  0
 14 16  1  0
 16 17  1  0
 17 18  2  0
 18 19  1  0
 19 20  2  0
 20 21  1  0
 21 22  2  0
 21 23  1  0
 23 24  1  0
 24 25  1  0
 25 26  1  0
 26 27  1  0
 27 28  1  0
 28 29  1  0
 29 30  1  0
 24 31  1  0
 31 32  1  0
 32 33  1  0
 33 34  1  0
 34 35  1  0
 35 36  1  0
 15 10  1  0
 22 17  1  0
 30 25  1  0
 36 13  1  0
  1 37  1  0
  1 38  1  0
  1 39  1  0
  2 40  1  0
  3 41  1  0
  3 42  1  0
  3 43  1  0
  4 44  1  0
  5 45  1  0
  5 46  1  0
  6 47  1  0
  7 48  1  0
 11 49  1  0
 12 50  1  0
 15 51  1  0
 16 52  1  0
 16 53  1  0
 18 54  1  0
 19 55  1  0
 20 56  1  0
 22 57  1  0
 23 58  1  0
 23 59  1  0
 25 60  1  0
 26 61  1  0
 26 62  1  0
 27 63  1  0
 27 64  1  0
 29 65  1  0
 29 66  1  0
 30 67  1  0
 30 68  1  0
 31 69  1  0
 31 70  1  0
 32 71  1  0
 32 72  1  0
 34 73  1  0
 34 74  1  0
 35 75  1  0
 35 76  1  0
M  END
$$$$
