
     RDKit          3D

 69 71  0  0  0  0  0  0  0  0999 V2000
   -3.5516   -2.9522   -3.1655 C   0  0  0  0  0  0  0  0  0  0  0  0
   -3.1604   -1.8515   -2.1789 C   0  0  0  0  0  0  0  0  0  0  0  0
   -2.0367   -2.2825   -1.2624 C   0  0  0  0  0  0  0  0  0  0  0  0
   -1.1764   -3.0976   -1.6961 O   0  0  0  0  0  0  0  0  0  0  0  0
   -1.8962   -1.7589    0.0788 N   0  0  0  0  0  0  0  0  0  0  0  0
   -2.7261   -0.6563    0.5982 C   0  0  0  0  0  0  0  0  0  0  0  0
   -2.3999    0.6677   -0.1166 C   0  0  0  0  0  0  0  0  0  0  0  0
   -2.4433    1.8820    0.8260 C   0  0  0  0  0  0  0  0  0  0  0  0
   -1.6310    2.9898    0.2566 N   0  0  0  0  0  0  0  0  0  0  0  0
   -2.3577    4.2819    0.1249 C   0  0  0  0  0  0  0  0  0  0  0  0
   -2.8667    4.8370    1.4693 C   0  0  0  0  0  0  0  0  0  0  0  0
   -3.4912    4.1820   -0.9067 C   0  0  0  0  0  0  0  0  0  0  0  0
   -0.3158    3.1519    0.9354 C   0  0  0  0  0  0  0  0  0  0  0  0
    0.7263    2.1318    0.4308 C   0  0  0  0  0  0  0  0  0  0  0  0
    0.8163    0.8787    1.3147 C   0  0  0  0  0  0  0  0  0  0  0  0
    1.6767   -0.1309    0.6845 N   0  0  0  0  0  0  0  0  0  0  0  0
    3.0940   -0.1240    0.9484 C   0  0  0  0  0  0  0  0  0  0  0  0
    3.5161    0.2081    2.0894 O   0  0  0  0  0  0  0  0  0  0  0  0
    4.0711   -0.5387   -0.0720 C   0  0  0  0  0  0  0  0  0  0  0  0
    5.2190   -1.2678    0.1523 C   0  0  0  0  0  0  0  0  0  0  0  0
    5.8777   -1.3778   -1.0169 N   0  0  0  0  0  0  0  0  0  0  0  0
    7.1080   -2.1249   -1.2357 C   0  0  0  0  0  0  0  0  0  0  0  0
    5.2111   -0.7577   -1.9788 N   0  0  0  0  0  0  0  0  0  0  0  0
    4.0984   -0.2333   -1.4263 C   0  0  0  0  0  0  0  0  0  0  0  0
    3.1654    0.6744   -2.1631 C   0  0  0  0  0  0  0  0  0  0  0  0
    1.0576   -1.2609   -0.0296 C   0  0  0  0  0  0  0  0  0  0  0  0
    0.4061   -2.2188    0.9411 C   0  0  0  0  0  0  0  0  0  0  0  0
    1.2285   -2.9237    1.8373 C   0  0  0  0  0  0  0  0  0  0  0  0
    0.6758   -3.8020    2.7724 C   0  0  0  0  0  0  0  0  0  0  0  0
    1.4857   -4.4756    3.6276 F   0  0  0  0  0  0  0  0  0  0  0  0
   -0.7064   -3.9862    2.8264 C   0  0  0  0  0  0  0  0  0  0  0  0
   -1.2412   -4.8490    3.7271 F   0  0  0  0  0  0  0  0  0  0  0  0
   -1.5376   -3.3032    1.9376 C   0  0  0  0  0  0  0  0  0  0  0  0
   -0.9980   -2.4235    0.9881 C   0  0  0  0  0  0  0  0  0  0  0  0
   -4.4214   -2.6213   -3.7730 H   0  0  0  0  0  0  0  0  0  0  0  0
   -2.7069   -3.1736   -3.8517 H   0  0  0  0  0  0  0  0  0  0  0  0
   -3.8280   -3.8788   -2.6148 H   0  0  0  0  0  0  0  0  0  0  0  0
   -2.8422   -0.9501   -2.7460 H   0  0  0  0  0  0  0  0  0  0  0  0
   -4.0664   -1.5972   -1.5928 H   0  0  0  0  0  0  0  0  0  0  0  0
   -2.5573   -0.5563    1.6923 H   0  0  0  0  0  0  0  0  0  0  0  0
   -3.8036   -0.8959    0.4948 H   0  0  0  0  0  0  0  0  0  0  0  0
   -3.1250    0.8304   -0.9426 H   0  0  0  0  0  0  0  0  0  0  0  0
   -1.4045    0.5986   -0.5926 H   0  0  0  0  0  0  0  0  0  0  0  0
   -2.0967    1.6181    1.8485 H   0  0  0  0  0  0  0  0  0  0  0  0
   -3.5089    2.1533    0.9523 H   0  0  0  0  0  0  0  0  0  0  0  0
   -1.6581    5.0398   -0.2953 H   0  0  0  0  0  0  0  0  0  0  0  0
   -2.0266    4.9599    2.1852 H   0  0  0  0  0  0  0  0  0  0  0  0
   -3.6316    4.1792    1.9261 H   0  0  0  0  0  0  0  0  0  0  0  0
   -3.3262    5.8354    1.3126 H   0  0  0  0  0  0  0  0  0  0  0  0
   -3.1182    3.6953   -1.8335 H   0  0  0  0  0  0  0  0  0  0  0  0
   -4.3556    3.6049   -0.5175 H   0  0  0  0  0  0  0  0  0  0  0  0
   -3.8516    5.2005   -1.1704 H   0  0  0  0  0  0  0  0  0  0  0  0
    0.1067    4.1579    0.7167 H   0  0  0  0  0  0  0  0  0  0  0  0
   -0.4192    3.1067    2.0429 H   0  0  0  0  0  0  0  0  0  0  0  0
    1.7302    2.6123    0.4294 H   0  0  0  0  0  0  0  0  0  0  0  0
    0.5087    1.8559   -0.6226 H   0  0  0  0  0  0  0  0  0  0  0  0
   -0.1830    0.4489    1.4973 H   0  0  0  0  0  0  0  0  0  0  0  0
    1.2137    1.1594    2.3126 H   0  0  0  0  0  0  0  0  0  0  0  0
    5.5457   -1.6889    1.0955 H   0  0  0  0  0  0  0  0  0  0  0  0
    7.6742   -2.2238   -0.2848 H   0  0  0  0  0  0  0  0  0  0  0  0
    7.7452   -1.5950   -1.9764 H   0  0  0  0  0  0  0  0  0  0  0  0
    6.8628   -3.1377   -1.6187 H   0  0  0  0  0  0  0  0  0  0  0  0
    2.1135    0.3443   -2.0375 H   0  0  0  0  0  0  0  0  0  0  0  0
    3.4088    0.6642   -3.2497 H   0  0  0  0  0  0  0  0  0  0  0  0
    3.2774    1.7124   -1.7790 H   0  0  0  0  0  0  0  0  0  0  0  0
    1.8149   -1.8225   -0.6173 H   0  0  0  0  0  0  0  0  0  0  0  0
    0.3366   -0.8684   -0.7710 H   0  0  0  0  0  0  0  0  0  0  0  0
    2.3029   -2.7927    1.8092 H   0  0  0  0  0  0  0  0  0  0  0  0
   -2.6083   -3.4634    1.9778 H   0  0  0  0  0  0  0  0  0  0  0  0
  1  2  1  0
  2  3  1  0
  3  4  2  0
  3  5  1  0
  5  6  1  0
  6  7  1  0
  7  8  1  0
  8  9  1  0
  9 10  1  0
 10 11  1  0
 10 12  1  0
  9 13  1  0
 13 14  1  0
 14 15  1  0
 15 16  1  0
 16 17  1  0
 17 18  2  0
 17 19  1  0
 19 20  2  0
 20 21  1  0
 21 22  1  0
 21 23  1  0
 23 24  2  0
 24 25  1  0
 16 26  1  0
 26 27  1  0
 27 28  2  0
 28 29  1  0
 29 30  1  0
 29 31  2  0
 31 32  1  0
 31 33  1  0
 33 34  2  0
 34  5  1  0
 24 19  1  0
 34 27  1  0
  1 35  1  0
  1 36  1  0
  1 37  1  0
  2 38  1  0
  2 39  1  0
  6 40  1  0
  6 41  1  0
  7 42  1  0
  7 43  1  0
  8 44  1  0
  8 45  1  0
 10 46  1  0
 11 47  1  0
 11 48  1  0
 11 49  1  0
 12 50  1  0
 12 51  1  0
 12 52  1  0
 13 53  1  0
 13 54  1  0
 14 55  1  0
 14 56  1  0
 15 57  1  0
 15 58  1  0
 20 59  1  0
 22 60  1  0
 22 61  1  0
 22 62  1  0
 25 63  1  0
 25 64  1  0
 25 65  1  0
 26 66  1  0
 26 67  1  0
 28 68  1  0
 33 69  1  0
M  END
$$$$
