
     RDKit          3D

 79 82  0  0  0  0  0  0  0  0999 V2000
   -5.7399   -2.4434   -0.1256 C   0  0  0  0  0  0  0  0  0  0  0  0
   -6.2447   -1.0276   -0.0175 C   0  0  0  0  0  0  0  0  0  0  0  0
   -7.4365   -0.6833   -0.6738 C   0  0  0  0  0  0  0  0  0  0  0  0
   -7.9460    0.6090   -0.5809 C   0  0  0  0  0  0  0  0  0  0  0  0
   -7.2958    1.5662    0.1961 C   0  0  0  0  0  0  0  0  0  0  0  0
   -6.1211    1.2443    0.8931 C   0  0  0  0  0  0  0  0  0  0  0  0
   -5.5002    2.3092    1.7631 C   0  0  0  0  0  0  0  0  0  0  0  0
   -5.5613   -0.0522    0.7533 C   0  0  0  0  0  0  0  0  0  0  0  0
   -4.2768   -0.3968    1.4086 C   0  0  0  0  0  0  0  0  0  0  0  0
   -4.2766   -1.2825    2.3072 O   0  0  0  0  0  0  0  0  0  0  0  0
   -3.0381    0.2490    1.0305 N   0  0  0  0  0  0  0  0  0  0  0  0
   -1.8664    0.1512    1.9156 C   0  0  0  0  0  0  0  0  0  0  0  0
   -0.9238   -0.9532    1.4235 C   0  0  0  0  0  0  0  0  0  0  0  0
    0.3221   -1.1164    2.3064 C   0  0  0  0  0  0  0  0  0  0  0  0
    1.4187   -0.0327    2.1534 C   0  0  0  0  0  0  0  0  0  0  0  0
    2.0604    0.2305    0.7336 C   0  0  0  0  0  0  0  0  0  0  0  0
    3.3918    1.0338    0.9491 C   0  0  0  0  0  0  0  0  0  0  0  0
    4.4593    0.6893   -0.1025 C   0  0  0  0  0  0  0  0  0  0  0  0
    4.8278   -0.7532   -0.0952 N   0  0  0  0  0  0  0  0  0  0  0  0
    6.0810   -1.0109    0.6424 C   0  0  0  0  0  0  0  0  0  0  0  0
    7.2761   -0.5475   -0.1517 C   0  0  0  0  0  0  0  0  0  0  0  0
    8.2645    0.2493    0.4492 C   0  0  0  0  0  0  0  0  0  0  0  0
    9.3810    0.6393   -0.2961 C   0  0  0  0  0  0  0  0  0  0  0  0
    9.5135    0.2373   -1.5877 N   0  0  0  0  0  0  0  0  0  0  0  0
    8.5734   -0.5372   -2.1947 C   0  0  0  0  0  0  0  0  0  0  0  0
    7.4424   -0.9514   -1.4858 C   0  0  0  0  0  0  0  0  0  0  0  0
    3.7477   -1.6505    0.3817 C   0  0  0  0  0  0  0  0  0  0  0  0
    2.3722   -1.1117   -0.0164 C   0  0  0  0  0  0  0  0  0  0  0  0
    1.1443    1.1070   -0.1152 C   0  0  0  0  0  0  0  0  0  0  0  0
    0.4718    2.0247    0.4322 O   0  0  0  0  0  0  0  0  0  0  0  0
    1.1599    1.0094   -1.5136 O   0  0  0  0  0  0  0  0  0  0  0  0
    0.0510    1.3736   -2.3356 C   0  0  0  0  0  0  0  0  0  0  0  0
   -0.7619    0.1061   -2.6861 C   0  0  0  0  0  0  0  0  0  0  0  0
   -0.3002   -0.3823   -3.9225 O   0  0  0  0  0  0  0  0  0  0  0  0
   -2.3074    0.2991   -2.7539 C   0  0  0  0  0  0  0  0  0  0  0  0
   -2.6794    1.5477   -3.2843 O   0  0  0  0  0  0  0  0  0  0  0  0
   -3.0563   -0.0667   -1.4419 C   0  0  0  0  0  0  0  0  0  0  0  0
   -2.8862    0.9216   -0.2726 C   0  0  0  0  0  0  0  0  0  0  0  0
   -4.6482   -2.4564   -0.3260 H   0  0  0  0  0  0  0  0  0  0  0  0
   -6.2386   -2.9925   -0.9538 H   0  0  0  0  0  0  0  0  0  0  0  0
   -5.9406   -2.9778    0.8273 H   0  0  0  0  0  0  0  0  0  0  0  0
   -7.9705   -1.4166   -1.2679 H   0  0  0  0  0  0  0  0  0  0  0  0
   -8.8584    0.8667   -1.1009 H   0  0  0  0  0  0  0  0  0  0  0  0
   -7.7200    2.5603    0.2676 H   0  0  0  0  0  0  0  0  0  0  0  0
   -4.8057    1.8877    2.5216 H   0  0  0  0  0  0  0  0  0  0  0  0
   -6.2957    2.8501    2.3184 H   0  0  0  0  0  0  0  0  0  0  0  0
   -4.9520    3.0415    1.1329 H   0  0  0  0  0  0  0  0  0  0  0  0
   -1.3427    1.1281    1.9481 H   0  0  0  0  0  0  0  0  0  0  0  0
   -2.1823   -0.0652    2.9593 H   0  0  0  0  0  0  0  0  0  0  0  0
   -0.6299   -0.7768    0.3743 H   0  0  0  0  0  0  0  0  0  0  0  0
   -1.4851   -1.9130    1.4396 H   0  0  0  0  0  0  0  0  0  0  0  0
    0.7646   -2.1192    2.1323 H   0  0  0  0  0  0  0  0  0  0  0  0
    0.0020   -1.1343    3.3724 H   0  0  0  0  0  0  0  0  0  0  0  0
    1.0455    0.9194    2.5897 H   0  0  0  0  0  0  0  0  0  0  0  0
    2.2218   -0.3644    2.8437 H   0  0  0  0  0  0  0  0  0  0  0  0
    3.8440    0.8205    1.9417 H   0  0  0  0  0  0  0  0  0  0  0  0
    3.2071    2.1319    0.9397 H   0  0  0  0  0  0  0  0  0  0  0  0
    5.3472    1.3409    0.0555 H   0  0  0  0  0  0  0  0  0  0  0  0
    4.0675    0.9489   -1.1094 H   0  0  0  0  0  0  0  0  0  0  0  0
    6.2113   -2.1030    0.8139 H   0  0  0  0  0  0  0  0  0  0  0  0
    6.0438   -0.5260    1.6438 H   0  0  0  0  0  0  0  0  0  0  0  0
    8.1735    0.5658    1.4817 H   0  0  0  0  0  0  0  0  0  0  0  0
   10.1504    1.2509    0.1590 H   0  0  0  0  0  0  0  0  0  0  0  0
    8.7129   -0.8453   -3.2219 H   0  0  0  0  0  0  0  0  0  0  0  0
    6.7040   -1.5786   -1.9726 H   0  0  0  0  0  0  0  0  0  0  0  0
    3.7836   -1.7765    1.4889 H   0  0  0  0  0  0  0  0  0  0  0  0
    3.8856   -2.6545   -0.0769 H   0  0  0  0  0  0  0  0  0  0  0  0
    1.5979   -1.8851    0.1380 H   0  0  0  0  0  0  0  0  0  0  0  0
    2.4062   -0.9674   -1.1175 H   0  0  0  0  0  0  0  0  0  0  0  0
    0.4476    1.8282   -3.2700 H   0  0  0  0  0  0  0  0  0  0  0  0
   -0.5481    2.1682   -1.8531 H   0  0  0  0  0  0  0  0  0  0  0  0
   -0.5470   -0.6598   -1.9060 H   0  0  0  0  0  0  0  0  0  0  0  0
   -0.4421   -1.3655   -3.9235 H   0  0  0  0  0  0  0  0  0  0  0  0
   -2.6773   -0.4561   -3.4831 H   0  0  0  0  0  0  0  0  0  0  0  0
   -2.6863    2.2141   -2.5505 H   0  0  0  0  0  0  0  0  0  0  0  0
   -2.7286   -1.0809   -1.1229 H   0  0  0  0  0  0  0  0  0  0  0  0
   -4.1390   -0.1412   -1.6805 H   0  0  0  0  0  0  0  0  0  0  0  0
   -3.6260    1.7422   -0.3645 H   0  0  0  0  0  0  0  0  0  0  0  0
   -1.8925    1.3924   -0.3222 H   0  0  0  0  0  0  0  0  0  0  0  0
  1  2  1  0
  2  3  2  0
  3  4  1  0
  4  5  2  0
  5  6  1  0
  6  7  1  0
  6  8  2  0
  8  9  1  0
  9 10  2  0
  9 11  1  0
 11 12  1  0
 12 13  1  0
 13 14  1  0
 14 15  1  0
 15 16  1  0
 16 17  1  0
 17 18  1  0
 18 19  1  0
 19 20  1  0
 20 21  1  0
 21 22  2  0
 22 23  1  0
 23 24  2  0
 24 25  1  0
 25 26  2  0
 19 27  1  0
 27 28  1  0
 16 29  1  0
 29 30  2  0
 29 31  1  0
 31 32  1  0
 32 33  1  0
 33 34  1  0
 33 35  1  0
 35 36  1  0
 35 37  1  0
 37 38  1  0
  8  2  1  0
 38 11  1  0
 28 16  1  0
 26 21  1  0
  1 39  1  0
  1 40  1  0
  1 41  1  0
  3 42  1  0
  4 43  1  0
  5 44  1  0
  7 45  1  0
  7 46  1  0
  7 47  1  0
 12 48  1  0
 12 49  1  0
 13 50  1  0
 13 51  1  0
 14 52  1  0
 14 53  1  0
 15 54  1  0
 15 55  1  0
 17 56  1  0
 17 57  1  0
 18 58  1  0
 18 59  1  0
 20 60  1  0
 20 61  1  0
 22 62  1  0
 23 63  1  0
 25 64  1  0
 26 65  1  0
 27 66  1  0
 27 67  1  0
 28 68  1  0
 28 69  1  0
 32 70  1  0
 32 71  1  0
 33 72  1  0
 34 73  1  0
 35 74  1  0
 36 75  1  0
 37 76  1  0
 37 77  1  0
 38 78  1  0
 38 79  1  0
M  END
$$$$
