
     RDKit          3D

 63 66  0  0  0  0  0  0  0  0999 V2000
    5.8760   -0.9576    2.2858 C   0  0  0  0  0  0  0  0  0  0  0  0
    5.6821   -0.5590    0.8485 C   0  0  0  0  0  0  0  0  0  0  0  0
    6.6244   -0.9525   -0.1138 C   0  0  0  0  0  0  0  0  0  0  0  0
    6.4494   -0.5797   -1.4466 C   0  0  0  0  0  0  0  0  0  0  0  0
    5.3792    0.1727   -1.8089 N   0  0  0  0  0  0  0  0  0  0  0  0
    4.4515    0.5782   -0.9030 C   0  0  0  0  0  0  0  0  0  0  0  0
    4.5724    0.2174    0.4500 C   0  0  0  0  0  0  0  0  0  0  0  0
    3.6131    0.6837    1.4169 N   0  0  0  0  0  0  0  0  0  0  0  0
    2.2005    0.7824    1.1643 C   0  0  0  0  0  0  0  0  0  0  0  0
    1.4398    1.7193    1.8699 C   0  0  0  0  0  0  0  0  0  0  0  0
    0.0651    1.8154    1.6593 C   0  0  0  0  0  0  0  0  0  0  0  0
   -0.5841    0.9758    0.7383 C   0  0  0  0  0  0  0  0  0  0  0  0
    0.1759    0.0155    0.0247 C   0  0  0  0  0  0  0  0  0  0  0  0
    1.5584   -0.0818    0.2629 C   0  0  0  0  0  0  0  0  0  0  0  0
   -0.4414   -0.9243   -0.9826 C   0  0  0  0  0  0  0  0  0  0  0  0
   -0.9307   -2.1423   -0.3266 N   0  0  0  0  0  0  0  0  0  0  0  0
   -1.3355   -3.1362   -1.3312 C   0  0  0  0  0  0  0  0  0  0  0  0
   -2.1920   -4.2360   -0.6890 C   0  0  0  0  0  0  0  0  0  0  0  0
   -3.6780   -3.8572   -0.5401 C   0  0  0  0  0  0  0  0  0  0  0  0
   -3.9338   -2.7350    0.4846 C   0  0  0  0  0  0  0  0  0  0  0  0
   -4.1062   -1.3595   -0.1882 C   0  0  0  0  0  0  0  0  0  0  0  0
   -4.1813   -0.2098    0.8254 C   0  0  0  0  0  0  0  0  0  0  0  0
   -2.8169    0.1801    1.4416 C   0  0  0  0  0  0  0  0  0  0  0  0
   -2.0168    1.0848    0.5916 N   0  0  0  0  0  0  0  0  0  0  0  0
   -2.5518    2.3918    0.2593 C   0  0  0  0  0  0  0  0  0  0  0  0
   -3.5832    2.8126    0.8531 O   0  0  0  0  0  0  0  0  0  0  0  0
   -1.8734    3.3012   -0.6994 C   0  0  0  0  0  0  0  0  0  0  0  0
   -1.9571    4.6933   -0.5284 C   0  0  0  0  0  0  0  0  0  0  0  0
   -1.3164    5.5520   -1.4229 C   0  0  0  0  0  0  0  0  0  0  0  0
   -0.6010    5.0141   -2.4923 C   0  0  0  0  0  0  0  0  0  0  0  0
   -0.5389    3.6673   -2.6588 N   0  0  0  0  0  0  0  0  0  0  0  0
   -1.1520    2.8100   -1.7995 C   0  0  0  0  0  0  0  0  0  0  0  0
    6.6530   -1.7450    2.3875 H   0  0  0  0  0  0  0  0  0  0  0  0
    4.9284   -1.3608    2.7015 H   0  0  0  0  0  0  0  0  0  0  0  0
    6.1904   -0.0728    2.8779 H   0  0  0  0  0  0  0  0  0  0  0  0
    7.4876   -1.5450    0.1631 H   0  0  0  0  0  0  0  0  0  0  0  0
    7.1702   -0.8837   -2.1938 H   0  0  0  0  0  0  0  0  0  0  0  0
    3.6283    1.1969   -1.2350 H   0  0  0  0  0  0  0  0  0  0  0  0
    3.9665    1.0001    2.3482 H   0  0  0  0  0  0  0  0  0  0  0  0
    1.9149    2.3791    2.5851 H   0  0  0  0  0  0  0  0  0  0  0  0
   -0.5040    2.5423    2.2254 H   0  0  0  0  0  0  0  0  0  0  0  0
    2.1342   -0.8414   -0.2512 H   0  0  0  0  0  0  0  0  0  0  0  0
    0.3129   -1.1800   -1.7623 H   0  0  0  0  0  0  0  0  0  0  0  0
   -1.2762   -0.4202   -1.5060 H   0  0  0  0  0  0  0  0  0  0  0  0
   -0.1476   -2.5580    0.2319 H   0  0  0  0  0  0  0  0  0  0  0  0
   -1.9054   -2.6655   -2.1639 H   0  0  0  0  0  0  0  0  0  0  0  0
   -0.4271   -3.6035   -1.7750 H   0  0  0  0  0  0  0  0  0  0  0  0
   -1.7689   -4.5295    0.2968 H   0  0  0  0  0  0  0  0  0  0  0  0
   -2.1399   -5.1348   -1.3415 H   0  0  0  0  0  0  0  0  0  0  0  0
   -4.2145   -4.7675   -0.1932 H   0  0  0  0  0  0  0  0  0  0  0  0
   -4.1086   -3.6000   -1.5331 H   0  0  0  0  0  0  0  0  0  0  0  0
   -4.8741   -2.9647    1.0327 H   0  0  0  0  0  0  0  0  0  0  0  0
   -3.1248   -2.7229    1.2429 H   0  0  0  0  0  0  0  0  0  0  0  0
   -5.0583   -1.3768   -0.7628 H   0  0  0  0  0  0  0  0  0  0  0  0
   -3.3064   -1.1575   -0.9191 H   0  0  0  0  0  0  0  0  0  0  0  0
   -4.6495    0.6618    0.3261 H   0  0  0  0  0  0  0  0  0  0  0  0
   -4.8716   -0.5030    1.6465 H   0  0  0  0  0  0  0  0  0  0  0  0
   -2.2354   -0.7322    1.6866 H   0  0  0  0  0  0  0  0  0  0  0  0
   -3.0030    0.6872    2.4137 H   0  0  0  0  0  0  0  0  0  0  0  0
   -2.5048    5.1160    0.3049 H   0  0  0  0  0  0  0  0  0  0  0  0
   -1.3728    6.6243   -1.2873 H   0  0  0  0  0  0  0  0  0  0  0  0
   -0.0994    5.6672   -3.1939 H   0  0  0  0  0  0  0  0  0  0  0  0
   -1.0909    1.7532   -1.9925 H   0  0  0  0  0  0  0  0  0  0  0  0
  1  2  1  0
  2  3  2  0
  3  4  1  0
  4  5  2  0
  5  6  1  0
  6  7  2  0
  7  8  1  0
  8  9  1  0
  9 10  2  0
 10 11  1  0
 11 12  2  0
 12 13  1  0
 13 14  2  0
 13 15  1  0
 15 16  1  0
 16 17  1  0
 17 18  1  0
 18 19  1  0
 19 20  1  0
 20 21  1  0
 21 22  1  0
 22 23  1  0
 23 24  1  0
 24 25  1  0
 25 26  2  0
 25 27  1  0
 27 28  2  0
 28 29  1  0
 29 30  2  0
 30 31  1  0
 31 32  2  0
  7  2  1  0
 14  9  1  0
 32 27  1  0
 24 12  1  0
  1 33  1  0
  1 34  1  0
  1 35  1  0
  3 36  1  0
  4 37  1  0
  6 38  1  0
  8 39  1  0
 10 40  1  0
 11 41  1  0
 14 42  1  0
 15 43  1  0
 15 44  1  0
 16 45  1  0
 17 46  1  0
 17 47  1  0
 18 48  1  0
 18 49  1  0
 19 50  1  0
 19 51  1  0
 20 52  1  0
 20 53  1  0
 21 54  1  0
 21 55  1  0
 22 56  1  0
 22 57  1  0
 23 58  1  0
 23 59  1  0
 28 60  1  0
 29 61  1  0
 30 62  1  0
 32 63  1  0
M  END
$$$$
