
     RDKit          3D

 79 83  0  0  0  0  0  0  0  0999 V2000
    6.8710   -3.5022   -1.0027 C   0  0  0  0  0  0  0  0  0  0  0  0
    6.7615   -2.2924   -0.1314 C   0  0  0  0  0  0  0  0  0  0  0  0
    7.1847   -2.3356    1.2002 C   0  0  0  0  0  0  0  0  0  0  0  0
    7.0318   -1.1911    1.9832 C   0  0  0  0  0  0  0  0  0  0  0  0
    6.4706   -0.0725    1.4512 N   0  0  0  0  0  0  0  0  0  0  0  0
    6.0497   -0.0480    0.1580 C   0  0  0  0  0  0  0  0  0  0  0  0
    5.4053    1.1964   -0.4000 C   0  0  0  0  0  0  0  0  0  0  0  0
    6.4095    2.0214   -1.2068 C   0  0  0  0  0  0  0  0  0  0  0  0
    6.0849    1.7569   -2.6729 C   0  0  0  0  0  0  0  0  0  0  0  0
    4.6473    1.2557   -2.7006 C   0  0  0  0  0  0  0  0  0  0  0  0
    4.3390    0.8539   -1.3388 N   0  0  0  0  0  0  0  0  0  0  0  0
    3.1341    0.1356   -1.0086 C   0  0  0  0  0  0  0  0  0  0  0  0
    2.3797   -0.2589   -1.9379 O   0  0  0  0  0  0  0  0  0  0  0  0
    2.7663   -0.1967    0.4232 C   0  0  0  0  0  0  0  0  0  0  0  0
    1.4781    0.3752    0.8632 N   0  0  0  0  0  0  0  0  0  0  0  0
    1.3485    1.8185    0.5940 C   0  0  0  0  0  0  0  0  0  0  0  0
    0.1007    2.3681    1.3018 C   0  0  0  0  0  0  0  0  0  0  0  0
   -1.2145    1.6435    0.8525 C   0  0  0  0  0  0  0  0  0  0  0  0
   -2.3577    2.1513    1.8087 C   0  0  0  0  0  0  0  0  0  0  0  0
   -3.8248    2.0006    1.3398 C   0  0  0  0  0  0  0  0  0  0  0  0
   -4.4911    0.6622    1.7227 C   0  0  0  0  0  0  0  0  0  0  0  0
   -5.7860    0.4579    0.9112 C   0  0  0  0  0  0  0  0  0  0  0  0
   -6.2624   -0.9767    0.9294 C   0  0  0  0  0  0  0  0  0  0  0  0
   -7.1747   -1.3750    1.9228 C   0  0  0  0  0  0  0  0  0  0  0  0
   -7.6397   -2.6902    1.9741 C   0  0  0  0  0  0  0  0  0  0  0  0
   -7.1997   -3.6279    1.0372 C   0  0  0  0  0  0  0  0  0  0  0  0
   -6.2761   -3.2575    0.0581 C   0  0  0  0  0  0  0  0  0  0  0  0
   -5.7996   -1.9420   -0.0053 C   0  0  0  0  0  0  0  0  0  0  0  0
   -4.8123   -1.6429   -0.9510 O   0  0  0  0  0  0  0  0  0  0  0  0
   -5.0600   -0.9402   -2.1723 C   0  0  0  0  0  0  0  0  0  0  0  0
   -3.8373   -0.0821   -2.5969 C   0  0  0  0  0  0  0  0  0  0  0  0
   -2.7618    0.0019   -1.5004 C   0  0  0  0  0  0  0  0  0  0  0  0
   -1.8594    1.1388   -1.6749 N   0  0  0  0  0  0  0  0  0  0  0  0
   -1.5033    2.0540   -0.6150 C   0  0  0  0  0  0  0  0  0  0  0  0
   -1.4183    3.2779   -0.9117 O   0  0  0  0  0  0  0  0  0  0  0  0
   -0.9498    0.1201    1.0794 C   0  0  0  0  0  0  0  0  0  0  0  0
    0.3116   -0.3684    0.3597 C   0  0  0  0  0  0  0  0  0  0  0  0
    6.2047   -1.1526   -0.6216 N   0  0  0  0  0  0  0  0  0  0  0  0
    6.6379   -3.2416   -2.0579 H   0  0  0  0  0  0  0  0  0  0  0  0
    6.1594   -4.2811   -0.6564 H   0  0  0  0  0  0  0  0  0  0  0  0
    7.9032   -3.9086   -0.9593 H   0  0  0  0  0  0  0  0  0  0  0  0
    7.6170   -3.2369    1.6217 H   0  0  0  0  0  0  0  0  0  0  0  0
    7.3512   -1.1934    3.0177 H   0  0  0  0  0  0  0  0  0  0  0  0
    4.9957    1.8185    0.4267 H   0  0  0  0  0  0  0  0  0  0  0  0
    6.2574    3.1037   -0.9917 H   0  0  0  0  0  0  0  0  0  0  0  0
    7.4680    1.7600   -0.9798 H   0  0  0  0  0  0  0  0  0  0  0  0
    6.2036    2.6770   -3.2866 H   0  0  0  0  0  0  0  0  0  0  0  0
    6.7634    0.9660   -3.0656 H   0  0  0  0  0  0  0  0  0  0  0  0
    4.5524    0.3909   -3.3934 H   0  0  0  0  0  0  0  0  0  0  0  0
    3.9538    2.0680   -3.0119 H   0  0  0  0  0  0  0  0  0  0  0  0
    2.7530   -1.3002    0.5353 H   0  0  0  0  0  0  0  0  0  0  0  0
    3.5406    0.1457    1.1319 H   0  0  0  0  0  0  0  0  0  0  0  0
    2.2386    2.3566    0.9845 H   0  0  0  0  0  0  0  0  0  0  0  0
    1.2809    2.0200   -0.4985 H   0  0  0  0  0  0  0  0  0  0  0  0
    0.0391    3.4643    1.1240 H   0  0  0  0  0  0  0  0  0  0  0  0
    0.2487    2.2395    2.3980 H   0  0  0  0  0  0  0  0  0  0  0  0
   -2.2095    3.2422    1.9613 H   0  0  0  0  0  0  0  0  0  0  0  0
   -2.2498    1.7037    2.8201 H   0  0  0  0  0  0  0  0  0  0  0  0
   -4.4224    2.8014    1.8287 H   0  0  0  0  0  0  0  0  0  0  0  0
   -3.9020    2.2061    0.2522 H   0  0  0  0  0  0  0  0  0  0  0  0
   -4.7354    0.6704    2.8100 H   0  0  0  0  0  0  0  0  0  0  0  0
   -3.8129   -0.1928    1.5611 H   0  0  0  0  0  0  0  0  0  0  0  0
   -5.6393    0.7823   -0.1349 H   0  0  0  0  0  0  0  0  0  0  0  0
   -6.5728    1.1271    1.3247 H   0  0  0  0  0  0  0  0  0  0  0  0
   -7.5267   -0.6617    2.6593 H   0  0  0  0  0  0  0  0  0  0  0  0
   -8.3406   -2.9833    2.7448 H   0  0  0  0  0  0  0  0  0  0  0  0
   -7.5606   -4.6481    1.0837 H   0  0  0  0  0  0  0  0  0  0  0  0
   -5.9146   -3.9984   -0.6463 H   0  0  0  0  0  0  0  0  0  0  0  0
   -5.2923   -1.6794   -2.9699 H   0  0  0  0  0  0  0  0  0  0  0  0
   -5.9562   -0.2900   -2.0687 H   0  0  0  0  0  0  0  0  0  0  0  0
   -3.3800   -0.5117   -3.5167 H   0  0  0  0  0  0  0  0  0  0  0  0
   -4.1896    0.9437   -2.8498 H   0  0  0  0  0  0  0  0  0  0  0  0
   -3.2891    0.1337   -0.5512 H   0  0  0  0  0  0  0  0  0  0  0  0
   -2.1674   -0.9415   -1.4806 H   0  0  0  0  0  0  0  0  0  0  0  0
   -1.5913    1.4026   -2.6502 H   0  0  0  0  0  0  0  0  0  0  0  0
   -0.7962   -0.0582    2.1657 H   0  0  0  0  0  0  0  0  0  0  0  0
   -1.7896   -0.5354    0.8125 H   0  0  0  0  0  0  0  0  0  0  0  0
    0.4281   -1.4542    0.5718 H   0  0  0  0  0  0  0  0  0  0  0  0
    0.1963   -0.2434   -0.7360 H   0  0  0  0  0  0  0  0  0  0  0  0
  1  2  1  0
  2  3  2  0
  3  4  1  0
  4  5  2  0
  5  6  1  0
  6  7  1  0
  7  8  1  0
  8  9  1  0
  9 10  1  0
 10 11  1  0
 11 12  1  0
 12 13  2  0
 12 14  1  0
 14 15  1  0
 15 16  1  0
 16 17  1  0
 17 18  1  0
 18 19  1  0
 19 20  1  0
 20 21  1  0
 21 22  1  0
 22 23  1  0
 23 24  2  0
 24 25  1  0
 25 26  2  0
 26 27  1  0
 27 28  2  0
 28 29  1  0
 29 30  1  0
 30 31  1  0
 31 32  1  0
 32 33  1  0
 33 34  1  0
 34 35  2  0
 18 36  1  0
 36 37  1  0
  6 38  2  0
 38  2  1  0
 11  7  1  0
 37 15  1  0
 34 18  1  0
 28 23  1  0
  1 39  1  0
  1 40  1  0
  1 41  1  0
  3 42  1  0
  4 43  1  0
  7 44  1  0
  8 45  1  0
  8 46  1  0
  9 47  1  0
  9 48  1  0
 10 49  1  0
 10 50  1  0
 14 51  1  0
 14 52  1  0
 16 53  1  0
 16 54  1  0
 17 55  1  0
 17 56  1  0
 19 57  1  0
 19 58  1  0
 20 59  1  0
 20 60  1  0
 21 61  1  0
 21 62  1  0
 22 63  1  0
 22 64  1  0
 24 65  1  0
 25 66  1  0
 26 67  1  0
 27 68  1  0
 30 69  1  0
 30 70  1  0
 31 71  1  0
 31 72  1  0
 32 73  1  0
 32 74  1  0
 33 75  1  0
 36 76  1  0
 36 77  1  0
 37 78  1  0
 37 79  1  0
M  END
$$$$
