
     RDKit          3D

 76 79  0  0  0  0  0  0  0  0999 V2000
    7.5619    0.6551   -0.6493 C   0  0  0  0  0  0  0  0  0  0  0  0
    6.2603    0.6007    0.0364 N   0  0  0  0  0  0  0  0  0  0  0  0
    6.4187    0.0223    1.3816 C   0  0  0  0  0  0  0  0  0  0  0  0
    5.0598   -0.1054    2.1135 C   0  0  0  0  0  0  0  0  0  0  0  0
    3.8642    0.5490    1.3578 C   0  0  0  0  0  0  0  0  0  0  0  0
    2.6595    0.6571    2.3568 C   0  0  0  0  0  0  0  0  0  0  0  0
    1.5484    1.6892    2.0407 C   0  0  0  0  0  0  0  0  0  0  0  0
    0.7237    1.4134    0.7757 C   0  0  0  0  0  0  0  0  0  0  0  0
   -0.1321    0.1470    0.9026 C   0  0  0  0  0  0  0  0  0  0  0  0
   -0.9249   -0.0926   -0.3159 N   0  0  0  0  0  0  0  0  0  0  0  0
   -2.2506    0.4764   -0.3972 C   0  0  0  0  0  0  0  0  0  0  0  0
   -2.5569    1.4266    0.3743 O   0  0  0  0  0  0  0  0  0  0  0  0
   -3.2614    0.0019   -1.4289 C   0  0  0  0  0  0  0  0  0  0  0  0
   -4.6642   -0.0331   -0.9510 N   0  0  0  0  0  0  0  0  0  0  0  0
   -4.8243   -0.7097    0.3489 C   0  0  0  0  0  0  0  0  0  0  0  0
   -6.2990   -1.0337    0.5751 C   0  0  0  0  0  0  0  0  0  0  0  0
   -7.1569    0.1889    0.3888 C   0  0  0  0  0  0  0  0  0  0  0  0
   -8.4368    0.2340    0.9662 C   0  0  0  0  0  0  0  0  0  0  0  0
   -9.2603    1.3485    0.7745 C   0  0  0  0  0  0  0  0  0  0  0  0
   -8.8189    2.4182   -0.0063 C   0  0  0  0  0  0  0  0  0  0  0  0
   -7.5505    2.3808   -0.5939 C   0  0  0  0  0  0  0  0  0  0  0  0
   -6.7143    1.2653   -0.4126 C   0  0  0  0  0  0  0  0  0  0  0  0
   -5.3137    1.2948   -0.9874 C   0  0  0  0  0  0  0  0  0  0  0  0
   -0.2514   -0.5968   -1.5258 C   0  0  0  0  0  0  0  0  0  0  0  0
   -0.3263   -2.1353   -1.6576 C   0  0  0  0  0  0  0  0  0  0  0  0
    0.7941   -2.9097   -0.9127 C   0  0  0  0  0  0  0  0  0  0  0  0
    0.4266   -4.2663   -0.8307 O   0  0  0  0  0  0  0  0  0  0  0  0
    2.2000   -2.8255   -1.5850 C   0  0  0  0  0  0  0  0  0  0  0  0
    2.2983   -1.7631   -2.4958 O   0  0  0  0  0  0  0  0  0  0  0  0
    3.3380   -2.7542   -0.5422 C   0  0  0  0  0  0  0  0  0  0  0  0
    3.1875   -1.7043    0.4195 O   0  0  0  0  0  0  0  0  0  0  0  0
    3.4936   -0.3563    0.1813 C   0  0  0  0  0  0  0  0  0  0  0  0
    3.5456    0.0797   -1.0021 O   0  0  0  0  0  0  0  0  0  0  0  0
    4.3270    1.9602    0.8796 C   0  0  0  0  0  0  0  0  0  0  0  0
    5.6808    1.9552    0.1286 C   0  0  0  0  0  0  0  0  0  0  0  0
    7.4334    1.0403   -1.6835 H   0  0  0  0  0  0  0  0  0  0  0  0
    8.2779    1.3132   -0.1047 H   0  0  0  0  0  0  0  0  0  0  0  0
    7.9998   -0.3645   -0.7324 H   0  0  0  0  0  0  0  0  0  0  0  0
    6.8786   -0.9909    1.3043 H   0  0  0  0  0  0  0  0  0  0  0  0
    7.1086    0.6543    1.9935 H   0  0  0  0  0  0  0  0  0  0  0  0
    4.8444   -1.1773    2.3228 H   0  0  0  0  0  0  0  0  0  0  0  0
    5.1859    0.3828    3.1038 H   0  0  0  0  0  0  0  0  0  0  0  0
    3.0507    0.9559    3.3556 H   0  0  0  0  0  0  0  0  0  0  0  0
    2.2119   -0.3461    2.5232 H   0  0  0  0  0  0  0  0  0  0  0  0
    1.9877    2.7053    1.9722 H   0  0  0  0  0  0  0  0  0  0  0  0
    0.8519    1.7236    2.9078 H   0  0  0  0  0  0  0  0  0  0  0  0
    1.3926    1.3565   -0.1029 H   0  0  0  0  0  0  0  0  0  0  0  0
    0.0488    2.2778    0.6083 H   0  0  0  0  0  0  0  0  0  0  0  0
    0.5230   -0.7107    1.0999 H   0  0  0  0  0  0  0  0  0  0  0  0
   -0.8038    0.2336    1.7848 H   0  0  0  0  0  0  0  0  0  0  0  0
   -3.1798    0.6479   -2.3312 H   0  0  0  0  0  0  0  0  0  0  0  0
   -2.9972   -1.0215   -1.7655 H   0  0  0  0  0  0  0  0  0  0  0  0
   -4.4580   -0.0693    1.1831 H   0  0  0  0  0  0  0  0  0  0  0  0
   -4.2522   -1.6649    0.3609 H   0  0  0  0  0  0  0  0  0  0  0  0
   -6.6220   -1.8112   -0.1511 H   0  0  0  0  0  0  0  0  0  0  0  0
   -6.4252   -1.4380    1.6019 H   0  0  0  0  0  0  0  0  0  0  0  0
   -8.7940   -0.5919    1.5693 H   0  0  0  0  0  0  0  0  0  0  0  0
  -10.2404    1.3837    1.2342 H   0  0  0  0  0  0  0  0  0  0  0  0
   -9.4568    3.2801   -0.1507 H   0  0  0  0  0  0  0  0  0  0  0  0
   -7.2135    3.2235   -1.1854 H   0  0  0  0  0  0  0  0  0  0  0  0
   -5.3804    1.6311   -2.0429 H   0  0  0  0  0  0  0  0  0  0  0  0
   -4.7282    2.0512   -0.4261 H   0  0  0  0  0  0  0  0  0  0  0  0
   -0.7074   -0.1378   -2.4304 H   0  0  0  0  0  0  0  0  0  0  0  0
    0.7943   -0.2480   -1.5347 H   0  0  0  0  0  0  0  0  0  0  0  0
   -1.3123   -2.4789   -1.2825 H   0  0  0  0  0  0  0  0  0  0  0  0
   -0.2834   -2.4068   -2.7337 H   0  0  0  0  0  0  0  0  0  0  0  0
    0.8595   -2.5253    0.1226 H   0  0  0  0  0  0  0  0  0  0  0  0
   -0.2805   -4.3404   -0.1382 H   0  0  0  0  0  0  0  0  0  0  0  0
    2.3535   -3.7672   -2.1649 H   0  0  0  0  0  0  0  0  0  0  0  0
    3.1200   -1.9121   -3.0296 H   0  0  0  0  0  0  0  0  0  0  0  0
    4.3236   -2.6598   -1.0475 H   0  0  0  0  0  0  0  0  0  0  0  0
    3.3550   -3.7171    0.0107 H   0  0  0  0  0  0  0  0  0  0  0  0
    4.4263    2.6246    1.7679 H   0  0  0  0  0  0  0  0  0  0  0  0
    3.5575    2.4177    0.2196 H   0  0  0  0  0  0  0  0  0  0  0  0
    5.5148    2.3498   -0.9000 H   0  0  0  0  0  0  0  0  0  0  0  0
    6.3898    2.6485    0.6393 H   0  0  0  0  0  0  0  0  0  0  0  0
  1  2  1  0
  2  3  1  0
  3  4  1  0
  4  5  1  0
  5  6  1  0
  6  7  1  0
  7  8  1  0
  8  9  1  0
  9 10  1  0
 10 11  1  0
 11 12  2  0
 11 13  1  0
 13 14  1  0
 14 15  1  0
 15 16  1  0
 16 17  1  0
 17 18  2  0
 18 19  1  0
 19 20  2  0
 20 21  1  0
 21 22  2  0
 22 23  1  0
 10 24  1  0
 24 25  1  0
 25 26  1  0
 26 27  1  0
 26 28  1  0
 28 29  1  0
 28 30  1  0
 30 31  1  0
 31 32  1  0
 32 33  2  0
  5 34  1  0
 34 35  1  0
 35  2  1  0
 32  5  1  0
 23 14  1  0
 22 17  1  0
  1 36  1  0
  1 37  1  0
  1 38  1  0
  3 39  1  0
  3 40  1  0
  4 41  1  0
  4 42  1  0
  6 43  1  0
  6 44  1  0
  7 45  1  0
  7 46  1  0
  8 47  1  0
  8 48  1  0
  9 49  1  0
  9 50  1  0
 13 51  1  0
 13 52  1  0
 15 53  1  0
 15 54  1  0
 16 55  1  0
 16 56  1  0
 18 57  1  0
 19 58  1  0
 20 59  1  0
 21 60  1  0
 23 61  1  0
 23 62  1  0
 24 63  1  0
 24 64  1  0
 25 65  1  0
 25 66  1  0
 26 67  1  0
 27 68  1  0
 28 69  1  0
 29 70  1  0
 30 71  1  0
 30 72  1  0
 34 73  1  0
 34 74  1  0
 35 75  1  0
 35 76  1  0
M  END
$$$$
