
     RDKit          3D

 76 78  0  0  0  0  0  0  0  0999 V2000
   -0.6816   -4.8560    0.8364 C   0  0  0  0  0  0  0  0  0  0  0  0
   -0.8190   -3.3798    1.0526 C   0  0  0  0  0  0  0  0  0  0  0  0
   -0.4378   -2.8910    2.1501 O   0  0  0  0  0  0  0  0  0  0  0  0
   -1.3067   -2.5054    0.0145 N   0  0  0  0  0  0  0  0  0  0  0  0
   -2.4548   -2.8803   -0.8272 C   0  0  0  0  0  0  0  0  0  0  0  0
   -3.6484   -3.4071   -0.0063 C   0  0  0  0  0  0  0  0  0  0  0  0
   -4.2137   -2.3600    0.9650 C   0  0  0  0  0  0  0  0  0  0  0  0
   -5.1974   -1.4133    0.2691 C   0  0  0  0  0  0  0  0  0  0  0  0
   -5.5916   -0.2204    1.1599 C   0  0  0  0  0  0  0  0  0  0  0  0
   -4.8449    1.0758    0.7945 C   0  0  0  0  0  0  0  0  0  0  0  0
   -3.4078    1.1740    1.3597 C   0  0  0  0  0  0  0  0  0  0  0  0
   -2.3537    0.9267    0.3304 N   0  0  0  0  0  0  0  0  0  0  0  0
   -1.9556    2.2019   -0.3421 C   0  0  0  0  0  0  0  0  0  0  0  0
   -2.8912    2.6172   -1.4983 C   0  0  0  0  0  0  0  0  0  0  0  0
   -3.0459    1.4873   -2.5289 C   0  0  0  0  0  0  0  0  0  0  0  0
   -2.3499    3.8778   -2.1886 C   0  0  0  0  0  0  0  0  0  0  0  0
   -1.1628    0.3142    0.9858 C   0  0  0  0  0  0  0  0  0  0  0  0
   -0.1835   -0.2838   -0.0120 C   0  0  0  0  0  0  0  0  0  0  0  0
    0.9399    0.4706   -0.4088 C   0  0  0  0  0  0  0  0  0  0  0  0
    1.8570   -0.0329   -1.3425 C   0  0  0  0  0  0  0  0  0  0  0  0
    3.0359    0.7492   -1.7672 C   0  0  0  0  0  0  0  0  0  0  0  0
    3.1373    1.0712   -2.9822 O   0  0  0  0  0  0  0  0  0  0  0  0
    4.1189    1.0416   -0.8597 N   0  0  0  0  0  0  0  0  0  0  0  0
    3.8565    1.3427    0.5576 C   0  0  0  0  0  0  0  0  0  0  0  0
    5.1346    1.7563    1.2970 C   0  0  0  0  0  0  0  0  0  0  0  0
    6.2650    0.7307    1.0662 C   0  0  0  0  0  0  0  0  0  0  0  0
    7.5830    1.2155    1.6994 C   0  0  0  0  0  0  0  0  0  0  0  0
    8.0095    2.4220    1.1208 O   0  0  0  0  0  0  0  0  0  0  0  0
    6.4415    0.3451   -0.4318 C   0  0  0  0  0  0  0  0  0  0  0  0
    5.4947    1.1024   -1.3723 C   0  0  0  0  0  0  0  0  0  0  0  0
    1.6365   -1.2919   -1.9092 C   0  0  0  0  0  0  0  0  0  0  0  0
    0.5569   -2.0693   -1.4958 C   0  0  0  0  0  0  0  0  0  0  0  0
   -0.3416   -1.5924   -0.5290 C   0  0  0  0  0  0  0  0  0  0  0  0
    0.3583   -5.1693    1.0672 H   0  0  0  0  0  0  0  0  0  0  0  0
   -1.3767   -5.3989    1.5094 H   0  0  0  0  0  0  0  0  0  0  0  0
   -0.8970   -5.1315   -0.2169 H   0  0  0  0  0  0  0  0  0  0  0  0
   -2.1392   -3.6604   -1.5525 H   0  0  0  0  0  0  0  0  0  0  0  0
   -2.7811   -2.0017   -1.4231 H   0  0  0  0  0  0  0  0  0  0  0  0
   -4.4446   -3.7444   -0.7037 H   0  0  0  0  0  0  0  0  0  0  0  0
   -3.3467   -4.3038    0.5693 H   0  0  0  0  0  0  0  0  0  0  0  0
   -3.3914   -1.7936    1.4422 H   0  0  0  0  0  0  0  0  0  0  0  0
   -4.7562   -2.8881    1.7784 H   0  0  0  0  0  0  0  0  0  0  0  0
   -4.7816   -1.0597   -0.6969 H   0  0  0  0  0  0  0  0  0  0  0  0
   -6.1152   -1.9925    0.0230 H   0  0  0  0  0  0  0  0  0  0  0  0
   -5.4765   -0.4567    2.2401 H   0  0  0  0  0  0  0  0  0  0  0  0
   -6.6753   -0.0280    1.0017 H   0  0  0  0  0  0  0  0  0  0  0  0
   -4.8784    1.1911   -0.3007 H   0  0  0  0  0  0  0  0  0  0  0  0
   -5.4298    1.9246    1.2127 H   0  0  0  0  0  0  0  0  0  0  0  0
   -3.2769    2.1733    1.8312 H   0  0  0  0  0  0  0  0  0  0  0  0
   -3.3283    0.4709    2.2165 H   0  0  0  0  0  0  0  0  0  0  0  0
   -1.8640    3.0353    0.3903 H   0  0  0  0  0  0  0  0  0  0  0  0
   -0.9566    2.1109   -0.8027 H   0  0  0  0  0  0  0  0  0  0  0  0
   -3.8838    2.8982   -1.0939 H   0  0  0  0  0  0  0  0  0  0  0  0
   -3.7807    1.7836   -3.3073 H   0  0  0  0  0  0  0  0  0  0  0  0
   -3.4195    0.5586   -2.0509 H   0  0  0  0  0  0  0  0  0  0  0  0
   -2.0714    1.2632   -3.0160 H   0  0  0  0  0  0  0  0  0  0  0  0
   -3.0258    4.1790   -3.0160 H   0  0  0  0  0  0  0  0  0  0  0  0
   -2.2969    4.7186   -1.4657 H   0  0  0  0  0  0  0  0  0  0  0  0
   -1.3360    3.6991   -2.6049 H   0  0  0  0  0  0  0  0  0  0  0  0
   -0.6476    1.0673    1.6259 H   0  0  0  0  0  0  0  0  0  0  0  0
   -1.4619   -0.4986    1.6769 H   0  0  0  0  0  0  0  0  0  0  0  0
    1.0850    1.4616   -0.0004 H   0  0  0  0  0  0  0  0  0  0  0  0
    3.4241    0.4461    1.0538 H   0  0  0  0  0  0  0  0  0  0  0  0
    3.1380    2.1869    0.6304 H   0  0  0  0  0  0  0  0  0  0  0  0
    4.9162    1.8425    2.3843 H   0  0  0  0  0  0  0  0  0  0  0  0
    5.4457    2.7618    0.9361 H   0  0  0  0  0  0  0  0  0  0  0  0
    5.9744   -0.1953    1.6137 H   0  0  0  0  0  0  0  0  0  0  0  0
    8.3653    0.4244    1.6060 H   0  0  0  0  0  0  0  0  0  0  0  0
    7.4240    1.3850    2.7873 H   0  0  0  0  0  0  0  0  0  0  0  0
    8.6622    2.1910    0.4086 H   0  0  0  0  0  0  0  0  0  0  0  0
    7.4835    0.5028   -0.7792 H   0  0  0  0  0  0  0  0  0  0  0  0
    6.2408   -0.7430   -0.5456 H   0  0  0  0  0  0  0  0  0  0  0  0
    5.8123    2.1648   -1.4535 H   0  0  0  0  0  0  0  0  0  0  0  0
    5.5661    0.6433   -2.3843 H   0  0  0  0  0  0  0  0  0  0  0  0
    2.3239   -1.6893   -2.6459 H   0  0  0  0  0  0  0  0  0  0  0  0
    0.4405   -3.0677   -1.8973 H   0  0  0  0  0  0  0  0  0  0  0  0
  1  2  1  0
  2  3  2  0
  2  4  1  0
  4  5  1  0
  5  6  1  0
  6  7  1  0
  7  8  1  0
  8  9  1  0
  9 10  1  0
 10 11  1  0
 11 12  1  0
 12 13  1  0
 13 14  1  0
 14 15  1  0
 14 16  1  0
 12 17  1  0
 17 18  1  0
 18 19  2  0
 19 20  1  0
 20 21  1  0
 21 22  2  0
 21 23  1  0
 23 24  1  0
 24 25  1  0
 25 26  1  0
 26 27  1  0
 27 28  1  0
 26 29  1  0
 29 30  1  0
 20 31  2  0
 31 32  1  0
 32 33  2  0
 33  4  1  0
 33 18  1  0
 30 23  1  0
  1 34  1  0
  1 35  1  0
  1 36  1  0
  5 37  1  0
  5 38  1  0
  6 39  1  0
  6 40  1  0
  7 41  1  0
  7 42  1  0
  8 43  1  0
  8 44  1  0
  9 45  1  0
  9 46  1  0
 10 47  1  0
 10 48  1  0
 11 49  1  0
 11 50  1  0
 13 51  1  0
 13 52  1  0
 14 53  1  0
 15 54  1  0
 15 55  1  0
 15 56  1  0
 16 57  1  0
 16 58  1  0
 16 59  1  0
 17 60  1  0
 17 61  1  0
 19 62  1  0
 24 63  1  0
 24 64  1  0
 25 65  1  0
 25 66  1  0
 26 67  1  0
 27 68  1  0
 27 69  1  0
 28 70  1  0
 29 71  1  0
 29 72  1  0
 30 73  1  0
 30 74  1  0
 31 75  1  0
 32 76  1  0
M  END
$$$$
