
     RDKit          3D

 70 74  0  0  0  0  0  0  0  0999 V2000
    8.5504    1.4726   -0.1730 C   0  0  0  0  0  0  0  0  0  0  0  0
    8.5620    0.1012   -0.4421 C   0  0  0  0  0  0  0  0  0  0  0  0
    7.3770   -0.5561   -0.7854 C   0  0  0  0  0  0  0  0  0  0  0  0
    6.1709    0.1582   -0.8682 C   0  0  0  0  0  0  0  0  0  0  0  0
    4.8883   -0.5540   -1.2412 C   0  0  0  0  0  0  0  0  0  0  0  0
    4.3022   -1.2914   -0.0935 N   0  0  0  0  0  4  0  0  0  0  0  0
    3.1821   -2.1679   -0.5449 C   0  0  0  0  0  0  0  0  0  0  0  0
    1.8083   -1.5160   -0.3441 C   0  0  0  0  0  0  0  0  0  0  0  0
    1.5389   -1.2512    1.1547 C   0  0  0  0  0  0  0  0  0  0  0  0
    0.6311   -0.1124    1.3051 N   0  0  0  0  0  0  0  0  0  0  0  0
   -0.6672   -0.1238    1.1912 C   0  0  0  0  0  0  0  0  0  0  0  0
   -1.3972   -1.3367    0.9104 N   0  0  0  0  0  0  0  0  0  0  0  0
   -2.7322   -1.5883    1.4582 C   0  0  0  0  0  0  0  0  0  0  0  0
   -3.6179   -2.2742    0.4117 C   0  0  0  0  0  0  0  0  0  0  0  0
   -5.0603   -2.5092    0.9014 C   0  0  0  0  0  0  0  0  0  0  0  0
   -5.8920   -1.2350    1.1664 C   0  0  0  0  0  0  0  0  0  0  0  0
   -6.0787   -0.3532   -0.0728 C   0  0  0  0  0  0  0  0  0  0  0  0
   -4.8868    0.3840   -0.3236 O   0  0  0  0  0  0  0  0  0  0  0  0
   -4.5893    1.0198   -1.5363 C   0  0  0  0  0  0  0  0  0  0  0  0
   -5.5776    1.2856   -2.5031 C   0  0  0  0  0  0  0  0  0  0  0  0
   -5.2259    1.8583   -3.7296 C   0  0  0  0  0  0  0  0  0  0  0  0
   -3.8905    2.1664   -4.0005 C   0  0  0  0  0  0  0  0  0  0  0  0
   -2.9049    1.9160   -3.0406 C   0  0  0  0  0  0  0  0  0  0  0  0
   -3.2505    1.3607   -1.8052 C   0  0  0  0  0  0  0  0  0  0  0  0
   -2.2471    1.1006   -0.8679 O   0  0  0  0  0  0  0  0  0  0  0  0
   -2.2314    1.6719    0.4111 C   0  0  0  0  0  0  0  0  0  0  0  0
   -2.9889    2.7725    0.6833 N   0  0  0  0  0  0  0  0  0  0  0  0
   -2.9497    3.3912    1.8926 C   0  0  0  0  0  0  0  0  0  0  0  0
   -2.1020    2.9148    2.8932 C   0  0  0  0  0  0  0  0  0  0  0  0
   -1.3195    1.7863    2.6491 C   0  0  0  0  0  0  0  0  0  0  0  0
   -1.3929    1.1408    1.4074 C   0  0  0  0  0  0  0  0  0  0  0  0
    2.8467   -0.9576    1.9238 C   0  0  0  0  0  0  0  0  0  0  0  0
    3.9130   -0.3532    0.9988 C   0  0  0  0  0  0  0  0  0  0  0  0
    6.1646    1.5352   -0.5841 C   0  0  0  0  0  0  0  0  0  0  0  0
    7.3529    2.1879   -0.2389 C   0  0  0  0  0  0  0  0  0  0  0  0
    9.4696    1.9806    0.0897 H   0  0  0  0  0  0  0  0  0  0  0  0
    9.4905   -0.4512   -0.3886 H   0  0  0  0  0  0  0  0  0  0  0  0
    7.3968   -1.6192   -0.9880 H   0  0  0  0  0  0  0  0  0  0  0  0
    4.1489    0.1681   -1.6589 H   0  0  0  0  0  0  0  0  0  0  0  0
    5.1319   -1.2590   -2.0687 H   0  0  0  0  0  0  0  0  0  0  0  0
    5.0465   -1.9242    0.2862 H   0  0  0  0  0  0  0  0  0  0  0  0
    3.1971   -3.1200    0.0331 H   0  0  0  0  0  0  0  0  0  0  0  0
    3.2869   -2.4643   -1.6119 H   0  0  0  0  0  0  0  0  0  0  0  0
    1.7809   -0.5597   -0.9120 H   0  0  0  0  0  0  0  0  0  0  0  0
    1.0216   -2.1771   -0.7658 H   0  0  0  0  0  0  0  0  0  0  0  0
    1.0871   -2.1548    1.6185 H   0  0  0  0  0  0  0  0  0  0  0  0
   -0.9050   -2.1516    0.4844 H   0  0  0  0  0  0  0  0  0  0  0  0
   -2.6383   -2.2456    2.3506 H   0  0  0  0  0  0  0  0  0  0  0  0
   -3.2031   -0.6406    1.7908 H   0  0  0  0  0  0  0  0  0  0  0  0
   -3.6160   -1.6976   -0.5353 H   0  0  0  0  0  0  0  0  0  0  0  0
   -3.1699   -3.2657    0.1756 H   0  0  0  0  0  0  0  0  0  0  0  0
   -5.0280   -3.1092    1.8359 H   0  0  0  0  0  0  0  0  0  0  0  0
   -5.5920   -3.1219    0.1404 H   0  0  0  0  0  0  0  0  0  0  0  0
   -6.8986   -1.5593    1.5077 H   0  0  0  0  0  0  0  0  0  0  0  0
   -5.4567   -0.6387    1.9962 H   0  0  0  0  0  0  0  0  0  0  0  0
   -6.9138    0.3584    0.1008 H   0  0  0  0  0  0  0  0  0  0  0  0
   -6.3295   -0.9921   -0.9470 H   0  0  0  0  0  0  0  0  0  0  0  0
   -6.6152    1.0470   -2.3175 H   0  0  0  0  0  0  0  0  0  0  0  0
   -5.9882    2.0523   -4.4746 H   0  0  0  0  0  0  0  0  0  0  0  0
   -3.6186    2.5964   -4.9571 H   0  0  0  0  0  0  0  0  0  0  0  0
   -1.8710    2.1550   -3.2573 H   0  0  0  0  0  0  0  0  0  0  0  0
   -3.5644    4.2611    2.0755 H   0  0  0  0  0  0  0  0  0  0  0  0
   -2.0611    3.4115    3.8538 H   0  0  0  0  0  0  0  0  0  0  0  0
   -0.6813    1.3981    3.4336 H   0  0  0  0  0  0  0  0  0  0  0  0
    3.2477   -1.9019    2.3514 H   0  0  0  0  0  0  0  0  0  0  0  0
    2.6540   -0.2707    2.7766 H   0  0  0  0  0  0  0  0  0  0  0  0
    3.5080    0.5986    0.5880 H   0  0  0  0  0  0  0  0  0  0  0  0
    4.8069   -0.0999    1.6109 H   0  0  0  0  0  0  0  0  0  0  0  0
    5.2461    2.1041   -0.6362 H   0  0  0  0  0  0  0  0  0  0  0  0
    7.3442    3.2493   -0.0258 H   0  0  0  0  0  0  0  0  0  0  0  0
  1  2  2  0
  2  3  1  0
  3  4  2  0
  4  5  1  0
  5  6  1  0
  6  7  1  0
  7  8  1  0
  8  9  1  0
  9 10  1  0
 10 11  2  3
 11 12  1  0
 12 13  1  0
 13 14  1  0
 14 15  1  0
 15 16  1  0
 16 17  1  0
 17 18  1  0
 18 19  1  0
 19 20  2  0
 20 21  1  0
 21 22  2  0
 22 23  1  0
 23 24  2  0
 24 25  1  0
 25 26  1  0
 26 27  2  0
 27 28  1  0
 28 29  2  0
 29 30  1  0
 30 31  2  0
  9 32  1  0
 32 33  1  0
  4 34  1  0
 34 35  2  0
 35  1  1  0
 33  6  1  0
 31 11  1  0
 24 19  1  0
 31 26  1  0
  1 36  1  0
  2 37  1  0
  3 38  1  0
  5 39  1  0
  5 40  1  0
  6 41  1  0
  7 42  1  0
  7 43  1  0
  8 44  1  0
  8 45  1  0
  9 46  1  0
 12 47  1  0
 13 48  1  0
 13 49  1  0
 14 50  1  0
 14 51  1  0
 15 52  1  0
 15 53  1  0
 16 54  1  0
 16 55  1  0
 17 56  1  0
 17 57  1  0
 20 58  1  0
 21 59  1  0
 22 60  1  0
 23 61  1  0
 28 62  1  0
 29 63  1  0
 30 64  1  0
 32 65  1  0
 32 66  1  0
 33 67  1  0
 33 68  1  0
 34 69  1  0
 35 70  1  0
M  CHG  1   6   1
M  END
$$$$
