
     RDKit          3D

 64 67  0  0  0  0  0  0  0  0999 V2000
    8.6438   -0.0345    1.4203 C   0  0  0  0  0  0  0  0  0  0  0  0
    7.7197    0.4232    0.3422 C   0  0  0  0  0  0  0  0  0  0  0  0
    7.1213   -0.3858   -0.6047 C   0  0  0  0  0  0  0  0  0  0  0  0
    6.4093    0.4970   -1.3901 C   0  0  0  0  0  0  0  0  0  0  0  0
    5.4883    0.1290   -2.5114 C   0  0  0  0  0  0  0  0  0  0  0  0
    4.2343   -0.3871   -1.9686 N   0  0  0  0  0  0  0  0  0  0  0  0
    3.2224    0.4833   -1.4327 C   0  0  0  0  0  0  0  0  0  0  0  0
    3.3477    1.7323   -1.5591 O   0  0  0  0  0  0  0  0  0  0  0  0
    2.0511   -0.0556   -0.6994 C   0  0  0  0  0  0  0  0  0  0  0  0
    1.5751   -1.3537   -0.9368 C   0  0  0  0  0  0  0  0  0  0  0  0
    0.4795   -1.8497   -0.2281 C   0  0  0  0  0  0  0  0  0  0  0  0
   -0.1750   -1.0566    0.7338 C   0  0  0  0  0  0  0  0  0  0  0  0
    0.2992    0.2541    0.9777 C   0  0  0  0  0  0  0  0  0  0  0  0
    1.3937    0.7450    0.2478 C   0  0  0  0  0  0  0  0  0  0  0  0
   -0.3916    1.1712    1.9651 C   0  0  0  0  0  0  0  0  0  0  0  0
   -1.5649    1.9393    1.3884 C   0  0  0  0  0  0  0  0  0  0  0  0
   -2.2119    2.8893    2.1947 C   0  0  0  0  0  0  0  0  0  0  0  0
   -3.3936    3.4998    1.7631 C   0  0  0  0  0  0  0  0  0  0  0  0
   -3.9740    3.1268    0.5478 C   0  0  0  0  0  0  0  0  0  0  0  0
   -3.3474    2.1730   -0.2666 C   0  0  0  0  0  0  0  0  0  0  0  0
   -2.1068    1.6474    0.1238 C   0  0  0  0  0  0  0  0  0  0  0  0
   -4.0659    1.5761   -1.4630 C   0  0  0  0  0  0  0  0  0  0  0  0
   -4.9011    0.3948   -1.1127 N   0  0  0  0  0  0  0  0  0  0  0  0
   -6.1218    0.8077   -0.3922 C   0  0  0  0  0  0  0  0  0  0  0  0
   -4.1312   -0.6176   -0.3490 C   0  0  0  0  0  0  0  0  0  0  0  0
   -4.7465   -2.0208   -0.4262 C   0  0  0  0  0  0  0  0  0  0  0  0
   -4.1170   -2.9628    0.6164 C   0  0  0  0  0  0  0  0  0  0  0  0
   -2.6268   -3.2946    0.3476 C   0  0  0  0  0  0  0  0  0  0  0  0
   -1.6977   -2.9060    1.5153 C   0  0  0  0  0  0  0  0  0  0  0  0
   -1.2913   -1.5343    1.4487 O   0  0  0  0  0  0  0  0  0  0  0  0
    6.5813    1.7463   -0.9197 N   0  0  0  0  0  0  0  0  0  0  0  0
    7.3875    1.7127    0.1292 N   0  0  0  0  0  0  0  0  0  0  0  0
    8.2606   -0.9726    1.8745 H   0  0  0  0  0  0  0  0  0  0  0  0
    9.6507   -0.2193    0.9915 H   0  0  0  0  0  0  0  0  0  0  0  0
    8.7197    0.7418    2.2108 H   0  0  0  0  0  0  0  0  0  0  0  0
    7.1833   -1.4624   -0.6990 H   0  0  0  0  0  0  0  0  0  0  0  0
    5.2964    1.0084   -3.1638 H   0  0  0  0  0  0  0  0  0  0  0  0
    5.9701   -0.6539   -3.1356 H   0  0  0  0  0  0  0  0  0  0  0  0
    4.1741   -1.4170   -1.8107 H   0  0  0  0  0  0  0  0  0  0  0  0
    2.0249   -1.9845   -1.6913 H   0  0  0  0  0  0  0  0  0  0  0  0
    0.1398   -2.8506   -0.4541 H   0  0  0  0  0  0  0  0  0  0  0  0
    1.7411    1.7549    0.4309 H   0  0  0  0  0  0  0  0  0  0  0  0
    0.3440    1.8970    2.3756 H   0  0  0  0  0  0  0  0  0  0  0  0
   -0.7498    0.5739    2.8307 H   0  0  0  0  0  0  0  0  0  0  0  0
   -1.8140    3.1376    3.1707 H   0  0  0  0  0  0  0  0  0  0  0  0
   -3.8875    4.2245    2.3971 H   0  0  0  0  0  0  0  0  0  0  0  0
   -4.9287    3.5509    0.2607 H   0  0  0  0  0  0  0  0  0  0  0  0
   -1.6140    0.9476   -0.5343 H   0  0  0  0  0  0  0  0  0  0  0  0
   -3.3186    1.2734   -2.2295 H   0  0  0  0  0  0  0  0  0  0  0  0
   -4.6860    2.3545   -1.9609 H   0  0  0  0  0  0  0  0  0  0  0  0
   -6.6111    1.6647   -0.9034 H   0  0  0  0  0  0  0  0  0  0  0  0
   -5.9011    1.0955    0.6589 H   0  0  0  0  0  0  0  0  0  0  0  0
   -6.8659   -0.0133   -0.3900 H   0  0  0  0  0  0  0  0  0  0  0  0
   -3.1141   -0.7104   -0.7823 H   0  0  0  0  0  0  0  0  0  0  0  0
   -4.0264   -0.3099    0.7174 H   0  0  0  0  0  0  0  0  0  0  0  0
   -4.6120   -2.4363   -1.4490 H   0  0  0  0  0  0  0  0  0  0  0  0
   -5.8342   -1.9786   -0.2198 H   0  0  0  0  0  0  0  0  0  0  0  0
   -4.6961   -3.9127    0.6070 H   0  0  0  0  0  0  0  0  0  0  0  0
   -4.2635   -2.5267    1.6295 H   0  0  0  0  0  0  0  0  0  0  0  0
   -2.5416   -4.3938    0.2016 H   0  0  0  0  0  0  0  0  0  0  0  0
   -2.2658   -2.8393   -0.5979 H   0  0  0  0  0  0  0  0  0  0  0  0
   -2.2098   -3.0837    2.4837 H   0  0  0  0  0  0  0  0  0  0  0  0
   -0.8037   -3.5668    1.5309 H   0  0  0  0  0  0  0  0  0  0  0  0
    6.1494    2.6178   -1.3003 H   0  0  0  0  0  0  0  0  0  0  0  0
  1  2  1  0
  2  3  1  0
  3  4  2  0
  4  5  1  0
  5  6  1  0
  6  7  1  0
  7  8  2  0
  7  9  1  0
  9 10  2  0
 10 11  1  0
 11 12  2  0
 12 13  1  0
 13 14  2  0
 13 15  1  0
 15 16  1  0
 16 17  2  0
 17 18  1  0
 18 19  2  0
 19 20  1  0
 20 21  2  0
 20 22  1  0
 22 23  1  0
 23 24  1  0
 23 25  1  0
 25 26  1  0
 26 27  1  0
 27 28  1  0
 28 29  1  0
 29 30  1  0
  4 31  1  0
 31 32  1  0
 32  2  2  0
 14  9  1  0
 21 16  1  0
 30 12  1  0
  1 33  1  0
  1 34  1  0
  1 35  1  0
  3 36  1  0
  5 37  1  0
  5 38  1  0
  6 39  1  0
 10 40  1  0
 11 41  1  0
 14 42  1  0
 15 43  1  0
 15 44  1  0
 17 45  1  0
 18 46  1  0
 19 47  1  0
 21 48  1  0
 22 49  1  0
 22 50  1  0
 24 51  1  0
 24 52  1  0
 24 53  1  0
 25 54  1  0
 25 55  1  0
 26 56  1  0
 26 57  1  0
 27 58  1  0
 27 59  1  0
 28 60  1  0
 28 61  1  0
 29 62  1  0
 29 63  1  0
 31 64  1  0
M  END
$$$$
