
     RDKit          3D

 57 59  0  0  0  0  0  0  0  0999 V2000
    6.6989   -0.3641    1.6726 C   0  0  0  0  0  0  0  0  0  0  0  0
    6.8372    0.0165    0.1927 C   0  0  0  0  0  0  0  0  0  0  0  0
    6.2690    1.4179   -0.0631 C   0  0  0  0  0  0  0  0  0  0  0  0
    6.2017   -1.0403   -0.7345 C   0  0  0  0  0  0  0  0  0  0  0  0
    4.7626   -1.1812   -0.5011 N   0  0  0  0  0  0  0  0  0  0  0  0
    3.7735   -0.5517   -1.3341 C   0  0  0  0  0  0  0  0  0  0  0  0
    4.1382    0.2246   -2.2595 O   0  0  0  0  0  0  0  0  0  0  0  0
    2.3256   -0.7814   -1.1103 C   0  0  0  0  0  0  0  0  0  0  0  0
    1.8635   -1.9615   -0.5068 C   0  0  0  0  0  0  0  0  0  0  0  0
    0.4981   -2.1665   -0.3023 C   0  0  0  0  0  0  0  0  0  0  0  0
   -0.4393   -1.1985   -0.7053 C   0  0  0  0  0  0  0  0  0  0  0  0
    0.0134   -0.0139   -1.3216 C   0  0  0  0  0  0  0  0  0  0  0  0
    1.3904    0.1821   -1.5230 C   0  0  0  0  0  0  0  0  0  0  0  0
   -0.9652    1.0584   -1.7502 C   0  0  0  0  0  0  0  0  0  0  0  0
   -1.7740    1.5846   -0.5878 C   0  0  0  0  0  0  0  0  0  0  0  0
   -1.1433    1.9718    0.6068 C   0  0  0  0  0  0  0  0  0  0  0  0
   -1.8986    2.4463    1.6799 C   0  0  0  0  0  0  0  0  0  0  0  0
   -3.2863    2.5510    1.5691 C   0  0  0  0  0  0  0  0  0  0  0  0
   -3.9343    2.1836    0.3788 C   0  0  0  0  0  0  0  0  0  0  0  0
   -3.1672    1.7286   -0.7064 C   0  0  0  0  0  0  0  0  0  0  0  0
   -5.3985    2.3578    0.2618 C   0  0  0  0  0  0  0  0  0  0  0  0
   -5.9232    3.3955    0.7487 O   0  0  0  0  0  0  0  0  0  0  0  0
   -6.2511    1.3900   -0.3752 N   0  0  0  0  0  0  0  0  0  0  0  0
   -5.9316   -0.0295   -0.5536 C   0  0  0  0  0  0  0  0  0  0  0  0
   -5.6039   -0.7212    0.7833 C   0  0  0  0  0  0  0  0  0  0  0  0
   -4.2151   -0.9739    0.8930 O   0  0  0  0  0  0  0  0  0  0  0  0
   -3.9030   -2.2395    0.3433 C   0  0  0  0  0  0  0  0  0  0  0  0
   -2.3918   -2.4136    0.2882 C   0  0  0  0  0  0  0  0  0  0  0  0
   -1.8177   -1.3762   -0.5027 O   0  0  0  0  0  0  0  0  0  0  0  0
    7.0984   -1.3860    1.8463 H   0  0  0  0  0  0  0  0  0  0  0  0
    5.6366   -0.3315    1.9950 H   0  0  0  0  0  0  0  0  0  0  0  0
    7.2785    0.3446    2.3019 H   0  0  0  0  0  0  0  0  0  0  0  0
    7.9242    0.0493   -0.0426 H   0  0  0  0  0  0  0  0  0  0  0  0
    5.1940    1.4671    0.2123 H   0  0  0  0  0  0  0  0  0  0  0  0
    6.3814    1.6880   -1.1346 H   0  0  0  0  0  0  0  0  0  0  0  0
    6.8222    2.1680    0.5414 H   0  0  0  0  0  0  0  0  0  0  0  0
    6.4030   -0.7786   -1.7961 H   0  0  0  0  0  0  0  0  0  0  0  0
    6.6896   -2.0231   -0.5564 H   0  0  0  0  0  0  0  0  0  0  0  0
    4.4623   -1.6853    0.3624 H   0  0  0  0  0  0  0  0  0  0  0  0
    2.5507   -2.7429   -0.2114 H   0  0  0  0  0  0  0  0  0  0  0  0
    0.1809   -3.0891    0.1641 H   0  0  0  0  0  0  0  0  0  0  0  0
    1.7355    1.0979   -1.9882 H   0  0  0  0  0  0  0  0  0  0  0  0
   -1.6317    0.6241   -2.5269 H   0  0  0  0  0  0  0  0  0  0  0  0
   -0.4388    1.9159   -2.2220 H   0  0  0  0  0  0  0  0  0  0  0  0
   -0.0677    1.8993    0.7095 H   0  0  0  0  0  0  0  0  0  0  0  0
   -1.4070    2.7350    2.6000 H   0  0  0  0  0  0  0  0  0  0  0  0
   -3.8559    2.9200    2.4132 H   0  0  0  0  0  0  0  0  0  0  0  0
   -3.6459    1.5122   -1.6522 H   0  0  0  0  0  0  0  0  0  0  0  0
   -7.2254    1.6903   -0.6067 H   0  0  0  0  0  0  0  0  0  0  0  0
   -6.8153   -0.5350   -1.0009 H   0  0  0  0  0  0  0  0  0  0  0  0
   -5.1095   -0.1506   -1.2856 H   0  0  0  0  0  0  0  0  0  0  0  0
   -6.2184   -1.6462    0.8977 H   0  0  0  0  0  0  0  0  0  0  0  0
   -5.9042   -0.0699    1.6317 H   0  0  0  0  0  0  0  0  0  0  0  0
   -4.3246   -3.0485    0.9815 H   0  0  0  0  0  0  0  0  0  0  0  0
   -4.3028   -2.3459   -0.6913 H   0  0  0  0  0  0  0  0  0  0  0  0
   -1.9791   -2.3718    1.3198 H   0  0  0  0  0  0  0  0  0  0  0  0
   -2.1591   -3.4030   -0.1620 H   0  0  0  0  0  0  0  0  0  0  0  0
  1  2  1  0
  2  3  1  0
  2  4  1  0
  4  5  1  0
  5  6  1  0
  6  7  2  0
  6  8  1  0
  8  9  2  0
  9 10  1  0
 10 11  2  0
 11 12  1  0
 12 13  2  0
 12 14  1  0
 14 15  1  0
 15 16  2  0
 16 17  1  0
 17 18  2  0
 18 19  1  0
 19 20  2  0
 19 21  1  0
 21 22  2  0
 21 23  1  0
 23 24  1  0
 24 25  1  0
 25 26  1  0
 26 27  1  0
 27 28  1  0
 28 29  1  0
 13  8  1  0
 20 15  1  0
 29 11  1  0
  1 30  1  0
  1 31  1  0
  1 32  1  0
  2 33  1  0
  3 34  1  0
  3 35  1  0
  3 36  1  0
  4 37  1  0
  4 38  1  0
  5 39  1  0
  9 40  1  0
 10 41  1  0
 13 42  1  0
 14 43  1  0
 14 44  1  0
 16 45  1  0
 17 46  1  0
 18 47  1  0
 20 48  1  0
 23 49  1  0
 24 50  1  0
 24 51  1  0
 25 52  1  0
 25 53  1  0
 27 54  1  0
 27 55  1  0
 28 56  1  0
 28 57  1  0
M  END
$$$$
