
     RDKit          3D

 73 76  0  0  0  0  0  0  0  0999 V2000
   -8.4074    0.8176    0.1178 C   0  0  0  0  0  0  0  0  0  0  0  0
   -7.1061    0.2330    0.6722 C   0  0  0  0  0  0  0  0  0  0  0  0
   -6.2179   -0.2195   -0.4285 N   0  0  0  0  0  0  0  0  0  0  0  0
   -6.6619   -1.5281   -0.9517 C   0  0  0  0  0  0  0  0  0  0  0  0
   -5.8638   -2.6240   -0.2439 C   0  0  0  0  0  0  0  0  0  0  0  0
   -4.7563   -1.9026    0.5015 C   0  0  0  0  0  0  0  0  0  0  0  0
   -4.8167   -0.4762   -0.0274 C   0  0  0  0  0  0  0  0  0  0  0  0
   -4.1896    0.5530    0.9434 C   0  0  0  0  0  0  0  0  0  0  0  0
   -2.7478    0.3312    1.0560 N   0  0  0  0  0  0  0  0  0  0  0  0
   -1.8282    0.6998    0.0179 C   0  0  0  0  0  0  0  0  0  0  0  0
   -2.2127    1.4380   -0.9297 O   0  0  0  0  0  0  0  0  0  0  0  0
   -0.3927    0.2388    0.0910 C   0  0  0  0  0  0  0  0  0  0  0  0
    0.4706    1.0786    1.0613 C   0  0  0  0  0  0  0  0  0  0  0  0
    0.5161    2.5659    0.7881 C   0  0  0  0  0  0  0  0  0  0  0  0
   -0.5663    3.1960    0.6507 O   0  0  0  0  0  0  0  0  0  0  0  0
    1.7336    3.3243    0.9265 N   0  0  0  0  0  0  0  0  0  0  0  0
    2.9882    3.0669    0.2011 C   0  0  0  0  0  0  0  0  0  0  0  0
    2.7145    2.7280   -1.2676 C   0  0  0  0  0  0  0  0  0  0  0  0
    3.8347    2.0150    0.8829 C   0  0  0  0  0  0  0  0  0  0  0  0
    3.5320    1.6198    2.0425 O   0  0  0  0  0  0  0  0  0  0  0  0
    5.0346    1.5201    0.2617 N   0  0  0  0  0  0  0  0  0  0  0  0
    6.0599    2.4198   -0.2470 C   0  0  0  0  0  0  0  0  0  0  0  0
    7.3689    1.6475   -0.1598 C   0  0  0  0  0  0  0  0  0  0  0  0
    6.9821    0.1789   -0.0250 C   0  0  0  0  0  0  0  0  0  0  0  0
    5.5347    0.1682    0.4785 C   0  0  0  0  0  0  0  0  0  0  0  0
    4.6868   -0.8636   -0.2802 C   0  0  0  0  0  0  0  0  0  0  0  0
    3.3756   -0.9302    0.2747 O   0  0  0  0  0  0  0  0  0  0  0  0
    2.5521   -2.0425    0.0898 C   0  0  0  0  0  0  0  0  0  0  0  0
    2.7910   -3.2147    0.8239 C   0  0  0  0  0  0  0  0  0  0  0  0
    1.9412   -4.3162    0.6886 C   0  0  0  0  0  0  0  0  0  0  0  0
    0.8490   -4.2547   -0.1811 C   0  0  0  0  0  0  0  0  0  0  0  0
    0.6087   -3.0949   -0.9231 C   0  0  0  0  0  0  0  0  0  0  0  0
    1.4601   -1.9859   -0.7971 C   0  0  0  0  0  0  0  0  0  0  0  0
    1.2122   -0.7871   -1.6114 C   0  0  0  0  0  0  0  0  0  0  0  0
    1.9105   -0.6012   -2.6404 O   0  0  0  0  0  0  0  0  0  0  0  0
    0.2213    0.1895   -1.2421 N   0  0  0  0  0  0  0  0  0  0  0  0
   -9.0287    0.0452   -0.3785 H   0  0  0  0  0  0  0  0  0  0  0  0
   -8.1818    1.6219   -0.6142 H   0  0  0  0  0  0  0  0  0  0  0  0
   -9.0012    1.2500    0.9509 H   0  0  0  0  0  0  0  0  0  0  0  0
   -6.6470    1.0626    1.2442 H   0  0  0  0  0  0  0  0  0  0  0  0
   -7.3284   -0.5921    1.3864 H   0  0  0  0  0  0  0  0  0  0  0  0
   -7.7502   -1.7124   -0.8301 H   0  0  0  0  0  0  0  0  0  0  0  0
   -6.4477   -1.5632   -2.0430 H   0  0  0  0  0  0  0  0  0  0  0  0
   -5.4401   -3.3377   -0.9858 H   0  0  0  0  0  0  0  0  0  0  0  0
   -6.5116   -3.1802    0.4705 H   0  0  0  0  0  0  0  0  0  0  0  0
   -3.7632   -2.3631    0.3032 H   0  0  0  0  0  0  0  0  0  0  0  0
   -4.9646   -1.9258    1.5952 H   0  0  0  0  0  0  0  0  0  0  0  0
   -4.2108   -0.4461   -0.9633 H   0  0  0  0  0  0  0  0  0  0  0  0
   -4.6342    0.4522    1.9588 H   0  0  0  0  0  0  0  0  0  0  0  0
   -4.3783    1.5885    0.5824 H   0  0  0  0  0  0  0  0  0  0  0  0
   -2.3817   -0.1284    1.9202 H   0  0  0  0  0  0  0  0  0  0  0  0
   -0.4327   -0.7906    0.5047 H   0  0  0  0  0  0  0  0  0  0  0  0
    0.0926    0.9346    2.0962 H   0  0  0  0  0  0  0  0  0  0  0  0
    1.4903    0.6603    1.0422 H   0  0  0  0  0  0  0  0  0  0  0  0
    1.6350    4.2771    1.3497 H   0  0  0  0  0  0  0  0  0  0  0  0
    3.5818    4.0072    0.2100 H   0  0  0  0  0  0  0  0  0  0  0  0
    1.9230    3.3949   -1.6760 H   0  0  0  0  0  0  0  0  0  0  0  0
    2.3957    1.6750   -1.3682 H   0  0  0  0  0  0  0  0  0  0  0  0
    3.6279    2.8734   -1.8832 H   0  0  0  0  0  0  0  0  0  0  0  0
    6.1226    3.3384    0.3815 H   0  0  0  0  0  0  0  0  0  0  0  0
    5.8396    2.6880   -1.3019 H   0  0  0  0  0  0  0  0  0  0  0  0
    7.9308    1.9697    0.7453 H   0  0  0  0  0  0  0  0  0  0  0  0
    8.0035    1.8173   -1.0565 H   0  0  0  0  0  0  0  0  0  0  0  0
    7.6541   -0.3444    0.6887 H   0  0  0  0  0  0  0  0  0  0  0  0
    7.0740   -0.3088   -1.0215 H   0  0  0  0  0  0  0  0  0  0  0  0
    5.5278   -0.0633    1.5677 H   0  0  0  0  0  0  0  0  0  0  0  0
    4.6104   -0.5800   -1.3542 H   0  0  0  0  0  0  0  0  0  0  0  0
    5.1809   -1.8600   -0.2093 H   0  0  0  0  0  0  0  0  0  0  0  0
    3.6252   -3.2644    1.5118 H   0  0  0  0  0  0  0  0  0  0  0  0
    2.1246   -5.2144    1.2625 H   0  0  0  0  0  0  0  0  0  0  0  0
    0.1938   -5.1121   -0.2854 H   0  0  0  0  0  0  0  0  0  0  0  0
   -0.2373   -3.0631   -1.6032 H   0  0  0  0  0  0  0  0  0  0  0  0
    0.0944    1.0053   -1.8828 H   0  0  0  0  0  0  0  0  0  0  0  0
  1  2  1  0
  2  3  1  0
  3  4  1  0
  4  5  1  0
  5  6  1  0
  6  7  1  0
  7  8  1  0
  8  9  1  0
  9 10  1  0
 10 11  2  0
 10 12  1  0
 12 13  1  0
 13 14  1  0
 14 15  2  0
 14 16  1  0
 16 17  1  0
 17 18  1  0
 17 19  1  0
 19 20  2  0
 19 21  1  0
 21 22  1  0
 22 23  1  0
 23 24  1  0
 24 25  1  0
 25 26  1  0
 26 27  1  0
 27 28  1  0
 28 29  2  0
 29 30  1  0
 30 31  2  0
 31 32  1  0
 32 33  2  0
 33 34  1  0
 34 35  2  0
 34 36  1  0
  7  3  1  0
 36 12  1  0
 25 21  1  0
 33 28  1  0
  1 37  1  0
  1 38  1  0
  1 39  1  0
  2 40  1  0
  2 41  1  0
  4 42  1  0
  4 43  1  0
  5 44  1  0
  5 45  1  0
  6 46  1  0
  6 47  1  0
  7 48  1  0
  8 49  1  0
  8 50  1  0
  9 51  1  0
 12 52  1  0
 13 53  1  0
 13 54  1  0
 16 55  1  0
 17 56  1  0
 18 57  1  0
 18 58  1  0
 18 59  1  0
 22 60  1  0
 22 61  1  0
 23 62  1  0
 23 63  1  0
 24 64  1  0
 24 65  1  0
 25 66  1  0
 26 67  1  0
 26 68  1  0
 29 69  1  0
 30 70  1  0
 31 71  1  0
 32 72  1  0
 36 73  1  0
M  END
$$$$
