
     RDKit          3D

 67 70  0  0  0  0  0  0  0  0999 V2000
    7.6656    0.5482   -2.7343 C   0  0  0  0  0  0  0  0  0  0  0  0
    7.4664    0.2825   -1.2380 C   0  0  0  0  0  0  0  0  0  0  0  0
    8.0153    1.4476   -0.4089 C   0  0  0  0  0  0  0  0  0  0  0  0
    6.0452    0.0747   -0.9383 N   0  0  0  0  0  0  0  0  0  0  0  0
    5.6109   -0.4924    0.3111 C   0  0  0  0  0  0  0  0  0  0  0  0
    6.4520   -1.0793    1.0463 O   0  0  0  0  0  0  0  0  0  0  0  0
    4.1924   -0.4107    0.7542 C   0  0  0  0  0  0  0  0  0  0  0  0
    3.7543   -1.1965    1.8322 C   0  0  0  0  0  0  0  0  0  0  0  0
    2.4425   -1.1035    2.2969 C   0  0  0  0  0  0  0  0  0  0  0  0
    1.5348   -0.2112    1.7050 C   0  0  0  0  0  0  0  0  0  0  0  0
    1.9467    0.5579    0.5987 C   0  0  0  0  0  0  0  0  0  0  0  0
    3.2725    0.4586    0.1386 C   0  0  0  0  0  0  0  0  0  0  0  0
    0.9874    1.5014   -0.0921 C   0  0  0  0  0  0  0  0  0  0  0  0
   -0.0545    0.7552   -0.8922 C   0  0  0  0  0  0  0  0  0  0  0  0
    0.3200   -0.2400   -1.8132 C   0  0  0  0  0  0  0  0  0  0  0  0
   -0.6524   -0.9425   -2.5288 C   0  0  0  0  0  0  0  0  0  0  0  0
   -2.0049   -0.6482   -2.3482 C   0  0  0  0  0  0  0  0  0  0  0  0
   -2.3951    0.3727   -1.4674 C   0  0  0  0  0  0  0  0  0  0  0  0
   -1.4149    1.0787   -0.7496 C   0  0  0  0  0  0  0  0  0  0  0  0
   -3.8557    0.6347   -1.2214 C   0  0  0  0  0  0  0  0  0  0  0  0
   -4.3586   -0.2920   -0.1739 N   0  0  0  0  0  0  0  0  0  0  0  0
   -5.7631   -0.7606   -0.3216 C   0  0  0  0  0  0  0  0  0  0  0  0
   -6.7930    0.3161   -0.6687 C   0  0  0  0  0  0  0  0  0  0  0  0
   -7.0858   -0.4035   -1.9838 C   0  0  0  0  0  0  0  0  0  0  0  0
   -6.0642   -1.4823   -1.6356 C   0  0  0  0  0  0  0  0  0  0  0  0
   -4.1026    0.2127    1.1990 C   0  0  0  0  0  0  0  0  0  0  0  0
   -3.0044   -0.6225    1.8628 C   0  0  0  0  0  0  0  0  0  0  0  0
   -2.6531   -0.0666    3.2493 C   0  0  0  0  0  0  0  0  0  0  0  0
   -1.4243   -0.7600    3.8645 C   0  0  0  0  0  0  0  0  0  0  0  0
   -0.1084   -0.0263    3.5760 C   0  0  0  0  0  0  0  0  0  0  0  0
    0.2227   -0.0920    2.1882 O   0  0  0  0  0  0  0  0  0  0  0  0
    7.3010   -0.3232   -3.3211 H   0  0  0  0  0  0  0  0  0  0  0  0
    8.7439    0.6928   -2.9587 H   0  0  0  0  0  0  0  0  0  0  0  0
    7.1074    1.4551   -3.0478 H   0  0  0  0  0  0  0  0  0  0  0  0
    8.0329   -0.6391   -0.9825 H   0  0  0  0  0  0  0  0  0  0  0  0
    9.0946    1.5951   -0.6204 H   0  0  0  0  0  0  0  0  0  0  0  0
    7.9011    1.2387    0.6757 H   0  0  0  0  0  0  0  0  0  0  0  0
    7.4685    2.3842   -0.6464 H   0  0  0  0  0  0  0  0  0  0  0  0
    5.3414    0.2539   -1.6899 H   0  0  0  0  0  0  0  0  0  0  0  0
    4.4297   -1.8874    2.3224 H   0  0  0  0  0  0  0  0  0  0  0  0
    2.1359   -1.7462    3.1098 H   0  0  0  0  0  0  0  0  0  0  0  0
    3.5815    1.0873   -0.6825 H   0  0  0  0  0  0  0  0  0  0  0  0
    1.5295    2.1881   -0.7787 H   0  0  0  0  0  0  0  0  0  0  0  0
    0.5107    2.1454    0.6796 H   0  0  0  0  0  0  0  0  0  0  0  0
    1.3625   -0.4876   -1.9658 H   0  0  0  0  0  0  0  0  0  0  0  0
   -0.3577   -1.7234   -3.2168 H   0  0  0  0  0  0  0  0  0  0  0  0
   -2.7476   -1.2184   -2.8929 H   0  0  0  0  0  0  0  0  0  0  0  0
   -1.7155    1.8529   -0.0529 H   0  0  0  0  0  0  0  0  0  0  0  0
   -4.3913    0.5120   -2.1826 H   0  0  0  0  0  0  0  0  0  0  0  0
   -4.0158    1.6993   -0.9418 H   0  0  0  0  0  0  0  0  0  0  0  0
   -6.0815   -1.3950    0.5372 H   0  0  0  0  0  0  0  0  0  0  0  0
   -7.6626    0.2955    0.0210 H   0  0  0  0  0  0  0  0  0  0  0  0
   -6.3818    1.3359   -0.8165 H   0  0  0  0  0  0  0  0  0  0  0  0
   -8.1236   -0.7990   -2.0330 H   0  0  0  0  0  0  0  0  0  0  0  0
   -6.7935    0.1960   -2.8725 H   0  0  0  0  0  0  0  0  0  0  0  0
   -5.2195   -1.5387   -2.3503 H   0  0  0  0  0  0  0  0  0  0  0  0
   -6.5446   -2.4711   -1.4688 H   0  0  0  0  0  0  0  0  0  0  0  0
   -5.0107    0.1601    1.8386 H   0  0  0  0  0  0  0  0  0  0  0  0
   -3.7985    1.2817    1.2023 H   0  0  0  0  0  0  0  0  0  0  0  0
   -3.3599   -1.6709    1.9654 H   0  0  0  0  0  0  0  0  0  0  0  0
   -2.1040   -0.6356    1.2162 H   0  0  0  0  0  0  0  0  0  0  0  0
   -2.4890    1.0337    3.1981 H   0  0  0  0  0  0  0  0  0  0  0  0
   -3.5257   -0.2386    3.9208 H   0  0  0  0  0  0  0  0  0  0  0  0
   -1.3491   -1.8165    3.5255 H   0  0  0  0  0  0  0  0  0  0  0  0
   -1.5593   -0.7828    4.9682 H   0  0  0  0  0  0  0  0  0  0  0  0
    0.6797   -0.4845    4.2038 H   0  0  0  0  0  0  0  0  0  0  0  0
   -0.1833    1.0396    3.8804 H   0  0  0  0  0  0  0  0  0  0  0  0
  1  2  1  0
  2  3  1  0
  2  4  1  0
  4  5  1  0
  5  6  2  0
  5  7  1  0
  7  8  2  0
  8  9  1  0
  9 10  2  0
 10 11  1  0
 11 12  2  0
 11 13  1  0
 13 14  1  0
 14 15  2  0
 15 16  1  0
 16 17  2  0
 17 18  1  0
 18 19  2  0
 18 20  1  0
 20 21  1  0
 21 22  1  0
 22 23  1  0
 23 24  1  0
 24 25  1  0
 21 26  1  0
 26 27  1  0
 27 28  1  0
 28 29  1  0
 29 30  1  0
 30 31  1  0
 12  7  1  0
 19 14  1  0
 25 22  1  0
 31 10  1  0
  1 32  1  0
  1 33  1  0
  1 34  1  0
  2 35  1  0
  3 36  1  0
  3 37  1  0
  3 38  1  0
  4 39  1  0
  8 40  1  0
  9 41  1  0
 12 42  1  0
 13 43  1  0
 13 44  1  0
 15 45  1  0
 16 46  1  0
 17 47  1  0
 19 48  1  0
 20 49  1  0
 20 50  1  0
 22 51  1  0
 23 52  1  0
 23 53  1  0
 24 54  1  0
 24 55  1  0
 25 56  1  0
 25 57  1  0
 26 58  1  0
 26 59  1  0
 27 60  1  0
 27 61  1  0
 28 62  1  0
 28 63  1  0
 29 64  1  0
 29 65  1  0
 30 66  1  0
 30 67  1  0
M  END
$$$$
