
     RDKit          3D

 77 79  0  0  0  0  0  0  0  0999 V2000
   -2.6452    2.3886    3.0110 C   0  0  0  0  0  0  0  0  0  0  0  0
   -1.9867    1.0037    3.0098 C   0  0  0  0  0  0  0  0  0  0  0  0
   -3.0353   -0.1225    3.0183 C   0  0  0  0  0  0  0  0  0  0  0  0
   -0.8705    0.8174    1.9331 C   0  0  0  0  0  0  0  0  0  0  0  0
   -1.1232    1.1887    0.4388 C   0  0  0  0  0  0  0  0  0  0  0  0
   -2.4371    0.6716   -0.1695 C   0  0  0  0  0  0  0  0  0  0  0  0
   -2.4430   -0.7540   -0.1750 O   0  0  0  0  0  0  0  0  0  0  0  0
   -3.5203   -1.5305   -0.6175 C   0  0  0  0  0  0  0  0  0  0  0  0
   -4.0543   -2.4669    0.2801 C   0  0  0  0  0  0  0  0  0  0  0  0
   -5.1814   -3.2158   -0.0572 C   0  0  0  0  0  0  0  0  0  0  0  0
   -5.7777   -3.0529   -1.3068 C   0  0  0  0  0  0  0  0  0  0  0  0
   -7.2087   -3.9762   -1.7155 Cl  0  0  0  0  0  0  0  0  0  0  0  0
   -5.2298   -2.1597   -2.2351 C   0  0  0  0  0  0  0  0  0  0  0  0
   -4.0901   -1.4046   -1.9141 C   0  0  0  0  0  0  0  0  0  0  0  0
   -3.5547   -0.4972   -2.9475 C   0  0  0  0  0  0  0  0  0  0  0  0
   -4.3487    0.3051   -3.5119 O   0  0  0  0  0  0  0  0  0  0  0  0
   -2.1800   -0.5103   -3.3578 N   0  0  0  0  0  0  0  0  0  0  0  0
   -1.3263   -1.7028   -3.3293 C   0  0  0  0  0  0  0  0  0  0  0  0
   -0.0821   -1.4935   -2.4463 C   0  0  0  0  0  0  0  0  0  0  0  0
    1.1435   -0.9143   -3.1780 C   0  0  0  0  0  0  0  0  0  0  0  0
    1.0931    0.5990   -3.4661 C   0  0  0  0  0  0  0  0  0  0  0  0
    0.9723    1.4439   -2.2583 N   0  0  0  0  0  0  0  0  0  0  0  0
    2.1724    1.7319   -1.5181 C   0  0  0  0  0  0  0  0  0  0  0  0
    2.7195    2.8621   -1.6421 O   0  0  0  0  0  0  0  0  0  0  0  0
    2.8398    0.6674   -0.6896 C   0  0  0  0  0  0  0  0  0  0  0  0
    3.3812    1.2223    0.6387 C   0  0  0  0  0  0  0  0  0  0  0  0
    4.2208    0.2032    1.3057 N   0  0  0  0  0  0  0  0  0  0  0  0
    3.4136   -0.7114    2.1399 C   0  0  0  0  0  0  0  0  0  0  0  0
    4.2605   -1.9196    2.5854 C   0  0  0  0  0  0  0  0  0  0  0  0
    5.7673   -1.6083    2.6094 C   0  0  0  0  0  0  0  0  0  0  0  0
    6.0152   -0.1598    3.0374 C   0  0  0  0  0  0  0  0  0  0  0  0
    5.2833    0.8475    2.1157 C   0  0  0  0  0  0  0  0  0  0  0  0
   -0.1162    2.4393   -2.2542 C   0  0  0  0  0  0  0  0  0  0  0  0
   -0.2761    3.1807   -0.9426 C   0  0  0  0  0  0  0  0  0  0  0  0
    0.1356    4.3733   -0.8775 O   0  0  0  0  0  0  0  0  0  0  0  0
   -0.9632    2.6291    0.1939 N   0  0  0  0  0  0  0  0  0  0  0  0
   -3.3466    2.4695    3.8713 H   0  0  0  0  0  0  0  0  0  0  0  0
   -3.2182    2.5732    2.0796 H   0  0  0  0  0  0  0  0  0  0  0  0
   -1.8753    3.1762    3.1432 H   0  0  0  0  0  0  0  0  0  0  0  0
   -1.4659    0.9182    3.9950 H   0  0  0  0  0  0  0  0  0  0  0  0
   -2.5317   -1.1150    3.0034 H   0  0  0  0  0  0  0  0  0  0  0  0
   -3.6397   -0.0602    3.9509 H   0  0  0  0  0  0  0  0  0  0  0  0
   -3.7399   -0.0588    2.1676 H   0  0  0  0  0  0  0  0  0  0  0  0
   -0.5421   -0.2473    1.9681 H   0  0  0  0  0  0  0  0  0  0  0  0
    0.0153    1.3989    2.2686 H   0  0  0  0  0  0  0  0  0  0  0  0
   -0.2987    0.6824   -0.0914 H   0  0  0  0  0  0  0  0  0  0  0  0
   -2.5395    1.0505   -1.1997 H   0  0  0  0  0  0  0  0  0  0  0  0
   -3.3142    1.0727    0.3755 H   0  0  0  0  0  0  0  0  0  0  0  0
   -3.6108   -2.5845    1.2598 H   0  0  0  0  0  0  0  0  0  0  0  0
   -5.5929   -3.9197    0.6568 H   0  0  0  0  0  0  0  0  0  0  0  0
   -5.6897   -2.0602   -3.2105 H   0  0  0  0  0  0  0  0  0  0  0  0
   -1.8671    0.2886   -3.9480 H   0  0  0  0  0  0  0  0  0  0  0  0
   -1.8942   -2.5742   -2.9378 H   0  0  0  0  0  0  0  0  0  0  0  0
   -1.0310   -1.9562   -4.3687 H   0  0  0  0  0  0  0  0  0  0  0  0
   -0.3285   -0.8925   -1.5573 H   0  0  0  0  0  0  0  0  0  0  0  0
    0.2156   -2.4915   -2.0585 H   0  0  0  0  0  0  0  0  0  0  0  0
    1.2828   -1.4517   -4.1400 H   0  0  0  0  0  0  0  0  0  0  0  0
    2.0489   -1.1318   -2.5808 H   0  0  0  0  0  0  0  0  0  0  0  0
    2.0247    0.8731   -4.0105 H   0  0  0  0  0  0  0  0  0  0  0  0
    0.2715    0.8097   -4.1802 H   0  0  0  0  0  0  0  0  0  0  0  0
    3.6790    0.2401   -1.2781 H   0  0  0  0  0  0  0  0  0  0  0  0
    2.1083   -0.1372   -0.4730 H   0  0  0  0  0  0  0  0  0  0  0  0
    2.5400    1.5499    1.2971 H   0  0  0  0  0  0  0  0  0  0  0  0
    3.9921    2.1261    0.4102 H   0  0  0  0  0  0  0  0  0  0  0  0
    2.5362   -1.0904    1.5752 H   0  0  0  0  0  0  0  0  0  0  0  0
    3.0278   -0.1753    3.0392 H   0  0  0  0  0  0  0  0  0  0  0  0
    4.0858   -2.7739    1.8937 H   0  0  0  0  0  0  0  0  0  0  0  0
    3.9329   -2.2381    3.6002 H   0  0  0  0  0  0  0  0  0  0  0  0
    6.1953   -1.7645    1.5903 H   0  0  0  0  0  0  0  0  0  0  0  0
    6.2866   -2.3064    3.3064 H   0  0  0  0  0  0  0  0  0  0  0  0
    5.6572   -0.0338    4.0821 H   0  0  0  0  0  0  0  0  0  0  0  0
    7.1052    0.0442    3.0248 H   0  0  0  0  0  0  0  0  0  0  0  0
    6.0336    1.2948    1.4256 H   0  0  0  0  0  0  0  0  0  0  0  0
    4.8597    1.6719    2.7407 H   0  0  0  0  0  0  0  0  0  0  0  0
    0.0840    3.1811   -3.0570 H   0  0  0  0  0  0  0  0  0  0  0  0
   -1.0739    1.9564   -2.5171 H   0  0  0  0  0  0  0  0  0  0  0  0
   -1.3502    3.3109    0.8776 H   0  0  0  0  0  0  0  0  0  0  0  0
  1  2  1  0
  2  3  1  0
  2  4  1  0
  4  5  1  0
  5  6  1  0
  6  7  1  0
  7  8  1  0
  8  9  2  0
  9 10  1  0
 10 11  2  0
 11 12  1  0
 11 13  1  0
 13 14  2  0
 14 15  1  0
 15 16  2  0
 15 17  1  0
 17 18  1  0
 18 19  1  0
 19 20  1  0
 20 21  1  0
 21 22  1  0
 22 23  1  0
 23 24  2  0
 23 25  1  0
 25 26  1  0
 26 27  1  0
 27 28  1  0
 28 29  1  0
 29 30  1  0
 30 31  1  0
 31 32  1  0
 22 33  1  0
 33 34  1  0
 34 35  2  0
 34 36  1  0
 36  5  1  0
 14  8  1  0
 32 27  1  0
  1 37  1  0
  1 38  1  0
  1 39  1  0
  2 40  1  0
  3 41  1  0
  3 42  1  0
  3 43  1  0
  4 44  1  0
  4 45  1  0
  5 46  1  0
  6 47  1  0
  6 48  1  0
  9 49  1  0
 10 50  1  0
 13 51  1  0
 17 52  1  0
 18 53  1  0
 18 54  1  0
 19 55  1  0
 19 56  1  0
 20 57  1  0
 20 58  1  0
 21 59  1  0
 21 60  1  0
 25 61  1  0
 25 62  1  0
 26 63  1  0
 26 64  1  0
 28 65  1  0
 28 66  1  0
 29 67  1  0
 29 68  1  0
 30 69  1  0
 30 70  1  0
 31 71  1  0
 31 72  1  0
 32 73  1  0
 32 74  1  0
 33 75  1  0
 33 76  1  0
 36 77  1  0
M  END
$$$$
