
     RDKit          3D

 81 83  0  0  0  0  0  0  0  0999 V2000
   -2.7508   -2.8297    1.8229 C   0  0  0  0  0  0  0  0  0  0  0  0
   -2.7187   -1.3045    1.6591 C   0  0  0  0  0  0  0  0  0  0  0  0
   -1.6627   -0.7299    2.5030 N   0  0  0  0  0  0  0  0  0  0  0  0
   -0.2513   -0.8959    2.2722 C   0  0  0  0  0  0  0  0  0  0  0  0
    0.5414   -0.7211    3.2367 O   0  0  0  0  0  0  0  0  0  0  0  0
    0.3230   -1.2229    0.9112 C   0  0  0  0  0  0  0  0  0  0  0  0
    0.9706   -0.0133    0.1930 C   0  0  0  0  0  0  0  0  0  0  0  0
    2.3992    0.2029    0.6273 C   0  0  0  0  0  0  0  0  0  0  0  0
    2.6566    0.4382    1.8389 O   0  0  0  0  0  0  0  0  0  0  0  0
    3.4619    0.1788   -0.3363 N   0  0  0  0  0  0  0  0  0  0  0  0
    4.8557    0.3603    0.0682 C   0  0  0  0  0  0  0  0  0  0  0  0
    5.7865    0.3608   -1.1516 C   0  0  0  0  0  0  0  0  0  0  0  0
    7.2334    0.7329   -0.7910 C   0  0  0  0  0  0  0  0  0  0  0  0
    7.9223   -0.3321    0.0808 C   0  0  0  0  0  0  0  0  0  0  0  0
    9.3807   -0.0935    0.1597 N   0  0  0  0  0  0  0  0  0  0  0  0
    9.6894    1.0109    1.0855 C   0  0  0  0  0  0  0  0  0  0  0  0
   10.0657   -1.3152    0.6134 C   0  0  0  0  0  0  0  0  0  0  0  0
    0.2063    1.2242    0.3984 N   0  0  0  0  0  0  0  0  0  0  0  0
   -0.1060    2.1276   -0.6722 C   0  0  0  0  0  0  0  0  0  0  0  0
   -0.1524    3.3667   -0.4450 O   0  0  0  0  0  0  0  0  0  0  0  0
   -0.3790    1.6353   -2.0318 C   0  0  0  0  0  0  0  0  0  0  0  0
    0.4956    2.0138   -3.0635 C   0  0  0  0  0  0  0  0  0  0  0  0
    0.3655    1.4601   -4.3385 C   0  0  0  0  0  0  0  0  0  0  0  0
   -0.6332    0.5187   -4.5924 C   0  0  0  0  0  0  0  0  0  0  0  0
   -1.5197    0.1478   -3.5791 C   0  0  0  0  0  0  0  0  0  0  0  0
   -1.4287    0.7221   -2.3052 C   0  0  0  0  0  0  0  0  0  0  0  0
   -2.4125    0.3702   -1.3675 O   0  0  0  0  0  0  0  0  0  0  0  0
   -3.0236    1.2840   -0.4533 C   0  0  0  0  0  0  0  0  0  0  0  0
   -4.4421    0.8211   -0.0333 C   0  0  0  0  0  0  0  0  0  0  0  0
   -5.0113   -0.3493   -0.8734 C   0  0  0  0  0  0  0  0  0  0  0  0
   -6.4454   -0.6463   -0.5087 C   0  0  0  0  0  0  0  0  0  0  0  0
   -7.4719    0.2280   -0.9062 C   0  0  0  0  0  0  0  0  0  0  0  0
   -8.7952   -0.0200   -0.5295 C   0  0  0  0  0  0  0  0  0  0  0  0
   -9.1045   -1.1436    0.2405 C   0  0  0  0  0  0  0  0  0  0  0  0
   -8.0916   -2.0211    0.6339 C   0  0  0  0  0  0  0  0  0  0  0  0
   -6.7663   -1.7747    0.2647 C   0  0  0  0  0  0  0  0  0  0  0  0
   -4.5126    0.5481    1.4208 N   0  0  0  0  0  0  0  0  0  0  0  0
   -5.3068    1.4636    2.2468 C   0  0  0  0  0  0  0  0  0  0  0  0
   -4.0524   -0.6853    2.0208 C   0  0  0  0  0  0  0  0  0  0  0  0
   -4.7313   -1.2033    2.9512 O   0  0  0  0  0  0  0  0  0  0  0  0
   -2.8885   -3.1059    2.8910 H   0  0  0  0  0  0  0  0  0  0  0  0
   -3.5835   -3.2606    1.2263 H   0  0  0  0  0  0  0  0  0  0  0  0
   -1.8011   -3.2767    1.4630 H   0  0  0  0  0  0  0  0  0  0  0  0
   -2.5105   -1.0911    0.6016 H   0  0  0  0  0  0  0  0  0  0  0  0
   -1.9426   -0.3092    3.4197 H   0  0  0  0  0  0  0  0  0  0  0  0
    1.0807   -2.0296    1.0364 H   0  0  0  0  0  0  0  0  0  0  0  0
   -0.4469   -1.6555    0.2433 H   0  0  0  0  0  0  0  0  0  0  0  0
    0.9840   -0.2715   -0.8882 H   0  0  0  0  0  0  0  0  0  0  0  0
    3.2278    0.0385   -1.3444 H   0  0  0  0  0  0  0  0  0  0  0  0
    5.1376   -0.4673    0.7526 H   0  0  0  0  0  0  0  0  0  0  0  0
    4.9534    1.3243    0.6124 H   0  0  0  0  0  0  0  0  0  0  0  0
    5.4130    1.1094   -1.8846 H   0  0  0  0  0  0  0  0  0  0  0  0
    5.7615   -0.6359   -1.6446 H   0  0  0  0  0  0  0  0  0  0  0  0
    7.8088    0.8476   -1.7357 H   0  0  0  0  0  0  0  0  0  0  0  0
    7.2347    1.7159   -0.2751 H   0  0  0  0  0  0  0  0  0  0  0  0
    7.7275   -1.3236   -0.3881 H   0  0  0  0  0  0  0  0  0  0  0  0
    7.4692   -0.3493    1.0979 H   0  0  0  0  0  0  0  0  0  0  0  0
    9.2817    1.9678    0.7009 H   0  0  0  0  0  0  0  0  0  0  0  0
   10.7893    1.1495    1.1670 H   0  0  0  0  0  0  0  0  0  0  0  0
    9.2752    0.8198    2.1005 H   0  0  0  0  0  0  0  0  0  0  0  0
    9.7054   -1.6293    1.6188 H   0  0  0  0  0  0  0  0  0  0  0  0
    9.8942   -2.1420   -0.1101 H   0  0  0  0  0  0  0  0  0  0  0  0
   11.1645   -1.1483    0.6555 H   0  0  0  0  0  0  0  0  0  0  0  0
    0.1282    1.5983    1.3715 H   0  0  0  0  0  0  0  0  0  0  0  0
    1.3033    2.7114   -2.8709 H   0  0  0  0  0  0  0  0  0  0  0  0
    1.0475    1.7500   -5.1276 H   0  0  0  0  0  0  0  0  0  0  0  0
   -0.7269    0.0831   -5.5791 H   0  0  0  0  0  0  0  0  0  0  0  0
   -2.3051   -0.5666   -3.7931 H   0  0  0  0  0  0  0  0  0  0  0  0
   -3.0996    2.2849   -0.9366 H   0  0  0  0  0  0  0  0  0  0  0  0
   -2.3895    1.3994    0.4486 H   0  0  0  0  0  0  0  0  0  0  0  0
   -5.1063    1.6887   -0.2566 H   0  0  0  0  0  0  0  0  0  0  0  0
   -4.9713   -0.0773   -1.9514 H   0  0  0  0  0  0  0  0  0  0  0  0
   -4.3891   -1.2610   -0.7530 H   0  0  0  0  0  0  0  0  0  0  0  0
   -7.2452    1.1032   -1.5020 H   0  0  0  0  0  0  0  0  0  0  0  0
   -9.5794    0.6591   -0.8354 H   0  0  0  0  0  0  0  0  0  0  0  0
  -10.1290   -1.3356    0.5283 H   0  0  0  0  0  0  0  0  0  0  0  0
   -8.3319   -2.8915    1.2298 H   0  0  0  0  0  0  0  0  0  0  0  0
   -5.9937   -2.4621    0.5856 H   0  0  0  0  0  0  0  0  0  0  0  0
   -5.0752    2.5159    1.9783 H   0  0  0  0  0  0  0  0  0  0  0  0
   -6.3875    1.2717    2.0836 H   0  0  0  0  0  0  0  0  0  0  0  0
   -5.0686    1.3372    3.3237 H   0  0  0  0  0  0  0  0  0  0  0  0
  1  2  1  0
  2  3  1  0
  3  4  1  0
  4  5  2  0
  4  6  1  0
  6  7  1  0
  7  8  1  0
  8  9  2  0
  8 10  1  0
 10 11  1  0
 11 12  1  0
 12 13  1  0
 13 14  1  0
 14 15  1  0
 15 16  1  0
 15 17  1  0
  7 18  1  0
 18 19  1  0
 19 20  2  0
 19 21  1  0
 21 22  2  0
 22 23  1  0
 23 24  2  0
 24 25  1  0
 25 26  2  0
 26 27  1  0
 27 28  1  0
 28 29  1  0
 29 30  1  0
 30 31  1  0
 31 32  2  0
 32 33  1  0
 33 34  2  0
 34 35  1  0
 35 36  2  0
 29 37  1  0
 37 38  1  0
 37 39  1  0
 39 40  2  0
 39  2  1  0
 26 21  1  0
 36 31  1  0
  1 41  1  0
  1 42  1  0
  1 43  1  0
  2 44  1  0
  3 45  1  0
  6 46  1  0
  6 47  1  0
  7 48  1  0
 10 49  1  0
 11 50  1  0
 11 51  1  0
 12 52  1  0
 12 53  1  0
 13 54  1  0
 13 55  1  0
 14 56  1  0
 14 57  1  0
 16 58  1  0
 16 59  1  0
 16 60  1  0
 17 61  1  0
 17 62  1  0
 17 63  1  0
 18 64  1  0
 22 65  1  0
 23 66  1  0
 24 67  1  0
 25 68  1  0
 28 69  1  0
 28 70  1  0
 29 71  1  0
 30 72  1  0
 30 73  1  0
 32 74  1  0
 33 75  1  0
 34 76  1  0
 35 77  1  0
 36 78  1  0
 38 79  1  0
 38 80  1  0
 38 81  1  0
M  END
$$$$
