
     RDKit          3D

 61 64  0  0  0  0  0  0  0  0999 V2000
    8.5315    2.5161    3.4342 C   0  0  0  0  0  0  0  0  0  0  0  0
    7.8605    1.2766    3.2379 O   0  0  0  0  0  0  0  0  0  0  0  0
    6.5902    1.1844    2.6627 C   0  0  0  0  0  0  0  0  0  0  0  0
    5.9138    2.2978    2.2705 N   0  0  0  0  0  0  0  0  0  0  0  0
    4.6705    2.2141    1.7309 C   0  0  0  0  0  0  0  0  0  0  0  0
    4.0567    0.9642    1.5662 C   0  0  0  0  0  0  0  0  0  0  0  0
    2.6813    0.8494    1.0108 C   0  0  0  0  0  0  0  0  0  0  0  0
    1.6948    1.7806    1.3646 C   0  0  0  0  0  0  0  0  0  0  0  0
    0.4039    1.6714    0.8550 C   0  0  0  0  0  0  0  0  0  0  0  0
    0.0630    0.6329   -0.0203 C   0  0  0  0  0  0  0  0  0  0  0  0
    1.0428   -0.3355   -0.3846 C   0  0  0  0  0  0  0  0  0  0  0  0
    2.3450   -0.1985    0.1368 C   0  0  0  0  0  0  0  0  0  0  0  0
    0.8030   -1.5371   -1.2968 C   0  0  0  0  0  0  0  0  0  0  0  0
   -0.6210   -1.7499   -1.6179 N   0  0  0  0  0  0  0  0  0  0  0  0
   -0.9360   -3.1493   -1.9331 C   0  0  0  0  0  0  0  0  0  0  0  0
   -2.4294   -3.4187   -1.6704 C   0  0  0  0  0  0  0  0  0  0  0  0
   -2.7393   -3.7928   -0.1921 C   0  0  0  0  0  0  0  0  0  0  0  0
   -3.7523   -2.8466    0.4989 C   0  0  0  0  0  0  0  0  0  0  0  0
   -3.1424   -1.9771    1.6221 C   0  0  0  0  0  0  0  0  0  0  0  0
   -1.9723   -1.0758    1.1851 C   0  0  0  0  0  0  0  0  0  0  0  0
   -2.4015    0.0498    0.2220 C   0  0  0  0  0  0  0  0  0  0  0  0
   -1.2715    0.6192   -0.5538 N   0  0  0  0  0  0  0  0  0  0  0  0
   -1.5283    1.3774   -1.7557 C   0  0  0  0  0  0  0  0  0  0  0  0
   -0.6249    1.4822   -2.6298 O   0  0  0  0  0  0  0  0  0  0  0  0
   -2.8422    2.0069   -2.0074 C   0  0  0  0  0  0  0  0  0  0  0  0
   -3.4601    2.8010   -1.0266 C   0  0  0  0  0  0  0  0  0  0  0  0
   -4.7156    3.3660   -1.2854 C   0  0  0  0  0  0  0  0  0  0  0  0
   -5.3306    3.1530   -2.4833 N   0  0  0  0  0  0  0  0  0  0  0  0
   -4.7458    2.4065   -3.4603 C   0  0  0  0  0  0  0  0  0  0  0  0
   -3.4878    1.8234   -3.2422 C   0  0  0  0  0  0  0  0  0  0  0  0
    4.7816   -0.1672    1.9700 C   0  0  0  0  0  0  0  0  0  0  0  0
    6.0220   -0.0325    2.5082 N   0  0  0  0  0  0  0  0  0  0  0  0
    7.9110    3.1978    4.0549 H   0  0  0  0  0  0  0  0  0  0  0  0
    9.4906    2.3286    3.9565 H   0  0  0  0  0  0  0  0  0  0  0  0
    8.7447    2.9930    2.4525 H   0  0  0  0  0  0  0  0  0  0  0  0
    4.1690    3.1206    1.4210 H   0  0  0  0  0  0  0  0  0  0  0  0
    1.9140    2.5878    2.0514 H   0  0  0  0  0  0  0  0  0  0  0  0
   -0.3437    2.4023    1.1428 H   0  0  0  0  0  0  0  0  0  0  0  0
    3.1058   -0.9142   -0.1560 H   0  0  0  0  0  0  0  0  0  0  0  0
    1.2202   -2.4228   -0.7606 H   0  0  0  0  0  0  0  0  0  0  0  0
    1.3866   -1.4044   -2.2380 H   0  0  0  0  0  0  0  0  0  0  0  0
   -0.8464   -1.1870   -2.4708 H   0  0  0  0  0  0  0  0  0  0  0  0
   -0.7148   -3.3446   -3.0091 H   0  0  0  0  0  0  0  0  0  0  0  0
   -0.3238   -3.8680   -1.3425 H   0  0  0  0  0  0  0  0  0  0  0  0
   -3.0289   -2.5491   -2.0184 H   0  0  0  0  0  0  0  0  0  0  0  0
   -2.7341   -4.2715   -2.3161 H   0  0  0  0  0  0  0  0  0  0  0  0
   -3.1802   -4.8165   -0.1927 H   0  0  0  0  0  0  0  0  0  0  0  0
   -1.8109   -3.8857    0.4155 H   0  0  0  0  0  0  0  0  0  0  0  0
   -4.3000   -2.2148   -0.2312 H   0  0  0  0  0  0  0  0  0  0  0  0
   -4.5416   -3.4765    0.9729 H   0  0  0  0  0  0  0  0  0  0  0  0
   -3.9431   -1.3415    2.0596 H   0  0  0  0  0  0  0  0  0  0  0  0
   -2.7810   -2.6508    2.4326 H   0  0  0  0  0  0  0  0  0  0  0  0
   -1.1621   -1.7022    0.7688 H   0  0  0  0  0  0  0  0  0  0  0  0
   -1.5426   -0.6009    2.0957 H   0  0  0  0  0  0  0  0  0  0  0  0
   -3.1598   -0.3334   -0.4976 H   0  0  0  0  0  0  0  0  0  0  0  0
   -2.8835    0.8514    0.8261 H   0  0  0  0  0  0  0  0  0  0  0  0
   -2.9748    3.0030   -0.0847 H   0  0  0  0  0  0  0  0  0  0  0  0
   -5.1902    3.9886   -0.5447 H   0  0  0  0  0  0  0  0  0  0  0  0
   -5.2571    2.2565   -4.4031 H   0  0  0  0  0  0  0  0  0  0  0  0
   -3.0388    1.2169   -4.0212 H   0  0  0  0  0  0  0  0  0  0  0  0
    4.3558   -1.1548    1.8852 H   0  0  0  0  0  0  0  0  0  0  0  0
  1  2  1  0
  2  3  1  0
  3  4  2  0
  4  5  1  0
  5  6  2  0
  6  7  1  0
  7  8  2  0
  8  9  1  0
  9 10  2  0
 10 11  1  0
 11 12  2  0
 11 13  1  0
 13 14  1  0
 14 15  1  0
 15 16  1  0
 16 17  1  0
 17 18  1  0
 18 19  1  0
 19 20  1  0
 20 21  1  0
 21 22  1  0
 22 23  1  0
 23 24  2  0
 23 25  1  0
 25 26  2  0
 26 27  1  0
 27 28  2  0
 28 29  1  0
 29 30  2  0
  6 31  1  0
 31 32  2  0
 32  3  1  0
 12  7  1  0
 30 25  1  0
 22 10  1  0
  1 33  1  0
  1 34  1  0
  1 35  1  0
  5 36  1  0
  8 37  1  0
  9 38  1  0
 12 39  1  0
 13 40  1  0
 13 41  1  0
 14 42  1  0
 15 43  1  0
 15 44  1  0
 16 45  1  0
 16 46  1  0
 17 47  1  0
 17 48  1  0
 18 49  1  0
 18 50  1  0
 19 51  1  0
 19 52  1  0
 20 53  1  0
 20 54  1  0
 21 55  1  0
 21 56  1  0
 26 57  1  0
 27 58  1  0
 29 59  1  0
 30 60  1  0
 31 61  1  0
M  END
$$$$
