
     RDKit          3D

 63 65  0  0  0  0  0  0  0  0999 V2000
    4.9700   -3.0397    0.1434 C   0  0  0  0  0  0  0  0  0  0  0  0
    4.0464   -1.9840    0.3959 O   0  0  0  0  0  0  0  0  0  0  0  0
    4.3943   -0.7187    0.9021 C   0  0  0  0  0  0  0  0  0  0  0  0
    5.7263   -0.3837    1.2163 C   0  0  0  0  0  0  0  0  0  0  0  0
    6.0393    0.8909    1.6963 C   0  0  0  0  0  0  0  0  0  0  0  0
    5.0348    1.8463    1.8676 C   0  0  0  0  0  0  0  0  0  0  0  0
    3.7093    1.5300    1.5604 C   0  0  0  0  0  0  0  0  0  0  0  0
    2.7434    2.4688    1.7462 F   0  0  0  0  0  0  0  0  0  0  0  0
    3.3795    0.2452    1.0866 C   0  0  0  0  0  0  0  0  0  0  0  0
    1.9711   -0.0899    0.7925 C   0  0  0  0  0  0  0  0  0  0  0  0
    1.3158   -1.0802    1.5330 C   0  0  0  0  0  0  0  0  0  0  0  0
   -0.0084   -1.4078    1.2481 C   0  0  0  0  0  0  0  0  0  0  0  0
   -0.7004   -0.7505    0.2231 C   0  0  0  0  0  0  0  0  0  0  0  0
   -0.0563    0.2717   -0.5236 C   0  0  0  0  0  0  0  0  0  0  0  0
    1.2893    0.5734   -0.2369 C   0  0  0  0  0  0  0  0  0  0  0  0
   -0.7527    0.9459   -1.6974 C   0  0  0  0  0  0  0  0  0  0  0  0
   -0.4989    2.3953   -1.8207 N   0  0  0  0  0  0  0  0  0  0  0  0
   -0.7776    3.1908   -0.6081 C   0  0  0  0  0  0  0  0  0  0  0  0
   -2.0899    3.9851   -0.7529 C   0  0  0  0  0  0  0  0  0  0  0  0
   -3.3386    3.1874   -0.3406 C   0  0  0  0  0  0  0  0  0  0  0  0
   -3.4839    3.0426    1.1914 C   0  0  0  0  0  0  0  0  0  0  0  0
   -4.0230    1.6634    1.6264 C   0  0  0  0  0  0  0  0  0  0  0  0
   -2.9558    0.5455    1.5358 C   0  0  0  0  0  0  0  0  0  0  0  0
   -3.2304   -0.4474    0.3817 C   0  0  0  0  0  0  0  0  0  0  0  0
   -2.0378   -1.1880   -0.0888 N   0  0  0  0  0  0  0  0  0  0  0  0
   -2.2294   -2.3053   -0.9899 C   0  0  0  0  0  0  0  0  0  0  0  0
   -3.3981   -2.7240   -1.2167 O   0  0  0  0  0  0  0  0  0  0  0  0
   -1.0689   -3.0119   -1.6663 C   0  0  0  0  0  0  0  0  0  0  0  0
   -0.8560   -4.3940   -1.0446 C   0  0  0  0  0  0  0  0  0  0  0  0
   -1.3083   -3.1204   -3.1772 C   0  0  0  0  0  0  0  0  0  0  0  0
    5.7372   -2.7081   -0.5897 H   0  0  0  0  0  0  0  0  0  0  0  0
    4.4219   -3.9096   -0.2800 H   0  0  0  0  0  0  0  0  0  0  0  0
    5.4593   -3.3543    1.0906 H   0  0  0  0  0  0  0  0  0  0  0  0
    6.5297   -1.0984    1.0907 H   0  0  0  0  0  0  0  0  0  0  0  0
    7.0650    1.1376    1.9347 H   0  0  0  0  0  0  0  0  0  0  0  0
    5.2844    2.8329    2.2436 H   0  0  0  0  0  0  0  0  0  0  0  0
    1.8347   -1.6025    2.3277 H   0  0  0  0  0  0  0  0  0  0  0  0
   -0.4971   -2.1900    1.8157 H   0  0  0  0  0  0  0  0  0  0  0  0
    1.8235    1.3120   -0.8211 H   0  0  0  0  0  0  0  0  0  0  0  0
   -0.4011    0.4455   -2.6251 H   0  0  0  0  0  0  0  0  0  0  0  0
   -1.8419    0.7798   -1.6756 H   0  0  0  0  0  0  0  0  0  0  0  0
    0.4870    2.5529   -2.1329 H   0  0  0  0  0  0  0  0  0  0  0  0
    0.0428    3.9321   -0.4733 H   0  0  0  0  0  0  0  0  0  0  0  0
   -0.7790    2.5820    0.3141 H   0  0  0  0  0  0  0  0  0  0  0  0
   -2.1995    4.3094   -1.8102 H   0  0  0  0  0  0  0  0  0  0  0  0
   -2.0351    4.9106   -0.1377 H   0  0  0  0  0  0  0  0  0  0  0  0
   -4.2358    3.7175   -0.7272 H   0  0  0  0  0  0  0  0  0  0  0  0
   -3.3248    2.2101   -0.8492 H   0  0  0  0  0  0  0  0  0  0  0  0
   -4.1894    3.8243    1.5485 H   0  0  0  0  0  0  0  0  0  0  0  0
   -2.5255    3.2408    1.7150 H   0  0  0  0  0  0  0  0  0  0  0  0
   -4.3400    1.7500    2.6888 H   0  0  0  0  0  0  0  0  0  0  0  0
   -4.9372    1.4131    1.0468 H   0  0  0  0  0  0  0  0  0  0  0  0
   -1.9582    1.0089    1.4544 H   0  0  0  0  0  0  0  0  0  0  0  0
   -2.9400   -0.0292    2.4868 H   0  0  0  0  0  0  0  0  0  0  0  0
   -3.6922    0.0651   -0.4851 H   0  0  0  0  0  0  0  0  0  0  0  0
   -3.9908   -1.1728    0.7441 H   0  0  0  0  0  0  0  0  0  0  0  0
   -0.1260   -2.4405   -1.5422 H   0  0  0  0  0  0  0  0  0  0  0  0
   -0.6632   -4.2963    0.0445 H   0  0  0  0  0  0  0  0  0  0  0  0
   -1.7492   -5.0401   -1.1910 H   0  0  0  0  0  0  0  0  0  0  0  0
    0.0228   -4.8882   -1.5115 H   0  0  0  0  0  0  0  0  0  0  0  0
   -1.4293   -2.1043   -3.6134 H   0  0  0  0  0  0  0  0  0  0  0  0
   -0.4383   -3.6077   -3.6668 H   0  0  0  0  0  0  0  0  0  0  0  0
   -2.2194   -3.7192   -3.3970 H   0  0  0  0  0  0  0  0  0  0  0  0
  1  2  1  0
  2  3  1  0
  3  4  2  0
  4  5  1  0
  5  6  2  0
  6  7  1  0
  7  8  1  0
  7  9  2  0
  9 10  1  0
 10 11  2  0
 11 12  1  0
 12 13  2  0
 13 14  1  0
 14 15  2  0
 14 16  1  0
 16 17  1  0
 17 18  1  0
 18 19  1  0
 19 20  1  0
 20 21  1  0
 21 22  1  0
 22 23  1  0
 23 24  1  0
 24 25  1  0
 25 26  1  0
 26 27  2  0
 26 28  1  0
 28 29  1  0
 28 30  1  0
  9  3  1  0
 15 10  1  0
 25 13  1  0
  1 31  1  0
  1 32  1  0
  1 33  1  0
  4 34  1  0
  5 35  1  0
  6 36  1  0
 11 37  1  0
 12 38  1  0
 15 39  1  0
 16 40  1  0
 16 41  1  0
 17 42  1  0
 18 43  1  0
 18 44  1  0
 19 45  1  0
 19 46  1  0
 20 47  1  0
 20 48  1  0
 21 49  1  0
 21 50  1  0
 22 51  1  0
 22 52  1  0
 23 53  1  0
 23 54  1  0
 24 55  1  0
 24 56  1  0
 28 57  1  0
 29 58  1  0
 29 59  1  0
 29 60  1  0
 30 61  1  0
 30 62  1  0
 30 63  1  0
M  END
$$$$
