
     RDKit          3D

 81 84  0  0  0  0  0  0  0  0999 V2000
   -1.4263   -3.1997    3.2631 C   0  0  0  0  0  0  0  0  0  0  0  0
   -2.4989   -3.2563    2.2164 C   0  0  0  0  0  0  0  0  0  0  0  0
   -3.6295   -3.7130    2.5347 O   0  0  0  0  0  0  0  0  0  0  0  0
   -2.2612   -2.7683    0.8789 N   0  0  0  0  0  0  0  0  0  0  0  0
   -3.2821   -2.9588   -0.1698 C   0  0  0  0  0  0  0  0  0  0  0  0
   -2.6680   -3.2383   -1.5608 C   0  0  0  0  0  0  0  0  0  0  0  0
   -3.6977   -3.0965   -2.7008 C   0  0  0  0  0  0  0  0  0  0  0  0
   -3.7204   -1.7057   -3.3766 C   0  0  0  0  0  0  0  0  0  0  0  0
   -4.3673   -0.5976   -2.5235 C   0  0  0  0  0  0  0  0  0  0  0  0
   -3.3349    0.1829   -1.6867 C   0  0  0  0  0  0  0  0  0  0  0  0
   -3.9749    0.8467   -0.4580 C   0  0  0  0  0  0  0  0  0  0  0  0
   -2.9364    1.2901    0.5125 N   0  0  0  0  0  0  0  0  0  0  0  0
   -3.3143    2.5984    1.1374 C   0  0  0  0  0  0  0  0  0  0  0  0
   -2.9164    3.7323    0.1643 C   0  0  0  0  0  0  0  0  0  0  0  0
   -3.0859    5.1334    0.7855 C   0  0  0  0  0  0  0  0  0  0  0  0
   -3.7157    5.0781    2.0488 O   0  0  0  0  0  0  0  0  0  0  0  0
   -2.8951    4.3661    2.9551 C   0  0  0  0  0  0  0  0  0  0  0  0
   -2.6742    2.9011    2.5170 C   0  0  0  0  0  0  0  0  0  0  0  0
   -2.5136    0.1713    1.4097 C   0  0  0  0  0  0  0  0  0  0  0  0
   -1.2581   -0.4815    0.8714 C   0  0  0  0  0  0  0  0  0  0  0  0
   -0.1485    0.3362    0.5956 C   0  0  0  0  0  0  0  0  0  0  0  0
    1.0432   -0.2019    0.0881 C   0  0  0  0  0  0  0  0  0  0  0  0
    2.1578    0.6940   -0.2960 C   0  0  0  0  0  0  0  0  0  0  0  0
    1.9073    1.8830   -0.6302 O   0  0  0  0  0  0  0  0  0  0  0  0
    3.5150    0.2251   -0.3451 N   0  0  0  0  0  0  0  0  0  0  0  0
    4.0990   -0.4347    0.8339 C   0  0  0  0  0  0  0  0  0  0  0  0
    5.6186   -0.2462    0.8701 C   0  0  0  0  0  0  0  0  0  0  0  0
    6.2695   -0.7617   -0.4346 C   0  0  0  0  0  0  0  0  0  0  0  0
    7.7798   -0.4222   -0.5340 C   0  0  0  0  0  0  0  0  0  0  0  0
    8.1489    1.0691   -0.4500 C   0  0  0  0  0  0  0  0  0  0  0  0
    7.5004    1.8224   -1.4379 O   0  0  0  0  0  0  0  0  0  0  0  0
    5.4702   -0.3822   -1.7136 C   0  0  0  0  0  0  0  0  0  0  0  0
    4.3752    0.6576   -1.4525 C   0  0  0  0  0  0  0  0  0  0  0  0
    1.1334   -1.5847   -0.1197 C   0  0  0  0  0  0  0  0  0  0  0  0
    0.0522   -2.4140    0.1752 C   0  0  0  0  0  0  0  0  0  0  0  0
   -1.1532   -1.8772    0.6499 C   0  0  0  0  0  0  0  0  0  0  0  0
   -1.2887   -2.1503    3.6000 H   0  0  0  0  0  0  0  0  0  0  0  0
   -1.7062   -3.8234    4.1371 H   0  0  0  0  0  0  0  0  0  0  0  0
   -0.4687   -3.5830    2.8484 H   0  0  0  0  0  0  0  0  0  0  0  0
   -3.9389   -2.0738   -0.1943 H   0  0  0  0  0  0  0  0  0  0  0  0
   -3.9368   -3.8227    0.0822 H   0  0  0  0  0  0  0  0  0  0  0  0
   -2.2864   -4.2834   -1.5518 H   0  0  0  0  0  0  0  0  0  0  0  0
   -1.7947   -2.5920   -1.7789 H   0  0  0  0  0  0  0  0  0  0  0  0
   -4.7153   -3.3774   -2.3519 H   0  0  0  0  0  0  0  0  0  0  0  0
   -3.4271   -3.8324   -3.4880 H   0  0  0  0  0  0  0  0  0  0  0  0
   -2.6960   -1.4119   -3.6938 H   0  0  0  0  0  0  0  0  0  0  0  0
   -4.3192   -1.8047   -4.3089 H   0  0  0  0  0  0  0  0  0  0  0  0
   -4.8711    0.1284   -3.1968 H   0  0  0  0  0  0  0  0  0  0  0  0
   -5.1639   -1.0387   -1.8891 H   0  0  0  0  0  0  0  0  0  0  0  0
   -2.5237   -0.4885   -1.3713 H   0  0  0  0  0  0  0  0  0  0  0  0
   -2.8632    0.9674   -2.3180 H   0  0  0  0  0  0  0  0  0  0  0  0
   -4.7108    0.1730    0.0337 H   0  0  0  0  0  0  0  0  0  0  0  0
   -4.5805    1.6971   -0.8386 H   0  0  0  0  0  0  0  0  0  0  0  0
   -4.4186    2.6341    1.2920 H   0  0  0  0  0  0  0  0  0  0  0  0
   -3.5237    3.6736   -0.7627 H   0  0  0  0  0  0  0  0  0  0  0  0
   -1.8525    3.5988   -0.1315 H   0  0  0  0  0  0  0  0  0  0  0  0
   -3.7158    5.7541    0.1129 H   0  0  0  0  0  0  0  0  0  0  0  0
   -2.1041    5.6543    0.8588 H   0  0  0  0  0  0  0  0  0  0  0  0
   -1.9190    4.8866    3.0939 H   0  0  0  0  0  0  0  0  0  0  0  0
   -3.3974    4.3762    3.9475 H   0  0  0  0  0  0  0  0  0  0  0  0
   -1.5810    2.7039    2.4793 H   0  0  0  0  0  0  0  0  0  0  0  0
   -3.1375    2.2525    3.2910 H   0  0  0  0  0  0  0  0  0  0  0  0
   -3.3296   -0.5635    1.5633 H   0  0  0  0  0  0  0  0  0  0  0  0
   -2.2535    0.4892    2.4300 H   0  0  0  0  0  0  0  0  0  0  0  0
   -0.2218    1.4029    0.7643 H   0  0  0  0  0  0  0  0  0  0  0  0
    3.8647   -1.5204    0.8145 H   0  0  0  0  0  0  0  0  0  0  0  0
    3.6671   -0.0032    1.7634 H   0  0  0  0  0  0  0  0  0  0  0  0
    5.8159    0.8355    1.0131 H   0  0  0  0  0  0  0  0  0  0  0  0
    6.0392   -0.7914    1.7450 H   0  0  0  0  0  0  0  0  0  0  0  0
    6.2284   -1.8741   -0.3689 H   0  0  0  0  0  0  0  0  0  0  0  0
    8.3105   -0.9484    0.2902 H   0  0  0  0  0  0  0  0  0  0  0  0
    8.1852   -0.8371   -1.4828 H   0  0  0  0  0  0  0  0  0  0  0  0
    7.8931    1.4777    0.5479 H   0  0  0  0  0  0  0  0  0  0  0  0
    9.2530    1.1737   -0.5549 H   0  0  0  0  0  0  0  0  0  0  0  0
    8.0164    1.6983   -2.2774 H   0  0  0  0  0  0  0  0  0  0  0  0
    4.9757   -1.2973   -2.1080 H   0  0  0  0  0  0  0  0  0  0  0  0
    6.1331   -0.0221   -2.5261 H   0  0  0  0  0  0  0  0  0  0  0  0
    4.8269    1.6419   -1.2070 H   0  0  0  0  0  0  0  0  0  0  0  0
    3.7748    0.7767   -2.3797 H   0  0  0  0  0  0  0  0  0  0  0  0
    2.0257   -2.0240   -0.5445 H   0  0  0  0  0  0  0  0  0  0  0  0
    0.1379   -3.4792   -0.0015 H   0  0  0  0  0  0  0  0  0  0  0  0
  1  2  1  0
  2  3  2  0
  2  4  1  0
  4  5  1  0
  5  6  1  0
  6  7  1  0
  7  8  1  0
  8  9  1  0
  9 10  1  0
 10 11  1  0
 11 12  1  0
 12 13  1  0
 13 14  1  0
 14 15  1  0
 15 16  1  0
 16 17  1  0
 17 18  1  0
 12 19  1  0
 19 20  1  0
 20 21  2  0
 21 22  1  0
 22 23  1  0
 23 24  2  0
 23 25  1  0
 25 26  1  0
 26 27  1  0
 27 28  1  0
 28 29  1  0
 29 30  1  0
 30 31  1  0
 28 32  1  0
 32 33  1  0
 22 34  2  0
 34 35  1  0
 35 36  2  0
 36  4  1  0
 18 13  1  0
 36 20  1  0
 33 25  1  0
  1 37  1  0
  1 38  1  0
  1 39  1  0
  5 40  1  0
  5 41  1  0
  6 42  1  0
  6 43  1  0
  7 44  1  0
  7 45  1  0
  8 46  1  0
  8 47  1  0
  9 48  1  0
  9 49  1  0
 10 50  1  0
 10 51  1  0
 11 52  1  0
 11 53  1  0
 13 54  1  0
 14 55  1  0
 14 56  1  0
 15 57  1  0
 15 58  1  0
 17 59  1  0
 17 60  1  0
 18 61  1  0
 18 62  1  0
 19 63  1  0
 19 64  1  0
 21 65  1  0
 26 66  1  0
 26 67  1  0
 27 68  1  0
 27 69  1  0
 28 70  1  0
 29 71  1  0
 29 72  1  0
 30 73  1  0
 30 74  1  0
 31 75  1  0
 32 76  1  0
 32 77  1  0
 33 78  1  0
 33 79  1  0
 34 80  1  0
 35 81  1  0
M  END
$$$$
