
     RDKit          3D

 72 75  0  0  0  0  0  0  0  0999 V2000
   -3.5417   -2.0295    1.2567 C   0  0  0  0  0  0  0  0  0  0  0  0
   -3.7771   -2.0211   -0.2685 C   0  0  0  0  0  0  0  0  0  0  0  0
   -4.6843   -3.2269   -0.6118 C   0  0  0  0  0  0  0  0  0  0  0  0
   -2.4401   -2.1993   -1.0736 C   0  0  0  0  0  0  0  0  0  0  0  0
   -1.2999   -1.1726   -0.8531 C   0  0  0  0  0  0  0  0  0  0  0  0
   -0.3484   -1.5493    0.2965 C   0  0  0  0  0  0  0  0  0  0  0  0
    0.7844   -0.6008    0.4162 N   0  0  0  0  0  0  0  0  0  0  0  0
    1.8526   -1.1327    1.2920 C   0  0  0  0  0  0  0  0  0  0  0  0
    2.8495   -1.9223    0.4936 C   0  0  0  0  0  0  0  0  0  0  0  0
    3.4837   -2.8572    1.0561 O   0  0  0  0  0  0  0  0  0  0  0  0
    3.1590   -1.5582   -0.8604 N   0  0  0  0  0  0  0  0  0  0  0  0
    4.3515   -2.0418   -1.5517 C   0  0  0  0  0  0  0  0  0  0  0  0
    5.6329   -1.4033   -0.9902 C   0  0  0  0  0  0  0  0  0  0  0  0
    5.6657    0.0571   -1.2473 N   0  0  0  0  0  0  0  0  0  0  0  0
    4.8821    0.8332   -0.2697 C   0  0  0  0  0  0  0  0  0  0  0  0
    5.6305    2.1253   -0.0214 C   0  0  0  0  0  0  0  0  0  0  0  0
    7.0752    1.7412   -0.2086 C   0  0  0  0  0  0  0  0  0  0  0  0
    7.0393    0.6001   -1.2150 C   0  0  0  0  0  0  0  0  0  0  0  0
    0.4248    0.8148    0.7082 C   0  0  0  0  0  0  0  0  0  0  0  0
   -0.6802    0.9944    1.7361 C   0  0  0  0  0  0  0  0  0  0  0  0
   -0.5559    0.4469    3.0238 C   0  0  0  0  0  0  0  0  0  0  0  0
   -1.6043    0.5527    3.9376 C   0  0  0  0  0  0  0  0  0  0  0  0
   -2.7649    1.2320    3.5720 C   0  0  0  0  0  0  0  0  0  0  0  0
   -2.8530    1.8143    2.3488 N   0  0  0  0  0  0  0  0  0  0  0  0
   -1.8462    1.7323    1.4337 C   0  0  0  0  0  0  0  0  0  0  0  0
   -1.9559    2.4209    0.2166 O   0  0  0  0  0  0  0  0  0  0  0  0
   -3.1800    2.7311   -0.3907 C   0  0  0  0  0  0  0  0  0  0  0  0
   -3.3989    4.0351   -0.8506 C   0  0  0  0  0  0  0  0  0  0  0  0
   -4.6036    4.3681   -1.4778 C   0  0  0  0  0  0  0  0  0  0  0  0
   -5.5919    3.3978   -1.6533 C   0  0  0  0  0  0  0  0  0  0  0  0
   -5.3741    2.0857   -1.2193 C   0  0  0  0  0  0  0  0  0  0  0  0
   -4.1616    1.7417   -0.5942 C   0  0  0  0  0  0  0  0  0  0  0  0
   -3.8762    0.4294   -0.1997 O   0  0  0  0  0  0  0  0  0  0  0  0
   -4.5421   -0.7329   -0.6786 C   0  0  0  0  0  0  0  0  0  0  0  0
   -4.5111   -2.0638    1.8002 H   0  0  0  0  0  0  0  0  0  0  0  0
   -3.0184   -1.1117    1.5905 H   0  0  0  0  0  0  0  0  0  0  0  0
   -2.9475   -2.9177    1.5579 H   0  0  0  0  0  0  0  0  0  0  0  0
   -4.1956   -4.1813   -0.3216 H   0  0  0  0  0  0  0  0  0  0  0  0
   -4.8934   -3.2653   -1.7044 H   0  0  0  0  0  0  0  0  0  0  0  0
   -5.6562   -3.1672   -0.0747 H   0  0  0  0  0  0  0  0  0  0  0  0
   -2.0341   -3.2196   -0.8959 H   0  0  0  0  0  0  0  0  0  0  0  0
   -2.6925   -2.1705   -2.1564 H   0  0  0  0  0  0  0  0  0  0  0  0
   -1.6956   -0.1573   -0.7177 H   0  0  0  0  0  0  0  0  0  0  0  0
   -0.6893   -1.1377   -1.7822 H   0  0  0  0  0  0  0  0  0  0  0  0
    0.0536   -2.5627    0.0735 H   0  0  0  0  0  0  0  0  0  0  0  0
   -0.8798   -1.6337    1.2608 H   0  0  0  0  0  0  0  0  0  0  0  0
    2.4198   -0.3229    1.8014 H   0  0  0  0  0  0  0  0  0  0  0  0
    1.4285   -1.7787    2.0940 H   0  0  0  0  0  0  0  0  0  0  0  0
    2.5347   -0.8996   -1.3774 H   0  0  0  0  0  0  0  0  0  0  0  0
    4.2695   -1.8003   -2.6350 H   0  0  0  0  0  0  0  0  0  0  0  0
    4.4118   -3.1499   -1.4604 H   0  0  0  0  0  0  0  0  0  0  0  0
    6.4766   -1.8979   -1.5243 H   0  0  0  0  0  0  0  0  0  0  0  0
    5.7594   -1.6390    0.0920 H   0  0  0  0  0  0  0  0  0  0  0  0
    4.7749    0.2950    0.6998 H   0  0  0  0  0  0  0  0  0  0  0  0
    3.8744    1.0545   -0.6809 H   0  0  0  0  0  0  0  0  0  0  0  0
    5.3437    2.8804   -0.7875 H   0  0  0  0  0  0  0  0  0  0  0  0
    5.4382    2.5303    0.9959 H   0  0  0  0  0  0  0  0  0  0  0  0
    7.4878    1.3785    0.7593 H   0  0  0  0  0  0  0  0  0  0  0  0
    7.6823    2.5965   -0.5765 H   0  0  0  0  0  0  0  0  0  0  0  0
    7.2806    0.9989   -2.2263 H   0  0  0  0  0  0  0  0  0  0  0  0
    7.8150   -0.1590   -0.9501 H   0  0  0  0  0  0  0  0  0  0  0  0
    0.1412    1.2878   -0.2533 H   0  0  0  0  0  0  0  0  0  0  0  0
    1.3132    1.3979    1.0344 H   0  0  0  0  0  0  0  0  0  0  0  0
    0.3463   -0.0677    3.3238 H   0  0  0  0  0  0  0  0  0  0  0  0
   -1.5161    0.1127    4.9234 H   0  0  0  0  0  0  0  0  0  0  0  0
   -3.5879    1.3173    4.2686 H   0  0  0  0  0  0  0  0  0  0  0  0
   -2.6352    4.7916   -0.7226 H   0  0  0  0  0  0  0  0  0  0  0  0
   -4.7720    5.3798   -1.8287 H   0  0  0  0  0  0  0  0  0  0  0  0
   -6.5243    3.6594   -2.1393 H   0  0  0  0  0  0  0  0  0  0  0  0
   -6.1521    1.3503   -1.3649 H   0  0  0  0  0  0  0  0  0  0  0  0
   -4.6324   -0.6838   -1.7869 H   0  0  0  0  0  0  0  0  0  0  0  0
   -5.5687   -0.7501   -0.2513 H   0  0  0  0  0  0  0  0  0  0  0  0
  1  2  1  0
  2  3  1  0
  2  4  1  0
  4  5  1  0
  5  6  1  0
  6  7  1  0
  7  8  1  0
  8  9  1  0
  9 10  2  0
  9 11  1  0
 11 12  1  0
 12 13  1  0
 13 14  1  0
 14 15  1  0
 15 16  1  0
 16 17  1  0
 17 18  1  0
  7 19  1  0
 19 20  1  0
 20 21  2  0
 21 22  1  0
 22 23  2  0
 23 24  1  0
 24 25  2  0
 25 26  1  0
 26 27  1  0
 27 28  2  0
 28 29  1  0
 29 30  2  0
 30 31  1  0
 31 32  2  0
 32 33  1  0
 33 34  1  0
 34  2  1  0
 18 14  1  0
 25 20  1  0
 32 27  1  0
  1 35  1  0
  1 36  1  0
  1 37  1  0
  3 38  1  0
  3 39  1  0
  3 40  1  0
  4 41  1  0
  4 42  1  0
  5 43  1  0
  5 44  1  0
  6 45  1  0
  6 46  1  0
  8 47  1  0
  8 48  1  0
 11 49  1  0
 12 50  1  0
 12 51  1  0
 13 52  1  0
 13 53  1  0
 15 54  1  0
 15 55  1  0
 16 56  1  0
 16 57  1  0
 17 58  1  0
 17 59  1  0
 18 60  1  0
 18 61  1  0
 19 62  1  0
 19 63  1  0
 21 64  1  0
 22 65  1  0
 23 66  1  0
 28 67  1  0
 29 68  1  0
 30 69  1  0
 31 70  1  0
 34 71  1  0
 34 72  1  0
M  END
$$$$
