
     RDKit          3D

 72 75  0  0  0  0  0  0  0  0999 V2000
    2.5954    1.6257   -1.2923 O   0  0  0  0  0  0  0  0  0  0  0  0
    2.3667    2.1591   -0.1726 C   0  0  0  0  0  0  0  0  0  0  0  0
    0.9488    2.3328    0.3013 C   0  0  0  0  0  0  0  0  0  0  0  0
    0.1681    1.0964    0.0697 N   0  0  0  0  0  0  0  0  0  0  0  0
   -0.4547    1.0691   -1.2744 C   0  0  0  0  0  0  0  0  0  0  0  0
   -0.6736   -0.3741   -1.7367 C   0  0  0  0  0  0  0  0  0  0  0  0
   -1.3195   -0.4222   -3.1313 C   0  0  0  0  0  0  0  0  0  0  0  0
   -2.0574   -1.7457   -3.4077 C   0  0  0  0  0  0  0  0  0  0  0  0
   -3.2444   -2.0431   -2.4642 C   0  0  0  0  0  0  0  0  0  0  0  0
   -4.2467   -0.8862   -2.3629 C   0  0  0  0  0  0  0  0  0  0  0  0
   -5.3839   -1.2817   -1.6012 O   0  0  0  0  0  0  0  0  0  0  0  0
   -5.4486   -1.5007   -0.2127 C   0  0  0  0  0  0  0  0  0  0  0  0
   -6.5305   -2.2672    0.2437 C   0  0  0  0  0  0  0  0  0  0  0  0
   -6.7183   -2.5099    1.6054 C   0  0  0  0  0  0  0  0  0  0  0  0
   -5.8303   -1.9775    2.5377 C   0  0  0  0  0  0  0  0  0  0  0  0
   -4.7512   -1.2046    2.1089 C   0  0  0  0  0  0  0  0  0  0  0  0
   -4.5411   -0.9596    0.7402 C   0  0  0  0  0  0  0  0  0  0  0  0
   -3.4472   -0.1684    0.3737 O   0  0  0  0  0  0  0  0  0  0  0  0
   -3.2954    1.1383    0.8583 C   0  0  0  0  0  0  0  0  0  0  0  0
   -4.4004    1.9259    0.9918 N   0  0  0  0  0  0  0  0  0  0  0  0
   -4.3318    3.2000    1.4541 C   0  0  0  0  0  0  0  0  0  0  0  0
   -3.1028    3.7404    1.8225 C   0  0  0  0  0  0  0  0  0  0  0  0
   -1.9520    2.9611    1.7108 C   0  0  0  0  0  0  0  0  0  0  0  0
   -2.0239    1.6482    1.2136 C   0  0  0  0  0  0  0  0  0  0  0  0
   -0.7745    0.7808    1.1769 C   0  0  0  0  0  0  0  0  0  0  0  0
    3.4566    2.6413    0.6281 N   0  0  0  0  0  0  0  0  0  0  0  0
    4.8562    2.3804    0.2957 C   0  0  0  0  0  0  0  0  0  0  0  0
    5.3046    1.0321    0.8667 C   0  0  0  0  0  0  0  0  0  0  0  0
    4.5536   -0.0779    0.2319 N   0  0  0  0  0  0  0  0  0  0  0  0
    4.1756   -1.1743    1.1621 C   0  0  0  0  0  0  0  0  0  0  0  0
    5.1029   -2.4068    1.0948 C   0  0  0  0  0  0  0  0  0  0  0  0
    6.5121   -2.0251    0.6512 C   0  0  0  0  0  0  0  0  0  0  0  0
    6.4943   -1.3607   -0.7337 C   0  0  0  0  0  0  0  0  0  0  0  0
    5.1922   -0.5747   -1.0054 C   0  0  0  0  0  0  0  0  0  0  0  0
    0.9959    2.5765    1.3835 H   0  0  0  0  0  0  0  0  0  0  0  0
    0.4867    3.2056   -0.2121 H   0  0  0  0  0  0  0  0  0  0  0  0
    0.2025    1.5618   -2.0246 H   0  0  0  0  0  0  0  0  0  0  0  0
   -1.4141    1.6309   -1.2865 H   0  0  0  0  0  0  0  0  0  0  0  0
   -1.3134   -0.8823   -0.9986 H   0  0  0  0  0  0  0  0  0  0  0  0
    0.3004   -0.9102   -1.7609 H   0  0  0  0  0  0  0  0  0  0  0  0
   -0.5188   -0.2993   -3.8928 H   0  0  0  0  0  0  0  0  0  0  0  0
   -2.0181    0.4279   -3.2806 H   0  0  0  0  0  0  0  0  0  0  0  0
   -2.4365   -1.7176   -4.4529 H   0  0  0  0  0  0  0  0  0  0  0  0
   -1.3310   -2.5859   -3.3448 H   0  0  0  0  0  0  0  0  0  0  0  0
   -2.8858   -2.3264   -1.4539 H   0  0  0  0  0  0  0  0  0  0  0  0
   -3.7791   -2.9332   -2.8609 H   0  0  0  0  0  0  0  0  0  0  0  0
   -4.5950   -0.6342   -3.3868 H   0  0  0  0  0  0  0  0  0  0  0  0
   -3.8006    0.0334   -1.9440 H   0  0  0  0  0  0  0  0  0  0  0  0
   -7.2372   -2.6772   -0.4675 H   0  0  0  0  0  0  0  0  0  0  0  0
   -7.5570   -3.1074    1.9388 H   0  0  0  0  0  0  0  0  0  0  0  0
   -5.9800   -2.1611    3.5938 H   0  0  0  0  0  0  0  0  0  0  0  0
   -4.0675   -0.7984    2.8435 H   0  0  0  0  0  0  0  0  0  0  0  0
   -5.2339    3.7894    1.5450 H   0  0  0  0  0  0  0  0  0  0  0  0
   -3.0439    4.7502    2.2070 H   0  0  0  0  0  0  0  0  0  0  0  0
   -1.0136    3.3810    2.0412 H   0  0  0  0  0  0  0  0  0  0  0  0
   -1.0505   -0.2924    1.1303 H   0  0  0  0  0  0  0  0  0  0  0  0
   -0.2515    0.8658    2.1552 H   0  0  0  0  0  0  0  0  0  0  0  0
    3.2509    3.1580    1.5127 H   0  0  0  0  0  0  0  0  0  0  0  0
    5.4855    3.1790    0.7444 H   0  0  0  0  0  0  0  0  0  0  0  0
    5.0113    2.4217   -0.8027 H   0  0  0  0  0  0  0  0  0  0  0  0
    5.1415    1.0708    1.9661 H   0  0  0  0  0  0  0  0  0  0  0  0
    6.4000    0.9267    0.7142 H   0  0  0  0  0  0  0  0  0  0  0  0
    3.1457   -1.5028    0.9061 H   0  0  0  0  0  0  0  0  0  0  0  0
    4.1148   -0.8204    2.2136 H   0  0  0  0  0  0  0  0  0  0  0  0
    4.6882   -3.1454    0.3736 H   0  0  0  0  0  0  0  0  0  0  0  0
    5.1457   -2.8965    2.0917 H   0  0  0  0  0  0  0  0  0  0  0  0
    7.1526   -2.9334    0.6187 H   0  0  0  0  0  0  0  0  0  0  0  0
    6.9538   -1.3328    1.4002 H   0  0  0  0  0  0  0  0  0  0  0  0
    6.6108   -2.1409   -1.5181 H   0  0  0  0  0  0  0  0  0  0  0  0
    7.3689   -0.6790   -0.8174 H   0  0  0  0  0  0  0  0  0  0  0  0
    4.4726   -1.2395   -1.5326 H   0  0  0  0  0  0  0  0  0  0  0  0
    5.4004    0.2663   -1.7014 H   0  0  0  0  0  0  0  0  0  0  0  0
  1  2  2  0
  2  3  1  0
  3  4  1  0
  4  5  1  0
  5  6  1  0
  6  7  1  0
  7  8  1  0
  8  9  1  0
  9 10  1  0
 10 11  1  0
 11 12  1  0
 12 13  2  0
 13 14  1  0
 14 15  2  0
 15 16  1  0
 16 17  2  0
 17 18  1  0
 18 19  1  0
 19 20  2  0
 20 21  1  0
 21 22  2  0
 22 23  1  0
 23 24  2  0
 24 25  1  0
  2 26  1  0
 26 27  1  0
 27 28  1  0
 28 29  1  0
 29 30  1  0
 30 31  1  0
 31 32  1  0
 32 33  1  0
 33 34  1  0
 25  4  1  0
 34 29  1  0
 17 12  1  0
 24 19  1  0
  3 35  1  0
  3 36  1  0
  5 37  1  0
  5 38  1  0
  6 39  1  0
  6 40  1  0
  7 41  1  0
  7 42  1  0
  8 43  1  0
  8 44  1  0
  9 45  1  0
  9 46  1  0
 10 47  1  0
 10 48  1  0
 13 49  1  0
 14 50  1  0
 15 51  1  0
 16 52  1  0
 21 53  1  0
 22 54  1  0
 23 55  1  0
 25 56  1  0
 25 57  1  0
 26 58  1  0
 27 59  1  0
 27 60  1  0
 28 61  1  0
 28 62  1  0
 30 63  1  0
 30 64  1  0
 31 65  1  0
 31 66  1  0
 32 67  1  0
 32 68  1  0
 33 69  1  0
 33 70  1  0
 34 71  1  0
 34 72  1  0
M  END
$$$$
