
     RDKit          3D

 89 93  0  0  0  0  0  0  0  0999 V2000
   -3.9013   -4.0419    0.3171 C   0  0  0  0  0  0  0  0  0  0  0  0
   -3.7907   -2.5728   -0.1297 C   0  0  0  0  0  0  0  0  0  0  0  0
   -3.1468   -2.4701   -1.5214 C   0  0  0  0  0  0  0  0  0  0  0  0
   -3.1160   -1.6540    0.9313 C   0  0  2  0  0  0  0  0  0  0  0  0
   -3.5634   -0.2682    0.6645 N   0  0  0  0  0  0  0  0  0  0  0  0
   -3.7903    0.5033    1.8885 C   0  0  0  0  0  0  0  0  0  0  0  0
   -4.3845    1.8672    1.5482 C   0  0  0  0  0  0  0  0  0  0  0  0
   -3.4014    2.6671    0.8942 O   0  0  0  0  0  0  0  0  0  0  0  0
   -3.6431    3.8207    0.1356 C   0  0  0  0  0  0  0  0  0  0  0  0
   -4.9548    4.3118   -0.0413 C   0  0  0  0  0  0  0  0  0  0  0  0
   -5.1943    5.4558   -0.8004 C   0  0  0  0  0  0  0  0  0  0  0  0
   -4.1319    6.1374   -1.3848 C   0  0  0  0  0  0  0  0  0  0  0  0
   -2.8228    5.6865   -1.2059 C   0  0  0  0  0  0  0  0  0  0  0  0
   -2.5509    4.5035   -0.4686 C   0  0  0  0  0  0  0  0  0  0  0  0
   -1.0968    4.0833   -0.1955 C   0  0  0  0  0  0  0  0  0  0  0  0
   -0.0744    4.6505   -1.1800 C   0  0  0  0  0  0  0  0  0  0  0  0
    1.1511    3.7711   -1.0257 C   0  0  0  0  0  0  0  0  0  0  0  0
    0.6157    2.3856   -0.6833 C   0  0  0  0  0  0  0  0  0  0  0  0
   -0.8393    2.5727   -0.2414 C   0  0  0  0  0  0  0  0  0  0  0  0
    1.4187    1.7633    0.3805 N   0  0  0  0  0  0  0  0  0  0  0  0
    1.8263    0.3901    0.3942 C   0  0  0  0  0  0  0  0  0  0  0  0
    2.0580   -0.1589    1.5081 O   0  0  0  0  0  0  0  0  0  0  0  0
    1.9653   -0.4199   -0.8724 C   0  0  1  0  0  0  0  0  0  0  0  0
    3.1688   -1.3920   -0.8297 C   0  0  0  0  0  0  0  0  0  0  0  0
    4.4775   -0.6598   -0.9424 C   0  0  0  0  0  0  0  0  0  0  0  0
    5.0279   -0.1524   -2.1146 C   0  0  0  0  0  0  0  0  0  0  0  0
    6.1931    0.4819   -1.8500 N   0  0  0  0  0  0  0  0  0  0  0  0
    6.3833    0.3783   -0.5218 C   0  0  0  0  0  0  0  0  0  0  0  0
    7.4475    0.8837    0.2205 C   0  0  0  0  0  0  0  0  0  0  0  0
    7.4478    0.6631    1.6095 C   0  0  0  0  0  0  0  0  0  0  0  0
    6.3869   -0.0373    2.2217 C   0  0  0  0  0  0  0  0  0  0  0  0
    5.3207   -0.5341    1.4505 C   0  0  0  0  0  0  0  0  0  0  0  0
    5.3544   -0.3096    0.0707 C   0  0  0  0  0  0  0  0  0  0  0  0
    0.6930   -1.0909   -1.1747 N   0  0  0  0  0  0  0  0  0  0  0  0
    0.4245   -2.4900   -1.0135 C   0  0  0  0  0  0  0  0  0  0  0  0
    0.0923   -3.1515   -2.0316 O   0  0  0  0  0  0  0  0  0  0  0  0
    0.4316   -3.1471    0.3679 C   0  0  2  0  0  0  0  0  0  0  0  0
    0.9057   -4.6377    0.3055 C   0  0  0  0  0  0  0  0  0  0  0  0
    2.2619   -4.8326   -0.3842 C   0  0  0  0  0  0  0  0  0  0  0  0
   -0.0818   -5.4709   -0.2508 O   0  0  0  0  0  0  0  0  0  0  0  0
   -0.8925   -3.0158    1.0463 N   0  0  0  0  0  0  0  0  0  0  0  0
   -1.1286   -3.8145    2.2609 C   0  0  0  0  0  0  0  0  0  0  0  0
   -1.5875   -1.7475    1.0028 C   0  0  0  0  0  0  0  0  0  0  0  0
   -0.9267   -0.6957    1.2442 O   0  0  0  0  0  0  0  0  0  0  0  0
   -4.3312   -4.1093    1.3365 H   0  0  0  0  0  0  0  0  0  0  0  0
   -2.9137   -4.5500    0.2851 H   0  0  0  0  0  0  0  0  0  0  0  0
   -4.5809   -4.5911   -0.3692 H   0  0  0  0  0  0  0  0  0  0  0  0
   -4.8450   -2.2210   -0.2366 H   0  0  0  0  0  0  0  0  0  0  0  0
   -2.2970   -3.1650   -1.6081 H   0  0  0  0  0  0  0  0  0  0  0  0
   -3.8798   -2.7429   -2.3033 H   0  0  0  0  0  0  0  0  0  0  0  0
   -2.7973   -1.4416   -1.7284 H   0  0  0  0  0  0  0  0  0  0  0  0
   -3.5110   -1.9772    1.9227 H   0  0  0  0  0  0  0  0  0  0  0  0
   -2.8878    0.2324    0.0478 H   0  0  0  0  0  0  0  0  0  0  0  0
   -2.8490    0.6345    2.4586 H   0  0  0  0  0  0  0  0  0  0  0  0
   -4.5191   -0.0254    2.5354 H   0  0  0  0  0  0  0  0  0  0  0  0
   -4.7076    2.3691    2.4797 H   0  0  0  0  0  0  0  0  0  0  0  0
   -5.2738    1.7112    0.8993 H   0  0  0  0  0  0  0  0  0  0  0  0
   -5.8039    3.8252    0.4199 H   0  0  0  0  0  0  0  0  0  0  0  0
   -6.2066    5.8312   -0.9169 H   0  0  0  0  0  0  0  0  0  0  0  0
   -4.3290    7.0362   -1.9537 H   0  0  0  0  0  0  0  0  0  0  0  0
   -2.0293    6.2816   -1.6436 H   0  0  0  0  0  0  0  0  0  0  0  0
   -0.8294    4.4524    0.8211 H   0  0  0  0  0  0  0  0  0  0  0  0
   -0.4477    4.5625   -2.2264 H   0  0  0  0  0  0  0  0  0  0  0  0
    0.1755    5.7066   -0.9520 H   0  0  0  0  0  0  0  0  0  0  0  0
    1.7396    3.7586   -1.9662 H   0  0  0  0  0  0  0  0  0  0  0  0
    1.7955    4.1659   -0.2041 H   0  0  0  0  0  0  0  0  0  0  0  0
    0.6227    1.7816   -1.6036 H   0  0  0  0  0  0  0  0  0  0  0  0
   -1.5164    2.0795   -0.9735 H   0  0  0  0  0  0  0  0  0  0  0  0
   -0.9936    2.1250    0.7591 H   0  0  0  0  0  0  0  0  0  0  0  0
    1.4870    2.2837    1.2880 H   0  0  0  0  0  0  0  0  0  0  0  0
    2.1692    0.2783   -1.7103 H   0  0  0  0  0  0  0  0  0  0  0  0
    3.0987   -2.0960   -1.6828 H   0  0  0  0  0  0  0  0  0  0  0  0
    3.1640   -1.9830    0.1060 H   0  0  0  0  0  0  0  0  0  0  0  0
    4.5968   -0.2431   -3.1034 H   0  0  0  0  0  0  0  0  0  0  0  0
    6.8147    0.9493   -2.5443 H   0  0  0  0  0  0  0  0  0  0  0  0
    8.2466    1.4358   -0.2535 H   0  0  0  0  0  0  0  0  0  0  0  0
    8.2623    1.0398    2.2127 H   0  0  0  0  0  0  0  0  0  0  0  0
    6.3974   -0.1965    3.2906 H   0  0  0  0  0  0  0  0  0  0  0  0
    4.5137   -1.0776    1.9242 H   0  0  0  0  0  0  0  0  0  0  0  0
   -0.0558   -0.5259   -1.6466 H   0  0  0  0  0  0  0  0  0  0  0  0
    1.1739   -2.6108    1.0016 H   0  0  0  0  0  0  0  0  0  0  0  0
    1.0714   -4.9749    1.3560 H   0  0  0  0  0  0  0  0  0  0  0  0
    2.5263   -5.9076   -0.3582 H   0  0  0  0  0  0  0  0  0  0  0  0
    2.2448   -4.5119   -1.4394 H   0  0  0  0  0  0  0  0  0  0  0  0
    3.0611   -4.2834    0.1551 H   0  0  0  0  0  0  0  0  0  0  0  0
   -0.0211   -5.4219   -1.2419 H   0  0  0  0  0  0  0  0  0  0  0  0
   -0.3146   -3.6306    2.9955 H   0  0  0  0  0  0  0  0  0  0  0  0
   -2.0933   -3.5722    2.7468 H   0  0  0  0  0  0  0  0  0  0  0  0
   -1.1596   -4.8931    2.0252 H   0  0  0  0  0  0  0  0  0  0  0  0
  1  2  1  0
  2  3  1  0
  2  4  1  0
  4  5  1  0
  5  6  1  0
  6  7  1  0
  7  8  1  0
  8  9  1  0
  9 10  2  0
 10 11  1  0
 11 12  2  0
 12 13  1  0
 13 14  2  0
 14 15  1  0
 15 16  1  0
 16 17  1  0
 17 18  1  0
 18 19  1  0
 18 20  1  0
 20 21  1  0
 21 22  2  0
 21 23  1  0
 23 24  1  0
 24 25  1  0
 25 26  2  0
 26 27  1  0
 27 28  1  0
 28 29  2  0
 29 30  1  0
 30 31  2  0
 31 32  1  0
 32 33  2  0
 23 34  1  0
 34 35  1  0
 35 36  2  0
 35 37  1  0
 37 38  1  0
 38 39  1  0
 38 40  1  0
 37 41  1  0
 41 42  1  0
 41 43  1  0
 43 44  2  0
 43  4  1  0
 14  9  1  0
 19 15  1  0
 33 25  1  0
 33 28  1  0
  1 45  1  0
  1 46  1  0
  1 47  1  0
  2 48  1  0
  3 49  1  0
  3 50  1  0
  3 51  1  0
  4 52  1  1
  5 53  1  0
  6 54  1  0
  6 55  1  0
  7 56  1  0
  7 57  1  0
 10 58  1  0
 11 59  1  0
 12 60  1  0
 13 61  1  0
 15 62  1  0
 16 63  1  0
 16 64  1  0
 17 65  1  0
 17 66  1  0
 18 67  1  0
 19 68  1  0
 19 69  1  0
 20 70  1  0
 23 71  1  6
 24 72  1  0
 24 73  1  0
 26 74  1  0
 27 75  1  0
 29 76  1  0
 30 77  1  0
 31 78  1  0
 32 79  1  0
 34 80  1  0
 37 81  1  1
 38 82  1  0
 39 83  1  0
 39 84  1  0
 39 85  1  0
 40 86  1  0
 42 87  1  0
 42 88  1  0
 42 89  1  0
M  END
$$$$
