
     RDKit          3D

 76 78  0  0  0  0  0  0  0  0999 V2000
   -0.0878   -2.4599   -2.3003 C   0  0  0  0  0  0  0  0  0  0  0  0
   -0.8339   -3.2620   -1.2737 C   0  0  0  0  0  0  0  0  0  0  0  0
   -1.6891   -4.0931   -1.6816 O   0  0  0  0  0  0  0  0  0  0  0  0
   -0.5537   -3.1448    0.1429 N   0  0  0  0  0  0  0  0  0  0  0  0
   -0.9812   -4.2296    1.0509 C   0  0  0  0  0  0  0  0  0  0  0  0
   -2.3066   -3.9604    1.8053 C   0  0  0  0  0  0  0  0  0  0  0  0
   -3.5965   -3.9449    0.9442 C   0  0  0  0  0  0  0  0  0  0  0  0
   -3.9529   -2.6083    0.2547 C   0  0  0  0  0  0  0  0  0  0  0  0
   -4.4326   -1.5055    1.2302 C   0  0  0  0  0  0  0  0  0  0  0  0
   -4.3223   -0.0819    0.6206 C   0  0  0  0  0  0  0  0  0  0  0  0
   -3.2406    0.8457    1.2608 C   0  0  0  0  0  0  0  0  0  0  0  0
   -1.8248    0.6254    0.8405 N   0  0  0  0  0  0  0  0  0  0  0  0
   -1.6091    0.6560   -0.6271 C   0  0  0  0  0  0  0  0  0  0  0  0
   -2.0095    1.9997   -1.2660 C   0  0  0  0  0  0  0  0  0  0  0  0
   -1.3275    3.2270   -0.6122 C   0  0  0  0  0  0  0  0  0  0  0  0
   -1.9649    4.5204   -1.1346 C   0  0  0  0  0  0  0  0  0  0  0  0
    0.1854    3.2491   -0.8740 C   0  0  0  0  0  0  0  0  0  0  0  0
   -1.2896   -0.5903    1.4856 C   0  0  0  0  0  0  0  0  0  0  0  0
    0.1316   -0.9442    1.1346 C   0  0  0  0  0  0  0  0  0  0  0  0
    1.1529   -0.0375    1.4493 C   0  0  0  0  0  0  0  0  0  0  0  0
    2.4924   -0.3673    1.2226 C   0  0  0  0  0  0  0  0  0  0  0  0
    3.5309    0.6312    1.5075 C   0  0  0  0  0  0  0  0  0  0  0  0
    3.9329    0.7769    2.6937 O   0  0  0  0  0  0  0  0  0  0  0  0
    3.9526    1.5571    0.4953 N   0  0  0  0  0  0  0  0  0  0  0  0
    3.9458    2.9898    0.7373 C   0  0  0  0  0  0  0  0  0  0  0  0
    4.1418    3.6415   -0.6260 C   0  0  0  0  0  0  0  0  0  0  0  0
    3.8729    2.5448   -1.6539 C   0  0  0  0  0  0  0  0  0  0  0  0
    4.0992    1.2240   -0.9169 C   0  0  0  0  0  0  0  0  0  0  0  0
    5.5099    0.6794   -1.1905 C   0  0  0  0  0  0  0  0  0  0  0  0
    5.7342   -0.4887   -0.4529 O   0  0  0  0  0  0  0  0  0  0  0  0
    2.8207   -1.6296    0.7151 C   0  0  0  0  0  0  0  0  0  0  0  0
    1.8127   -2.5421    0.3954 C   0  0  0  0  0  0  0  0  0  0  0  0
    0.4623   -2.2121    0.5847 C   0  0  0  0  0  0  0  0  0  0  0  0
   -0.6645   -2.4198   -3.2481 H   0  0  0  0  0  0  0  0  0  0  0  0
    0.0788   -1.4237   -1.9548 H   0  0  0  0  0  0  0  0  0  0  0  0
    0.8947   -2.9372   -2.4984 H   0  0  0  0  0  0  0  0  0  0  0  0
   -0.1876   -4.4027    1.8096 H   0  0  0  0  0  0  0  0  0  0  0  0
   -1.0673   -5.1889    0.4963 H   0  0  0  0  0  0  0  0  0  0  0  0
   -2.2262   -3.0872    2.4771 H   0  0  0  0  0  0  0  0  0  0  0  0
   -2.4228   -4.8132    2.5092 H   0  0  0  0  0  0  0  0  0  0  0  0
   -3.5226   -4.7394    0.1717 H   0  0  0  0  0  0  0  0  0  0  0  0
   -4.4526   -4.2252    1.5958 H   0  0  0  0  0  0  0  0  0  0  0  0
   -4.7794   -2.8055   -0.4618 H   0  0  0  0  0  0  0  0  0  0  0  0
   -3.1117   -2.2612   -0.3687 H   0  0  0  0  0  0  0  0  0  0  0  0
   -5.4992   -1.7112    1.4719 H   0  0  0  0  0  0  0  0  0  0  0  0
   -3.9050   -1.5542    2.2035 H   0  0  0  0  0  0  0  0  0  0  0  0
   -5.2981    0.4174    0.8044 H   0  0  0  0  0  0  0  0  0  0  0  0
   -4.2420   -0.1130   -0.4837 H   0  0  0  0  0  0  0  0  0  0  0  0
   -3.3207    0.7820    2.3699 H   0  0  0  0  0  0  0  0  0  0  0  0
   -3.5165    1.8982    1.0396 H   0  0  0  0  0  0  0  0  0  0  0  0
   -2.1384   -0.1779   -1.1312 H   0  0  0  0  0  0  0  0  0  0  0  0
   -0.5355    0.5095   -0.8540 H   0  0  0  0  0  0  0  0  0  0  0  0
   -1.7497    1.9658   -2.3468 H   0  0  0  0  0  0  0  0  0  0  0  0
   -3.1142    2.1066   -1.2187 H   0  0  0  0  0  0  0  0  0  0  0  0
   -1.4870    3.2023    0.4879 H   0  0  0  0  0  0  0  0  0  0  0  0
   -3.0511    4.5351   -0.9033 H   0  0  0  0  0  0  0  0  0  0  0  0
   -1.8309    4.6068   -2.2348 H   0  0  0  0  0  0  0  0  0  0  0  0
   -1.5008    5.4028   -0.6438 H   0  0  0  0  0  0  0  0  0  0  0  0
    0.6372    4.1709   -0.4506 H   0  0  0  0  0  0  0  0  0  0  0  0
    0.6829    2.3863   -0.3862 H   0  0  0  0  0  0  0  0  0  0  0  0
    0.3920    3.2199   -1.9641 H   0  0  0  0  0  0  0  0  0  0  0  0
   -1.3515   -0.4885    2.5915 H   0  0  0  0  0  0  0  0  0  0  0  0
   -1.9057   -1.4203    1.2013 H   0  0  0  0  0  0  0  0  0  0  0  0
    0.9023    0.9321    1.8655 H   0  0  0  0  0  0  0  0  0  0  0  0
    2.9651    3.2926    1.1673 H   0  0  0  0  0  0  0  0  0  0  0  0
    4.7654    3.2683    1.4343 H   0  0  0  0  0  0  0  0  0  0  0  0
    5.1916    3.9943   -0.7253 H   0  0  0  0  0  0  0  0  0  0  0  0
    3.4530    4.5028   -0.7648 H   0  0  0  0  0  0  0  0  0  0  0  0
    2.8126    2.6032   -1.9784 H   0  0  0  0  0  0  0  0  0  0  0  0
    4.5182    2.6645   -2.5509 H   0  0  0  0  0  0  0  0  0  0  0  0
    3.3337    0.4828   -1.2368 H   0  0  0  0  0  0  0  0  0  0  0  0
    5.6117    0.4525   -2.2754 H   0  0  0  0  0  0  0  0  0  0  0  0
    6.2680    1.4481   -0.9126 H   0  0  0  0  0  0  0  0  0  0  0  0
    6.6844   -0.7292   -0.6004 H   0  0  0  0  0  0  0  0  0  0  0  0
    3.8527   -1.9070    0.5561 H   0  0  0  0  0  0  0  0  0  0  0  0
    2.0810   -3.5056   -0.0205 H   0  0  0  0  0  0  0  0  0  0  0  0
  1  2  1  0
  2  3  2  0
  2  4  1  0
  4  5  1  0
  5  6  1  0
  6  7  1  0
  7  8  1  0
  8  9  1  0
  9 10  1  0
 10 11  1  0
 11 12  1  0
 12 13  1  0
 13 14  1  0
 14 15  1  0
 15 16  1  0
 15 17  1  0
 12 18  1  0
 18 19  1  0
 19 20  2  0
 20 21  1  0
 21 22  1  0
 22 23  2  0
 22 24  1  0
 24 25  1  0
 25 26  1  0
 26 27  1  0
 27 28  1  0
 28 29  1  0
 29 30  1  0
 21 31  2  0
 31 32  1  0
 32 33  2  0
 33  4  1  0
 33 19  1  0
 28 24  1  0
  1 34  1  0
  1 35  1  0
  1 36  1  0
  5 37  1  0
  5 38  1  0
  6 39  1  0
  6 40  1  0
  7 41  1  0
  7 42  1  0
  8 43  1  0
  8 44  1  0
  9 45  1  0
  9 46  1  0
 10 47  1  0
 10 48  1  0
 11 49  1  0
 11 50  1  0
 13 51  1  0
 13 52  1  0
 14 53  1  0
 14 54  1  0
 15 55  1  0
 16 56  1  0
 16 57  1  0
 16 58  1  0
 17 59  1  0
 17 60  1  0
 17 61  1  0
 18 62  1  0
 18 63  1  0
 20 64  1  0
 25 65  1  0
 25 66  1  0
 26 67  1  0
 26 68  1  0
 27 69  1  0
 27 70  1  0
 28 71  1  0
 29 72  1  0
 29 73  1  0
 30 74  1  0
 31 75  1  0
 32 76  1  0
M  END
$$$$
