
     RDKit          3D

 81 83  0  0  0  0  0  0  0  0999 V2000
    9.5567   -1.0148    1.5057 C   0  0  0  0  0  0  0  0  0  0  0  0
    8.7012    0.1241    1.5619 O   0  0  0  0  0  0  0  0  0  0  0  0
    7.3022    0.0638    1.6662 C   0  0  0  0  0  0  0  0  0  0  0  0
    6.6027   -1.1595    1.6543 C   0  0  0  0  0  0  0  0  0  0  0  0
    5.2100   -1.1788    1.7548 C   0  0  0  0  0  0  0  0  0  0  0  0
    4.4918    0.0213    1.8668 C   0  0  0  0  0  0  0  0  0  0  0  0
    2.9898    0.0051    2.0107 C   0  0  0  0  0  0  0  0  0  0  0  0
    2.3552    0.9701    1.0829 N   0  0  0  0  0  0  0  0  0  0  0  0
    2.4949    0.6245   -0.3468 C   0  0  0  0  0  0  0  0  0  0  0  0
    1.6252   -0.5718   -0.7478 C   0  0  0  0  0  0  0  0  0  0  0  0
    0.1091   -0.3119   -0.5161 C   0  0  0  0  0  0  0  0  0  0  0  0
   -0.4863    0.5426   -1.7156 C   0  0  0  0  0  0  0  0  0  0  0  0
   -0.6063    2.0850   -1.6121 C   0  0  0  0  0  0  0  0  0  0  0  0
   -2.0646    2.5946   -1.6350 C   0  0  0  0  0  0  0  0  0  0  0  0
   -2.8474    2.1399   -0.4046 C   0  0  0  0  0  0  0  0  0  0  0  0
   -4.2107    2.5123   -0.4957 O   0  0  0  0  0  0  0  0  0  0  0  0
   -5.0357    1.4053   -0.8341 C   0  0  0  0  0  0  0  0  0  0  0  0
   -5.5038    0.5985    0.4035 C   0  0  0  0  0  0  0  0  0  0  0  0
   -6.1060    1.5134    1.4755 C   0  0  0  0  0  0  0  0  0  0  0  0
   -4.4131   -0.1978    0.9798 N   0  0  0  0  0  0  0  0  0  0  0  0
   -4.1903   -1.5575    0.5889 C   0  0  0  0  0  0  0  0  0  0  0  0
   -4.8222   -2.4730    1.1825 O   0  0  0  0  0  0  0  0  0  0  0  0
   -3.1402   -1.8935   -0.4513 C   0  0  0  0  0  0  0  0  0  0  0  0
   -3.4124   -3.2464   -1.1712 C   0  0  0  0  0  0  0  0  0  0  0  0
   -4.3912   -3.1815   -2.3727 C   0  0  0  0  0  0  0  0  0  0  0  0
   -3.8211   -2.3778   -3.5517 C   0  0  0  0  0  0  0  0  0  0  0  0
   -5.7822   -2.6683   -1.9871 C   0  0  0  0  0  0  0  0  0  0  0  0
   -1.8131   -1.9077    0.1759 N   0  0  0  0  0  0  0  0  0  0  0  0
   -0.6164   -1.6618   -0.5842 C   0  0  0  0  0  0  0  0  0  0  0  0
   -0.2066   -2.5535   -1.3781 O   0  0  0  0  0  0  0  0  0  0  0  0
   -0.0717    0.2449    0.9416 C   0  0  0  0  0  0  0  0  0  0  0  0
    0.9605    1.2812    1.4483 C   0  0  0  0  0  0  0  0  0  0  0  0
    5.1872    1.2404    1.8951 C   0  0  0  0  0  0  0  0  0  0  0  0
    6.5910    1.2687    1.7852 C   0  0  0  0  0  0  0  0  0  0  0  0
    7.3146    2.4730    1.7959 O   0  0  0  0  0  0  0  0  0  0  0  0
    6.7263    3.7656    1.9053 C   0  0  0  0  0  0  0  0  0  0  0  0
    9.3231   -1.6280    0.6084 H   0  0  0  0  0  0  0  0  0  0  0  0
   10.6099   -0.6726    1.4354 H   0  0  0  0  0  0  0  0  0  0  0  0
    9.4422   -1.6206    2.4289 H   0  0  0  0  0  0  0  0  0  0  0  0
    7.1288   -2.1037    1.5695 H   0  0  0  0  0  0  0  0  0  0  0  0
    4.6934   -2.1310    1.7491 H   0  0  0  0  0  0  0  0  0  0  0  0
    2.7734    0.2892    3.0634 H   0  0  0  0  0  0  0  0  0  0  0  0
    2.5761   -1.0170    1.8788 H   0  0  0  0  0  0  0  0  0  0  0  0
    3.5561    0.3994   -0.5893 H   0  0  0  0  0  0  0  0  0  0  0  0
    2.2209    1.5058   -0.9658 H   0  0  0  0  0  0  0  0  0  0  0  0
    1.9543   -1.4667   -0.1790 H   0  0  0  0  0  0  0  0  0  0  0  0
    1.8290   -0.8166   -1.8131 H   0  0  0  0  0  0  0  0  0  0  0  0
    0.1099    0.3301   -2.6311 H   0  0  0  0  0  0  0  0  0  0  0  0
   -1.4777    0.1462   -2.0162 H   0  0  0  0  0  0  0  0  0  0  0  0
   -0.0814    2.5064   -0.7551 H   0  0  0  0  0  0  0  0  0  0  0  0
   -0.0994    2.5269   -2.4971 H   0  0  0  0  0  0  0  0  0  0  0  0
   -2.0627    3.7059   -1.6698 H   0  0  0  0  0  0  0  0  0  0  0  0
   -2.5714    2.2303   -2.5544 H   0  0  0  0  0  0  0  0  0  0  0  0
   -2.4155    2.6278    0.4953 H   0  0  0  0  0  0  0  0  0  0  0  0
   -2.7060    1.0527   -0.2915 H   0  0  0  0  0  0  0  0  0  0  0  0
   -5.9416    1.8121   -1.3308 H   0  0  0  0  0  0  0  0  0  0  0  0
   -4.5671    0.7394   -1.5945 H   0  0  0  0  0  0  0  0  0  0  0  0
   -6.3110   -0.0915    0.0709 H   0  0  0  0  0  0  0  0  0  0  0  0
   -6.4867    0.8997    2.3198 H   0  0  0  0  0  0  0  0  0  0  0  0
   -5.3441    2.2208    1.8655 H   0  0  0  0  0  0  0  0  0  0  0  0
   -6.9553    2.0911    1.0531 H   0  0  0  0  0  0  0  0  0  0  0  0
   -3.6861    0.2729    1.5603 H   0  0  0  0  0  0  0  0  0  0  0  0
   -3.1551   -1.0859   -1.2009 H   0  0  0  0  0  0  0  0  0  0  0  0
   -3.7749   -4.0069   -0.4452 H   0  0  0  0  0  0  0  0  0  0  0  0
   -2.4558   -3.6576   -1.5564 H   0  0  0  0  0  0  0  0  0  0  0  0
   -4.5209   -4.2276   -2.7301 H   0  0  0  0  0  0  0  0  0  0  0  0
   -4.4535   -2.5363   -4.4504 H   0  0  0  0  0  0  0  0  0  0  0  0
   -2.7902   -2.7180   -3.7893 H   0  0  0  0  0  0  0  0  0  0  0  0
   -3.8015   -1.2887   -3.3351 H   0  0  0  0  0  0  0  0  0  0  0  0
   -6.4815   -2.7883   -2.8433 H   0  0  0  0  0  0  0  0  0  0  0  0
   -5.7488   -1.5906   -1.7217 H   0  0  0  0  0  0  0  0  0  0  0  0
   -6.1832   -3.2511   -1.1280 H   0  0  0  0  0  0  0  0  0  0  0  0
   -1.7044   -2.3670    1.1098 H   0  0  0  0  0  0  0  0  0  0  0  0
    0.0123   -0.6096    1.6501 H   0  0  0  0  0  0  0  0  0  0  0  0
   -1.0845    0.6476    1.0991 H   0  0  0  0  0  0  0  0  0  0  0  0
    0.7248    2.3065    1.1233 H   0  0  0  0  0  0  0  0  0  0  0  0
    0.8578    1.3536    2.5537 H   0  0  0  0  0  0  0  0  0  0  0  0
    4.6272    2.1610    2.0024 H   0  0  0  0  0  0  0  0  0  0  0  0
    6.0385    3.9442    1.0503 H   0  0  0  0  0  0  0  0  0  0  0  0
    6.1771    3.8550    2.8662 H   0  0  0  0  0  0  0  0  0  0  0  0
    7.5284    4.5320    1.8860 H   0  0  0  0  0  0  0  0  0  0  0  0
  1  2  1  0
  2  3  1  0
  3  4  2  0
  4  5  1  0
  5  6  2  0
  6  7  1  0
  7  8  1  0
  8  9  1  0
  9 10  1  0
 10 11  1  0
 11 12  1  0
 12 13  1  0
 13 14  1  0
 14 15  1  0
 15 16  1  0
 16 17  1  0
 17 18  1  0
 18 19  1  0
 18 20  1  0
 20 21  1  0
 21 22  2  0
 21 23  1  0
 23 24  1  0
 24 25  1  0
 25 26  1  0
 25 27  1  0
 23 28  1  0
 28 29  1  0
 29 30  2  0
 11 31  1  0
 31 32  1  0
  6 33  1  0
 33 34  2  0
 34 35  1  0
 35 36  1  0
 34  3  1  0
 32  8  1  0
 29 11  1  0
  1 37  1  0
  1 38  1  0
  1 39  1  0
  4 40  1  0
  5 41  1  0
  7 42  1  0
  7 43  1  0
  9 44  1  0
  9 45  1  0
 10 46  1  0
 10 47  1  0
 12 48  1  0
 12 49  1  0
 13 50  1  0
 13 51  1  0
 14 52  1  0
 14 53  1  0
 15 54  1  0
 15 55  1  0
 17 56  1  0
 17 57  1  0
 18 58  1  0
 19 59  1  0
 19 60  1  0
 19 61  1  0
 20 62  1  0
 23 63  1  0
 24 64  1  0
 24 65  1  0
 25 66  1  0
 26 67  1  0
 26 68  1  0
 26 69  1  0
 27 70  1  0
 27 71  1  0
 27 72  1  0
 28 73  1  0
 31 74  1  0
 31 75  1  0
 32 76  1  0
 32 77  1  0
 33 78  1  0
 36 79  1  0
 36 80  1  0
 36 81  1  0
M  END
$$$$
