
     RDKit          3D

 91 94  0  0  0  0  0  0  0  0999 V2000
   10.0525   -1.3090   -1.2462 C   0  0  0  0  0  0  0  0  0  0  0  0
    9.2083   -1.6327   -0.1455 O   0  0  0  0  0  0  0  0  0  0  0  0
    8.1012   -0.8793    0.2742 C   0  0  0  0  0  0  0  0  0  0  0  0
    7.7084    0.2702   -0.4337 C   0  0  0  0  0  0  0  0  0  0  0  0
    6.6281    1.0330   -0.0100 C   0  0  0  0  0  0  0  0  0  0  0  0
    5.9134    0.6772    1.1383 C   0  0  0  0  0  0  0  0  0  0  0  0
    4.7489    1.5354    1.5865 C   0  0  0  0  0  0  0  0  0  0  0  0
    3.3916    0.8714    1.2980 C   0  0  0  0  0  0  0  0  0  0  0  0
    2.9310    1.0949   -0.1264 C   0  0  0  0  0  0  0  0  0  0  0  0
    3.7143    0.7508   -1.0525 O   0  0  0  0  0  0  0  0  0  0  0  0
    1.6275    1.6423   -0.4630 N   0  0  0  0  0  0  0  0  0  0  0  0
    0.6850    2.1045    0.5781 C   0  0  0  0  0  0  0  0  0  0  0  0
   -0.0027    0.9225    1.2904 C   0  0  0  0  0  0  0  0  0  0  0  0
   -1.1653    0.3346    0.4735 C   0  0  0  0  0  0  0  0  0  0  0  0
   -2.5256    0.9652    0.8314 C   0  0  0  0  0  0  0  0  0  0  0  0
   -3.6641    0.7226   -0.2158 C   0  0  0  0  0  0  0  0  0  0  0  0
   -3.9497   -0.8066   -0.3974 C   0  0  0  0  0  0  0  0  0  0  0  0
   -4.9434   -1.3131    0.6529 C   0  0  0  0  0  0  0  0  0  0  0  0
   -6.2807   -0.6918    0.4820 N   0  0  0  0  0  0  0  0  0  0  0  0
   -7.0470   -0.7605    1.7428 C   0  0  0  0  0  0  0  0  0  0  0  0
   -8.5247   -0.6535    1.4712 C   0  0  0  0  0  0  0  0  0  0  0  0
   -9.2633    0.4380    1.9507 C   0  0  0  0  0  0  0  0  0  0  0  0
  -10.6316    0.5149    1.6781 C   0  0  0  0  0  0  0  0  0  0  0  0
  -11.2400   -0.4621    0.9548 N   0  0  0  0  0  0  0  0  0  0  0  0
  -10.5490   -1.5318    0.4792 C   0  0  0  0  0  0  0  0  0  0  0  0
   -9.1788   -1.6479    0.7286 C   0  0  0  0  0  0  0  0  0  0  0  0
   -6.2376    0.6858   -0.0788 C   0  0  0  0  0  0  0  0  0  0  0  0
   -4.9553    1.4387    0.3073 C   0  0  0  0  0  0  0  0  0  0  0  0
   -3.2576    1.3565   -1.5437 C   0  0  0  0  0  0  0  0  0  0  0  0
   -2.9555    2.5805   -1.5772 O   0  0  0  0  0  0  0  0  0  0  0  0
   -3.2464    0.6221   -2.7376 O   0  0  0  0  0  0  0  0  0  0  0  0
   -2.0507    0.0699   -3.2897 C   0  0  0  0  0  0  0  0  0  0  0  0
   -1.1510    1.1663   -3.9019 C   0  0  0  0  0  0  0  0  0  0  0  0
   -1.6477    1.4794   -5.1778 O   0  0  0  0  0  0  0  0  0  0  0  0
    0.3507    0.7639   -4.0122 C   0  0  0  0  0  0  0  0  0  0  0  0
    0.5000   -0.3787   -4.8188 O   0  0  0  0  0  0  0  0  0  0  0  0
    1.0929    0.5748   -2.6608 C   0  0  0  0  0  0  0  0  0  0  0  0
    1.3024    1.8933   -1.8820 C   0  0  0  0  0  0  0  0  0  0  0  0
    6.2805   -0.4726    1.8703 C   0  0  0  0  0  0  0  0  0  0  0  0
    5.5181   -0.7654    3.0197 O   0  0  0  0  0  0  0  0  0  0  0  0
    5.7081   -1.8438    3.9299 C   0  0  0  0  0  0  0  0  0  0  0  0
    7.3715   -1.2728    1.4286 C   0  0  0  0  0  0  0  0  0  0  0  0
    7.6864   -2.4338    2.1590 O   0  0  0  0  0  0  0  0  0  0  0  0
    8.6276   -3.4430    1.8113 C   0  0  0  0  0  0  0  0  0  0  0  0
   10.5238   -0.3150   -1.0894 H   0  0  0  0  0  0  0  0  0  0  0  0
    9.4644   -1.3113   -2.1882 H   0  0  0  0  0  0  0  0  0  0  0  0
   10.8543   -2.0722   -1.3253 H   0  0  0  0  0  0  0  0  0  0  0  0
    8.2390    0.5879   -1.3214 H   0  0  0  0  0  0  0  0  0  0  0  0
    6.3526    1.9142   -0.5778 H   0  0  0  0  0  0  0  0  0  0  0  0
    4.8393    1.7093    2.6809 H   0  0  0  0  0  0  0  0  0  0  0  0
    4.7848    2.5437    1.1158 H   0  0  0  0  0  0  0  0  0  0  0  0
    3.4422   -0.2229    1.4807 H   0  0  0  0  0  0  0  0  0  0  0  0
    2.6746    1.2712    2.0351 H   0  0  0  0  0  0  0  0  0  0  0  0
    1.2209    2.7411    1.3118 H   0  0  0  0  0  0  0  0  0  0  0  0
   -0.0977    2.7704    0.1543 H   0  0  0  0  0  0  0  0  0  0  0  0
    0.7355    0.1162    1.4781 H   0  0  0  0  0  0  0  0  0  0  0  0
   -0.3689    1.2555    2.2870 H   0  0  0  0  0  0  0  0  0  0  0  0
   -1.2019   -0.7568    0.6729 H   0  0  0  0  0  0  0  0  0  0  0  0
   -0.9635    0.4779   -0.5970 H   0  0  0  0  0  0  0  0  0  0  0  0
   -2.8326    0.5693    1.8239 H   0  0  0  0  0  0  0  0  0  0  0  0
   -2.3899    2.0628    0.9576 H   0  0  0  0  0  0  0  0  0  0  0  0
   -3.0259   -1.4151   -0.3631 H   0  0  0  0  0  0  0  0  0  0  0  0
   -4.4108   -1.0113   -1.3876 H   0  0  0  0  0  0  0  0  0  0  0  0
   -5.0466   -2.4141    0.5445 H   0  0  0  0  0  0  0  0  0  0  0  0
   -4.5303   -1.1146    1.6672 H   0  0  0  0  0  0  0  0  0  0  0  0
   -6.7060    0.0301    2.4499 H   0  0  0  0  0  0  0  0  0  0  0  0
   -6.8777   -1.7393    2.2474 H   0  0  0  0  0  0  0  0  0  0  0  0
   -8.7899    1.2205    2.5293 H   0  0  0  0  0  0  0  0  0  0  0  0
  -11.2100    1.3528    2.0420 H   0  0  0  0  0  0  0  0  0  0  0  0
  -11.0623   -2.2935   -0.0938 H   0  0  0  0  0  0  0  0  0  0  0  0
   -8.6331   -2.5028    0.3489 H   0  0  0  0  0  0  0  0  0  0  0  0
   -6.2951    0.6200   -1.1868 H   0  0  0  0  0  0  0  0  0  0  0  0
   -7.1183    1.2878    0.2351 H   0  0  0  0  0  0  0  0  0  0  0  0
   -5.0205    2.4854   -0.0632 H   0  0  0  0  0  0  0  0  0  0  0  0
   -4.9447    1.5130    1.4170 H   0  0  0  0  0  0  0  0  0  0  0  0
   -1.5352   -0.5213   -2.5128 H   0  0  0  0  0  0  0  0  0  0  0  0
   -2.3329   -0.6536   -4.0844 H   0  0  0  0  0  0  0  0  0  0  0  0
   -1.2270    2.0745   -3.2757 H   0  0  0  0  0  0  0  0  0  0  0  0
   -1.2506    2.3502   -5.4411 H   0  0  0  0  0  0  0  0  0  0  0  0
    0.8710    1.5928   -4.5400 H   0  0  0  0  0  0  0  0  0  0  0  0
    0.1423   -1.1538   -4.3182 H   0  0  0  0  0  0  0  0  0  0  0  0
    0.5876   -0.1811   -2.0330 H   0  0  0  0  0  0  0  0  0  0  0  0
    2.0940    0.1484   -2.8869 H   0  0  0  0  0  0  0  0  0  0  0  0
    0.4059    2.5327   -1.9565 H   0  0  0  0  0  0  0  0  0  0  0  0
    2.1235    2.4731   -2.3559 H   0  0  0  0  0  0  0  0  0  0  0  0
    4.9483   -1.7665    4.7343 H   0  0  0  0  0  0  0  0  0  0  0  0
    6.7139   -1.7819    4.3991 H   0  0  0  0  0  0  0  0  0  0  0  0
    5.5621   -2.8154    3.4143 H   0  0  0  0  0  0  0  0  0  0  0  0
    9.6626   -3.0388    1.8492 H   0  0  0  0  0  0  0  0  0  0  0  0
    8.5540   -4.2667    2.5498 H   0  0  0  0  0  0  0  0  0  0  0  0
    8.3939   -3.8567    0.8062 H   0  0  0  0  0  0  0  0  0  0  0  0
  1  2  1  0
  2  3  1  0
  3  4  2  0
  4  5  1  0
  5  6  2  0
  6  7  1  0
  7  8  1  0
  8  9  1  0
  9 10  2  0
  9 11  1  0
 11 12  1  0
 12 13  1  0
 13 14  1  0
 14 15  1  0
 15 16  1  0
 16 17  1  0
 17 18  1  0
 18 19  1  0
 19 20  1  0
 20 21  1  0
 21 22  2  0
 22 23  1  0
 23 24  2  0
 24 25  1  0
 25 26  2  0
 19 27  1  0
 27 28  1  0
 16 29  1  0
 29 30  2  0
 29 31  1  0
 31 32  1  0
 32 33  1  0
 33 34  1  0
 33 35  1  0
 35 36  1  0
 35 37  1  0
 37 38  1  0
  6 39  1  0
 39 40  1  0
 40 41  1  0
 39 42  2  0
 42 43  1  0
 43 44  1  0
 42  3  1  0
 38 11  1  0
 28 16  1  0
 26 21  1  0
  1 45  1  0
  1 46  1  0
  1 47  1  0
  4 48  1  0
  5 49  1  0
  7 50  1  0
  7 51  1  0
  8 52  1  0
  8 53  1  0
 12 54  1  0
 12 55  1  0
 13 56  1  0
 13 57  1  0
 14 58  1  0
 14 59  1  0
 15 60  1  0
 15 61  1  0
 17 62  1  0
 17 63  1  0
 18 64  1  0
 18 65  1  0
 20 66  1  0
 20 67  1  0
 22 68  1  0
 23 69  1  0
 25 70  1  0
 26 71  1  0
 27 72  1  0
 27 73  1  0
 28 74  1  0
 28 75  1  0
 32 76  1  0
 32 77  1  0
 33 78  1  0
 34 79  1  0
 35 80  1  0
 36 81  1  0
 37 82  1  0
 37 83  1  0
 38 84  1  0
 38 85  1  0
 41 86  1  0
 41 87  1  0
 41 88  1  0
 44 89  1  0
 44 90  1  0
 44 91  1  0
M  END
$$$$
