
     RDKit          3D

 72 74  0  0  0  0  0  0  0  0999 V2000
    0.2767   -3.0387   -3.1468 C   0  0  0  0  0  0  0  0  0  0  0  0
   -0.4275   -3.8066   -2.0655 C   0  0  0  0  0  0  0  0  0  0  0  0
   -1.0758   -4.8364   -2.3903 O   0  0  0  0  0  0  0  0  0  0  0  0
   -0.4016   -3.3669   -0.6882 N   0  0  0  0  0  0  0  0  0  0  0  0
   -0.8873   -4.2465    0.3880 C   0  0  0  0  0  0  0  0  0  0  0  0
   -2.4057   -4.5048    0.2668 C   0  0  0  0  0  0  0  0  0  0  0  0
   -3.1682   -4.3533    1.6031 C   0  0  0  0  0  0  0  0  0  0  0  0
   -3.8354   -2.9761    1.7610 C   0  0  0  0  0  0  0  0  0  0  0  0
   -2.8342   -1.8538    2.0870 C   0  0  0  0  0  0  0  0  0  0  0  0
   -3.4473   -0.4567    1.9134 C   0  0  0  0  0  0  0  0  0  0  0  0
   -3.5493   -0.0066    0.4441 C   0  0  0  0  0  0  0  0  0  0  0  0
   -2.2170    0.4069   -0.0753 N   0  0  0  0  0  0  0  0  0  0  0  0
   -2.2888    1.7078   -0.7841 C   0  0  0  0  0  0  0  0  0  0  0  0
   -2.2635    2.8631    0.2350 C   0  0  0  0  0  0  0  0  0  0  0  0
   -2.0432    4.2661   -0.3796 C   0  0  0  0  0  0  0  0  0  0  0  0
   -0.6091    4.4593   -0.8962 C   0  0  0  0  0  0  0  0  0  0  0  0
   -3.0722    4.5986   -1.4708 C   0  0  0  0  0  0  0  0  0  0  0  0
   -1.5599   -0.6399   -0.9064 C   0  0  0  0  0  0  0  0  0  0  0  0
   -0.1393   -0.8984   -0.4302 C   0  0  0  0  0  0  0  0  0  0  0  0
    0.7178    0.1866   -0.1607 C   0  0  0  0  0  0  0  0  0  0  0  0
    2.0524   -0.0153    0.2316 C   0  0  0  0  0  0  0  0  0  0  0  0
    2.9571    1.1443    0.4293 C   0  0  0  0  0  0  0  0  0  0  0  0
    2.6135    2.2846    0.0158 O   0  0  0  0  0  0  0  0  0  0  0  0
    4.2238    0.9845    1.0869 N   0  0  0  0  0  0  0  0  0  0  0  0
    5.3977    1.7333    0.7303 C   0  0  0  0  0  0  0  0  0  0  0  0
    5.5736    2.2385   -0.5719 C   0  0  0  0  0  0  0  0  0  0  0  0
    6.7353    2.9395   -0.9058 C   0  0  0  0  0  0  0  0  0  0  0  0
    7.7354    3.1348    0.0496 C   0  0  0  0  0  0  0  0  0  0  0  0
    7.5771    2.6237    1.3424 C   0  0  0  0  0  0  0  0  0  0  0  0
    8.8378    2.8614    2.5380 Cl  0  0  0  0  0  0  0  0  0  0  0  0
    6.4158    1.9193    1.6794 C   0  0  0  0  0  0  0  0  0  0  0  0
    2.5301   -1.3255    0.3701 C   0  0  0  0  0  0  0  0  0  0  0  0
    1.7015   -2.4099    0.0964 C   0  0  0  0  0  0  0  0  0  0  0  0
    0.3793   -2.2140   -0.3243 C   0  0  0  0  0  0  0  0  0  0  0  0
   -0.2664   -2.0923   -3.3470 H   0  0  0  0  0  0  0  0  0  0  0  0
    0.3215   -3.6330   -4.0830 H   0  0  0  0  0  0  0  0  0  0  0  0
    1.3164   -2.8071   -2.8362 H   0  0  0  0  0  0  0  0  0  0  0  0
   -0.3352   -5.2123    0.3512 H   0  0  0  0  0  0  0  0  0  0  0  0
   -0.6411   -3.8022    1.3778 H   0  0  0  0  0  0  0  0  0  0  0  0
   -2.5453   -5.5465   -0.0989 H   0  0  0  0  0  0  0  0  0  0  0  0
   -2.8601   -3.8509   -0.5073 H   0  0  0  0  0  0  0  0  0  0  0  0
   -2.5203   -4.5797    2.4793 H   0  0  0  0  0  0  0  0  0  0  0  0
   -3.9830   -5.1118    1.6143 H   0  0  0  0  0  0  0  0  0  0  0  0
   -4.4130   -2.7459    0.8416 H   0  0  0  0  0  0  0  0  0  0  0  0
   -4.5708   -3.0358    2.5934 H   0  0  0  0  0  0  0  0  0  0  0  0
   -1.9221   -1.9315    1.4686 H   0  0  0  0  0  0  0  0  0  0  0  0
   -2.5076   -1.9727    3.1422 H   0  0  0  0  0  0  0  0  0  0  0  0
   -4.4580   -0.4391    2.3779 H   0  0  0  0  0  0  0  0  0  0  0  0
   -2.8232    0.2800    2.4662 H   0  0  0  0  0  0  0  0  0  0  0  0
   -4.0318   -0.7801   -0.1916 H   0  0  0  0  0  0  0  0  0  0  0  0
   -4.2733    0.8400    0.4277 H   0  0  0  0  0  0  0  0  0  0  0  0
   -3.2046    1.7611   -1.4174 H   0  0  0  0  0  0  0  0  0  0  0  0
   -1.4254    1.8311   -1.4719 H   0  0  0  0  0  0  0  0  0  0  0  0
   -1.4613    2.6688    0.9809 H   0  0  0  0  0  0  0  0  0  0  0  0
   -3.2217    2.8759    0.7972 H   0  0  0  0  0  0  0  0  0  0  0  0
   -2.1885    5.0005    0.4457 H   0  0  0  0  0  0  0  0  0  0  0  0
   -0.4146    3.8500   -1.8027 H   0  0  0  0  0  0  0  0  0  0  0  0
   -0.4442    5.5262   -1.1562 H   0  0  0  0  0  0  0  0  0  0  0  0
    0.1243    4.1809   -0.1093 H   0  0  0  0  0  0  0  0  0  0  0  0
   -2.8971    3.9919   -2.3863 H   0  0  0  0  0  0  0  0  0  0  0  0
   -2.9994    5.6740   -1.7446 H   0  0  0  0  0  0  0  0  0  0  0  0
   -4.1042    4.4052   -1.1008 H   0  0  0  0  0  0  0  0  0  0  0  0
   -2.1321   -1.5885   -0.8845 H   0  0  0  0  0  0  0  0  0  0  0  0
   -1.5297   -0.3595   -1.9826 H   0  0  0  0  0  0  0  0  0  0  0  0
    0.3571    1.1983   -0.2623 H   0  0  0  0  0  0  0  0  0  0  0  0
    4.2739    0.3367    1.9039 H   0  0  0  0  0  0  0  0  0  0  0  0
    4.8256    2.0744   -1.3376 H   0  0  0  0  0  0  0  0  0  0  0  0
    6.8641    3.3232   -1.9094 H   0  0  0  0  0  0  0  0  0  0  0  0
    8.6353    3.6744   -0.2174 H   0  0  0  0  0  0  0  0  0  0  0  0
    6.3000    1.5244    2.6823 H   0  0  0  0  0  0  0  0  0  0  0  0
    3.5575   -1.5190    0.6493 H   0  0  0  0  0  0  0  0  0  0  0  0
    2.0990   -3.4123    0.1754 H   0  0  0  0  0  0  0  0  0  0  0  0
  1  2  1  0
  2  3  2  0
  2  4  1  0
  4  5  1  0
  5  6  1  0
  6  7  1  0
  7  8  1  0
  8  9  1  0
  9 10  1  0
 10 11  1  0
 11 12  1  0
 12 13  1  0
 13 14  1  0
 14 15  1  0
 15 16  1  0
 15 17  1  0
 12 18  1  0
 18 19  1  0
 19 20  2  0
 20 21  1  0
 21 22  1  0
 22 23  2  0
 22 24  1  0
 24 25  1  0
 25 26  2  0
 26 27  1  0
 27 28  2  0
 28 29  1  0
 29 30  1  0
 29 31  2  0
 21 32  2  0
 32 33  1  0
 33 34  2  0
 34  4  1  0
 34 19  1  0
 31 25  1  0
  1 35  1  0
  1 36  1  0
  1 37  1  0
  5 38  1  0
  5 39  1  0
  6 40  1  0
  6 41  1  0
  7 42  1  0
  7 43  1  0
  8 44  1  0
  8 45  1  0
  9 46  1  0
  9 47  1  0
 10 48  1  0
 10 49  1  0
 11 50  1  0
 11 51  1  0
 13 52  1  0
 13 53  1  0
 14 54  1  0
 14 55  1  0
 15 56  1  0
 16 57  1  0
 16 58  1  0
 16 59  1  0
 17 60  1  0
 17 61  1  0
 17 62  1  0
 18 63  1  0
 18 64  1  0
 20 65  1  0
 24 66  1  0
 26 67  1  0
 27 68  1  0
 28 69  1  0
 31 70  1  0
 32 71  1  0
 33 72  1  0
M  END
$$$$
