
     RDKit          3D

 66 68  0  0  0  0  0  0  0  0999 V2000
   -1.6857    2.7543   -3.1448 C   0  0  0  0  0  0  0  0  0  0  0  0
   -0.8964    1.6364   -2.5299 C   0  0  0  0  0  0  0  0  0  0  0  0
   -0.5676    0.6696   -3.2709 O   0  0  0  0  0  0  0  0  0  0  0  0
   -0.5314    1.6201   -1.1264 N   0  0  0  0  0  0  0  0  0  0  0  0
   -1.0080    2.6525   -0.1897 C   0  0  0  0  0  0  0  0  0  0  0  0
   -2.5435    2.6184   -0.0732 C   0  0  0  0  0  0  0  0  0  0  0  0
   -3.0388    2.7408    1.3770 C   0  0  0  0  0  0  0  0  0  0  0  0
   -4.4928    2.2628    1.5638 C   0  0  0  0  0  0  0  0  0  0  0  0
   -4.7705    0.7987    1.1551 C   0  0  0  0  0  0  0  0  0  0  0  0
   -3.9186   -0.2453    1.9121 C   0  0  0  0  0  0  0  0  0  0  0  0
   -3.3019   -1.3102    0.9832 C   0  0  0  0  0  0  0  0  0  0  0  0
   -2.1853   -0.7951    0.1343 N   0  0  0  0  0  0  0  0  0  0  0  0
   -1.9343   -1.6739   -1.0496 C   0  0  0  0  0  0  0  0  0  0  0  0
   -3.0401   -1.5090   -2.1034 C   0  0  0  0  0  0  0  0  0  0  0  0
   -1.7216   -3.1564   -0.6894 C   0  0  0  0  0  0  0  0  0  0  0  0
   -0.9728   -0.5495    0.9686 C   0  0  0  0  0  0  0  0  0  0  0  0
    0.3336   -0.3187    0.2146 C   0  0  0  0  0  0  0  0  0  0  0  0
    1.4120   -1.1813    0.4978 C   0  0  0  0  0  0  0  0  0  0  0  0
    2.6670   -1.0005   -0.0988 C   0  0  0  0  0  0  0  0  0  0  0  0
    3.7720   -1.9315    0.2103 C   0  0  0  0  0  0  0  0  0  0  0  0
    3.5287   -3.1679    0.2653 O   0  0  0  0  0  0  0  0  0  0  0  0
    5.1076   -1.4605    0.4676 N   0  0  0  0  0  0  0  0  0  0  0  0
    6.2511   -2.3547    0.5312 C   0  0  0  0  0  0  0  0  0  0  0  0
    7.4362   -1.4781    0.9109 C   0  0  0  0  0  0  0  0  0  0  0  0
    6.8344   -0.2095    1.5074 C   0  0  0  0  0  0  0  0  0  0  0  0
    5.4193   -0.1240    0.9512 C   0  0  0  0  0  0  0  0  0  0  0  0
    2.8462    0.0401   -1.0144 C   0  0  0  0  0  0  0  0  0  0  0  0
    1.7937    0.9020   -1.3129 C   0  0  0  0  0  0  0  0  0  0  0  0
    0.5336    0.7408   -0.7137 C   0  0  0  0  0  0  0  0  0  0  0  0
   -1.5399    2.7619   -4.2457 H   0  0  0  0  0  0  0  0  0  0  0  0
   -1.3529    3.7369   -2.7546 H   0  0  0  0  0  0  0  0  0  0  0  0
   -2.7657    2.6080   -2.9399 H   0  0  0  0  0  0  0  0  0  0  0  0
   -0.6753    3.6541   -0.5352 H   0  0  0  0  0  0  0  0  0  0  0  0
   -0.5281    2.5091    0.8028 H   0  0  0  0  0  0  0  0  0  0  0  0
   -2.8991    1.6780   -0.5274 H   0  0  0  0  0  0  0  0  0  0  0  0
   -2.9831    3.4484   -0.6671 H   0  0  0  0  0  0  0  0  0  0  0  0
   -2.9808    3.8101    1.6756 H   0  0  0  0  0  0  0  0  0  0  0  0
   -2.3771    2.1982    2.0775 H   0  0  0  0  0  0  0  0  0  0  0  0
   -5.1626    2.9249    0.9729 H   0  0  0  0  0  0  0  0  0  0  0  0
   -4.7686    2.3907    2.6332 H   0  0  0  0  0  0  0  0  0  0  0  0
   -5.8418    0.5940    1.3738 H   0  0  0  0  0  0  0  0  0  0  0  0
   -4.6904    0.6752    0.0561 H   0  0  0  0  0  0  0  0  0  0  0  0
   -3.1459    0.2089    2.5576 H   0  0  0  0  0  0  0  0  0  0  0  0
   -4.5898   -0.7765    2.6226 H   0  0  0  0  0  0  0  0  0  0  0  0
   -2.9545   -2.1605    1.6120 H   0  0  0  0  0  0  0  0  0  0  0  0
   -4.1288   -1.7122    0.3636 H   0  0  0  0  0  0  0  0  0  0  0  0
   -1.0166   -1.3473   -1.5760 H   0  0  0  0  0  0  0  0  0  0  0  0
   -3.9722   -2.0370   -1.8166 H   0  0  0  0  0  0  0  0  0  0  0  0
   -2.7008   -1.9296   -3.0745 H   0  0  0  0  0  0  0  0  0  0  0  0
   -3.2651   -0.4313   -2.2523 H   0  0  0  0  0  0  0  0  0  0  0  0
   -2.6582   -3.6229   -0.3188 H   0  0  0  0  0  0  0  0  0  0  0  0
   -1.3929   -3.7172   -1.5902 H   0  0  0  0  0  0  0  0  0  0  0  0
   -0.9325   -3.2594    0.0837 H   0  0  0  0  0  0  0  0  0  0  0  0
   -1.1327    0.3475    1.5910 H   0  0  0  0  0  0  0  0  0  0  0  0
   -0.8376   -1.3830    1.6937 H   0  0  0  0  0  0  0  0  0  0  0  0
    1.2830   -1.9938    1.2034 H   0  0  0  0  0  0  0  0  0  0  0  0
    6.0802   -3.1287    1.3112 H   0  0  0  0  0  0  0  0  0  0  0  0
    6.4180   -2.8399   -0.4548 H   0  0  0  0  0  0  0  0  0  0  0  0
    8.1051   -1.9899    1.6364 H   0  0  0  0  0  0  0  0  0  0  0  0
    8.0156   -1.2188   -0.0026 H   0  0  0  0  0  0  0  0  0  0  0  0
    7.4328    0.6880    1.2385 H   0  0  0  0  0  0  0  0  0  0  0  0
    6.7945   -0.3045    2.6150 H   0  0  0  0  0  0  0  0  0  0  0  0
    4.7053    0.1816    1.7469 H   0  0  0  0  0  0  0  0  0  0  0  0
    5.3878    0.6016    0.1123 H   0  0  0  0  0  0  0  0  0  0  0  0
    3.7916    0.1686   -1.5255 H   0  0  0  0  0  0  0  0  0  0  0  0
    1.9532    1.6962   -2.0317 H   0  0  0  0  0  0  0  0  0  0  0  0
  1  2  1  0
  2  3  2  0
  2  4  1  0
  4  5  1  0
  5  6  1  0
  6  7  1  0
  7  8  1  0
  8  9  1  0
  9 10  1  0
 10 11  1  0
 11 12  1  0
 12 13  1  0
 13 14  1  0
 13 15  1  0
 12 16  1  0
 16 17  1  0
 17 18  2  0
 18 19  1  0
 19 20  1  0
 20 21  2  0
 20 22  1  0
 22 23  1  0
 23 24  1  0
 24 25  1  0
 25 26  1  0
 19 27  2  0
 27 28  1  0
 28 29  2  0
 29  4  1  0
 29 17  1  0
 26 22  1  0
  1 30  1  0
  1 31  1  0
  1 32  1  0
  5 33  1  0
  5 34  1  0
  6 35  1  0
  6 36  1  0
  7 37  1  0
  7 38  1  0
  8 39  1  0
  8 40  1  0
  9 41  1  0
  9 42  1  0
 10 43  1  0
 10 44  1  0
 11 45  1  0
 11 46  1  0
 13 47  1  0
 14 48  1  0
 14 49  1  0
 14 50  1  0
 15 51  1  0
 15 52  1  0
 15 53  1  0
 16 54  1  0
 16 55  1  0
 18 56  1  0
 23 57  1  0
 23 58  1  0
 24 59  1  0
 24 60  1  0
 25 61  1  0
 25 62  1  0
 26 63  1  0
 26 64  1  0
 27 65  1  0
 28 66  1  0
M  END
$$$$
