
     RDKit          3D

 66 68  0  0  0  0  0  0  0  0999 V2000
   -0.1219    0.0380    4.0185 C   0  0  0  0  0  0  0  0  0  0  0  0
   -0.8989    0.0852    2.7034 C   0  0  0  0  0  0  0  0  0  0  0  0
   -0.4555   -0.9641    1.7052 C   0  0  0  0  0  0  0  0  0  0  0  0
    0.3998   -1.8234    2.0630 O   0  0  0  0  0  0  0  0  0  0  0  0
   -1.0071   -1.0238    0.3605 N   0  0  0  0  0  0  0  0  0  0  0  0
   -2.2823   -0.3324    0.0781 C   0  0  0  0  0  0  0  0  0  0  0  0
   -2.5390    0.0412   -1.4048 C   0  0  0  0  0  0  0  0  0  0  0  0
   -2.1201    1.4577   -1.9247 C   0  0  0  0  0  0  0  0  0  0  0  0
   -1.6116    2.4037   -0.8853 N   0  0  0  0  0  0  0  0  0  0  0  0
   -2.6321    3.4007   -0.4074 C   0  0  0  0  0  0  0  0  0  0  0  0
   -3.2536    4.2834   -1.5184 C   0  0  0  0  0  0  0  0  0  0  0  0
   -3.7529    2.7596    0.4228 C   0  0  0  0  0  0  0  0  0  0  0  0
   -0.3745    3.1302   -1.3155 C   0  0  0  0  0  0  0  0  0  0  0  0
    0.8693    2.2490   -1.5742 C   0  0  0  0  0  0  0  0  0  0  0  0
    1.1818    1.2627   -0.4366 C   0  0  0  0  0  0  0  0  0  0  0  0
    1.7180   -0.0130   -0.9423 N   0  0  0  0  0  0  0  0  0  0  0  0
    3.1233   -0.2730   -0.8384 C   0  0  0  0  0  0  0  0  0  0  0  0
    3.8818    0.0496   -1.7918 O   0  0  0  0  0  0  0  0  0  0  0  0
    3.6774   -0.9807    0.3318 C   0  0  0  0  0  0  0  0  0  0  0  0
    4.6885   -1.9447    0.1562 C   0  0  0  0  0  0  0  0  0  0  0  0
    5.1925   -2.6477    1.2559 C   0  0  0  0  0  0  0  0  0  0  0  0
    6.1508   -3.5918    1.0796 F   0  0  0  0  0  0  0  0  0  0  0  0
    4.7046   -2.3813    2.5390 C   0  0  0  0  0  0  0  0  0  0  0  0
    3.7086   -1.4180    2.7223 C   0  0  0  0  0  0  0  0  0  0  0  0
    3.2484   -1.1503    3.9695 F   0  0  0  0  0  0  0  0  0  0  0  0
    3.1924   -0.7230    1.6239 C   0  0  0  0  0  0  0  0  0  0  0  0
    0.9478   -0.8196   -1.8987 C   0  0  0  0  0  0  0  0  0  0  0  0
    0.4631   -2.1232   -1.3217 C   0  0  0  0  0  0  0  0  0  0  0  0
    0.9776   -3.3224   -1.8442 C   0  0  0  0  0  0  0  0  0  0  0  0
    0.4084   -4.5519   -1.5038 C   0  0  0  0  0  0  0  0  0  0  0  0
    0.9128   -5.6976   -2.0268 F   0  0  0  0  0  0  0  0  0  0  0  0
   -0.6920   -4.5989   -0.6474 C   0  0  0  0  0  0  0  0  0  0  0  0
   -1.2532   -5.7915   -0.3228 F   0  0  0  0  0  0  0  0  0  0  0  0
   -1.1987   -3.4192   -0.0994 C   0  0  0  0  0  0  0  0  0  0  0  0
   -0.6227   -2.1767   -0.4141 C   0  0  0  0  0  0  0  0  0  0  0  0
   -0.5232    0.8064    4.7149 H   0  0  0  0  0  0  0  0  0  0  0  0
   -0.2250   -0.9600    4.4974 H   0  0  0  0  0  0  0  0  0  0  0  0
    0.9529    0.2548    3.8368 H   0  0  0  0  0  0  0  0  0  0  0  0
   -1.9773   -0.0655    2.9300 H   0  0  0  0  0  0  0  0  0  0  0  0
   -0.7648    1.0942    2.2623 H   0  0  0  0  0  0  0  0  0  0  0  0
   -2.3572    0.5760    0.6796 H   0  0  0  0  0  0  0  0  0  0  0  0
   -3.1086   -0.9930    0.4218 H   0  0  0  0  0  0  0  0  0  0  0  0
   -2.1423   -0.7454   -2.0785 H   0  0  0  0  0  0  0  0  0  0  0  0
   -3.6397   -0.0266   -1.5492 H   0  0  0  0  0  0  0  0  0  0  0  0
   -2.9825    1.8806   -2.4729 H   0  0  0  0  0  0  0  0  0  0  0  0
   -1.3857    1.3170   -2.7395 H   0  0  0  0  0  0  0  0  0  0  0  0
   -2.1328    4.1008    0.3007 H   0  0  0  0  0  0  0  0  0  0  0  0
   -3.7414    5.1660   -1.0522 H   0  0  0  0  0  0  0  0  0  0  0  0
   -4.0416    3.7464   -2.0851 H   0  0  0  0  0  0  0  0  0  0  0  0
   -2.4980    4.6717   -2.2270 H   0  0  0  0  0  0  0  0  0  0  0  0
   -4.2580    1.9483   -0.1393 H   0  0  0  0  0  0  0  0  0  0  0  0
   -3.3513    2.3740    1.3819 H   0  0  0  0  0  0  0  0  0  0  0  0
   -4.5181    3.5213    0.6886 H   0  0  0  0  0  0  0  0  0  0  0  0
   -0.0794    3.8660   -0.5343 H   0  0  0  0  0  0  0  0  0  0  0  0
   -0.5601    3.6993   -2.2500 H   0  0  0  0  0  0  0  0  0  0  0  0
    1.7471    2.9218   -1.6941 H   0  0  0  0  0  0  0  0  0  0  0  0
    0.7812    1.7552   -2.5608 H   0  0  0  0  0  0  0  0  0  0  0  0
    1.9019    1.7386    0.2652 H   0  0  0  0  0  0  0  0  0  0  0  0
    0.2757    1.0684    0.1489 H   0  0  0  0  0  0  0  0  0  0  0  0
    5.0704   -2.1681   -0.8337 H   0  0  0  0  0  0  0  0  0  0  0  0
    5.0981   -2.9229    3.3917 H   0  0  0  0  0  0  0  0  0  0  0  0
    2.4262    0.0241    1.7879 H   0  0  0  0  0  0  0  0  0  0  0  0
    1.5550   -0.9873   -2.8161 H   0  0  0  0  0  0  0  0  0  0  0  0
    0.0611   -0.2789   -2.2496 H   0  0  0  0  0  0  0  0  0  0  0  0
    1.8040   -3.3058   -2.5441 H   0  0  0  0  0  0  0  0  0  0  0  0
   -2.0173   -3.4703    0.6073 H   0  0  0  0  0  0  0  0  0  0  0  0
  1  2  1  0
  2  3  1  0
  3  4  2  0
  3  5  1  0
  5  6  1  0
  6  7  1  0
  7  8  1  0
  8  9  1  0
  9 10  1  0
 10 11  1  0
 10 12  1  0
  9 13  1  0
 13 14  1  0
 14 15  1  0
 15 16  1  0
 16 17  1  0
 17 18  2  0
 17 19  1  0
 19 20  2  0
 20 21  1  0
 21 22  1  0
 21 23  2  0
 23 24  1  0
 24 25  1  0
 24 26  2  0
 16 27  1  0
 27 28  1  0
 28 29  2  0
 29 30  1  0
 30 31  1  0
 30 32  2  0
 32 33  1  0
 32 34  1  0
 34 35  2  0
 35  5  1  0
 26 19  1  0
 35 28  1  0
  1 36  1  0
  1 37  1  0
  1 38  1  0
  2 39  1  0
  2 40  1  0
  6 41  1  0
  6 42  1  0
  7 43  1  0
  7 44  1  0
  8 45  1  0
  8 46  1  0
 10 47  1  0
 11 48  1  0
 11 49  1  0
 11 50  1  0
 12 51  1  0
 12 52  1  0
 12 53  1  0
 13 54  1  0
 13 55  1  0
 14 56  1  0
 14 57  1  0
 15 58  1  0
 15 59  1  0
 20 60  1  0
 23 61  1  0
 26 62  1  0
 27 63  1  0
 27 64  1  0
 29 65  1  0
 34 66  1  0
M  END
$$$$
