
     RDKit          3D

 63 65  0  0  0  0  0  0  0  0999 V2000
   -6.0314    2.4819    0.4196 C   0  0  0  0  0  0  0  0  0  0  0  0
   -5.2967    1.3076   -0.2175 C   0  0  0  0  0  0  0  0  0  0  0  0
   -3.8088    1.5323   -0.2077 C   0  0  0  0  0  0  0  0  0  0  0  0
   -3.3547    2.5514   -0.8073 O   0  0  0  0  0  0  0  0  0  0  0  0
   -2.8988    0.6805    0.5224 N   0  0  0  0  0  0  0  0  0  0  0  0
   -3.1325   -0.7775    0.6432 C   0  0  0  0  0  0  0  0  0  0  0  0
   -3.4373   -1.4886   -0.7048 C   0  0  0  0  0  0  0  0  0  0  0  0
   -2.4347   -1.2694   -1.8657 C   0  0  0  0  0  0  0  0  0  0  0  0
   -1.0737   -1.8113   -1.6155 N   0  0  0  0  0  0  0  0  0  0  0  0
   -1.0912   -3.2840   -1.5125 C   0  0  0  0  0  0  0  0  0  0  0  0
   -0.1315   -1.3729   -2.6832 C   0  0  0  0  0  0  0  0  0  0  0  0
    1.3278   -1.2394   -2.1676 C   0  0  0  0  0  0  0  0  0  0  0  0
    1.6867    0.1599   -1.5951 C   0  0  0  0  0  0  0  0  0  0  0  0
    1.3639    0.2516   -0.1576 N   0  0  0  0  0  0  0  0  0  0  0  0
    2.3114   -0.2672    0.8083 C   0  0  0  0  0  0  0  0  0  0  0  0
    1.8998   -0.8762    1.8386 O   0  0  0  0  0  0  0  0  0  0  0  0
    3.7628   -0.0913    0.6265 C   0  0  0  0  0  0  0  0  0  0  0  0
    4.2988    1.1760    0.3857 C   0  0  0  0  0  0  0  0  0  0  0  0
    5.6745    1.3271    0.2321 C   0  0  0  0  0  0  0  0  0  0  0  0
    6.5070    0.2011    0.3001 C   0  0  0  0  0  0  0  0  0  0  0  0
    7.7514    0.3469    0.1468 O   0  0  0  0  0  0  0  0  0  0  0  0
    5.9726   -1.0466    0.5214 N   0  0  0  0  0  0  0  0  0  0  0  0
    6.8497   -2.2308    0.5693 C   0  0  0  0  0  0  0  0  0  0  0  0
    4.6249   -1.2021    0.6862 C   0  0  0  0  0  0  0  0  0  0  0  0
   -0.0670    0.2458    0.1682 C   0  0  0  0  0  0  0  0  0  0  0  0
   -0.5487    1.2129    1.2161 C   0  0  0  0  0  0  0  0  0  0  0  0
    0.3279    1.9819    2.0050 C   0  0  0  0  0  0  0  0  0  0  0  0
   -0.1758    2.8312    2.9956 C   0  0  0  0  0  0  0  0  0  0  0  0
    0.6735    3.5600    3.7552 F   0  0  0  0  0  0  0  0  0  0  0  0
   -1.5502    2.9288    3.2044 C   0  0  0  0  0  0  0  0  0  0  0  0
   -2.0358    3.7483    4.1712 F   0  0  0  0  0  0  0  0  0  0  0  0
   -2.4325    2.2011    2.4077 C   0  0  0  0  0  0  0  0  0  0  0  0
   -1.9513    1.3379    1.4060 C   0  0  0  0  0  0  0  0  0  0  0  0
   -5.7185    2.6136    1.4779 H   0  0  0  0  0  0  0  0  0  0  0  0
   -7.1256    2.2881    0.3962 H   0  0  0  0  0  0  0  0  0  0  0  0
   -5.8259    3.4213   -0.1391 H   0  0  0  0  0  0  0  0  0  0  0  0
   -5.5756    0.3871    0.3383 H   0  0  0  0  0  0  0  0  0  0  0  0
   -5.6372    1.1906   -1.2705 H   0  0  0  0  0  0  0  0  0  0  0  0
   -2.2814   -1.2871    1.1344 H   0  0  0  0  0  0  0  0  0  0  0  0
   -3.9848   -0.9384    1.3344 H   0  0  0  0  0  0  0  0  0  0  0  0
   -4.4249   -1.1455   -1.0696 H   0  0  0  0  0  0  0  0  0  0  0  0
   -3.5671   -2.5765   -0.5167 H   0  0  0  0  0  0  0  0  0  0  0  0
   -2.3928   -0.1758   -2.0629 H   0  0  0  0  0  0  0  0  0  0  0  0
   -2.8574   -1.7317   -2.7849 H   0  0  0  0  0  0  0  0  0  0  0  0
   -0.0593   -3.6988   -1.4955 H   0  0  0  0  0  0  0  0  0  0  0  0
   -1.6389   -3.7411   -2.3649 H   0  0  0  0  0  0  0  0  0  0  0  0
   -1.5549   -3.5990   -0.5549 H   0  0  0  0  0  0  0  0  0  0  0  0
   -0.4368   -0.3993   -3.1305 H   0  0  0  0  0  0  0  0  0  0  0  0
   -0.1456   -2.0891   -3.5382 H   0  0  0  0  0  0  0  0  0  0  0  0
    1.5661   -2.0300   -1.4196 H   0  0  0  0  0  0  0  0  0  0  0  0
    1.9973   -1.4262   -3.0370 H   0  0  0  0  0  0  0  0  0  0  0  0
    1.1628    0.9681   -2.1559 H   0  0  0  0  0  0  0  0  0  0  0  0
    2.7684    0.3412   -1.7632 H   0  0  0  0  0  0  0  0  0  0  0  0
    3.6534    2.0420    0.3131 H   0  0  0  0  0  0  0  0  0  0  0  0
    6.0952    2.3077    0.0393 H   0  0  0  0  0  0  0  0  0  0  0  0
    7.6112   -2.1073    1.3681 H   0  0  0  0  0  0  0  0  0  0  0  0
    7.3636   -2.3516   -0.4097 H   0  0  0  0  0  0  0  0  0  0  0  0
    6.2852   -3.1674    0.7847 H   0  0  0  0  0  0  0  0  0  0  0  0
    4.2012   -2.1887    0.8452 H   0  0  0  0  0  0  0  0  0  0  0  0
   -0.6425    0.5054   -0.7426 H   0  0  0  0  0  0  0  0  0  0  0  0
   -0.3152   -0.7774    0.5069 H   0  0  0  0  0  0  0  0  0  0  0  0
    1.3968    1.9432    1.8549 H   0  0  0  0  0  0  0  0  0  0  0  0
   -3.4967    2.3154    2.5669 H   0  0  0  0  0  0  0  0  0  0  0  0
  1  2  1  0
  2  3  1  0
  3  4  2  0
  3  5  1  0
  5  6  1  0
  6  7  1  0
  7  8  1  0
  8  9  1  0
  9 10  1  0
  9 11  1  0
 11 12  1  0
 12 13  1  0
 13 14  1  0
 14 15  1  0
 15 16  2  0
 15 17  1  0
 17 18  1  0
 18 19  2  0
 19 20  1  0
 20 21  2  0
 20 22  1  0
 22 23  1  0
 22 24  1  0
 14 25  1  0
 25 26  1  0
 26 27  2  0
 27 28  1  0
 28 29  1  0
 28 30  2  0
 30 31  1  0
 30 32  1  0
 32 33  2  0
 33  5  1  0
 24 17  2  0
 33 26  1  0
  1 34  1  0
  1 35  1  0
  1 36  1  0
  2 37  1  0
  2 38  1  0
  6 39  1  0
  6 40  1  0
  7 41  1  0
  7 42  1  0
  8 43  1  0
  8 44  1  0
 10 45  1  0
 10 46  1  0
 10 47  1  0
 11 48  1  0
 11 49  1  0
 12 50  1  0
 12 51  1  0
 13 52  1  0
 13 53  1  0
 18 54  1  0
 19 55  1  0
 23 56  1  0
 23 57  1  0
 23 58  1  0
 24 59  1  0
 25 60  1  0
 25 61  1  0
 27 62  1  0
 32 63  1  0
M  END
$$$$
