
     RDKit          3D

 67 69  0  0  0  0  0  0  0  0999 V2000
   -6.8205    1.2633   -1.0299 C   0  0  0  0  0  0  0  0  0  0  0  0
   -5.5376    2.0435   -1.3814 C   0  0  0  0  0  0  0  0  0  0  0  0
   -5.3020    2.0536   -2.8947 C   0  0  0  0  0  0  0  0  0  0  0  0
   -4.3258    1.5512   -0.6700 N   0  0  0  0  0  0  0  0  0  0  0  0
   -4.1504    0.0852   -0.6894 C   0  0  0  0  0  0  0  0  0  0  0  0
   -2.7076   -0.2694   -0.3004 C   0  0  0  0  0  0  0  0  0  0  0  0
   -2.1698    0.5836    0.8790 C   0  0  0  0  0  0  0  0  0  0  0  0
   -1.3203   -0.2760    1.8055 C   0  0  0  0  0  0  0  0  0  0  0  0
   -1.8360   -0.6733    2.8868 O   0  0  0  0  0  0  0  0  0  0  0  0
    0.0177   -0.7287    1.4593 N   0  0  0  0  0  0  0  0  0  0  0  0
    0.7117   -0.3248    0.2203 C   0  0  0  0  0  0  0  0  0  0  0  0
    0.6885   -1.4424   -0.8338 C   0  0  0  0  0  0  0  0  0  0  0  0
    1.3423   -1.0143   -2.1601 C   0  0  0  0  0  0  0  0  0  0  0  0
    2.8552   -0.7303   -2.0563 C   0  0  0  0  0  0  0  0  0  0  0  0
    3.5870   -1.8617   -1.4677 N   0  0  0  0  0  0  0  0  0  0  0  0
    3.6767   -3.1268   -2.1970 C   0  0  0  0  0  0  0  0  0  0  0  0
    4.1371   -1.7853   -0.1377 C   0  0  0  0  0  0  0  0  0  0  0  0
    4.1472   -2.8140    0.5936 O   0  0  0  0  0  0  0  0  0  0  0  0
    4.7207   -0.5330    0.3839 C   0  0  0  0  0  0  0  0  0  0  0  0
    5.6590    0.1667   -0.3918 C   0  0  0  0  0  0  0  0  0  0  0  0
    6.2297    1.3503    0.0862 C   0  0  0  0  0  0  0  0  0  0  0  0
    7.4209    2.1973   -0.8817 Cl  0  0  0  0  0  0  0  0  0  0  0  0
    5.8709    1.8410    1.3434 C   0  0  0  0  0  0  0  0  0  0  0  0
    4.9269    1.1625    2.1171 C   0  0  0  0  0  0  0  0  0  0  0  0
    4.3443   -0.0276    1.6433 C   0  0  0  0  0  0  0  0  0  0  0  0
    3.3787   -0.7152    2.3889 O   0  0  0  0  0  0  0  0  0  0  0  0
    2.4338   -0.0777    3.2472 C   0  0  0  0  0  0  0  0  0  0  0  0
    1.2969   -1.0484    3.5848 C   0  0  0  0  0  0  0  0  0  0  0  0
    0.6829   -1.7100    2.3389 C   0  0  0  0  0  0  0  0  0  0  0  0
   -3.3226    1.2763    1.6387 C   0  0  0  0  0  0  0  0  0  0  0  0
   -4.2047    2.1230    0.6929 C   0  0  0  0  0  0  0  0  0  0  0  0
   -6.9624    1.2061    0.0688 H   0  0  0  0  0  0  0  0  0  0  0  0
   -7.7046    1.7800   -1.4633 H   0  0  0  0  0  0  0  0  0  0  0  0
   -6.7892    0.2319   -1.4397 H   0  0  0  0  0  0  0  0  0  0  0  0
   -5.7163    3.1071   -1.1021 H   0  0  0  0  0  0  0  0  0  0  0  0
   -6.1436    2.5721   -3.4042 H   0  0  0  0  0  0  0  0  0  0  0  0
   -4.3637    2.6028   -3.1300 H   0  0  0  0  0  0  0  0  0  0  0  0
   -5.2300    1.0227   -3.3015 H   0  0  0  0  0  0  0  0  0  0  0  0
   -4.3422   -0.3292   -1.7010 H   0  0  0  0  0  0  0  0  0  0  0  0
   -4.8594   -0.4035    0.0189 H   0  0  0  0  0  0  0  0  0  0  0  0
   -2.6730   -1.3583   -0.0624 H   0  0  0  0  0  0  0  0  0  0  0  0
   -2.0553   -0.1026   -1.1869 H   0  0  0  0  0  0  0  0  0  0  0  0
   -1.5546    1.4151    0.4746 H   0  0  0  0  0  0  0  0  0  0  0  0
    0.2934    0.5999   -0.2107 H   0  0  0  0  0  0  0  0  0  0  0  0
    1.7598   -0.0834    0.4653 H   0  0  0  0  0  0  0  0  0  0  0  0
    1.1909   -2.3538   -0.4557 H   0  0  0  0  0  0  0  0  0  0  0  0
   -0.3609   -1.7290   -1.0375 H   0  0  0  0  0  0  0  0  0  0  0  0
    0.8340   -0.1007   -2.5444 H   0  0  0  0  0  0  0  0  0  0  0  0
    1.1737   -1.8151   -2.9146 H   0  0  0  0  0  0  0  0  0  0  0  0
    3.0117    0.2004   -1.4704 H   0  0  0  0  0  0  0  0  0  0  0  0
    3.2556   -0.5308   -3.0724 H   0  0  0  0  0  0  0  0  0  0  0  0
    4.7388   -3.4383   -2.2745 H   0  0  0  0  0  0  0  0  0  0  0  0
    3.2701   -3.0271   -3.2232 H   0  0  0  0  0  0  0  0  0  0  0  0
    3.1028   -3.9104   -1.6636 H   0  0  0  0  0  0  0  0  0  0  0  0
    5.9450   -0.2013   -1.3684 H   0  0  0  0  0  0  0  0  0  0  0  0
    6.3208    2.7516    1.7224 H   0  0  0  0  0  0  0  0  0  0  0  0
    4.6619    1.5607    3.0861 H   0  0  0  0  0  0  0  0  0  0  0  0
    2.9328    0.2438    4.1863 H   0  0  0  0  0  0  0  0  0  0  0  0
    2.0080    0.8183    2.7442 H   0  0  0  0  0  0  0  0  0  0  0  0
    0.5111   -0.5053    4.1541 H   0  0  0  0  0  0  0  0  0  0  0  0
    1.7006   -1.8477    4.2458 H   0  0  0  0  0  0  0  0  0  0  0  0
   -0.0472   -2.4843    2.6582 H   0  0  0  0  0  0  0  0  0  0  0  0
    1.4792   -2.2593    1.7950 H   0  0  0  0  0  0  0  0  0  0  0  0
   -2.9123    1.9325    2.4387 H   0  0  0  0  0  0  0  0  0  0  0  0
   -3.9642    0.5096    2.1291 H   0  0  0  0  0  0  0  0  0  0  0  0
   -5.1992    2.2580    1.1706 H   0  0  0  0  0  0  0  0  0  0  0  0
   -3.7429    3.1288    0.6001 H   0  0  0  0  0  0  0  0  0  0  0  0
  1  2  1  0
  2  3  1  0
  2  4  1  0
  4  5  1  0
  5  6  1  0
  6  7  1  0
  7  8  1  0
  8  9  2  0
  8 10  1  0
 10 11  1  0
 11 12  1  0
 12 13  1  0
 13 14  1  0
 14 15  1  0
 15 16  1  0
 15 17  1  0
 17 18  2  0
 17 19  1  0
 19 20  2  0
 20 21  1  0
 21 22  1  0
 21 23  2  0
 23 24  1  0
 24 25  2  0
 25 26  1  0
 26 27  1  0
 27 28  1  0
 28 29  1  0
  7 30  1  0
 30 31  1  0
 31  4  1  0
 29 10  1  0
 25 19  1  0
  1 32  1  0
  1 33  1  0
  1 34  1  0
  2 35  1  0
  3 36  1  0
  3 37  1  0
  3 38  1  0
  5 39  1  0
  5 40  1  0
  6 41  1  0
  6 42  1  0
  7 43  1  0
 11 44  1  0
 11 45  1  0
 12 46  1  0
 12 47  1  0
 13 48  1  0
 13 49  1  0
 14 50  1  0
 14 51  1  0
 16 52  1  0
 16 53  1  0
 16 54  1  0
 20 55  1  0
 23 56  1  0
 24 57  1  0
 27 58  1  0
 27 59  1  0
 28 60  1  0
 28 61  1  0
 29 62  1  0
 29 63  1  0
 30 64  1  0
 30 65  1  0
 31 66  1  0
 31 67  1  0
M  END
$$$$
