
     RDKit          3D

105109  0  0  0  0  0  0  0  0999 V2000
   -2.5094    0.1783   -4.2465 C   0  0  0  0  0  0  0  0  0  0  0  0
   -2.0153    0.1753   -2.8608 N   0  0  0  0  0  0  0  0  0  0  0  0
   -2.5464    1.1767   -1.9062 C   0  0  0  0  0  0  0  0  0  0  0  0
   -4.0063    1.4798   -2.1415 C   0  0  0  0  0  0  0  0  0  0  0  0
   -4.3199    2.3940   -2.9483 O   0  0  0  0  0  0  0  0  0  0  0  0
   -5.0413    0.6770   -1.5614 N   0  0  0  0  0  0  0  0  0  0  0  0
   -5.2327    0.5697   -0.1130 C   0  0  0  0  0  0  0  0  0  0  0  0
   -6.2771    1.6028    0.3846 C   0  0  0  0  0  0  0  0  0  0  0  0
   -7.6205    1.5472   -0.3783 C   0  0  0  0  0  0  0  0  0  0  0  0
   -8.7557    2.2583    0.3693 C   0  0  0  0  0  0  0  0  0  0  0  0
   -8.6000    3.7835    0.4204 C   0  0  0  0  0  0  0  0  0  0  0  0
   -8.7176    4.3510   -0.9185 N   0  0  0  0  0  0  0  0  0  0  0  0
   -5.5563   -0.8626    0.2659 C   0  0  0  0  0  0  0  0  0  0  0  0
   -6.6130   -1.1488    0.8828 O   0  0  0  0  0  0  0  0  0  0  0  0
   -4.6093   -1.9043   -0.0050 N   0  0  0  0  0  0  0  0  0  0  0  0
   -4.2893   -2.3542   -1.3499 C   0  0  0  0  0  0  0  0  0  0  0  0
   -3.6015   -3.7029   -1.1787 C   0  0  0  0  0  0  0  0  0  0  0  0
   -3.1526   -3.7507    0.2782 C   0  0  0  0  0  0  0  0  0  0  0  0
   -4.1025   -2.8059    1.0201 C   0  0  0  0  0  0  0  0  0  0  0  0
   -3.4062   -2.0408    2.1561 C   0  0  0  0  0  0  0  0  0  0  0  0
   -2.5148   -1.0645    1.6262 O   0  0  0  0  0  0  0  0  0  0  0  0
   -1.6769   -0.3152    2.4505 C   0  0  0  0  0  0  0  0  0  0  0  0
   -2.0305    1.0036    2.7592 C   0  0  0  0  0  0  0  0  0  0  0  0
   -1.2225    1.7667    3.5995 C   0  0  0  0  0  0  0  0  0  0  0  0
   -0.0476    1.2204    4.1269 C   0  0  0  0  0  0  0  0  0  0  0  0
    0.3222   -0.0907    3.8138 C   0  0  0  0  0  0  0  0  0  0  0  0
   -0.4889   -0.8669    2.9710 C   0  0  0  0  0  0  0  0  0  0  0  0
   -0.0710   -2.2293    2.6141 C   0  0  0  0  0  0  0  0  0  0  0  0
   -0.1737   -3.1497    3.4671 O   0  0  0  0  0  0  0  0  0  0  0  0
    0.4197   -2.5322    1.3026 N   0  0  0  0  0  0  0  0  0  0  0  0
    1.3265   -1.6417    0.5630 C   0  0  0  0  0  0  0  0  0  0  0  0
    2.7558   -2.1438    0.6819 C   0  0  0  0  0  0  0  0  0  0  0  0
    2.9370   -3.3347    1.0616 O   0  0  0  0  0  0  0  0  0  0  0  0
    3.9138   -1.3246    0.3739 N   0  0  0  0  0  0  0  0  0  0  0  0
    5.2532   -1.9226    0.5248 C   0  0  0  0  0  0  0  0  0  0  0  0
    6.2939   -1.1919   -0.3335 C   0  0  0  0  0  0  0  0  0  0  0  0
    6.3681    0.3213   -0.0149 C   0  0  0  0  0  0  0  0  0  0  0  0
    6.9418    1.1215   -1.2085 C   0  0  0  0  0  0  0  0  0  0  0  0
    8.3704    0.7189   -1.6227 C   0  0  0  0  0  0  0  0  0  0  0  0
    9.3826    1.0508   -0.5560 C   0  0  0  0  0  0  0  0  0  0  0  0
    9.8146    2.3776   -0.3852 C   0  0  0  0  0  0  0  0  0  0  0  0
   10.7582    2.6936    0.5971 C   0  0  0  0  0  0  0  0  0  0  0  0
   11.2681    1.6877    1.4245 C   0  0  0  0  0  0  0  0  0  0  0  0
   10.8401    0.3657    1.2669 C   0  0  0  0  0  0  0  0  0  0  0  0
    9.9027    0.0472    0.2793 C   0  0  0  0  0  0  0  0  0  0  0  0
    4.9926    0.8951    0.4199 C   0  0  0  0  0  0  0  0  0  0  0  0
    3.8096    0.0690   -0.1007 C   0  0  0  0  0  0  0  0  0  0  0  0
    0.8918   -1.5809   -0.9152 C   0  0  0  0  0  0  0  0  0  0  0  0
   -0.3469   -0.6899   -1.0863 C   0  0  0  0  0  0  0  0  0  0  0  0
   -0.9104   -0.6894   -2.4902 C   0  0  0  0  0  0  0  0  0  0  0  0
   -0.4398   -1.5020   -3.3376 O   0  0  0  0  0  0  0  0  0  0  0  0
   -3.5821   -0.1146   -4.2634 H   0  0  0  0  0  0  0  0  0  0  0  0
   -1.9634   -0.5366   -4.8945 H   0  0  0  0  0  0  0  0  0  0  0  0
   -2.3974    1.1917   -4.6867 H   0  0  0  0  0  0  0  0  0  0  0  0
   -2.4369    0.8261   -0.8624 H   0  0  0  0  0  0  0  0  0  0  0  0
   -1.9545    2.1137   -2.0029 H   0  0  0  0  0  0  0  0  0  0  0  0
   -5.8380    0.4105   -2.1816 H   0  0  0  0  0  0  0  0  0  0  0  0
   -4.2808    0.8156    0.4059 H   0  0  0  0  0  0  0  0  0  0  0  0
   -5.8364    2.6163    0.2627 H   0  0  0  0  0  0  0  0  0  0  0  0
   -6.4478    1.4537    1.4755 H   0  0  0  0  0  0  0  0  0  0  0  0
   -7.5004    1.9986   -1.3809 H   0  0  0  0  0  0  0  0  0  0  0  0
   -7.9246    0.4938   -0.5278 H   0  0  0  0  0  0  0  0  0  0  0  0
   -9.7184    2.0115   -0.1373 H   0  0  0  0  0  0  0  0  0  0  0  0
   -8.8296    1.8685    1.4083 H   0  0  0  0  0  0  0  0  0  0  0  0
   -9.3965    4.2056    1.0756 H   0  0  0  0  0  0  0  0  0  0  0  0
   -7.6192    4.0663    0.8616 H   0  0  0  0  0  0  0  0  0  0  0  0
   -9.7197    4.2792   -1.2133 H   0  0  0  0  0  0  0  0  0  0  0  0
   -8.5035    5.3684   -0.8582 H   0  0  0  0  0  0  0  0  0  0  0  0
   -5.2103   -2.4560   -1.9659 H   0  0  0  0  0  0  0  0  0  0  0  0
   -3.5993   -1.6336   -1.8262 H   0  0  0  0  0  0  0  0  0  0  0  0
   -2.7369   -3.8072   -1.8714 H   0  0  0  0  0  0  0  0  0  0  0  0
   -4.3333   -4.5190   -1.3725 H   0  0  0  0  0  0  0  0  0  0  0  0
   -3.2007   -4.7829    0.6863 H   0  0  0  0  0  0  0  0  0  0  0  0
   -2.1026   -3.3888    0.3433 H   0  0  0  0  0  0  0  0  0  0  0  0
   -4.9458   -3.3926    1.4436 H   0  0  0  0  0  0  0  0  0  0  0  0
   -4.1717   -1.5246    2.7816 H   0  0  0  0  0  0  0  0  0  0  0  0
   -2.8532   -2.7592    2.8014 H   0  0  0  0  0  0  0  0  0  0  0  0
   -2.9433    1.4305    2.3615 H   0  0  0  0  0  0  0  0  0  0  0  0
   -1.4993    2.7856    3.8432 H   0  0  0  0  0  0  0  0  0  0  0  0
    0.5846    1.8179    4.7733 H   0  0  0  0  0  0  0  0  0  0  0  0
    1.2414   -0.4964    4.2236 H   0  0  0  0  0  0  0  0  0  0  0  0
    0.3364   -3.5226    0.9813 H   0  0  0  0  0  0  0  0  0  0  0  0
    1.2633   -0.6285    1.0052 H   0  0  0  0  0  0  0  0  0  0  0  0
    5.5494   -1.8922    1.5971 H   0  0  0  0  0  0  0  0  0  0  0  0
    5.2400   -2.9863    0.1964 H   0  0  0  0  0  0  0  0  0  0  0  0
    6.0200   -1.3489   -1.4013 H   0  0  0  0  0  0  0  0  0  0  0  0
    7.2858   -1.6637   -0.1645 H   0  0  0  0  0  0  0  0  0  0  0  0
    7.0638    0.4527    0.8423 H   0  0  0  0  0  0  0  0  0  0  0  0
    6.2701    0.9983   -2.0867 H   0  0  0  0  0  0  0  0  0  0  0  0
    6.9479    2.2043   -0.9558 H   0  0  0  0  0  0  0  0  0  0  0  0
    8.4129   -0.3590   -1.8861 H   0  0  0  0  0  0  0  0  0  0  0  0
    8.6324    1.2730   -2.5537 H   0  0  0  0  0  0  0  0  0  0  0  0
    9.4282    3.1661   -1.0192 H   0  0  0  0  0  0  0  0  0  0  0  0
   11.0996    3.7152    0.7185 H   0  0  0  0  0  0  0  0  0  0  0  0
   12.0019    1.9287    2.1802 H   0  0  0  0  0  0  0  0  0  0  0  0
   11.2416   -0.4149    1.9036 H   0  0  0  0  0  0  0  0  0  0  0  0
    9.5877   -0.9801    0.1602 H   0  0  0  0  0  0  0  0  0  0  0  0
    4.8749    1.9516    0.0929 H   0  0  0  0  0  0  0  0  0  0  0  0
    4.9420    0.9009    1.5318 H   0  0  0  0  0  0  0  0  0  0  0  0
    3.7993    0.0813   -1.2129 H   0  0  0  0  0  0  0  0  0  0  0  0
    2.8877    0.5614    0.2618 H   0  0  0  0  0  0  0  0  0  0  0  0
    0.6775   -2.6089   -1.2767 H   0  0  0  0  0  0  0  0  0  0  0  0
    1.7044   -1.1747   -1.5467 H   0  0  0  0  0  0  0  0  0  0  0  0
   -0.0711    0.3544   -0.8144 H   0  0  0  0  0  0  0  0  0  0  0  0
   -1.1434   -1.0425   -0.4036 H   0  0  0  0  0  0  0  0  0  0  0  0
  1  2  1  0
  2  3  1  0
  3  4  1  0
  4  5  2  0
  4  6  1  0
  6  7  1  0
  7  8  1  0
  8  9  1  0
  9 10  1  0
 10 11  1  0
 11 12  1  0
  7 13  1  0
 13 14  2  0
 13 15  1  0
 15 16  1  0
 16 17  1  0
 17 18  1  0
 18 19  1  0
 19 20  1  0
 20 21  1  0
 21 22  1  0
 22 23  2  0
 23 24  1  0
 24 25  2  0
 25 26  1  0
 26 27  2  0
 27 28  1  0
 28 29  2  0
 28 30  1  0
 30 31  1  0
 31 32  1  0
 32 33  2  0
 32 34  1  0
 34 35  1  0
 35 36  1  0
 36 37  1  0
 37 38  1  0
 38 39  1  0
 39 40  1  0
 40 41  2  0
 41 42  1  0
 42 43  2  0
 43 44  1  0
 44 45  2  0
 37 46  1  0
 46 47  1  0
 31 48  1  0
 48 49  1  0
 49 50  1  0
 50 51  2  0
 50  2  1  0
 19 15  1  0
 27 22  1  0
 47 34  1  0
 45 40  1  0
  1 52  1  0
  1 53  1  0
  1 54  1  0
  3 55  1  0
  3 56  1  0
  6 57  1  0
  7 58  1  0
  8 59  1  0
  8 60  1  0
  9 61  1  0
  9 62  1  0
 10 63  1  0
 10 64  1  0
 11 65  1  0
 11 66  1  0
 12 67  1  0
 12 68  1  0
 16 69  1  0
 16 70  1  0
 17 71  1  0
 17 72  1  0
 18 73  1  0
 18 74  1  0
 19 75  1  0
 20 76  1  0
 20 77  1  0
 23 78  1  0
 24 79  1  0
 25 80  1  0
 26 81  1  0
 30 82  1  0
 31 83  1  0
 35 84  1  0
 35 85  1  0
 36 86  1  0
 36 87  1  0
 37 88  1  0
 38 89  1  0
 38 90  1  0
 39 91  1  0
 39 92  1  0
 41 93  1  0
 42 94  1  0
 43 95  1  0
 44 96  1  0
 45 97  1  0
 46 98  1  0
 46 99  1  0
 47100  1  0
 47101  1  0
 48102  1  0
 48103  1  0
 49104  1  0
 49105  1  0
M  END
$$$$
