
     RDKit          3D

 66 68  0  0  0  0  0  0  0  0999 V2000
   -3.3178    4.3797    1.5453 C   0  0  0  0  0  0  0  0  0  0  0  0
   -3.9778    3.1360    1.4544 O   0  0  0  0  0  0  0  0  0  0  0  0
   -4.2369    2.8155    0.1007 C   0  0  0  0  0  0  0  0  0  0  0  0
   -3.1396    1.9587   -0.4715 C   0  0  0  0  0  0  0  0  0  0  0  0
   -2.8245    2.1288   -1.6805 O   0  0  0  0  0  0  0  0  0  0  0  0
   -2.4178    0.9776    0.3065 N   0  0  0  0  0  0  0  0  0  0  0  0
   -2.9791    0.2360    1.4530 C   0  0  0  0  0  0  0  0  0  0  0  0
   -4.4538   -0.2083    1.3194 C   0  0  0  0  0  0  0  0  0  0  0  0
   -4.8596   -0.8146   -0.0449 C   0  0  0  0  0  0  0  0  0  0  0  0
   -5.0701   -2.3420   -0.0072 C   0  0  0  0  0  0  0  0  0  0  0  0
   -3.7531   -3.1305    0.0222 C   0  0  0  0  0  0  0  0  0  0  0  0
   -3.0803   -3.1919   -1.3652 C   0  0  0  0  0  0  0  0  0  0  0  0
   -1.5523   -3.2921   -1.2719 C   0  0  0  0  0  0  0  0  0  0  0  0
   -0.9732   -2.1542   -0.5403 N   0  0  0  0  0  0  0  0  0  0  0  0
   -0.8980   -0.9438   -1.3707 C   0  0  0  0  0  0  0  0  0  0  0  0
   -0.2391    0.1648   -0.5902 C   0  0  0  0  0  0  0  0  0  0  0  0
    1.1630    0.2698   -0.6204 C   0  0  0  0  0  0  0  0  0  0  0  0
    1.8322    1.2463    0.1405 C   0  0  0  0  0  0  0  0  0  0  0  0
    3.2673    1.3728    0.1225 N   0  0  0  0  0  0  0  0  0  0  0  0
    4.1455    0.4659   -0.6232 C   0  0  0  0  0  0  0  0  0  0  0  0
    5.6372    0.8037   -0.3931 C   0  0  0  0  0  0  0  0  0  0  0  0
    6.0871    0.4970    1.0581 C   0  0  0  0  0  0  0  0  0  0  0  0
    6.7465   -0.8886    1.1815 C   0  0  0  0  0  0  0  0  0  0  0  0
    6.1938   -1.7881    0.2434 O   0  0  0  0  0  0  0  0  0  0  0  0
    6.6218   -1.4592   -1.0695 C   0  0  0  0  0  0  0  0  0  0  0  0
    6.5346    0.0520   -1.3938 C   0  0  0  0  0  0  0  0  0  0  0  0
    1.0803    2.1129    0.9436 C   0  0  0  0  0  0  0  0  0  0  0  0
   -0.3092    2.0087    0.9921 C   0  0  0  0  0  0  0  0  0  0  0  0
   -0.9823    1.0440    0.2302 C   0  0  0  0  0  0  0  0  0  0  0  0
   -2.4218    4.4224    0.8861 H   0  0  0  0  0  0  0  0  0  0  0  0
   -2.9758    4.5238    2.5903 H   0  0  0  0  0  0  0  0  0  0  0  0
   -4.0155    5.2089    1.2968 H   0  0  0  0  0  0  0  0  0  0  0  0
   -5.1949    2.2643    0.0345 H   0  0  0  0  0  0  0  0  0  0  0  0
   -4.3873    3.7188   -0.5385 H   0  0  0  0  0  0  0  0  0  0  0  0
   -2.8803    0.8594    2.3678 H   0  0  0  0  0  0  0  0  0  0  0  0
   -2.3631   -0.6712    1.6295 H   0  0  0  0  0  0  0  0  0  0  0  0
   -4.6612   -0.9330    2.1368 H   0  0  0  0  0  0  0  0  0  0  0  0
   -5.1128    0.6509    1.5524 H   0  0  0  0  0  0  0  0  0  0  0  0
   -4.1479   -0.5409   -0.8452 H   0  0  0  0  0  0  0  0  0  0  0  0
   -5.8306   -0.3597   -0.3396 H   0  0  0  0  0  0  0  0  0  0  0  0
   -5.6596   -2.6510   -0.8983 H   0  0  0  0  0  0  0  0  0  0  0  0
   -5.6801   -2.6121    0.8823 H   0  0  0  0  0  0  0  0  0  0  0  0
   -3.9680   -4.1700    0.3525 H   0  0  0  0  0  0  0  0  0  0  0  0
   -3.0824   -2.6955    0.7893 H   0  0  0  0  0  0  0  0  0  0  0  0
   -3.4615   -4.0860   -1.9052 H   0  0  0  0  0  0  0  0  0  0  0  0
   -3.3520   -2.3217   -1.9953 H   0  0  0  0  0  0  0  0  0  0  0  0
   -1.1186   -3.3722   -2.2938 H   0  0  0  0  0  0  0  0  0  0  0  0
   -1.2992   -4.2341   -0.7367 H   0  0  0  0  0  0  0  0  0  0  0  0
    0.0051   -2.4247   -0.2814 H   0  0  0  0  0  0  0  0  0  0  0  0
   -1.9085   -0.6196   -1.6870 H   0  0  0  0  0  0  0  0  0  0  0  0
   -0.3156   -1.1453   -2.2980 H   0  0  0  0  0  0  0  0  0  0  0  0
    1.7244   -0.4190   -1.2375 H   0  0  0  0  0  0  0  0  0  0  0  0
    3.6970    2.1494    0.6767 H   0  0  0  0  0  0  0  0  0  0  0  0
    3.9429   -0.5813   -0.3108 H   0  0  0  0  0  0  0  0  0  0  0  0
    3.9113    0.5619   -1.7060 H   0  0  0  0  0  0  0  0  0  0  0  0
    5.7671    1.8927   -0.5828 H   0  0  0  0  0  0  0  0  0  0  0  0
    6.8219    1.2651    1.3842 H   0  0  0  0  0  0  0  0  0  0  0  0
    5.2265    0.5578    1.7591 H   0  0  0  0  0  0  0  0  0  0  0  0
    7.8514   -0.8088    1.0548 H   0  0  0  0  0  0  0  0  0  0  0  0
    6.5709   -1.2860    2.2036 H   0  0  0  0  0  0  0  0  0  0  0  0
    7.6599   -1.8251   -1.2305 H   0  0  0  0  0  0  0  0  0  0  0  0
    5.9728   -2.0096   -1.7835 H   0  0  0  0  0  0  0  0  0  0  0  0
    6.1764    0.2028   -2.4357 H   0  0  0  0  0  0  0  0  0  0  0  0
    7.5575    0.4863   -1.3395 H   0  0  0  0  0  0  0  0  0  0  0  0
    1.5733    2.8677    1.5434 H   0  0  0  0  0  0  0  0  0  0  0  0
   -0.8663    2.6776    1.6340 H   0  0  0  0  0  0  0  0  0  0  0  0
  1  2  1  0
  2  3  1  0
  3  4  1  0
  4  5  2  0
  4  6  1  0
  6  7  1  0
  7  8  1  0
  8  9  1  0
  9 10  1  0
 10 11  1  0
 11 12  1  0
 12 13  1  0
 13 14  1  0
 14 15  1  0
 15 16  1  0
 16 17  2  0
 17 18  1  0
 18 19  1  0
 19 20  1  0
 20 21  1  0
 21 22  1  0
 22 23  1  0
 23 24  1  0
 24 25  1  0
 25 26  1  0
 18 27  2  0
 27 28  1  0
 28 29  2  0
 29  6  1  0
 29 16  1  0
 26 21  1  0
  1 30  1  0
  1 31  1  0
  1 32  1  0
  3 33  1  0
  3 34  1  0
  7 35  1  0
  7 36  1  0
  8 37  1  0
  8 38  1  0
  9 39  1  0
  9 40  1  0
 10 41  1  0
 10 42  1  0
 11 43  1  0
 11 44  1  0
 12 45  1  0
 12 46  1  0
 13 47  1  0
 13 48  1  0
 14 49  1  0
 15 50  1  0
 15 51  1  0
 17 52  1  0
 19 53  1  0
 20 54  1  0
 20 55  1  0
 21 56  1  0
 22 57  1  0
 22 58  1  0
 23 59  1  0
 23 60  1  0
 25 61  1  0
 25 62  1  0
 26 63  1  0
 26 64  1  0
 27 65  1  0
 28 66  1  0
M  END
$$$$
