
     RDKit          3D

 83 86  0  0  0  0  0  0  0  0999 V2000
   -0.3815   -0.8424    3.9082 C   0  0  0  0  0  0  0  0  0  0  0  0
   -1.7402   -1.2121    3.3906 C   0  0  0  0  0  0  0  0  0  0  0  0
   -2.7321   -1.1010    4.1608 O   0  0  0  0  0  0  0  0  0  0  0  0
   -1.9266   -1.6745    2.0354 N   0  0  0  0  0  0  0  0  0  0  0  0
   -3.2820   -2.0332    1.5745 C   0  0  0  0  0  0  0  0  0  0  0  0
   -3.2818   -2.8833    0.2839 C   0  0  0  0  0  0  0  0  0  0  0  0
   -4.6761   -3.0140   -0.3516 C   0  0  0  0  0  0  0  0  0  0  0  0
   -5.1550   -1.7282   -1.0517 C   0  0  0  0  0  0  0  0  0  0  0  0
   -4.3623   -1.3899   -2.3360 C   0  0  0  0  0  0  0  0  0  0  0  0
   -4.0108    0.1065   -2.4680 C   0  0  0  0  0  0  0  0  0  0  0  0
   -2.6967    0.5149   -1.7616 C   0  0  0  0  0  0  0  0  0  0  0  0
   -2.7918    0.5528   -0.2797 N   0  0  0  0  0  0  0  0  0  0  0  0
   -3.7463    1.5730    0.2378 C   0  0  0  0  0  0  0  0  0  0  0  0
   -3.4917    3.0144   -0.2654 C   0  0  0  0  0  0  0  0  0  0  0  0
   -4.2232    4.0765    0.5859 C   0  0  0  0  0  0  0  0  0  0  0  0
   -5.7503    3.9411    0.4872 C   0  0  0  0  0  0  0  0  0  0  0  0
   -3.7953    5.4852    0.1530 C   0  0  0  0  0  0  0  0  0  0  0  0
   -1.4571    0.7255    0.3472 C   0  0  0  0  0  0  0  0  0  0  0  0
   -0.6097   -0.5259    0.2608 C   0  0  0  0  0  0  0  0  0  0  0  0
    0.4541   -0.5656   -0.6576 C   0  0  0  0  0  0  0  0  0  0  0  0
    1.3101   -1.6722   -0.7174 C   0  0  0  0  0  0  0  0  0  0  0  0
    2.4215   -1.6832   -1.6860 C   0  0  0  0  0  0  0  0  0  0  0  0
    2.1411   -1.5820   -2.9109 O   0  0  0  0  0  0  0  0  0  0  0  0
    3.8026   -1.7562   -1.2587 N   0  0  0  0  0  0  0  0  0  0  0  0
    4.1459   -1.6771    0.1732 C   0  0  0  0  0  0  0  0  0  0  0  0
    5.6593   -1.5513    0.4001 C   0  0  0  0  0  0  0  0  0  0  0  0
    6.2429   -0.5757   -0.5338 N   0  0  0  0  0  0  0  0  0  0  0  0
    7.3189    0.2843   -0.0956 C   0  0  0  0  0  0  0  0  0  0  0  0
    7.6437    1.4643   -0.7913 C   0  0  0  0  0  0  0  0  0  0  0  0
    8.6876    2.2698   -0.3314 C   0  0  0  0  0  0  0  0  0  0  0  0
    9.4009    1.9022    0.8083 C   0  0  0  0  0  0  0  0  0  0  0  0
    9.0558    0.7289    1.4781 C   0  0  0  0  0  0  0  0  0  0  0  0
    8.0358   -0.0424    1.0175 N   0  0  0  0  0  0  0  0  0  0  0  0
    5.8493   -0.6073   -1.9543 C   0  0  0  0  0  0  0  0  0  0  0  0
    4.8919   -1.7655   -2.2453 C   0  0  0  0  0  0  0  0  0  0  0  0
    1.0862   -2.7667    0.1255 C   0  0  0  0  0  0  0  0  0  0  0  0
    0.0298   -2.7452    1.0361 C   0  0  0  0  0  0  0  0  0  0  0  0
   -0.8193   -1.6334    1.1165 C   0  0  0  0  0  0  0  0  0  0  0  0
    0.0234    0.0098    3.3252 H   0  0  0  0  0  0  0  0  0  0  0  0
    0.3025   -1.7109    3.8185 H   0  0  0  0  0  0  0  0  0  0  0  0
   -0.4381   -0.5453    4.9760 H   0  0  0  0  0  0  0  0  0  0  0  0
   -3.8600   -1.1006    1.4402 H   0  0  0  0  0  0  0  0  0  0  0  0
   -3.7983   -2.6204    2.3649 H   0  0  0  0  0  0  0  0  0  0  0  0
   -2.9110   -3.9002    0.5393 H   0  0  0  0  0  0  0  0  0  0  0  0
   -2.5861   -2.4683   -0.4697 H   0  0  0  0  0  0  0  0  0  0  0  0
   -4.6579   -3.8407   -1.0947 H   0  0  0  0  0  0  0  0  0  0  0  0
   -5.4094   -3.2973    0.4339 H   0  0  0  0  0  0  0  0  0  0  0  0
   -6.2231   -1.8679   -1.3275 H   0  0  0  0  0  0  0  0  0  0  0  0
   -5.1504   -0.8911   -0.3355 H   0  0  0  0  0  0  0  0  0  0  0  0
   -3.4453   -2.0040   -2.4473 H   0  0  0  0  0  0  0  0  0  0  0  0
   -4.9990   -1.6670   -3.2051 H   0  0  0  0  0  0  0  0  0  0  0  0
   -4.8652    0.7456   -2.1673 H   0  0  0  0  0  0  0  0  0  0  0  0
   -3.8618    0.3100   -3.5513 H   0  0  0  0  0  0  0  0  0  0  0  0
   -1.9190   -0.2141   -2.0732 H   0  0  0  0  0  0  0  0  0  0  0  0
   -2.3595    1.4968   -2.1568 H   0  0  0  0  0  0  0  0  0  0  0  0
   -4.7820    1.2861   -0.0216 H   0  0  0  0  0  0  0  0  0  0  0  0
   -3.7273    1.5592    1.3500 H   0  0  0  0  0  0  0  0  0  0  0  0
   -2.4057    3.2365   -0.2305 H   0  0  0  0  0  0  0  0  0  0  0  0
   -3.8221    3.1055   -1.3233 H   0  0  0  0  0  0  0  0  0  0  0  0
   -3.9270    3.9490    1.6511 H   0  0  0  0  0  0  0  0  0  0  0  0
   -6.0796    3.9817   -0.5735 H   0  0  0  0  0  0  0  0  0  0  0  0
   -6.0876    2.9849    0.9380 H   0  0  0  0  0  0  0  0  0  0  0  0
   -6.2446    4.7637    1.0467 H   0  0  0  0  0  0  0  0  0  0  0  0
   -4.0871    5.6779   -0.9014 H   0  0  0  0  0  0  0  0  0  0  0  0
   -4.2750    6.2474    0.8036 H   0  0  0  0  0  0  0  0  0  0  0  0
   -2.6946    5.6015    0.2470 H   0  0  0  0  0  0  0  0  0  0  0  0
   -0.9141    1.5776   -0.1180 H   0  0  0  0  0  0  0  0  0  0  0  0
   -1.5561    0.9819    1.4250 H   0  0  0  0  0  0  0  0  0  0  0  0
    0.6318    0.2773   -1.3153 H   0  0  0  0  0  0  0  0  0  0  0  0
    3.6494   -0.7874    0.6195 H   0  0  0  0  0  0  0  0  0  0  0  0
    3.7863   -2.5857    0.6991 H   0  0  0  0  0  0  0  0  0  0  0  0
    6.1458   -2.5387    0.2448 H   0  0  0  0  0  0  0  0  0  0  0  0
    5.8284   -1.2471    1.4552 H   0  0  0  0  0  0  0  0  0  0  0  0
    7.0945    1.7716   -1.6701 H   0  0  0  0  0  0  0  0  0  0  0  0
    8.9412    3.1806   -0.8577 H   0  0  0  0  0  0  0  0  0  0  0  0
   10.2104    2.5217    1.1709 H   0  0  0  0  0  0  0  0  0  0  0  0
    9.5971    0.4319    2.3655 H   0  0  0  0  0  0  0  0  0  0  0  0
    6.7520   -0.7179   -2.5937 H   0  0  0  0  0  0  0  0  0  0  0  0
    5.3380    0.3444   -2.2154 H   0  0  0  0  0  0  0  0  0  0  0  0
    4.5181   -1.6744   -3.2868 H   0  0  0  0  0  0  0  0  0  0  0  0
    5.4413   -2.7294   -2.1746 H   0  0  0  0  0  0  0  0  0  0  0  0
    1.7192   -3.6438    0.0674 H   0  0  0  0  0  0  0  0  0  0  0  0
   -0.1401   -3.6014    1.6767 H   0  0  0  0  0  0  0  0  0  0  0  0
  1  2  1  0
  2  3  2  0
  2  4  1  0
  4  5  1  0
  5  6  1  0
  6  7  1  0
  7  8  1  0
  8  9  1  0
  9 10  1  0
 10 11  1  0
 11 12  1  0
 12 13  1  0
 13 14  1  0
 14 15  1  0
 15 16  1  0
 15 17  1  0
 12 18  1  0
 18 19  1  0
 19 20  2  0
 20 21  1  0
 21 22  1  0
 22 23  2  0
 22 24  1  0
 24 25  1  0
 25 26  1  0
 26 27  1  0
 27 28  1  0
 28 29  2  0
 29 30  1  0
 30 31  2  0
 31 32  1  0
 32 33  2  0
 27 34  1  0
 34 35  1  0
 21 36  2  0
 36 37  1  0
 37 38  2  0
 38  4  1  0
 38 19  1  0
 35 24  1  0
 33 28  1  0
  1 39  1  0
  1 40  1  0
  1 41  1  0
  5 42  1  0
  5 43  1  0
  6 44  1  0
  6 45  1  0
  7 46  1  0
  7 47  1  0
  8 48  1  0
  8 49  1  0
  9 50  1  0
  9 51  1  0
 10 52  1  0
 10 53  1  0
 11 54  1  0
 11 55  1  0
 13 56  1  0
 13 57  1  0
 14 58  1  0
 14 59  1  0
 15 60  1  0
 16 61  1  0
 16 62  1  0
 16 63  1  0
 17 64  1  0
 17 65  1  0
 17 66  1  0
 18 67  1  0
 18 68  1  0
 20 69  1  0
 25 70  1  0
 25 71  1  0
 26 72  1  0
 26 73  1  0
 29 74  1  0
 30 75  1  0
 31 76  1  0
 32 77  1  0
 34 78  1  0
 34 79  1  0
 35 80  1  0
 35 81  1  0
 36 82  1  0
 37 83  1  0
M  END
$$$$
