
     RDKit          3D

 77 78  0  0  0  0  0  0  0  0999 V2000
   -5.9465    0.7802    0.6482 C   0  0  0  0  0  0  0  0  0  0  0  0
   -5.3994   -0.1044   -0.3057 O   0  0  0  0  0  0  0  0  0  0  0  0
   -3.9962   -0.2270   -0.1337 C   0  0  0  0  0  0  0  0  0  0  0  0
   -3.2668    0.7307   -1.1125 C   0  0  0  0  0  0  0  0  0  0  0  0
   -1.8965    1.0483   -0.6576 N   0  0  0  0  0  0  0  0  0  0  0  0
   -1.7510    2.0721    0.3471 C   0  0  0  0  0  0  0  0  0  0  0  0
   -2.4210    3.4049    0.1988 C   0  0  0  0  0  0  0  0  0  0  0  0
   -1.1835    1.8102    1.4383 O   0  0  0  0  0  0  0  0  0  0  0  0
   -0.7767    0.5232   -1.4827 C   0  0  0  0  0  0  0  0  0  0  0  0
    0.6993    0.5567   -0.9392 C   0  0  0  0  0  0  0  0  0  0  0  0
    1.5277    1.7710   -1.4639 C   0  0  0  0  0  0  0  0  0  0  0  0
    1.1706    3.1612   -0.8762 C   0  0  0  0  0  0  0  0  0  0  0  0
    2.4396    3.9743   -0.5844 C   0  0  0  0  0  0  0  0  0  0  0  0
    0.2672    3.9533   -1.8327 C   0  0  0  0  0  0  0  0  0  0  0  0
    0.8710    0.2502    0.5072 N   0  0  0  0  0  0  0  0  0  0  0  0
    1.9113    0.8500    1.3064 C   0  0  0  0  0  0  0  0  0  0  0  0
    1.5876    1.6119    2.2571 O   0  0  0  0  0  0  0  0  0  0  0  0
    3.3461    0.5717    1.0983 C   0  0  0  0  0  0  0  0  0  0  0  0
    3.8050   -0.3834    0.2831 C   0  0  0  0  0  0  0  0  0  0  0  0
    5.2494   -0.6087    0.0687 C   0  0  0  0  0  0  0  0  0  0  0  0
    5.7087   -0.7305   -1.2532 C   0  0  0  0  0  0  0  0  0  0  0  0
    7.0654   -0.9325   -1.5166 C   0  0  0  0  0  0  0  0  0  0  0  0
    7.9784   -1.0241   -0.4643 C   0  0  0  0  0  0  0  0  0  0  0  0
    9.6813   -1.2783   -0.7983 Cl  0  0  0  0  0  0  0  0  0  0  0  0
    7.5305   -0.9350    0.8562 C   0  0  0  0  0  0  0  0  0  0  0  0
    6.1715   -0.7402    1.1340 C   0  0  0  0  0  0  0  0  0  0  0  0
    5.6665   -0.7702    2.8226 Cl  0  0  0  0  0  0  0  0  0  0  0  0
    0.0845   -0.8153    1.1474 C   0  0  0  0  0  0  0  0  0  0  0  0
    0.6607   -2.2264    0.8965 C   0  0  0  0  0  0  0  0  0  0  0  0
   -0.4177   -3.3270    0.7686 C   0  0  0  0  0  0  0  0  0  0  0  0
   -1.4920   -3.2746    1.8809 C   0  0  0  0  0  0  0  0  0  0  0  0
   -2.5143   -4.2508    1.7490 O   0  0  0  0  0  0  0  0  0  0  0  0
   -3.3702   -4.0526    0.6269 C   0  0  0  0  0  0  0  0  0  0  0  0
   -4.1946   -2.7269    0.6160 C   0  0  0  0  0  0  0  0  0  0  0  0
   -4.3037   -2.1842    1.9071 O   0  0  0  0  0  0  0  0  0  0  0  0
   -3.5892   -1.7021   -0.3900 C   0  0  0  0  0  0  0  0  0  0  0  0
   -3.8809   -2.0916   -1.7118 O   0  0  0  0  0  0  0  0  0  0  0  0
   -5.8476    0.3647    1.6763 H   0  0  0  0  0  0  0  0  0  0  0  0
   -5.4745    1.7859    0.5907 H   0  0  0  0  0  0  0  0  0  0  0  0
   -7.0286    0.8997    0.4406 H   0  0  0  0  0  0  0  0  0  0  0  0
   -3.6674    0.0292    0.9035 H   0  0  0  0  0  0  0  0  0  0  0  0
   -3.8538    1.6656   -1.2217 H   0  0  0  0  0  0  0  0  0  0  0  0
   -3.2498    0.2945   -2.1352 H   0  0  0  0  0  0  0  0  0  0  0  0
   -3.3864    3.3932    0.7439 H   0  0  0  0  0  0  0  0  0  0  0  0
   -1.7738    4.1988    0.6252 H   0  0  0  0  0  0  0  0  0  0  0  0
   -2.6081    3.6377   -0.8694 H   0  0  0  0  0  0  0  0  0  0  0  0
   -1.0008   -0.5449   -1.7045 H   0  0  0  0  0  0  0  0  0  0  0  0
   -0.8089    1.0205   -2.4763 H   0  0  0  0  0  0  0  0  0  0  0  0
    1.1772   -0.2956   -1.4716 H   0  0  0  0  0  0  0  0  0  0  0  0
    2.6013    1.5510   -1.2943 H   0  0  0  0  0  0  0  0  0  0  0  0
    1.4483    1.8002   -2.5726 H   0  0  0  0  0  0  0  0  0  0  0  0
    0.6488    3.0440    0.0907 H   0  0  0  0  0  0  0  0  0  0  0  0
    3.0606    3.4605    0.1801 H   0  0  0  0  0  0  0  0  0  0  0  0
    3.0434    4.1028   -1.5090 H   0  0  0  0  0  0  0  0  0  0  0  0
    2.1718    4.9784   -0.1887 H   0  0  0  0  0  0  0  0  0  0  0  0
   -0.6177    3.3545   -2.1264 H   0  0  0  0  0  0  0  0  0  0  0  0
   -0.0886    4.8837   -1.3406 H   0  0  0  0  0  0  0  0  0  0  0  0
    0.8205    4.2298   -2.7559 H   0  0  0  0  0  0  0  0  0  0  0  0
    4.0492    1.1841    1.6476 H   0  0  0  0  0  0  0  0  0  0  0  0
    3.1193   -0.9552   -0.3226 H   0  0  0  0  0  0  0  0  0  0  0  0
    5.0168   -0.6556   -2.0825 H   0  0  0  0  0  0  0  0  0  0  0  0
    7.4060   -1.0169   -2.5400 H   0  0  0  0  0  0  0  0  0  0  0  0
    8.2386   -1.0395    1.6702 H   0  0  0  0  0  0  0  0  0  0  0  0
   -0.9486   -0.7461    0.7933 H   0  0  0  0  0  0  0  0  0  0  0  0
    0.0287   -0.6437    2.2462 H   0  0  0  0  0  0  0  0  0  0  0  0
    1.3606   -2.4861    1.7207 H   0  0  0  0  0  0  0  0  0  0  0  0
    1.2431   -2.2364   -0.0468 H   0  0  0  0  0  0  0  0  0  0  0  0
    0.0787   -4.3205    0.8002 H   0  0  0  0  0  0  0  0  0  0  0  0
   -0.8678   -3.2317   -0.2371 H   0  0  0  0  0  0  0  0  0  0  0  0
   -0.9743   -3.4722    2.8446 H   0  0  0  0  0  0  0  0  0  0  0  0
   -1.9280   -2.2696    2.0012 H   0  0  0  0  0  0  0  0  0  0  0  0
   -4.1077   -4.8835    0.6534 H   0  0  0  0  0  0  0  0  0  0  0  0
   -2.8288   -4.2165   -0.3282 H   0  0  0  0  0  0  0  0  0  0  0  0
   -5.2250   -2.9612    0.2575 H   0  0  0  0  0  0  0  0  0  0  0  0
   -4.8840   -2.7990    2.4277 H   0  0  0  0  0  0  0  0  0  0  0  0
   -2.4992   -1.7415   -0.2937 H   0  0  0  0  0  0  0  0  0  0  0  0
   -4.8655   -2.0473   -1.8322 H   0  0  0  0  0  0  0  0  0  0  0  0
  1  2  1  0
  2  3  1  0
  3  4  1  0
  4  5  1  0
  5  6  1  0
  6  7  1  0
  6  8  2  0
  5  9  1  0
  9 10  1  0
 10 11  1  0
 11 12  1  0
 12 13  1  0
 12 14  1  0
 10 15  1  0
 15 16  1  0
 16 17  2  0
 16 18  1  0
 18 19  2  0
 19 20  1  0
 20 21  2  0
 21 22  1  0
 22 23  2  0
 23 24  1  0
 23 25  1  0
 25 26  2  0
 26 27  1  0
 15 28  1  0
 28 29  1  0
 29 30  1  0
 30 31  1  0
 31 32  1  0
 32 33  1  0
 33 34  1  0
 34 35  1  0
 34 36  1  0
 36 37  1  0
 36  3  1  0
 26 20  1  0
  1 38  1  0
  1 39  1  0
  1 40  1  0
  3 41  1  0
  4 42  1  0
  4 43  1  0
  7 44  1  0
  7 45  1  0
  7 46  1  0
  9 47  1  0
  9 48  1  0
 10 49  1  0
 11 50  1  0
 11 51  1  0
 12 52  1  0
 13 53  1  0
 13 54  1  0
 13 55  1  0
 14 56  1  0
 14 57  1  0
 14 58  1  0
 18 59  1  0
 19 60  1  0
 21 61  1  0
 22 62  1  0
 25 63  1  0
 28 64  1  0
 28 65  1  0
 29 66  1  0
 29 67  1  0
 30 68  1  0
 30 69  1  0
 31 70  1  0
 31 71  1  0
 33 72  1  0
 33 73  1  0
 34 74  1  0
 35 75  1  0
 36 76  1  0
 37 77  1  0
M  END
$$$$
