
     RDKit          3D

 83 86  0  0  0  0  0  0  0  0999 V2000
   -1.5086   -3.9382   -0.5751 C   0  0  0  0  0  0  0  0  0  0  0  0
   -2.3357   -3.3170    0.5617 C   0  0  0  0  0  0  0  0  0  0  0  0
   -3.0149   -4.4388    1.3614 C   0  0  0  0  0  0  0  0  0  0  0  0
   -3.3980   -2.3213    0.0304 C   0  0  0  0  0  0  0  0  0  0  0  0
   -2.8598   -0.8987   -0.2745 C   0  0  0  0  0  0  0  0  0  0  0  0
   -4.0437    0.0645   -0.4744 C   0  0  0  0  0  0  0  0  0  0  0  0
   -4.5000    0.5107    0.8012 O   0  0  0  0  0  0  0  0  0  0  0  0
   -5.5644    1.3964    1.0186 C   0  0  0  0  0  0  0  0  0  0  0  0
   -6.6125    0.9326    1.8246 C   0  0  0  0  0  0  0  0  0  0  0  0
   -7.6923    1.7558    2.1406 C   0  0  0  0  0  0  0  0  0  0  0  0
   -7.7335    3.0630    1.6634 C   0  0  0  0  0  0  0  0  0  0  0  0
   -6.6943    3.5517    0.8705 C   0  0  0  0  0  0  0  0  0  0  0  0
   -5.5901    2.7406    0.5404 C   0  0  0  0  0  0  0  0  0  0  0  0
   -4.5198    3.3348   -0.3550 C   0  0  0  0  0  0  0  0  0  0  0  0
   -3.0988    3.2690    0.2419 C   0  0  0  0  0  0  0  0  0  0  0  0
   -2.0407    3.3201   -0.8736 C   0  0  0  0  0  0  0  0  0  0  0  0
   -0.6039    3.1125   -0.3694 C   0  0  0  0  0  0  0  0  0  0  0  0
   -0.2311    1.6778    0.1078 C   0  0  0  0  0  0  0  0  0  0  0  0
    0.1268    0.5490   -0.9321 C   0  0  0  0  0  0  0  0  0  0  0  0
    1.2987    1.0030   -1.8853 C   0  0  0  0  0  0  0  0  0  0  0  0
    2.6965    0.6848   -1.3396 C   0  0  0  0  0  0  0  0  0  0  0  0
    2.8346   -0.7648   -1.1340 N   0  0  0  0  0  0  0  0  0  0  0  0
    4.1138   -1.4164   -1.2529 C   0  0  0  0  0  0  0  0  0  0  0  0
    4.1641   -2.6411   -1.5549 O   0  0  0  0  0  0  0  0  0  0  0  0
    5.4002   -0.6573   -1.0594 C   0  0  0  0  0  0  0  0  0  0  0  0
    6.4424   -1.5261   -0.4676 N   0  0  0  0  0  0  0  0  0  0  0  0
    6.1953   -1.8571    0.9568 C   0  0  0  0  0  0  0  0  0  0  0  0
    6.4933   -0.6856    1.9081 C   0  0  0  0  0  0  0  0  0  0  0  0
    7.9035   -0.1406    1.6818 C   0  0  0  0  0  0  0  0  0  0  0  0
    8.1174    0.2096    0.2098 C   0  0  0  0  0  0  0  0  0  0  0  0
    7.8088   -1.0026   -0.6812 C   0  0  0  0  0  0  0  0  0  0  0  0
    1.6343   -1.5632   -0.8541 C   0  0  0  0  0  0  0  0  0  0  0  0
    0.6074   -0.7049   -0.1099 C   0  0  0  0  0  0  0  0  0  0  0  0
   -1.0933    0.1754   -1.7969 C   0  0  0  0  0  0  0  0  0  0  0  0
   -1.2628    0.7730   -2.8954 O   0  0  0  0  0  0  0  0  0  0  0  0
   -2.0096   -0.8929   -1.4727 N   0  0  0  0  0  0  0  0  0  0  0  0
   -0.7676   -4.6553   -0.1605 H   0  0  0  0  0  0  0  0  0  0  0  0
   -2.1671   -4.4784   -1.2885 H   0  0  0  0  0  0  0  0  0  0  0  0
   -0.9433   -3.1686   -1.1320 H   0  0  0  0  0  0  0  0  0  0  0  0
   -1.6518   -2.7916    1.2623 H   0  0  0  0  0  0  0  0  0  0  0  0
   -3.5544   -4.0154    2.2358 H   0  0  0  0  0  0  0  0  0  0  0  0
   -2.2565   -5.1546    1.7454 H   0  0  0  0  0  0  0  0  0  0  0  0
   -3.7393   -4.9903    0.7238 H   0  0  0  0  0  0  0  0  0  0  0  0
   -4.1896   -2.2125    0.8059 H   0  0  0  0  0  0  0  0  0  0  0  0
   -3.8989   -2.7425   -0.8697 H   0  0  0  0  0  0  0  0  0  0  0  0
   -2.2777   -0.5492    0.6014 H   0  0  0  0  0  0  0  0  0  0  0  0
   -4.8754   -0.4296   -1.0232 H   0  0  0  0  0  0  0  0  0  0  0  0
   -3.7050    0.9101   -1.0851 H   0  0  0  0  0  0  0  0  0  0  0  0
   -6.5877   -0.0794    2.2094 H   0  0  0  0  0  0  0  0  0  0  0  0
   -8.4970    1.3802    2.7591 H   0  0  0  0  0  0  0  0  0  0  0  0
   -8.5728    3.7012    1.9089 H   0  0  0  0  0  0  0  0  0  0  0  0
   -6.7564    4.5722    0.5129 H   0  0  0  0  0  0  0  0  0  0  0  0
   -4.5882    2.8456   -1.3474 H   0  0  0  0  0  0  0  0  0  0  0  0
   -4.7355    4.4063   -0.5626 H   0  0  0  0  0  0  0  0  0  0  0  0
   -2.9539    4.1297    0.9314 H   0  0  0  0  0  0  0  0  0  0  0  0
   -2.9604    2.3562    0.8447 H   0  0  0  0  0  0  0  0  0  0  0  0
   -2.2721    2.5931   -1.6679 H   0  0  0  0  0  0  0  0  0  0  0  0
   -2.0963    4.3244   -1.3478 H   0  0  0  0  0  0  0  0  0  0  0  0
    0.0953    3.4840   -1.1386 H   0  0  0  0  0  0  0  0  0  0  0  0
   -0.4570    3.8005    0.4928 H   0  0  0  0  0  0  0  0  0  0  0  0
   -1.0097    1.3081    0.8003 H   0  0  0  0  0  0  0  0  0  0  0  0
    0.6664    1.8222    0.7488 H   0  0  0  0  0  0  0  0  0  0  0  0
    1.2525    2.0693   -2.1630 H   0  0  0  0  0  0  0  0  0  0  0  0
    1.2256    0.4566   -2.8530 H   0  0  0  0  0  0  0  0  0  0  0  0
    2.8697    1.2188   -0.3812 H   0  0  0  0  0  0  0  0  0  0  0  0
    3.4447    1.0386   -2.0823 H   0  0  0  0  0  0  0  0  0  0  0  0
    5.2277    0.2395   -0.4299 H   0  0  0  0  0  0  0  0  0  0  0  0
    5.7179   -0.3027   -2.0641 H   0  0  0  0  0  0  0  0  0  0  0  0
    6.8365   -2.7213    1.2389 H   0  0  0  0  0  0  0  0  0  0  0  0
    5.1447   -2.1881    1.1064 H   0  0  0  0  0  0  0  0  0  0  0  0
    6.4056   -1.0402    2.9577 H   0  0  0  0  0  0  0  0  0  0  0  0
    5.7471    0.1256    1.7716 H   0  0  0  0  0  0  0  0  0  0  0  0
    8.0540    0.7671    2.3047 H   0  0  0  0  0  0  0  0  0  0  0  0
    8.6519   -0.9016    1.9954 H   0  0  0  0  0  0  0  0  0  0  0  0
    7.4708    1.0678   -0.0733 H   0  0  0  0  0  0  0  0  0  0  0  0
    9.1741    0.5174    0.0571 H   0  0  0  0  0  0  0  0  0  0  0  0
    7.9578   -0.7257   -1.7481 H   0  0  0  0  0  0  0  0  0  0  0  0
    8.5443   -1.8093   -0.4656 H   0  0  0  0  0  0  0  0  0  0  0  0
    1.2050   -1.9419   -1.8063 H   0  0  0  0  0  0  0  0  0  0  0  0
    1.8942   -2.4332   -0.2118 H   0  0  0  0  0  0  0  0  0  0  0  0
   -0.2219   -1.3472    0.2154 H   0  0  0  0  0  0  0  0  0  0  0  0
    1.0982   -0.3867    0.8366 H   0  0  0  0  0  0  0  0  0  0  0  0
   -2.3781   -1.4270   -2.2931 H   0  0  0  0  0  0  0  0  0  0  0  0
  1  2  1  0
  2  3  1  0
  2  4  1  0
  4  5  1  0
  5  6  1  0
  6  7  1  0
  7  8  1  0
  8  9  2  0
  9 10  1  0
 10 11  2  0
 11 12  1  0
 12 13  2  0
 13 14  1  0
 14 15  1  0
 15 16  1  0
 16 17  1  0
 17 18  1  0
 18 19  1  0
 19 20  1  0
 20 21  1  0
 21 22  1  0
 22 23  1  0
 23 24  2  0
 23 25  1  0
 25 26  1  0
 26 27  1  0
 27 28  1  0
 28 29  1  0
 29 30  1  0
 30 31  1  0
 22 32  1  0
 32 33  1  0
 19 34  1  0
 34 35  2  0
 34 36  1  0
 36  5  1  0
 13  8  1  0
 33 19  1  0
 31 26  1  0
  1 37  1  0
  1 38  1  0
  1 39  1  0
  2 40  1  0
  3 41  1  0
  3 42  1  0
  3 43  1  0
  4 44  1  0
  4 45  1  0
  5 46  1  0
  6 47  1  0
  6 48  1  0
  9 49  1  0
 10 50  1  0
 11 51  1  0
 12 52  1  0
 14 53  1  0
 14 54  1  0
 15 55  1  0
 15 56  1  0
 16 57  1  0
 16 58  1  0
 17 59  1  0
 17 60  1  0
 18 61  1  0
 18 62  1  0
 20 63  1  0
 20 64  1  0
 21 65  1  0
 21 66  1  0
 25 67  1  0
 25 68  1  0
 27 69  1  0
 27 70  1  0
 28 71  1  0
 28 72  1  0
 29 73  1  0
 29 74  1  0
 30 75  1  0
 30 76  1  0
 31 77  1  0
 31 78  1  0
 32 79  1  0
 32 80  1  0
 33 81  1  0
 33 82  1  0
 36 83  1  0
M  END
$$$$
