
     RDKit          3D

 60 62  0  0  0  0  0  0  0  0999 V2000
    4.0062   -0.9806    3.2651 C   0  0  0  0  0  0  0  0  0  0  0  0
    3.7289   -1.1145    1.7649 C   0  0  0  0  0  0  0  0  0  0  0  0
    2.2571   -1.2494    1.4497 C   0  0  0  0  0  0  0  0  0  0  0  0
    1.4166   -1.2495    2.3887 O   0  0  0  0  0  0  0  0  0  0  0  0
    1.7974   -1.4359    0.0891 N   0  0  0  0  0  0  0  0  0  0  0  0
    2.6550   -1.0267   -1.0399 C   0  0  0  0  0  0  0  0  0  0  0  0
    2.7860    0.5160   -1.2201 C   0  0  0  0  0  0  0  0  0  0  0  0
    1.9510    1.4002   -0.2497 C   0  0  0  0  0  0  0  0  0  0  0  0
    1.6521    2.7591   -0.7609 N   0  0  0  0  0  0  0  0  0  0  0  0
    2.8526    3.4691   -1.2302 C   0  0  0  0  0  0  0  0  0  0  0  0
    0.5655    2.7765   -1.7670 C   0  0  0  0  0  0  0  0  0  0  0  0
   -0.8256    2.7293   -1.0895 C   0  0  0  0  0  0  0  0  0  0  0  0
   -1.7094    1.5745   -1.5969 C   0  0  0  0  0  0  0  0  0  0  0  0
   -1.3803    0.3123   -0.9179 N   0  0  0  0  0  0  0  0  0  0  0  0
   -1.8131    0.1287    0.4455 C   0  0  0  0  0  0  0  0  0  0  0  0
   -1.0050   -0.2713    1.3250 O   0  0  0  0  0  0  0  0  0  0  0  0
   -3.1986    0.4171    0.8329 C   0  0  0  0  0  0  0  0  0  0  0  0
   -4.2325   -0.4384    0.4287 C   0  0  0  0  0  0  0  0  0  0  0  0
   -5.5544   -0.1597    0.7898 C   0  0  0  0  0  0  0  0  0  0  0  0
   -5.8464    0.9910    1.5426 C   0  0  0  0  0  0  0  0  0  0  0  0
   -7.5068    1.3480    1.9837 Cl  0  0  0  0  0  0  0  0  0  0  0  0
   -4.8156    1.8634    1.9188 C   0  0  0  0  0  0  0  0  0  0  0  0
   -3.4925    1.5748    1.5740 C   0  0  0  0  0  0  0  0  0  0  0  0
   -0.6142   -0.7022   -1.6650 C   0  0  0  0  0  0  0  0  0  0  0  0
   -0.4425   -2.0223   -0.9386 C   0  0  0  0  0  0  0  0  0  0  0  0
   -1.4866   -2.9595   -1.0634 C   0  0  0  0  0  0  0  0  0  0  0  0
   -1.4122   -4.2046   -0.4403 C   0  0  0  0  0  0  0  0  0  0  0  0
   -2.4274   -5.0957   -0.5875 F   0  0  0  0  0  0  0  0  0  0  0  0
   -0.2947   -4.5361    0.3230 C   0  0  0  0  0  0  0  0  0  0  0  0
   -0.2185   -5.7492    0.9260 F   0  0  0  0  0  0  0  0  0  0  0  0
    0.7465   -3.6180    0.4728 C   0  0  0  0  0  0  0  0  0  0  0  0
    0.6953   -2.3507   -0.1391 C   0  0  0  0  0  0  0  0  0  0  0  0
    5.0983   -0.9063    3.4337 H   0  0  0  0  0  0  0  0  0  0  0  0
    3.6295   -1.8737    3.8045 H   0  0  0  0  0  0  0  0  0  0  0  0
    3.5138   -0.0670    3.6706 H   0  0  0  0  0  0  0  0  0  0  0  0
    4.1515   -0.2230    1.2453 H   0  0  0  0  0  0  0  0  0  0  0  0
    4.2528   -2.0273    1.3839 H   0  0  0  0  0  0  0  0  0  0  0  0
    3.6665   -1.4708   -0.9204 H   0  0  0  0  0  0  0  0  0  0  0  0
    2.2782   -1.4754   -1.9877 H   0  0  0  0  0  0  0  0  0  0  0  0
    3.8558    0.7976   -1.1027 H   0  0  0  0  0  0  0  0  0  0  0  0
    2.5320    0.7525   -2.2743 H   0  0  0  0  0  0  0  0  0  0  0  0
    2.5063    1.5039    0.7067 H   0  0  0  0  0  0  0  0  0  0  0  0
    1.0012    0.9064    0.0191 H   0  0  0  0  0  0  0  0  0  0  0  0
    3.1936    3.0824   -2.2138 H   0  0  0  0  0  0  0  0  0  0  0  0
    2.6299    4.5521   -1.3342 H   0  0  0  0  0  0  0  0  0  0  0  0
    3.6759    3.3733   -0.4899 H   0  0  0  0  0  0  0  0  0  0  0  0
    0.6923    1.9651   -2.5099 H   0  0  0  0  0  0  0  0  0  0  0  0
    0.6072    3.7187   -2.3589 H   0  0  0  0  0  0  0  0  0  0  0  0
   -0.7330    2.6793    0.0165 H   0  0  0  0  0  0  0  0  0  0  0  0
   -1.3552    3.6826   -1.3053 H   0  0  0  0  0  0  0  0  0  0  0  0
   -1.6034    1.4722   -2.7005 H   0  0  0  0  0  0  0  0  0  0  0  0
   -2.7776    1.8263   -1.4209 H   0  0  0  0  0  0  0  0  0  0  0  0
   -4.0185   -1.3295   -0.1560 H   0  0  0  0  0  0  0  0  0  0  0  0
   -6.3474   -0.8319    0.4779 H   0  0  0  0  0  0  0  0  0  0  0  0
   -5.0353    2.7561    2.4968 H   0  0  0  0  0  0  0  0  0  0  0  0
   -2.6974    2.2488    1.8867 H   0  0  0  0  0  0  0  0  0  0  0  0
    0.3502   -0.2830   -1.9716 H   0  0  0  0  0  0  0  0  0  0  0  0
   -1.1427   -0.9025   -2.6238 H   0  0  0  0  0  0  0  0  0  0  0  0
   -2.3639   -2.7261   -1.6573 H   0  0  0  0  0  0  0  0  0  0  0  0
    1.6056   -3.8964    1.0710 H   0  0  0  0  0  0  0  0  0  0  0  0
  1  2  1  0
  2  3  1  0
  3  4  2  0
  3  5  1  0
  5  6  1  0
  6  7  1  0
  7  8  1  0
  8  9  1  0
  9 10  1  0
  9 11  1  0
 11 12  1  0
 12 13  1  0
 13 14  1  0
 14 15  1  0
 15 16  2  0
 15 17  1  0
 17 18  2  0
 18 19  1  0
 19 20  2  0
 20 21  1  0
 20 22  1  0
 22 23  2  0
 14 24  1  0
 24 25  1  0
 25 26  2  0
 26 27  1  0
 27 28  1  0
 27 29  2  0
 29 30  1  0
 29 31  1  0
 31 32  2  0
 32  5  1  0
 23 17  1  0
 32 25  1  0
  1 33  1  0
  1 34  1  0
  1 35  1  0
  2 36  1  0
  2 37  1  0
  6 38  1  0
  6 39  1  0
  7 40  1  0
  7 41  1  0
  8 42  1  0
  8 43  1  0
 10 44  1  0
 10 45  1  0
 10 46  1  0
 11 47  1  0
 11 48  1  0
 12 49  1  0
 12 50  1  0
 13 51  1  0
 13 52  1  0
 18 53  1  0
 19 54  1  0
 22 55  1  0
 23 56  1  0
 24 57  1  0
 24 58  1  0
 26 59  1  0
 31 60  1  0
M  END
$$$$
