
     RDKit          3D

 78 81  0  0  0  0  0  0  0  0999 V2000
   -7.0680   -1.1857    3.3217 C   0  0  0  0  0  0  0  0  0  0  0  0
   -6.4857   -0.7340    2.0236 C   0  0  0  0  0  0  0  0  0  0  0  0
   -6.4834   -1.5688    0.9509 N   0  0  0  0  0  0  0  0  0  0  0  0
   -5.8958   -1.2086   -0.2173 C   0  0  0  0  0  0  0  0  0  0  0  0
   -5.2548    0.0294   -0.3281 C   0  0  0  0  0  0  0  0  0  0  0  0
   -4.5384    0.3851   -1.5711 C   0  0  0  0  0  0  0  0  0  0  0  0
   -4.9909    1.3295   -2.2739 O   0  0  0  0  0  0  0  0  0  0  0  0
   -3.3260   -0.2974   -1.9740 N   0  0  0  0  0  0  0  0  0  0  0  0
   -2.7427   -1.3814   -1.1629 C   0  0  0  0  0  0  0  0  0  0  0  0
   -2.1782   -0.8431    0.1632 C   0  0  0  0  0  0  0  0  0  0  0  0
   -1.0406   -1.7208    0.6997 C   0  0  0  0  0  0  0  0  0  0  0  0
   -0.3763   -1.0925    1.9469 C   0  0  0  0  0  0  0  0  0  0  0  0
    1.0237   -0.4554    1.7045 C   0  0  0  0  0  0  0  0  0  0  0  0
    1.5349    0.0930    3.0669 C   0  0  0  0  0  0  0  0  0  0  0  0
    2.9609    0.6838    2.9726 C   0  0  0  0  0  0  0  0  0  0  0  0
    3.7302    0.1516    1.8246 N   0  0  0  0  0  0  0  0  0  0  0  0
    5.1685    0.4348    2.0086 C   0  0  0  0  0  0  0  0  0  0  0  0
    5.9200    0.2670    0.7132 C   0  0  0  0  0  0  0  0  0  0  0  0
    5.6778    1.1391   -0.3640 C   0  0  0  0  0  0  0  0  0  0  0  0
    6.3728    0.9817   -1.5705 C   0  0  0  0  0  0  0  0  0  0  0  0
    7.3131   -0.0465   -1.7059 C   0  0  0  0  0  0  0  0  0  0  0  0
    7.5506   -0.9243   -0.6436 C   0  0  0  0  0  0  0  0  0  0  0  0
    6.8611   -0.7669    0.5646 C   0  0  0  0  0  0  0  0  0  0  0  0
    3.4861   -1.2940    1.6647 C   0  0  0  0  0  0  0  0  0  0  0  0
    2.0341   -1.5465    1.2140 C   0  0  0  0  0  0  0  0  0  0  0  0
    0.9112    0.6827    0.6893 C   0  0  0  0  0  0  0  0  0  0  0  0
    0.8072    1.8735    1.0838 O   0  0  0  0  0  0  0  0  0  0  0  0
    0.8783    0.4062   -0.6842 O   0  0  0  0  0  0  0  0  0  0  0  0
    1.1898    1.3874   -1.6733 C   0  0  0  0  0  0  0  0  0  0  0  0
    0.8293    0.8966   -3.0982 C   0  0  0  0  0  0  0  0  0  0  0  0
    0.7943   -0.5058   -3.1748 O   0  0  0  0  0  0  0  0  0  0  0  0
   -0.4529    1.5570   -3.6948 C   0  0  0  0  0  0  0  0  0  0  0  0
   -0.6784    1.0898   -5.0033 O   0  0  0  0  0  0  0  0  0  0  0  0
   -1.7377    1.3980   -2.8384 C   0  0  0  0  0  0  0  0  0  0  0  0
   -2.5993    0.1618   -3.1713 C   0  0  0  0  0  0  0  0  0  0  0  0
   -5.2901    0.8946    0.7838 C   0  0  0  0  0  0  0  0  0  0  0  0
   -4.6213    2.2353    0.7574 C   0  0  0  0  0  0  0  0  0  0  0  0
   -5.8900    0.4834    1.9331 N   0  0  0  0  0  0  0  0  0  0  0  0
   -7.4944   -0.3196    3.8672 H   0  0  0  0  0  0  0  0  0  0  0  0
   -7.8733   -1.9265    3.1442 H   0  0  0  0  0  0  0  0  0  0  0  0
   -6.2722   -1.6508    3.9389 H   0  0  0  0  0  0  0  0  0  0  0  0
   -5.9107   -1.8964   -1.0539 H   0  0  0  0  0  0  0  0  0  0  0  0
   -3.5041   -2.1643   -0.9590 H   0  0  0  0  0  0  0  0  0  0  0  0
   -1.9388   -1.8959   -1.7348 H   0  0  0  0  0  0  0  0  0  0  0  0
   -1.8072    0.1915    0.0353 H   0  0  0  0  0  0  0  0  0  0  0  0
   -2.9871   -0.8157    0.9209 H   0  0  0  0  0  0  0  0  0  0  0  0
   -0.2963   -1.9018   -0.1018 H   0  0  0  0  0  0  0  0  0  0  0  0
   -1.4667   -2.7126    0.9720 H   0  0  0  0  0  0  0  0  0  0  0  0
   -1.0568   -0.3382    2.4082 H   0  0  0  0  0  0  0  0  0  0  0  0
   -0.2633   -1.8956    2.7099 H   0  0  0  0  0  0  0  0  0  0  0  0
    1.5518   -0.7371    3.8114 H   0  0  0  0  0  0  0  0  0  0  0  0
    0.8408    0.8644    3.4694 H   0  0  0  0  0  0  0  0  0  0  0  0
    3.4878    0.4865    3.9374 H   0  0  0  0  0  0  0  0  0  0  0  0
    2.8789    1.7866    2.8563 H   0  0  0  0  0  0  0  0  0  0  0  0
    5.5983   -0.2124    2.8094 H   0  0  0  0  0  0  0  0  0  0  0  0
    5.3110    1.4892    2.3355 H   0  0  0  0  0  0  0  0  0  0  0  0
    4.9445    1.9333   -0.2720 H   0  0  0  0  0  0  0  0  0  0  0  0
    6.1869    1.6611   -2.3956 H   0  0  0  0  0  0  0  0  0  0  0  0
    7.8548   -0.1680   -2.6348 H   0  0  0  0  0  0  0  0  0  0  0  0
    8.2729   -1.7221   -0.7556 H   0  0  0  0  0  0  0  0  0  0  0  0
    7.0541   -1.4569    1.3794 H   0  0  0  0  0  0  0  0  0  0  0  0
    4.1655   -1.7333    0.9009 H   0  0  0  0  0  0  0  0  0  0  0  0
    3.6788   -1.8244    2.6269 H   0  0  0  0  0  0  0  0  0  0  0  0
    1.7402   -2.5457    1.6070 H   0  0  0  0  0  0  0  0  0  0  0  0
    2.0177   -1.6372    0.1081 H   0  0  0  0  0  0  0  0  0  0  0  0
    0.6674    2.3445   -1.4495 H   0  0  0  0  0  0  0  0  0  0  0  0
    2.2821    1.5898   -1.6245 H   0  0  0  0  0  0  0  0  0  0  0  0
    1.6648    1.2247   -3.7574 H   0  0  0  0  0  0  0  0  0  0  0  0
    0.0240   -0.8111   -2.6407 H   0  0  0  0  0  0  0  0  0  0  0  0
   -0.2515    2.6575   -3.7441 H   0  0  0  0  0  0  0  0  0  0  0  0
    0.0187    1.4995   -5.5815 H   0  0  0  0  0  0  0  0  0  0  0  0
   -2.3710    2.2992   -2.9931 H   0  0  0  0  0  0  0  0  0  0  0  0
   -1.4764    1.4097   -1.7669 H   0  0  0  0  0  0  0  0  0  0  0  0
   -3.3190    0.4188   -3.9753 H   0  0  0  0  0  0  0  0  0  0  0  0
   -1.9860   -0.6580   -3.5866 H   0  0  0  0  0  0  0  0  0  0  0  0
   -3.5267    2.1046    0.6153 H   0  0  0  0  0  0  0  0  0  0  0  0
   -4.8032    2.7795    1.7117 H   0  0  0  0  0  0  0  0  0  0  0  0
   -5.0298    2.8481   -0.0757 H   0  0  0  0  0  0  0  0  0  0  0  0
  1  2  1  0
  2  3  2  0
  3  4  1  0
  4  5  2  0
  5  6  1  0
  6  7  2  0
  6  8  1  0
  8  9  1  0
  9 10  1  0
 10 11  1  0
 11 12  1  0
 12 13  1  0
 13 14  1  0
 14 15  1  0
 15 16  1  0
 16 17  1  0
 17 18  1  0
 18 19  2  0
 19 20  1  0
 20 21  2  0
 21 22  1  0
 22 23  2  0
 16 24  1  0
 24 25  1  0
 13 26  1  0
 26 27  2  0
 26 28  1  0
 28 29  1  0
 29 30  1  0
 30 31  1  0
 30 32  1  0
 32 33  1  0
 32 34  1  0
 34 35  1  0
  5 36  1  0
 36 37  1  0
 36 38  2  0
 38  2  1  0
 35  8  1  0
 25 13  1  0
 23 18  1  0
  1 39  1  0
  1 40  1  0
  1 41  1  0
  4 42  1  0
  9 43  1  0
  9 44  1  0
 10 45  1  0
 10 46  1  0
 11 47  1  0
 11 48  1  0
 12 49  1  0
 12 50  1  0
 14 51  1  0
 14 52  1  0
 15 53  1  0
 15 54  1  0
 17 55  1  0
 17 56  1  0
 19 57  1  0
 20 58  1  0
 21 59  1  0
 22 60  1  0
 23 61  1  0
 24 62  1  0
 24 63  1  0
 25 64  1  0
 25 65  1  0
 29 66  1  0
 29 67  1  0
 30 68  1  0
 31 69  1  0
 32 70  1  0
 33 71  1  0
 34 72  1  0
 34 73  1  0
 35 74  1  0
 35 75  1  0
 37 76  1  0
 37 77  1  0
 37 78  1  0
M  END
$$$$
