
     RDKit          3D

 74 77  0  0  0  0  0  0  0  0999 V2000
    0.3468   -4.8443   -0.5124 C   0  0  0  0  0  0  0  0  0  0  0  0
   -0.5745   -3.6745   -0.8785 C   0  0  0  0  0  0  0  0  0  0  0  0
   -0.6203   -3.4915   -2.4017 C   0  0  0  0  0  0  0  0  0  0  0  0
   -0.1079   -2.3849   -0.1781 C   0  0  0  0  0  0  0  0  0  0  0  0
   -1.0812   -1.2949   -0.4055 N   0  0  0  0  0  0  0  0  0  0  0  0
   -2.2084   -1.2198    0.5476 C   0  0  0  0  0  0  0  0  0  0  0  0
   -3.5667   -1.2164   -0.1799 C   0  0  0  0  0  0  0  0  0  0  0  0
   -4.0764    0.1070   -0.3503 O   0  0  0  0  0  0  0  0  0  0  0  0
   -4.4311    0.9847    0.6886 C   0  0  0  0  0  0  0  0  0  0  0  0
   -4.6691    0.5152    1.9964 C   0  0  0  0  0  0  0  0  0  0  0  0
   -4.9524    1.4081    3.0302 C   0  0  0  0  0  0  0  0  0  0  0  0
   -5.0080    2.7767    2.7761 C   0  0  0  0  0  0  0  0  0  0  0  0
   -4.7908    3.2580    1.4848 C   0  0  0  0  0  0  0  0  0  0  0  0
   -4.5014    2.3755    0.4274 C   0  0  0  0  0  0  0  0  0  0  0  0
   -4.3477    2.9425   -0.9708 C   0  0  0  0  0  0  0  0  0  0  0  0
   -3.0643    2.5468   -1.7285 C   0  0  0  0  0  0  0  0  0  0  0  0
   -1.7380    3.0291   -1.1002 C   0  0  0  0  0  0  0  0  0  0  0  0
   -1.1776    2.1820    0.0810 C   0  0  0  0  0  0  0  0  0  0  0  0
   -0.0426    1.1300   -0.2161 C   0  0  0  0  0  0  0  0  0  0  0  0
    0.5269    0.6402    1.1669 C   0  0  0  0  0  0  0  0  0  0  0  0
    1.7468    1.4400    1.6340 C   0  0  0  0  0  0  0  0  0  0  0  0
    2.8249    1.2858    0.6519 N   0  0  0  0  0  0  0  0  0  0  0  0
    4.1876    1.2481    1.1134 C   0  0  0  0  0  0  0  0  0  0  0  0
    4.5612    2.0811    1.9833 O   0  0  0  0  0  0  0  0  0  0  0  0
    5.1159    0.1609    0.7279 C   0  0  0  0  0  0  0  0  0  0  0  0
    5.3693   -0.1772   -0.6111 C   0  0  0  0  0  0  0  0  0  0  0  0
    6.2526   -1.2140   -0.9181 C   0  0  0  0  0  0  0  0  0  0  0  0
    6.8918   -1.9027    0.1178 C   0  0  0  0  0  0  0  0  0  0  0  0
    7.7993   -2.9664   -0.1708 N   0  0  0  0  0  0  0  0  0  0  0  0
    6.6528   -1.5505    1.4091 N   0  0  0  0  0  0  0  0  0  0  0  0
    5.7967   -0.5453    1.7327 C   0  0  0  0  0  0  0  0  0  0  0  0
    2.4942    1.2650   -0.7782 C   0  0  0  0  0  0  0  0  0  0  0  0
    1.0969    1.8523   -1.0253 C   0  0  0  0  0  0  0  0  0  0  0  0
   -0.5808   -0.0750   -1.0930 C   0  0  0  0  0  0  0  0  0  0  0  0
   -0.0083   -5.7788   -0.9970 H   0  0  0  0  0  0  0  0  0  0  0  0
    1.3888   -4.6415   -0.8424 H   0  0  0  0  0  0  0  0  0  0  0  0
    0.3433   -5.0050    0.5871 H   0  0  0  0  0  0  0  0  0  0  0  0
   -1.5998   -3.9240   -0.5257 H   0  0  0  0  0  0  0  0  0  0  0  0
   -1.3423   -2.6928   -2.6742 H   0  0  0  0  0  0  0  0  0  0  0  0
    0.3829   -3.2183   -2.7942 H   0  0  0  0  0  0  0  0  0  0  0  0
   -0.9530   -4.4317   -2.8908 H   0  0  0  0  0  0  0  0  0  0  0  0
    0.0071   -2.5750    0.9125 H   0  0  0  0  0  0  0  0  0  0  0  0
    0.9041   -2.1139   -0.5542 H   0  0  0  0  0  0  0  0  0  0  0  0
   -2.1058   -0.3665    1.2343 H   0  0  0  0  0  0  0  0  0  0  0  0
   -2.2077   -2.1142    1.2093 H   0  0  0  0  0  0  0  0  0  0  0  0
   -3.4583   -1.6867   -1.1801 H   0  0  0  0  0  0  0  0  0  0  0  0
   -4.3071   -1.8305    0.3759 H   0  0  0  0  0  0  0  0  0  0  0  0
   -4.6272   -0.5393    2.2281 H   0  0  0  0  0  0  0  0  0  0  0  0
   -5.1271    1.0375    4.0321 H   0  0  0  0  0  0  0  0  0  0  0  0
   -5.2289    3.4666    3.5804 H   0  0  0  0  0  0  0  0  0  0  0  0
   -4.8562    4.3249    1.3104 H   0  0  0  0  0  0  0  0  0  0  0  0
   -4.4029    4.0531   -0.9489 H   0  0  0  0  0  0  0  0  0  0  0  0
   -5.2207    2.6023   -1.5686 H   0  0  0  0  0  0  0  0  0  0  0  0
   -3.1369    3.0344   -2.7258 H   0  0  0  0  0  0  0  0  0  0  0  0
   -3.0615    1.4744   -1.9604 H   0  0  0  0  0  0  0  0  0  0  0  0
   -1.8934    4.0713   -0.7435 H   0  0  0  0  0  0  0  0  0  0  0  0
   -0.9905    3.1099   -1.9128 H   0  0  0  0  0  0  0  0  0  0  0  0
   -1.9951    1.7087    0.6301 H   0  0  0  0  0  0  0  0  0  0  0  0
   -0.7617    2.9142    0.8086 H   0  0  0  0  0  0  0  0  0  0  0  0
    0.8731   -0.4052    1.1080 H   0  0  0  0  0  0  0  0  0  0  0  0
   -0.2430    0.6791    1.9663 H   0  0  0  0  0  0  0  0  0  0  0  0
    1.4919    2.5150    1.7498 H   0  0  0  0  0  0  0  0  0  0  0  0
    2.0694    1.0501    2.6251 H   0  0  0  0  0  0  0  0  0  0  0  0
    4.9224    0.3703   -1.4255 H   0  0  0  0  0  0  0  0  0  0  0  0
    6.4448   -1.4710   -1.9523 H   0  0  0  0  0  0  0  0  0  0  0  0
    7.9946   -3.2538   -1.1556 H   0  0  0  0  0  0  0  0  0  0  0  0
    8.2830   -3.4700    0.6058 H   0  0  0  0  0  0  0  0  0  0  0  0
    5.6358   -0.3068    2.7767 H   0  0  0  0  0  0  0  0  0  0  0  0
    3.2235    1.8890   -1.3386 H   0  0  0  0  0  0  0  0  0  0  0  0
    2.5358    0.2208   -1.1548 H   0  0  0  0  0  0  0  0  0  0  0  0
    1.1479    2.9277   -0.7414 H   0  0  0  0  0  0  0  0  0  0  0  0
    0.8924    1.8267   -2.1183 H   0  0  0  0  0  0  0  0  0  0  0  0
   -1.3569    0.2703   -1.7879 H   0  0  0  0  0  0  0  0  0  0  0  0
    0.2186   -0.3926   -1.7976 H   0  0  0  0  0  0  0  0  0  0  0  0
  1  2  1  0
  2  3  1  0
  2  4  1  0
  4  5  1  0
  5  6  1  0
  6  7  1  0
  7  8  1  0
  8  9  1  0
  9 10  2  0
 10 11  1  0
 11 12  2  0
 12 13  1  0
 13 14  2  0
 14 15  1  0
 15 16  1  0
 16 17  1  0
 17 18  1  0
 18 19  1  0
 19 20  1  0
 20 21  1  0
 21 22  1  0
 22 23  1  0
 23 24  2  0
 23 25  1  0
 25 26  2  0
 26 27  1  0
 27 28  2  0
 28 29  1  0
 28 30  1  0
 30 31  2  0
 22 32  1  0
 32 33  1  0
 19 34  1  0
 34  5  1  0
 14  9  1  0
 33 19  1  0
 31 25  1  0
  1 35  1  0
  1 36  1  0
  1 37  1  0
  2 38  1  0
  3 39  1  0
  3 40  1  0
  3 41  1  0
  4 42  1  0
  4 43  1  0
  6 44  1  0
  6 45  1  0
  7 46  1  0
  7 47  1  0
 10 48  1  0
 11 49  1  0
 12 50  1  0
 13 51  1  0
 15 52  1  0
 15 53  1  0
 16 54  1  0
 16 55  1  0
 17 56  1  0
 17 57  1  0
 18 58  1  0
 18 59  1  0
 20 60  1  0
 20 61  1  0
 21 62  1  0
 21 63  1  0
 26 64  1  0
 27 65  1  0
 29 66  1  0
 29 67  1  0
 31 68  1  0
 32 69  1  0
 32 70  1  0
 33 71  1  0
 33 72  1  0
 34 73  1  0
 34 74  1  0
M  END
$$$$
