
     RDKit          3D

 76 79  0  0  0  0  0  0  0  0999 V2000
   -4.6519    0.2566    1.1227 O   0  0  0  0  0  0  0  0  0  0  0  0
   -4.5383    0.4586   -0.1205 C   0  0  0  0  0  0  0  0  0  0  0  0
   -5.7791    0.4766   -0.9808 C   0  0  0  0  0  0  0  0  0  0  0  0
   -7.0088    0.8329   -0.1851 C   0  0  0  0  0  0  0  0  0  0  0  0
   -7.8249   -0.1734    0.3586 C   0  0  0  0  0  0  0  0  0  0  0  0
   -8.9608    0.1679    1.1033 C   0  0  0  0  0  0  0  0  0  0  0  0
   -9.2816    1.5111    1.3206 C   0  0  0  0  0  0  0  0  0  0  0  0
  -10.3851    1.8377    2.0367 F   0  0  0  0  0  0  0  0  0  0  0  0
   -8.4619    2.5178    0.8007 C   0  0  0  0  0  0  0  0  0  0  0  0
   -7.3272    2.1813    0.0544 C   0  0  0  0  0  0  0  0  0  0  0  0
   -3.2225    0.6491   -0.6909 N   0  0  0  0  0  0  0  0  0  0  0  0
   -2.2357    1.3507    0.1657 C   0  0  0  0  0  0  0  0  0  0  0  0
   -0.8324    1.5335   -0.4465 C   0  0  0  0  0  0  0  0  0  0  0  0
    0.2343    1.8532    0.6183 C   0  0  0  0  0  0  0  0  0  0  0  0
    0.9142    0.6007    1.2437 C   0  0  0  0  0  0  0  0  0  0  0  0
    2.0850   -0.0750    0.4427 C   0  0  0  0  0  0  0  0  0  0  0  0
    3.1359    1.0037    0.0259 C   0  0  0  0  0  0  0  0  0  0  0  0
    4.4337    0.3924   -0.5240 C   0  0  0  0  0  0  0  0  0  0  0  0
    5.0455   -0.5162    0.4642 N   0  0  0  0  0  0  0  0  0  0  0  0
    6.3322   -1.0447   -0.0383 C   0  0  0  0  0  0  0  0  0  0  0  0
    7.4141   -0.0043    0.1053 C   0  0  0  0  0  0  0  0  0  0  0  0
    7.9054    0.6797   -1.0193 C   0  0  0  0  0  0  0  0  0  0  0  0
    8.8710    1.6779   -0.8518 C   0  0  0  0  0  0  0  0  0  0  0  0
    9.3223    1.9875    0.3922 N   0  0  0  0  0  0  0  0  0  0  0  0
    8.8652    1.3380    1.4987 C   0  0  0  0  0  0  0  0  0  0  0  0
    7.8994    0.3343    1.3753 C   0  0  0  0  0  0  0  0  0  0  0  0
    4.1168   -1.6203    0.7663 C   0  0  0  0  0  0  0  0  0  0  0  0
    2.8278   -1.0677    1.3893 C   0  0  0  0  0  0  0  0  0  0  0  0
    1.5492   -0.8149   -0.7925 C   0  0  0  0  0  0  0  0  0  0  0  0
    1.6114   -0.2486   -1.9175 O   0  0  0  0  0  0  0  0  0  0  0  0
    1.0767   -2.1371   -0.7685 O   0  0  0  0  0  0  0  0  0  0  0  0
    0.0227   -2.6671    0.0460 C   0  0  0  0  0  0  0  0  0  0  0  0
   -1.3751   -2.1349   -0.3344 C   0  0  0  0  0  0  0  0  0  0  0  0
   -2.3573   -2.9783    0.2231 O   0  0  0  0  0  0  0  0  0  0  0  0
   -1.6034   -2.0222   -1.8626 C   0  0  0  0  0  0  0  0  0  0  0  0
   -1.5907   -3.3053   -2.4358 O   0  0  0  0  0  0  0  0  0  0  0  0
   -2.9563   -1.3479   -2.2003 C   0  0  0  0  0  0  0  0  0  0  0  0
   -2.9567    0.1952   -2.0770 C   0  0  0  0  0  0  0  0  0  0  0  0
   -5.9069   -0.5168   -1.4611 H   0  0  0  0  0  0  0  0  0  0  0  0
   -5.6626    1.2252   -1.7923 H   0  0  0  0  0  0  0  0  0  0  0  0
   -7.5845   -1.2182    0.2032 H   0  0  0  0  0  0  0  0  0  0  0  0
   -9.5851   -0.6133    1.5190 H   0  0  0  0  0  0  0  0  0  0  0  0
   -8.7027    3.5601    0.9765 H   0  0  0  0  0  0  0  0  0  0  0  0
   -6.6994    2.9680   -0.3423 H   0  0  0  0  0  0  0  0  0  0  0  0
   -2.1387    0.7957    1.1247 H   0  0  0  0  0  0  0  0  0  0  0  0
   -2.6373    2.3561    0.4191 H   0  0  0  0  0  0  0  0  0  0  0  0
   -0.5260    0.6334   -0.9882 H   0  0  0  0  0  0  0  0  0  0  0  0
   -0.8734    2.3675   -1.1804 H   0  0  0  0  0  0  0  0  0  0  0  0
    0.9835    2.5452    0.1914 H   0  0  0  0  0  0  0  0  0  0  0  0
   -0.2423    2.4351    1.4388 H   0  0  0  0  0  0  0  0  0  0  0  0
    1.3223    0.9359    2.2240 H   0  0  0  0  0  0  0  0  0  0  0  0
    0.1405   -0.1516    1.4993 H   0  0  0  0  0  0  0  0  0  0  0  0
    2.7349    1.6733   -0.7632 H   0  0  0  0  0  0  0  0  0  0  0  0
    3.3907    1.6371    0.9053 H   0  0  0  0  0  0  0  0  0  0  0  0
    5.1262    1.2329   -0.7442 H   0  0  0  0  0  0  0  0  0  0  0  0
    4.2301   -0.1362   -1.4824 H   0  0  0  0  0  0  0  0  0  0  0  0
    6.6484   -1.9357    0.5514 H   0  0  0  0  0  0  0  0  0  0  0  0
    6.2401   -1.3842   -1.0957 H   0  0  0  0  0  0  0  0  0  0  0  0
    7.5355    0.4520   -2.0113 H   0  0  0  0  0  0  0  0  0  0  0  0
    9.2478    2.2159   -1.7125 H   0  0  0  0  0  0  0  0  0  0  0  0
    9.2405    1.6108    2.4779 H   0  0  0  0  0  0  0  0  0  0  0  0
    7.5293   -0.1687    2.2613 H   0  0  0  0  0  0  0  0  0  0  0  0
    4.5795   -2.3108    1.5061 H   0  0  0  0  0  0  0  0  0  0  0  0
    3.8860   -2.2095   -0.1496 H   0  0  0  0  0  0  0  0  0  0  0  0
    2.1907   -1.9161    1.6916 H   0  0  0  0  0  0  0  0  0  0  0  0
    3.1097   -0.5492    2.3323 H   0  0  0  0  0  0  0  0  0  0  0  0
    0.2010   -2.4785    1.1209 H   0  0  0  0  0  0  0  0  0  0  0  0
    0.0277   -3.7719   -0.0891 H   0  0  0  0  0  0  0  0  0  0  0  0
   -1.4668   -1.1330    0.1077 H   0  0  0  0  0  0  0  0  0  0  0  0
   -2.4790   -2.7000    1.1710 H   0  0  0  0  0  0  0  0  0  0  0  0
   -0.8014   -1.4045   -2.3280 H   0  0  0  0  0  0  0  0  0  0  0  0
   -0.6371   -3.5625   -2.5570 H   0  0  0  0  0  0  0  0  0  0  0  0
   -3.1787   -1.5786   -3.2648 H   0  0  0  0  0  0  0  0  0  0  0  0
   -3.7834   -1.7961   -1.6066 H   0  0  0  0  0  0  0  0  0  0  0  0
   -3.7408    0.5951   -2.7491 H   0  0  0  0  0  0  0  0  0  0  0  0
   -2.0316    0.6179   -2.5068 H   0  0  0  0  0  0  0  0  0  0  0  0
  1  2  2  0
  2  3  1  0
  3  4  1  0
  4  5  2  0
  5  6  1  0
  6  7  2  0
  7  8  1  0
  7  9  1  0
  9 10  2  0
  2 11  1  0
 11 12  1  0
 12 13  1  0
 13 14  1  0
 14 15  1  0
 15 16  1  0
 16 17  1  0
 17 18  1  0
 18 19  1  0
 19 20  1  0
 20 21  1  0
 21 22  2  0
 22 23  1  0
 23 24  2  0
 24 25  1  0
 25 26  2  0
 19 27  1  0
 27 28  1  0
 16 29  1  0
 29 30  2  0
 29 31  1  0
 31 32  1  0
 32 33  1  0
 33 34  1  0
 33 35  1  0
 35 36  1  0
 35 37  1  0
 37 38  1  0
 10  4  1  0
 38 11  1  0
 28 16  1  0
 26 21  1  0
  3 39  1  0
  3 40  1  0
  5 41  1  0
  6 42  1  0
  9 43  1  0
 10 44  1  0
 12 45  1  0
 12 46  1  0
 13 47  1  0
 13 48  1  0
 14 49  1  0
 14 50  1  0
 15 51  1  0
 15 52  1  0
 17 53  1  0
 17 54  1  0
 18 55  1  0
 18 56  1  0
 20 57  1  0
 20 58  1  0
 22 59  1  0
 23 60  1  0
 25 61  1  0
 26 62  1  0
 27 63  1  0
 27 64  1  0
 28 65  1  0
 28 66  1  0
 32 67  1  0
 32 68  1  0
 33 69  1  0
 34 70  1  0
 35 71  1  0
 36 72  1  0
 37 73  1  0
 37 74  1  0
 38 75  1  0
 38 76  1  0
M  END
$$$$
