
     RDKit          3D

 68 70  0  0  0  0  0  0  0  0999 V2000
   -6.5458    2.9873    1.7010 C   0  0  0  0  0  0  0  0  0  0  0  0
   -6.4462    1.6885    0.9081 C   0  0  0  0  0  0  0  0  0  0  0  0
   -5.1594    1.0924    1.0748 O   0  0  0  0  0  0  0  0  0  0  0  0
   -3.9698    1.5209    0.4563 C   0  0  0  0  0  0  0  0  0  0  0  0
   -3.9496    2.5521   -0.5007 C   0  0  0  0  0  0  0  0  0  0  0  0
   -2.7460    2.9604   -1.0686 C   0  0  0  0  0  0  0  0  0  0  0  0
   -1.5512    2.3525   -0.6920 C   0  0  0  0  0  0  0  0  0  0  0  0
   -1.5412    1.2951    0.2343 C   0  0  0  0  0  0  0  0  0  0  0  0
   -2.7691    0.8806    0.8132 C   0  0  0  0  0  0  0  0  0  0  0  0
   -2.8268   -0.1346    1.7791 O   0  0  0  0  0  0  0  0  0  0  0  0
   -2.7456   -1.5247    1.4604 C   0  0  0  0  0  0  0  0  0  0  0  0
   -3.9781   -2.0117    0.6778 C   0  0  0  0  0  0  0  0  0  0  0  0
   -3.6817   -3.3100   -0.1036 C   0  0  0  0  0  0  0  0  0  0  0  0
   -3.3431   -3.0776   -1.5937 C   0  0  0  0  0  0  0  0  0  0  0  0
   -2.1713   -2.1131   -1.8422 C   0  0  0  0  0  0  0  0  0  0  0  0
   -0.9133   -2.6228   -1.2876 N   0  0  0  0  0  0  0  0  0  0  0  0
    0.2564   -1.8082   -1.0872 C   0  0  0  0  0  0  0  0  0  0  0  0
    1.2634   -2.3191   -0.5272 O   0  0  0  0  0  0  0  0  0  0  0  0
    0.3395   -0.3761   -1.5507 C   0  0  0  0  0  0  0  0  0  0  0  0
    0.7202    0.5208   -0.4436 N   0  0  0  0  0  0  0  0  0  0  0  0
    1.9756    1.2353   -0.4746 C   0  0  0  0  0  0  0  0  0  0  0  0
    2.0395    2.4012    0.0047 O   0  0  0  0  0  0  0  0  0  0  0  0
    3.2066    0.6411   -1.1151 C   0  0  0  0  0  0  0  0  0  0  0  0
    4.4936    0.9133   -0.3049 C   0  0  0  0  0  0  0  0  0  0  0  0
    5.7263    0.4537   -1.1012 C   0  0  0  0  0  0  0  0  0  0  0  0
    7.0150    0.6528   -0.2844 C   0  0  0  0  0  0  0  0  0  0  0  0
    6.9612   -0.0005    1.0415 N   0  0  0  0  0  0  0  0  0  0  0  0
    7.1025   -1.4639    0.9579 C   0  0  0  0  0  0  0  0  0  0  0  0
    5.7760    0.4143    1.8219 C   0  0  0  0  0  0  0  0  0  0  0  0
    4.4572    0.2012    1.0603 C   0  0  0  0  0  0  0  0  0  0  0  0
   -0.2056    0.7374    0.6869 C   0  0  0  0  0  0  0  0  0  0  0  0
   -7.5372    3.4569    1.5265 H   0  0  0  0  0  0  0  0  0  0  0  0
   -5.7530    3.7017    1.3943 H   0  0  0  0  0  0  0  0  0  0  0  0
   -6.4362    2.7740    2.7867 H   0  0  0  0  0  0  0  0  0  0  0  0
   -7.2102    0.9821    1.2962 H   0  0  0  0  0  0  0  0  0  0  0  0
   -6.6691    1.8561   -0.1661 H   0  0  0  0  0  0  0  0  0  0  0  0
   -4.8551    3.0555   -0.8079 H   0  0  0  0  0  0  0  0  0  0  0  0
   -2.7360    3.7643   -1.7928 H   0  0  0  0  0  0  0  0  0  0  0  0
   -0.6281    2.7127   -1.1261 H   0  0  0  0  0  0  0  0  0  0  0  0
   -1.8207   -1.7277    0.8987 H   0  0  0  0  0  0  0  0  0  0  0  0
   -2.6732   -2.0997    2.4078 H   0  0  0  0  0  0  0  0  0  0  0  0
   -4.3485   -1.2308   -0.0187 H   0  0  0  0  0  0  0  0  0  0  0  0
   -4.7967   -2.1996    1.4069 H   0  0  0  0  0  0  0  0  0  0  0  0
   -2.8708   -3.8938    0.3865 H   0  0  0  0  0  0  0  0  0  0  0  0
   -4.5891   -3.9519   -0.0688 H   0  0  0  0  0  0  0  0  0  0  0  0
   -4.2447   -2.6712   -2.1050 H   0  0  0  0  0  0  0  0  0  0  0  0
   -3.1118   -4.0578   -2.0662 H   0  0  0  0  0  0  0  0  0  0  0  0
   -2.4226   -1.1313   -1.3941 H   0  0  0  0  0  0  0  0  0  0  0  0
   -2.0477   -1.9657   -2.9360 H   0  0  0  0  0  0  0  0  0  0  0  0
   -0.8650   -3.6157   -0.9647 H   0  0  0  0  0  0  0  0  0  0  0  0
    1.0733   -0.3219   -2.3817 H   0  0  0  0  0  0  0  0  0  0  0  0
   -0.6066   -0.0218   -1.9985 H   0  0  0  0  0  0  0  0  0  0  0  0
    3.3058    1.0838   -2.1303 H   0  0  0  0  0  0  0  0  0  0  0  0
    3.0867   -0.4571   -1.2327 H   0  0  0  0  0  0  0  0  0  0  0  0
    4.5879    2.0102   -0.1347 H   0  0  0  0  0  0  0  0  0  0  0  0
    5.6235   -0.6139   -1.3953 H   0  0  0  0  0  0  0  0  0  0  0  0
    5.8037    1.0470   -2.0400 H   0  0  0  0  0  0  0  0  0  0  0  0
    7.1855    1.7424   -0.1412 H   0  0  0  0  0  0  0  0  0  0  0  0
    7.8827    0.2707   -0.8669 H   0  0  0  0  0  0  0  0  0  0  0  0
    7.1093   -1.9066    1.9749 H   0  0  0  0  0  0  0  0  0  0  0  0
    6.2824   -1.9282    0.3745 H   0  0  0  0  0  0  0  0  0  0  0  0
    8.0706   -1.7231    0.4824 H   0  0  0  0  0  0  0  0  0  0  0  0
    5.7377   -0.1375    2.7871 H   0  0  0  0  0  0  0  0  0  0  0  0
    5.8756    1.4918    2.0803 H   0  0  0  0  0  0  0  0  0  0  0  0
    3.6260    0.6097    1.6753 H   0  0  0  0  0  0  0  0  0  0  0  0
    4.2669   -0.8856    0.9251 H   0  0  0  0  0  0  0  0  0  0  0  0
    0.2266    1.4519    1.4191 H   0  0  0  0  0  0  0  0  0  0  0  0
   -0.3110   -0.2083    1.2445 H   0  0  0  0  0  0  0  0  0  0  0  0
  1  2  1  0
  2  3  1  0
  3  4  1  0
  4  5  2  0
  5  6  1  0
  6  7  2  0
  7  8  1  0
  8  9  2  0
  9 10  1  0
 10 11  1  0
 11 12  1  0
 12 13  1  0
 13 14  1  0
 14 15  1  0
 15 16  1  0
 16 17  1  0
 17 18  2  0
 17 19  1  0
 19 20  1  0
 20 21  1  0
 21 22  2  0
 21 23  1  0
 23 24  1  0
 24 25  1  0
 25 26  1  0
 26 27  1  0
 27 28  1  0
 27 29  1  0
 29 30  1  0
 20 31  1  0
  9  4  1  0
 30 24  1  0
 31  8  1  0
  1 32  1  0
  1 33  1  0
  1 34  1  0
  2 35  1  0
  2 36  1  0
  5 37  1  0
  6 38  1  0
  7 39  1  0
 11 40  1  0
 11 41  1  0
 12 42  1  0
 12 43  1  0
 13 44  1  0
 13 45  1  0
 14 46  1  0
 14 47  1  0
 15 48  1  0
 15 49  1  0
 16 50  1  0
 19 51  1  0
 19 52  1  0
 23 53  1  0
 23 54  1  0
 24 55  1  0
 25 56  1  0
 25 57  1  0
 26 58  1  0
 26 59  1  0
 28 60  1  0
 28 61  1  0
 28 62  1  0
 29 63  1  0
 29 64  1  0
 30 65  1  0
 30 66  1  0
 31 67  1  0
 31 68  1  0
M  END
$$$$
