
     RDKit          3D

 85 88  0  0  0  0  0  0  0  0999 V2000
   -3.7006   -5.3011   -0.3875 C   0  0  0  0  0  0  0  0  0  0  0  0
   -2.5637   -4.3219   -0.3707 C   0  0  0  0  0  0  0  0  0  0  0  0
   -1.7094   -4.3876   -1.2993 O   0  0  0  0  0  0  0  0  0  0  0  0
   -2.4354   -3.3022    0.6493 N   0  0  0  0  0  0  0  0  0  0  0  0
   -3.3898   -3.1769    1.7611 C   0  0  0  0  0  0  0  0  0  0  0  0
   -4.7612   -2.7017    1.2516 C   0  0  0  0  0  0  0  0  0  0  0  0
   -5.3952   -1.6235    2.1516 C   0  0  0  0  0  0  0  0  0  0  0  0
   -6.4150   -0.7620    1.3842 C   0  0  0  0  0  0  0  0  0  0  0  0
   -5.8400    0.5728    0.8695 C   0  0  0  0  0  0  0  0  0  0  0  0
   -4.8254    0.4497   -0.2906 C   0  0  0  0  0  0  0  0  0  0  0  0
   -3.3543    0.5377    0.1995 C   0  0  0  0  0  0  0  0  0  0  0  0
   -2.3231    0.4284   -0.8699 N   0  0  0  0  0  0  0  0  0  0  0  0
   -2.5824    1.2348   -2.0896 C   0  0  0  0  0  0  0  0  0  0  0  0
   -2.6970    2.7542   -1.7969 C   0  0  0  0  0  0  0  0  0  0  0  0
   -3.1301    3.5062   -3.0630 C   0  0  0  0  0  0  0  0  0  0  0  0
   -1.3751    3.3295   -1.2704 C   0  0  0  0  0  0  0  0  0  0  0  0
   -1.9916   -0.9821   -1.1920 C   0  0  0  0  0  0  0  0  0  0  0  0
   -0.9444   -1.5054   -0.2287 C   0  0  0  0  0  0  0  0  0  0  0  0
    0.3473   -0.9465   -0.2649 C   0  0  0  0  0  0  0  0  0  0  0  0
    1.3291   -1.3341    0.6659 C   0  0  0  0  0  0  0  0  0  0  0  0
    2.7355   -0.8890    0.5482 C   0  0  0  0  0  0  0  0  0  0  0  0
    3.5967   -1.7939    0.3874 O   0  0  0  0  0  0  0  0  0  0  0  0
    3.1500    0.5024    0.6565 N   0  0  0  0  0  0  0  0  0  0  0  0
    2.1754    1.5936    0.5064 C   0  0  0  0  0  0  0  0  0  0  0  0
    2.2888    2.2167   -0.9078 C   0  0  0  0  0  0  0  0  0  0  0  0
    3.2633    1.4567   -1.8361 C   0  0  0  0  0  0  0  0  0  0  0  0
    4.6385    1.1807   -1.1850 C   0  0  0  0  0  0  0  0  0  0  0  0
    4.5247    0.9517    0.3396 C   0  0  0  0  0  0  0  0  0  0  0  0
    5.6474    0.0554    0.9160 C   0  0  0  0  0  0  0  0  0  0  0  0
    6.9695    0.7813    0.9375 C   0  0  0  0  0  0  0  0  0  0  0  0
    7.8841    0.6224   -0.1186 C   0  0  0  0  0  0  0  0  0  0  0  0
    9.0957    1.3206   -0.1141 C   0  0  0  0  0  0  0  0  0  0  0  0
    9.3975    2.1894    0.9376 C   0  0  0  0  0  0  0  0  0  0  0  0
    8.4892    2.3603    1.9868 C   0  0  0  0  0  0  0  0  0  0  0  0
    7.2776    1.6621    1.9882 C   0  0  0  0  0  0  0  0  0  0  0  0
    1.0131   -2.3015    1.6277 C   0  0  0  0  0  0  0  0  0  0  0  0
   -0.2455   -2.8984    1.6444 C   0  0  0  0  0  0  0  0  0  0  0  0
   -1.2181   -2.5380    0.7035 C   0  0  0  0  0  0  0  0  0  0  0  0
   -3.4568   -6.1559   -1.0562 H   0  0  0  0  0  0  0  0  0  0  0  0
   -3.8881   -5.7074    0.6270 H   0  0  0  0  0  0  0  0  0  0  0  0
   -4.6188   -4.8064   -0.7739 H   0  0  0  0  0  0  0  0  0  0  0  0
   -3.4905   -4.1497    2.2871 H   0  0  0  0  0  0  0  0  0  0  0  0
   -2.9860   -2.4673    2.5183 H   0  0  0  0  0  0  0  0  0  0  0  0
   -4.6531   -2.3250    0.2205 H   0  0  0  0  0  0  0  0  0  0  0  0
   -5.4569   -3.5670    1.1961 H   0  0  0  0  0  0  0  0  0  0  0  0
   -4.6301   -0.9631    2.6187 H   0  0  0  0  0  0  0  0  0  0  0  0
   -5.9130   -2.1406    2.9898 H   0  0  0  0  0  0  0  0  0  0  0  0
   -7.2395   -0.5120    2.0880 H   0  0  0  0  0  0  0  0  0  0  0  0
   -6.8792   -1.3308    0.5488 H   0  0  0  0  0  0  0  0  0  0  0  0
   -5.4066    1.1510    1.7156 H   0  0  0  0  0  0  0  0  0  0  0  0
   -6.7048    1.1737    0.5047 H   0  0  0  0  0  0  0  0  0  0  0  0
   -5.0320    1.2976   -0.9742 H   0  0  0  0  0  0  0  0  0  0  0  0
   -5.0026   -0.4651   -0.8897 H   0  0  0  0  0  0  0  0  0  0  0  0
   -3.1734   -0.2398    0.9688 H   0  0  0  0  0  0  0  0  0  0  0  0
   -3.2076    1.5043    0.7280 H   0  0  0  0  0  0  0  0  0  0  0  0
   -3.4920    0.8633   -2.6128 H   0  0  0  0  0  0  0  0  0  0  0  0
   -1.7393    1.1010   -2.8035 H   0  0  0  0  0  0  0  0  0  0  0  0
   -3.4758    2.9446   -1.0305 H   0  0  0  0  0  0  0  0  0  0  0  0
   -4.1126    3.1231   -3.4156 H   0  0  0  0  0  0  0  0  0  0  0  0
   -2.3837    3.3751   -3.8763 H   0  0  0  0  0  0  0  0  0  0  0  0
   -3.2397    4.5908   -2.8472 H   0  0  0  0  0  0  0  0  0  0  0  0
   -1.0186    2.7508   -0.3917 H   0  0  0  0  0  0  0  0  0  0  0  0
   -1.5213    4.3835   -0.9535 H   0  0  0  0  0  0  0  0  0  0  0  0
   -0.6039    3.3070   -2.0711 H   0  0  0  0  0  0  0  0  0  0  0  0
   -1.5604   -1.0743   -2.2130 H   0  0  0  0  0  0  0  0  0  0  0  0
   -2.9058   -1.6093   -1.1992 H   0  0  0  0  0  0  0  0  0  0  0  0
    0.5900   -0.2304   -1.0388 H   0  0  0  0  0  0  0  0  0  0  0  0
    2.3946    2.3797    1.2632 H   0  0  0  0  0  0  0  0  0  0  0  0
    1.1388    1.2790    0.7339 H   0  0  0  0  0  0  0  0  0  0  0  0
    2.6259    3.2728   -0.8217 H   0  0  0  0  0  0  0  0  0  0  0  0
    1.2897    2.2143   -1.3851 H   0  0  0  0  0  0  0  0  0  0  0  0
    2.7988    0.4847   -2.1167 H   0  0  0  0  0  0  0  0  0  0  0  0
    3.4073    2.0328   -2.7743 H   0  0  0  0  0  0  0  0  0  0  0  0
    5.0843    0.2891   -1.6807 H   0  0  0  0  0  0  0  0  0  0  0  0
    5.3179    2.0431   -1.3760 H   0  0  0  0  0  0  0  0  0  0  0  0
    4.6645    1.9483    0.8216 H   0  0  0  0  0  0  0  0  0  0  0  0
    5.7691   -0.8705    0.3194 H   0  0  0  0  0  0  0  0  0  0  0  0
    5.3826   -0.2445    1.9527 H   0  0  0  0  0  0  0  0  0  0  0  0
    7.6590   -0.0424   -0.9432 H   0  0  0  0  0  0  0  0  0  0  0  0
    9.7990    1.1878   -0.9276 H   0  0  0  0  0  0  0  0  0  0  0  0
   10.3347    2.7287    0.9411 H   0  0  0  0  0  0  0  0  0  0  0  0
    8.7225    3.0358    2.7979 H   0  0  0  0  0  0  0  0  0  0  0  0
    6.5777    1.8115    2.8022 H   0  0  0  0  0  0  0  0  0  0  0  0
    1.7616   -2.6299    2.3384 H   0  0  0  0  0  0  0  0  0  0  0  0
   -0.4521   -3.6831    2.3632 H   0  0  0  0  0  0  0  0  0  0  0  0
  1  2  1  0
  2  3  2  0
  2  4  1  0
  4  5  1  0
  5  6  1  0
  6  7  1  0
  7  8  1  0
  8  9  1  0
  9 10  1  0
 10 11  1  0
 11 12  1  0
 12 13  1  0
 13 14  1  0
 14 15  1  0
 14 16  1  0
 12 17  1  0
 17 18  1  0
 18 19  2  0
 19 20  1  0
 20 21  1  0
 21 22  2  0
 21 23  1  0
 23 24  1  0
 24 25  1  0
 25 26  1  0
 26 27  1  0
 27 28  1  0
 28 29  1  0
 29 30  1  0
 30 31  2  0
 31 32  1  0
 32 33  2  0
 33 34  1  0
 34 35  2  0
 20 36  2  0
 36 37  1  0
 37 38  2  0
 38  4  1  0
 38 18  1  0
 28 23  1  0
 35 30  1  0
  1 39  1  0
  1 40  1  0
  1 41  1  0
  5 42  1  0
  5 43  1  0
  6 44  1  0
  6 45  1  0
  7 46  1  0
  7 47  1  0
  8 48  1  0
  8 49  1  0
  9 50  1  0
  9 51  1  0
 10 52  1  0
 10 53  1  0
 11 54  1  0
 11 55  1  0
 13 56  1  0
 13 57  1  0
 14 58  1  0
 15 59  1  0
 15 60  1  0
 15 61  1  0
 16 62  1  0
 16 63  1  0
 16 64  1  0
 17 65  1  0
 17 66  1  0
 19 67  1  0
 24 68  1  0
 24 69  1  0
 25 70  1  0
 25 71  1  0
 26 72  1  0
 26 73  1  0
 27 74  1  0
 27 75  1  0
 28 76  1  0
 29 77  1  0
 29 78  1  0
 31 79  1  0
 32 80  1  0
 33 81  1  0
 34 82  1  0
 35 83  1  0
 36 84  1  0
 37 85  1  0
M  END
$$$$
