
     RDKit          3D

 64 67  0  0  0  0  0  0  0  0999 V2000
    7.3031   -2.4988   -0.1423 C   0  0  0  0  0  0  0  0  0  0  0  0
    6.1665   -1.5784    0.1471 C   0  0  0  0  0  0  0  0  0  0  0  0
    5.1810   -1.7814    1.0973 C   0  0  0  0  0  0  0  0  0  0  0  0
    4.3959   -0.6525    0.9983 C   0  0  0  0  0  0  0  0  0  0  0  0
    3.2564   -0.3732    1.8215 N   0  0  0  0  0  0  0  0  0  0  0  0
    1.9876    0.0657    1.3088 C   0  0  0  0  0  0  0  0  0  0  0  0
    1.0722    0.6651    2.1768 C   0  0  0  0  0  0  0  0  0  0  0  0
   -0.1725    1.0811    1.7117 C   0  0  0  0  0  0  0  0  0  0  0  0
   -0.5490    0.8669    0.3784 C   0  0  0  0  0  0  0  0  0  0  0  0
    0.3542    0.2292   -0.5142 C   0  0  0  0  0  0  0  0  0  0  0  0
    1.6264   -0.1427   -0.0335 C   0  0  0  0  0  0  0  0  0  0  0  0
    0.0405    0.0490   -1.9913 C   0  0  0  0  0  0  0  0  0  0  0  0
    0.2397   -1.3301   -2.4827 N   0  0  0  0  0  0  0  0  0  0  0  0
   -0.8223   -2.2759   -2.0997 C   0  0  0  0  0  0  0  0  0  0  0  0
   -0.4939   -3.0255   -0.7936 C   0  0  0  0  0  0  0  0  0  0  0  0
   -1.7207   -3.6907   -0.1332 C   0  0  0  0  0  0  0  0  0  0  0  0
   -2.8612   -2.7389    0.2901 C   0  0  0  0  0  0  0  0  0  0  0  0
   -2.4359   -1.6486    1.3021 C   0  0  0  0  0  0  0  0  0  0  0  0
   -3.2544   -0.3492    1.1814 C   0  0  0  0  0  0  0  0  0  0  0  0
   -3.0050    0.4567   -0.1136 C   0  0  0  0  0  0  0  0  0  0  0  0
   -1.8342    1.3546   -0.0439 N   0  0  0  0  0  0  0  0  0  0  0  0
   -1.8986    2.6689   -0.6321 C   0  0  0  0  0  0  0  0  0  0  0  0
   -0.9017    3.1238   -1.2572 O   0  0  0  0  0  0  0  0  0  0  0  0
   -3.1006    3.5138   -0.4949 C   0  0  0  0  0  0  0  0  0  0  0  0
   -3.7964    3.5755    0.7207 C   0  0  0  0  0  0  0  0  0  0  0  0
   -4.9469    4.3573    0.8254 C   0  0  0  0  0  0  0  0  0  0  0  0
   -5.3954    5.0722   -0.2902 C   0  0  0  0  0  0  0  0  0  0  0  0
   -4.7041    5.0133   -1.4594 N   0  0  0  0  0  0  0  0  0  0  0  0
   -3.5767    4.2613   -1.5859 C   0  0  0  0  0  0  0  0  0  0  0  0
    4.9288    0.1861    0.0859 N   0  0  0  0  0  0  0  0  0  0  0  0
    4.4498    1.5115   -0.2918 C   0  0  0  0  0  0  0  0  0  0  0  0
    6.0007   -0.3774   -0.4480 N   0  0  0  0  0  0  0  0  0  0  0  0
    8.1859   -2.1974    0.4587 H   0  0  0  0  0  0  0  0  0  0  0  0
    7.5615   -2.4530   -1.2230 H   0  0  0  0  0  0  0  0  0  0  0  0
    7.0243   -3.5427    0.1168 H   0  0  0  0  0  0  0  0  0  0  0  0
    5.0489   -2.6299    1.7569 H   0  0  0  0  0  0  0  0  0  0  0  0
    3.3227   -0.6165    2.8356 H   0  0  0  0  0  0  0  0  0  0  0  0
    1.3333    0.8290    3.2148 H   0  0  0  0  0  0  0  0  0  0  0  0
   -0.8538    1.5711    2.3953 H   0  0  0  0  0  0  0  0  0  0  0  0
    2.3389   -0.6070   -0.7003 H   0  0  0  0  0  0  0  0  0  0  0  0
    0.7252    0.7160   -2.5582 H   0  0  0  0  0  0  0  0  0  0  0  0
   -0.9820    0.3970   -2.2507 H   0  0  0  0  0  0  0  0  0  0  0  0
    1.1928   -1.7003   -2.2718 H   0  0  0  0  0  0  0  0  0  0  0  0
   -0.9245   -3.0278   -2.9107 H   0  0  0  0  0  0  0  0  0  0  0  0
   -1.7971   -1.7614   -2.0608 H   0  0  0  0  0  0  0  0  0  0  0  0
    0.2412   -3.8224   -1.0374 H   0  0  0  0  0  0  0  0  0  0  0  0
    0.0216   -2.3740   -0.0712 H   0  0  0  0  0  0  0  0  0  0  0  0
   -1.3804   -4.2503    0.7673 H   0  0  0  0  0  0  0  0  0  0  0  0
   -2.1379   -4.4416   -0.8433 H   0  0  0  0  0  0  0  0  0  0  0  0
   -3.6496   -3.3567    0.7722 H   0  0  0  0  0  0  0  0  0  0  0  0
   -3.3526   -2.3155   -0.6062 H   0  0  0  0  0  0  0  0  0  0  0  0
   -1.3633   -1.4132    1.2423 H   0  0  0  0  0  0  0  0  0  0  0  0
   -2.5810   -2.0544    2.3276 H   0  0  0  0  0  0  0  0  0  0  0  0
   -4.3350   -0.6130    1.2319 H   0  0  0  0  0  0  0  0  0  0  0  0
   -3.0455    0.2997    2.0587 H   0  0  0  0  0  0  0  0  0  0  0  0
   -2.9168   -0.1936   -0.9955 H   0  0  0  0  0  0  0  0  0  0  0  0
   -3.9262    1.0459   -0.2968 H   0  0  0  0  0  0  0  0  0  0  0  0
   -3.4489    3.0209    1.5841 H   0  0  0  0  0  0  0  0  0  0  0  0
   -5.4845    4.4091    1.7629 H   0  0  0  0  0  0  0  0  0  0  0  0
   -6.2890    5.6794   -0.2238 H   0  0  0  0  0  0  0  0  0  0  0  0
   -3.0579    4.2377   -2.5355 H   0  0  0  0  0  0  0  0  0  0  0  0
    3.9635    2.0115    0.5729 H   0  0  0  0  0  0  0  0  0  0  0  0
    5.3039    2.1398   -0.6202 H   0  0  0  0  0  0  0  0  0  0  0  0
    3.7291    1.4246   -1.1305 H   0  0  0  0  0  0  0  0  0  0  0  0
  1  2  1  0
  2  3  1  0
  3  4  2  0
  4  5  1  0
  5  6  1  0
  6  7  2  0
  7  8  1  0
  8  9  2  0
  9 10  1  0
 10 11  2  0
 10 12  1  0
 12 13  1  0
 13 14  1  0
 14 15  1  0
 15 16  1  0
 16 17  1  0
 17 18  1  0
 18 19  1  0
 19 20  1  0
 20 21  1  0
 21 22  1  0
 22 23  2  0
 22 24  1  0
 24 25  2  0
 25 26  1  0
 26 27  2  0
 27 28  1  0
 28 29  2  0
  4 30  1  0
 30 31  1  0
 30 32  1  0
 32  2  2  0
 11  6  1  0
 29 24  1  0
 21  9  1  0
  1 33  1  0
  1 34  1  0
  1 35  1  0
  3 36  1  0
  5 37  1  0
  7 38  1  0
  8 39  1  0
 11 40  1  0
 12 41  1  0
 12 42  1  0
 13 43  1  0
 14 44  1  0
 14 45  1  0
 15 46  1  0
 15 47  1  0
 16 48  1  0
 16 49  1  0
 17 50  1  0
 17 51  1  0
 18 52  1  0
 18 53  1  0
 19 54  1  0
 19 55  1  0
 20 56  1  0
 20 57  1  0
 25 58  1  0
 26 59  1  0
 27 60  1  0
 29 61  1  0
 31 62  1  0
 31 63  1  0
 31 64  1  0
M  END
$$$$
