
     RDKit          3D

 77 80  0  0  0  0  0  0  0  0999 V2000
   -4.8284    1.3952   -0.8590 O   0  0  0  0  0  0  0  0  0  0  0  0
   -4.6096    0.2646   -0.3381 C   0  0  0  0  0  0  0  0  0  0  0  0
   -5.7625   -0.6768   -0.0876 C   0  0  0  0  0  0  0  0  0  0  0  0
   -7.0096   -0.2555   -0.8208 C   0  0  0  0  0  0  0  0  0  0  0  0
   -7.1799   -0.5938   -2.1732 C   0  0  0  0  0  0  0  0  0  0  0  0
   -8.3137   -0.1620   -2.8692 C   0  0  0  0  0  0  0  0  0  0  0  0
   -9.2810    0.6117   -2.2224 C   0  0  0  0  0  0  0  0  0  0  0  0
  -10.3771    1.0345   -2.9007 F   0  0  0  0  0  0  0  0  0  0  0  0
   -9.1141    0.9604   -0.8785 C   0  0  0  0  0  0  0  0  0  0  0  0
   -7.9800    0.5333   -0.1798 C   0  0  0  0  0  0  0  0  0  0  0  0
   -3.2605   -0.0976    0.0264 N   0  0  0  0  0  0  0  0  0  0  0  0
   -2.1281    0.4849   -0.7075 C   0  0  0  0  0  0  0  0  0  0  0  0
   -1.6659   -0.4371   -1.8480 C   0  0  0  0  0  0  0  0  0  0  0  0
   -0.1482   -0.3164   -2.0911 C   0  0  0  0  0  0  0  0  0  0  0  0
    0.6748   -1.0997   -1.0322 C   0  0  0  0  0  0  0  0  0  0  0  0
    1.9134   -0.3451   -0.4427 C   0  0  0  0  0  0  0  0  0  0  0  0
    2.5911   -1.2298    0.6635 C   0  0  0  0  0  0  0  0  0  0  0  0
    4.0015   -1.7017    0.2982 C   0  0  0  0  0  0  0  0  0  0  0  0
    4.8410   -0.5323   -0.0156 N   0  0  0  0  0  0  0  0  0  0  0  0
    6.2512   -0.9313   -0.1973 C   0  0  0  0  0  0  0  0  0  0  0  0
    7.1514    0.2767   -0.1555 C   0  0  0  0  0  0  0  0  0  0  0  0
    7.9065    0.6484   -1.2800 C   0  0  0  0  0  0  0  0  0  0  0  0
    8.7275    1.7799   -1.2343 C   0  0  0  0  0  0  0  0  0  0  0  0
    8.7975    2.5478   -0.0693 C   0  0  0  0  0  0  0  0  0  0  0  0
    8.0471    2.1858    1.0524 C   0  0  0  0  0  0  0  0  0  0  0  0
    7.2283    1.0531    1.0120 C   0  0  0  0  0  0  0  0  0  0  0  0
    4.3321    0.2660   -1.1632 C   0  0  0  0  0  0  0  0  0  0  0  0
    2.9180   -0.1325   -1.6264 C   0  0  0  0  0  0  0  0  0  0  0  0
    1.4984    1.0179    0.1583 C   0  0  0  0  0  0  0  0  0  0  0  0
    1.8004    2.0693   -0.4692 O   0  0  0  0  0  0  0  0  0  0  0  0
    0.7692    1.2034    1.3506 O   0  0  0  0  0  0  0  0  0  0  0  0
    0.2267    0.2225    2.2388 C   0  0  0  0  0  0  0  0  0  0  0  0
   -1.0497    0.8011    2.8946 C   0  0  0  0  0  0  0  0  0  0  0  0
   -0.6904    1.6929    3.9213 O   0  0  0  0  0  0  0  0  0  0  0  0
   -2.0660   -0.2591    3.4230 C   0  0  0  0  0  0  0  0  0  0  0  0
   -1.4355   -1.4430    3.8512 O   0  0  0  0  0  0  0  0  0  0  0  0
   -3.2902   -0.5143    2.4932 C   0  0  0  0  0  0  0  0  0  0  0  0
   -2.9920   -1.0882    1.0868 C   0  0  0  0  0  0  0  0  0  0  0  0
   -5.4813   -1.6961   -0.4239 H   0  0  0  0  0  0  0  0  0  0  0  0
   -5.9620   -0.7285    1.0037 H   0  0  0  0  0  0  0  0  0  0  0  0
   -6.4303   -1.1817   -2.6884 H   0  0  0  0  0  0  0  0  0  0  0  0
   -8.4365   -0.4224   -3.9113 H   0  0  0  0  0  0  0  0  0  0  0  0
   -9.8581    1.5660   -0.3775 H   0  0  0  0  0  0  0  0  0  0  0  0
   -7.8557    0.8209    0.8576 H   0  0  0  0  0  0  0  0  0  0  0  0
   -2.3881    1.4833   -1.1217 H   0  0  0  0  0  0  0  0  0  0  0  0
   -1.3012    0.6680   -0.0038 H   0  0  0  0  0  0  0  0  0  0  0  0
   -2.2083   -0.1529   -2.7749 H   0  0  0  0  0  0  0  0  0  0  0  0
   -1.9282   -1.4957   -1.6320 H   0  0  0  0  0  0  0  0  0  0  0  0
    0.1281    0.7593   -2.1253 H   0  0  0  0  0  0  0  0  0  0  0  0
    0.0845   -0.7314   -3.0963 H   0  0  0  0  0  0  0  0  0  0  0  0
    1.0216   -2.0476   -1.5033 H   0  0  0  0  0  0  0  0  0  0  0  0
    0.0118   -1.4540   -0.2290 H   0  0  0  0  0  0  0  0  0  0  0  0
    1.9758   -2.1234    0.9072 H   0  0  0  0  0  0  0  0  0  0  0  0
    2.7034   -0.6605    1.6100 H   0  0  0  0  0  0  0  0  0  0  0  0
    3.9714   -2.4160   -0.5548 H   0  0  0  0  0  0  0  0  0  0  0  0
    4.4152   -2.2439    1.1767 H   0  0  0  0  0  0  0  0  0  0  0  0
    6.3749   -1.5018   -1.1448 H   0  0  0  0  0  0  0  0  0  0  0  0
    6.5708   -1.6057    0.6274 H   0  0  0  0  0  0  0  0  0  0  0  0
    7.8616    0.0646   -2.1907 H   0  0  0  0  0  0  0  0  0  0  0  0
    9.3071    2.0624   -2.1036 H   0  0  0  0  0  0  0  0  0  0  0  0
    9.4333    3.4235   -0.0365 H   0  0  0  0  0  0  0  0  0  0  0  0
    8.1011    2.7815    1.9535 H   0  0  0  0  0  0  0  0  0  0  0  0
    6.6509    0.7822    1.8870 H   0  0  0  0  0  0  0  0  0  0  0  0
    4.3246    1.3349   -0.8607 H   0  0  0  0  0  0  0  0  0  0  0  0
    5.0004    0.1929   -2.0507 H   0  0  0  0  0  0  0  0  0  0  0  0
    3.0151   -1.0708   -2.2176 H   0  0  0  0  0  0  0  0  0  0  0  0
    2.5456    0.6282   -2.3451 H   0  0  0  0  0  0  0  0  0  0  0  0
   -0.0117   -0.7004    1.7082 H   0  0  0  0  0  0  0  0  0  0  0  0
    0.9765   -0.0312    3.0170 H   0  0  0  0  0  0  0  0  0  0  0  0
   -1.5776    1.4131    2.1338 H   0  0  0  0  0  0  0  0  0  0  0  0
   -0.2499    1.1618    4.6368 H   0  0  0  0  0  0  0  0  0  0  0  0
   -2.5220    0.1802    4.3381 H   0  0  0  0  0  0  0  0  0  0  0  0
   -1.3599   -2.0602    3.0820 H   0  0  0  0  0  0  0  0  0  0  0  0
   -3.9710   -1.2184    3.0185 H   0  0  0  0  0  0  0  0  0  0  0  0
   -3.8579    0.4357    2.3955 H   0  0  0  0  0  0  0  0  0  0  0  0
   -1.9556   -1.4564    1.0141 H   0  0  0  0  0  0  0  0  0  0  0  0
   -3.6126   -1.9927    0.9175 H   0  0  0  0  0  0  0  0  0  0  0  0
  1  2  2  0
  2  3  1  0
  3  4  1  0
  4  5  2  0
  5  6  1  0
  6  7  2  0
  7  8  1  0
  7  9  1  0
  9 10  2  0
  2 11  1  0
 11 12  1  0
 12 13  1  0
 13 14  1  0
 14 15  1  0
 15 16  1  0
 16 17  1  0
 17 18  1  0
 18 19  1  0
 19 20  1  0
 20 21  1  0
 21 22  2  0
 22 23  1  0
 23 24  2  0
 24 25  1  0
 25 26  2  0
 19 27  1  0
 27 28  1  0
 16 29  1  0
 29 30  2  0
 29 31  1  0
 31 32  1  0
 32 33  1  0
 33 34  1  0
 33 35  1  0
 35 36  1  0
 35 37  1  0
 37 38  1  0
 10  4  1  0
 38 11  1  0
 28 16  1  0
 26 21  1  0
  3 39  1  0
  3 40  1  0
  5 41  1  0
  6 42  1  0
  9 43  1  0
 10 44  1  0
 12 45  1  0
 12 46  1  0
 13 47  1  0
 13 48  1  0
 14 49  1  0
 14 50  1  0
 15 51  1  0
 15 52  1  0
 17 53  1  0
 17 54  1  0
 18 55  1  0
 18 56  1  0
 20 57  1  0
 20 58  1  0
 22 59  1  0
 23 60  1  0
 24 61  1  0
 25 62  1  0
 26 63  1  0
 27 64  1  0
 27 65  1  0
 28 66  1  0
 28 67  1  0
 32 68  1  0
 32 69  1  0
 33 70  1  0
 34 71  1  0
 35 72  1  0
 36 73  1  0
 37 74  1  0
 37 75  1  0
 38 76  1  0
 38 77  1  0
M  END
$$$$
