
     RDKit          3D

 89 90  0  0  0  0  0  0  0  0999 V2000
   -1.1616    5.5561    1.2994 C   0  0  0  0  0  0  0  0  0  0  0  0
   -1.4514    4.0463    1.2775 C   0  0  0  0  0  0  0  0  0  0  0  0
   -2.6111    3.7231    2.2316 C   0  0  0  0  0  0  0  0  0  0  0  0
   -1.7269    3.5863   -0.1782 C   0  0  0  0  0  0  0  0  0  0  0  0
   -1.8221    2.0465   -0.3580 C   0  0  2  0  0  0  0  0  0  0  0  0
   -1.5389    1.7012   -1.7150 O   0  0  0  0  0  0  0  0  0  0  0  0
   -0.2765    1.6791   -2.3332 C   0  0  0  0  0  0  0  0  0  0  0  0
   -0.2431    1.8838   -3.5779 O   0  0  0  0  0  0  0  0  0  0  0  0
    1.0251    1.3864   -1.5938 C   0  0  2  0  0  0  0  0  0  0  0  0
    1.4996    2.6052   -0.8022 C   0  0  0  0  0  0  0  0  0  0  0  0
    2.0792    1.0140   -2.5519 N   0  0  0  0  0  0  0  0  0  0  0  0
    3.0147   -0.0665   -2.3875 C   0  0  0  0  0  0  0  0  0  0  0  0
    3.3813   -0.6976   -3.4158 O   0  0  0  0  0  0  0  0  0  0  0  0
    3.6417   -0.4143   -1.0508 C   0  0  2  0  0  0  0  0  0  0  0  0
    5.1127    0.0937   -0.9290 C   0  0  0  0  0  0  0  0  0  0  0  0
    5.2176    1.6240   -0.9355 C   0  0  0  0  0  0  0  0  0  0  0  0
    6.0502   -0.5081   -1.9879 C   0  0  0  0  0  0  0  0  0  0  0  0
    3.6122   -1.8397   -0.9005 O   0  0  0  0  0  0  0  0  0  0  0  0
    3.9649   -2.5407    0.2617 C   0  0  0  0  0  0  0  0  0  0  0  0
    4.5962   -3.6202    0.1351 O   0  0  0  0  0  0  0  0  0  0  0  0
    3.5301   -2.1031    1.6456 C   0  0  2  0  0  0  0  0  0  0  0  0
    4.7328   -1.9392    2.5929 C   0  0  0  0  0  0  0  0  0  0  0  0
    2.5270   -3.0561    2.1717 N   0  0  0  0  0  0  0  0  0  0  0  0
    2.9172   -4.3687    2.7053 C   0  0  0  0  0  0  0  0  0  0  0  0
    1.1118   -2.7943    2.0461 C   0  0  0  0  0  0  0  0  0  0  0  0
    0.3104   -3.3113    2.8794 O   0  0  0  0  0  0  0  0  0  0  0  0
    0.5367   -1.9887    0.9010 C   0  0  1  0  0  0  0  0  0  0  0  0
   -0.1049   -2.9220   -0.1348 C   0  0  0  0  0  0  0  0  0  0  0  0
   -0.3969   -0.9798    1.4181 N   0  0  0  0  0  0  0  0  0  0  0  0
   -1.7992   -1.2137    1.5870 C   0  0  0  0  0  0  0  0  0  0  0  0
   -2.2275   -1.6512    2.6908 O   0  0  0  0  0  0  0  0  0  0  0  0
   -2.7530   -0.8572    0.4797 C   0  0  1  0  0  0  0  0  0  0  0  0
   -3.7491   -2.0078    0.1986 C   0  0  0  0  0  0  0  0  0  0  0  0
   -4.5377   -1.7690   -1.0659 C   0  0  0  0  0  0  0  0  0  0  0  0
   -3.9010   -1.8508   -2.3200 C   0  0  0  0  0  0  0  0  0  0  0  0
   -4.6273   -1.6380   -3.4984 C   0  0  0  0  0  0  0  0  0  0  0  0
   -5.9912   -1.3529   -3.4353 C   0  0  0  0  0  0  0  0  0  0  0  0
   -6.6329   -1.2747   -2.1944 C   0  0  0  0  0  0  0  0  0  0  0  0
   -5.9130   -1.4840   -1.0136 C   0  0  0  0  0  0  0  0  0  0  0  0
   -3.4414    0.4095    0.7819 N   0  0  0  0  0  0  0  0  0  0  0  0
   -4.5152    0.4760    1.7806 C   0  0  0  0  0  0  0  0  0  0  0  0
   -3.2208    1.5610   -0.0484 C   0  0  0  0  0  0  0  0  0  0  0  0
   -4.2153    2.1590   -0.5418 O   0  0  0  0  0  0  0  0  0  0  0  0
   -0.2640    5.7830    0.6826 H   0  0  0  0  0  0  0  0  0  0  0  0
   -0.9545    5.9006    2.3395 H   0  0  0  0  0  0  0  0  0  0  0  0
   -2.0292    6.1280    0.8964 H   0  0  0  0  0  0  0  0  0  0  0  0
   -0.5484    3.5286    1.6676 H   0  0  0  0  0  0  0  0  0  0  0  0
   -3.5835    4.0529    1.8070 H   0  0  0  0  0  0  0  0  0  0  0  0
   -2.6362    2.6328    2.4299 H   0  0  0  0  0  0  0  0  0  0  0  0
   -2.4620    4.2189    3.2164 H   0  0  0  0  0  0  0  0  0  0  0  0
   -2.6405    4.0895   -0.5659 H   0  0  0  0  0  0  0  0  0  0  0  0
   -0.9029    3.9642   -0.8177 H   0  0  0  0  0  0  0  0  0  0  0  0
   -1.1039    1.5315    0.3161 H   0  0  0  0  0  0  0  0  0  0  0  0
    0.8444    0.5420   -0.8937 H   0  0  0  0  0  0  0  0  0  0  0  0
    0.9089    2.7270    0.1183 H   0  0  0  0  0  0  0  0  0  0  0  0
    2.5449    2.4679   -0.4785 H   0  0  0  0  0  0  0  0  0  0  0  0
    1.4429    3.5291   -1.4183 H   0  0  0  0  0  0  0  0  0  0  0  0
    2.1876    1.5843   -3.4257 H   0  0  0  0  0  0  0  0  0  0  0  0
    3.0420    0.0589   -0.2502 H   0  0  0  0  0  0  0  0  0  0  0  0
    5.5014   -0.2373    0.0594 H   0  0  0  0  0  0  0  0  0  0  0  0
    4.7057    2.0442   -0.0458 H   0  0  0  0  0  0  0  0  0  0  0  0
    4.7766    2.0515   -1.8588 H   0  0  0  0  0  0  0  0  0  0  0  0
    6.2837    1.9347   -0.8751 H   0  0  0  0  0  0  0  0  0  0  0  0
    7.1020   -0.2628   -1.7387 H   0  0  0  0  0  0  0  0  0  0  0  0
    5.9606   -1.6149   -2.0086 H   0  0  0  0  0  0  0  0  0  0  0  0
    5.8382   -0.0977   -2.9939 H   0  0  0  0  0  0  0  0  0  0  0  0
    3.0743   -1.0901    1.6074 H   0  0  0  0  0  0  0  0  0  0  0  0
    5.4430   -2.7901    2.5249 H   0  0  0  0  0  0  0  0  0  0  0  0
    5.2952   -1.0166    2.3326 H   0  0  0  0  0  0  0  0  0  0  0  0
    4.3787   -1.8385    3.6415 H   0  0  0  0  0  0  0  0  0  0  0  0
    2.5090   -5.1718    2.0546 H   0  0  0  0  0  0  0  0  0  0  0  0
    4.0128   -4.4994    2.7512 H   0  0  0  0  0  0  0  0  0  0  0  0
    2.5094   -4.4886    3.7308 H   0  0  0  0  0  0  0  0  0  0  0  0
    1.3303   -1.4481    0.3602 H   0  0  0  0  0  0  0  0  0  0  0  0
    0.6619   -3.6131   -0.5412 H   0  0  0  0  0  0  0  0  0  0  0  0
   -0.5097   -2.3300   -0.9848 H   0  0  0  0  0  0  0  0  0  0  0  0
   -0.9108   -3.5287    0.3263 H   0  0  0  0  0  0  0  0  0  0  0  0
    0.0164   -0.2022    1.9811 H   0  0  0  0  0  0  0  0  0  0  0  0
   -2.1386   -0.7233   -0.4393 H   0  0  0  0  0  0  0  0  0  0  0  0
   -3.1923   -2.9623    0.0761 H   0  0  0  0  0  0  0  0  0  0  0  0
   -4.4311   -2.1568    1.0647 H   0  0  0  0  0  0  0  0  0  0  0  0
   -2.8464   -2.0833   -2.3876 H   0  0  0  0  0  0  0  0  0  0  0  0
   -4.1300   -1.7038   -4.4593 H   0  0  0  0  0  0  0  0  0  0  0  0
   -6.5572   -1.1941   -4.3491 H   0  0  0  0  0  0  0  0  0  0  0  0
   -7.6936   -1.0662   -2.1523 H   0  0  0  0  0  0  0  0  0  0  0  0
   -6.4343   -1.4500   -0.0644 H   0  0  0  0  0  0  0  0  0  0  0  0
   -5.4666    0.1269    1.3361 H   0  0  0  0  0  0  0  0  0  0  0  0
   -4.2733   -0.1468    2.6631 H   0  0  0  0  0  0  0  0  0  0  0  0
   -4.6644    1.5184    2.1283 H   0  0  0  0  0  0  0  0  0  0  0  0
  1  2  1  0
  2  3  1  0
  2  4  1  0
  4  5  1  0
  5  6  1  0
  6  7  1  0
  7  8  2  0
  7  9  1  0
  9 10  1  0
  9 11  1  0
 11 12  1  0
 12 13  2  0
 12 14  1  0
 14 15  1  0
 15 16  1  0
 15 17  1  0
 14 18  1  0
 18 19  1  0
 19 20  2  0
 19 21  1  0
 21 22  1  0
 21 23  1  0
 23 24  1  0
 23 25  1  0
 25 26  2  0
 25 27  1  0
 27 28  1  0
 27 29  1  0
 29 30  1  0
 30 31  2  0
 30 32  1  0
 32 33  1  0
 33 34  1  0
 34 35  2  0
 35 36  1  0
 36 37  2  0
 37 38  1  0
 38 39  2  0
 32 40  1  0
 40 41  1  0
 40 42  1  0
 42 43  2  0
 42  5  1  0
 39 34  1  0
  1 44  1  0
  1 45  1  0
  1 46  1  0
  2 47  1  0
  3 48  1  0
  3 49  1  0
  3 50  1  0
  4 51  1  0
  4 52  1  0
  5 53  1  1
  9 54  1  1
 10 55  1  0
 10 56  1  0
 10 57  1  0
 11 58  1  0
 14 59  1  1
 15 60  1  0
 16 61  1  0
 16 62  1  0
 16 63  1  0
 17 64  1  0
 17 65  1  0
 17 66  1  0
 21 67  1  6
 22 68  1  0
 22 69  1  0
 22 70  1  0
 24 71  1  0
 24 72  1  0
 24 73  1  0
 27 74  1  6
 28 75  1  0
 28 76  1  0
 28 77  1  0
 29 78  1  0
 32 79  1  6
 33 80  1  0
 33 81  1  0
 35 82  1  0
 36 83  1  0
 37 84  1  0
 38 85  1  0
 39 86  1  0
 41 87  1  0
 41 88  1  0
 41 89  1  0
M  END
$$$$
