
     RDKit          3D

 67 68  0  0  0  0  0  0  0  0999 V2000
    1.8326    3.8816    0.3371 C   0  0  0  0  0  0  0  0  0  0  0  0
    1.6788    2.4737    0.8593 C   0  0  0  0  0  0  0  0  0  0  0  0
    0.8836    1.5630    0.2563 C   0  0  0  0  0  0  0  0  0  0  0  0
    0.2967    1.7131   -1.1380 C   0  0  0  0  0  0  0  0  0  0  0  0
   -1.2332    1.4541   -1.2577 C   0  0  2  0  0  0  0  0  0  0  0  0
   -1.6672    1.7391   -2.7156 C   0  0  0  0  0  0  0  0  0  0  0  0
   -2.0237    2.3817   -0.3930 C   0  0  0  0  0  0  0  0  0  0  0  0
   -1.8814    3.6326   -0.3597 O   0  0  0  0  0  0  0  0  0  0  0  0
   -3.0662    1.6620    0.3013 C   0  0  0  0  0  0  0  0  0  0  0  0
   -4.0430    2.2718    1.0863 O   0  0  0  0  0  0  0  0  0  0  0  0
   -2.9524    0.3506    0.1013 C   0  0  0  0  0  0  0  0  0  0  0  0
   -3.7566   -0.7072    0.8481 C   0  0  2  0  0  0  0  0  0  0  0  0
   -5.2572   -0.6000    0.5570 C   0  0  0  0  0  0  0  0  0  0  0  0
   -3.4360   -0.7318    2.3584 C   0  0  0  0  0  0  0  0  0  0  0  0
   -3.9039    0.4094    3.0204 O   0  0  0  0  0  0  0  0  0  0  0  0
   -1.7133    0.0423   -0.7234 C   0  0  1  0  0  0  0  0  0  0  0  0
   -1.8905   -1.0723   -1.7979 C   0  0  0  0  0  0  0  0  0  0  0  0
   -0.5372   -1.6410   -2.1564 C   0  0  0  0  0  0  0  0  0  0  0  0
    0.0300   -2.7062   -1.5289 C   0  0  0  0  0  0  0  0  0  0  0  0
   -0.7603   -3.5499   -0.5571 C   0  0  0  0  0  0  0  0  0  0  0  0
    1.5349   -2.9226   -1.5871 C   0  0  1  0  0  0  0  0  0  0  0  0
    2.0441   -2.4677   -2.8221 O   0  0  0  0  0  0  0  0  0  0  0  0
    2.1826   -2.2134   -0.3680 C   0  0  0  0  0  0  0  0  0  0  0  0
    3.5885   -1.6239   -0.6097 C   0  0  0  0  0  0  0  0  0  0  0  0
    3.9671   -0.7130    0.5456 C   0  0  0  0  0  0  0  0  0  0  0  0
    4.2744   -1.3268    1.8907 C   0  0  0  0  0  0  0  0  0  0  0  0
    3.9227    0.6309    0.3722 C   0  0  0  0  0  0  0  0  0  0  0  0
    3.9816    1.6438    1.4938 C   0  0  0  0  0  0  0  0  0  0  0  0
    2.5747    2.0152    1.9984 C   0  0  0  0  0  0  0  0  0  0  0  0
    0.8338    4.3552    0.2356 H   0  0  0  0  0  0  0  0  0  0  0  0
    2.3563    3.8725   -0.6426 H   0  0  0  0  0  0  0  0  0  0  0  0
    2.4307    4.4989    1.0412 H   0  0  0  0  0  0  0  0  0  0  0  0
    0.8231    0.5858    0.7144 H   0  0  0  0  0  0  0  0  0  0  0  0
    0.5210    2.7166   -1.5547 H   0  0  0  0  0  0  0  0  0  0  0  0
    0.8356    0.9973   -1.7932 H   0  0  0  0  0  0  0  0  0  0  0  0
   -1.1136    1.0984   -3.4346 H   0  0  0  0  0  0  0  0  0  0  0  0
   -1.4563    2.7947   -2.9888 H   0  0  0  0  0  0  0  0  0  0  0  0
   -2.7582    1.5751   -2.8523 H   0  0  0  0  0  0  0  0  0  0  0  0
   -4.0556    3.2757    1.2092 H   0  0  0  0  0  0  0  0  0  0  0  0
   -3.4386   -1.7074    0.4972 H   0  0  0  0  0  0  0  0  0  0  0  0
   -5.4339   -0.6934   -0.5344 H   0  0  0  0  0  0  0  0  0  0  0  0
   -5.7945   -1.4215    1.0734 H   0  0  0  0  0  0  0  0  0  0  0  0
   -5.6718    0.3629    0.9118 H   0  0  0  0  0  0  0  0  0  0  0  0
   -2.3343   -0.7918    2.4928 H   0  0  0  0  0  0  0  0  0  0  0  0
   -3.8660   -1.6547    2.8157 H   0  0  0  0  0  0  0  0  0  0  0  0
   -4.8288    0.2146    3.3215 H   0  0  0  0  0  0  0  0  0  0  0  0
   -0.9966   -0.3551    0.0186 H   0  0  0  0  0  0  0  0  0  0  0  0
   -2.3945   -0.7106   -2.7118 H   0  0  0  0  0  0  0  0  0  0  0  0
   -2.5560   -1.8733   -1.4407 H   0  0  0  0  0  0  0  0  0  0  0  0
    0.0718   -1.0260   -2.8128 H   0  0  0  0  0  0  0  0  0  0  0  0
   -1.6009   -4.0465   -1.0894 H   0  0  0  0  0  0  0  0  0  0  0  0
   -1.1553   -2.9165    0.2648 H   0  0  0  0  0  0  0  0  0  0  0  0
   -0.1320   -4.3503   -0.1078 H   0  0  0  0  0  0  0  0  0  0  0  0
    1.7391   -4.0183   -1.5053 H   0  0  0  0  0  0  0  0  0  0  0  0
    2.9209   -2.9097   -2.9521 H   0  0  0  0  0  0  0  0  0  0  0  0
    2.2466   -2.9504    0.4704 H   0  0  0  0  0  0  0  0  0  0  0  0
    1.5215   -1.3893   -0.0085 H   0  0  0  0  0  0  0  0  0  0  0  0
    4.3366   -2.4465   -0.7025 H   0  0  0  0  0  0  0  0  0  0  0  0
    3.5960   -1.0545   -1.5656 H   0  0  0  0  0  0  0  0  0  0  0  0
    5.3192   -1.0852    2.1766 H   0  0  0  0  0  0  0  0  0  0  0  0
    4.1792   -2.4349    1.8669 H   0  0  0  0  0  0  0  0  0  0  0  0
    3.5753   -0.9373    2.6623 H   0  0  0  0  0  0  0  0  0  0  0  0
    3.7338    1.0306   -0.6195 H   0  0  0  0  0  0  0  0  0  0  0  0
    4.4820    2.5609    1.1203 H   0  0  0  0  0  0  0  0  0  0  0  0
    4.5967    1.2741    2.3398 H   0  0  0  0  0  0  0  0  0  0  0  0
    2.1313    1.1466    2.5329 H   0  0  0  0  0  0  0  0  0  0  0  0
    2.6663    2.8240    2.7516 H   0  0  0  0  0  0  0  0  0  0  0  0
  1  2  1  0
  2  3  2  0
  3  4  1  0
  4  5  1  0
  5  6  1  6
  5  7  1  0
  7  8  2  0
  7  9  1  0
  9 10  1  0
  9 11  2  0
 11 12  1  0
 12 13  1  0
 12 14  1  0
 14 15  1  0
 11 16  1  0
 16 17  1  0
 17 18  1  0
 18 19  2  0
 19 20  1  0
 19 21  1  0
 21 22  1  0
 21 23  1  0
 23 24  1  0
 24 25  1  0
 25 26  1  0
 25 27  2  0
 27 28  1  0
 28 29  1  0
 29  2  1  0
 16  5  1  0
  1 30  1  0
  1 31  1  0
  1 32  1  0
  3 33  1  0
  4 34  1  0
  4 35  1  0
  6 36  1  0
  6 37  1  0
  6 38  1  0
 10 39  1  0
 12 40  1  6
 13 41  1  0
 13 42  1  0
 13 43  1  0
 14 44  1  0
 14 45  1  0
 15 46  1  0
 16 47  1  1
 17 48  1  0
 17 49  1  0
 18 50  1  0
 20 51  1  0
 20 52  1  0
 20 53  1  0
 21 54  1  1
 22 55  1  0
 23 56  1  0
 23 57  1  0
 24 58  1  0
 24 59  1  0
 26 60  1  0
 26 61  1  0
 26 62  1  0
 27 63  1  0
 28 64  1  0
 28 65  1  0
 29 66  1  0
 29 67  1  0
M  END
$$$$
