
     RDKit          3D

 69 71  0  0  0  0  0  0  0  0999 V2000
    6.3838   -0.5648    0.0104 C   0  0  0  0  0  0  0  0  0  0  0  0
    5.9186   -0.0893   -1.3070 N   0  0  0  0  0  0  0  0  0  0  0  0
    7.0845    0.2693   -2.1308 C   0  0  0  0  0  0  0  0  0  0  0  0
    5.0131    1.0739   -1.1605 C   0  0  0  0  0  0  0  0  0  0  0  0
    3.5769    0.6090   -0.8848 C   0  0  0  0  0  0  0  0  0  0  0  0
    2.6139    1.7980   -0.7837 C   0  0  0  0  0  0  0  0  0  0  0  0
    1.2683    1.3323   -0.4543 N   0  0  0  0  0  0  0  0  0  0  0  0
    0.9233    0.8615    0.8599 C   0  0  0  0  0  0  0  0  0  0  0  0
    1.7655    0.9247    1.7957 O   0  0  0  0  0  0  0  0  0  0  0  0
   -0.4344    0.2633    1.1215 C   0  0  0  0  0  0  0  0  0  0  0  0
   -0.3231   -1.2597    1.3642 C   0  0  0  0  0  0  0  0  0  0  0  0
   -0.2425   -2.0462    0.0765 C   0  0  0  0  0  0  0  0  0  0  0  0
    0.6578   -1.7493   -0.7565 O   0  0  0  0  0  0  0  0  0  0  0  0
   -1.0877   -3.1876   -0.1847 N   0  0  0  0  0  0  0  0  0  0  0  0
   -0.6456   -4.2727   -1.0474 C   0  0  0  0  0  0  0  0  0  0  0  0
   -1.7626   -5.3089   -1.0261 C   0  0  0  0  0  0  0  0  0  0  0  0
   -2.6451   -4.9388    0.1618 C   0  0  0  0  0  0  0  0  0  0  0  0
   -2.4039   -3.4484    0.3989 C   0  0  0  0  0  0  0  0  0  0  0  0
   -3.4677   -2.6292   -0.2935 C   0  0  0  0  0  0  0  0  0  0  0  0
   -3.5318   -2.6120   -1.5531 O   0  0  0  0  0  0  0  0  0  0  0  0
   -4.4862   -1.9741    0.4679 N   0  0  0  0  0  0  0  0  0  0  0  0
   -4.2206   -0.7092    1.1447 C   0  0  0  0  0  0  0  0  0  0  0  0
   -4.8964    0.4498    0.3991 C   0  0  0  0  0  0  0  0  0  0  0  0
   -4.2069    1.7875    0.6754 C   0  0  0  0  0  0  0  0  0  0  0  0
   -3.0033    1.8573   -0.0842 O   0  0  0  0  0  0  0  0  0  0  0  0
   -2.1150    2.9328   -0.0144 C   0  0  0  0  0  0  0  0  0  0  0  0
   -1.9716    3.7506   -1.1415 C   0  0  0  0  0  0  0  0  0  0  0  0
   -1.0974    4.8395   -1.1203 C   0  0  0  0  0  0  0  0  0  0  0  0
   -0.3571    5.1190    0.0294 C   0  0  0  0  0  0  0  0  0  0  0  0
   -0.4803    4.3022    1.1556 C   0  0  0  0  0  0  0  0  0  0  0  0
   -1.3393    3.1906    1.1390 C   0  0  0  0  0  0  0  0  0  0  0  0
   -1.3866    2.3208    2.3308 C   0  0  0  0  0  0  0  0  0  0  0  0
   -1.6721    2.8394    3.4453 O   0  0  0  0  0  0  0  0  0  0  0  0
   -1.0540    0.9234    2.2801 N   0  0  0  0  0  0  0  0  0  0  0  0
    7.0370   -1.4565   -0.1097 H   0  0  0  0  0  0  0  0  0  0  0  0
    6.9534    0.2262    0.5481 H   0  0  0  0  0  0  0  0  0  0  0  0
    5.5287   -0.8894    0.6381 H   0  0  0  0  0  0  0  0  0  0  0  0
    6.7566    0.5750   -3.1468 H   0  0  0  0  0  0  0  0  0  0  0  0
    7.6633    1.1003   -1.6717 H   0  0  0  0  0  0  0  0  0  0  0  0
    7.7449   -0.6124   -2.2616 H   0  0  0  0  0  0  0  0  0  0  0  0
    5.3576    1.7522   -0.3465 H   0  0  0  0  0  0  0  0  0  0  0  0
    4.9898    1.6713   -2.1001 H   0  0  0  0  0  0  0  0  0  0  0  0
    3.2410   -0.0636   -1.7067 H   0  0  0  0  0  0  0  0  0  0  0  0
    3.5451    0.0342    0.0636 H   0  0  0  0  0  0  0  0  0  0  0  0
    2.9613    2.5142   -0.0068 H   0  0  0  0  0  0  0  0  0  0  0  0
    2.5883    2.3333   -1.7583 H   0  0  0  0  0  0  0  0  0  0  0  0
    0.5281    1.3847   -1.1899 H   0  0  0  0  0  0  0  0  0  0  0  0
   -1.0814    0.4137    0.2371 H   0  0  0  0  0  0  0  0  0  0  0  0
   -1.1858   -1.5927    1.9658 H   0  0  0  0  0  0  0  0  0  0  0  0
    0.5750   -1.4912    1.9782 H   0  0  0  0  0  0  0  0  0  0  0  0
    0.2919   -4.7130   -0.6406 H   0  0  0  0  0  0  0  0  0  0  0  0
   -0.4753   -3.9023   -2.0823 H   0  0  0  0  0  0  0  0  0  0  0  0
   -2.3570   -5.2439   -1.9658 H   0  0  0  0  0  0  0  0  0  0  0  0
   -1.3564   -6.3398   -0.9222 H   0  0  0  0  0  0  0  0  0  0  0  0
   -3.7147   -5.1870   -0.0281 H   0  0  0  0  0  0  0  0  0  0  0  0
   -2.3021   -5.5112    1.0543 H   0  0  0  0  0  0  0  0  0  0  0  0
   -2.4163   -3.2672    1.4915 H   0  0  0  0  0  0  0  0  0  0  0  0
   -5.4828   -2.2481    0.3030 H   0  0  0  0  0  0  0  0  0  0  0  0
   -4.6168   -0.7609    2.1808 H   0  0  0  0  0  0  0  0  0  0  0  0
   -3.1313   -0.5424    1.2085 H   0  0  0  0  0  0  0  0  0  0  0  0
   -5.9595    0.5080    0.7180 H   0  0  0  0  0  0  0  0  0  0  0  0
   -4.8837    0.2628   -0.6979 H   0  0  0  0  0  0  0  0  0  0  0  0
   -4.8802    2.6154    0.3620 H   0  0  0  0  0  0  0  0  0  0  0  0
   -4.0004    1.8962    1.7613 H   0  0  0  0  0  0  0  0  0  0  0  0
   -2.5487    3.5465   -2.0345 H   0  0  0  0  0  0  0  0  0  0  0  0
   -0.9951    5.4685   -1.9953 H   0  0  0  0  0  0  0  0  0  0  0  0
    0.3192    5.9646    0.0443 H   0  0  0  0  0  0  0  0  0  0  0  0
    0.1152    4.5216    2.0339 H   0  0  0  0  0  0  0  0  0  0  0  0
   -1.1834    0.3786    3.1630 H   0  0  0  0  0  0  0  0  0  0  0  0
  1  2  1  0
  2  3  1  0
  2  4  1  0
  4  5  1  0
  5  6  1  0
  6  7  1  0
  7  8  1  0
  8  9  2  0
  8 10  1  0
 10 11  1  0
 11 12  1  0
 12 13  2  0
 12 14  1  0
 14 15  1  0
 15 16  1  0
 16 17  1  0
 17 18  1  0
 18 19  1  0
 19 20  2  0
 19 21  1  0
 21 22  1  0
 22 23  1  0
 23 24  1  0
 24 25  1  0
 25 26  1  0
 26 27  2  0
 27 28  1  0
 28 29  2  0
 29 30  1  0
 30 31  2  0
 31 32  1  0
 32 33  2  0
 32 34  1  0
 34 10  1  0
 18 14  1  0
 31 26  1  0
  1 35  1  0
  1 36  1  0
  1 37  1  0
  3 38  1  0
  3 39  1  0
  3 40  1  0
  4 41  1  0
  4 42  1  0
  5 43  1  0
  5 44  1  0
  6 45  1  0
  6 46  1  0
  7 47  1  0
 10 48  1  0
 11 49  1  0
 11 50  1  0
 15 51  1  0
 15 52  1  0
 16 53  1  0
 16 54  1  0
 17 55  1  0
 17 56  1  0
 18 57  1  0
 21 58  1  0
 22 59  1  0
 22 60  1  0
 23 61  1  0
 23 62  1  0
 24 63  1  0
 24 64  1  0
 27 65  1  0
 28 66  1  0
 29 67  1  0
 30 68  1  0
 34 69  1  0
M  END
$$$$
