
     RDKit          3D

 82 85  0  0  0  0  0  0  0  0999 V2000
    2.4945   -3.9228    1.5802 C   0  0  0  0  0  0  0  0  0  0  0  0
    2.0758   -2.9506    0.4767 C   0  0  0  0  0  0  0  0  0  0  0  0
    1.4631   -3.7009   -0.6259 N   0  0  0  0  0  0  0  0  0  0  0  0
    0.1245   -3.4793   -1.1002 C   0  0  0  0  0  0  0  0  0  0  0  0
   -0.5500   -4.4637   -1.5082 O   0  0  0  0  0  0  0  0  0  0  0  0
   -0.4750   -2.1022   -1.1817 C   0  0  0  0  0  0  0  0  0  0  0  0
   -1.4223   -1.8182   -0.0031 C   0  0  0  0  0  0  0  0  0  0  0  0
   -2.1185   -0.4464   -0.1273 C   0  0  0  0  0  0  0  0  0  0  0  0
   -3.2922   -0.3840    0.8363 C   0  0  0  0  0  0  0  0  0  0  0  0
   -3.0682   -0.0483    2.0322 O   0  0  0  0  0  0  0  0  0  0  0  0
   -4.6325   -0.7796    0.4489 N   0  0  0  0  0  0  0  0  0  0  0  0
   -4.9966   -0.8630   -0.9832 C   0  0  0  0  0  0  0  0  0  0  0  0
   -6.5011   -1.0773   -1.2404 C   0  0  0  0  0  0  0  0  0  0  0  0
   -7.3993    0.0806   -0.7470 C   0  0  0  0  0  0  0  0  0  0  0  0
   -6.7440    0.9289    0.2738 N   0  0  0  0  0  0  0  0  0  0  0  0
   -7.5085    2.1738    0.4566 C   0  0  0  0  0  0  0  0  0  0  0  0
   -6.6064    0.2344    1.5734 C   0  0  0  0  0  0  0  0  0  0  0  0
   -5.6552   -0.9712    1.4955 C   0  0  0  0  0  0  0  0  0  0  0  0
   -1.1743    0.6487    0.1515 N   0  0  0  0  0  0  0  0  0  0  0  0
   -0.5228    1.3966   -0.8910 C   0  0  0  0  0  0  0  0  0  0  0  0
   -0.7106    1.0783   -2.0970 O   0  0  0  0  0  0  0  0  0  0  0  0
    0.3076    2.5914   -0.5890 C   0  0  0  0  0  0  0  0  0  0  0  0
    0.1985    3.6912   -1.4622 C   0  0  0  0  0  0  0  0  0  0  0  0
    0.8658    4.8880   -1.1971 C   0  0  0  0  0  0  0  0  0  0  0  0
    1.6452    5.0132   -0.0505 C   0  0  0  0  0  0  0  0  0  0  0  0
    1.7806    3.9330    0.8202 C   0  0  0  0  0  0  0  0  0  0  0  0
    1.1534    2.7091    0.5520 C   0  0  0  0  0  0  0  0  0  0  0  0
    1.4211    1.6615    1.4445 O   0  0  0  0  0  0  0  0  0  0  0  0
    1.8513    0.3487    1.0818 C   0  0  0  0  0  0  0  0  0  0  0  0
    3.3441    0.2892    0.7190 C   0  0  0  0  0  0  0  0  0  0  0  0
    3.6303    0.8842   -0.6796 C   0  0  0  0  0  0  0  0  0  0  0  0
    5.1063    0.8869   -0.9940 C   0  0  0  0  0  0  0  0  0  0  0  0
    5.6265    0.0505   -1.9964 C   0  0  0  0  0  0  0  0  0  0  0  0
    6.9981    0.0418   -2.2652 C   0  0  0  0  0  0  0  0  0  0  0  0
    7.8592    0.8702   -1.5415 C   0  0  0  0  0  0  0  0  0  0  0  0
    7.3496    1.7148   -0.5511 C   0  0  0  0  0  0  0  0  0  0  0  0
    5.9788    1.7272   -0.2790 C   0  0  0  0  0  0  0  0  0  0  0  0
    3.8379   -1.1039    0.7965 N   0  0  0  0  0  0  0  0  0  0  0  0
    5.0759   -1.4056    1.5210 C   0  0  0  0  0  0  0  0  0  0  0  0
    3.2670   -2.1538   -0.0088 C   0  0  0  0  0  0  0  0  0  0  0  0
    3.8519   -2.4965   -1.0709 O   0  0  0  0  0  0  0  0  0  0  0  0
    2.8423   -3.3654    2.4753 H   0  0  0  0  0  0  0  0  0  0  0  0
    1.6254   -4.5441    1.8828 H   0  0  0  0  0  0  0  0  0  0  0  0
    3.3075   -4.5925    1.2273 H   0  0  0  0  0  0  0  0  0  0  0  0
    1.3320   -2.2720    0.9187 H   0  0  0  0  0  0  0  0  0  0  0  0
    1.9676   -4.5423   -0.9881 H   0  0  0  0  0  0  0  0  0  0  0  0
   -1.0483   -2.0300   -2.1332 H   0  0  0  0  0  0  0  0  0  0  0  0
    0.3377   -1.3542   -1.2432 H   0  0  0  0  0  0  0  0  0  0  0  0
   -0.8738   -1.8662    0.9607 H   0  0  0  0  0  0  0  0  0  0  0  0
   -2.1987   -2.6160    0.0120 H   0  0  0  0  0  0  0  0  0  0  0  0
   -2.4937   -0.3378   -1.1629 H   0  0  0  0  0  0  0  0  0  0  0  0
   -4.4422   -1.7072   -1.4482 H   0  0  0  0  0  0  0  0  0  0  0  0
   -4.7014    0.0786   -1.4967 H   0  0  0  0  0  0  0  0  0  0  0  0
   -6.8330   -2.0402   -0.7985 H   0  0  0  0  0  0  0  0  0  0  0  0
   -6.6488   -1.1964   -2.3356 H   0  0  0  0  0  0  0  0  0  0  0  0
   -7.6474    0.7023   -1.6379 H   0  0  0  0  0  0  0  0  0  0  0  0
   -8.3606   -0.3294   -0.3622 H   0  0  0  0  0  0  0  0  0  0  0  0
   -8.5419    1.9623    0.8108 H   0  0  0  0  0  0  0  0  0  0  0  0
   -7.0013    2.8344    1.1916 H   0  0  0  0  0  0  0  0  0  0  0  0
   -7.5585    2.7387   -0.4993 H   0  0  0  0  0  0  0  0  0  0  0  0
   -7.5993   -0.0938    1.9569 H   0  0  0  0  0  0  0  0  0  0  0  0
   -6.1786    0.9403    2.3212 H   0  0  0  0  0  0  0  0  0  0  0  0
   -6.2282   -1.9006    1.3052 H   0  0  0  0  0  0  0  0  0  0  0  0
   -5.1887   -1.1371    2.4911 H   0  0  0  0  0  0  0  0  0  0  0  0
   -0.9606    0.8893    1.1448 H   0  0  0  0  0  0  0  0  0  0  0  0
   -0.4356    3.6369   -2.3387 H   0  0  0  0  0  0  0  0  0  0  0  0
    0.7637    5.7251   -1.8741 H   0  0  0  0  0  0  0  0  0  0  0  0
    2.1515    5.9453    0.1608 H   0  0  0  0  0  0  0  0  0  0  0  0
    2.4093    4.0339    1.6969 H   0  0  0  0  0  0  0  0  0  0  0  0
    1.2587   -0.0503    0.2502 H   0  0  0  0  0  0  0  0  0  0  0  0
    1.6835   -0.2956    1.9690 H   0  0  0  0  0  0  0  0  0  0  0  0
    3.8695    0.9175    1.4716 H   0  0  0  0  0  0  0  0  0  0  0  0
    3.0643    0.3182   -1.4524 H   0  0  0  0  0  0  0  0  0  0  0  0
    3.2800    1.9335   -0.7315 H   0  0  0  0  0  0  0  0  0  0  0  0
    4.9730   -0.5944   -2.5711 H   0  0  0  0  0  0  0  0  0  0  0  0
    7.3929   -0.6070   -3.0366 H   0  0  0  0  0  0  0  0  0  0  0  0
    8.9210    0.8612   -1.7520 H   0  0  0  0  0  0  0  0  0  0  0  0
    8.0176    2.3589    0.0059 H   0  0  0  0  0  0  0  0  0  0  0  0
    5.5966    2.3871    0.4901 H   0  0  0  0  0  0  0  0  0  0  0  0
    5.8481   -1.7670    0.8086 H   0  0  0  0  0  0  0  0  0  0  0  0
    5.4789   -0.5094    2.0374 H   0  0  0  0  0  0  0  0  0  0  0  0
    4.8899   -2.1894    2.2848 H   0  0  0  0  0  0  0  0  0  0  0  0
  1  2  1  0
  2  3  1  0
  3  4  1  0
  4  5  2  0
  4  6  1  0
  6  7  1  0
  7  8  1  0
  8  9  1  0
  9 10  2  0
  9 11  1  0
 11 12  1  0
 12 13  1  0
 13 14  1  0
 14 15  1  0
 15 16  1  0
 15 17  1  0
 17 18  1  0
  8 19  1  0
 19 20  1  0
 20 21  2  0
 20 22  1  0
 22 23  2  0
 23 24  1  0
 24 25  2  0
 25 26  1  0
 26 27  2  0
 27 28  1  0
 28 29  1  0
 29 30  1  0
 30 31  1  0
 31 32  1  0
 32 33  2  0
 33 34  1  0
 34 35  2  0
 35 36  1  0
 36 37  2  0
 30 38  1  0
 38 39  1  0
 38 40  1  0
 40 41  2  0
 40  2  1  0
 18 11  1  0
 27 22  1  0
 37 32  1  0
  1 42  1  0
  1 43  1  0
  1 44  1  0
  2 45  1  0
  3 46  1  0
  6 47  1  0
  6 48  1  0
  7 49  1  0
  7 50  1  0
  8 51  1  0
 12 52  1  0
 12 53  1  0
 13 54  1  0
 13 55  1  0
 14 56  1  0
 14 57  1  0
 16 58  1  0
 16 59  1  0
 16 60  1  0
 17 61  1  0
 17 62  1  0
 18 63  1  0
 18 64  1  0
 19 65  1  0
 23 66  1  0
 24 67  1  0
 25 68  1  0
 26 69  1  0
 29 70  1  0
 29 71  1  0
 30 72  1  0
 31 73  1  0
 31 74  1  0
 33 75  1  0
 34 76  1  0
 35 77  1  0
 36 78  1  0
 37 79  1  0
 39 80  1  0
 39 81  1  0
 39 82  1  0
M  END
$$$$
