
     RDKit          3D

 81 85  0  0  0  0  0  0  0  0999 V2000
   -4.6232    0.9745   -2.0699 O   0  0  0  0  0  0  0  0  0  0  0  0
   -4.3511    0.1193   -1.1827 C   0  0  0  0  0  0  0  0  0  0  0  0
   -5.4603   -0.8147   -0.7662 C   0  0  0  0  0  0  0  0  0  0  0  0
   -6.1666   -0.2855    0.4478 C   0  0  0  0  0  0  0  0  0  0  0  0
   -5.9912   -0.6945    1.7682 C   0  0  0  0  0  0  0  0  0  0  0  0
   -6.7820    0.0289    2.5951 N   0  0  0  0  0  0  0  0  0  0  0  0
   -7.4525    0.8913    1.8102 C   0  0  0  0  0  0  0  0  0  0  0  0
   -8.3933    1.8404    2.2079 C   0  0  0  0  0  0  0  0  0  0  0  0
   -8.9823    2.6408    1.2107 C   0  0  0  0  0  0  0  0  0  0  0  0
   -8.6217    2.4757   -0.1454 C   0  0  0  0  0  0  0  0  0  0  0  0
   -7.6690    1.5092   -0.5165 C   0  0  0  0  0  0  0  0  0  0  0  0
   -7.1022    0.7314    0.4940 C   0  0  0  0  0  0  0  0  0  0  0  0
   -3.0235    0.0946   -0.5863 N   0  0  0  0  0  0  0  0  0  0  0  0
   -2.0021    1.0317   -1.1183 C   0  0  0  0  0  0  0  0  0  0  0  0
   -1.0379    1.5875   -0.0441 C   0  0  0  0  0  0  0  0  0  0  0  0
    0.2849    0.8064    0.0881 C   0  0  0  0  0  0  0  0  0  0  0  0
    1.2691    1.0434   -1.0777 C   0  0  0  0  0  0  0  0  0  0  0  0
    2.3631   -0.0709   -1.2312 C   0  0  0  0  0  0  0  0  0  0  0  0
    3.1894   -0.2609    0.0740 C   0  0  0  0  0  0  0  0  0  0  0  0
    4.1105    0.9290    0.3595 C   0  0  0  0  0  0  0  0  0  0  0  0
    5.0441    1.1271   -0.7673 N   0  0  0  0  0  0  0  0  0  0  0  0
    6.0246    2.1887   -0.4581 C   0  0  0  0  0  0  0  0  0  0  0  0
    7.1123    1.6462    0.4303 C   0  0  0  0  0  0  0  0  0  0  0  0
    7.1523    1.9694    1.7992 C   0  0  0  0  0  0  0  0  0  0  0  0
    8.1429    1.4236    2.6216 C   0  0  0  0  0  0  0  0  0  0  0  0
    9.0969    0.5540    2.0859 C   0  0  0  0  0  0  0  0  0  0  0  0
    9.0642    0.2292    0.7262 C   0  0  0  0  0  0  0  0  0  0  0  0
    8.0734    0.7679   -0.0992 C   0  0  0  0  0  0  0  0  0  0  0  0
    4.2959    1.4561   -1.9965 C   0  0  0  0  0  0  0  0  0  0  0  0
    3.3439    0.3085   -2.3751 C   0  0  0  0  0  0  0  0  0  0  0  0
    1.6910   -1.3859   -1.6239 C   0  0  0  0  0  0  0  0  0  0  0  0
    0.9613   -1.4309   -2.6518 O   0  0  0  0  0  0  0  0  0  0  0  0
    1.9594   -2.5734   -0.9328 O   0  0  0  0  0  0  0  0  0  0  0  0
    1.0980   -3.0960    0.0791 C   0  0  0  0  0  0  0  0  0  0  0  0
   -0.0943   -3.8954   -0.5158 C   0  0  0  0  0  0  0  0  0  0  0  0
    0.0677   -5.2662   -0.2371 O   0  0  0  0  0  0  0  0  0  0  0  0
   -1.4695   -3.3906    0.0127 C   0  0  0  0  0  0  0  0  0  0  0  0
   -2.4331   -4.3980   -0.1618 O   0  0  0  0  0  0  0  0  0  0  0  0
   -1.9321   -2.1182   -0.7361 C   0  0  0  0  0  0  0  0  0  0  0  0
   -2.5860   -1.0835    0.1890 C   0  0  0  0  0  0  0  0  0  0  0  0
   -5.0969   -1.8494   -0.6013 H   0  0  0  0  0  0  0  0  0  0  0  0
   -6.1976   -0.8960   -1.5942 H   0  0  0  0  0  0  0  0  0  0  0  0
   -5.3298   -1.4819    2.1074 H   0  0  0  0  0  0  0  0  0  0  0  0
   -6.8576   -0.0694    3.6321 H   0  0  0  0  0  0  0  0  0  0  0  0
   -8.6649    1.9566    3.2488 H   0  0  0  0  0  0  0  0  0  0  0  0
   -9.7180    3.3854    1.4838 H   0  0  0  0  0  0  0  0  0  0  0  0
   -9.0843    3.0934   -0.9046 H   0  0  0  0  0  0  0  0  0  0  0  0
   -7.3922    1.3724   -1.5529 H   0  0  0  0  0  0  0  0  0  0  0  0
   -2.4994    1.9203   -1.5646 H   0  0  0  0  0  0  0  0  0  0  0  0
   -1.4550    0.5430   -1.9502 H   0  0  0  0  0  0  0  0  0  0  0  0
   -1.5549    1.6072    0.9385 H   0  0  0  0  0  0  0  0  0  0  0  0
   -0.7915    2.6450   -0.2843 H   0  0  0  0  0  0  0  0  0  0  0  0
    0.7744    1.1260    1.0329 H   0  0  0  0  0  0  0  0  0  0  0  0
    0.0760   -0.2643    0.1896 H   0  0  0  0  0  0  0  0  0  0  0  0
    1.7348    2.0367   -0.9206 H   0  0  0  0  0  0  0  0  0  0  0  0
    0.7133    1.1268   -2.0350 H   0  0  0  0  0  0  0  0  0  0  0  0
    2.5294   -0.4376    0.9485 H   0  0  0  0  0  0  0  0  0  0  0  0
    3.8399   -1.1592   -0.0231 H   0  0  0  0  0  0  0  0  0  0  0  0
    4.6786    0.6913    1.2851 H   0  0  0  0  0  0  0  0  0  0  0  0
    3.5164    1.8477    0.5603 H   0  0  0  0  0  0  0  0  0  0  0  0
    5.5271    3.0725    0.0040 H   0  0  0  0  0  0  0  0  0  0  0  0
    6.5154    2.5524   -1.3894 H   0  0  0  0  0  0  0  0  0  0  0  0
    6.4121    2.6320    2.2305 H   0  0  0  0  0  0  0  0  0  0  0  0
    8.1687    1.6697    3.6760 H   0  0  0  0  0  0  0  0  0  0  0  0
    9.8614    0.1301    2.7234 H   0  0  0  0  0  0  0  0  0  0  0  0
    9.8048   -0.4465    0.3150 H   0  0  0  0  0  0  0  0  0  0  0  0
    8.0525    0.5004   -1.1505 H   0  0  0  0  0  0  0  0  0  0  0  0
    5.0067    1.5859   -2.8433 H   0  0  0  0  0  0  0  0  0  0  0  0
    3.7410    2.4142   -1.8823 H   0  0  0  0  0  0  0  0  0  0  0  0
    2.7779    0.5936   -3.2901 H   0  0  0  0  0  0  0  0  0  0  0  0
    3.9681   -0.5756   -2.6381 H   0  0  0  0  0  0  0  0  0  0  0  0
    1.7122   -3.7639    0.7201 H   0  0  0  0  0  0  0  0  0  0  0  0
    0.7625   -2.2815    0.7505 H   0  0  0  0  0  0  0  0  0  0  0  0
   -0.0882   -3.7949   -1.6235 H   0  0  0  0  0  0  0  0  0  0  0  0
   -0.0159   -5.3833    0.7467 H   0  0  0  0  0  0  0  0  0  0  0  0
   -1.3604   -3.1872    1.1047 H   0  0  0  0  0  0  0  0  0  0  0  0
   -3.2032   -4.1665    0.4217 H   0  0  0  0  0  0  0  0  0  0  0  0
   -2.6483   -2.3926   -1.5410 H   0  0  0  0  0  0  0  0  0  0  0  0
   -1.0755   -1.6381   -1.2362 H   0  0  0  0  0  0  0  0  0  0  0  0
   -1.8868   -0.7808    0.9908 H   0  0  0  0  0  0  0  0  0  0  0  0
   -3.4240   -1.5441    0.7393 H   0  0  0  0  0  0  0  0  0  0  0  0
  1  2  2  0
  2  3  1  0
  3  4  1  0
  4  5  2  0
  5  6  1  0
  6  7  1  0
  7  8  2  0
  8  9  1  0
  9 10  2  0
 10 11  1  0
 11 12  2  0
  2 13  1  0
 13 14  1  0
 14 15  1  0
 15 16  1  0
 16 17  1  0
 17 18  1  0
 18 19  1  0
 19 20  1  0
 20 21  1  0
 21 22  1  0
 22 23  1  0
 23 24  2  0
 24 25  1  0
 25 26  2  0
 26 27  1  0
 27 28  2  0
 21 29  1  0
 29 30  1  0
 18 31  1  0
 31 32  2  0
 31 33  1  0
 33 34  1  0
 34 35  1  0
 35 36  1  0
 35 37  1  0
 37 38  1  0
 37 39  1  0
 39 40  1  0
 12  4  1  0
 40 13  1  0
 12  7  1  0
 30 18  1  0
 28 23  1  0
  3 41  1  0
  3 42  1  0
  5 43  1  0
  6 44  1  0
  8 45  1  0
  9 46  1  0
 10 47  1  0
 11 48  1  0
 14 49  1  0
 14 50  1  0
 15 51  1  0
 15 52  1  0
 16 53  1  0
 16 54  1  0
 17 55  1  0
 17 56  1  0
 19 57  1  0
 19 58  1  0
 20 59  1  0
 20 60  1  0
 22 61  1  0
 22 62  1  0
 24 63  1  0
 25 64  1  0
 26 65  1  0
 27 66  1  0
 28 67  1  0
 29 68  1  0
 29 69  1  0
 30 70  1  0
 30 71  1  0
 34 72  1  0
 34 73  1  0
 35 74  1  0
 36 75  1  0
 37 76  1  0
 38 77  1  0
 39 78  1  0
 39 79  1  0
 40 80  1  0
 40 81  1  0
M  END
$$$$
