
     RDKit          3D

 68 71  0  0  0  0  0  0  0  0999 V2000
    7.7736    2.8801   -1.7645 C   0  0  0  0  0  0  0  0  0  0  0  0
    7.0234    2.1536   -0.7911 O   0  0  0  0  0  0  0  0  0  0  0  0
    7.2756    0.8218   -0.4190 C   0  0  0  0  0  0  0  0  0  0  0  0
    8.2748    0.0560   -1.0572 C   0  0  0  0  0  0  0  0  0  0  0  0
    8.5000   -1.2688   -0.6795 C   0  0  0  0  0  0  0  0  0  0  0  0
    7.7464   -1.8438    0.3487 C   0  0  0  0  0  0  0  0  0  0  0  0
    6.7627   -1.0943    1.0025 C   0  0  0  0  0  0  0  0  0  0  0  0
    6.5104    0.2362    0.6194 C   0  0  0  0  0  0  0  0  0  0  0  0
    5.4153    1.0060    1.3232 C   0  0  0  0  0  0  0  0  0  0  0  0
    4.1454    0.2908    1.2113 N   0  0  0  0  0  0  0  0  0  0  0  0
    3.4486    0.1571   -0.0405 C   0  0  0  0  0  0  0  0  0  0  0  0
    3.9980    0.5529   -1.1038 O   0  0  0  0  0  0  0  0  0  0  0  0
    2.0996   -0.4544   -0.1051 C   0  0  0  0  0  0  0  0  0  0  0  0
    1.6392   -1.0214   -1.3063 C   0  0  0  0  0  0  0  0  0  0  0  0
    0.3578   -1.5720   -1.3919 C   0  0  0  0  0  0  0  0  0  0  0  0
   -0.4960   -1.5594   -0.2741 C   0  0  0  0  0  0  0  0  0  0  0  0
   -0.0427   -0.9959    0.9414 C   0  0  0  0  0  0  0  0  0  0  0  0
    1.2471   -0.4406    1.0115 C   0  0  0  0  0  0  0  0  0  0  0  0
   -0.9672   -0.8649    2.1342 C   0  0  0  0  0  0  0  0  0  0  0  0
   -1.9012    0.3088    1.9595 C   0  0  0  0  0  0  0  0  0  0  0  0
   -1.3880    1.6134    1.8779 C   0  0  0  0  0  0  0  0  0  0  0  0
   -2.2368    2.6987    1.6321 C   0  0  0  0  0  0  0  0  0  0  0  0
   -3.6062    2.4937    1.4975 C   0  0  0  0  0  0  0  0  0  0  0  0
   -4.1459    1.2011    1.6334 C   0  0  0  0  0  0  0  0  0  0  0  0
   -3.2840    0.1102    1.8447 C   0  0  0  0  0  0  0  0  0  0  0  0
   -5.6365    0.9946    1.5583 C   0  0  0  0  0  0  0  0  0  0  0  0
   -6.0675    0.9596    0.1369 N   0  0  0  0  0  0  0  0  0  0  0  0
   -6.8501    2.1613   -0.2105 C   0  0  0  0  0  0  0  0  0  0  0  0
   -6.8571   -0.2545   -0.1905 C   0  0  0  0  0  0  0  0  0  0  0  0
   -5.9937   -1.5215   -0.2179 C   0  0  0  0  0  0  0  0  0  0  0  0
   -4.7620   -1.3512   -1.1166 C   0  0  0  0  0  0  0  0  0  0  0  0
   -3.9557   -2.6539   -1.2406 C   0  0  0  0  0  0  0  0  0  0  0  0
   -2.4906   -2.3595   -1.5653 C   0  0  0  0  0  0  0  0  0  0  0  0
   -1.7986   -2.0790   -0.3414 O   0  0  0  0  0  0  0  0  0  0  0  0
    7.7042    2.3769   -2.7564 H   0  0  0  0  0  0  0  0  0  0  0  0
    8.8390    2.9460   -1.4519 H   0  0  0  0  0  0  0  0  0  0  0  0
    7.3590    3.9081   -1.8494 H   0  0  0  0  0  0  0  0  0  0  0  0
    8.8924    0.4749   -1.8426 H   0  0  0  0  0  0  0  0  0  0  0  0
    9.2649   -1.8496   -1.1760 H   0  0  0  0  0  0  0  0  0  0  0  0
    7.9362   -2.8693    0.6539 H   0  0  0  0  0  0  0  0  0  0  0  0
    6.1945   -1.5489    1.8081 H   0  0  0  0  0  0  0  0  0  0  0  0
    5.2879    2.0367    0.9194 H   0  0  0  0  0  0  0  0  0  0  0  0
    5.6899    1.1055    2.4031 H   0  0  0  0  0  0  0  0  0  0  0  0
    3.7848   -0.1873    2.0670 H   0  0  0  0  0  0  0  0  0  0  0  0
    2.2754   -1.0514   -2.1841 H   0  0  0  0  0  0  0  0  0  0  0  0
    0.0433   -2.0103   -2.3341 H   0  0  0  0  0  0  0  0  0  0  0  0
    1.5629    0.0439    1.9278 H   0  0  0  0  0  0  0  0  0  0  0  0
   -0.3799   -0.7207    3.0694 H   0  0  0  0  0  0  0  0  0  0  0  0
   -1.5345   -1.8139    2.2688 H   0  0  0  0  0  0  0  0  0  0  0  0
   -0.3277    1.7823    1.9994 H   0  0  0  0  0  0  0  0  0  0  0  0
   -1.8351    3.7039    1.5392 H   0  0  0  0  0  0  0  0  0  0  0  0
   -4.2496    3.3466    1.3127 H   0  0  0  0  0  0  0  0  0  0  0  0
   -3.6881   -0.8911    1.9299 H   0  0  0  0  0  0  0  0  0  0  0  0
   -6.1366    1.8122    2.1303 H   0  0  0  0  0  0  0  0  0  0  0  0
   -5.9138    0.0738    2.1124 H   0  0  0  0  0  0  0  0  0  0  0  0
   -7.1504    2.1424   -1.2829 H   0  0  0  0  0  0  0  0  0  0  0  0
   -7.7519    2.2510    0.4347 H   0  0  0  0  0  0  0  0  0  0  0  0
   -6.2334    3.0726   -0.0734 H   0  0  0  0  0  0  0  0  0  0  0  0
   -7.2980   -0.1560   -1.2095 H   0  0  0  0  0  0  0  0  0  0  0  0
   -7.7039   -0.3800    0.5159 H   0  0  0  0  0  0  0  0  0  0  0  0
   -6.6095   -2.3609   -0.6101 H   0  0  0  0  0  0  0  0  0  0  0  0
   -5.6795   -1.7827    0.8137 H   0  0  0  0  0  0  0  0  0  0  0  0
   -5.0933   -1.0441   -2.1357 H   0  0  0  0  0  0  0  0  0  0  0  0
   -4.1181   -0.5360   -0.7123 H   0  0  0  0  0  0  0  0  0  0  0  0
   -4.4017   -3.2713   -2.0576 H   0  0  0  0  0  0  0  0  0  0  0  0
   -4.0035   -3.2546   -0.3071 H   0  0  0  0  0  0  0  0  0  0  0  0
   -2.4334   -1.4669   -2.2451 H   0  0  0  0  0  0  0  0  0  0  0  0
   -2.0302   -3.2421   -2.0886 H   0  0  0  0  0  0  0  0  0  0  0  0
  1  2  1  0
  2  3  1  0
  3  4  2  0
  4  5  1  0
  5  6  2  0
  6  7  1  0
  7  8  2  0
  8  9  1  0
  9 10  1  0
 10 11  1  0
 11 12  2  0
 11 13  1  0
 13 14  2  0
 14 15  1  0
 15 16  2  0
 16 17  1  0
 17 18  2  0
 17 19  1  0
 19 20  1  0
 20 21  2  0
 21 22  1  0
 22 23  2  0
 23 24  1  0
 24 25  2  0
 24 26  1  0
 26 27  1  0
 27 28  1  0
 27 29  1  0
 29 30  1  0
 30 31  1  0
 31 32  1  0
 32 33  1  0
 33 34  1  0
  8  3  1  0
 18 13  1  0
 25 20  1  0
 34 16  1  0
  1 35  1  0
  1 36  1  0
  1 37  1  0
  4 38  1  0
  5 39  1  0
  6 40  1  0
  7 41  1  0
  9 42  1  0
  9 43  1  0
 10 44  1  0
 14 45  1  0
 15 46  1  0
 18 47  1  0
 19 48  1  0
 19 49  1  0
 21 50  1  0
 22 51  1  0
 23 52  1  0
 25 53  1  0
 26 54  1  0
 26 55  1  0
 28 56  1  0
 28 57  1  0
 28 58  1  0
 29 59  1  0
 29 60  1  0
 30 61  1  0
 30 62  1  0
 31 63  1  0
 31 64  1  0
 32 65  1  0
 32 66  1  0
 33 67  1  0
 33 68  1  0
M  END
$$$$
