
     RDKit          3D

 91 94  0  0  0  0  0  0  0  0999 V2000
    5.1581    2.7494   -2.3399 C   0  0  0  0  0  0  0  0  0  0  0  0
    6.0410    2.0349   -1.3215 C   0  0  0  0  0  0  0  0  0  0  0  0
    5.4327    0.7259   -0.9755 N   0  0  0  0  0  0  0  0  0  0  0  0
    6.2531   -0.4200   -1.4412 C   0  0  0  0  0  0  0  0  0  0  0  0
    6.2368   -0.5340   -2.9650 C   0  0  0  0  0  0  0  0  0  0  0  0
    5.0177    0.6478    0.4554 C   0  0  0  0  0  0  0  0  0  0  0  0
    3.8330   -0.3245    0.6407 C   0  0  0  0  0  0  0  0  0  0  0  0
    2.6474    0.1874   -0.0435 N   0  0  0  0  0  0  0  0  0  0  0  0
    2.2901   -0.1963   -1.3763 C   0  0  0  0  0  0  0  0  0  0  0  0
    2.9042   -1.1294   -1.9590 O   0  0  0  0  0  0  0  0  0  0  0  0
    1.1388    0.4750   -2.0649 C   0  0  0  0  0  0  0  0  0  0  0  0
   -0.1388   -0.2581   -1.7610 C   0  0  0  0  0  0  0  0  0  0  0  0
   -0.6303   -1.2252   -2.6487 C   0  0  0  0  0  0  0  0  0  0  0  0
   -1.7847   -1.9456   -2.3405 C   0  0  0  0  0  0  0  0  0  0  0  0
   -2.4592   -1.7262   -1.1243 C   0  0  0  0  0  0  0  0  0  0  0  0
   -1.9439   -0.7862   -0.2076 C   0  0  0  0  0  0  0  0  0  0  0  0
   -0.8024   -0.0419   -0.5453 C   0  0  0  0  0  0  0  0  0  0  0  0
   -2.5922   -0.5818    1.1390 C   0  0  0  0  0  0  0  0  0  0  0  0
   -3.7822    0.2970    0.9921 N   0  0  0  0  0  0  0  0  0  0  0  0
   -3.6298    1.5317    1.8021 C   0  0  0  0  0  0  0  0  0  0  0  0
   -4.5116    2.6366    1.2873 C   0  0  0  0  0  0  0  0  0  0  0  0
   -5.7130    2.9566    1.9418 C   0  0  0  0  0  0  0  0  0  0  0  0
   -6.5422    3.9632    1.4338 C   0  0  0  0  0  0  0  0  0  0  0  0
   -6.1806    4.6546    0.2736 C   0  0  0  0  0  0  0  0  0  0  0  0
   -4.9869    4.3406   -0.3827 C   0  0  0  0  0  0  0  0  0  0  0  0
   -4.1547    3.3325    0.1193 C   0  0  0  0  0  0  0  0  0  0  0  0
   -5.0458   -0.4274    1.2987 C   0  0  0  0  0  0  0  0  0  0  0  0
   -6.1669   -0.0285    0.3709 C   0  0  0  0  0  0  0  0  0  0  0  0
   -5.9774    0.8543   -0.5065 O   0  0  0  0  0  0  0  0  0  0  0  0
   -7.4643   -0.6389    0.4663 N   0  0  0  0  0  0  0  0  0  0  0  0
   -7.6875   -2.0450    0.8180 C   0  0  0  0  0  0  0  0  0  0  0  0
   -7.8948   -2.9034   -0.4426 C   0  0  0  0  0  0  0  0  0  0  0  0
   -6.6858   -2.9042   -1.3942 C   0  0  0  0  0  0  0  0  0  0  0  0
   -5.5667   -3.8588   -0.9416 C   0  0  0  0  0  0  0  0  0  0  0  0
   -4.2228   -3.4672   -1.5675 C   0  0  0  0  0  0  0  0  0  0  0  0
   -3.6345   -2.4213   -0.7943 O   0  0  0  0  0  0  0  0  0  0  0  0
    6.1793    0.3612    1.4088 C   0  0  0  0  0  0  0  0  0  0  0  0
    6.8495    1.4345    2.0255 C   0  0  0  0  0  0  0  0  0  0  0  0
    7.9474    1.2051    2.8590 C   0  0  0  0  0  0  0  0  0  0  0  0
    8.4056   -0.0973    3.0844 C   0  0  0  0  0  0  0  0  0  0  0  0
    9.5699   -0.3395    3.9975 C   0  0  0  0  0  0  0  0  0  0  0  0
    7.7269   -1.1757    2.5000 C   0  0  0  0  0  0  0  0  0  0  0  0
    6.6281   -0.9514    1.6681 C   0  0  0  0  0  0  0  0  0  0  0  0
    5.0540    2.1368   -3.2635 H   0  0  0  0  0  0  0  0  0  0  0  0
    4.1478    2.9302   -1.9075 H   0  0  0  0  0  0  0  0  0  0  0  0
    5.6160    3.7259   -2.6047 H   0  0  0  0  0  0  0  0  0  0  0  0
    7.0684    1.9295   -1.7401 H   0  0  0  0  0  0  0  0  0  0  0  0
    6.1500    2.7011   -0.4401 H   0  0  0  0  0  0  0  0  0  0  0  0
    7.3042   -0.3328   -1.0851 H   0  0  0  0  0  0  0  0  0  0  0  0
    5.8464   -1.3743   -1.0535 H   0  0  0  0  0  0  0  0  0  0  0  0
    6.7194   -1.4887   -3.2679 H   0  0  0  0  0  0  0  0  0  0  0  0
    6.8033    0.2970   -3.4333 H   0  0  0  0  0  0  0  0  0  0  0  0
    5.1909   -0.5230   -3.3429 H   0  0  0  0  0  0  0  0  0  0  0  0
    4.5902    1.6337    0.7548 H   0  0  0  0  0  0  0  0  0  0  0  0
    3.5956   -0.4108    1.7230 H   0  0  0  0  0  0  0  0  0  0  0  0
    4.0637   -1.3470    0.2835 H   0  0  0  0  0  0  0  0  0  0  0  0
    2.1242    0.9769    0.4112 H   0  0  0  0  0  0  0  0  0  0  0  0
    1.0602    1.5304   -1.7269 H   0  0  0  0  0  0  0  0  0  0  0  0
    1.3229    0.4977   -3.1605 H   0  0  0  0  0  0  0  0  0  0  0  0
   -0.1184   -1.4239   -3.5832 H   0  0  0  0  0  0  0  0  0  0  0  0
   -2.1424   -2.6764   -3.0544 H   0  0  0  0  0  0  0  0  0  0  0  0
   -0.4143    0.6879    0.1525 H   0  0  0  0  0  0  0  0  0  0  0  0
   -2.8268   -1.5753    1.5850 H   0  0  0  0  0  0  0  0  0  0  0  0
   -1.8413   -0.1658    1.8481 H   0  0  0  0  0  0  0  0  0  0  0  0
   -3.8205    1.3310    2.8794 H   0  0  0  0  0  0  0  0  0  0  0  0
   -2.5850    1.9118    1.7399 H   0  0  0  0  0  0  0  0  0  0  0  0
   -6.0106    2.4218    2.8336 H   0  0  0  0  0  0  0  0  0  0  0  0
   -7.4664    4.2076    1.9375 H   0  0  0  0  0  0  0  0  0  0  0  0
   -6.8254    5.4337   -0.1157 H   0  0  0  0  0  0  0  0  0  0  0  0
   -4.7113    4.8741   -1.2849 H   0  0  0  0  0  0  0  0  0  0  0  0
   -3.2359    3.0921   -0.4030 H   0  0  0  0  0  0  0  0  0  0  0  0
   -5.3655   -0.2683    2.3529 H   0  0  0  0  0  0  0  0  0  0  0  0
   -4.9197   -1.5203    1.1715 H   0  0  0  0  0  0  0  0  0  0  0  0
   -8.2665   -0.1279    0.0349 H   0  0  0  0  0  0  0  0  0  0  0  0
   -8.6084   -2.1096    1.4357 H   0  0  0  0  0  0  0  0  0  0  0  0
   -6.8694   -2.4506    1.4427 H   0  0  0  0  0  0  0  0  0  0  0  0
   -8.7763   -2.5104   -0.9947 H   0  0  0  0  0  0  0  0  0  0  0  0
   -8.1353   -3.9462   -0.1472 H   0  0  0  0  0  0  0  0  0  0  0  0
   -7.0289   -3.2285   -2.4018 H   0  0  0  0  0  0  0  0  0  0  0  0
   -6.2964   -1.8736   -1.5228 H   0  0  0  0  0  0  0  0  0  0  0  0
   -5.4603   -3.8638    0.1626 H   0  0  0  0  0  0  0  0  0  0  0  0
   -5.8311   -4.8906   -1.2597 H   0  0  0  0  0  0  0  0  0  0  0  0
   -3.5419   -4.3488   -1.5785 H   0  0  0  0  0  0  0  0  0  0  0  0
   -4.3834   -3.1291   -2.6173 H   0  0  0  0  0  0  0  0  0  0  0  0
    6.5194    2.4551    1.8680 H   0  0  0  0  0  0  0  0  0  0  0  0
    8.4453    2.0482    3.3243 H   0  0  0  0  0  0  0  0  0  0  0  0
    9.2232   -0.3235    5.0514 H   0  0  0  0  0  0  0  0  0  0  0  0
   10.3401    0.4502    3.8593 H   0  0  0  0  0  0  0  0  0  0  0  0
   10.0420   -1.3226    3.7901 H   0  0  0  0  0  0  0  0  0  0  0  0
    8.0557   -2.1929    2.6793 H   0  0  0  0  0  0  0  0  0  0  0  0
    6.1382   -1.8086    1.2288 H   0  0  0  0  0  0  0  0  0  0  0  0
  1  2  1  0
  2  3  1  0
  3  4  1  0
  4  5  1  0
  3  6  1  0
  6  7  1  0
  7  8  1  0
  8  9  1  0
  9 10  2  0
  9 11  1  0
 11 12  1  0
 12 13  2  0
 13 14  1  0
 14 15  2  0
 15 16  1  0
 16 17  2  0
 16 18  1  0
 18 19  1  0
 19 20  1  0
 20 21  1  0
 21 22  2  0
 22 23  1  0
 23 24  2  0
 24 25  1  0
 25 26  2  0
 19 27  1  0
 27 28  1  0
 28 29  2  0
 28 30  1  0
 30 31  1  0
 31 32  1  0
 32 33  1  0
 33 34  1  0
 34 35  1  0
 35 36  1  0
  6 37  1  0
 37 38  2  0
 38 39  1  0
 39 40  2  0
 40 41  1  0
 40 42  1  0
 42 43  2  0
 17 12  1  0
 26 21  1  0
 43 37  1  0
 36 15  1  0
  1 44  1  0
  1 45  1  0
  1 46  1  0
  2 47  1  0
  2 48  1  0
  4 49  1  0
  4 50  1  0
  5 51  1  0
  5 52  1  0
  5 53  1  0
  6 54  1  0
  7 55  1  0
  7 56  1  0
  8 57  1  0
 11 58  1  0
 11 59  1  0
 13 60  1  0
 14 61  1  0
 17 62  1  0
 18 63  1  0
 18 64  1  0
 20 65  1  0
 20 66  1  0
 22 67  1  0
 23 68  1  0
 24 69  1  0
 25 70  1  0
 26 71  1  0
 27 72  1  0
 27 73  1  0
 30 74  1  0
 31 75  1  0
 31 76  1  0
 32 77  1  0
 32 78  1  0
 33 79  1  0
 33 80  1  0
 34 81  1  0
 34 82  1  0
 35 83  1  0
 35 84  1  0
 38 85  1  0
 39 86  1  0
 41 87  1  0
 41 88  1  0
 41 89  1  0
 42 90  1  0
 43 91  1  0
M  END
$$$$
