
     RDKit          3D

 76 78  0  0  0  0  0  0  0  0999 V2000
   -1.4304   -4.5679    2.4048 C   0  0  0  0  0  0  0  0  0  0  0  0
   -0.6613   -3.3046    2.1556 C   0  0  0  0  0  0  0  0  0  0  0  0
   -0.1378   -2.7202    3.1446 O   0  0  0  0  0  0  0  0  0  0  0  0
   -0.5147   -2.7450    0.8287 N   0  0  0  0  0  0  0  0  0  0  0  0
   -0.8797   -3.5351   -0.3636 C   0  0  0  0  0  0  0  0  0  0  0  0
   -1.1983   -2.6459   -1.5839 C   0  0  0  0  0  0  0  0  0  0  0  0
   -2.2799   -3.2325   -2.5090 C   0  0  0  0  0  0  0  0  0  0  0  0
   -3.7118   -3.2273   -1.9266 C   0  0  0  0  0  0  0  0  0  0  0  0
   -4.1919   -1.8374   -1.4535 C   0  0  0  0  0  0  0  0  0  0  0  0
   -4.1191   -1.6818    0.0815 C   0  0  0  0  0  0  0  0  0  0  0  0
   -3.9022   -0.2232    0.5039 C   0  0  0  0  0  0  0  0  0  0  0  0
   -2.4898    0.1566    0.2784 N   0  0  0  0  0  0  0  0  0  0  0  0
   -2.3339    1.4835   -0.3633 C   0  0  0  0  0  0  0  0  0  0  0  0
   -2.8127    2.6675    0.5129 C   0  0  0  0  0  0  0  0  0  0  0  0
   -2.7490    4.0445   -0.1904 C   0  0  0  0  0  0  0  0  0  0  0  0
   -3.6706    4.1296   -1.4151 C   0  0  0  0  0  0  0  0  0  0  0  0
   -1.3141    4.4501   -0.5534 C   0  0  0  0  0  0  0  0  0  0  0  0
   -1.6330   -0.0699    1.4667 C   0  0  0  0  0  0  0  0  0  0  0  0
   -0.1902   -0.2852    1.0610 C   0  0  0  0  0  0  0  0  0  0  0  0
    0.6681    0.8257    0.9860 C   0  0  0  0  0  0  0  0  0  0  0  0
    1.9848    0.6920    0.5196 C   0  0  0  0  0  0  0  0  0  0  0  0
    2.8587    1.8829    0.4056 C   0  0  0  0  0  0  0  0  0  0  0  0
    2.3365    3.0161    0.2221 O   0  0  0  0  0  0  0  0  0  0  0  0
    4.2916    1.7692    0.4658 N   0  0  0  0  0  0  0  0  0  0  0  0
    5.1073    2.6094   -0.4222 C   0  0  0  0  0  0  0  0  0  0  0  0
    6.6024    2.2799   -0.2963 C   0  0  0  0  0  0  0  0  0  0  0  0
    6.8199    0.7629   -0.2033 C   0  0  0  0  0  0  0  0  0  0  0  0
    6.3656    0.1584   -1.3880 O   0  0  0  0  0  0  0  0  0  0  0  0
    6.0920    0.1534    1.0219 C   0  0  0  0  0  0  0  0  0  0  0  0
    4.9356    1.0200    1.5535 C   0  0  0  0  0  0  0  0  0  0  0  0
    2.4407   -0.5704    0.1129 C   0  0  0  0  0  0  0  0  0  0  0  0
    1.6092   -1.6863    0.2078 C   0  0  0  0  0  0  0  0  0  0  0  0
    0.2985   -1.5615    0.6878 C   0  0  0  0  0  0  0  0  0  0  0  0
   -2.4890   -4.4307    2.0996 H   0  0  0  0  0  0  0  0  0  0  0  0
   -1.4114   -4.8273    3.4845 H   0  0  0  0  0  0  0  0  0  0  0  0
   -0.9779   -5.4051    1.8342 H   0  0  0  0  0  0  0  0  0  0  0  0
   -0.0452   -4.2231   -0.6167 H   0  0  0  0  0  0  0  0  0  0  0  0
   -1.7597   -4.1665   -0.1392 H   0  0  0  0  0  0  0  0  0  0  0  0
   -1.4986   -1.6297   -1.2726 H   0  0  0  0  0  0  0  0  0  0  0  0
   -0.2653   -2.5209   -2.1746 H   0  0  0  0  0  0  0  0  0  0  0  0
   -2.2853   -2.6428   -3.4522 H   0  0  0  0  0  0  0  0  0  0  0  0
   -2.0041   -4.2745   -2.7794 H   0  0  0  0  0  0  0  0  0  0  0  0
   -4.3922   -3.5704   -2.7362 H   0  0  0  0  0  0  0  0  0  0  0  0
   -3.8098   -3.9807   -1.1166 H   0  0  0  0  0  0  0  0  0  0  0  0
   -5.2517   -1.6995   -1.7599 H   0  0  0  0  0  0  0  0  0  0  0  0
   -3.6206   -1.0369   -1.9726 H   0  0  0  0  0  0  0  0  0  0  0  0
   -3.3086   -2.3051    0.5107 H   0  0  0  0  0  0  0  0  0  0  0  0
   -5.0715   -2.0492    0.5214 H   0  0  0  0  0  0  0  0  0  0  0  0
   -4.1795   -0.0995    1.5757 H   0  0  0  0  0  0  0  0  0  0  0  0
   -4.6040    0.4167   -0.0780 H   0  0  0  0  0  0  0  0  0  0  0  0
   -1.2758    1.6293   -0.6537 H   0  0  0  0  0  0  0  0  0  0  0  0
   -2.9002    1.4722   -1.3176 H   0  0  0  0  0  0  0  0  0  0  0  0
   -3.8583    2.4910    0.8454 H   0  0  0  0  0  0  0  0  0  0  0  0
   -2.1910    2.7380    1.4285 H   0  0  0  0  0  0  0  0  0  0  0  0
   -3.1211    4.7915    0.5448 H   0  0  0  0  0  0  0  0  0  0  0  0
   -3.7510    5.1865   -1.7511 H   0  0  0  0  0  0  0  0  0  0  0  0
   -4.6902    3.7695   -1.1577 H   0  0  0  0  0  0  0  0  0  0  0  0
   -3.2742    3.5286   -2.2612 H   0  0  0  0  0  0  0  0  0  0  0  0
   -0.6491    4.3532    0.3321 H   0  0  0  0  0  0  0  0  0  0  0  0
   -0.9156    3.8195   -1.3761 H   0  0  0  0  0  0  0  0  0  0  0  0
   -1.2953    5.5090   -0.8874 H   0  0  0  0  0  0  0  0  0  0  0  0
   -1.9834   -0.9601    2.0284 H   0  0  0  0  0  0  0  0  0  0  0  0
   -1.7155    0.7608    2.1949 H   0  0  0  0  0  0  0  0  0  0  0  0
    0.3012    1.8023    1.2812 H   0  0  0  0  0  0  0  0  0  0  0  0
    4.7905    2.4361   -1.4742 H   0  0  0  0  0  0  0  0  0  0  0  0
    4.9446    3.6828   -0.1829 H   0  0  0  0  0  0  0  0  0  0  0  0
    7.1496    2.6859   -1.1748 H   0  0  0  0  0  0  0  0  0  0  0  0
    7.0150    2.7687    0.6147 H   0  0  0  0  0  0  0  0  0  0  0  0
    7.9160    0.5841   -0.0966 H   0  0  0  0  0  0  0  0  0  0  0  0
    6.7948   -0.7365   -1.4385 H   0  0  0  0  0  0  0  0  0  0  0  0
    5.7026   -0.8554    0.7639 H   0  0  0  0  0  0  0  0  0  0  0  0
    6.8234    0.0079    1.8466 H   0  0  0  0  0  0  0  0  0  0  0  0
    5.3330    1.7470    2.2944 H   0  0  0  0  0  0  0  0  0  0  0  0
    4.2077    0.3762    2.0916 H   0  0  0  0  0  0  0  0  0  0  0  0
    3.4383   -0.6941   -0.2881 H   0  0  0  0  0  0  0  0  0  0  0  0
    1.9881   -2.6559   -0.0872 H   0  0  0  0  0  0  0  0  0  0  0  0
  1  2  1  0
  2  3  2  0
  2  4  1  0
  4  5  1  0
  5  6  1  0
  6  7  1  0
  7  8  1  0
  8  9  1  0
  9 10  1  0
 10 11  1  0
 11 12  1  0
 12 13  1  0
 13 14  1  0
 14 15  1  0
 15 16  1  0
 15 17  1  0
 12 18  1  0
 18 19  1  0
 19 20  2  0
 20 21  1  0
 21 22  1  0
 22 23  2  0
 22 24  1  0
 24 25  1  0
 25 26  1  0
 26 27  1  0
 27 28  1  0
 27 29  1  0
 29 30  1  0
 21 31  2  0
 31 32  1  0
 32 33  2  0
 33  4  1  0
 33 19  1  0
 30 24  1  0
  1 34  1  0
  1 35  1  0
  1 36  1  0
  5 37  1  0
  5 38  1  0
  6 39  1  0
  6 40  1  0
  7 41  1  0
  7 42  1  0
  8 43  1  0
  8 44  1  0
  9 45  1  0
  9 46  1  0
 10 47  1  0
 10 48  1  0
 11 49  1  0
 11 50  1  0
 13 51  1  0
 13 52  1  0
 14 53  1  0
 14 54  1  0
 15 55  1  0
 16 56  1  0
 16 57  1  0
 16 58  1  0
 17 59  1  0
 17 60  1  0
 17 61  1  0
 18 62  1  0
 18 63  1  0
 20 64  1  0
 25 65  1  0
 25 66  1  0
 26 67  1  0
 26 68  1  0
 27 69  1  0
 28 70  1  0
 29 71  1  0
 29 72  1  0
 30 73  1  0
 30 74  1  0
 31 75  1  0
 32 76  1  0
M  END
$$$$
