
     RDKit          3D

 73 76  0  0  0  0  0  0  0  0999 V2000
    8.4438   -1.7293   -1.7703 C   0  0  0  0  0  0  0  0  0  0  0  0
    7.5523   -1.0104   -0.8693 N   0  0  0  0  0  0  0  0  0  0  0  0
    6.3176   -1.4046   -0.5086 C   0  0  0  0  0  0  0  0  0  0  0  0
    5.8229   -0.4783    0.3844 C   0  0  0  0  0  0  0  0  0  0  0  0
    4.5613   -0.5839    1.1340 C   0  0  0  0  0  0  0  0  0  0  0  0
    4.4049   -1.6071    1.8551 O   0  0  0  0  0  0  0  0  0  0  0  0
    3.5121    0.4199    1.0593 N   0  0  0  0  0  0  0  0  0  0  0  0
    2.2816    0.2198    1.8626 C   0  0  0  0  0  0  0  0  0  0  0  0
    1.4738   -1.0444    1.4640 C   0  0  0  0  0  0  0  0  0  0  0  0
    0.2933   -0.7709    0.5202 C   0  0  0  0  0  0  0  0  0  0  0  0
   -0.9350   -0.1476    1.2171 C   0  0  0  0  0  0  0  0  0  0  0  0
   -1.9210    0.5704    0.2374 C   0  0  0  0  0  0  0  0  0  0  0  0
   -2.3498   -0.4068   -0.9048 C   0  0  0  0  0  0  0  0  0  0  0  0
   -3.7450   -0.0619   -1.4452 C   0  0  0  0  0  0  0  0  0  0  0  0
   -4.8048   -0.2090   -0.4114 N   0  0  0  0  0  0  0  0  0  0  0  0
   -5.5170   -1.4975   -0.5535 C   0  0  0  0  0  0  0  0  0  0  0  0
   -6.7479   -1.5411    0.3168 C   0  0  0  0  0  0  0  0  0  0  0  0
   -7.8053   -0.6503    0.0847 C   0  0  0  0  0  0  0  0  0  0  0  0
   -8.9362   -0.6967    0.9036 C   0  0  0  0  0  0  0  0  0  0  0  0
   -9.0074   -1.6013    1.9162 N   0  0  0  0  0  0  0  0  0  0  0  0
   -7.9959   -2.4746    2.1656 C   0  0  0  0  0  0  0  0  0  0  0  0
   -6.8463   -2.4597    1.3729 C   0  0  0  0  0  0  0  0  0  0  0  0
   -4.3126   -0.0151    0.9783 C   0  0  0  0  0  0  0  0  0  0  0  0
   -3.1863    1.0260    1.0390 C   0  0  0  0  0  0  0  0  0  0  0  0
   -1.2453    1.8279   -0.3099 C   0  0  0  0  0  0  0  0  0  0  0  0
   -0.9528    2.7588    0.4907 O   0  0  0  0  0  0  0  0  0  0  0  0
   -0.9702    2.0109   -1.6746 O   0  0  0  0  0  0  0  0  0  0  0  0
    0.2775    1.6619   -2.2901 C   0  0  0  0  0  0  0  0  0  0  0  0
    1.4978    2.1812   -1.4899 C   0  0  0  0  0  0  0  0  0  0  0  0
    1.6810    3.5509   -1.7461 O   0  0  0  0  0  0  0  0  0  0  0  0
    2.7987    1.4139   -1.8316 C   0  0  0  0  0  0  0  0  0  0  0  0
    2.6196    0.0295   -1.6788 O   0  0  0  0  0  0  0  0  0  0  0  0
    3.9968    1.8809   -0.9726 C   0  0  0  0  0  0  0  0  0  0  0  0
    3.8131    1.7829    0.5617 C   0  0  0  0  0  0  0  0  0  0  0  0
    6.8419    0.4432    0.5562 C   0  0  0  0  0  0  0  0  0  0  0  0
    7.8846    0.0982   -0.2250 N   0  0  0  0  0  0  0  0  0  0  0  0
    8.7546   -2.6872   -1.3027 H   0  0  0  0  0  0  0  0  0  0  0  0
    7.9201   -1.9400   -2.7263 H   0  0  0  0  0  0  0  0  0  0  0  0
    9.3475   -1.1197   -1.9850 H   0  0  0  0  0  0  0  0  0  0  0  0
    5.8235   -2.3049   -0.8535 H   0  0  0  0  0  0  0  0  0  0  0  0
    2.5808    0.1182    2.9286 H   0  0  0  0  0  0  0  0  0  0  0  0
    1.6259    1.1144    1.8244 H   0  0  0  0  0  0  0  0  0  0  0  0
    2.1307   -1.7870    0.9684 H   0  0  0  0  0  0  0  0  0  0  0  0
    1.0851   -1.5322    2.3830 H   0  0  0  0  0  0  0  0  0  0  0  0
   -0.0156   -1.7346    0.0597 H   0  0  0  0  0  0  0  0  0  0  0  0
    0.6388   -0.1282   -0.2914 H   0  0  0  0  0  0  0  0  0  0  0  0
   -0.6045    0.5733    1.9944 H   0  0  0  0  0  0  0  0  0  0  0  0
   -1.4712   -0.9592    1.7565 H   0  0  0  0  0  0  0  0  0  0  0  0
   -2.3922   -1.4510   -0.5226 H   0  0  0  0  0  0  0  0  0  0  0  0
   -1.6209   -0.4178   -1.7389 H   0  0  0  0  0  0  0  0  0  0  0  0
   -3.9478   -0.6879   -2.3426 H   0  0  0  0  0  0  0  0  0  0  0  0
   -3.7436    0.9907   -1.8036 H   0  0  0  0  0  0  0  0  0  0  0  0
   -4.8335   -2.3465   -0.3280 H   0  0  0  0  0  0  0  0  0  0  0  0
   -5.8599   -1.6273   -1.6032 H   0  0  0  0  0  0  0  0  0  0  0  0
   -7.7535    0.0726   -0.7208 H   0  0  0  0  0  0  0  0  0  0  0  0
   -9.7592   -0.0157    0.7322 H   0  0  0  0  0  0  0  0  0  0  0  0
   -8.0844   -3.1802    2.9805 H   0  0  0  0  0  0  0  0  0  0  0  0
   -6.0441   -3.1569    1.5801 H   0  0  0  0  0  0  0  0  0  0  0  0
   -3.9451   -0.9708    1.4158 H   0  0  0  0  0  0  0  0  0  0  0  0
   -5.1531    0.3414    1.6119 H   0  0  0  0  0  0  0  0  0  0  0  0
   -2.9342    1.2374    2.1023 H   0  0  0  0  0  0  0  0  0  0  0  0
   -3.5962    1.9736    0.6209 H   0  0  0  0  0  0  0  0  0  0  0  0
    0.2992    2.0965   -3.3133 H   0  0  0  0  0  0  0  0  0  0  0  0
    0.3192    0.5623   -2.4198 H   0  0  0  0  0  0  0  0  0  0  0  0
    1.3081    2.0354   -0.4110 H   0  0  0  0  0  0  0  0  0  0  0  0
    0.9443    4.0320   -1.2855 H   0  0  0  0  0  0  0  0  0  0  0  0
    3.0380    1.6245   -2.9000 H   0  0  0  0  0  0  0  0  0  0  0  0
    3.4107   -0.4140   -2.0777 H   0  0  0  0  0  0  0  0  0  0  0  0
    4.8968    1.3163   -1.2890 H   0  0  0  0  0  0  0  0  0  0  0  0
    4.2128    2.9429   -1.2194 H   0  0  0  0  0  0  0  0  0  0  0  0
    3.0396    2.5113    0.8807 H   0  0  0  0  0  0  0  0  0  0  0  0
    4.7355    2.1529    1.0520 H   0  0  0  0  0  0  0  0  0  0  0  0
    6.8521    1.2797    1.2406 H   0  0  0  0  0  0  0  0  0  0  0  0
  1  2  1  0
  2  3  1  0
  3  4  2  0
  4  5  1  0
  5  6  2  0
  5  7  1  0
  7  8  1  0
  8  9  1  0
  9 10  1  0
 10 11  1  0
 11 12  1  0
 12 13  1  0
 13 14  1  0
 14 15  1  0
 15 16  1  0
 16 17  1  0
 17 18  2  0
 18 19  1  0
 19 20  2  0
 20 21  1  0
 21 22  2  0
 15 23  1  0
 23 24  1  0
 12 25  1  0
 25 26  2  0
 25 27  1  0
 27 28  1  0
 28 29  1  0
 29 30  1  0
 29 31  1  0
 31 32  1  0
 31 33  1  0
 33 34  1  0
  4 35  1  0
 35 36  2  0
 36  2  1  0
 34  7  1  0
 24 12  1  0
 22 17  1  0
  1 37  1  0
  1 38  1  0
  1 39  1  0
  3 40  1  0
  8 41  1  0
  8 42  1  0
  9 43  1  0
  9 44  1  0
 10 45  1  0
 10 46  1  0
 11 47  1  0
 11 48  1  0
 13 49  1  0
 13 50  1  0
 14 51  1  0
 14 52  1  0
 16 53  1  0
 16 54  1  0
 18 55  1  0
 19 56  1  0
 21 57  1  0
 22 58  1  0
 23 59  1  0
 23 60  1  0
 24 61  1  0
 24 62  1  0
 28 63  1  0
 28 64  1  0
 29 65  1  0
 30 66  1  0
 31 67  1  0
 32 68  1  0
 33 69  1  0
 33 70  1  0
 34 71  1  0
 34 72  1  0
 35 73  1  0
M  END
$$$$
