
     RDKit          3D

 75 78  0  0  0  0  0  0  0  0999 V2000
   -8.2247    0.2317   -0.6317 C   0  0  0  0  0  0  0  0  0  0  0  0
   -7.2913    0.7879    0.4522 C   0  0  0  0  0  0  0  0  0  0  0  0
   -8.0410    0.8573    1.7910 C   0  0  0  0  0  0  0  0  0  0  0  0
   -5.9886   -0.0430    0.6276 C   0  0  0  0  0  0  0  0  0  0  0  0
   -5.2096   -0.3104   -0.6068 N   0  0  0  0  0  0  0  0  0  0  0  0
   -5.4993   -1.5891   -1.2909 C   0  0  0  0  0  0  0  0  0  0  0  0
   -4.6751   -2.7122   -0.6637 C   0  0  0  0  0  0  0  0  0  0  0  0
   -3.2978   -2.4029   -0.7615 O   0  0  0  0  0  0  0  0  0  0  0  0
   -2.5747   -3.1503    0.1929 C   0  0  0  0  0  0  0  0  0  0  0  0
   -1.0783   -2.9404   -0.0062 C   0  0  0  0  0  0  0  0  0  0  0  0
   -0.7716   -1.5461    0.0350 O   0  0  0  0  0  0  0  0  0  0  0  0
    0.5031   -1.0243    0.3039 C   0  0  0  0  0  0  0  0  0  0  0  0
    1.3045   -1.5520    1.3307 C   0  0  0  0  0  0  0  0  0  0  0  0
    2.5561   -1.0003    1.6088 C   0  0  0  0  0  0  0  0  0  0  0  0
    3.0383    0.0880    0.8671 C   0  0  0  0  0  0  0  0  0  0  0  0
    4.3778    0.6484    1.1645 C   0  0  0  0  0  0  0  0  0  0  0  0
    4.8451    0.5415    2.3313 O   0  0  0  0  0  0  0  0  0  0  0  0
    5.1589    1.2860    0.1401 N   0  0  0  0  0  0  0  0  0  0  0  0
    6.4920    1.8368    0.3860 C   0  0  0  0  0  0  0  0  0  0  0  0
    7.5334    0.7176    0.5915 C   0  0  0  0  0  0  0  0  0  0  0  0
    8.9369    1.3104    0.7914 C   0  0  0  0  0  0  0  0  0  0  0  0
    9.9988    0.1942    0.9253 C   0  0  0  0  0  0  0  0  0  0  0  0
    9.4834   -1.1000    0.6537 O   0  0  0  0  0  0  0  0  0  0  0  0
    8.8477   -1.1090   -0.6101 C   0  0  0  0  0  0  0  0  0  0  0  0
    7.5485   -0.2803   -0.5868 C   0  0  0  0  0  0  0  0  0  0  0  0
    2.2285    0.6344   -0.1422 C   0  0  0  0  0  0  0  0  0  0  0  0
    0.9690    0.0826   -0.4348 C   0  0  0  0  0  0  0  0  0  0  0  0
    0.1513    0.6566   -1.5671 C   0  0  0  0  0  0  0  0  0  0  0  0
   -1.1176    1.2973   -1.0696 C   0  0  0  0  0  0  0  0  0  0  0  0
   -1.0659    2.4169   -0.2247 C   0  0  0  0  0  0  0  0  0  0  0  0
   -2.2466    3.0165    0.2218 C   0  0  0  0  0  0  0  0  0  0  0  0
   -3.4866    2.5132   -0.1797 C   0  0  0  0  0  0  0  0  0  0  0  0
   -3.5516    1.4090   -1.0421 C   0  0  0  0  0  0  0  0  0  0  0  0
   -2.3652    0.7972   -1.4723 C   0  0  0  0  0  0  0  0  0  0  0  0
   -4.8755    0.8445   -1.4674 C   0  0  0  0  0  0  0  0  0  0  0  0
   -9.1402    0.8570   -0.7039 H   0  0  0  0  0  0  0  0  0  0  0  0
   -7.7315    0.2534   -1.6256 H   0  0  0  0  0  0  0  0  0  0  0  0
   -8.5276   -0.8096   -0.3913 H   0  0  0  0  0  0  0  0  0  0  0  0
   -7.0317    1.8358    0.1926 H   0  0  0  0  0  0  0  0  0  0  0  0
   -8.3692   -0.1563    2.1103 H   0  0  0  0  0  0  0  0  0  0  0  0
   -7.3834    1.2844    2.5790 H   0  0  0  0  0  0  0  0  0  0  0  0
   -8.9355    1.5101    1.6998 H   0  0  0  0  0  0  0  0  0  0  0  0
   -5.3261    0.4994    1.3364 H   0  0  0  0  0  0  0  0  0  0  0  0
   -6.2394   -1.0033    1.1292 H   0  0  0  0  0  0  0  0  0  0  0  0
   -5.2509   -1.5497   -2.3734 H   0  0  0  0  0  0  0  0  0  0  0  0
   -6.5739   -1.8518   -1.2160 H   0  0  0  0  0  0  0  0  0  0  0  0
   -5.0118   -2.8457    0.3913 H   0  0  0  0  0  0  0  0  0  0  0  0
   -4.8807   -3.6558   -1.2142 H   0  0  0  0  0  0  0  0  0  0  0  0
   -2.8383   -2.8148    1.2215 H   0  0  0  0  0  0  0  0  0  0  0  0
   -2.7903   -4.2391    0.0959 H   0  0  0  0  0  0  0  0  0  0  0  0
   -0.7681   -3.3515   -0.9916 H   0  0  0  0  0  0  0  0  0  0  0  0
   -0.5462   -3.4996    0.7889 H   0  0  0  0  0  0  0  0  0  0  0  0
    0.9563   -2.3696    1.9455 H   0  0  0  0  0  0  0  0  0  0  0  0
    3.1525   -1.4318    2.4028 H   0  0  0  0  0  0  0  0  0  0  0  0
    4.7952    1.3363   -0.8362 H   0  0  0  0  0  0  0  0  0  0  0  0
    6.7901    2.4635   -0.4835 H   0  0  0  0  0  0  0  0  0  0  0  0
    6.4596    2.4981    1.2792 H   0  0  0  0  0  0  0  0  0  0  0  0
    7.2714    0.1576    1.5181 H   0  0  0  0  0  0  0  0  0  0  0  0
    8.9481    1.9513    1.7009 H   0  0  0  0  0  0  0  0  0  0  0  0
    9.1961    1.9519   -0.0805 H   0  0  0  0  0  0  0  0  0  0  0  0
   10.3841    0.1926    1.9667 H   0  0  0  0  0  0  0  0  0  0  0  0
   10.8680    0.4072    0.2622 H   0  0  0  0  0  0  0  0  0  0  0  0
    9.5363   -0.7330   -1.4030 H   0  0  0  0  0  0  0  0  0  0  0  0
    8.6033   -2.1595   -0.8749 H   0  0  0  0  0  0  0  0  0  0  0  0
    7.4501    0.2596   -1.5556 H   0  0  0  0  0  0  0  0  0  0  0  0
    6.6749   -0.9629   -0.4905 H   0  0  0  0  0  0  0  0  0  0  0  0
    2.5637    1.5010   -0.6958 H   0  0  0  0  0  0  0  0  0  0  0  0
   -0.0709   -0.1595   -2.2883 H   0  0  0  0  0  0  0  0  0  0  0  0
    0.7300    1.4200   -2.1310 H   0  0  0  0  0  0  0  0  0  0  0  0
   -0.1119    2.8237    0.0867 H   0  0  0  0  0  0  0  0  0  0  0  0
   -2.2007    3.8758    0.8769 H   0  0  0  0  0  0  0  0  0  0  0  0
   -4.3934    2.9849    0.1777 H   0  0  0  0  0  0  0  0  0  0  0  0
   -2.4160   -0.0665   -2.1239 H   0  0  0  0  0  0  0  0  0  0  0  0
   -4.8022    0.5561   -2.5388 H   0  0  0  0  0  0  0  0  0  0  0  0
   -5.6521    1.6326   -1.4461 H   0  0  0  0  0  0  0  0  0  0  0  0
  1  2  1  0
  2  3  1  0
  2  4  1  0
  4  5  1  0
  5  6  1  0
  6  7  1  0
  7  8  1  0
  8  9  1  0
  9 10  1  0
 10 11  1  0
 11 12  1  0
 12 13  2  0
 13 14  1  0
 14 15  2  0
 15 16  1  0
 16 17  2  0
 16 18  1  0
 18 19  1  0
 19 20  1  0
 20 21  1  0
 21 22  1  0
 22 23  1  0
 23 24  1  0
 24 25  1  0
 15 26  1  0
 26 27  2  0
 27 28  1  0
 28 29  1  0
 29 30  1  0
 30 31  2  0
 31 32  1  0
 32 33  2  0
 33 34  1  0
 33 35  1  0
 35  5  1  0
 27 12  1  0
 34 29  2  0
 25 20  1  0
  1 36  1  0
  1 37  1  0
  1 38  1  0
  2 39  1  0
  3 40  1  0
  3 41  1  0
  3 42  1  0
  4 43  1  0
  4 44  1  0
  6 45  1  0
  6 46  1  0
  7 47  1  0
  7 48  1  0
  9 49  1  0
  9 50  1  0
 10 51  1  0
 10 52  1  0
 13 53  1  0
 14 54  1  0
 18 55  1  0
 19 56  1  0
 19 57  1  0
 20 58  1  0
 21 59  1  0
 21 60  1  0
 22 61  1  0
 22 62  1  0
 24 63  1  0
 24 64  1  0
 25 65  1  0
 25 66  1  0
 26 67  1  0
 28 68  1  0
 28 69  1  0
 30 70  1  0
 31 71  1  0
 32 72  1  0
 34 73  1  0
 35 74  1  0
 35 75  1  0
M  END
$$$$
