
     RDKit          3D

 75 78  0  0  0  0  0  0  0  0999 V2000
   -4.2842   -3.5996    0.3296 C   0  0  0  0  0  0  0  0  0  0  0  0
   -3.4525   -2.6612   -0.5697 C   0  0  0  0  0  0  0  0  0  0  0  0
   -4.1644   -2.5260   -1.9352 C   0  0  0  0  0  0  0  0  0  0  0  0
   -2.0287   -3.2812   -0.7546 C   0  0  0  0  0  0  0  0  0  0  0  0
   -0.9674   -2.3997   -1.4843 C   0  0  0  0  0  0  0  0  0  0  0  0
    0.0963   -1.7854   -0.5456 C   0  0  0  0  0  0  0  0  0  0  0  0
   -0.3353   -0.4784    0.0137 N   0  0  0  0  0  0  0  0  0  0  0  0
   -0.0329   -0.3228    1.4598 C   0  0  0  0  0  0  0  0  0  0  0  0
    1.3752   -0.6909    1.8801 C   0  0  0  0  0  0  0  0  0  0  0  0
    1.5292   -1.2708    2.9894 O   0  0  0  0  0  0  0  0  0  0  0  0
    2.5279   -0.3439    1.0968 N   0  0  0  0  0  0  0  0  0  0  0  0
    3.8942   -0.5739    1.5668 C   0  0  0  0  0  0  0  0  0  0  0  0
    4.4654    0.6803    2.2411 C   0  0  0  0  0  0  0  0  0  0  0  0
    4.5862    1.9371    1.3321 C   0  0  0  0  0  0  0  0  0  0  0  0
    5.7221    1.9698    0.3764 N   0  0  0  0  0  0  0  0  0  0  0  0
    5.5524    1.1370   -0.8228 C   0  0  0  0  0  0  0  0  0  0  0  0
    6.6780    0.1048   -0.8475 C   0  0  0  0  0  0  0  0  0  0  0  0
    7.4130    0.2685    0.4684 C   0  0  0  0  0  0  0  0  0  0  0  0
    7.0351    1.6572    0.9487 C   0  0  0  0  0  0  0  0  0  0  0  0
    0.0578    0.7051   -0.7960 C   0  0  0  0  0  0  0  0  0  0  0  0
   -1.1063    1.2684   -1.5819 C   0  0  0  0  0  0  0  0  0  0  0  0
   -0.9829    1.4424   -2.9712 C   0  0  0  0  0  0  0  0  0  0  0  0
   -2.0155    2.0262   -3.7054 C   0  0  0  0  0  0  0  0  0  0  0  0
   -3.1681    2.4468   -3.0455 C   0  0  0  0  0  0  0  0  0  0  0  0
   -3.2863    2.2691   -1.7048 N   0  0  0  0  0  0  0  0  0  0  0  0
   -2.3016    1.6931   -0.9579 C   0  0  0  0  0  0  0  0  0  0  0  0
   -2.5120    1.4547    0.4088 O   0  0  0  0  0  0  0  0  0  0  0  0
   -3.7686    1.6024    1.0059 C   0  0  0  0  0  0  0  0  0  0  0  0
   -4.0400    2.8069    1.6679 C   0  0  0  0  0  0  0  0  0  0  0  0
   -5.2932    3.0366    2.2407 C   0  0  0  0  0  0  0  0  0  0  0  0
   -6.2919    2.0700    2.1431 C   0  0  0  0  0  0  0  0  0  0  0  0
   -6.0335    0.8583    1.4965 C   0  0  0  0  0  0  0  0  0  0  0  0
   -4.7733    0.5910    0.9447 C   0  0  0  0  0  0  0  0  0  0  0  0
   -4.5925   -0.6808    0.3675 O   0  0  0  0  0  0  0  0  0  0  0  0
   -3.3304   -1.2859    0.1032 C   0  0  0  0  0  0  0  0  0  0  0  0
   -4.3593   -4.6076   -0.1285 H   0  0  0  0  0  0  0  0  0  0  0  0
   -3.8123   -3.7049    1.3309 H   0  0  0  0  0  0  0  0  0  0  0  0
   -5.3137   -3.2060    0.4686 H   0  0  0  0  0  0  0  0  0  0  0  0
   -3.6384   -1.8115   -2.6017 H   0  0  0  0  0  0  0  0  0  0  0  0
   -5.2032   -2.1550   -1.8002 H   0  0  0  0  0  0  0  0  0  0  0  0
   -4.2119   -3.5099   -2.4478 H   0  0  0  0  0  0  0  0  0  0  0  0
   -1.6395   -3.5931    0.2400 H   0  0  0  0  0  0  0  0  0  0  0  0
   -2.1405   -4.2291   -1.3314 H   0  0  0  0  0  0  0  0  0  0  0  0
   -0.4211   -3.0639   -2.1908 H   0  0  0  0  0  0  0  0  0  0  0  0
   -1.4224   -1.6152   -2.1202 H   0  0  0  0  0  0  0  0  0  0  0  0
    0.3149   -2.5186    0.2634 H   0  0  0  0  0  0  0  0  0  0  0  0
    1.0537   -1.6807   -1.1027 H   0  0  0  0  0  0  0  0  0  0  0  0
   -0.2510    0.7116    1.8034 H   0  0  0  0  0  0  0  0  0  0  0  0
   -0.7338   -0.9694    2.0269 H   0  0  0  0  0  0  0  0  0  0  0  0
    2.4131    0.1533    0.1904 H   0  0  0  0  0  0  0  0  0  0  0  0
    3.9119   -1.4106    2.2998 H   0  0  0  0  0  0  0  0  0  0  0  0
    4.5311   -0.9064    0.7262 H   0  0  0  0  0  0  0  0  0  0  0  0
    3.7818    0.9407    3.0783 H   0  0  0  0  0  0  0  0  0  0  0  0
    5.4290    0.4237    2.7202 H   0  0  0  0  0  0  0  0  0  0  0  0
    4.6953    2.8171    2.0026 H   0  0  0  0  0  0  0  0  0  0  0  0
    3.6340    2.1110    0.7885 H   0  0  0  0  0  0  0  0  0  0  0  0
    5.6367    1.7910   -1.7182 H   0  0  0  0  0  0  0  0  0  0  0  0
    4.5550    0.6523   -0.8773 H   0  0  0  0  0  0  0  0  0  0  0  0
    7.3694    0.3183   -1.6922 H   0  0  0  0  0  0  0  0  0  0  0  0
    6.2818   -0.9279   -0.9593 H   0  0  0  0  0  0  0  0  0  0  0  0
    8.5127    0.1698    0.3387 H   0  0  0  0  0  0  0  0  0  0  0  0
    7.0618   -0.4942    1.1953 H   0  0  0  0  0  0  0  0  0  0  0  0
    7.0688    1.7457    2.0564 H   0  0  0  0  0  0  0  0  0  0  0  0
    7.7709    2.3863    0.5449 H   0  0  0  0  0  0  0  0  0  0  0  0
    0.4473    1.5311   -0.1606 H   0  0  0  0  0  0  0  0  0  0  0  0
    0.8911    0.4615   -1.4888 H   0  0  0  0  0  0  0  0  0  0  0  0
   -0.0833    1.1353   -3.4894 H   0  0  0  0  0  0  0  0  0  0  0  0
   -1.9193    2.1571   -4.7753 H   0  0  0  0  0  0  0  0  0  0  0  0
   -3.9762    2.9056   -3.5986 H   0  0  0  0  0  0  0  0  0  0  0  0
   -3.2769    3.5729    1.7247 H   0  0  0  0  0  0  0  0  0  0  0  0
   -5.4919    3.9724    2.7499 H   0  0  0  0  0  0  0  0  0  0  0  0
   -7.2643    2.2523    2.5831 H   0  0  0  0  0  0  0  0  0  0  0  0
   -6.8125    0.1090    1.4442 H   0  0  0  0  0  0  0  0  0  0  0  0
   -2.7669   -1.3754    1.0541 H   0  0  0  0  0  0  0  0  0  0  0  0
   -2.7935   -0.6641   -0.6078 H   0  0  0  0  0  0  0  0  0  0  0  0
  1  2  1  0
  2  3  1  0
  2  4  1  0
  4  5  1  0
  5  6  1  0
  6  7  1  0
  7  8  1  0
  8  9  1  0
  9 10  2  0
  9 11  1  0
 11 12  1  0
 12 13  1  0
 13 14  1  0
 14 15  1  0
 15 16  1  0
 16 17  1  0
 17 18  1  0
 18 19  1  0
  7 20  1  0
 20 21  1  0
 21 22  2  0
 22 23  1  0
 23 24  2  0
 24 25  1  0
 25 26  2  0
 26 27  1  0
 27 28  1  0
 28 29  2  0
 29 30  1  0
 30 31  2  0
 31 32  1  0
 32 33  2  0
 33 34  1  0
 34 35  1  0
 35  2  1  0
 19 15  1  0
 26 21  1  0
 33 28  1  0
  1 36  1  0
  1 37  1  0
  1 38  1  0
  3 39  1  0
  3 40  1  0
  3 41  1  0
  4 42  1  0
  4 43  1  0
  5 44  1  0
  5 45  1  0
  6 46  1  0
  6 47  1  0
  8 48  1  0
  8 49  1  0
 11 50  1  0
 12 51  1  0
 12 52  1  0
 13 53  1  0
 13 54  1  0
 14 55  1  0
 14 56  1  0
 16 57  1  0
 16 58  1  0
 17 59  1  0
 17 60  1  0
 18 61  1  0
 18 62  1  0
 19 63  1  0
 19 64  1  0
 20 65  1  0
 20 66  1  0
 22 67  1  0
 23 68  1  0
 24 69  1  0
 29 70  1  0
 30 71  1  0
 31 72  1  0
 32 73  1  0
 35 74  1  0
 35 75  1  0
M  END
$$$$
