
     RDKit          3D

 69 71  0  0  0  0  0  0  0  0999 V2000
   -4.8090   -0.9885   -1.7571 C   0  0  0  0  0  0  0  0  0  0  0  0
   -4.1771   -2.3172   -1.3571 C   0  0  0  0  0  0  0  0  0  0  0  0
   -2.6803   -2.2043   -1.2465 C   0  0  0  0  0  0  0  0  0  0  0  0
   -2.0009   -2.3140   -2.3037 O   0  0  0  0  0  0  0  0  0  0  0  0
   -2.0025   -2.0420    0.0202 N   0  0  0  0  0  0  0  0  0  0  0  0
   -2.6384   -1.4075    1.1902 C   0  0  0  0  0  0  0  0  0  0  0  0
   -2.0014   -0.0442    1.4904 C   0  0  0  0  0  0  0  0  0  0  0  0
   -2.5056    1.0477    0.5259 C   0  0  0  0  0  0  0  0  0  0  0  0
   -1.9469    2.4038    0.8013 N   0  0  0  0  0  0  0  0  0  0  0  0
   -2.6062    3.4684   -0.0252 C   0  0  0  0  0  0  0  0  0  0  0  0
   -2.0473    4.8735    0.2925 C   0  0  0  0  0  0  0  0  0  0  0  0
   -4.1333    3.5110    0.2053 C   0  0  0  0  0  0  0  0  0  0  0  0
   -0.4584    2.4370    0.7107 C   0  0  0  0  0  0  0  0  0  0  0  0
    0.0999    2.2363   -0.7212 C   0  0  0  0  0  0  0  0  0  0  0  0
    1.4374    1.4838   -0.7325 C   0  0  0  0  0  0  0  0  0  0  0  0
    1.3086    0.1146   -0.2034 N   0  0  0  0  0  0  0  0  0  0  0  0
    2.1102   -0.2489    0.9380 C   0  0  0  0  0  0  0  0  0  0  0  0
    1.5388   -0.6185    1.9992 O   0  0  0  0  0  0  0  0  0  0  0  0
    3.5913   -0.1973    0.8824 C   0  0  0  0  0  0  0  0  0  0  0  0
    4.3470   -0.1904    2.0617 C   0  0  0  0  0  0  0  0  0  0  0  0
    5.7368   -0.1364    2.0007 C   0  0  0  0  0  0  0  0  0  0  0  0
    6.3736   -0.1033    0.7580 C   0  0  0  0  0  0  0  0  0  0  0  0
    7.6329   -0.0385    0.7167 O   0  0  0  0  0  0  0  0  0  0  0  0
    5.6366   -0.1421   -0.3979 N   0  0  0  0  0  0  0  0  0  0  0  0
    6.3044   -0.0904   -1.7048 C   0  0  0  0  0  0  0  0  0  0  0  0
    4.2694   -0.1737   -0.3482 C   0  0  0  0  0  0  0  0  0  0  0  0
    0.5909   -0.8978   -1.0075 C   0  0  0  0  0  0  0  0  0  0  0  0
    0.4711   -2.2497   -0.3277 C   0  0  0  0  0  0  0  0  0  0  0  0
    1.6245   -3.0499   -0.2258 C   0  0  0  0  0  0  0  0  0  0  0  0
    1.5864   -4.2789    0.4344 C   0  0  0  0  0  0  0  0  0  0  0  0
    2.7139   -5.0259    0.5365 F   0  0  0  0  0  0  0  0  0  0  0  0
    0.3910   -4.7372    0.9876 C   0  0  0  0  0  0  0  0  0  0  0  0
    0.3515   -5.9339    1.6242 F   0  0  0  0  0  0  0  0  0  0  0  0
   -0.7717   -3.9749    0.8663 C   0  0  0  0  0  0  0  0  0  0  0  0
   -0.7525   -2.7353    0.2072 C   0  0  0  0  0  0  0  0  0  0  0  0
   -5.8958   -1.1330   -1.9320 H   0  0  0  0  0  0  0  0  0  0  0  0
   -4.6835   -0.2379   -0.9530 H   0  0  0  0  0  0  0  0  0  0  0  0
   -4.3482   -0.6043   -2.6925 H   0  0  0  0  0  0  0  0  0  0  0  0
   -4.6227   -2.6903   -0.4119 H   0  0  0  0  0  0  0  0  0  0  0  0
   -4.4204   -3.0709   -2.1373 H   0  0  0  0  0  0  0  0  0  0  0  0
   -3.7311   -1.2840    1.0592 H   0  0  0  0  0  0  0  0  0  0  0  0
   -2.5079   -2.0619    2.0794 H   0  0  0  0  0  0  0  0  0  0  0  0
   -2.2532    0.2549    2.5311 H   0  0  0  0  0  0  0  0  0  0  0  0
   -0.9109   -0.1806    1.4288 H   0  0  0  0  0  0  0  0  0  0  0  0
   -3.5995    1.0648    0.6889 H   0  0  0  0  0  0  0  0  0  0  0  0
   -2.3413    0.7450   -0.5271 H   0  0  0  0  0  0  0  0  0  0  0  0
   -2.4390    3.2715   -1.1074 H   0  0  0  0  0  0  0  0  0  0  0  0
   -2.0396    5.0480    1.3898 H   0  0  0  0  0  0  0  0  0  0  0  0
   -1.0227    4.9990   -0.1120 H   0  0  0  0  0  0  0  0  0  0  0  0
   -2.6574    5.6664   -0.1906 H   0  0  0  0  0  0  0  0  0  0  0  0
   -4.3635    3.4525    1.2907 H   0  0  0  0  0  0  0  0  0  0  0  0
   -4.6393    2.6824   -0.3328 H   0  0  0  0  0  0  0  0  0  0  0  0
   -4.5795    4.4440   -0.2007 H   0  0  0  0  0  0  0  0  0  0  0  0
   -0.0126    1.7220    1.4244 H   0  0  0  0  0  0  0  0  0  0  0  0
   -0.0733    3.3948    1.1158 H   0  0  0  0  0  0  0  0  0  0  0  0
    0.2650    3.2350   -1.1790 H   0  0  0  0  0  0  0  0  0  0  0  0
   -0.6110    1.7211   -1.3910 H   0  0  0  0  0  0  0  0  0  0  0  0
    1.8216    1.4408   -1.7749 H   0  0  0  0  0  0  0  0  0  0  0  0
    2.1739    2.0696   -0.1377 H   0  0  0  0  0  0  0  0  0  0  0  0
    3.8636   -0.2119    3.0307 H   0  0  0  0  0  0  0  0  0  0  0  0
    6.3162   -0.1160    2.9160 H   0  0  0  0  0  0  0  0  0  0  0  0
    5.6374   -0.4542   -2.5170 H   0  0  0  0  0  0  0  0  0  0  0  0
    7.2074   -0.7389   -1.7071 H   0  0  0  0  0  0  0  0  0  0  0  0
    6.6026    0.9560   -1.9287 H   0  0  0  0  0  0  0  0  0  0  0  0
    3.6996   -0.1992   -1.2692 H   0  0  0  0  0  0  0  0  0  0  0  0
    1.1302   -1.0362   -1.9695 H   0  0  0  0  0  0  0  0  0  0  0  0
   -0.4111   -0.5146   -1.2696 H   0  0  0  0  0  0  0  0  0  0  0  0
    2.5625   -2.7103   -0.6480 H   0  0  0  0  0  0  0  0  0  0  0  0
   -1.7012   -4.3589    1.2680 H   0  0  0  0  0  0  0  0  0  0  0  0
  1  2  1  0
  2  3  1  0
  3  4  2  0
  3  5  1  0
  5  6  1  0
  6  7  1  0
  7  8  1  0
  8  9  1  0
  9 10  1  0
 10 11  1  0
 10 12  1  0
  9 13  1  0
 13 14  1  0
 14 15  1  0
 15 16  1  0
 16 17  1  0
 17 18  2  0
 17 19  1  0
 19 20  1  0
 20 21  2  0
 21 22  1  0
 22 23  2  0
 22 24  1  0
 24 25  1  0
 24 26  1  0
 16 27  1  0
 27 28  1  0
 28 29  2  0
 29 30  1  0
 30 31  1  0
 30 32  2  0
 32 33  1  0
 32 34  1  0
 34 35  2  0
 35  5  1  0
 26 19  2  0
 35 28  1  0
  1 36  1  0
  1 37  1  0
  1 38  1  0
  2 39  1  0
  2 40  1  0
  6 41  1  0
  6 42  1  0
  7 43  1  0
  7 44  1  0
  8 45  1  0
  8 46  1  0
 10 47  1  0
 11 48  1  0
 11 49  1  0
 11 50  1  0
 12 51  1  0
 12 52  1  0
 12 53  1  0
 13 54  1  0
 13 55  1  0
 14 56  1  0
 14 57  1  0
 15 58  1  0
 15 59  1  0
 20 60  1  0
 21 61  1  0
 25 62  1  0
 25 63  1  0
 25 64  1  0
 26 65  1  0
 27 66  1  0
 27 67  1  0
 29 68  1  0
 34 69  1  0
M  END
$$$$
