
     RDKit          3D

 71 73  0  0  0  0  0  0  0  0999 V2000
    5.2923    0.9719    2.3243 C   0  0  0  0  0  0  0  0  0  0  0  0
    6.1474    0.4928    1.1831 C   0  0  0  0  0  0  0  0  0  0  0  0
    7.4481    0.0286    1.4405 C   0  0  0  0  0  0  0  0  0  0  0  0
    8.2392   -0.4681    0.4031 C   0  0  0  0  0  0  0  0  0  0  0  0
    7.7364   -0.5154   -0.8976 C   0  0  0  0  0  0  0  0  0  0  0  0
    6.4381   -0.0744   -1.1648 C   0  0  0  0  0  0  0  0  0  0  0  0
    5.6276    0.4267   -0.1269 C   0  0  0  0  0  0  0  0  0  0  0  0
    4.3106    0.8557   -0.3571 O   0  0  0  0  0  0  0  0  0  0  0  0
    3.6265    0.7437   -1.6015 C   0  0  0  0  0  0  0  0  0  0  0  0
    2.2028    1.2006   -1.4576 C   0  0  0  0  0  0  0  0  0  0  0  0
    1.6515    1.7539   -2.4464 O   0  0  0  0  0  0  0  0  0  0  0  0
    1.4578    1.0453   -0.2292 N   0  0  0  0  0  0  0  0  0  0  0  0
    0.7126    2.2100    0.2814 C   0  0  0  0  0  0  0  0  0  0  0  0
   -0.8063    1.9890    0.2457 C   0  0  0  0  0  0  0  0  0  0  0  0
   -1.3756    2.0890   -1.1733 C   0  0  0  0  0  0  0  0  0  0  0  0
   -2.9196    2.0323   -1.2480 C   0  0  0  0  0  0  0  0  0  0  0  0
   -3.6480    0.7819   -0.6329 C   0  0  0  0  0  0  0  0  0  0  0  0
   -3.8204    0.9569    0.9192 C   0  0  0  0  0  0  0  0  0  0  0  0
   -5.1488    0.3966    1.4618 C   0  0  0  0  0  0  0  0  0  0  0  0
   -5.5451   -0.7926    0.6919 N   0  0  0  0  0  0  0  0  0  0  0  0
   -6.6435   -1.5029    1.3651 C   0  0  0  0  0  0  0  0  0  0  0  0
   -5.9363   -0.4282   -0.6880 C   0  0  0  0  0  0  0  0  0  0  0  0
   -5.0565    0.6949   -1.2832 C   0  0  0  0  0  0  0  0  0  0  0  0
   -2.8951   -0.5005   -0.9693 C   0  0  0  0  0  0  0  0  0  0  0  0
   -2.4590   -0.6757   -2.1396 O   0  0  0  0  0  0  0  0  0  0  0  0
   -2.8344   -1.5548   -0.0481 O   0  0  0  0  0  0  0  0  0  0  0  0
   -1.6240   -2.0963    0.4902 C   0  0  0  0  0  0  0  0  0  0  0  0
   -0.6763   -2.7012   -0.5713 C   0  0  0  0  0  0  0  0  0  0  0  0
   -1.4171   -3.1968   -1.6583 O   0  0  0  0  0  0  0  0  0  0  0  0
    0.3883   -1.6781   -1.0644 C   0  0  0  0  0  0  0  0  0  0  0  0
    0.8906   -2.0708   -2.3187 O   0  0  0  0  0  0  0  0  0  0  0  0
    1.5674   -1.4905   -0.0629 C   0  0  0  0  0  0  0  0  0  0  0  0
    1.6174   -0.1259    0.6582 C   0  0  0  0  0  0  0  0  0  0  0  0
    5.9186    1.2997    3.1815 H   0  0  0  0  0  0  0  0  0  0  0  0
    4.6283    0.1482    2.6602 H   0  0  0  0  0  0  0  0  0  0  0  0
    4.6702    1.8377    2.0114 H   0  0  0  0  0  0  0  0  0  0  0  0
    7.8485    0.0442    2.4475 H   0  0  0  0  0  0  0  0  0  0  0  0
    9.2416   -0.8217    0.6091 H   0  0  0  0  0  0  0  0  0  0  0  0
    8.3501   -0.9029   -1.6994 H   0  0  0  0  0  0  0  0  0  0  0  0
    6.0729   -0.1283   -2.1816 H   0  0  0  0  0  0  0  0  0  0  0  0
    3.6446   -0.3029   -1.9662 H   0  0  0  0  0  0  0  0  0  0  0  0
    4.1387    1.3818   -2.3540 H   0  0  0  0  0  0  0  0  0  0  0  0
    1.0205    2.4001    1.3324 H   0  0  0  0  0  0  0  0  0  0  0  0
    0.9736    3.1324   -0.2832 H   0  0  0  0  0  0  0  0  0  0  0  0
   -1.2922    2.7587    0.8848 H   0  0  0  0  0  0  0  0  0  0  0  0
   -1.0255    0.9945    0.6680 H   0  0  0  0  0  0  0  0  0  0  0  0
   -1.0612    3.0619   -1.6116 H   0  0  0  0  0  0  0  0  0  0  0  0
   -0.9367    1.3050   -1.8191 H   0  0  0  0  0  0  0  0  0  0  0  0
   -3.1637    2.0908   -2.3326 H   0  0  0  0  0  0  0  0  0  0  0  0
   -3.3337    2.9671   -0.8089 H   0  0  0  0  0  0  0  0  0  0  0  0
   -3.7758    2.0294    1.2081 H   0  0  0  0  0  0  0  0  0  0  0  0
   -2.9959    0.4607    1.4707 H   0  0  0  0  0  0  0  0  0  0  0  0
   -5.0095    0.1400    2.5368 H   0  0  0  0  0  0  0  0  0  0  0  0
   -5.9417    1.1793    1.4040 H   0  0  0  0  0  0  0  0  0  0  0  0
   -6.3049   -1.8758    2.3559 H   0  0  0  0  0  0  0  0  0  0  0  0
   -7.5253   -0.8381    1.5089 H   0  0  0  0  0  0  0  0  0  0  0  0
   -6.9484   -2.3888    0.7676 H   0  0  0  0  0  0  0  0  0  0  0  0
   -7.0007   -0.1001   -0.7341 H   0  0  0  0  0  0  0  0  0  0  0  0
   -5.8383   -1.3313   -1.3282 H   0  0  0  0  0  0  0  0  0  0  0  0
   -4.9751    0.5430   -2.3819 H   0  0  0  0  0  0  0  0  0  0  0  0
   -5.5807    1.6656   -1.1319 H   0  0  0  0  0  0  0  0  0  0  0  0
   -1.9123   -2.9049    1.1944 H   0  0  0  0  0  0  0  0  0  0  0  0
   -1.1119   -1.3265    1.0991 H   0  0  0  0  0  0  0  0  0  0  0  0
   -0.1312   -3.5575   -0.1079 H   0  0  0  0  0  0  0  0  0  0  0  0
   -1.9005   -4.0014   -1.3318 H   0  0  0  0  0  0  0  0  0  0  0  0
   -0.1119   -0.7084   -1.2180 H   0  0  0  0  0  0  0  0  0  0  0  0
    1.3258   -2.9569   -2.1991 H   0  0  0  0  0  0  0  0  0  0  0  0
    1.5412   -2.2783    0.7205 H   0  0  0  0  0  0  0  0  0  0  0  0
    2.5338   -1.6516   -0.5783 H   0  0  0  0  0  0  0  0  0  0  0  0
    2.5815   -0.0460    1.1996 H   0  0  0  0  0  0  0  0  0  0  0  0
    0.8384   -0.1162    1.4480 H   0  0  0  0  0  0  0  0  0  0  0  0
  1  2  1  0
  2  3  2  0
  3  4  1  0
  4  5  2  0
  5  6  1  0
  6  7  2  0
  7  8  1  0
  8  9  1  0
  9 10  1  0
 10 11  2  0
 10 12  1  0
 12 13  1  0
 13 14  1  0
 14 15  1  0
 15 16  1  0
 16 17  1  0
 17 18  1  0
 18 19  1  0
 19 20  1  0
 20 21  1  0
 20 22  1  0
 22 23  1  0
 17 24  1  0
 24 25  2  0
 24 26  1  0
 26 27  1  0
 27 28  1  0
 28 29  1  0
 28 30  1  0
 30 31  1  0
 30 32  1  0
 32 33  1  0
  7  2  1  0
 33 12  1  0
 23 17  1  0
  1 34  1  0
  1 35  1  0
  1 36  1  0
  3 37  1  0
  4 38  1  0
  5 39  1  0
  6 40  1  0
  9 41  1  0
  9 42  1  0
 13 43  1  0
 13 44  1  0
 14 45  1  0
 14 46  1  0
 15 47  1  0
 15 48  1  0
 16 49  1  0
 16 50  1  0
 18 51  1  0
 18 52  1  0
 19 53  1  0
 19 54  1  0
 21 55  1  0
 21 56  1  0
 21 57  1  0
 22 58  1  0
 22 59  1  0
 23 60  1  0
 23 61  1  0
 27 62  1  0
 27 63  1  0
 28 64  1  0
 29 65  1  0
 30 66  1  0
 31 67  1  0
 32 68  1  0
 32 69  1  0
 33 70  1  0
 33 71  1  0
M  END
$$$$
