
     RDKit          3D

 77 80  0  0  0  0  0  0  0  0999 V2000
   -8.6876    1.9581    0.6789 C   0  0  0  0  0  0  0  0  0  0  0  0
   -7.2867    1.3363    0.5955 C   0  0  0  0  0  0  0  0  0  0  0  0
   -6.2190    2.4199    0.7977 C   0  0  0  0  0  0  0  0  0  0  0  0
   -7.0993    0.6234   -0.7624 C   0  0  0  0  0  0  0  0  0  0  0  0
   -5.8605   -0.1908   -0.7740 N   0  0  0  0  0  0  0  0  0  0  0  0
   -6.1007   -1.5364   -0.1963 C   0  0  0  0  0  0  0  0  0  0  0  0
   -4.8190   -2.1378    0.4038 C   0  0  0  0  0  0  0  0  0  0  0  0
   -4.5682   -1.6108    1.6908 O   0  0  0  0  0  0  0  0  0  0  0  0
   -3.6593   -0.5286    1.6477 C   0  0  0  0  0  0  0  0  0  0  0  0
   -2.2190   -0.9991    1.8830 C   0  0  0  0  0  0  0  0  0  0  0  0
   -1.5000   -1.0445    0.6479 O   0  0  0  0  0  0  0  0  0  0  0  0
   -0.0962   -1.1007    0.5414 C   0  0  0  0  0  0  0  0  0  0  0  0
    0.7183   -1.2200    1.6843 C   0  0  0  0  0  0  0  0  0  0  0  0
    2.1057   -1.2429    1.5730 C   0  0  0  0  0  0  0  0  0  0  0  0
    2.7238   -1.1658    0.3162 C   0  0  0  0  0  0  0  0  0  0  0  0
    4.2040   -1.2278    0.2212 C   0  0  0  0  0  0  0  0  0  0  0  0
    4.8581   -1.7418    1.1695 O   0  0  0  0  0  0  0  0  0  0  0  0
    4.9092   -0.7107   -0.9268 N   0  0  0  0  0  0  0  0  0  0  0  0
    6.3579   -0.8467   -1.0684 C   0  0  0  0  0  0  0  0  0  0  0  0
    7.0789    0.1988   -0.2097 C   0  0  0  0  0  0  0  0  0  0  0  0
    8.5343   -0.0721   -0.1906 N   0  0  0  0  0  0  0  0  0  0  0  0
    8.9113   -1.0736    0.8383 C   0  0  0  0  0  0  0  0  0  0  0  0
    9.3461   -0.4171    2.1646 C   0  0  0  0  0  0  0  0  0  0  0  0
    8.7001    0.8266    2.3323 O   0  0  0  0  0  0  0  0  0  0  0  0
    9.1902    1.7605    1.3831 C   0  0  0  0  0  0  0  0  0  0  0  0
    9.3195    1.1684   -0.0415 C   0  0  0  0  0  0  0  0  0  0  0  0
    1.9192   -1.0875   -0.8328 C   0  0  0  0  0  0  0  0  0  0  0  0
    0.5158   -1.0332   -0.7359 C   0  0  0  0  0  0  0  0  0  0  0  0
   -0.2895   -1.0437   -2.0248 C   0  0  0  0  0  0  0  0  0  0  0  0
   -1.4557   -0.0900   -2.0144 C   0  0  0  0  0  0  0  0  0  0  0  0
   -1.2570    1.2871   -1.8290 C   0  0  0  0  0  0  0  0  0  0  0  0
   -2.3527    2.1554   -1.7835 C   0  0  0  0  0  0  0  0  0  0  0  0
   -3.6524    1.6545   -1.9086 C   0  0  0  0  0  0  0  0  0  0  0  0
   -3.8654    0.2807   -2.1003 C   0  0  0  0  0  0  0  0  0  0  0  0
   -2.7597   -0.5809   -2.1820 C   0  0  0  0  0  0  0  0  0  0  0  0
   -5.2637   -0.2735   -2.1357 C   0  0  0  0  0  0  0  0  0  0  0  0
   -9.4567    1.1620    0.6101 H   0  0  0  0  0  0  0  0  0  0  0  0
   -8.8535    2.6798   -0.1514 H   0  0  0  0  0  0  0  0  0  0  0  0
   -8.8232    2.4792    1.6508 H   0  0  0  0  0  0  0  0  0  0  0  0
   -7.1961    0.6012    1.4264 H   0  0  0  0  0  0  0  0  0  0  0  0
   -6.2687    3.1849   -0.0074 H   0  0  0  0  0  0  0  0  0  0  0  0
   -6.3703    2.9247    1.7752 H   0  0  0  0  0  0  0  0  0  0  0  0
   -5.2066    1.9653    0.7952 H   0  0  0  0  0  0  0  0  0  0  0  0
   -7.9816   -0.0152   -0.9947 H   0  0  0  0  0  0  0  0  0  0  0  0
   -7.0734    1.4172   -1.5421 H   0  0  0  0  0  0  0  0  0  0  0  0
   -6.8584   -1.4984    0.6168 H   0  0  0  0  0  0  0  0  0  0  0  0
   -6.5202   -2.2261   -0.9626 H   0  0  0  0  0  0  0  0  0  0  0  0
   -3.9523   -2.0593   -0.2800 H   0  0  0  0  0  0  0  0  0  0  0  0
   -4.9893   -3.2262    0.5229 H   0  0  0  0  0  0  0  0  0  0  0  0
   -3.7315    0.0784    0.7211 H   0  0  0  0  0  0  0  0  0  0  0  0
   -3.9394    0.1589    2.4714 H   0  0  0  0  0  0  0  0  0  0  0  0
   -1.7297   -0.2703    2.5703 H   0  0  0  0  0  0  0  0  0  0  0  0
   -2.2108   -2.0068    2.3551 H   0  0  0  0  0  0  0  0  0  0  0  0
    0.2922   -1.3196    2.6697 H   0  0  0  0  0  0  0  0  0  0  0  0
    2.6985   -1.3378    2.4751 H   0  0  0  0  0  0  0  0  0  0  0  0
    4.3992   -0.1895   -1.6741 H   0  0  0  0  0  0  0  0  0  0  0  0
    6.6379   -0.6924   -2.1353 H   0  0  0  0  0  0  0  0  0  0  0  0
    6.6614   -1.8805   -0.7945 H   0  0  0  0  0  0  0  0  0  0  0  0
    6.6616    0.2117    0.8201 H   0  0  0  0  0  0  0  0  0  0  0  0
    6.8622    1.1941   -0.6600 H   0  0  0  0  0  0  0  0  0  0  0  0
    8.0760   -1.7832    1.0433 H   0  0  0  0  0  0  0  0  0  0  0  0
    9.7552   -1.6905    0.4481 H   0  0  0  0  0  0  0  0  0  0  0  0
   10.4535   -0.3003    2.1981 H   0  0  0  0  0  0  0  0  0  0  0  0
    9.0716   -1.0835    3.0104 H   0  0  0  0  0  0  0  0  0  0  0  0
   10.1732    2.1553    1.7226 H   0  0  0  0  0  0  0  0  0  0  0  0
    8.4830    2.6196    1.3500 H   0  0  0  0  0  0  0  0  0  0  0  0
    9.0220    1.9198   -0.8101 H   0  0  0  0  0  0  0  0  0  0  0  0
   10.3895    0.9317   -0.2420 H   0  0  0  0  0  0  0  0  0  0  0  0
    2.3789   -1.1132   -1.8155 H   0  0  0  0  0  0  0  0  0  0  0  0
   -0.6331   -2.0871   -2.2071 H   0  0  0  0  0  0  0  0  0  0  0  0
    0.3512   -0.7644   -2.8900 H   0  0  0  0  0  0  0  0  0  0  0  0
   -0.2602    1.6833   -1.6984 H   0  0  0  0  0  0  0  0  0  0  0  0
   -2.1965    3.2163   -1.6286 H   0  0  0  0  0  0  0  0  0  0  0  0
   -4.4934    2.3339   -1.8412 H   0  0  0  0  0  0  0  0  0  0  0  0
   -2.9151   -1.6419   -2.3403 H   0  0  0  0  0  0  0  0  0  0  0  0
   -5.8447    0.2888   -2.9006 H   0  0  0  0  0  0  0  0  0  0  0  0
   -5.2429   -1.3163   -2.5294 H   0  0  0  0  0  0  0  0  0  0  0  0
  1  2  1  0
  2  3  1  0
  2  4  1  0
  4  5  1  0
  5  6  1  0
  6  7  1  0
  7  8  1  0
  8  9  1  0
  9 10  1  0
 10 11  1  0
 11 12  1  0
 12 13  2  0
 13 14  1  0
 14 15  2  0
 15 16  1  0
 16 17  2  0
 16 18  1  0
 18 19  1  0
 19 20  1  0
 20 21  1  0
 21 22  1  0
 22 23  1  0
 23 24  1  0
 24 25  1  0
 25 26  1  0
 15 27  1  0
 27 28  2  0
 28 29  1  0
 29 30  1  0
 30 31  1  0
 31 32  2  0
 32 33  1  0
 33 34  2  0
 34 35  1  0
 34 36  1  0
 36  5  1  0
 28 12  1  0
 35 30  2  0
 26 21  1  0
  1 37  1  0
  1 38  1  0
  1 39  1  0
  2 40  1  0
  3 41  1  0
  3 42  1  0
  3 43  1  0
  4 44  1  0
  4 45  1  0
  6 46  1  0
  6 47  1  0
  7 48  1  0
  7 49  1  0
  9 50  1  0
  9 51  1  0
 10 52  1  0
 10 53  1  0
 13 54  1  0
 14 55  1  0
 18 56  1  0
 19 57  1  0
 19 58  1  0
 20 59  1  0
 20 60  1  0
 22 61  1  0
 22 62  1  0
 23 63  1  0
 23 64  1  0
 25 65  1  0
 25 66  1  0
 26 67  1  0
 26 68  1  0
 27 69  1  0
 29 70  1  0
 29 71  1  0
 31 72  1  0
 32 73  1  0
 33 74  1  0
 35 75  1  0
 36 76  1  0
 36 77  1  0
M  END
$$$$
