
     RDKit          3D

 93 95  0  0  0  0  0  0  0  0999 V2000
   -1.9496    3.3725   -1.8468 C   0  0  0  0  0  0  0  0  0  0  0  0
   -3.0483    3.7954   -0.8614 C   0  0  0  0  0  0  0  0  0  0  0  0
   -4.3954    3.1596   -1.2249 C   0  0  0  0  0  0  0  0  0  0  0  0
   -2.6473    3.5764    0.6202 C   0  0  0  0  0  0  0  0  0  0  0  0
   -2.2781    2.1300    1.0438 C   0  0  0  0  0  0  0  0  0  0  0  0
   -1.6356    2.1717    2.3634 N   0  0  0  0  0  0  0  0  0  0  0  0
   -0.2656    2.5514    2.5774 C   0  0  0  0  0  0  0  0  0  0  0  0
    0.0068    3.3192    3.5390 O   0  0  0  0  0  0  0  0  0  0  0  0
    0.8665    2.0255    1.7301 C   0  0  0  0  0  0  0  0  0  0  0  0
    1.8719    1.1869    2.5602 C   0  0  0  0  0  0  0  0  0  0  0  0
    1.6973   -0.3489    2.4482 C   0  0  0  0  0  0  0  0  0  0  0  0
    2.2353   -0.8557    1.1275 C   0  0  0  0  0  0  0  0  0  0  0  0
    1.6358   -0.5856    0.0523 O   0  0  0  0  0  0  0  0  0  0  0  0
    3.4487   -1.6240    1.0972 N   0  0  0  0  0  0  0  0  0  0  0  0
    4.0506   -2.1179   -0.1410 C   0  0  0  0  0  0  0  0  0  0  0  0
    5.3693   -1.3929   -0.4260 C   0  0  0  0  0  0  0  0  0  0  0  0
    5.1544    0.1014   -0.7150 C   0  0  0  0  0  0  0  0  0  0  0  0
    6.4830    0.8287   -0.9662 C   0  0  0  0  0  0  0  0  0  0  0  0
    7.1893    0.2679   -2.1401 N   0  0  0  0  0  0  0  0  0  0  0  0
    8.6394    0.4844   -2.0155 C   0  0  0  0  0  0  0  0  0  0  0  0
    6.7069    0.8805   -3.3902 C   0  0  0  0  0  0  0  0  0  0  0  0
    0.3052   -0.7604    2.6934 N   0  0  0  0  0  0  0  0  0  0  0  0
   -0.1198   -2.1308    2.7600 C   0  0  0  0  0  0  0  0  0  0  0  0
   -0.9557   -2.4777    3.6360 O   0  0  0  0  0  0  0  0  0  0  0  0
    0.3276   -3.1249    1.7772 C   0  0  0  0  0  0  0  0  0  0  0  0
    1.4525   -3.9176    2.0474 C   0  0  0  0  0  0  0  0  0  0  0  0
    1.8928   -4.8537    1.1083 C   0  0  0  0  0  0  0  0  0  0  0  0
    1.2051   -5.0124   -0.0981 C   0  0  0  0  0  0  0  0  0  0  0  0
    0.0667   -4.2450   -0.3616 C   0  0  0  0  0  0  0  0  0  0  0  0
   -0.3799   -3.3031    0.5731 C   0  0  0  0  0  0  0  0  0  0  0  0
   -1.5373   -2.5672    0.3082 O   0  0  0  0  0  0  0  0  0  0  0  0
   -1.4746   -1.2902   -0.3159 C   0  0  0  0  0  0  0  0  0  0  0  0
   -2.8639   -0.6515   -0.4514 C   0  0  0  0  0  0  0  0  0  0  0  0
   -3.8703   -1.5770   -1.1701 C   0  0  0  0  0  0  0  0  0  0  0  0
   -5.0922   -0.8102   -1.6076 C   0  0  0  0  0  0  0  0  0  0  0  0
   -5.1025   -0.1499   -2.8484 C   0  0  0  0  0  0  0  0  0  0  0  0
   -6.2087    0.6154   -3.2300 C   0  0  0  0  0  0  0  0  0  0  0  0
   -7.3065    0.7349   -2.3740 C   0  0  0  0  0  0  0  0  0  0  0  0
   -7.3029    0.0847   -1.1373 C   0  0  0  0  0  0  0  0  0  0  0  0
   -6.2009   -0.6860   -0.7543 C   0  0  0  0  0  0  0  0  0  0  0  0
   -3.3692   -0.1859    0.8574 N   0  0  0  0  0  0  0  0  0  0  0  0
   -3.7351   -1.1142    1.9335 C   0  0  0  0  0  0  0  0  0  0  0  0
   -3.4836    1.2201    1.1377 C   0  0  0  0  0  0  0  0  0  0  0  0
   -4.5619    1.6630    1.6176 O   0  0  0  0  0  0  0  0  0  0  0  0
   -2.1892    3.7559   -2.8615 H   0  0  0  0  0  0  0  0  0  0  0  0
   -0.9693    3.7962   -1.5390 H   0  0  0  0  0  0  0  0  0  0  0  0
   -1.8635    2.2690   -1.9103 H   0  0  0  0  0  0  0  0  0  0  0  0
   -3.1788    4.8945   -0.9847 H   0  0  0  0  0  0  0  0  0  0  0  0
   -4.3220    2.0562   -1.2467 H   0  0  0  0  0  0  0  0  0  0  0  0
   -5.1756    3.4600   -0.4935 H   0  0  0  0  0  0  0  0  0  0  0  0
   -4.7170    3.5022   -2.2318 H   0  0  0  0  0  0  0  0  0  0  0  0
   -3.4535    3.9670    1.2794 H   0  0  0  0  0  0  0  0  0  0  0  0
   -1.7647    4.2256    0.8149 H   0  0  0  0  0  0  0  0  0  0  0  0
   -1.5750    1.7121    0.3058 H   0  0  0  0  0  0  0  0  0  0  0  0
   -2.2694    2.2788    3.1893 H   0  0  0  0  0  0  0  0  0  0  0  0
    1.3982    2.9040    1.3056 H   0  0  0  0  0  0  0  0  0  0  0  0
    0.4923    1.4431    0.8716 H   0  0  0  0  0  0  0  0  0  0  0  0
    1.8218    1.4722    3.6342 H   0  0  0  0  0  0  0  0  0  0  0  0
    2.9038    1.4465    2.2339 H   0  0  0  0  0  0  0  0  0  0  0  0
    2.3149   -0.7954    3.2581 H   0  0  0  0  0  0  0  0  0  0  0  0
    3.9618   -1.8002    1.9908 H   0  0  0  0  0  0  0  0  0  0  0  0
    3.3592   -2.0059   -1.0043 H   0  0  0  0  0  0  0  0  0  0  0  0
    4.2575   -3.2036   -0.0250 H   0  0  0  0  0  0  0  0  0  0  0  0
    5.8470   -1.8746   -1.3065 H   0  0  0  0  0  0  0  0  0  0  0  0
    6.0510   -1.5154    0.4445 H   0  0  0  0  0  0  0  0  0  0  0  0
    4.4765    0.2232   -1.5860 H   0  0  0  0  0  0  0  0  0  0  0  0
    4.6616    0.5796    0.1594 H   0  0  0  0  0  0  0  0  0  0  0  0
    6.2905    1.9186   -1.0919 H   0  0  0  0  0  0  0  0  0  0  0  0
    7.0974    0.7213   -0.0432 H   0  0  0  0  0  0  0  0  0  0  0  0
    9.0298   -0.0617   -1.1297 H   0  0  0  0  0  0  0  0  0  0  0  0
    8.8771    1.5672   -1.9110 H   0  0  0  0  0  0  0  0  0  0  0  0
    9.1687    0.0794   -2.9052 H   0  0  0  0  0  0  0  0  0  0  0  0
    7.2111    0.4135   -4.2629 H   0  0  0  0  0  0  0  0  0  0  0  0
    5.6186    0.7069   -3.5180 H   0  0  0  0  0  0  0  0  0  0  0  0
    6.9022    1.9757   -3.4060 H   0  0  0  0  0  0  0  0  0  0  0  0
   -0.3224   -0.0805    3.1756 H   0  0  0  0  0  0  0  0  0  0  0  0
    1.9967   -3.7961    2.9760 H   0  0  0  0  0  0  0  0  0  0  0  0
    2.7701   -5.4529    1.3134 H   0  0  0  0  0  0  0  0  0  0  0  0
    1.5508   -5.7347   -0.8264 H   0  0  0  0  0  0  0  0  0  0  0  0
   -0.4709   -4.3829   -1.2905 H   0  0  0  0  0  0  0  0  0  0  0  0
   -1.0144   -1.3966   -1.3227 H   0  0  0  0  0  0  0  0  0  0  0  0
   -0.8390   -0.6137    0.2856 H   0  0  0  0  0  0  0  0  0  0  0  0
   -2.7209    0.2273   -1.1160 H   0  0  0  0  0  0  0  0  0  0  0  0
   -3.3856   -2.0216   -2.0677 H   0  0  0  0  0  0  0  0  0  0  0  0
   -4.1669   -2.4303   -0.5264 H   0  0  0  0  0  0  0  0  0  0  0  0
   -4.2496   -0.2153   -3.5122 H   0  0  0  0  0  0  0  0  0  0  0  0
   -6.2108    1.1235   -4.1857 H   0  0  0  0  0  0  0  0  0  0  0  0
   -8.1593    1.3326   -2.6682 H   0  0  0  0  0  0  0  0  0  0  0  0
   -8.1519    0.1803   -0.4725 H   0  0  0  0  0  0  0  0  0  0  0  0
   -6.2112   -1.1803    0.2080 H   0  0  0  0  0  0  0  0  0  0  0  0
   -4.8025   -0.9777    2.2042 H   0  0  0  0  0  0  0  0  0  0  0  0
   -3.1107   -0.9088    2.8279 H   0  0  0  0  0  0  0  0  0  0  0  0
   -3.5849   -2.1715    1.6440 H   0  0  0  0  0  0  0  0  0  0  0  0
  1  2  1  0
  2  3  1  0
  2  4  1  0
  4  5  1  0
  5  6  1  0
  6  7  1  0
  7  8  2  0
  7  9  1  0
  9 10  1  0
 10 11  1  0
 11 12  1  0
 12 13  2  0
 12 14  1  0
 14 15  1  0
 15 16  1  0
 16 17  1  0
 17 18  1  0
 18 19  1  0
 19 20  1  0
 19 21  1  0
 11 22  1  0
 22 23  1  0
 23 24  2  0
 23 25  1  0
 25 26  2  0
 26 27  1  0
 27 28  2  0
 28 29  1  0
 29 30  2  0
 30 31  1  0
 31 32  1  0
 32 33  1  0
 33 34  1  0
 34 35  1  0
 35 36  2  0
 36 37  1  0
 37 38  2  0
 38 39  1  0
 39 40  2  0
 33 41  1  0
 41 42  1  0
 41 43  1  0
 43 44  2  0
 43  5  1  0
 30 25  1  0
 40 35  1  0
  1 45  1  0
  1 46  1  0
  1 47  1  0
  2 48  1  0
  3 49  1  0
  3 50  1  0
  3 51  1  0
  4 52  1  0
  4 53  1  0
  5 54  1  0
  6 55  1  0
  9 56  1  0
  9 57  1  0
 10 58  1  0
 10 59  1  0
 11 60  1  0
 14 61  1  0
 15 62  1  0
 15 63  1  0
 16 64  1  0
 16 65  1  0
 17 66  1  0
 17 67  1  0
 18 68  1  0
 18 69  1  0
 20 70  1  0
 20 71  1  0
 20 72  1  0
 21 73  1  0
 21 74  1  0
 21 75  1  0
 22 76  1  0
 26 77  1  0
 27 78  1  0
 28 79  1  0
 29 80  1  0
 32 81  1  0
 32 82  1  0
 33 83  1  0
 34 84  1  0
 34 85  1  0
 36 86  1  0
 37 87  1  0
 38 88  1  0
 39 89  1  0
 40 90  1  0
 42 91  1  0
 42 92  1  0
 42 93  1  0
M  END
$$$$
