
     RDKit          3D

 77 80  0  0  0  0  0  0  0  0999 V2000
   -9.7084   -0.5632   -0.4607 C   0  0  0  0  0  0  0  0  0  0  0  0
   -8.3696   -1.2198   -0.3897 C   0  0  0  0  0  0  0  0  0  0  0  0
   -8.2391   -2.3319    0.1867 O   0  0  0  0  0  0  0  0  0  0  0  0
   -7.2315   -0.5850   -0.9675 N   0  0  0  0  0  0  0  0  0  0  0  0
   -5.7932   -0.8662   -1.1274 C   0  0  0  0  0  0  0  0  0  0  0  0
   -5.4679    0.3890   -1.8843 C   0  0  0  0  0  0  0  0  0  0  0  0
   -4.5362    1.3281   -1.1543 C   0  0  0  0  0  0  0  0  0  0  0  0
   -4.8276    2.5544   -1.0888 O   0  0  0  0  0  0  0  0  0  0  0  0
   -3.2930    0.8605   -0.5860 N   0  0  0  0  0  0  0  0  0  0  0  0
   -2.4684   -0.0962   -1.3622 C   0  0  0  0  0  0  0  0  0  0  0  0
   -1.3639    0.5969   -2.1888 C   0  0  0  0  0  0  0  0  0  0  0  0
   -0.0601    0.9186   -1.4309 C   0  0  0  0  0  0  0  0  0  0  0  0
    0.7318   -0.3308   -0.9887 C   0  0  0  0  0  0  0  0  0  0  0  0
    2.1024   -0.0118   -0.3105 C   0  0  0  0  0  0  0  0  0  0  0  0
    2.7341   -1.3471    0.1743 C   0  0  0  0  0  0  0  0  0  0  0  0
    4.1373   -1.1606    0.7924 C   0  0  0  0  0  0  0  0  0  0  0  0
    4.7287    0.1452    0.4355 N   0  0  0  0  0  0  0  0  0  0  0  0
    6.1152    0.3090    0.9272 C   0  0  0  0  0  0  0  0  0  0  0  0
    7.1243   -0.5801    0.2286 C   0  0  0  0  0  0  0  0  0  0  0  0
    7.7657   -0.1455   -0.9423 C   0  0  0  0  0  0  0  0  0  0  0  0
    8.6852   -0.9834   -1.5757 C   0  0  0  0  0  0  0  0  0  0  0  0
    8.9635   -2.2084   -1.0558 N   0  0  0  0  0  0  0  0  0  0  0  0
    8.3688   -2.6507    0.0841 C   0  0  0  0  0  0  0  0  0  0  0  0
    7.4430   -1.8439    0.7500 C   0  0  0  0  0  0  0  0  0  0  0  0
    4.5732    0.4426   -0.9989 C   0  0  0  0  0  0  0  0  0  0  0  0
    3.0819    0.5955   -1.3716 C   0  0  0  0  0  0  0  0  0  0  0  0
    1.9140    0.9657    0.8640 C   0  0  0  0  0  0  0  0  0  0  0  0
    1.9080    2.2069    0.6422 O   0  0  0  0  0  0  0  0  0  0  0  0
    1.8376    0.5479    2.1992 O   0  0  0  0  0  0  0  0  0  0  0  0
    0.7985   -0.2658    2.7427 C   0  0  0  0  0  0  0  0  0  0  0  0
   -0.2629    0.5892    3.4804 C   0  0  0  0  0  0  0  0  0  0  0  0
   -1.0723   -0.2219    4.2971 O   0  0  0  0  0  0  0  0  0  0  0  0
   -1.1337    1.4856    2.5533 C   0  0  0  0  0  0  0  0  0  0  0  0
   -1.8827    2.3942    3.3200 O   0  0  0  0  0  0  0  0  0  0  0  0
   -2.0610    0.6888    1.6090 C   0  0  0  0  0  0  0  0  0  0  0  0
   -2.7602    1.5989    0.5785 C   0  0  0  0  0  0  0  0  0  0  0  0
   -6.9316    0.6642   -1.6889 C   0  0  0  0  0  0  0  0  0  0  0  0
  -10.4925   -1.2204   -0.0284 H   0  0  0  0  0  0  0  0  0  0  0  0
   -9.6839    0.3910    0.1063 H   0  0  0  0  0  0  0  0  0  0  0  0
   -9.9588   -0.3512   -1.5215 H   0  0  0  0  0  0  0  0  0  0  0  0
   -5.2990   -0.9452   -0.1321 H   0  0  0  0  0  0  0  0  0  0  0  0
   -5.6331   -1.7813   -1.7408 H   0  0  0  0  0  0  0  0  0  0  0  0
   -5.1955    0.2133   -2.9494 H   0  0  0  0  0  0  0  0  0  0  0  0
   -2.0767   -0.9078   -0.7262 H   0  0  0  0  0  0  0  0  0  0  0  0
   -3.1061   -0.6410   -2.0872 H   0  0  0  0  0  0  0  0  0  0  0  0
   -1.1082   -0.0511   -3.0549 H   0  0  0  0  0  0  0  0  0  0  0  0
   -1.7740    1.5401   -2.6098 H   0  0  0  0  0  0  0  0  0  0  0  0
    0.5725    1.5211   -2.1149 H   0  0  0  0  0  0  0  0  0  0  0  0
   -0.2743    1.5516   -0.5583 H   0  0  0  0  0  0  0  0  0  0  0  0
    0.1192   -0.9318   -0.2928 H   0  0  0  0  0  0  0  0  0  0  0  0
    0.9010   -0.9769   -1.8787 H   0  0  0  0  0  0  0  0  0  0  0  0
    2.0810   -1.8779    0.8954 H   0  0  0  0  0  0  0  0  0  0  0  0
    2.8292   -2.0303   -0.6997 H   0  0  0  0  0  0  0  0  0  0  0  0
    4.0493   -1.2241    1.8979 H   0  0  0  0  0  0  0  0  0  0  0  0
    4.7810   -1.9983    0.4529 H   0  0  0  0  0  0  0  0  0  0  0  0
    6.1445    0.1180    2.0228 H   0  0  0  0  0  0  0  0  0  0  0  0
    6.4171    1.3730    0.8110 H   0  0  0  0  0  0  0  0  0  0  0  0
    7.5537    0.8296   -1.3620 H   0  0  0  0  0  0  0  0  0  0  0  0
    9.1776   -0.6592   -2.4829 H   0  0  0  0  0  0  0  0  0  0  0  0
    8.6142   -3.6294    0.4736 H   0  0  0  0  0  0  0  0  0  0  0  0
    6.9759   -2.2022    1.6599 H   0  0  0  0  0  0  0  0  0  0  0  0
    5.0989    1.3893   -1.2535 H   0  0  0  0  0  0  0  0  0  0  0  0
    5.0213   -0.3741   -1.6107 H   0  0  0  0  0  0  0  0  0  0  0  0
    2.9340    0.0955   -2.3555 H   0  0  0  0  0  0  0  0  0  0  0  0
    2.8597    1.6694   -1.5495 H   0  0  0  0  0  0  0  0  0  0  0  0
    0.3412   -0.9204    1.9794 H   0  0  0  0  0  0  0  0  0  0  0  0
    1.2678   -0.9430    3.4873 H   0  0  0  0  0  0  0  0  0  0  0  0
    0.2972    1.2719    4.1576 H   0  0  0  0  0  0  0  0  0  0  0  0
   -1.4023   -0.9751    3.7437 H   0  0  0  0  0  0  0  0  0  0  0  0
   -0.4412    2.0866    1.9295 H   0  0  0  0  0  0  0  0  0  0  0  0
   -2.5238    1.8725    3.8714 H   0  0  0  0  0  0  0  0  0  0  0  0
   -1.4491   -0.0617    1.1000 H   0  0  0  0  0  0  0  0  0  0  0  0
   -2.8362    0.1457    2.1934 H   0  0  0  0  0  0  0  0  0  0  0  0
   -2.0966    2.4124    0.2243 H   0  0  0  0  0  0  0  0  0  0  0  0
   -3.5941    2.1056    1.1139 H   0  0  0  0  0  0  0  0  0  0  0  0
   -7.4831    0.7014   -2.6552 H   0  0  0  0  0  0  0  0  0  0  0  0
   -7.1576    1.5455   -1.0474 H   0  0  0  0  0  0  0  0  0  0  0  0
  1  2  1  0
  2  3  2  0
  2  4  1  0
  4  5  1  0
  5  6  1  0
  6  7  1  0
  7  8  2  0
  7  9  1  0
  9 10  1  0
 10 11  1  0
 11 12  1  0
 12 13  1  0
 13 14  1  0
 14 15  1  0
 15 16  1  0
 16 17  1  0
 17 18  1  0
 18 19  1  0
 19 20  2  0
 20 21  1  0
 21 22  2  0
 22 23  1  0
 23 24  2  0
 17 25  1  0
 25 26  1  0
 14 27  1  0
 27 28  2  0
 27 29  1  0
 29 30  1  0
 30 31  1  0
 31 32  1  0
 31 33  1  0
 33 34  1  0
 33 35  1  0
 35 36  1  0
  6 37  1  0
 37  4  1  0
 36  9  1  0
 26 14  1  0
 24 19  1  0
  1 38  1  0
  1 39  1  0
  1 40  1  0
  5 41  1  0
  5 42  1  0
  6 43  1  0
 10 44  1  0
 10 45  1  0
 11 46  1  0
 11 47  1  0
 12 48  1  0
 12 49  1  0
 13 50  1  0
 13 51  1  0
 15 52  1  0
 15 53  1  0
 16 54  1  0
 16 55  1  0
 18 56  1  0
 18 57  1  0
 20 58  1  0
 21 59  1  0
 23 60  1  0
 24 61  1  0
 25 62  1  0
 25 63  1  0
 26 64  1  0
 26 65  1  0
 30 66  1  0
 30 67  1  0
 31 68  1  0
 32 69  1  0
 33 70  1  0
 34 71  1  0
 35 72  1  0
 35 73  1  0
 36 74  1  0
 36 75  1  0
 37 76  1  0
 37 77  1  0
M  END
$$$$
