
     RDKit          3D

 70 74  0  0  0  0  0  0  0  0999 V2000
    3.4428   -0.0619   -2.5322 O   0  0  0  0  0  0  0  0  0  0  0  0
    3.0711   -0.2300   -1.3383 C   0  0  0  0  0  0  0  0  0  0  0  0
    3.9503   -0.9761   -0.4257 C   0  0  0  0  0  0  0  0  0  0  0  0
    3.4257   -1.9597    0.4256 C   0  0  0  0  0  0  0  0  0  0  0  0
    4.2639   -2.5949    1.3441 C   0  0  0  0  0  0  0  0  0  0  0  0
    5.6160   -2.2369    1.4174 C   0  0  0  0  0  0  0  0  0  0  0  0
    6.4828   -2.8417    2.3400 C   0  0  0  0  0  0  0  0  0  0  0  0
    7.8263   -2.4550    2.3940 C   0  0  0  0  0  0  0  0  0  0  0  0
    8.3097   -1.4677    1.5290 C   0  0  0  0  0  0  0  0  0  0  0  0
    7.4532   -0.8607    0.6044 C   0  0  0  0  0  0  0  0  0  0  0  0
    6.1073   -1.2398    0.5441 C   0  0  0  0  0  0  0  0  0  0  0  0
    5.2673   -0.6416   -0.3425 N   0  0  0  0  0  0  0  0  0  0  0  0
    1.8155    0.3259   -0.8905 N   0  0  0  0  0  0  0  0  0  0  0  0
    0.6914    0.4079   -1.8401 C   0  0  0  0  0  0  0  0  0  0  0  0
   -0.0432   -0.9308   -1.9854 C   0  0  0  0  0  0  0  0  0  0  0  0
   -0.7237   -1.3871   -0.6788 C   0  0  0  0  0  0  0  0  0  0  0  0
   -1.9220   -2.3367   -0.9293 C   0  0  0  0  0  0  0  0  0  0  0  0
   -3.3647   -1.7503   -0.7200 C   0  0  0  0  0  0  0  0  0  0  0  0
   -4.3511   -2.8834   -1.1413 C   0  0  0  0  0  0  0  0  0  0  0  0
   -5.6850   -2.5244   -0.8956 O   0  0  0  0  0  0  0  0  0  0  0  0
   -3.6002   -1.4078    0.7843 C   0  0  0  0  0  0  0  0  0  0  0  0
   -4.5258   -0.1931    0.9615 C   0  0  0  0  0  0  0  0  0  0  0  0
   -3.9511    1.0399    0.3751 N   0  0  0  0  0  0  0  0  0  0  0  0
   -3.3246    0.8501   -0.9629 C   0  0  0  0  0  0  0  0  0  0  0  0
   -3.6360   -0.5053   -1.6293 C   0  0  0  0  0  0  0  0  0  0  0  0
   -3.0492    1.7100    1.3405 C   0  0  0  0  0  0  0  0  0  0  0  0
   -2.5548    3.0481    0.8330 C   0  0  0  0  0  0  0  0  0  0  0  0
   -3.4742    4.0912    0.6430 C   0  0  0  0  0  0  0  0  0  0  0  0
   -3.0401    5.3469    0.2148 C   0  0  0  0  0  0  0  0  0  0  0  0
   -1.6847    5.5756   -0.0188 C   0  0  0  0  0  0  0  0  0  0  0  0
   -0.7575    4.5472    0.1609 C   0  0  0  0  0  0  0  0  0  0  0  0
   -1.1833    3.2695    0.5716 C   0  0  0  0  0  0  0  0  0  0  0  0
   -0.2850    2.2009    0.7200 O   0  0  0  0  0  0  0  0  0  0  0  0
    1.1275    2.2646    0.5350 C   0  0  0  0  0  0  0  0  0  0  0  0
    1.6932    0.8384    0.4889 C   0  0  0  0  0  0  0  0  0  0  0  0
    2.3781   -2.2282    0.3804 H   0  0  0  0  0  0  0  0  0  0  0  0
    3.8551   -3.3534    2.0009 H   0  0  0  0  0  0  0  0  0  0  0  0
    6.1239   -3.6112    3.0143 H   0  0  0  0  0  0  0  0  0  0  0  0
    8.4938   -2.9212    3.1081 H   0  0  0  0  0  0  0  0  0  0  0  0
    9.3506   -1.1750    1.5721 H   0  0  0  0  0  0  0  0  0  0  0  0
    7.8368   -0.0990   -0.0624 H   0  0  0  0  0  0  0  0  0  0  0  0
   -0.0345    1.1881   -1.5451 H   0  0  0  0  0  0  0  0  0  0  0  0
    1.0636    0.7239   -2.8388 H   0  0  0  0  0  0  0  0  0  0  0  0
    0.6693   -1.7149   -2.3257 H   0  0  0  0  0  0  0  0  0  0  0  0
   -0.7998   -0.8023   -2.7878 H   0  0  0  0  0  0  0  0  0  0  0  0
   -1.0139   -0.5282   -0.0522 H   0  0  0  0  0  0  0  0  0  0  0  0
    0.0365   -1.9312   -0.0780 H   0  0  0  0  0  0  0  0  0  0  0  0
   -1.8401   -2.7717   -1.9515 H   0  0  0  0  0  0  0  0  0  0  0  0
   -1.8053   -3.2026   -0.2400 H   0  0  0  0  0  0  0  0  0  0  0  0
   -4.1173   -3.8172   -0.5802 H   0  0  0  0  0  0  0  0  0  0  0  0
   -4.2299   -3.1031   -2.2266 H   0  0  0  0  0  0  0  0  0  0  0  0
   -6.2363   -3.3148   -1.1346 H   0  0  0  0  0  0  0  0  0  0  0  0
   -4.0421   -2.2765    1.3226 H   0  0  0  0  0  0  0  0  0  0  0  0
   -2.6481   -1.2039    1.3130 H   0  0  0  0  0  0  0  0  0  0  0  0
   -5.5084   -0.3917    0.4850 H   0  0  0  0  0  0  0  0  0  0  0  0
   -4.7472   -0.0576    2.0442 H   0  0  0  0  0  0  0  0  0  0  0  0
   -2.2335    0.9999   -0.9336 H   0  0  0  0  0  0  0  0  0  0  0  0
   -3.7073    1.6515   -1.6303 H   0  0  0  0  0  0  0  0  0  0  0  0
   -4.7093   -0.4671   -1.9213 H   0  0  0  0  0  0  0  0  0  0  0  0
   -3.0781   -0.5878   -2.5850 H   0  0  0  0  0  0  0  0  0  0  0  0
   -3.6007    1.9089    2.2851 H   0  0  0  0  0  0  0  0  0  0  0  0
   -2.2056    1.0427    1.6115 H   0  0  0  0  0  0  0  0  0  0  0  0
   -4.5279    3.9322    0.8327 H   0  0  0  0  0  0  0  0  0  0  0  0
   -3.7560    6.1461    0.0703 H   0  0  0  0  0  0  0  0  0  0  0  0
   -1.3502    6.5519   -0.3432 H   0  0  0  0  0  0  0  0  0  0  0  0
    0.2854    4.7583   -0.0263 H   0  0  0  0  0  0  0  0  0  0  0  0
    1.5749    2.8194    1.3874 H   0  0  0  0  0  0  0  0  0  0  0  0
    1.3836    2.7941   -0.4083 H   0  0  0  0  0  0  0  0  0  0  0  0
    1.0627    0.1493    1.0861 H   0  0  0  0  0  0  0  0  0  0  0  0
    2.6896    0.8612    0.9793 H   0  0  0  0  0  0  0  0  0  0  0  0
  1  2  2  0
  2  3  1  0
  3  4  2  0
  4  5  1  0
  5  6  2  0
  6  7  1  0
  7  8  2  0
  8  9  1  0
  9 10  2  0
 10 11  1  0
 11 12  2  0
  2 13  1  0
 13 14  1  0
 14 15  1  0
 15 16  1  0
 16 17  1  0
 17 18  1  0
 18 19  1  0
 19 20  1  0
 18 21  1  0
 21 22  1  0
 22 23  1  0
 23 24  1  0
 24 25  1  0
 23 26  1  0
 26 27  1  0
 27 28  2  0
 28 29  1  0
 29 30  2  0
 30 31  1  0
 31 32  2  0
 32 33  1  0
 33 34  1  0
 34 35  1  0
 12  3  1  0
 35 13  1  0
 11  6  1  0
 25 18  1  0
 32 27  1  0
  4 36  1  0
  5 37  1  0
  7 38  1  0
  8 39  1  0
  9 40  1  0
 10 41  1  0
 14 42  1  0
 14 43  1  0
 15 44  1  0
 15 45  1  0
 16 46  1  0
 16 47  1  0
 17 48  1  0
 17 49  1  0
 19 50  1  0
 19 51  1  0
 20 52  1  0
 21 53  1  0
 21 54  1  0
 22 55  1  0
 22 56  1  0
 24 57  1  0
 24 58  1  0
 25 59  1  0
 25 60  1  0
 26 61  1  0
 26 62  1  0
 28 63  1  0
 29 64  1  0
 30 65  1  0
 31 66  1  0
 34 67  1  0
 34 68  1  0
 35 69  1  0
 35 70  1  0
M  END
$$$$
