
     RDKit          3D

 79 82  0  0  0  0  0  0  0  0999 V2000
   -7.8608    2.4454    1.3871 C   0  0  0  0  0  0  0  0  0  0  0  0
   -7.3653    1.2777    0.5721 C   0  0  0  0  0  0  0  0  0  0  0  0
   -8.2194    0.1777    0.3847 C   0  0  0  0  0  0  0  0  0  0  0  0
   -7.8059   -0.9252   -0.3582 C   0  0  0  0  0  0  0  0  0  0  0  0
   -6.5267   -0.9590   -0.9069 C   0  0  0  0  0  0  0  0  0  0  0  0
   -5.6475    0.1200   -0.7338 C   0  0  0  0  0  0  0  0  0  0  0  0
   -4.2771    0.0007   -1.2815 C   0  0  0  0  0  0  0  0  0  0  0  0
   -4.1321   -0.2838   -2.5013 O   0  0  0  0  0  0  0  0  0  0  0  0
   -3.1147    0.1846   -0.4449 N   0  0  0  0  0  0  0  0  0  0  0  0
   -1.9620    0.8826   -1.0555 C   0  0  0  0  0  0  0  0  0  0  0  0
   -0.7539    1.1160   -0.1236 C   0  0  0  0  0  0  0  0  0  0  0  0
    0.4933    1.5802   -0.9045 C   0  0  0  0  0  0  0  0  0  0  0  0
    1.2405    0.4042   -1.5855 C   0  0  0  0  0  0  0  0  0  0  0  0
    2.5192   -0.1984   -0.8734 C   0  0  0  0  0  0  0  0  0  0  0  0
    3.7770    0.4470   -1.5461 C   0  0  0  0  0  0  0  0  0  0  0  0
    5.0400    0.2920   -0.6808 C   0  0  0  0  0  0  0  0  0  0  0  0
    4.9320    1.0053    0.6177 N   0  0  0  0  0  0  0  0  0  0  0  0
    5.7611    0.3669    1.6637 C   0  0  0  0  0  0  0  0  0  0  0  0
    7.2252    0.4458    1.3147 C   0  0  0  0  0  0  0  0  0  0  0  0
    7.8858    1.6825    1.3307 C   0  0  0  0  0  0  0  0  0  0  0  0
    9.2361    1.7451    0.9808 C   0  0  0  0  0  0  0  0  0  0  0  0
    9.9007    0.6153    0.6218 N   0  0  0  0  0  0  0  0  0  0  0  0
    9.2833   -0.5960    0.5888 C   0  0  0  0  0  0  0  0  0  0  0  0
    7.9339   -0.7034    0.9341 C   0  0  0  0  0  0  0  0  0  0  0  0
    3.5353    1.2072    1.0756 C   0  0  0  0  0  0  0  0  0  0  0  0
    2.6009    0.0468    0.6770 C   0  0  0  0  0  0  0  0  0  0  0  0
    2.5120   -1.7216   -1.1313 C   0  0  0  0  0  0  0  0  0  0  0  0
    3.5573   -2.3047   -1.5274 O   0  0  0  0  0  0  0  0  0  0  0  0
    1.3446   -2.4958   -1.0156 O   0  0  0  0  0  0  0  0  0  0  0  0
    0.5930   -2.6467    0.1889 C   0  0  0  0  0  0  0  0  0  0  0  0
   -0.9136   -2.6049   -0.1113 C   0  0  0  0  0  0  0  0  0  0  0  0
   -1.2686   -3.7596   -0.8294 O   0  0  0  0  0  0  0  0  0  0  0  0
   -1.7362   -2.4870    1.2028 C   0  0  0  0  0  0  0  0  0  0  0  0
   -1.8300   -3.7401    1.8354 O   0  0  0  0  0  0  0  0  0  0  0  0
   -3.1445   -1.8743    0.9889 C   0  0  0  0  0  0  0  0  0  0  0  0
   -3.1566   -0.3262    0.9430 C   0  0  0  0  0  0  0  0  0  0  0  0
   -6.0832    1.2803   -0.0398 C   0  0  0  0  0  0  0  0  0  0  0  0
   -5.1854    2.4945    0.0525 C   0  0  0  0  0  0  0  0  0  0  0  0
   -7.0734    2.7860    2.0910 H   0  0  0  0  0  0  0  0  0  0  0  0
   -8.1420    3.2801    0.7112 H   0  0  0  0  0  0  0  0  0  0  0  0
   -8.7482    2.1707    1.9948 H   0  0  0  0  0  0  0  0  0  0  0  0
   -9.2123    0.1727    0.8178 H   0  0  0  0  0  0  0  0  0  0  0  0
   -8.4743   -1.7665   -0.4971 H   0  0  0  0  0  0  0  0  0  0  0  0
   -6.2121   -1.8410   -1.4529 H   0  0  0  0  0  0  0  0  0  0  0  0
   -1.6387    0.3058   -1.9464 H   0  0  0  0  0  0  0  0  0  0  0  0
   -2.3026    1.8733   -1.4252 H   0  0  0  0  0  0  0  0  0  0  0  0
   -1.0246    1.8954    0.6213 H   0  0  0  0  0  0  0  0  0  0  0  0
   -0.5019    0.1926    0.4254 H   0  0  0  0  0  0  0  0  0  0  0  0
    0.1759    2.3070   -1.6850 H   0  0  0  0  0  0  0  0  0  0  0  0
    1.1589    2.1505   -0.2344 H   0  0  0  0  0  0  0  0  0  0  0  0
    0.5042   -0.3889   -1.8106 H   0  0  0  0  0  0  0  0  0  0  0  0
    1.5230    0.7435   -2.6080 H   0  0  0  0  0  0  0  0  0  0  0  0
    3.6110    1.5368   -1.7070 H   0  0  0  0  0  0  0  0  0  0  0  0
    3.9562    0.0072   -2.5527 H   0  0  0  0  0  0  0  0  0  0  0  0
    5.2512   -0.7891   -0.5289 H   0  0  0  0  0  0  0  0  0  0  0  0
    5.9005    0.7149   -1.2423 H   0  0  0  0  0  0  0  0  0  0  0  0
    5.6288    0.8939    2.6346 H   0  0  0  0  0  0  0  0  0  0  0  0
    5.4424   -0.6870    1.8277 H   0  0  0  0  0  0  0  0  0  0  0  0
    7.3598    2.5868    1.6103 H   0  0  0  0  0  0  0  0  0  0  0  0
    9.7563    2.6923    0.9944 H   0  0  0  0  0  0  0  0  0  0  0  0
    9.8403   -1.4763    0.2941 H   0  0  0  0  0  0  0  0  0  0  0  0
    7.4471   -1.6704    0.9012 H   0  0  0  0  0  0  0  0  0  0  0  0
    3.4812    1.3483    2.1786 H   0  0  0  0  0  0  0  0  0  0  0  0
    3.1694    2.1598    0.6423 H   0  0  0  0  0  0  0  0  0  0  0  0
    2.9955   -0.8590    1.1892 H   0  0  0  0  0  0  0  0  0  0  0  0
    1.6091    0.2399    1.1235 H   0  0  0  0  0  0  0  0  0  0  0  0
    0.8607   -3.6163    0.6592 H   0  0  0  0  0  0  0  0  0  0  0  0
    0.8451   -1.8552    0.9127 H   0  0  0  0  0  0  0  0  0  0  0  0
   -1.1020   -1.7144   -0.7427 H   0  0  0  0  0  0  0  0  0  0  0  0
   -2.1006   -3.5484   -1.3299 H   0  0  0  0  0  0  0  0  0  0  0  0
   -1.1963   -1.8224    1.9111 H   0  0  0  0  0  0  0  0  0  0  0  0
   -2.4588   -4.3008    1.3099 H   0  0  0  0  0  0  0  0  0  0  0  0
   -3.6253   -2.3029    0.0829 H   0  0  0  0  0  0  0  0  0  0  0  0
   -3.7802   -2.1817    1.8494 H   0  0  0  0  0  0  0  0  0  0  0  0
   -2.3632    0.1013    1.5831 H   0  0  0  0  0  0  0  0  0  0  0  0
   -4.0915    0.0235    1.4290 H   0  0  0  0  0  0  0  0  0  0  0  0
   -5.7669    3.4351    0.1558 H   0  0  0  0  0  0  0  0  0  0  0  0
   -4.5859    2.6148   -0.8738 H   0  0  0  0  0  0  0  0  0  0  0  0
   -4.5030    2.3970    0.9237 H   0  0  0  0  0  0  0  0  0  0  0  0
  1  2  1  0
  2  3  2  0
  3  4  1  0
  4  5  2  0
  5  6  1  0
  6  7  1  0
  7  8  2  0
  7  9  1  0
  9 10  1  0
 10 11  1  0
 11 12  1  0
 12 13  1  0
 13 14  1  0
 14 15  1  0
 15 16  1  0
 16 17  1  0
 17 18  1  0
 18 19  1  0
 19 20  2  0
 20 21  1  0
 21 22  2  0
 22 23  1  0
 23 24  2  0
 17 25  1  0
 25 26  1  0
 14 27  1  0
 27 28  2  0
 27 29  1  0
 29 30  1  0
 30 31  1  0
 31 32  1  0
 31 33  1  0
 33 34  1  0
 33 35  1  0
 35 36  1  0
  6 37  2  0
 37 38  1  0
 37  2  1  0
 36  9  1  0
 26 14  1  0
 24 19  1  0
  1 39  1  0
  1 40  1  0
  1 41  1  0
  3 42  1  0
  4 43  1  0
  5 44  1  0
 10 45  1  0
 10 46  1  0
 11 47  1  0
 11 48  1  0
 12 49  1  0
 12 50  1  0
 13 51  1  0
 13 52  1  0
 15 53  1  0
 15 54  1  0
 16 55  1  0
 16 56  1  0
 18 57  1  0
 18 58  1  0
 20 59  1  0
 21 60  1  0
 23 61  1  0
 24 62  1  0
 25 63  1  0
 25 64  1  0
 26 65  1  0
 26 66  1  0
 30 67  1  0
 30 68  1  0
 31 69  1  0
 32 70  1  0
 33 71  1  0
 34 72  1  0
 35 73  1  0
 35 74  1  0
 36 75  1  0
 36 76  1  0
 38 77  1  0
 38 78  1  0
 38 79  1  0
M  END
$$$$
