
     RDKit          3D

 56 59  0  0  0  0  0  0  0  0999 V2000
    6.4205   -0.2120   -0.7354 C   0  0  0  0  0  0  0  0  0  0  0  0
    4.9247    0.6208   -1.2261 S   0  0  0  0  0  6  0  0  0  0  0  0
    5.2872    1.8220   -2.0523 O   0  0  0  0  0  0  0  0  0  0  0  0
    4.0913   -0.3124   -2.0597 O   0  0  0  0  0  0  0  0  0  0  0  0
    4.0459    1.1497    0.1827 N   0  0  0  0  0  0  0  0  0  0  0  0
    3.3093    0.0289    0.7968 C   0  0  0  0  0  0  0  0  0  0  0  0
    3.0193    0.3084    2.2800 C   0  0  0  0  0  0  0  0  0  0  0  0
    1.6733    1.0184    2.3075 C   0  0  0  0  0  0  0  0  0  0  0  0
    1.0560    0.7652    1.0126 N   0  0  0  0  0  0  0  0  0  0  0  0
   -0.0387    1.5980    0.5576 C   0  0  0  0  0  0  0  0  0  0  0  0
   -0.6730    2.2898    1.4007 O   0  0  0  0  0  0  0  0  0  0  0  0
   -0.3703    1.7767   -0.9024 C   0  0  0  0  0  0  0  0  0  0  0  0
   -1.6798    2.3337   -1.1109 O   0  0  0  0  0  0  0  0  0  0  0  0
   -2.9850    1.9511   -0.6914 C   0  0  0  0  0  0  0  0  0  0  0  0
   -3.9434    2.9731   -0.8125 C   0  0  0  0  0  0  0  0  0  0  0  0
   -3.5745    4.1868   -1.2954 F   0  0  0  0  0  0  0  0  0  0  0  0
   -5.2706    2.7771   -0.4353 C   0  0  0  0  0  0  0  0  0  0  0  0
   -5.6783    1.5508    0.0723 C   0  0  0  0  0  0  0  0  0  0  0  0
   -4.7642    0.5086    0.1940 C   0  0  0  0  0  0  0  0  0  0  0  0
   -3.4173    0.6683   -0.1940 C   0  0  0  0  0  0  0  0  0  0  0  0
   -2.5079   -0.5281   -0.0368 C   0  0  0  0  0  0  0  0  0  0  0  0
   -2.2108   -0.8573    1.4388 C   0  0  0  0  0  0  0  0  0  0  0  0
   -1.2540   -2.0627    1.5982 C   0  0  0  0  0  0  0  0  0  0  0  0
   -0.6881   -2.6001    0.2556 C   0  0  0  0  0  0  0  0  0  0  0  0
   -1.8713   -2.9245   -0.6929 C   0  0  0  0  0  0  0  0  0  0  0  0
   -2.9501   -1.8030   -0.7798 C   0  0  0  0  0  0  0  0  0  0  0  0
    0.1515   -1.6497   -0.3876 O   0  0  0  0  0  0  0  0  0  0  0  0
    1.4318   -1.5528    0.1960 C   0  0  0  0  0  0  0  0  0  0  0  0
    1.9068   -0.0812    0.1695 C   0  0  0  0  0  0  0  0  0  0  0  0
    7.0016   -0.4924   -1.6379 H   0  0  0  0  0  0  0  0  0  0  0  0
    6.1711   -1.1283   -0.1626 H   0  0  0  0  0  0  0  0  0  0  0  0
    7.0306    0.4634   -0.1011 H   0  0  0  0  0  0  0  0  0  0  0  0
    4.7741    1.5000    0.8463 H   0  0  0  0  0  0  0  0  0  0  0  0
    3.8926   -0.9168    0.7139 H   0  0  0  0  0  0  0  0  0  0  0  0
    3.8088    0.9115    2.7780 H   0  0  0  0  0  0  0  0  0  0  0  0
    2.9326   -0.6579    2.8244 H   0  0  0  0  0  0  0  0  0  0  0  0
    1.0290    0.6266    3.1239 H   0  0  0  0  0  0  0  0  0  0  0  0
    1.8333    2.1108    2.4440 H   0  0  0  0  0  0  0  0  0  0  0  0
    0.3611    2.5090   -1.3021 H   0  0  0  0  0  0  0  0  0  0  0  0
   -0.2142    0.8728   -1.5223 H   0  0  0  0  0  0  0  0  0  0  0  0
   -5.9859    3.5839   -0.5324 H   0  0  0  0  0  0  0  0  0  0  0  0
   -6.7083    1.4052    0.3717 H   0  0  0  0  0  0  0  0  0  0  0  0
   -5.1161   -0.4323    0.5968 H   0  0  0  0  0  0  0  0  0  0  0  0
   -1.5997   -0.2578   -0.5223 H   0  0  0  0  0  0  0  0  0  0  0  0
   -3.1625   -1.0841    1.9672 H   0  0  0  0  0  0  0  0  0  0  0  0
   -1.7751    0.0271    1.9447 H   0  0  0  0  0  0  0  0  0  0  0  0
   -0.4375   -1.7898    2.2975 H   0  0  0  0  0  0  0  0  0  0  0  0
   -1.8085   -2.8921    2.0905 H   0  0  0  0  0  0  0  0  0  0  0  0
   -0.1304   -3.5483    0.4393 H   0  0  0  0  0  0  0  0  0  0  0  0
   -1.4694   -3.1292   -1.7094 H   0  0  0  0  0  0  0  0  0  0  0  0
   -2.3585   -3.8631   -0.3481 H   0  0  0  0  0  0  0  0  0  0  0  0
   -3.1450   -1.5602   -1.8475 H   0  0  0  0  0  0  0  0  0  0  0  0
   -3.8997   -2.1838   -0.3459 H   0  0  0  0  0  0  0  0  0  0  0  0
    2.1311   -2.1640   -0.4145 H   0  0  0  0  0  0  0  0  0  0  0  0
    1.4848   -1.9429    1.2366 H   0  0  0  0  0  0  0  0  0  0  0  0
    1.9198    0.2889   -0.8765 H   0  0  0  0  0  0  0  0  0  0  0  0
  1  2  1  0
  2  3  2  0
  2  4  2  0
  2  5  1  0
  5  6  1  0
  6  7  1  0
  7  8  1  0
  8  9  1  0
  9 10  1  0
 10 11  2  0
 10 12  1  0
 12 13  1  0
 13 14  1  0
 14 15  2  0
 15 16  1  0
 15 17  1  0
 17 18  2  0
 18 19  1  0
 19 20  2  0
 20 21  1  0
 21 22  1  0
 22 23  1  0
 23 24  1  0
 24 25  1  0
 25 26  1  0
 24 27  1  0
 27 28  1  0
 28 29  1  0
 29  6  1  0
 29  9  1  0
 20 14  1  0
 26 21  1  0
  1 30  1  0
  1 31  1  0
  1 32  1  0
  5 33  1  0
  6 34  1  0
  7 35  1  0
  7 36  1  0
  8 37  1  0
  8 38  1  0
 12 39  1  0
 12 40  1  0
 17 41  1  0
 18 42  1  0
 19 43  1  0
 21 44  1  0
 22 45  1  0
 22 46  1  0
 23 47  1  0
 23 48  1  0
 24 49  1  0
 25 50  1  0
 25 51  1  0
 26 52  1  0
 26 53  1  0
 28 54  1  0
 28 55  1  0
 29 56  1  0
M  END
$$$$
