
     RDKit          3D

 79 83  0  0  0  0  0  0  0  0999 V2000
    3.1558   -1.1709   -2.8001 O   0  0  0  0  0  0  0  0  0  0  0  0
    3.5168   -0.2681   -1.9948 C   0  0  0  0  0  0  0  0  0  0  0  0
    2.5336    0.1966   -0.9973 C   0  0  0  0  0  0  0  0  0  0  0  0
    2.1573    1.5446   -0.9164 C   0  0  0  0  0  0  0  0  0  0  0  0
    1.2143    1.9597    0.0272 C   0  0  0  0  0  0  0  0  0  0  0  0
    0.6056    1.0246    0.8856 C   0  0  0  0  0  0  0  0  0  0  0  0
    0.9854   -0.3324    0.8103 C   0  0  0  0  0  0  0  0  0  0  0  0
    1.9280   -0.7385   -0.1465 C   0  0  0  0  0  0  0  0  0  0  0  0
    0.4003   -1.3531    1.7602 C   0  0  0  0  0  0  0  0  0  0  0  0
   -0.9245   -1.9428    1.3185 C   0  0  0  0  0  0  0  0  0  0  0  0
   -1.3444   -3.1528    1.8990 C   0  0  0  0  0  0  0  0  0  0  0  0
   -2.6243   -3.6570    1.6518 C   0  0  0  0  0  0  0  0  0  0  0  0
   -3.5119   -2.9474    0.8418 C   0  0  0  0  0  0  0  0  0  0  0  0
   -3.1107   -1.7456    0.2422 C   0  0  0  0  0  0  0  0  0  0  0  0
   -1.8157   -1.2549    0.4708 C   0  0  0  0  0  0  0  0  0  0  0  0
   -4.0988   -0.9389   -0.5527 C   0  0  0  0  0  0  0  0  0  0  0  0
   -4.8185   -0.0049    0.3477 N   0  0  0  0  0  0  0  0  0  0  0  0
   -6.2629    0.1846    0.0501 C   0  0  0  0  0  0  0  0  0  0  0  0
   -7.0907   -1.0573    0.4239 C   0  0  0  0  0  0  0  0  0  0  0  0
   -8.5962   -0.8035    0.1626 C   0  0  0  0  0  0  0  0  0  0  0  0
   -8.8482    0.3396   -0.6448 O   0  0  0  0  0  0  0  0  0  0  0  0
   -8.0173    0.3283   -1.7894 C   0  0  0  0  0  0  0  0  0  0  0  0
   -6.5530    0.6185   -1.4083 C   0  0  0  0  0  0  0  0  0  0  0  0
   -4.1069    1.2851    0.5348 C   0  0  0  0  0  0  0  0  0  0  0  0
   -3.6382    1.4157    1.9851 C   0  0  0  0  0  0  0  0  0  0  0  0
   -3.1444    2.7243    2.1875 O   0  0  0  0  0  0  0  0  0  0  0  0
   -1.9957    2.7415    3.0124 C   0  0  0  0  0  0  0  0  0  0  0  0
   -0.7271    2.7320    2.1595 C   0  0  0  0  0  0  0  0  0  0  0  0
   -0.3993    1.3919    1.7953 O   0  0  0  0  0  0  0  0  0  0  0  0
    4.8791    0.2259   -2.0216 N   0  0  0  0  0  0  0  0  0  0  0  0
    5.3017    1.3567   -1.1773 C   0  0  0  0  0  0  0  0  0  0  0  0
    6.8268    1.4794   -1.1384 C   0  0  0  0  0  0  0  0  0  0  0  0
    7.4136    0.1408   -0.9444 N   0  0  0  0  0  0  0  0  0  0  0  0
    8.8567    0.2457   -0.6268 C   0  0  0  0  0  0  0  0  0  0  0  0
    9.3737   -1.0254    0.0532 C   0  0  0  0  0  0  0  0  0  0  0  0
    9.5411   -2.0527   -0.8855 O   0  0  0  0  0  0  0  0  0  0  0  0
    7.1630   -0.7467   -2.1144 C   0  0  0  0  0  0  0  0  0  0  0  0
    5.8794   -0.4010   -2.8987 C   0  0  0  0  0  0  0  0  0  0  0  0
    2.5684    2.2762   -1.6006 H   0  0  0  0  0  0  0  0  0  0  0  0
    0.9513    3.0074    0.0548 H   0  0  0  0  0  0  0  0  0  0  0  0
    2.2075   -1.7845   -0.2136 H   0  0  0  0  0  0  0  0  0  0  0  0
    0.2683   -0.8929    2.7629 H   0  0  0  0  0  0  0  0  0  0  0  0
    1.1344   -2.1745    1.9024 H   0  0  0  0  0  0  0  0  0  0  0  0
   -0.6886   -3.6928    2.5713 H   0  0  0  0  0  0  0  0  0  0  0  0
   -2.9393   -4.5854    2.1159 H   0  0  0  0  0  0  0  0  0  0  0  0
   -4.5150   -3.3323    0.6850 H   0  0  0  0  0  0  0  0  0  0  0  0
   -1.5337   -0.3183    0.0132 H   0  0  0  0  0  0  0  0  0  0  0  0
   -3.5858   -0.4034   -1.3827 H   0  0  0  0  0  0  0  0  0  0  0  0
   -4.7880   -1.6463   -1.0563 H   0  0  0  0  0  0  0  0  0  0  0  0
   -6.6507    0.9936    0.7160 H   0  0  0  0  0  0  0  0  0  0  0  0
   -6.9335   -1.3049    1.4963 H   0  0  0  0  0  0  0  0  0  0  0  0
   -6.7736   -1.9335   -0.1776 H   0  0  0  0  0  0  0  0  0  0  0  0
   -9.1008   -0.6410    1.1391 H   0  0  0  0  0  0  0  0  0  0  0  0
   -9.0677   -1.7016   -0.2961 H   0  0  0  0  0  0  0  0  0  0  0  0
   -8.0965   -0.6469   -2.3318 H   0  0  0  0  0  0  0  0  0  0  0  0
   -8.3708    1.1108   -2.4941 H   0  0  0  0  0  0  0  0  0  0  0  0
   -5.9064    0.0926   -2.1383 H   0  0  0  0  0  0  0  0  0  0  0  0
   -6.3438    1.7024   -1.5110 H   0  0  0  0  0  0  0  0  0  0  0  0
   -4.7558    2.1606    0.2933 H   0  0  0  0  0  0  0  0  0  0  0  0
   -3.2197    1.3849   -0.1307 H   0  0  0  0  0  0  0  0  0  0  0  0
   -4.5015    1.2540    2.6672 H   0  0  0  0  0  0  0  0  0  0  0  0
   -2.8904    0.6144    2.1833 H   0  0  0  0  0  0  0  0  0  0  0  0
   -2.0123    3.6935    3.5873 H   0  0  0  0  0  0  0  0  0  0  0  0
   -1.9832    1.9225    3.7735 H   0  0  0  0  0  0  0  0  0  0  0  0
   -0.9024    3.3553    1.2561 H   0  0  0  0  0  0  0  0  0  0  0  0
    0.1162    3.1630    2.7456 H   0  0  0  0  0  0  0  0  0  0  0  0
    4.8804    2.3043   -1.5746 H   0  0  0  0  0  0  0  0  0  0  0  0
    4.9418    1.2034   -0.1366 H   0  0  0  0  0  0  0  0  0  0  0  0
    7.2014    1.9380   -2.0836 H   0  0  0  0  0  0  0  0  0  0  0  0
    7.0961    2.1601   -0.2968 H   0  0  0  0  0  0  0  0  0  0  0  0
    9.4580    0.4794   -1.5356 H   0  0  0  0  0  0  0  0  0  0  0  0
    9.0305    1.0769    0.0959 H   0  0  0  0  0  0  0  0  0  0  0  0
    8.6559   -1.3406    0.8451 H   0  0  0  0  0  0  0  0  0  0  0  0
   10.3544   -0.8003    0.5336 H   0  0  0  0  0  0  0  0  0  0  0  0
    9.8956   -2.8311   -0.3775 H   0  0  0  0  0  0  0  0  0  0  0  0
    7.0585   -1.7845   -1.7362 H   0  0  0  0  0  0  0  0  0  0  0  0
    8.0151   -0.7336   -2.8335 H   0  0  0  0  0  0  0  0  0  0  0  0
    6.1286    0.3133   -3.7160 H   0  0  0  0  0  0  0  0  0  0  0  0
    5.4935   -1.3256   -3.3771 H   0  0  0  0  0  0  0  0  0  0  0  0
  1  2  2  0
  2  3  1  0
  3  4  2  0
  4  5  1  0
  5  6  2  0
  6  7  1  0
  7  8  2  0
  7  9  1  0
  9 10  1  0
 10 11  2  0
 11 12  1  0
 12 13  2  0
 13 14  1  0
 14 15  2  0
 14 16  1  0
 16 17  1  0
 17 18  1  0
 18 19  1  0
 19 20  1  0
 20 21  1  0
 21 22  1  0
 22 23  1  0
 17 24  1  0
 24 25  1  0
 25 26  1  0
 26 27  1  0
 27 28  1  0
 28 29  1  0
  2 30  1  0
 30 31  1  0
 31 32  1  0
 32 33  1  0
 33 34  1  0
 34 35  1  0
 35 36  1  0
 33 37  1  0
 37 38  1  0
  8  3  1  0
 15 10  1  0
 23 18  1  0
 38 30  1  0
 29  6  1  0
  4 39  1  0
  5 40  1  0
  8 41  1  0
  9 42  1  0
  9 43  1  0
 11 44  1  0
 12 45  1  0
 13 46  1  0
 15 47  1  0
 16 48  1  0
 16 49  1  0
 18 50  1  0
 19 51  1  0
 19 52  1  0
 20 53  1  0
 20 54  1  0
 22 55  1  0
 22 56  1  0
 23 57  1  0
 23 58  1  0
 24 59  1  0
 24 60  1  0
 25 61  1  0
 25 62  1  0
 27 63  1  0
 27 64  1  0
 28 65  1  0
 28 66  1  0
 31 67  1  0
 31 68  1  0
 32 69  1  0
 32 70  1  0
 34 71  1  0
 34 72  1  0
 35 73  1  0
 35 74  1  0
 36 75  1  0
 37 76  1  0
 37 77  1  0
 38 78  1  0
 38 79  1  0
M  END
$$$$
