
     RDKit          3D

 78 81  0  0  0  0  0  0  0  0999 V2000
   -8.8044   -1.9575    0.7553 C   0  0  0  0  0  0  0  0  0  0  0  0
   -7.9378   -0.8966    0.1680 C   0  0  0  0  0  0  0  0  0  0  0  0
   -8.4059    0.2897   -0.2774 N   0  0  0  0  0  0  0  0  0  0  0  0
   -7.2869    0.8780   -0.7445 C   0  0  0  0  0  0  0  0  0  0  0  0
   -7.2708    2.2725   -1.2900 C   0  0  0  0  0  0  0  0  0  0  0  0
   -6.2078    0.0820   -0.5824 N   0  0  0  0  0  0  0  0  0  0  0  0
   -4.8049    0.3665   -0.8907 C   0  0  0  0  0  0  0  0  0  0  0  0
   -4.0431    0.7259    0.3631 C   0  0  0  0  0  0  0  0  0  0  0  0
   -4.6614    1.3305    1.2839 O   0  0  0  0  0  0  0  0  0  0  0  0
   -2.6243    0.4601    0.5028 N   0  0  0  0  0  0  0  0  0  0  0  0
   -1.9129    0.8915    1.7178 C   0  0  0  0  0  0  0  0  0  0  0  0
   -0.5126    1.4463    1.3897 C   0  0  0  0  0  0  0  0  0  0  0  0
    0.2682    0.6781    0.2502 C   0  0  0  0  0  0  0  0  0  0  0  0
    0.2768    1.6345   -1.0149 C   0  0  0  0  0  0  0  0  0  0  0  0
    0.7917    1.0550   -2.3654 C   0  0  0  0  0  0  0  0  0  0  0  0
    2.2181    1.5097   -2.7596 C   0  0  0  0  0  0  0  0  0  0  0  0
    2.9403    0.4636   -3.6429 C   0  0  0  0  0  0  0  0  0  0  0  0
    4.3983    0.3304   -3.2706 C   0  0  0  0  0  0  0  0  0  0  0  0
    5.3822    0.9704   -4.0394 C   0  0  0  0  0  0  0  0  0  0  0  0
    6.7277    0.8722   -3.6830 C   0  0  0  0  0  0  0  0  0  0  0  0
    7.1032    0.1449   -2.5506 C   0  0  0  0  0  0  0  0  0  0  0  0
    6.1336   -0.4861   -1.7677 C   0  0  0  0  0  0  0  0  0  0  0  0
    4.7725   -0.3923   -2.1147 C   0  0  0  0  0  0  0  0  0  0  0  0
    3.7629   -0.9781   -1.3340 O   0  0  0  0  0  0  0  0  0  0  0  0
    3.9636   -1.6487   -0.0909 C   0  0  0  0  0  0  0  0  0  0  0  0
    2.6032   -1.9606    0.5551 C   0  0  0  0  0  0  0  0  0  0  0  0
    2.1091   -0.8324    1.3785 N   0  0  0  0  0  0  0  0  0  0  0  0
    1.4664   -1.1621    2.6662 C   0  0  0  0  0  0  0  0  0  0  0  0
    2.3537   -0.7138    3.8422 C   0  0  0  0  0  0  0  0  0  0  0  0
    1.5790   -0.8048    5.1643 C   0  0  0  0  0  0  0  0  0  0  0  0
    3.6382   -1.5517    3.9198 C   0  0  0  0  0  0  0  0  0  0  0  0
    1.7637    0.4487    0.7095 C   0  0  0  0  0  0  0  0  0  0  0  0
   -0.4748   -0.6621   -0.0605 C   0  0  0  0  0  0  0  0  0  0  0  0
   -1.9419   -0.4313   -0.4474 C   0  0  0  0  0  0  0  0  0  0  0  0
   -6.6107   -1.0388   -0.0126 N   0  0  0  0  0  0  0  0  0  0  0  0
   -9.0160   -2.7305   -0.0111 H   0  0  0  0  0  0  0  0  0  0  0  0
   -9.7624   -1.5173    1.1037 H   0  0  0  0  0  0  0  0  0  0  0  0
   -8.2902   -2.4269    1.6198 H   0  0  0  0  0  0  0  0  0  0  0  0
   -6.5771    2.3522   -2.1501 H   0  0  0  0  0  0  0  0  0  0  0  0
   -6.9643    2.9802   -0.4906 H   0  0  0  0  0  0  0  0  0  0  0  0
   -8.2859    2.5445   -1.6459 H   0  0  0  0  0  0  0  0  0  0  0  0
   -4.7151    1.2003   -1.6149 H   0  0  0  0  0  0  0  0  0  0  0  0
   -4.3779   -0.5325   -1.3780 H   0  0  0  0  0  0  0  0  0  0  0  0
   -1.8249    0.0228    2.4046 H   0  0  0  0  0  0  0  0  0  0  0  0
   -2.4745    1.6797    2.2634 H   0  0  0  0  0  0  0  0  0  0  0  0
    0.0574    1.4751    2.3427 H   0  0  0  0  0  0  0  0  0  0  0  0
   -0.6359    2.5208    1.1308 H   0  0  0  0  0  0  0  0  0  0  0  0
    0.8490    2.5591   -0.7722 H   0  0  0  0  0  0  0  0  0  0  0  0
   -0.7615    1.9906   -1.1924 H   0  0  0  0  0  0  0  0  0  0  0  0
    0.7161   -0.0419   -2.3812 H   0  0  0  0  0  0  0  0  0  0  0  0
    0.1101    1.3967   -3.1754 H   0  0  0  0  0  0  0  0  0  0  0  0
    2.1461    2.4669   -3.3224 H   0  0  0  0  0  0  0  0  0  0  0  0
    2.8259    1.7504   -1.8652 H   0  0  0  0  0  0  0  0  0  0  0  0
    2.8328    0.7510   -4.7117 H   0  0  0  0  0  0  0  0  0  0  0  0
    2.4785   -0.5445   -3.5580 H   0  0  0  0  0  0  0  0  0  0  0  0
    5.1058    1.5414   -4.9168 H   0  0  0  0  0  0  0  0  0  0  0  0
    7.4833    1.3669   -4.2796 H   0  0  0  0  0  0  0  0  0  0  0  0
    8.1489    0.0742   -2.2780 H   0  0  0  0  0  0  0  0  0  0  0  0
    6.4510   -1.0357   -0.8910 H   0  0  0  0  0  0  0  0  0  0  0  0
    4.5070   -2.5997   -0.2801 H   0  0  0  0  0  0  0  0  0  0  0  0
    4.5715   -1.0222    0.5972 H   0  0  0  0  0  0  0  0  0  0  0  0
    2.7480   -2.8625    1.1911 H   0  0  0  0  0  0  0  0  0  0  0  0
    1.8693   -2.2395   -0.2259 H   0  0  0  0  0  0  0  0  0  0  0  0
    0.4838   -0.6664    2.7550 H   0  0  0  0  0  0  0  0  0  0  0  0
    1.2537   -2.2520    2.7469 H   0  0  0  0  0  0  0  0  0  0  0  0
    2.6389    0.3495    3.6890 H   0  0  0  0  0  0  0  0  0  0  0  0
    2.2105   -0.4532    6.0074 H   0  0  0  0  0  0  0  0  0  0  0  0
    1.2623   -1.8498    5.3654 H   0  0  0  0  0  0  0  0  0  0  0  0
    0.6756   -0.1587    5.1258 H   0  0  0  0  0  0  0  0  0  0  0  0
    4.2547   -1.3963    3.0097 H   0  0  0  0  0  0  0  0  0  0  0  0
    4.2487   -1.2456    4.7957 H   0  0  0  0  0  0  0  0  0  0  0  0
    3.3979   -2.6337    4.0099 H   0  0  0  0  0  0  0  0  0  0  0  0
    2.4269    0.5667   -0.1491 H   0  0  0  0  0  0  0  0  0  0  0  0
    2.0894    1.2830    1.3673 H   0  0  0  0  0  0  0  0  0  0  0  0
    0.0098   -1.2554   -0.8531 H   0  0  0  0  0  0  0  0  0  0  0  0
   -0.4764   -1.3241    0.8270 H   0  0  0  0  0  0  0  0  0  0  0  0
   -1.9913    0.0009   -1.4691 H   0  0  0  0  0  0  0  0  0  0  0  0
   -2.4516   -1.4178   -0.4675 H   0  0  0  0  0  0  0  0  0  0  0  0
  1  2  1  0
  2  3  1  0
  3  4  2  0
  4  5  1  0
  4  6  1  0
  6  7  1  0
  7  8  1  0
  8  9  2  0
  8 10  1  0
 10 11  1  0
 11 12  1  0
 12 13  1  0
 13 14  1  0
 14 15  1  0
 15 16  1  0
 16 17  1  0
 17 18  1  0
 18 19  2  0
 19 20  1  0
 20 21  2  0
 21 22  1  0
 22 23  2  0
 23 24  1  0
 24 25  1  0
 25 26  1  0
 26 27  1  0
 27 28  1  0
 28 29  1  0
 29 30  1  0
 29 31  1  0
 27 32  1  0
 13 33  1  0
 33 34  1  0
  6 35  1  0
 35  2  2  0
 34 10  1  0
 32 13  1  0
 23 18  1  0
  1 36  1  0
  1 37  1  0
  1 38  1  0
  5 39  1  0
  5 40  1  0
  5 41  1  0
  7 42  1  0
  7 43  1  0
 11 44  1  0
 11 45  1  0
 12 46  1  0
 12 47  1  0
 14 48  1  0
 14 49  1  0
 15 50  1  0
 15 51  1  0
 16 52  1  0
 16 53  1  0
 17 54  1  0
 17 55  1  0
 19 56  1  0
 20 57  1  0
 21 58  1  0
 22 59  1  0
 25 60  1  0
 25 61  1  0
 26 62  1  0
 26 63  1  0
 28 64  1  0
 28 65  1  0
 29 66  1  0
 30 67  1  0
 30 68  1  0
 30 69  1  0
 31 70  1  0
 31 71  1  0
 31 72  1  0
 32 73  1  0
 32 74  1  0
 33 75  1  0
 33 76  1  0
 34 77  1  0
 34 78  1  0
M  END
$$$$
