
     RDKit          3D

 76 78  0  0  0  0  0  0  0  0999 V2000
   -0.7659    3.1868   -1.9878 C   0  0  0  0  0  0  0  0  0  0  0  0
   -2.0904    3.6450   -1.3619 C   0  0  0  0  0  0  0  0  0  0  0  0
   -1.8513    4.7588   -0.3325 C   0  0  0  0  0  0  0  0  0  0  0  0
   -2.9440    2.4751   -0.8040 C   0  0  0  0  0  0  0  0  0  0  0  0
   -2.3757    1.7513    0.4464 C   0  0  0  0  0  0  0  0  0  0  0  0
   -1.1095    1.0449    0.2046 N   0  0  0  0  0  0  0  0  0  0  0  0
   -0.9078   -0.0016   -0.7728 C   0  0  0  0  0  0  0  0  0  0  0  0
   -1.7877   -0.2026   -1.6526 O   0  0  0  0  0  0  0  0  0  0  0  0
    0.3260   -0.9174   -0.7767 C   0  0  0  0  0  0  0  0  0  0  0  0
   -0.1761   -2.3985   -0.6742 C   0  0  0  0  0  0  0  0  0  0  0  0
   -0.9924   -2.7010    0.6010 C   0  0  0  0  0  0  0  0  0  0  0  0
   -1.8228   -3.9950    0.4620 C   0  0  0  0  0  0  0  0  0  0  0  0
   -3.1332   -3.9010    1.2450 C   0  0  0  0  0  0  0  0  0  0  0  0
   -3.9325   -2.8838    0.6680 O   0  0  0  0  0  0  0  0  0  0  0  0
   -4.5818   -2.1183    1.6615 C   0  0  0  0  0  0  0  0  0  0  0  0
   -5.2429   -0.8879    1.0186 C   0  0  0  0  0  0  0  0  0  0  0  0
   -6.3234   -1.3051    0.0137 C   0  0  0  0  0  0  0  0  0  0  0  0
   -4.2339   -0.0420    0.3653 N   0  0  0  0  0  0  0  0  0  0  0  0
   -3.3723    0.8308    1.1163 C   0  0  0  0  0  0  0  0  0  0  0  0
   -3.4202    0.8171    2.3768 O   0  0  0  0  0  0  0  0  0  0  0  0
    1.3294   -0.5807    0.3609 C   0  0  0  0  0  0  0  0  0  0  0  0
    2.6647   -1.3326    0.2254 C   0  0  0  0  0  0  0  0  0  0  0  0
    3.3132   -1.1177   -1.0883 N   0  0  0  0  0  0  0  0  0  0  0  0
    3.9450    0.2151   -1.2345 C   0  0  0  0  0  0  0  0  0  0  0  0
    5.1379    0.3680   -0.3075 C   0  0  0  0  0  0  0  0  0  0  0  0
    6.0776   -0.6802   -0.2696 C   0  0  0  0  0  0  0  0  0  0  0  0
    7.1871   -0.6166    0.5711 C   0  0  0  0  0  0  0  0  0  0  0  0
    7.3879    0.4994    1.3774 C   0  0  0  0  0  0  0  0  0  0  0  0
    6.4918    1.5672    1.3318 C   0  0  0  0  0  0  0  0  0  0  0  0
    5.3642    1.5320    0.4847 C   0  0  0  0  0  0  0  0  0  0  0  0
    4.4324    2.7299    0.4426 C   0  0  0  0  0  0  0  0  0  0  0  0
    4.9171    3.7882    1.1922 F   0  0  0  0  0  0  0  0  0  0  0  0
    4.2876    3.1682   -0.8618 F   0  0  0  0  0  0  0  0  0  0  0  0
    3.1972    2.3776    0.9526 F   0  0  0  0  0  0  0  0  0  0  0  0
    2.4083   -1.4420   -2.2110 C   0  0  0  0  0  0  0  0  0  0  0  0
    1.0598   -0.7007   -2.1280 C   0  0  0  0  0  0  0  0  0  0  0  0
   -0.3277    4.0168   -2.5832 H   0  0  0  0  0  0  0  0  0  0  0  0
   -0.9349    2.3272   -2.6705 H   0  0  0  0  0  0  0  0  0  0  0  0
   -0.0271    2.9002   -1.2117 H   0  0  0  0  0  0  0  0  0  0  0  0
   -2.6895    4.0959   -2.1852 H   0  0  0  0  0  0  0  0  0  0  0  0
   -2.8037    5.0336    0.1686 H   0  0  0  0  0  0  0  0  0  0  0  0
   -1.4564    5.6640   -0.8410 H   0  0  0  0  0  0  0  0  0  0  0  0
   -1.1124    4.4460    0.4351 H   0  0  0  0  0  0  0  0  0  0  0  0
   -3.1480    1.7658   -1.6293 H   0  0  0  0  0  0  0  0  0  0  0  0
   -3.9376    2.8935   -0.5285 H   0  0  0  0  0  0  0  0  0  0  0  0
   -2.1733    2.5473    1.1943 H   0  0  0  0  0  0  0  0  0  0  0  0
   -0.3435    1.2985    0.8624 H   0  0  0  0  0  0  0  0  0  0  0  0
    0.6609   -3.1225   -0.7216 H   0  0  0  0  0  0  0  0  0  0  0  0
   -0.8069   -2.6070   -1.5670 H   0  0  0  0  0  0  0  0  0  0  0  0
   -0.3065   -2.8075    1.4678 H   0  0  0  0  0  0  0  0  0  0  0  0
   -1.6605   -1.8457    0.8251 H   0  0  0  0  0  0  0  0  0  0  0  0
   -2.0773   -4.2009   -0.6001 H   0  0  0  0  0  0  0  0  0  0  0  0
   -1.2268   -4.8563    0.8343 H   0  0  0  0  0  0  0  0  0  0  0  0
   -2.8884   -3.7468    2.3240 H   0  0  0  0  0  0  0  0  0  0  0  0
   -3.6737   -4.8675    1.1571 H   0  0  0  0  0  0  0  0  0  0  0  0
   -3.8606   -1.7549    2.4289 H   0  0  0  0  0  0  0  0  0  0  0  0
   -5.3577   -2.7355    2.1676 H   0  0  0  0  0  0  0  0  0  0  0  0
   -5.7490   -0.3000    1.8168 H   0  0  0  0  0  0  0  0  0  0  0  0
   -5.8820   -1.8889   -0.8233 H   0  0  0  0  0  0  0  0  0  0  0  0
   -7.0977   -1.9221    0.5173 H   0  0  0  0  0  0  0  0  0  0  0  0
   -6.8151   -0.4013   -0.4042 H   0  0  0  0  0  0  0  0  0  0  0  0
   -4.1678   -0.0523   -0.6760 H   0  0  0  0  0  0  0  0  0  0  0  0
    0.8869   -0.7969    1.3562 H   0  0  0  0  0  0  0  0  0  0  0  0
    1.5691    0.4992    0.3424 H   0  0  0  0  0  0  0  0  0  0  0  0
    3.3397   -1.0135    1.0489 H   0  0  0  0  0  0  0  0  0  0  0  0
    2.5068   -2.4197    0.3808 H   0  0  0  0  0  0  0  0  0  0  0  0
    3.1923    1.0107   -1.0995 H   0  0  0  0  0  0  0  0  0  0  0  0
    4.3359    0.3346   -2.2684 H   0  0  0  0  0  0  0  0  0  0  0  0
    5.9450   -1.5579   -0.8900 H   0  0  0  0  0  0  0  0  0  0  0  0
    7.8920   -1.4379    0.6000 H   0  0  0  0  0  0  0  0  0  0  0  0
    8.2487    0.5454    2.0322 H   0  0  0  0  0  0  0  0  0  0  0  0
    6.6908    2.4208    1.9655 H   0  0  0  0  0  0  0  0  0  0  0  0
    2.8945   -1.2018   -3.1819 H   0  0  0  0  0  0  0  0  0  0  0  0
    2.2375   -2.5384   -2.2350 H   0  0  0  0  0  0  0  0  0  0  0  0
    1.2403    0.3858   -2.2863 H   0  0  0  0  0  0  0  0  0  0  0  0
    0.4204   -1.0404   -2.9720 H   0  0  0  0  0  0  0  0  0  0  0  0
  1  2  1  0
  2  3  1  0
  2  4  1  0
  4  5  1  0
  5  6  1  0
  6  7  1  0
  7  8  2  0
  7  9  1  0
  9 10  1  0
 10 11  1  0
 11 12  1  0
 12 13  1  0
 13 14  1  0
 14 15  1  0
 15 16  1  0
 16 17  1  0
 16 18  1  0
 18 19  1  0
 19 20  2  0
  9 21  1  0
 21 22  1  0
 22 23  1  0
 23 24  1  0
 24 25  1  0
 25 26  2  0
 26 27  1  0
 27 28  2  0
 28 29  1  0
 29 30  2  0
 30 31  1  0
 31 32  1  0
 31 33  1  0
 31 34  1  0
 23 35  1  0
 35 36  1  0
 19  5  1  0
 30 25  1  0
 36  9  1  0
  1 37  1  0
  1 38  1  0
  1 39  1  0
  2 40  1  0
  3 41  1  0
  3 42  1  0
  3 43  1  0
  4 44  1  0
  4 45  1  0
  5 46  1  0
  6 47  1  0
 10 48  1  0
 10 49  1  0
 11 50  1  0
 11 51  1  0
 12 52  1  0
 12 53  1  0
 13 54  1  0
 13 55  1  0
 15 56  1  0
 15 57  1  0
 16 58  1  0
 17 59  1  0
 17 60  1  0
 17 61  1  0
 18 62  1  0
 21 63  1  0
 21 64  1  0
 22 65  1  0
 22 66  1  0
 24 67  1  0
 24 68  1  0
 26 69  1  0
 27 70  1  0
 28 71  1  0
 29 72  1  0
 35 73  1  0
 35 74  1  0
 36 75  1  0
 36 76  1  0
M  END
$$$$
