
     RDKit          3D

 81 84  0  0  0  0  0  0  0  0999 V2000
    9.6550    0.4810   -0.3975 C   0  0  0  0  0  0  0  0  0  0  0  0
    8.6749   -0.5079    0.0665 N   0  0  0  0  0  0  0  0  0  0  0  0
    9.0050   -1.9359   -0.0347 C   0  0  0  0  0  0  0  0  0  0  0  0
    7.3842   -0.0863    0.5802 C   0  0  0  0  0  0  0  0  0  0  0  0
    6.6218   -0.9416    1.4061 C   0  0  0  0  0  0  0  0  0  0  0  0
    5.3682   -0.5511    1.8798 C   0  0  0  0  0  0  0  0  0  0  0  0
    4.8326    0.6901    1.5195 C   0  0  0  0  0  0  0  0  0  0  0  0
    3.5253    1.1195    2.0424 C   0  0  0  0  0  0  0  0  0  0  0  0
    3.5069    1.7745    3.1189 O   0  0  0  0  0  0  0  0  0  0  0  0
    2.2873    0.7676    1.3766 N   0  0  0  0  0  0  0  0  0  0  0  0
    1.0573    1.5068    1.7339 C   0  0  0  0  0  0  0  0  0  0  0  0
    0.2885    1.9567    0.4874 C   0  0  0  0  0  0  0  0  0  0  0  0
   -1.1851    2.2957    0.7809 C   0  0  0  0  0  0  0  0  0  0  0  0
   -2.0981    1.0396    0.7300 C   0  0  0  0  0  0  0  0  0  0  0  0
   -2.8376    0.8070   -0.6361 C   0  0  0  0  0  0  0  0  0  0  0  0
   -3.5124   -0.6078   -0.6337 C   0  0  0  0  0  0  0  0  0  0  0  0
   -4.9515   -0.5672   -0.0944 C   0  0  0  0  0  0  0  0  0  0  0  0
   -5.8475    0.2513   -0.9549 N   0  0  0  0  0  0  0  0  0  0  0  0
   -7.0328    0.7307   -0.2093 C   0  0  0  0  0  0  0  0  0  0  0  0
   -7.8316   -0.4116    0.3704 C   0  0  0  0  0  0  0  0  0  0  0  0
   -8.4837   -1.3198   -0.4766 C   0  0  0  0  0  0  0  0  0  0  0  0
   -9.2177   -2.3733    0.0797 C   0  0  0  0  0  0  0  0  0  0  0  0
   -9.2930   -2.5155    1.4307 N   0  0  0  0  0  0  0  0  0  0  0  0
   -8.6716   -1.6458    2.2752 C   0  0  0  0  0  0  0  0  0  0  0  0
   -7.9300   -0.5801    1.7600 C   0  0  0  0  0  0  0  0  0  0  0  0
   -5.1472    1.3888   -1.6108 C   0  0  0  0  0  0  0  0  0  0  0  0
   -3.9650    1.8992   -0.7723 C   0  0  0  0  0  0  0  0  0  0  0  0
   -1.8676    0.9090   -1.8366 C   0  0  0  0  0  0  0  0  0  0  0  0
   -1.8461    1.9741   -2.5108 O   0  0  0  0  0  0  0  0  0  0  0  0
   -0.9597   -0.0938   -2.2368 O   0  0  0  0  0  0  0  0  0  0  0  0
   -0.5896   -1.2669   -1.5207 C   0  0  0  0  0  0  0  0  0  0  0  0
    0.8115   -1.7589   -1.9591 C   0  0  0  0  0  0  0  0  0  0  0  0
    1.1480   -2.9245   -1.2506 O   0  0  0  0  0  0  0  0  0  0  0  0
    1.9842   -0.7263   -1.8651 C   0  0  0  0  0  0  0  0  0  0  0  0
    1.5600    0.5791   -2.1715 O   0  0  0  0  0  0  0  0  0  0  0  0
    2.8530   -0.7480   -0.5747 C   0  0  0  0  0  0  0  0  0  0  0  0
    2.1447   -0.5841    0.7933 C   0  0  0  0  0  0  0  0  0  0  0  0
    5.5822    1.5544    0.7138 C   0  0  0  0  0  0  0  0  0  0  0  0
    6.8487    1.1757    0.2507 C   0  0  0  0  0  0  0  0  0  0  0  0
   10.6459    0.0167   -0.5834 H   0  0  0  0  0  0  0  0  0  0  0  0
    9.3027    0.9425   -1.3430 H   0  0  0  0  0  0  0  0  0  0  0  0
    9.7909    1.2673    0.3737 H   0  0  0  0  0  0  0  0  0  0  0  0
    9.1617   -2.3616    0.9778 H   0  0  0  0  0  0  0  0  0  0  0  0
    8.1827   -2.4773   -0.5451 H   0  0  0  0  0  0  0  0  0  0  0  0
    9.9288   -2.1073   -0.6271 H   0  0  0  0  0  0  0  0  0  0  0  0
    7.0013   -1.9087    1.7045 H   0  0  0  0  0  0  0  0  0  0  0  0
    4.8139   -1.2236    2.5245 H   0  0  0  0  0  0  0  0  0  0  0  0
    0.4296    0.8694    2.3875 H   0  0  0  0  0  0  0  0  0  0  0  0
    1.3006    2.4268    2.3061 H   0  0  0  0  0  0  0  0  0  0  0  0
    0.3282    1.1703   -0.2763 H   0  0  0  0  0  0  0  0  0  0  0  0
    0.7933    2.8516    0.0572 H   0  0  0  0  0  0  0  0  0  0  0  0
   -1.2603    2.7787    1.7838 H   0  0  0  0  0  0  0  0  0  0  0  0
   -1.5340    3.0542    0.0496 H   0  0  0  0  0  0  0  0  0  0  0  0
   -1.5141    0.1465    1.0336 H   0  0  0  0  0  0  0  0  0  0  0  0
   -2.8554    1.1332    1.5414 H   0  0  0  0  0  0  0  0  0  0  0  0
   -3.5610   -1.0181   -1.6691 H   0  0  0  0  0  0  0  0  0  0  0  0
   -2.9371   -1.3369   -0.0232 H   0  0  0  0  0  0  0  0  0  0  0  0
   -5.3392   -1.6083   -0.0615 H   0  0  0  0  0  0  0  0  0  0  0  0
   -4.9326   -0.1819    0.9491 H   0  0  0  0  0  0  0  0  0  0  0  0
   -6.7260    1.4463    0.5869 H   0  0  0  0  0  0  0  0  0  0  0  0
   -7.7066    1.2824   -0.9008 H   0  0  0  0  0  0  0  0  0  0  0  0
   -8.4223   -1.2134   -1.5558 H   0  0  0  0  0  0  0  0  0  0  0  0
   -9.7236   -3.0809   -0.5659 H   0  0  0  0  0  0  0  0  0  0  0  0
   -8.7537   -1.7830    3.3471 H   0  0  0  0  0  0  0  0  0  0  0  0
   -7.4367    0.1052    2.4388 H   0  0  0  0  0  0  0  0  0  0  0  0
   -5.8399    2.2372   -1.8204 H   0  0  0  0  0  0  0  0  0  0  0  0
   -4.7736    1.0572   -2.6048 H   0  0  0  0  0  0  0  0  0  0  0  0
   -4.3692    2.1839    0.2223 H   0  0  0  0  0  0  0  0  0  0  0  0
   -3.5883    2.8533   -1.1982 H   0  0  0  0  0  0  0  0  0  0  0  0
   -0.6117   -1.0906   -0.4427 H   0  0  0  0  0  0  0  0  0  0  0  0
   -1.3278   -2.0658   -1.7477 H   0  0  0  0  0  0  0  0  0  0  0  0
    0.7179   -2.0147   -3.0413 H   0  0  0  0  0  0  0  0  0  0  0  0
    0.5998   -3.6653   -1.6248 H   0  0  0  0  0  0  0  0  0  0  0  0
    2.6933   -1.0390   -2.6730 H   0  0  0  0  0  0  0  0  0  0  0  0
    2.3595    1.1012   -2.4441 H   0  0  0  0  0  0  0  0  0  0  0  0
    3.6349    0.0276   -0.6878 H   0  0  0  0  0  0  0  0  0  0  0  0
    3.4026   -1.7147   -0.5617 H   0  0  0  0  0  0  0  0  0  0  0  0
    1.0902   -0.8876    0.7447 H   0  0  0  0  0  0  0  0  0  0  0  0
    2.5856   -1.3176    1.5052 H   0  0  0  0  0  0  0  0  0  0  0  0
    5.1883    2.5278    0.4461 H   0  0  0  0  0  0  0  0  0  0  0  0
    7.3894    1.8627   -0.3844 H   0  0  0  0  0  0  0  0  0  0  0  0
  1  2  1  0
  2  3  1  0
  2  4  1  0
  4  5  2  0
  5  6  1  0
  6  7  2  0
  7  8  1  0
  8  9  2  0
  8 10  1  0
 10 11  1  0
 11 12  1  0
 12 13  1  0
 13 14  1  0
 14 15  1  0
 15 16  1  0
 16 17  1  0
 17 18  1  0
 18 19  1  0
 19 20  1  0
 20 21  2  0
 21 22  1  0
 22 23  2  0
 23 24  1  0
 24 25  2  0
 18 26  1  0
 26 27  1  0
 15 28  1  0
 28 29  2  0
 28 30  1  0
 30 31  1  0
 31 32  1  0
 32 33  1  0
 32 34  1  0
 34 35  1  0
 34 36  1  0
 36 37  1  0
  7 38  1  0
 38 39  2  0
 39  4  1  0
 37 10  1  0
 27 15  1  0
 25 20  1  0
  1 40  1  0
  1 41  1  0
  1 42  1  0
  3 43  1  0
  3 44  1  0
  3 45  1  0
  5 46  1  0
  6 47  1  0
 11 48  1  0
 11 49  1  0
 12 50  1  0
 12 51  1  0
 13 52  1  0
 13 53  1  0
 14 54  1  0
 14 55  1  0
 16 56  1  0
 16 57  1  0
 17 58  1  0
 17 59  1  0
 19 60  1  0
 19 61  1  0
 21 62  1  0
 22 63  1  0
 24 64  1  0
 25 65  1  0
 26 66  1  0
 26 67  1  0
 27 68  1  0
 27 69  1  0
 31 70  1  0
 31 71  1  0
 32 72  1  0
 33 73  1  0
 34 74  1  0
 35 75  1  0
 36 76  1  0
 36 77  1  0
 37 78  1  0
 37 79  1  0
 38 80  1  0
 39 81  1  0
M  END
$$$$
