
     RDKit          3D

 86 90  0  0  0  0  0  0  0  0999 V2000
    0.5977   -0.8639   -1.6007 O   0  0  0  0  0  0  0  0  0  0  0  0
   -0.4688   -0.4191   -1.0976 C   0  0  0  0  0  0  0  0  0  0  0  0
   -0.3854    0.7238   -0.1179 C   0  0  0  0  0  0  0  0  0  0  0  0
   -0.2490    0.2322    1.3418 C   0  0  0  0  0  0  0  0  0  0  0  0
    1.1623   -0.2126    1.6246 C   0  0  0  0  0  0  0  0  0  0  0  0
    2.0208    0.6313    1.9979 O   0  0  0  0  0  0  0  0  0  0  0  0
    1.5345   -1.5886    1.4334 N   0  0  0  0  0  0  0  0  0  0  0  0
    2.8957   -2.0830    1.6430 C   0  0  0  0  0  0  0  0  0  0  0  0
    3.6979   -2.0913    0.3336 C   0  0  0  0  0  0  0  0  0  0  0  0
    3.9749   -0.6724   -0.1844 C   0  0  0  0  0  0  0  0  0  0  0  0
    4.9235   -0.6692   -1.3924 C   0  0  0  0  0  0  0  0  0  0  0  0
    6.2666   -1.1815   -1.0358 N   0  0  0  0  0  0  0  0  0  0  0  0
    7.0146   -0.2563   -0.1714 C   0  0  0  0  0  0  0  0  0  0  0  0
    8.4810   -0.5218   -0.4384 C   0  0  0  0  0  0  0  0  0  0  0  0
    8.5318   -0.9956   -1.8735 C   0  0  0  0  0  0  0  0  0  0  0  0
    7.1038   -1.4009   -2.2226 C   0  0  0  0  0  0  0  0  0  0  0  0
   -0.6757    1.2364    2.3332 N   0  0  0  0  0  0  0  0  0  0  0  0
   -0.2641    2.6129    2.3530 C   0  0  0  0  0  0  0  0  0  0  0  0
    0.2597    3.0838    3.3965 O   0  0  0  0  0  0  0  0  0  0  0  0
   -0.5131    3.5118    1.2145 C   0  0  0  0  0  0  0  0  0  0  0  0
    0.5862    4.0333    0.5104 C   0  0  0  0  0  0  0  0  0  0  0  0
    0.3885    4.9490   -0.5301 C   0  0  0  0  0  0  0  0  0  0  0  0
   -0.9034    5.3760   -0.8581 C   0  0  0  0  0  0  0  0  0  0  0  0
   -1.9983    4.8780   -0.1448 C   0  0  0  0  0  0  0  0  0  0  0  0
   -1.8190    3.9392    0.8840 C   0  0  0  0  0  0  0  0  0  0  0  0
   -2.9364    3.5021    1.6122 O   0  0  0  0  0  0  0  0  0  0  0  0
   -3.6110    2.2749    1.3347 C   0  0  0  0  0  0  0  0  0  0  0  0
   -4.4976    2.3901    0.0727 C   0  0  0  0  0  0  0  0  0  0  0  0
   -5.9004    2.9243    0.3996 C   0  0  0  0  0  0  0  0  0  0  0  0
   -6.8694    2.0827   -0.4206 C   0  0  0  0  0  0  0  0  0  0  0  0
   -6.1062    0.8228   -0.8277 C   0  0  0  0  0  0  0  0  0  0  0  0
   -4.7070    1.0845   -0.5371 N   0  0  0  0  0  0  0  0  0  0  0  0
   -3.6848    0.4358   -1.3039 C   0  0  0  0  0  0  0  0  0  0  0  0
   -3.4070    0.8648   -2.4660 O   0  0  0  0  0  0  0  0  0  0  0  0
   -3.0069   -0.8082   -0.7868 C   0  0  0  0  0  0  0  0  0  0  0  0
   -3.9313   -2.0265   -0.9833 C   0  0  0  0  0  0  0  0  0  0  0  0
   -3.3127   -3.2826   -0.4136 C   0  0  0  0  0  0  0  0  0  0  0  0
   -3.2996   -3.5082    0.9739 C   0  0  0  0  0  0  0  0  0  0  0  0
   -2.6876   -4.6534    1.4973 C   0  0  0  0  0  0  0  0  0  0  0  0
   -2.0851   -5.5790    0.6443 C   0  0  0  0  0  0  0  0  0  0  0  0
   -2.0963   -5.3650   -0.7356 C   0  0  0  0  0  0  0  0  0  0  0  0
   -2.6964   -4.2175   -1.2610 C   0  0  0  0  0  0  0  0  0  0  0  0
   -1.7211   -1.0264   -1.4705 N   0  0  0  0  0  0  0  0  0  0  0  0
    0.4890    1.3523   -0.3866 H   0  0  0  0  0  0  0  0  0  0  0  0
   -1.2728    1.3595   -0.2573 H   0  0  0  0  0  0  0  0  0  0  0  0
   -0.9080   -0.6531    1.4812 H   0  0  0  0  0  0  0  0  0  0  0  0
    0.8238   -2.2609    1.0649 H   0  0  0  0  0  0  0  0  0  0  0  0
    3.4236   -1.4825    2.4188 H   0  0  0  0  0  0  0  0  0  0  0  0
    2.8391   -3.1286    2.0192 H   0  0  0  0  0  0  0  0  0  0  0  0
    3.1465   -2.6783   -0.4352 H   0  0  0  0  0  0  0  0  0  0  0  0
    4.6602   -2.6117    0.5260 H   0  0  0  0  0  0  0  0  0  0  0  0
    4.4026   -0.0557    0.6284 H   0  0  0  0  0  0  0  0  0  0  0  0
    3.0249   -0.1971   -0.4933 H   0  0  0  0  0  0  0  0  0  0  0  0
    4.9898    0.3641   -1.8092 H   0  0  0  0  0  0  0  0  0  0  0  0
    4.4772   -1.3221   -2.1781 H   0  0  0  0  0  0  0  0  0  0  0  0
    6.7852    0.8071   -0.4068 H   0  0  0  0  0  0  0  0  0  0  0  0
    6.7750   -0.4533    0.8978 H   0  0  0  0  0  0  0  0  0  0  0  0
    8.8478   -1.3258    0.2343 H   0  0  0  0  0  0  0  0  0  0  0  0
    9.0930    0.3960   -0.2938 H   0  0  0  0  0  0  0  0  0  0  0  0
    9.2324   -1.8501   -1.9733 H   0  0  0  0  0  0  0  0  0  0  0  0
    8.8700   -0.1742   -2.5438 H   0  0  0  0  0  0  0  0  0  0  0  0
    6.7573   -0.8066   -3.1028 H   0  0  0  0  0  0  0  0  0  0  0  0
    7.0717   -2.4778   -2.4910 H   0  0  0  0  0  0  0  0  0  0  0  0
   -1.0462    0.8670    3.2437 H   0  0  0  0  0  0  0  0  0  0  0  0
    1.5955    3.7301    0.7680 H   0  0  0  0  0  0  0  0  0  0  0  0
    1.2396    5.3522   -1.0672 H   0  0  0  0  0  0  0  0  0  0  0  0
   -1.0583    6.0931   -1.6602 H   0  0  0  0  0  0  0  0  0  0  0  0
   -2.9916    5.2327   -0.3792 H   0  0  0  0  0  0  0  0  0  0  0  0
   -4.2068    1.9921    2.2267 H   0  0  0  0  0  0  0  0  0  0  0  0
   -2.8813    1.4675    1.2168 H   0  0  0  0  0  0  0  0  0  0  0  0
   -4.0171    3.0578   -0.6802 H   0  0  0  0  0  0  0  0  0  0  0  0
   -6.1524    2.7921    1.4702 H   0  0  0  0  0  0  0  0  0  0  0  0
   -5.9884    4.0044    0.1561 H   0  0  0  0  0  0  0  0  0  0  0  0
   -7.7835    1.8350    0.1653 H   0  0  0  0  0  0  0  0  0  0  0  0
   -7.1766    2.6592   -1.3299 H   0  0  0  0  0  0  0  0  0  0  0  0
   -6.4500   -0.0589   -0.2468 H   0  0  0  0  0  0  0  0  0  0  0  0
   -6.2471    0.6268   -1.9224 H   0  0  0  0  0  0  0  0  0  0  0  0
   -2.8342   -0.6900    0.2997 H   0  0  0  0  0  0  0  0  0  0  0  0
   -4.9060   -1.8549   -0.4770 H   0  0  0  0  0  0  0  0  0  0  0  0
   -4.1571   -2.1595   -2.0654 H   0  0  0  0  0  0  0  0  0  0  0  0
   -3.7651   -2.7986    1.6498 H   0  0  0  0  0  0  0  0  0  0  0  0
   -2.6835   -4.8215    2.5658 H   0  0  0  0  0  0  0  0  0  0  0  0
   -1.6138   -6.4621    1.0523 H   0  0  0  0  0  0  0  0  0  0  0  0
   -1.6291   -6.0789   -1.3990 H   0  0  0  0  0  0  0  0  0  0  0  0
   -2.6839   -4.0608   -2.3306 H   0  0  0  0  0  0  0  0  0  0  0  0
   -1.6972   -1.6932   -2.2770 H   0  0  0  0  0  0  0  0  0  0  0  0
  1  2  2  0
  2  3  1  0
  3  4  1  0
  4  5  1  0
  5  6  2  0
  5  7  1  0
  7  8  1  0
  8  9  1  0
  9 10  1  0
 10 11  1  0
 11 12  1  0
 12 13  1  0
 13 14  1  0
 14 15  1  0
 15 16  1  0
  4 17  1  0
 17 18  1  0
 18 19  2  0
 18 20  1  0
 20 21  2  0
 21 22  1  0
 22 23  2  0
 23 24  1  0
 24 25  2  0
 25 26  1  0
 26 27  1  0
 27 28  1  0
 28 29  1  0
 29 30  1  0
 30 31  1  0
 31 32  1  0
 32 33  1  0
 33 34  2  0
 33 35  1  0
 35 36  1  0
 36 37  1  0
 37 38  2  0
 38 39  1  0
 39 40  2  0
 40 41  1  0
 41 42  2  0
 35 43  1  0
 43  2  1  0
 16 12  1  0
 25 20  1  0
 32 28  1  0
 42 37  1  0
  3 44  1  0
  3 45  1  0
  4 46  1  0
  7 47  1  0
  8 48  1  0
  8 49  1  0
  9 50  1  0
  9 51  1  0
 10 52  1  0
 10 53  1  0
 11 54  1  0
 11 55  1  0
 13 56  1  0
 13 57  1  0
 14 58  1  0
 14 59  1  0
 15 60  1  0
 15 61  1  0
 16 62  1  0
 16 63  1  0
 17 64  1  0
 21 65  1  0
 22 66  1  0
 23 67  1  0
 24 68  1  0
 27 69  1  0
 27 70  1  0
 28 71  1  0
 29 72  1  0
 29 73  1  0
 30 74  1  0
 30 75  1  0
 31 76  1  0
 31 77  1  0
 35 78  1  0
 36 79  1  0
 36 80  1  0
 38 81  1  0
 39 82  1  0
 40 83  1  0
 41 84  1  0
 42 85  1  0
 43 86  1  0
M  END
$$$$
