
     RDKit          3D

 55 58  0  0  0  0  0  0  0  0999 V2000
    7.5545   -1.3919   -0.4540 N   0  0  0  0  0  0  0  0  0  0  0  0
    7.6341    0.0169   -0.0737 C   0  0  0  0  0  0  0  0  0  0  0  0
    6.9270    0.9049   -1.1023 C   0  0  0  0  0  0  0  0  0  0  0  0
    5.1607    0.6196   -1.1828 S   0  0  0  0  0  6  0  0  0  0  0  0
    4.5509    1.6708   -2.0668 O   0  0  0  0  0  0  0  0  0  0  0  0
    4.8900   -0.7337   -1.7788 O   0  0  0  0  0  0  0  0  0  0  0  0
    4.4221    0.7201    0.4407 C   0  0  0  0  0  0  0  0  0  0  0  0
    2.9268    0.6052    0.3435 C   0  0  0  0  0  0  0  0  0  0  0  0
    2.3094   -0.6505    0.3797 C   0  0  0  0  0  0  0  0  0  0  0  0
    0.9147   -0.7481    0.2681 C   0  0  0  0  0  0  0  0  0  0  0  0
    0.1775    0.3847    0.0929 N   0  0  0  0  0  0  0  0  0  0  0  0
    0.7570    1.6189    0.0186 C   0  0  0  0  0  0  0  0  0  0  0  0
    2.1401    1.7471    0.1565 C   0  0  0  0  0  0  0  0  0  0  0  0
   -0.0057    2.7666   -0.2247 O   0  0  0  0  0  0  0  0  0  0  0  0
   -1.3952    2.7339   -0.5324 C   0  0  0  0  0  0  0  0  0  0  0  0
   -2.2332    2.7394    0.7501 C   0  0  0  0  0  0  0  0  0  0  0  0
   -3.6668    2.3061    0.4540 C   0  0  0  0  0  0  0  0  0  0  0  0
   -3.6759    0.8988    0.2361 O   0  0  0  0  0  0  0  0  0  0  0  0
   -4.7000    0.1630   -0.3758 C   0  0  0  0  0  0  0  0  0  0  0  0
   -5.8260    0.7818   -0.9550 C   0  0  0  0  0  0  0  0  0  0  0  0
   -6.8130    0.0131   -1.5759 C   0  0  0  0  0  0  0  0  0  0  0  0
   -7.8893    0.6177   -2.1364 F   0  0  0  0  0  0  0  0  0  0  0  0
   -6.6933   -1.3753   -1.6211 C   0  0  0  0  0  0  0  0  0  0  0  0
   -5.5918   -2.0015   -1.0362 C   0  0  0  0  0  0  0  0  0  0  0  0
   -4.5902   -1.2427   -0.4065 C   0  0  0  0  0  0  0  0  0  0  0  0
   -3.4680   -1.9336    0.2770 C   0  0  0  0  0  0  0  0  0  0  0  0
   -2.1292   -1.6077   -0.0151 C   0  0  0  0  0  0  0  0  0  0  0  0
   -1.0903   -2.2785    0.6541 C   0  0  0  0  0  0  0  0  0  0  0  0
   -1.3965   -3.2519    1.5538 N   0  0  0  0  0  0  0  0  0  0  0  0
   -2.6764   -3.5801    1.8607 C   0  0  0  0  0  0  0  0  0  0  0  0
   -3.7350   -2.9277    1.2333 C   0  0  0  0  0  0  0  0  0  0  0  0
   -5.0092   -3.2507    1.5719 F   0  0  0  0  0  0  0  0  0  0  0  0
    0.2921   -2.0422    0.3499 N   0  0  0  0  0  0  0  0  0  0  0  0
    8.3027   -1.9079    0.0655 H   0  0  0  0  0  0  0  0  0  0  0  0
    6.6457   -1.7744   -0.1051 H   0  0  0  0  0  0  0  0  0  0  0  0
    7.2077    0.1736    0.9418 H   0  0  0  0  0  0  0  0  0  0  0  0
    8.7030    0.3229   -0.0355 H   0  0  0  0  0  0  0  0  0  0  0  0
    7.3664    0.7355   -2.1082 H   0  0  0  0  0  0  0  0  0  0  0  0
    7.0949    1.9681   -0.8297 H   0  0  0  0  0  0  0  0  0  0  0  0
    4.8232   -0.0945    1.0799 H   0  0  0  0  0  0  0  0  0  0  0  0
    4.7056    1.6870    0.9085 H   0  0  0  0  0  0  0  0  0  0  0  0
    2.9079   -1.5443    0.5083 H   0  0  0  0  0  0  0  0  0  0  0  0
    2.5985    2.7266    0.0945 H   0  0  0  0  0  0  0  0  0  0  0  0
   -1.6219    1.8491   -1.1686 H   0  0  0  0  0  0  0  0  0  0  0  0
   -1.6462    3.6407   -1.1243 H   0  0  0  0  0  0  0  0  0  0  0  0
   -2.2359    3.7654    1.1786 H   0  0  0  0  0  0  0  0  0  0  0  0
   -1.7903    2.0529    1.5043 H   0  0  0  0  0  0  0  0  0  0  0  0
   -4.3217    2.5456    1.3184 H   0  0  0  0  0  0  0  0  0  0  0  0
   -4.0281    2.8557   -0.4412 H   0  0  0  0  0  0  0  0  0  0  0  0
   -5.9532    1.8543   -0.9309 H   0  0  0  0  0  0  0  0  0  0  0  0
   -7.4589   -1.9695   -2.1028 H   0  0  0  0  0  0  0  0  0  0  0  0
   -5.5193   -3.0812   -1.0740 H   0  0  0  0  0  0  0  0  0  0  0  0
   -1.9049   -0.8770   -0.7813 H   0  0  0  0  0  0  0  0  0  0  0  0
   -2.8717   -4.3514    2.5933 H   0  0  0  0  0  0  0  0  0  0  0  0
    0.9247   -2.8697    0.4434 H   0  0  0  0  0  0  0  0  0  0  0  0
  1  2  1  0
  2  3  1  0
  3  4  1  0
  4  5  2  0
  4  6  2  0
  4  7  1  0
  7  8  1  0
  8  9  2  0
  9 10  1  0
 10 11  2  0
 11 12  1  0
 12 13  2  0
 12 14  1  0
 14 15  1  0
 15 16  1  0
 16 17  1  0
 17 18  1  0
 18 19  1  0
 19 20  2  0
 20 21  1  0
 21 22  1  0
 21 23  2  0
 23 24  1  0
 24 25  2  0
 25 26  1  0
 26 27  2  0
 27 28  1  0
 28 29  2  0
 29 30  1  0
 30 31  2  0
 31 32  1  0
 28 33  1  0
 13  8  1  0
 25 19  1  0
 31 26  1  0
 33 10  1  0
  1 34  1  0
  1 35  1  0
  2 36  1  0
  2 37  1  0
  3 38  1  0
  3 39  1  0
  7 40  1  0
  7 41  1  0
  9 42  1  0
 13 43  1  0
 15 44  1  0
 15 45  1  0
 16 46  1  0
 16 47  1  0
 17 48  1  0
 17 49  1  0
 20 50  1  0
 23 51  1  0
 24 52  1  0
 27 53  1  0
 30 54  1  0
 33 55  1  0
M  END
$$$$
