
     RDKit          3D

 75 77  0  0  0  0  0  0  0  0999 V2000
    7.4450    2.0833    1.2330 C   0  0  0  0  0  0  0  0  0  0  0  0
    6.6982    1.2712    0.1663 C   0  0  0  0  0  0  0  0  0  0  0  0
    7.6678    0.2893   -0.5099 C   0  0  0  0  0  0  0  0  0  0  0  0
    5.4883    0.5481    0.8032 C   0  0  0  0  0  0  0  0  0  0  0  0
    4.5259   -0.0464   -0.2421 C   0  0  0  0  0  0  0  0  0  0  0  0
    3.3636   -0.6982    0.4062 N   0  0  0  0  0  0  0  0  0  0  0  0
    2.6647   -1.6230   -0.5237 C   0  0  0  0  0  0  0  0  0  0  0  0
    1.5169   -0.9362   -1.2799 C   0  0  0  0  0  0  0  0  0  0  0  0
    0.4146   -0.4030   -0.3093 C   0  0  0  0  0  0  0  0  0  0  0  0
   -0.7747   -1.3988   -0.2223 C   0  0  0  0  0  0  0  0  0  0  0  0
   -0.5158   -2.8853    0.0679 C   0  0  0  0  0  0  0  0  0  0  0  0
   -1.8563   -3.6180    0.2965 C   0  0  0  0  0  0  0  0  0  0  0  0
   -2.7449   -3.6857   -0.9704 C   0  0  0  0  0  0  0  0  0  0  0  0
   -4.1760   -3.2571   -0.7131 C   0  0  0  0  0  0  0  0  0  0  0  0
   -5.1546   -4.2558   -0.5557 C   0  0  0  0  0  0  0  0  0  0  0  0
   -6.4998   -3.9199   -0.4071 C   0  0  0  0  0  0  0  0  0  0  0  0
   -6.8892   -2.5833   -0.4191 C   0  0  0  0  0  0  0  0  0  0  0  0
   -5.9334   -1.5744   -0.5502 C   0  0  0  0  0  0  0  0  0  0  0  0
   -4.5622   -1.8891   -0.6659 C   0  0  0  0  0  0  0  0  0  0  0  0
   -3.5826   -0.8745   -0.7177 O   0  0  0  0  0  0  0  0  0  0  0  0
   -3.8479    0.5326   -0.6602 C   0  0  0  0  0  0  0  0  0  0  0  0
   -2.5810    1.3571   -0.3183 C   0  0  0  0  0  0  0  0  0  0  0  0
   -2.9091    2.8801   -0.3199 C   0  0  0  0  0  0  0  0  0  0  0  0
   -2.5256    3.6037    0.9935 C   0  0  0  0  0  0  0  0  0  0  0  0
   -3.1514    5.0046    1.0288 C   0  0  0  0  0  0  0  0  0  0  0  0
   -1.0035    3.7134    1.1586 C   0  0  0  0  0  0  0  0  0  0  0  0
   -1.5029    1.0793   -1.2774 N   0  0  0  0  0  0  0  0  0  0  0  0
   -0.1288    0.9263   -0.8678 C   0  0  0  0  0  0  0  0  0  0  0  0
    0.6583    1.8942   -1.0484 O   0  0  0  0  0  0  0  0  0  0  0  0
    1.0012   -0.1619    1.1143 C   0  0  0  0  0  0  0  0  0  0  0  0
    2.4671    0.2951    1.0598 C   0  0  0  0  0  0  0  0  0  0  0  0
    8.3003    2.6257    0.7767 H   0  0  0  0  0  0  0  0  0  0  0  0
    6.7684    2.8386    1.6868 H   0  0  0  0  0  0  0  0  0  0  0  0
    7.8294    1.4153    2.0341 H   0  0  0  0  0  0  0  0  0  0  0  0
    6.3294    1.9859   -0.6024 H   0  0  0  0  0  0  0  0  0  0  0  0
    8.5719    0.8261   -0.8702 H   0  0  0  0  0  0  0  0  0  0  0  0
    7.1965   -0.1838   -1.3951 H   0  0  0  0  0  0  0  0  0  0  0  0
    7.9859   -0.5029    0.2013 H   0  0  0  0  0  0  0  0  0  0  0  0
    4.9336    1.2851    1.4217 H   0  0  0  0  0  0  0  0  0  0  0  0
    5.8424   -0.2601    1.4805 H   0  0  0  0  0  0  0  0  0  0  0  0
    4.1895    0.7434   -0.9505 H   0  0  0  0  0  0  0  0  0  0  0  0
    5.0964   -0.7985   -0.8259 H   0  0  0  0  0  0  0  0  0  0  0  0
    2.2675   -2.4758    0.0630 H   0  0  0  0  0  0  0  0  0  0  0  0
    3.3625   -2.0784   -1.2603 H   0  0  0  0  0  0  0  0  0  0  0  0
    1.0878   -1.6393   -2.0256 H   0  0  0  0  0  0  0  0  0  0  0  0
    1.9676   -0.1115   -1.8743 H   0  0  0  0  0  0  0  0  0  0  0  0
   -1.4637   -1.0324    0.5655 H   0  0  0  0  0  0  0  0  0  0  0  0
   -1.2732   -1.3626   -1.2079 H   0  0  0  0  0  0  0  0  0  0  0  0
    0.0264   -3.3616   -0.7772 H   0  0  0  0  0  0  0  0  0  0  0  0
    0.0975   -3.0015    0.9841 H   0  0  0  0  0  0  0  0  0  0  0  0
   -1.6339   -4.6542    0.6323 H   0  0  0  0  0  0  0  0  0  0  0  0
   -2.3991   -3.1299    1.1366 H   0  0  0  0  0  0  0  0  0  0  0  0
   -2.7278   -4.7319   -1.3487 H   0  0  0  0  0  0  0  0  0  0  0  0
   -2.3443   -3.0988   -1.8195 H   0  0  0  0  0  0  0  0  0  0  0  0
   -4.8772   -5.3027   -0.5676 H   0  0  0  0  0  0  0  0  0  0  0  0
   -7.2439   -4.6992   -0.2984 H   0  0  0  0  0  0  0  0  0  0  0  0
   -7.9367   -2.3259   -0.3200 H   0  0  0  0  0  0  0  0  0  0  0  0
   -6.2790   -0.5514   -0.5616 H   0  0  0  0  0  0  0  0  0  0  0  0
   -4.5860    0.7335    0.1453 H   0  0  0  0  0  0  0  0  0  0  0  0
   -4.2703    0.8598   -1.6350 H   0  0  0  0  0  0  0  0  0  0  0  0
   -2.2601    1.0513    0.7009 H   0  0  0  0  0  0  0  0  0  0  0  0
   -2.4125    3.3864   -1.1779 H   0  0  0  0  0  0  0  0  0  0  0  0
   -4.0007    3.0285   -0.4821 H   0  0  0  0  0  0  0  0  0  0  0  0
   -2.9352    3.0321    1.8563 H   0  0  0  0  0  0  0  0  0  0  0  0
   -2.8969    5.5171    1.9812 H   0  0  0  0  0  0  0  0  0  0  0  0
   -2.7829    5.6202    0.1795 H   0  0  0  0  0  0  0  0  0  0  0  0
   -4.2585    4.9326    0.9679 H   0  0  0  0  0  0  0  0  0  0  0  0
   -0.7536    4.3063    2.0650 H   0  0  0  0  0  0  0  0  0  0  0  0
   -0.5558    2.7091    1.2880 H   0  0  0  0  0  0  0  0  0  0  0  0
   -0.5470    4.2061    0.2730 H   0  0  0  0  0  0  0  0  0  0  0  0
   -1.6794    1.2967   -2.2845 H   0  0  0  0  0  0  0  0  0  0  0  0
    0.3968    0.5897    1.6659 H   0  0  0  0  0  0  0  0  0  0  0  0
    0.9685   -1.0868    1.7257 H   0  0  0  0  0  0  0  0  0  0  0  0
    2.5142    1.2840    0.5544 H   0  0  0  0  0  0  0  0  0  0  0  0
    2.8134    0.4480    2.1040 H   0  0  0  0  0  0  0  0  0  0  0  0
  1  2  1  0
  2  3  1  0
  2  4  1  0
  4  5  1  0
  5  6  1  0
  6  7  1  0
  7  8  1  0
  8  9  1  0
  9 10  1  0
 10 11  1  0
 11 12  1  0
 12 13  1  0
 13 14  1  0
 14 15  2  0
 15 16  1  0
 16 17  2  0
 17 18  1  0
 18 19  2  0
 19 20  1  0
 20 21  1  0
 21 22  1  0
 22 23  1  0
 23 24  1  0
 24 25  1  0
 24 26  1  0
 22 27  1  0
 27 28  1  0
 28 29  2  0
  9 30  1  0
 30 31  1  0
 31  6  1  0
 28  9  1  0
 19 14  1  0
  1 32  1  0
  1 33  1  0
  1 34  1  0
  2 35  1  0
  3 36  1  0
  3 37  1  0
  3 38  1  0
  4 39  1  0
  4 40  1  0
  5 41  1  0
  5 42  1  0
  7 43  1  0
  7 44  1  0
  8 45  1  0
  8 46  1  0
 10 47  1  0
 10 48  1  0
 11 49  1  0
 11 50  1  0
 12 51  1  0
 12 52  1  0
 13 53  1  0
 13 54  1  0
 15 55  1  0
 16 56  1  0
 17 57  1  0
 18 58  1  0
 21 59  1  0
 21 60  1  0
 22 61  1  0
 23 62  1  0
 23 63  1  0
 24 64  1  0
 25 65  1  0
 25 66  1  0
 25 67  1  0
 26 68  1  0
 26 69  1  0
 26 70  1  0
 27 71  1  0
 30 72  1  0
 30 73  1  0
 31 74  1  0
 31 75  1  0
M  END
$$$$
