
     RDKit          3D

 78 79  0  0  0  0  0  0  0  0999 V2000
   -2.9975   -1.5984   -3.8822 C   0  0  0  0  0  0  0  0  0  0  0  0
   -1.6365   -1.0929   -3.5095 C   0  0  0  0  0  0  0  0  0  0  0  0
   -0.9812   -0.4348   -4.3638 O   0  0  0  0  0  0  0  0  0  0  0  0
   -1.0706   -1.3392   -2.2045 N   0  0  0  0  0  0  0  0  0  0  0  0
   -1.7461   -2.2476   -1.2561 C   0  0  0  0  0  0  0  0  0  0  0  0
   -0.8770   -2.6219   -0.0334 C   0  0  0  0  0  0  0  0  0  0  0  0
   -1.6849   -3.2692    1.1037 C   0  0  0  0  0  0  0  0  0  0  0  0
   -2.5512   -2.2639    1.8863 C   0  0  0  0  0  0  0  0  0  0  0  0
   -1.7300   -1.2726    2.7435 C   0  0  0  0  0  0  0  0  0  0  0  0
   -2.2466    0.1792    2.6707 C   0  0  0  0  0  0  0  0  0  0  0  0
   -1.6563    1.0050    1.5028 C   0  0  0  0  0  0  0  0  0  0  0  0
   -2.1738    0.6261    0.1636 N   0  0  0  0  0  0  0  0  0  0  0  0
   -3.6348    0.8539   -0.0122 C   0  0  0  0  0  0  0  0  0  0  0  0
   -4.0944    2.3134    0.2202 C   0  0  0  0  0  0  0  0  0  0  0  0
   -5.5693    2.5368   -0.1906 C   0  0  0  0  0  0  0  0  0  0  0  0
   -5.7238    2.6463   -1.7161 C   0  0  0  0  0  0  0  0  0  0  0  0
   -6.1202    3.8058    0.4740 C   0  0  0  0  0  0  0  0  0  0  0  0
   -1.4101    1.2996   -0.9164 C   0  0  0  0  0  0  0  0  0  0  0  0
   -0.0552    0.6629   -1.1372 C   0  0  0  0  0  0  0  0  0  0  0  0
    1.0991    1.3314   -0.6919 C   0  0  0  0  0  0  0  0  0  0  0  0
    2.3795    0.7903   -0.9030 C   0  0  0  0  0  0  0  0  0  0  0  0
    3.5794    1.5055   -0.4010 C   0  0  0  0  0  0  0  0  0  0  0  0
    3.4474    2.3796    0.4988 O   0  0  0  0  0  0  0  0  0  0  0  0
    4.8868    1.2277   -0.9294 N   0  0  0  0  0  0  0  0  0  0  0  0
    6.1101    1.7164   -0.2935 C   0  0  0  0  0  0  0  0  0  0  0  0
    6.3562    1.0246    1.0540 C   0  0  0  0  0  0  0  0  0  0  0  0
    6.5058   -0.4960    0.9032 C   0  0  0  0  0  0  0  0  0  0  0  0
    6.8244   -1.1491    2.2547 C   0  0  0  0  0  0  0  0  0  0  0  0
    6.9054   -2.6744    2.1498 C   0  0  0  0  0  0  0  0  0  0  0  0
    8.0103   -3.0597    1.3760 O   0  0  0  0  0  0  0  0  0  0  0  0
    2.4938   -0.4440   -1.5636 C   0  0  0  0  0  0  0  0  0  0  0  0
    1.3564   -1.1133   -2.0153 C   0  0  0  0  0  0  0  0  0  0  0  0
    0.0817   -0.5740   -1.8063 C   0  0  0  0  0  0  0  0  0  0  0  0
   -3.3333   -1.1420   -4.8373 H   0  0  0  0  0  0  0  0  0  0  0  0
   -2.9685   -2.7004   -4.0062 H   0  0  0  0  0  0  0  0  0  0  0  0
   -3.7307   -1.3303   -3.0937 H   0  0  0  0  0  0  0  0  0  0  0  0
   -2.6914   -1.7734   -0.9346 H   0  0  0  0  0  0  0  0  0  0  0  0
   -2.0144   -3.1902   -1.7799 H   0  0  0  0  0  0  0  0  0  0  0  0
   -0.3513   -1.7375    0.3700 H   0  0  0  0  0  0  0  0  0  0  0  0
   -0.0955   -3.3381   -0.3683 H   0  0  0  0  0  0  0  0  0  0  0  0
   -2.3381   -4.0641    0.6818 H   0  0  0  0  0  0  0  0  0  0  0  0
   -0.9830   -3.7633    1.8107 H   0  0  0  0  0  0  0  0  0  0  0  0
   -3.2171   -2.8421    2.5637 H   0  0  0  0  0  0  0  0  0  0  0  0
   -3.2301   -1.7402    1.1934 H   0  0  0  0  0  0  0  0  0  0  0  0
   -1.8012   -1.6071    3.8021 H   0  0  0  0  0  0  0  0  0  0  0  0
   -0.6462   -1.2998    2.5085 H   0  0  0  0  0  0  0  0  0  0  0  0
   -1.9248    0.6852    3.6070 H   0  0  0  0  0  0  0  0  0  0  0  0
   -3.3541    0.2109    2.6916 H   0  0  0  0  0  0  0  0  0  0  0  0
   -0.5539    0.8695    1.5315 H   0  0  0  0  0  0  0  0  0  0  0  0
   -1.8251    2.0855    1.6968 H   0  0  0  0  0  0  0  0  0  0  0  0
   -3.9254    0.5202   -1.0298 H   0  0  0  0  0  0  0  0  0  0  0  0
   -4.2134    0.1947    0.6616 H   0  0  0  0  0  0  0  0  0  0  0  0
   -3.9956    2.5334    1.3046 H   0  0  0  0  0  0  0  0  0  0  0  0
   -3.4496    3.0300   -0.3294 H   0  0  0  0  0  0  0  0  0  0  0  0
   -6.1819    1.6794    0.1662 H   0  0  0  0  0  0  0  0  0  0  0  0
   -5.1156    3.4880   -2.1110 H   0  0  0  0  0  0  0  0  0  0  0  0
   -6.7875    2.8214   -1.9821 H   0  0  0  0  0  0  0  0  0  0  0  0
   -5.4086    1.7113   -2.2194 H   0  0  0  0  0  0  0  0  0  0  0  0
   -6.0791    3.7100    1.5802 H   0  0  0  0  0  0  0  0  0  0  0  0
   -7.1812    3.9640    0.1850 H   0  0  0  0  0  0  0  0  0  0  0  0
   -5.5285    4.6956    0.1683 H   0  0  0  0  0  0  0  0  0  0  0  0
   -1.9590    1.2521   -1.8829 H   0  0  0  0  0  0  0  0  0  0  0  0
   -1.2905    2.3835   -0.6938 H   0  0  0  0  0  0  0  0  0  0  0  0
    0.9968    2.2811   -0.1801 H   0  0  0  0  0  0  0  0  0  0  0  0
    4.9817    0.7258   -1.8399 H   0  0  0  0  0  0  0  0  0  0  0  0
    6.9762    1.5294   -0.9656 H   0  0  0  0  0  0  0  0  0  0  0  0
    6.0365    2.8148   -0.1409 H   0  0  0  0  0  0  0  0  0  0  0  0
    5.5197    1.2517    1.7504 H   0  0  0  0  0  0  0  0  0  0  0  0
    7.2872    1.4431    1.4953 H   0  0  0  0  0  0  0  0  0  0  0  0
    5.5599   -0.9245    0.5049 H   0  0  0  0  0  0  0  0  0  0  0  0
    7.3246   -0.7126    0.1831 H   0  0  0  0  0  0  0  0  0  0  0  0
    6.0269   -0.8898    2.9844 H   0  0  0  0  0  0  0  0  0  0  0  0
    7.7902   -0.7570    2.6440 H   0  0  0  0  0  0  0  0  0  0  0  0
    7.0324   -3.0930    3.1699 H   0  0  0  0  0  0  0  0  0  0  0  0
    5.9559   -3.0891    1.7376 H   0  0  0  0  0  0  0  0  0  0  0  0
    7.6902   -3.1515    0.4405 H   0  0  0  0  0  0  0  0  0  0  0  0
    3.4562   -0.9160   -1.7065 H   0  0  0  0  0  0  0  0  0  0  0  0
    1.4630   -2.0721   -2.5072 H   0  0  0  0  0  0  0  0  0  0  0  0
  1  2  1  0
  2  3  2  0
  2  4  1  0
  4  5  1  0
  5  6  1  0
  6  7  1  0
  7  8  1  0
  8  9  1  0
  9 10  1  0
 10 11  1  0
 11 12  1  0
 12 13  1  0
 13 14  1  0
 14 15  1  0
 15 16  1  0
 15 17  1  0
 12 18  1  0
 18 19  1  0
 19 20  2  0
 20 21  1  0
 21 22  1  0
 22 23  2  0
 22 24  1  0
 24 25  1  0
 25 26  1  0
 26 27  1  0
 27 28  1  0
 28 29  1  0
 29 30  1  0
 21 31  2  0
 31 32  1  0
 32 33  2  0
 33  4  1  0
 33 19  1  0
  1 34  1  0
  1 35  1  0
  1 36  1  0
  5 37  1  0
  5 38  1  0
  6 39  1  0
  6 40  1  0
  7 41  1  0
  7 42  1  0
  8 43  1  0
  8 44  1  0
  9 45  1  0
  9 46  1  0
 10 47  1  0
 10 48  1  0
 11 49  1  0
 11 50  1  0
 13 51  1  0
 13 52  1  0
 14 53  1  0
 14 54  1  0
 15 55  1  0
 16 56  1  0
 16 57  1  0
 16 58  1  0
 17 59  1  0
 17 60  1  0
 17 61  1  0
 18 62  1  0
 18 63  1  0
 20 64  1  0
 24 65  1  0
 25 66  1  0
 25 67  1  0
 26 68  1  0
 26 69  1  0
 27 70  1  0
 27 71  1  0
 28 72  1  0
 28 73  1  0
 29 74  1  0
 29 75  1  0
 30 76  1  0
 31 77  1  0
 32 78  1  0
M  END
$$$$
