
     RDKit          3D

 63 65  0  0  0  0  0  0  0  0999 V2000
   -4.3460    2.9031    1.4600 C   0  0  0  0  0  0  0  0  0  0  0  0
   -4.1815    1.4599    0.9880 C   0  0  0  0  0  0  0  0  0  0  0  0
   -2.9968    1.3301    0.0696 C   0  0  0  0  0  0  0  0  0  0  0  0
   -2.9974    1.9616   -1.0223 O   0  0  0  0  0  0  0  0  0  0  0  0
   -1.8417    0.5456    0.4260 N   0  0  0  0  0  0  0  0  0  0  0  0
   -1.9666   -0.7697    1.0725 C   0  0  0  0  0  0  0  0  0  0  0  0
   -3.0332   -1.6773    0.4287 C   0  0  0  0  0  0  0  0  0  0  0  0
   -2.9056   -1.8261   -1.0990 C   0  0  0  0  0  0  0  0  0  0  0  0
   -1.6002   -2.3852   -1.5315 N   0  0  0  0  0  0  0  0  0  0  0  0
   -1.4480   -3.7826   -1.0697 C   0  0  0  0  0  0  0  0  0  0  0  0
   -1.4840   -2.3157   -3.0134 C   0  0  0  0  0  0  0  0  0  0  0  0
   -0.0799   -1.8629   -3.4955 C   0  0  0  0  0  0  0  0  0  0  0  0
    1.0641   -1.9074   -2.4648 C   0  0  0  0  0  0  0  0  0  0  0  0
    0.9059   -0.9658   -1.3372 N   0  0  0  0  0  0  0  0  0  0  0  0
    1.5350   -1.3526   -0.0950 C   0  0  0  0  0  0  0  0  0  0  0  0
    1.1586   -2.4046    0.4838 O   0  0  0  0  0  0  0  0  0  0  0  0
    2.6401   -0.5723    0.5019 C   0  0  0  0  0  0  0  0  0  0  0  0
    2.6446   -0.3319    1.8829 C   0  0  0  0  0  0  0  0  0  0  0  0
    3.6534    0.4391    2.4579 C   0  0  0  0  0  0  0  0  0  0  0  0
    4.6631    0.9708    1.6455 C   0  0  0  0  0  0  0  0  0  0  0  0
    5.7634    1.7932    2.2488 C   0  0  0  0  0  0  0  0  0  0  0  0
    4.6702    0.6953    0.3093 N   0  0  0  0  0  0  0  0  0  0  0  0
    3.6959   -0.0596   -0.2754 C   0  0  0  0  0  0  0  0  0  0  0  0
    3.7567   -0.3010   -1.5141 O   0  0  0  0  0  0  0  0  0  0  0  0
    0.3680    0.3952   -1.5841 C   0  0  0  0  0  0  0  0  0  0  0  0
    0.3906    1.3108   -0.3732 C   0  0  0  0  0  0  0  0  0  0  0  0
    1.4606    2.2121   -0.2242 C   0  0  0  0  0  0  0  0  0  0  0  0
    1.5793    2.9981    0.9230 C   0  0  0  0  0  0  0  0  0  0  0  0
    2.6377    3.8332    1.0614 F   0  0  0  0  0  0  0  0  0  0  0  0
    0.6166    2.9115    1.9304 C   0  0  0  0  0  0  0  0  0  0  0  0
    0.7359    3.6627    3.0533 F   0  0  0  0  0  0  0  0  0  0  0  0
   -0.4851    2.0691    1.7711 C   0  0  0  0  0  0  0  0  0  0  0  0
   -0.6217    1.2803    0.6174 C   0  0  0  0  0  0  0  0  0  0  0  0
   -3.4646    3.2160    2.0553 H   0  0  0  0  0  0  0  0  0  0  0  0
   -5.2496    2.9869    2.0965 H   0  0  0  0  0  0  0  0  0  0  0  0
   -4.4668    3.5855    0.5954 H   0  0  0  0  0  0  0  0  0  0  0  0
   -4.0629    0.8082    1.8797 H   0  0  0  0  0  0  0  0  0  0  0  0
   -5.0992    1.1489    0.4391 H   0  0  0  0  0  0  0  0  0  0  0  0
   -0.9961   -1.2926    1.0310 H   0  0  0  0  0  0  0  0  0  0  0  0
   -2.2065   -0.6289    2.1483 H   0  0  0  0  0  0  0  0  0  0  0  0
   -4.0443   -1.2796    0.6582 H   0  0  0  0  0  0  0  0  0  0  0  0
   -2.9958   -2.6803    0.9070 H   0  0  0  0  0  0  0  0  0  0  0  0
   -3.0516   -0.8185   -1.5463 H   0  0  0  0  0  0  0  0  0  0  0  0
   -3.7438   -2.4606   -1.4731 H   0  0  0  0  0  0  0  0  0  0  0  0
   -0.6308   -4.3034   -1.6132 H   0  0  0  0  0  0  0  0  0  0  0  0
   -2.3803   -4.3695   -1.2295 H   0  0  0  0  0  0  0  0  0  0  0  0
   -1.1641   -3.7978    0.0058 H   0  0  0  0  0  0  0  0  0  0  0  0
   -1.7533   -3.2908   -3.4918 H   0  0  0  0  0  0  0  0  0  0  0  0
   -2.2086   -1.5862   -3.4539 H   0  0  0  0  0  0  0  0  0  0  0  0
    0.2226   -2.5223   -4.3416 H   0  0  0  0  0  0  0  0  0  0  0  0
   -0.1399   -0.8426   -3.9404 H   0  0  0  0  0  0  0  0  0  0  0  0
    1.1783   -2.9505   -2.0992 H   0  0  0  0  0  0  0  0  0  0  0  0
    2.0092   -1.6636   -2.9980 H   0  0  0  0  0  0  0  0  0  0  0  0
    1.8497   -0.7205    2.5077 H   0  0  0  0  0  0  0  0  0  0  0  0
    3.6407    0.6266    3.5234 H   0  0  0  0  0  0  0  0  0  0  0  0
    6.0502    2.6079    1.5507 H   0  0  0  0  0  0  0  0  0  0  0  0
    6.6423    1.1454    2.4452 H   0  0  0  0  0  0  0  0  0  0  0  0
    5.4388    2.2597    3.2030 H   0  0  0  0  0  0  0  0  0  0  0  0
    5.4422    1.0705   -0.2901 H   0  0  0  0  0  0  0  0  0  0  0  0
    0.9401    0.8579   -2.4194 H   0  0  0  0  0  0  0  0  0  0  0  0
   -0.6813    0.3170   -1.9322 H   0  0  0  0  0  0  0  0  0  0  0  0
    2.2244    2.2813   -0.9884 H   0  0  0  0  0  0  0  0  0  0  0  0
   -1.2512    2.0388    2.5385 H   0  0  0  0  0  0  0  0  0  0  0  0
  1  2  1  0
  2  3  1  0
  3  4  2  0
  3  5  1  0
  5  6  1  0
  6  7  1  0
  7  8  1  0
  8  9  1  0
  9 10  1  0
  9 11  1  0
 11 12  1  0
 12 13  1  0
 13 14  1  0
 14 15  1  0
 15 16  2  0
 15 17  1  0
 17 18  2  0
 18 19  1  0
 19 20  2  0
 20 21  1  0
 20 22  1  0
 22 23  1  0
 23 24  2  0
 14 25  1  0
 25 26  1  0
 26 27  2  0
 27 28  1  0
 28 29  1  0
 28 30  2  0
 30 31  1  0
 30 32  1  0
 32 33  2  0
 33  5  1  0
 23 17  1  0
 33 26  1  0
  1 34  1  0
  1 35  1  0
  1 36  1  0
  2 37  1  0
  2 38  1  0
  6 39  1  0
  6 40  1  0
  7 41  1  0
  7 42  1  0
  8 43  1  0
  8 44  1  0
 10 45  1  0
 10 46  1  0
 10 47  1  0
 11 48  1  0
 11 49  1  0
 12 50  1  0
 12 51  1  0
 13 52  1  0
 13 53  1  0
 18 54  1  0
 19 55  1  0
 21 56  1  0
 21 57  1  0
 21 58  1  0
 22 59  1  0
 25 60  1  0
 25 61  1  0
 27 62  1  0
 32 63  1  0
M  END
$$$$
