
     RDKit          3D

 74 77  0  0  0  0  0  0  0  0999 V2000
   -1.7346   -4.5760   -1.8061 C   0  0  0  0  0  0  0  0  0  0  0  0
   -1.6407   -3.7848   -0.4943 C   0  0  0  0  0  0  0  0  0  0  0  0
   -2.5715   -4.4137    0.5443 C   0  0  0  0  0  0  0  0  0  0  0  0
   -1.9429   -2.2801   -0.7828 C   0  0  0  0  0  0  0  0  0  0  0  0
   -1.8444   -1.3226    0.3529 N   0  0  0  0  0  0  0  0  0  0  0  0
   -3.1129   -1.1710    1.1198 C   0  0  0  0  0  0  0  0  0  0  0  0
   -4.0990   -0.2383    0.4095 C   0  0  0  0  0  0  0  0  0  0  0  0
   -3.6183    1.1020    0.4513 O   0  0  0  0  0  0  0  0  0  0  0  0
   -4.2593    2.2072   -0.1289 C   0  0  0  0  0  0  0  0  0  0  0  0
   -5.5111    2.0909   -0.7677 C   0  0  0  0  0  0  0  0  0  0  0  0
   -6.1104    3.2102   -1.3500 C   0  0  0  0  0  0  0  0  0  0  0  0
   -5.4727    4.4509   -1.3049 C   0  0  0  0  0  0  0  0  0  0  0  0
   -4.2327    4.5822   -0.6733 C   0  0  0  0  0  0  0  0  0  0  0  0
   -3.6204    3.4669   -0.0742 C   0  0  0  0  0  0  0  0  0  0  0  0
   -2.2641    3.6138    0.5856 C   0  0  0  0  0  0  0  0  0  0  0  0
   -1.1723    2.8128   -0.1626 C   0  0  0  0  0  0  0  0  0  0  0  0
   -0.5380    1.7246    0.7232 C   0  0  0  0  0  0  0  0  0  0  0  0
    0.2066    0.6786   -0.1303 C   0  0  0  0  0  0  0  0  0  0  0  0
    0.6313   -0.6365    0.6114 C   0  0  0  0  0  0  0  0  0  0  0  0
    1.5757   -0.2893    1.8163 C   0  0  0  0  0  0  0  0  0  0  0  0
    3.0060    0.0592    1.3815 C   0  0  0  0  0  0  0  0  0  0  0  0
    3.5756   -1.0027    0.5394 N   0  0  0  0  0  0  0  0  0  0  0  0
    4.9689   -0.9776    0.1853 C   0  0  0  0  0  0  0  0  0  0  0  0
    5.5821   -2.0595   -0.0120 O   0  0  0  0  0  0  0  0  0  0  0  0
    5.6836    0.3005   -0.0247 C   0  0  0  0  0  0  0  0  0  0  0  0
    5.1372    1.2434   -0.9098 C   0  0  0  0  0  0  0  0  0  0  0  0
    5.8041    2.4393   -1.1660 C   0  0  0  0  0  0  0  0  0  0  0  0
    7.0257    2.6860   -0.5384 C   0  0  0  0  0  0  0  0  0  0  0  0
    7.5356    1.7802    0.3342 N   0  0  0  0  0  0  0  0  0  0  0  0
    6.9130    0.5995    0.6067 C   0  0  0  0  0  0  0  0  0  0  0  0
    7.4838   -0.2697    1.5850 N   0  0  0  0  0  0  0  0  0  0  0  0
    2.7209   -2.1130    0.1037 C   0  0  0  0  0  0  0  0  0  0  0  0
    1.4011   -1.5439   -0.4255 C   0  0  0  0  0  0  0  0  0  0  0  0
   -0.6174   -1.4049    1.1971 C   0  0  0  0  0  0  0  0  0  0  0  0
   -1.0075   -4.1782   -2.5455 H   0  0  0  0  0  0  0  0  0  0  0  0
   -2.7557   -4.5058   -2.2356 H   0  0  0  0  0  0  0  0  0  0  0  0
   -1.4951   -5.6451   -1.6366 H   0  0  0  0  0  0  0  0  0  0  0  0
   -0.6082   -3.9229   -0.1335 H   0  0  0  0  0  0  0  0  0  0  0  0
   -3.6360   -4.2585    0.2636 H   0  0  0  0  0  0  0  0  0  0  0  0
   -2.3847   -5.5080    0.6163 H   0  0  0  0  0  0  0  0  0  0  0  0
   -2.3739   -3.9863    1.5502 H   0  0  0  0  0  0  0  0  0  0  0  0
   -2.9484   -2.2163   -1.2458 H   0  0  0  0  0  0  0  0  0  0  0  0
   -1.2608   -1.9231   -1.5840 H   0  0  0  0  0  0  0  0  0  0  0  0
   -2.9396   -0.7357    2.1288 H   0  0  0  0  0  0  0  0  0  0  0  0
   -3.6128   -2.1429    1.2864 H   0  0  0  0  0  0  0  0  0  0  0  0
   -4.2724   -0.5534   -0.6378 H   0  0  0  0  0  0  0  0  0  0  0  0
   -5.0690   -0.2913    0.9442 H   0  0  0  0  0  0  0  0  0  0  0  0
   -6.0282    1.1430   -0.8184 H   0  0  0  0  0  0  0  0  0  0  0  0
   -7.0753    3.1172   -1.8345 H   0  0  0  0  0  0  0  0  0  0  0  0
   -5.9338    5.3129   -1.7712 H   0  0  0  0  0  0  0  0  0  0  0  0
   -3.7535    5.5525   -0.6538 H   0  0  0  0  0  0  0  0  0  0  0  0
   -1.9614    4.6846    0.6192 H   0  0  0  0  0  0  0  0  0  0  0  0
   -2.3540    3.2935    1.6472 H   0  0  0  0  0  0  0  0  0  0  0  0
   -1.5971    2.3546   -1.0889 H   0  0  0  0  0  0  0  0  0  0  0  0
   -0.3695    3.5116   -0.5024 H   0  0  0  0  0  0  0  0  0  0  0  0
    0.1696    2.2231    1.4178 H   0  0  0  0  0  0  0  0  0  0  0  0
   -1.3154    1.2248    1.3314 H   0  0  0  0  0  0  0  0  0  0  0  0
   -0.4375    0.3950   -0.9944 H   0  0  0  0  0  0  0  0  0  0  0  0
    1.1027    1.1771   -0.5711 H   0  0  0  0  0  0  0  0  0  0  0  0
    1.6405   -1.1655    2.4970 H   0  0  0  0  0  0  0  0  0  0  0  0
    1.1711    0.5281    2.4440 H   0  0  0  0  0  0  0  0  0  0  0  0
    3.6347    0.1841    2.2899 H   0  0  0  0  0  0  0  0  0  0  0  0
    3.0001    1.0229    0.8322 H   0  0  0  0  0  0  0  0  0  0  0  0
    4.1907    1.0472   -1.4087 H   0  0  0  0  0  0  0  0  0  0  0  0
    5.3825    3.1646   -1.8551 H   0  0  0  0  0  0  0  0  0  0  0  0
    7.5575    3.6068   -0.7324 H   0  0  0  0  0  0  0  0  0  0  0  0
    7.0684   -1.1996    1.8184 H   0  0  0  0  0  0  0  0  0  0  0  0
    8.3745   -0.0009    2.0647 H   0  0  0  0  0  0  0  0  0  0  0  0
    2.5289   -2.7995    0.9571 H   0  0  0  0  0  0  0  0  0  0  0  0
    3.2067   -2.7029   -0.7042 H   0  0  0  0  0  0  0  0  0  0  0  0
    1.6584   -0.9691   -1.3426 H   0  0  0  0  0  0  0  0  0  0  0  0
    0.7946   -2.3885   -0.7813 H   0  0  0  0  0  0  0  0  0  0  0  0
   -0.3523   -2.4518    1.4394 H   0  0  0  0  0  0  0  0  0  0  0  0
   -0.8269   -0.9631    2.1958 H   0  0  0  0  0  0  0  0  0  0  0  0
  1  2  1  0
  2  3  1  0
  2  4  1  0
  4  5  1  0
  5  6  1  0
  6  7  1  0
  7  8  1  0
  8  9  1  0
  9 10  2  0
 10 11  1  0
 11 12  2  0
 12 13  1  0
 13 14  2  0
 14 15  1  0
 15 16  1  0
 16 17  1  0
 17 18  1  0
 18 19  1  0
 19 20  1  0
 20 21  1  0
 21 22  1  0
 22 23  1  0
 23 24  2  0
 23 25  1  0
 25 26  2  0
 26 27  1  0
 27 28  2  0
 28 29  1  0
 29 30  2  0
 30 31  1  0
 22 32  1  0
 32 33  1  0
 19 34  1  0
 34  5  1  0
 14  9  1  0
 33 19  1  0
 30 25  1  0
  1 35  1  0
  1 36  1  0
  1 37  1  0
  2 38  1  0
  3 39  1  0
  3 40  1  0
  3 41  1  0
  4 42  1  0
  4 43  1  0
  6 44  1  0
  6 45  1  0
  7 46  1  0
  7 47  1  0
 10 48  1  0
 11 49  1  0
 12 50  1  0
 13 51  1  0
 15 52  1  0
 15 53  1  0
 16 54  1  0
 16 55  1  0
 17 56  1  0
 17 57  1  0
 18 58  1  0
 18 59  1  0
 20 60  1  0
 20 61  1  0
 21 62  1  0
 21 63  1  0
 26 64  1  0
 27 65  1  0
 28 66  1  0
 31 67  1  0
 31 68  1  0
 32 69  1  0
 32 70  1  0
 33 71  1  0
 33 72  1  0
 34 73  1  0
 34 74  1  0
M  END
$$$$
