
     RDKit          3D

 70 72  0  0  0  0  0  0  0  0999 V2000
   -6.7093    0.3968   -0.8336 C   0  0  0  0  0  0  0  0  0  0  0  0
   -5.3499    0.0930   -1.0588 O   0  0  0  0  0  0  0  0  0  0  0  0
   -4.5499    0.4908    0.0448 C   0  0  0  0  0  0  0  0  0  0  0  0
   -3.2223    1.0554   -0.5070 C   0  0  0  0  0  0  0  0  0  0  0  0
   -2.4274    1.7290    0.5352 N   0  0  0  0  0  0  0  0  0  0  0  0
   -2.8362    3.0048    1.0748 C   0  0  0  0  0  0  0  0  0  0  0  0
   -3.6636    3.9662    0.2744 C   0  0  0  0  0  0  0  0  0  0  0  0
   -2.4644    3.3430    2.2314 O   0  0  0  0  0  0  0  0  0  0  0  0
   -1.0733    1.2349    0.8277 C   0  0  0  0  0  0  0  0  0  0  0  0
   -0.0901    1.7420   -0.2371 C   0  0  0  0  0  0  0  0  0  0  0  0
    1.3749    1.4390    0.1149 C   0  0  0  0  0  0  0  0  0  0  0  0
    1.6097   -0.0075    0.3251 N   0  0  0  0  0  0  0  0  0  0  0  0
    2.7203   -0.2599    1.2794 C   0  0  0  0  0  0  0  0  0  0  0  0
    4.0815    0.1795    0.7746 C   0  0  0  0  0  0  0  0  0  0  0  0
    4.5152    1.5052    0.9533 C   0  0  0  0  0  0  0  0  0  0  0  0
    5.7648    1.9153    0.4792 C   0  0  0  0  0  0  0  0  0  0  0  0
    6.6032    1.0036   -0.1679 C   0  0  0  0  0  0  0  0  0  0  0  0
    7.8201    1.4008   -0.6288 N   0  0  0  0  0  0  0  0  0  0  0  0
    8.6625    0.5375   -1.2568 C   0  0  0  0  0  0  0  0  0  0  0  0
    8.2912   -0.7966   -1.4427 C   0  0  0  0  0  0  0  0  0  0  0  0
    7.0487   -1.2351   -0.9804 C   0  0  0  0  0  0  0  0  0  0  0  0
    6.1887   -0.3356   -0.3363 C   0  0  0  0  0  0  0  0  0  0  0  0
    4.9340   -0.7422    0.1406 C   0  0  0  0  0  0  0  0  0  0  0  0
    1.7485   -0.7480   -0.9536 C   0  0  0  0  0  0  0  0  0  0  0  0
    1.5358   -2.2664   -0.7825 C   0  0  0  0  0  0  0  0  0  0  0  0
    0.2806   -2.6310    0.0293 C   0  0  0  0  0  0  0  0  0  0  0  0
   -1.0204   -2.4191   -0.7502 C   0  0  0  0  0  0  0  0  0  0  0  0
   -2.0939   -2.4265    0.1648 O   0  0  0  0  0  0  0  0  0  0  0  0
   -3.3267   -2.4782   -0.5219 C   0  0  0  0  0  0  0  0  0  0  0  0
   -4.4698   -2.1154    0.4405 C   0  0  0  0  0  0  0  0  0  0  0  0
   -4.5539   -3.0860    1.4561 O   0  0  0  0  0  0  0  0  0  0  0  0
   -4.3494   -0.6845    1.0568 C   0  0  0  0  0  0  0  0  0  0  0  0
   -5.3212   -0.5516    2.0664 O   0  0  0  0  0  0  0  0  0  0  0  0
   -6.8675    1.4971   -0.8028 H   0  0  0  0  0  0  0  0  0  0  0  0
   -7.0834   -0.0779    0.1003 H   0  0  0  0  0  0  0  0  0  0  0  0
   -7.3059   -0.0053   -1.6776 H   0  0  0  0  0  0  0  0  0  0  0  0
   -5.0147    1.3379    0.6031 H   0  0  0  0  0  0  0  0  0  0  0  0
   -3.4423    1.7753   -1.3238 H   0  0  0  0  0  0  0  0  0  0  0  0
   -2.6332    0.2478   -0.9784 H   0  0  0  0  0  0  0  0  0  0  0  0
   -3.1765    4.1503   -0.7059 H   0  0  0  0  0  0  0  0  0  0  0  0
   -3.7540    4.9366    0.8075 H   0  0  0  0  0  0  0  0  0  0  0  0
   -4.6831    3.5629    0.1111 H   0  0  0  0  0  0  0  0  0  0  0  0
   -1.0725    0.1255    0.8426 H   0  0  0  0  0  0  0  0  0  0  0  0
   -0.7462    1.5689    1.8360 H   0  0  0  0  0  0  0  0  0  0  0  0
   -0.1980    2.8452   -0.3289 H   0  0  0  0  0  0  0  0  0  0  0  0
   -0.3532    1.3099   -1.2246 H   0  0  0  0  0  0  0  0  0  0  0  0
    2.0375    1.8325   -0.6883 H   0  0  0  0  0  0  0  0  0  0  0  0
    1.6010    2.0132    1.0399 H   0  0  0  0  0  0  0  0  0  0  0  0
    2.7482   -1.3365    1.5474 H   0  0  0  0  0  0  0  0  0  0  0  0
    2.5039    0.2520    2.2427 H   0  0  0  0  0  0  0  0  0  0  0  0
    3.8914    2.2238    1.4678 H   0  0  0  0  0  0  0  0  0  0  0  0
    6.0804    2.9415    0.6215 H   0  0  0  0  0  0  0  0  0  0  0  0
    9.6231    0.8864   -1.6106 H   0  0  0  0  0  0  0  0  0  0  0  0
    8.9613   -1.4852   -1.9410 H   0  0  0  0  0  0  0  0  0  0  0  0
    6.7616   -2.2701   -1.1246 H   0  0  0  0  0  0  0  0  0  0  0  0
    4.6195   -1.7712    0.0157 H   0  0  0  0  0  0  0  0  0  0  0  0
    1.0064   -0.3913   -1.6949 H   0  0  0  0  0  0  0  0  0  0  0  0
    2.7377   -0.5602   -1.4202 H   0  0  0  0  0  0  0  0  0  0  0  0
    2.4211   -2.7062   -0.2797 H   0  0  0  0  0  0  0  0  0  0  0  0
    1.4799   -2.7409   -1.7863 H   0  0  0  0  0  0  0  0  0  0  0  0
    0.2537   -2.0501    0.9768 H   0  0  0  0  0  0  0  0  0  0  0  0
    0.3435   -3.7036    0.3169 H   0  0  0  0  0  0  0  0  0  0  0  0
   -1.1186   -3.2348   -1.5039 H   0  0  0  0  0  0  0  0  0  0  0  0
   -0.9924   -1.4417   -1.2763 H   0  0  0  0  0  0  0  0  0  0  0  0
   -3.4962   -3.5138   -0.8923 H   0  0  0  0  0  0  0  0  0  0  0  0
   -3.3591   -1.8015   -1.4040 H   0  0  0  0  0  0  0  0  0  0  0  0
   -5.4207   -2.1802   -0.1298 H   0  0  0  0  0  0  0  0  0  0  0  0
   -3.7419   -3.0052    2.0221 H   0  0  0  0  0  0  0  0  0  0  0  0
   -3.3409   -0.5844    1.5216 H   0  0  0  0  0  0  0  0  0  0  0  0
   -4.9280   -0.9002    2.9091 H   0  0  0  0  0  0  0  0  0  0  0  0
  1  2  1  0
  2  3  1  0
  3  4  1  0
  4  5  1  0
  5  6  1  0
  6  7  1  0
  6  8  2  0
  5  9  1  0
  9 10  1  0
 10 11  1  0
 11 12  1  0
 12 13  1  0
 13 14  1  0
 14 15  2  0
 15 16  1  0
 16 17  2  0
 17 18  1  0
 18 19  2  0
 19 20  1  0
 20 21  2  0
 21 22  1  0
 22 23  2  0
 12 24  1  0
 24 25  1  0
 25 26  1  0
 26 27  1  0
 27 28  1  0
 28 29  1  0
 29 30  1  0
 30 31  1  0
 30 32  1  0
 32 33  1  0
 32  3  1  0
 23 14  1  0
 22 17  1  0
  1 34  1  0
  1 35  1  0
  1 36  1  0
  3 37  1  0
  4 38  1  0
  4 39  1  0
  7 40  1  0
  7 41  1  0
  7 42  1  0
  9 43  1  0
  9 44  1  0
 10 45  1  0
 10 46  1  0
 11 47  1  0
 11 48  1  0
 13 49  1  0
 13 50  1  0
 15 51  1  0
 16 52  1  0
 19 53  1  0
 20 54  1  0
 21 55  1  0
 23 56  1  0
 24 57  1  0
 24 58  1  0
 25 59  1  0
 25 60  1  0
 26 61  1  0
 26 62  1  0
 27 63  1  0
 27 64  1  0
 29 65  1  0
 29 66  1  0
 30 67  1  0
 31 68  1  0
 32 69  1  0
 33 70  1  0
M  END
$$$$
