
     RDKit          3D

 69 72  0  0  0  0  0  0  0  0999 V2000
    0.2931   -1.1713    2.5768 C   0  0  0  0  0  0  0  0  0  0  0  0
   -0.6102   -1.8569    1.5853 C   0  0  0  0  0  0  0  0  0  0  0  0
   -1.6833   -2.3386    2.0207 O   0  0  0  0  0  0  0  0  0  0  0  0
   -0.2568   -1.9728    0.1820 N   0  0  0  0  0  0  0  0  0  0  0  0
   -0.9704   -2.7967   -0.8201 C   0  0  0  0  0  0  0  0  0  0  0  0
   -1.8148   -3.9889   -0.3119 C   0  0  0  0  0  0  0  0  0  0  0  0
   -3.3265   -3.7234   -0.0692 C   0  0  0  0  0  0  0  0  0  0  0  0
   -4.1930   -3.3136   -1.2905 C   0  0  0  0  0  0  0  0  0  0  0  0
   -4.0752   -1.8694   -1.8505 C   0  0  0  0  0  0  0  0  0  0  0  0
   -3.9813   -0.7329   -0.7993 C   0  0  0  0  0  0  0  0  0  0  0  0
   -3.1501    0.4733   -1.2791 C   0  0  0  0  0  0  0  0  0  0  0  0
   -1.7913    0.4330   -0.6653 N   0  0  0  0  0  0  0  0  0  0  0  0
   -1.5476    1.4654    0.3828 C   0  0  0  0  0  0  0  0  0  0  0  0
   -2.5320    1.3441    1.5644 C   0  0  0  0  0  0  0  0  0  0  0  0
   -2.1925    2.3783    2.6614 C   0  0  0  0  0  0  0  0  0  0  0  0
   -1.3542    3.4340    2.2101 O   0  0  0  0  0  0  0  0  0  0  0  0
   -1.8062    3.9312    0.9660 C   0  0  0  0  0  0  0  0  0  0  0  0
   -1.5083    2.9196   -0.1551 C   0  0  0  0  0  0  0  0  0  0  0  0
   -0.7194    0.3938   -1.6887 C   0  0  0  0  0  0  0  0  0  0  0  0
    0.6347   -0.0158   -1.1244 C   0  0  0  0  0  0  0  0  0  0  0  0
    1.7547    0.7523   -1.4966 C   0  0  0  0  0  0  0  0  0  0  0  0
    3.0493    0.4028   -1.0837 C   0  0  0  0  0  0  0  0  0  0  0  0
    4.1972    1.2519   -1.4652 C   0  0  0  0  0  0  0  0  0  0  0  0
    4.1922    1.8383   -2.5788 O   0  0  0  0  0  0  0  0  0  0  0  0
    5.2954    1.4686   -0.5745 N   0  0  0  0  0  0  0  0  0  0  0  0
    5.6818    1.1481    0.8156 C   0  0  0  0  0  0  0  0  0  0  0  0
    6.8938    2.0202    0.8479 C   0  0  0  0  0  0  0  0  0  0  0  0
    8.0773    1.2739    0.9261 O   0  0  0  0  0  0  0  0  0  0  0  0
    6.4976    2.3217   -0.5629 C   0  0  0  0  0  0  0  0  0  0  0  0
    3.2346   -0.7665   -0.3395 C   0  0  0  0  0  0  0  0  0  0  0  0
    2.1412   -1.5436    0.0348 C   0  0  0  0  0  0  0  0  0  0  0  0
    0.8364   -1.1727   -0.3176 C   0  0  0  0  0  0  0  0  0  0  0  0
   -0.2622   -0.9444    3.5116 H   0  0  0  0  0  0  0  0  0  0  0  0
    0.6755   -0.2116    2.1744 H   0  0  0  0  0  0  0  0  0  0  0  0
    1.1444   -1.8388    2.8237 H   0  0  0  0  0  0  0  0  0  0  0  0
   -1.5734   -2.1509   -1.4402 H   0  0  0  0  0  0  0  0  0  0  0  0
   -0.2067   -3.2208   -1.5117 H   0  0  0  0  0  0  0  0  0  0  0  0
   -1.7497   -4.7968   -1.0756 H   0  0  0  0  0  0  0  0  0  0  0  0
   -1.3535   -4.4089    0.6080 H   0  0  0  0  0  0  0  0  0  0  0  0
   -3.7389   -4.6945    0.2771 H   0  0  0  0  0  0  0  0  0  0  0  0
   -3.5168   -3.0643    0.7896 H   0  0  0  0  0  0  0  0  0  0  0  0
   -5.2549   -3.4644   -0.9966 H   0  0  0  0  0  0  0  0  0  0  0  0
   -3.9922   -4.0266   -2.1198 H   0  0  0  0  0  0  0  0  0  0  0  0
   -4.9825   -1.6762   -2.4635 H   0  0  0  0  0  0  0  0  0  0  0  0
   -3.2568   -1.8247   -2.5981 H   0  0  0  0  0  0  0  0  0  0  0  0
   -5.0079   -0.3945   -0.5516 H   0  0  0  0  0  0  0  0  0  0  0  0
   -3.5435   -1.0739    0.1509 H   0  0  0  0  0  0  0  0  0  0  0  0
   -3.6977    1.3986   -1.0079 H   0  0  0  0  0  0  0  0  0  0  0  0
   -3.1115    0.5007   -2.3898 H   0  0  0  0  0  0  0  0  0  0  0  0
   -0.5475    1.2684    0.8258 H   0  0  0  0  0  0  0  0  0  0  0  0
   -3.5728    1.5305    1.2261 H   0  0  0  0  0  0  0  0  0  0  0  0
   -2.4940    0.3195    1.9910 H   0  0  0  0  0  0  0  0  0  0  0  0
   -3.1298    2.7958    3.0978 H   0  0  0  0  0  0  0  0  0  0  0  0
   -1.6591    1.8541    3.4861 H   0  0  0  0  0  0  0  0  0  0  0  0
   -2.8958    4.1682    0.9996 H   0  0  0  0  0  0  0  0  0  0  0  0
   -1.2773    4.8833    0.7480 H   0  0  0  0  0  0  0  0  0  0  0  0
   -0.4898    3.1216   -0.5580 H   0  0  0  0  0  0  0  0  0  0  0  0
   -2.2243    3.0817   -0.9895 H   0  0  0  0  0  0  0  0  0  0  0  0
   -0.9657   -0.3312   -2.4941 H   0  0  0  0  0  0  0  0  0  0  0  0
   -0.6597    1.3775   -2.2047 H   0  0  0  0  0  0  0  0  0  0  0  0
    1.6179    1.6409   -2.1000 H   0  0  0  0  0  0  0  0  0  0  0  0
    5.9283    0.0684    0.9251 H   0  0  0  0  0  0  0  0  0  0  0  0
    4.8958    1.4806    1.5303 H   0  0  0  0  0  0  0  0  0  0  0  0
    6.8296    2.8800    1.5525 H   0  0  0  0  0  0  0  0  0  0  0  0
    8.8121    1.9397    0.9546 H   0  0  0  0  0  0  0  0  0  0  0  0
    6.2232    3.3911   -0.7039 H   0  0  0  0  0  0  0  0  0  0  0  0
    7.2373    1.9751   -1.3189 H   0  0  0  0  0  0  0  0  0  0  0  0
    4.2249   -1.0991   -0.0654 H   0  0  0  0  0  0  0  0  0  0  0  0
    2.3089   -2.4415    0.6160 H   0  0  0  0  0  0  0  0  0  0  0  0
  1  2  1  0
  2  3  2  0
  2  4  1  0
  4  5  1  0
  5  6  1  0
  6  7  1  0
  7  8  1  0
  8  9  1  0
  9 10  1  0
 10 11  1  0
 11 12  1  0
 12 13  1  0
 13 14  1  0
 14 15  1  0
 15 16  1  0
 16 17  1  0
 17 18  1  0
 12 19  1  0
 19 20  1  0
 20 21  2  0
 21 22  1  0
 22 23  1  0
 23 24  2  0
 23 25  1  0
 25 26  1  0
 26 27  1  0
 27 28  1  0
 27 29  1  0
 22 30  2  0
 30 31  1  0
 31 32  2  0
 32  4  1  0
 18 13  1  0
 32 20  1  0
 29 25  1  0
  1 33  1  0
  1 34  1  0
  1 35  1  0
  5 36  1  0
  5 37  1  0
  6 38  1  0
  6 39  1  0
  7 40  1  0
  7 41  1  0
  8 42  1  0
  8 43  1  0
  9 44  1  0
  9 45  1  0
 10 46  1  0
 10 47  1  0
 11 48  1  0
 11 49  1  0
 13 50  1  0
 14 51  1  0
 14 52  1  0
 15 53  1  0
 15 54  1  0
 17 55  1  0
 17 56  1  0
 18 57  1  0
 18 58  1  0
 19 59  1  0
 19 60  1  0
 21 61  1  0
 26 62  1  0
 26 63  1  0
 27 64  1  0
 28 65  1  0
 29 66  1  0
 29 67  1  0
 30 68  1  0
 31 69  1  0
M  END
$$$$
