
     RDKit          3D

 71 74  0  0  0  0  0  0  0  0999 V2000
    8.9208    2.2052   -2.1182 C   0  0  0  0  0  0  0  0  0  0  0  0
    8.6894    1.2125   -1.0289 C   0  0  0  0  0  0  0  0  0  0  0  0
    8.3945   -0.1263   -1.2045 C   0  0  0  0  0  0  0  0  0  0  0  0
    8.1702   -0.5870    0.0765 C   0  0  0  0  0  0  0  0  0  0  0  0
    7.7185   -1.9635    0.4562 C   0  0  0  0  0  0  0  0  0  0  0  0
    6.2790   -1.9675    0.7055 N   0  0  0  0  0  0  0  0  0  0  0  0
    5.3152   -1.8803   -0.3582 C   0  0  0  0  0  0  0  0  0  0  0  0
    5.7087   -1.7862   -1.5565 O   0  0  0  0  0  0  0  0  0  0  0  0
    3.8619   -1.8654   -0.0713 C   0  0  0  0  0  0  0  0  0  0  0  0
    3.3414   -2.5289    1.0480 C   0  0  0  0  0  0  0  0  0  0  0  0
    1.9717   -2.5087    1.3113 C   0  0  0  0  0  0  0  0  0  0  0  0
    1.0877   -1.8185    0.4608 C   0  0  0  0  0  0  0  0  0  0  0  0
    1.6027   -1.1443   -0.6717 C   0  0  0  0  0  0  0  0  0  0  0  0
    2.9823   -1.1946   -0.9368 C   0  0  0  0  0  0  0  0  0  0  0  0
    0.6899   -0.4403   -1.6556 C   0  0  0  0  0  0  0  0  0  0  0  0
   -0.2833    0.4985   -0.9846 C   0  0  0  0  0  0  0  0  0  0  0  0
    0.1746    1.4783   -0.0897 C   0  0  0  0  0  0  0  0  0  0  0  0
   -0.7310    2.3357    0.5378 C   0  0  0  0  0  0  0  0  0  0  0  0
   -2.0970    2.2332    0.2662 C   0  0  0  0  0  0  0  0  0  0  0  0
   -2.5696    1.2713   -0.6403 C   0  0  0  0  0  0  0  0  0  0  0  0
   -1.6568    0.4093   -1.2668 C   0  0  0  0  0  0  0  0  0  0  0  0
   -4.0283    1.2391   -1.0066 C   0  0  0  0  0  0  0  0  0  0  0  0
   -4.8623    1.0625    0.2033 N   0  0  0  0  0  0  0  0  0  0  0  0
   -6.0324    1.9720    0.2617 C   0  0  0  0  0  0  0  0  0  0  0  0
   -7.0143    1.8789   -0.9457 C   0  0  0  0  0  0  0  0  0  0  0  0
   -7.9202    3.1190   -0.9627 C   0  0  0  0  0  0  0  0  0  0  0  0
   -7.8840    0.6142   -0.9123 C   0  0  0  0  0  0  0  0  0  0  0  0
   -5.1670   -0.3472    0.5442 C   0  0  0  0  0  0  0  0  0  0  0  0
   -4.1943   -0.8779    1.6007 C   0  0  0  0  0  0  0  0  0  0  0  0
   -3.0603   -1.4545    0.9820 O   0  0  0  0  0  0  0  0  0  0  0  0
   -2.3275   -2.1807    1.9515 C   0  0  0  0  0  0  0  0  0  0  0  0
   -1.0678   -2.7736    1.3318 C   0  0  0  0  0  0  0  0  0  0  0  0
   -0.2854   -1.7350    0.7454 O   0  0  0  0  0  0  0  0  0  0  0  0
    8.3049    0.4334    0.9420 N   0  0  0  0  0  0  0  0  0  0  0  0
    8.6150    1.5349    0.2775 N   0  0  0  0  0  0  0  0  0  0  0  0
    9.3640    1.7042   -3.0042 H   0  0  0  0  0  0  0  0  0  0  0  0
    9.6111    2.9977   -1.7659 H   0  0  0  0  0  0  0  0  0  0  0  0
    7.9538    2.6673   -2.4068 H   0  0  0  0  0  0  0  0  0  0  0  0
    8.3232   -0.6768   -2.1336 H   0  0  0  0  0  0  0  0  0  0  0  0
    8.2508   -2.2752    1.3810 H   0  0  0  0  0  0  0  0  0  0  0  0
    7.9722   -2.6951   -0.3403 H   0  0  0  0  0  0  0  0  0  0  0  0
    5.9616   -1.9204    1.6997 H   0  0  0  0  0  0  0  0  0  0  0  0
    3.9889   -3.0757    1.7207 H   0  0  0  0  0  0  0  0  0  0  0  0
    1.6231   -2.9978    2.2091 H   0  0  0  0  0  0  0  0  0  0  0  0
    3.3776   -0.6907   -1.8118 H   0  0  0  0  0  0  0  0  0  0  0  0
    0.1543   -1.2180   -2.2410 H   0  0  0  0  0  0  0  0  0  0  0  0
    1.2815    0.1576   -2.3833 H   0  0  0  0  0  0  0  0  0  0  0  0
    1.2320    1.5720    0.1271 H   0  0  0  0  0  0  0  0  0  0  0  0
   -0.3740    3.0856    1.2300 H   0  0  0  0  0  0  0  0  0  0  0  0
   -2.7868    2.9131    0.7493 H   0  0  0  0  0  0  0  0  0  0  0  0
   -2.0150   -0.3292   -1.9742 H   0  0  0  0  0  0  0  0  0  0  0  0
   -4.2385    2.2136   -1.5015 H   0  0  0  0  0  0  0  0  0  0  0  0
   -4.2434    0.4531   -1.7638 H   0  0  0  0  0  0  0  0  0  0  0  0
   -5.6376    3.0108    0.3231 H   0  0  0  0  0  0  0  0  0  0  0  0
   -6.5865    1.8201    1.2147 H   0  0  0  0  0  0  0  0  0  0  0  0
   -6.4546    1.8781   -1.9044 H   0  0  0  0  0  0  0  0  0  0  0  0
   -7.3085    4.0427   -1.0431 H   0  0  0  0  0  0  0  0  0  0  0  0
   -8.6016    3.0913   -1.8392 H   0  0  0  0  0  0  0  0  0  0  0  0
   -8.5331    3.1704   -0.0366 H   0  0  0  0  0  0  0  0  0  0  0  0
   -8.6770    0.6716   -1.6880 H   0  0  0  0  0  0  0  0  0  0  0  0
   -7.2800   -0.2839   -1.1480 H   0  0  0  0  0  0  0  0  0  0  0  0
   -8.3681    0.4923    0.0805 H   0  0  0  0  0  0  0  0  0  0  0  0
   -6.1831   -0.4333    0.9878 H   0  0  0  0  0  0  0  0  0  0  0  0
   -5.1568   -1.0099   -0.3494 H   0  0  0  0  0  0  0  0  0  0  0  0
   -4.7473   -1.6359    2.2060 H   0  0  0  0  0  0  0  0  0  0  0  0
   -3.8882   -0.0475    2.2772 H   0  0  0  0  0  0  0  0  0  0  0  0
   -2.9355   -3.0274    2.3486 H   0  0  0  0  0  0  0  0  0  0  0  0
   -2.0277   -1.5201    2.8016 H   0  0  0  0  0  0  0  0  0  0  0  0
   -0.5186   -3.3051    2.1334 H   0  0  0  0  0  0  0  0  0  0  0  0
   -1.3423   -3.5092    0.5437 H   0  0  0  0  0  0  0  0  0  0  0  0
    8.1634    0.3922    1.9756 H   0  0  0  0  0  0  0  0  0  0  0  0
  1  2  1  0
  2  3  1  0
  3  4  2  0
  4  5  1  0
  5  6  1  0
  6  7  1  0
  7  8  2  0
  7  9  1  0
  9 10  2  0
 10 11  1  0
 11 12  2  0
 12 13  1  0
 13 14  2  0
 13 15  1  0
 15 16  1  0
 16 17  2  0
 17 18  1  0
 18 19  2  0
 19 20  1  0
 20 21  2  0
 20 22  1  0
 22 23  1  0
 23 24  1  0
 24 25  1  0
 25 26  1  0
 25 27  1  0
 23 28  1  0
 28 29  1  0
 29 30  1  0
 30 31  1  0
 31 32  1  0
 32 33  1  0
  4 34  1  0
 34 35  1  0
 35  2  2  0
 14  9  1  0
 21 16  1  0
 33 12  1  0
  1 36  1  0
  1 37  1  0
  1 38  1  0
  3 39  1  0
  5 40  1  0
  5 41  1  0
  6 42  1  0
 10 43  1  0
 11 44  1  0
 14 45  1  0
 15 46  1  0
 15 47  1  0
 17 48  1  0
 18 49  1  0
 19 50  1  0
 21 51  1  0
 22 52  1  0
 22 53  1  0
 24 54  1  0
 24 55  1  0
 25 56  1  0
 26 57  1  0
 26 58  1  0
 26 59  1  0
 27 60  1  0
 27 61  1  0
 27 62  1  0
 28 63  1  0
 28 64  1  0
 29 65  1  0
 29 66  1  0
 31 67  1  0
 31 68  1  0
 32 69  1  0
 32 70  1  0
 34 71  1  0
M  END
$$$$
