
     RDKit          3D

 69 72  0  0  0  0  0  0  0  0999 V2000
   -5.5138    2.8426   -1.1652 C   0  0  0  0  0  0  0  0  0  0  0  0
   -5.6012    1.5871   -0.3980 N   0  0  0  0  0  0  0  0  0  0  0  0
   -4.9960    0.4384   -1.1020 C   0  0  0  0  0  0  0  0  0  0  0  0
   -3.4585    0.4698   -1.0736 C   0  0  0  0  0  0  0  0  0  0  0  0
   -2.8912    0.4879    0.3786 C   0  0  0  0  0  0  0  0  0  0  0  0
   -1.3256    0.7104    0.4498 C   0  0  0  0  0  0  0  0  0  0  0  0
   -0.5419    0.8343   -0.8834 C   0  0  0  0  0  0  0  0  0  0  0  0
    0.9912    0.7752   -0.6600 C   0  0  0  0  0  0  0  0  0  0  0  0
    1.7435   -0.1441   -1.6553 C   0  0  0  0  0  0  0  0  0  0  0  0
    2.1524   -1.4127   -1.0188 N   0  0  0  0  0  0  0  0  0  0  0  0
    3.4938   -1.6187   -0.5013 C   0  0  0  0  0  0  0  0  0  0  0  0
    3.9217   -2.8019   -0.3741 O   0  0  0  0  0  0  0  0  0  0  0  0
    4.3932   -0.5036   -0.0964 C   0  0  0  0  0  0  0  0  0  0  0  0
    5.7683   -0.7347    0.0939 C   0  0  0  0  0  0  0  0  0  0  0  0
    6.5993    0.3113    0.5027 C   0  0  0  0  0  0  0  0  0  0  0  0
    6.0626    1.5839    0.7241 C   0  0  0  0  0  0  0  0  0  0  0  0
    6.8690    2.6557    1.1356 C   0  0  0  0  0  0  0  0  0  0  0  0
    6.3010    3.9181    1.3420 C   0  0  0  0  0  0  0  0  0  0  0  0
    4.9300    4.1165    1.1395 C   0  0  0  0  0  0  0  0  0  0  0  0
    4.1196    3.0504    0.7356 C   0  0  0  0  0  0  0  0  0  0  0  0
    4.6799    1.7831    0.5271 C   0  0  0  0  0  0  0  0  0  0  0  0
    3.8959    0.7432    0.1360 N   0  0  0  0  0  0  0  0  0  0  0  0
    1.2183   -2.5543   -1.0333 C   0  0  0  0  0  0  0  0  0  0  0  0
    0.6991   -2.8289    0.3882 C   0  0  0  0  0  0  0  0  0  0  0  0
   -0.3194   -3.9910    0.4975 C   0  0  0  0  0  0  0  0  0  0  0  0
   -0.6766   -4.1823    1.8447 O   0  0  0  0  0  0  0  0  0  0  0  0
   -1.5824   -3.8853   -0.4131 C   0  0  0  0  0  0  0  0  0  0  0  0
   -2.5063   -4.8997   -0.1032 O   0  0  0  0  0  0  0  0  0  0  0  0
   -2.2750   -2.5071   -0.4654 C   0  0  0  0  0  0  0  0  0  0  0  0
   -2.8021   -2.1090    0.7959 O   0  0  0  0  0  0  0  0  0  0  0  0
   -3.2311   -0.8159    1.1553 C   0  0  0  0  0  0  0  0  0  0  0  0
   -3.8385   -0.7271    2.2560 O   0  0  0  0  0  0  0  0  0  0  0  0
   -3.5607    1.7201    1.0728 C   0  0  0  0  0  0  0  0  0  0  0  0
   -5.1025    1.7255    0.9836 C   0  0  0  0  0  0  0  0  0  0  0  0
   -6.0183    2.7222   -2.1471 H   0  0  0  0  0  0  0  0  0  0  0  0
   -4.4629    3.1590   -1.3283 H   0  0  0  0  0  0  0  0  0  0  0  0
   -6.0432    3.6567   -0.6270 H   0  0  0  0  0  0  0  0  0  0  0  0
   -5.3442    0.4126   -2.1579 H   0  0  0  0  0  0  0  0  0  0  0  0
   -5.3533   -0.5064   -0.6374 H   0  0  0  0  0  0  0  0  0  0  0  0
   -3.1181    1.3735   -1.6186 H   0  0  0  0  0  0  0  0  0  0  0  0
   -3.0915   -0.3789   -1.6709 H   0  0  0  0  0  0  0  0  0  0  0  0
   -1.0825    1.6245    1.0378 H   0  0  0  0  0  0  0  0  0  0  0  0
   -0.8748   -0.0966    1.0556 H   0  0  0  0  0  0  0  0  0  0  0  0
   -0.8484    0.0595   -1.6063 H   0  0  0  0  0  0  0  0  0  0  0  0
   -0.7950    1.8120   -1.3530 H   0  0  0  0  0  0  0  0  0  0  0  0
    1.3914    1.8091   -0.7643 H   0  0  0  0  0  0  0  0  0  0  0  0
    1.2364    0.4642    0.3801 H   0  0  0  0  0  0  0  0  0  0  0  0
    2.6370    0.3845   -2.0520 H   0  0  0  0  0  0  0  0  0  0  0  0
    1.1337   -0.3476   -2.5623 H   0  0  0  0  0  0  0  0  0  0  0  0
    6.2006   -1.7132   -0.0759 H   0  0  0  0  0  0  0  0  0  0  0  0
    7.6564    0.1251    0.6452 H   0  0  0  0  0  0  0  0  0  0  0  0
    7.9326    2.5177    1.2938 H   0  0  0  0  0  0  0  0  0  0  0  0
    6.9237    4.7440    1.6571 H   0  0  0  0  0  0  0  0  0  0  0  0
    4.4980    5.0965    1.2983 H   0  0  0  0  0  0  0  0  0  0  0  0
    3.0599    3.2105    0.5831 H   0  0  0  0  0  0  0  0  0  0  0  0
    0.3774   -2.3472   -1.7226 H   0  0  0  0  0  0  0  0  0  0  0  0
    1.7266   -3.4588   -1.4327 H   0  0  0  0  0  0  0  0  0  0  0  0
    0.2555   -1.9093    0.8004 H   0  0  0  0  0  0  0  0  0  0  0  0
    1.5656   -3.0739    1.0388 H   0  0  0  0  0  0  0  0  0  0  0  0
    0.2166   -4.9116    0.1803 H   0  0  0  0  0  0  0  0  0  0  0  0
   -1.1196   -3.3557    2.1617 H   0  0  0  0  0  0  0  0  0  0  0  0
   -1.2368   -4.0872   -1.4515 H   0  0  0  0  0  0  0  0  0  0  0  0
   -2.9204   -4.6771    0.7717 H   0  0  0  0  0  0  0  0  0  0  0  0
   -3.1070   -2.5655   -1.2019 H   0  0  0  0  0  0  0  0  0  0  0  0
   -1.5436   -1.7739   -0.8076 H   0  0  0  0  0  0  0  0  0  0  0  0
   -3.1837    2.6592    0.6105 H   0  0  0  0  0  0  0  0  0  0  0  0
   -3.2662    1.7653    2.1455 H   0  0  0  0  0  0  0  0  0  0  0  0
   -5.5311    0.9058    1.5961 H   0  0  0  0  0  0  0  0  0  0  0  0
   -5.4871    2.6640    1.4416 H   0  0  0  0  0  0  0  0  0  0  0  0
  1  2  1  0
  2  3  1  0
  3  4  1  0
  4  5  1  0
  5  6  1  0
  6  7  1  0
  7  8  1  0
  8  9  1  0
  9 10  1  0
 10 11  1  0
 11 12  2  0
 11 13  1  0
 13 14  2  0
 14 15  1  0
 15 16  2  0
 16 17  1  0
 17 18  2  0
 18 19  1  0
 19 20  2  0
 20 21  1  0
 21 22  2  0
 10 23  1  0
 23 24  1  0
 24 25  1  0
 25 26  1  0
 25 27  1  0
 27 28  1  0
 27 29  1  0
 29 30  1  0
 30 31  1  0
 31 32  2  0
  5 33  1  0
 33 34  1  0
 34  2  1  0
 31  5  1  0
 22 13  1  0
 21 16  1  0
  1 35  1  0
  1 36  1  0
  1 37  1  0
  3 38  1  0
  3 39  1  0
  4 40  1  0
  4 41  1  0
  6 42  1  0
  6 43  1  0
  7 44  1  0
  7 45  1  0
  8 46  1  0
  8 47  1  0
  9 48  1  0
  9 49  1  0
 14 50  1  0
 15 51  1  0
 17 52  1  0
 18 53  1  0
 19 54  1  0
 20 55  1  0
 23 56  1  0
 23 57  1  0
 24 58  1  0
 24 59  1  0
 25 60  1  0
 26 61  1  0
 27 62  1  0
 28 63  1  0
 29 64  1  0
 29 65  1  0
 33 66  1  0
 33 67  1  0
 34 68  1  0
 34 69  1  0
M  END
$$$$
