
     RDKit          3D

 73 74  0  0  0  0  0  0  0  0999 V2000
   -1.7066   -4.3158    2.4130 C   0  0  0  0  0  0  0  0  0  0  0  0
   -1.4719   -2.9037    1.9662 C   0  0  0  0  0  0  0  0  0  0  0  0
   -1.5193   -1.9949    2.8387 O   0  0  0  0  0  0  0  0  0  0  0  0
   -1.1567   -2.5629    0.5960 N   0  0  0  0  0  0  0  0  0  0  0  0
   -1.5226   -3.4426   -0.5366 C   0  0  0  0  0  0  0  0  0  0  0  0
   -3.0212   -3.8164   -0.5955 C   0  0  0  0  0  0  0  0  0  0  0  0
   -4.0027   -2.6311   -0.5519 C   0  0  0  0  0  0  0  0  0  0  0  0
   -4.1222   -1.8511   -1.8864 C   0  0  0  0  0  0  0  0  0  0  0  0
   -3.8383   -0.3408   -1.7363 C   0  0  0  0  0  0  0  0  0  0  0  0
   -2.3516   -0.0338   -1.9607 C   0  0  0  0  0  0  0  0  0  0  0  0
   -1.8808    1.3382   -1.4421 C   0  0  0  0  0  0  0  0  0  0  0  0
   -1.9546    1.5404    0.0306 N   0  0  0  0  0  0  0  0  0  0  0  0
   -3.1888    2.2248    0.4822 C   0  0  0  0  0  0  0  0  0  0  0  0
   -2.8266    3.5163    1.2378 C   0  0  0  0  0  0  0  0  0  0  0  0
   -4.0810    4.1492    1.8506 C   0  0  0  0  0  0  0  0  0  0  0  0
   -2.1258    4.5203    0.3128 C   0  0  0  0  0  0  0  0  0  0  0  0
   -1.6108    0.3830    0.8910 C   0  0  0  0  0  0  0  0  0  0  0  0
   -0.2614   -0.2181    0.5658 C   0  0  0  0  0  0  0  0  0  0  0  0
    0.8491    0.6364    0.4609 C   0  0  0  0  0  0  0  0  0  0  0  0
    2.1210    0.1313    0.1602 C   0  0  0  0  0  0  0  0  0  0  0  0
    3.2693    1.0527    0.0341 C   0  0  0  0  0  0  0  0  0  0  0  0
    3.1102    2.1346   -0.5954 O   0  0  0  0  0  0  0  0  0  0  0  0
    4.5501    0.7525    0.6284 N   0  0  0  0  0  0  0  0  0  0  0  0
    4.6127   -0.0042    1.8852 C   0  0  0  0  0  0  0  0  0  0  0  0
    5.7778    1.3423    0.0713 C   0  0  0  0  0  0  0  0  0  0  0  0
    6.3452    0.4541   -1.0498 C   0  0  0  0  0  0  0  0  0  0  0  0
    5.4663    0.4311   -2.1453 O   0  0  0  0  0  0  0  0  0  0  0  0
    7.7142    0.9637   -1.5173 C   0  0  0  0  0  0  0  0  0  0  0  0
    7.5946    2.2447   -2.0739 O   0  0  0  0  0  0  0  0  0  0  0  0
    2.2781   -1.2401   -0.0688 C   0  0  0  0  0  0  0  0  0  0  0  0
    1.1920   -2.1062    0.0606 C   0  0  0  0  0  0  0  0  0  0  0  0
   -0.0794   -1.6188    0.4000 C   0  0  0  0  0  0  0  0  0  0  0  0
   -1.2799   -5.0474    1.6976 H   0  0  0  0  0  0  0  0  0  0  0  0
   -1.2147   -4.4821    3.3960 H   0  0  0  0  0  0  0  0  0  0  0  0
   -2.7964   -4.4940    2.5334 H   0  0  0  0  0  0  0  0  0  0  0  0
   -0.9225   -4.3759   -0.4840 H   0  0  0  0  0  0  0  0  0  0  0  0
   -1.2446   -2.9694   -1.5010 H   0  0  0  0  0  0  0  0  0  0  0  0
   -3.2035   -4.4071   -1.5195 H   0  0  0  0  0  0  0  0  0  0  0  0
   -3.2626   -4.4977    0.2438 H   0  0  0  0  0  0  0  0  0  0  0  0
   -5.0065   -3.0494   -0.3170 H   0  0  0  0  0  0  0  0  0  0  0  0
   -3.7645   -1.9797    0.3069 H   0  0  0  0  0  0  0  0  0  0  0  0
   -5.1639   -1.9654   -2.2601 H   0  0  0  0  0  0  0  0  0  0  0  0
   -3.4708   -2.2903   -2.6742 H   0  0  0  0  0  0  0  0  0  0  0  0
   -4.1908    0.0135   -0.7472 H   0  0  0  0  0  0  0  0  0  0  0  0
   -4.4245    0.2173   -2.4998 H   0  0  0  0  0  0  0  0  0  0  0  0
   -1.7276   -0.8207   -1.5226 H   0  0  0  0  0  0  0  0  0  0  0  0
   -2.1532   -0.0729   -3.0546 H   0  0  0  0  0  0  0  0  0  0  0  0
   -0.8187    1.4588   -1.7444 H   0  0  0  0  0  0  0  0  0  0  0  0
   -2.4200    2.1422   -1.9889 H   0  0  0  0  0  0  0  0  0  0  0  0
   -3.7880    1.5669    1.1531 H   0  0  0  0  0  0  0  0  0  0  0  0
   -3.8653    2.4775   -0.3642 H   0  0  0  0  0  0  0  0  0  0  0  0
   -2.1308    3.2612    2.0673 H   0  0  0  0  0  0  0  0  0  0  0  0
   -3.8114    5.0667    2.4161 H   0  0  0  0  0  0  0  0  0  0  0  0
   -4.5632    3.4405    2.5571 H   0  0  0  0  0  0  0  0  0  0  0  0
   -4.8114    4.4177    1.0571 H   0  0  0  0  0  0  0  0  0  0  0  0
   -2.7792    4.7822   -0.5470 H   0  0  0  0  0  0  0  0  0  0  0  0
   -1.1769    4.0923   -0.0750 H   0  0  0  0  0  0  0  0  0  0  0  0
   -1.8761    5.4483    0.8715 H   0  0  0  0  0  0  0  0  0  0  0  0
   -1.5695    0.7190    1.9502 H   0  0  0  0  0  0  0  0  0  0  0  0
   -2.4117   -0.3707    0.8384 H   0  0  0  0  0  0  0  0  0  0  0  0
    0.7211    1.7022    0.6158 H   0  0  0  0  0  0  0  0  0  0  0  0
    5.6436   -0.0283    2.2937 H   0  0  0  0  0  0  0  0  0  0  0  0
    4.2979   -1.0536    1.7235 H   0  0  0  0  0  0  0  0  0  0  0  0
    3.9487    0.4651    2.6402 H   0  0  0  0  0  0  0  0  0  0  0  0
    5.5789    2.3668   -0.3113 H   0  0  0  0  0  0  0  0  0  0  0  0
    6.5432    1.4573    0.8703 H   0  0  0  0  0  0  0  0  0  0  0  0
    6.4922   -0.5771   -0.6491 H   0  0  0  0  0  0  0  0  0  0  0  0
    4.8228   -0.3083   -1.9878 H   0  0  0  0  0  0  0  0  0  0  0  0
    8.1200    0.2628   -2.2818 H   0  0  0  0  0  0  0  0  0  0  0  0
    8.4204    0.9886   -0.6570 H   0  0  0  0  0  0  0  0  0  0  0  0
    8.5128    2.5194   -2.3347 H   0  0  0  0  0  0  0  0  0  0  0  0
    3.2440   -1.6441   -0.3472 H   0  0  0  0  0  0  0  0  0  0  0  0
    1.3445   -3.1670   -0.0891 H   0  0  0  0  0  0  0  0  0  0  0  0
  1  2  1  0
  2  3  2  0
  2  4  1  0
  4  5  1  0
  5  6  1  0
  6  7  1  0
  7  8  1  0
  8  9  1  0
  9 10  1  0
 10 11  1  0
 11 12  1  0
 12 13  1  0
 13 14  1  0
 14 15  1  0
 14 16  1  0
 12 17  1  0
 17 18  1  0
 18 19  2  0
 19 20  1  0
 20 21  1  0
 21 22  2  0
 21 23  1  0
 23 24  1  0
 23 25  1  0
 25 26  1  0
 26 27  1  0
 26 28  1  0
 28 29  1  0
 20 30  2  0
 30 31  1  0
 31 32  2  0
 32  4  1  0
 32 18  1  0
  1 33  1  0
  1 34  1  0
  1 35  1  0
  5 36  1  0
  5 37  1  0
  6 38  1  0
  6 39  1  0
  7 40  1  0
  7 41  1  0
  8 42  1  0
  8 43  1  0
  9 44  1  0
  9 45  1  0
 10 46  1  0
 10 47  1  0
 11 48  1  0
 11 49  1  0
 13 50  1  0
 13 51  1  0
 14 52  1  0
 15 53  1  0
 15 54  1  0
 15 55  1  0
 16 56  1  0
 16 57  1  0
 16 58  1  0
 17 59  1  0
 17 60  1  0
 19 61  1  0
 24 62  1  0
 24 63  1  0
 24 64  1  0
 25 65  1  0
 25 66  1  0
 26 67  1  0
 27 68  1  0
 28 69  1  0
 28 70  1  0
 29 71  1  0
 30 72  1  0
 31 73  1  0
M  END
$$$$
