
     RDKit          3D

 68 71  0  0  0  0  0  0  0  0999 V2000
   -6.7093   -1.9555   -1.0410 C   0  0  0  0  0  0  0  0  0  0  0  0
   -6.0083   -1.0952   -0.0702 N   0  0  0  0  0  0  0  0  0  0  0  0
   -6.8621    0.0320    0.3721 C   0  0  0  0  0  0  0  0  0  0  0  0
   -6.7462    1.2337   -0.5891 C   0  0  0  0  0  0  0  0  0  0  0  0
   -5.4532    2.0503   -0.3920 C   0  0  0  0  0  0  0  0  0  0  0  0
   -4.2411    1.4252   -1.0993 C   0  0  0  0  0  0  0  0  0  0  0  0
   -2.9260    2.0695   -0.6537 C   0  0  0  0  0  0  0  0  0  0  0  0
   -1.8554    1.1778   -0.9428 O   0  0  0  0  0  0  0  0  0  0  0  0
   -0.5482    1.4167   -0.5175 C   0  0  0  0  0  0  0  0  0  0  0  0
    0.3502    2.0003   -1.4149 C   0  0  0  0  0  0  0  0  0  0  0  0
    1.6775    2.2209   -1.0472 C   0  0  0  0  0  0  0  0  0  0  0  0
    2.1344    1.8509    0.2273 C   0  0  0  0  0  0  0  0  0  0  0  0
    3.5476    2.0915    0.6061 C   0  0  0  0  0  0  0  0  0  0  0  0
    4.1904    3.0141    0.0345 O   0  0  0  0  0  0  0  0  0  0  0  0
    4.1979    1.2835    1.6018 N   0  0  0  0  0  0  0  0  0  0  0  0
    5.5298    1.5955    2.1179 C   0  0  0  0  0  0  0  0  0  0  0  0
    6.6118    1.1527    1.1362 C   0  0  0  0  0  0  0  0  0  0  0  0
    6.5242   -0.2545    0.9242 O   0  0  0  0  0  0  0  0  0  0  0  0
    7.3820   -0.9844    0.0884 C   0  0  0  0  0  0  0  0  0  0  0  0
    8.4382   -0.3813   -0.6241 C   0  0  0  0  0  0  0  0  0  0  0  0
    9.2663   -1.1555   -1.4436 C   0  0  0  0  0  0  0  0  0  0  0  0
    9.0492   -2.5309   -1.5602 C   0  0  0  0  0  0  0  0  0  0  0  0
    8.0034   -3.1346   -0.8574 C   0  0  0  0  0  0  0  0  0  0  0  0
    7.1745   -2.3643   -0.0362 C   0  0  0  0  0  0  0  0  0  0  0  0
    1.2277    1.2775    1.1360 C   0  0  0  0  0  0  0  0  0  0  0  0
   -0.1112    1.0402    0.7742 C   0  0  0  0  0  0  0  0  0  0  0  0
   -1.0544    0.4465    1.8041 C   0  0  0  0  0  0  0  0  0  0  0  0
   -1.8309   -0.7405    1.2873 C   0  0  0  0  0  0  0  0  0  0  0  0
   -1.1655   -1.8252    0.6930 C   0  0  0  0  0  0  0  0  0  0  0  0
   -1.8905   -2.9188    0.2136 C   0  0  0  0  0  0  0  0  0  0  0  0
   -3.2820   -2.9483    0.3362 C   0  0  0  0  0  0  0  0  0  0  0  0
   -3.9589   -1.8926    0.9663 C   0  0  0  0  0  0  0  0  0  0  0  0
   -3.2276   -0.7923    1.4419 C   0  0  0  0  0  0  0  0  0  0  0  0
   -5.4607   -1.8925    1.0542 C   0  0  0  0  0  0  0  0  0  0  0  0
   -7.0423   -1.3655   -1.9199 H   0  0  0  0  0  0  0  0  0  0  0  0
   -6.0193   -2.7416   -1.4180 H   0  0  0  0  0  0  0  0  0  0  0  0
   -7.5950   -2.4434   -0.5756 H   0  0  0  0  0  0  0  0  0  0  0  0
   -6.5809    0.3898    1.3882 H   0  0  0  0  0  0  0  0  0  0  0  0
   -7.9292   -0.2831    0.4410 H   0  0  0  0  0  0  0  0  0  0  0  0
   -6.8459    0.9149   -1.6482 H   0  0  0  0  0  0  0  0  0  0  0  0
   -7.6032    1.9101   -0.3789 H   0  0  0  0  0  0  0  0  0  0  0  0
   -5.6098    3.0691   -0.8108 H   0  0  0  0  0  0  0  0  0  0  0  0
   -5.2530    2.1711    0.6957 H   0  0  0  0  0  0  0  0  0  0  0  0
   -4.1871    0.3439   -0.8820 H   0  0  0  0  0  0  0  0  0  0  0  0
   -4.3513    1.5345   -2.2001 H   0  0  0  0  0  0  0  0  0  0  0  0
   -2.7734    3.0300   -1.1915 H   0  0  0  0  0  0  0  0  0  0  0  0
   -2.9462    2.2761    0.4370 H   0  0  0  0  0  0  0  0  0  0  0  0
    0.0167    2.2809   -2.4060 H   0  0  0  0  0  0  0  0  0  0  0  0
    2.3523    2.6682   -1.7664 H   0  0  0  0  0  0  0  0  0  0  0  0
    3.7179    0.4387    1.9824 H   0  0  0  0  0  0  0  0  0  0  0  0
    5.6145    2.6863    2.3141 H   0  0  0  0  0  0  0  0  0  0  0  0
    5.6834    1.0644    3.0829 H   0  0  0  0  0  0  0  0  0  0  0  0
    6.4888    1.6880    0.1706 H   0  0  0  0  0  0  0  0  0  0  0  0
    7.6067    1.4032    1.5640 H   0  0  0  0  0  0  0  0  0  0  0  0
    8.6276    0.6807   -0.5511 H   0  0  0  0  0  0  0  0  0  0  0  0
   10.0767   -0.6885   -1.9882 H   0  0  0  0  0  0  0  0  0  0  0  0
    9.6914   -3.1291   -2.1935 H   0  0  0  0  0  0  0  0  0  0  0  0
    7.8359   -4.1999   -0.9469 H   0  0  0  0  0  0  0  0  0  0  0  0
    6.3684   -2.8415    0.5066 H   0  0  0  0  0  0  0  0  0  0  0  0
    1.5528    1.0349    2.1392 H   0  0  0  0  0  0  0  0  0  0  0  0
   -1.7374    1.2490    2.1543 H   0  0  0  0  0  0  0  0  0  0  0  0
   -0.4929    0.1080    2.7018 H   0  0  0  0  0  0  0  0  0  0  0  0
   -0.0873   -1.8175    0.5901 H   0  0  0  0  0  0  0  0  0  0  0  0
   -1.3734   -3.7431   -0.2611 H   0  0  0  0  0  0  0  0  0  0  0  0
   -3.8308   -3.7948   -0.0575 H   0  0  0  0  0  0  0  0  0  0  0  0
   -3.7525    0.0329    1.9094 H   0  0  0  0  0  0  0  0  0  0  0  0
   -5.7596   -1.4971    2.0499 H   0  0  0  0  0  0  0  0  0  0  0  0
   -5.8362   -2.9421    1.0483 H   0  0  0  0  0  0  0  0  0  0  0  0
  1  2  1  0
  2  3  1  0
  3  4  1  0
  4  5  1  0
  5  6  1  0
  6  7  1  0
  7  8  1  0
  8  9  1  0
  9 10  2  0
 10 11  1  0
 11 12  2  0
 12 13  1  0
 13 14  2  0
 13 15  1  0
 15 16  1  0
 16 17  1  0
 17 18  1  0
 18 19  1  0
 19 20  2  0
 20 21  1  0
 21 22  2  0
 22 23  1  0
 23 24  2  0
 12 25  1  0
 25 26  2  0
 26 27  1  0
 27 28  1  0
 28 29  1  0
 29 30  2  0
 30 31  1  0
 31 32  2  0
 32 33  1  0
 32 34  1  0
 34  2  1  0
 26  9  1  0
 33 28  2  0
 24 19  1  0
  1 35  1  0
  1 36  1  0
  1 37  1  0
  3 38  1  0
  3 39  1  0
  4 40  1  0
  4 41  1  0
  5 42  1  0
  5 43  1  0
  6 44  1  0
  6 45  1  0
  7 46  1  0
  7 47  1  0
 10 48  1  0
 11 49  1  0
 15 50  1  0
 16 51  1  0
 16 52  1  0
 17 53  1  0
 17 54  1  0
 20 55  1  0
 21 56  1  0
 22 57  1  0
 23 58  1  0
 24 59  1  0
 25 60  1  0
 27 61  1  0
 27 62  1  0
 29 63  1  0
 30 64  1  0
 31 65  1  0
 33 66  1  0
 34 67  1  0
 34 68  1  0
M  END
$$$$
