
     RDKit          3D

 76 79  0  0  0  0  0  0  0  0999 V2000
    8.8911    1.6786    1.8161 C   0  0  0  0  0  0  0  0  0  0  0  0
    7.6666    0.7666    1.9204 C   0  0  0  0  0  0  0  0  0  0  0  0
    7.2605    0.5619    3.3848 C   0  0  0  0  0  0  0  0  0  0  0  0
    7.9500   -0.5583    1.2514 C   0  0  0  0  0  0  0  0  0  0  0  0
    8.6739   -1.5371    1.8414 N   0  0  0  0  0  0  0  0  0  0  0  0
    8.7384   -2.5131    0.9138 C   0  0  0  0  0  0  0  0  0  0  0  0
    8.0703   -2.1150   -0.2219 C   0  0  0  0  0  0  0  0  0  0  0  0
    7.5882   -0.8775   -0.0134 N   0  0  0  0  0  0  0  0  0  0  0  0
    6.8079   -0.0900   -0.9697 C   0  0  0  0  0  0  0  0  0  0  0  0
    5.3085   -0.2816   -0.7222 C   0  0  0  0  0  0  0  0  0  0  0  0
    4.4804    0.5263   -1.7254 C   0  0  0  0  0  0  0  0  0  0  0  0
    3.0532    0.4078   -1.4306 N   0  0  0  0  0  0  0  0  0  0  0  0
    2.2983   -0.7782   -1.7317 C   0  0  0  0  0  0  0  0  0  0  0  0
    2.8684   -1.7569   -2.2879 O   0  0  0  0  0  0  0  0  0  0  0  0
    0.8468   -0.8548   -1.4399 C   0  0  0  0  0  0  0  0  0  0  0  0
    0.0232   -1.6780   -2.2160 C   0  0  0  0  0  0  0  0  0  0  0  0
   -1.3504   -1.7247   -1.9877 C   0  0  0  0  0  0  0  0  0  0  0  0
   -1.9398   -0.9605   -0.9607 C   0  0  0  0  0  0  0  0  0  0  0  0
   -1.1109   -0.1410   -0.1484 C   0  0  0  0  0  0  0  0  0  0  0  0
    0.2720   -0.1002   -0.4048 C   0  0  0  0  0  0  0  0  0  0  0  0
   -1.6486    0.8306    0.8908 C   0  0  0  0  0  0  0  0  0  0  0  0
   -2.9219    0.3971    1.5689 C   0  0  0  0  0  0  0  0  0  0  0  0
   -2.9339   -0.7253    2.4104 C   0  0  0  0  0  0  0  0  0  0  0  0
   -4.1335   -1.1655    2.9774 C   0  0  0  0  0  0  0  0  0  0  0  0
   -5.3279   -0.4918    2.7067 C   0  0  0  0  0  0  0  0  0  0  0  0
   -5.3304    0.6345    1.8682 C   0  0  0  0  0  0  0  0  0  0  0  0
   -4.1196    1.0876    1.3221 C   0  0  0  0  0  0  0  0  0  0  0  0
   -6.6129    1.3689    1.5701 C   0  0  0  0  0  0  0  0  0  0  0  0
   -6.7879    1.5500    0.1118 N   0  0  0  0  0  0  0  0  0  0  0  0
   -7.7364    2.6508   -0.1349 C   0  0  0  0  0  0  0  0  0  0  0  0
   -7.2583    0.2945   -0.5204 C   0  0  0  0  0  0  0  0  0  0  0  0
   -6.9282    0.2422   -2.0248 C   0  0  0  0  0  0  0  0  0  0  0  0
   -5.4274    0.4312   -2.3540 C   0  0  0  0  0  0  0  0  0  0  0  0
   -4.7003   -0.8789   -2.7181 C   0  0  0  0  0  0  0  0  0  0  0  0
   -4.3014   -1.7019   -1.4907 C   0  0  0  0  0  0  0  0  0  0  0  0
   -3.3234   -1.0075   -0.7153 O   0  0  0  0  0  0  0  0  0  0  0  0
    9.1503    1.8457    0.7487 H   0  0  0  0  0  0  0  0  0  0  0  0
    8.6725    2.6656    2.2762 H   0  0  0  0  0  0  0  0  0  0  0  0
    9.7643    1.2244    2.3337 H   0  0  0  0  0  0  0  0  0  0  0  0
    6.8166    1.2693    1.4142 H   0  0  0  0  0  0  0  0  0  0  0  0
    8.0984    0.1288    3.9707 H   0  0  0  0  0  0  0  0  0  0  0  0
    6.3855   -0.1211    3.4456 H   0  0  0  0  0  0  0  0  0  0  0  0
    6.9713    1.5337    3.8405 H   0  0  0  0  0  0  0  0  0  0  0  0
    9.2481   -3.4564    1.0570 H   0  0  0  0  0  0  0  0  0  0  0  0
    7.9508   -2.6838   -1.1347 H   0  0  0  0  0  0  0  0  0  0  0  0
    7.0552   -0.4122   -2.0047 H   0  0  0  0  0  0  0  0  0  0  0  0
    7.0820    0.9835   -0.8886 H   0  0  0  0  0  0  0  0  0  0  0  0
    5.0536    0.0468    0.3077 H   0  0  0  0  0  0  0  0  0  0  0  0
    5.0606   -1.3603   -0.8149 H   0  0  0  0  0  0  0  0  0  0  0  0
    4.6824    0.1795   -2.7633 H   0  0  0  0  0  0  0  0  0  0  0  0
    4.7727    1.5989   -1.6624 H   0  0  0  0  0  0  0  0  0  0  0  0
    2.5552    1.2711   -1.1198 H   0  0  0  0  0  0  0  0  0  0  0  0
    0.4388   -2.2683   -3.0244 H   0  0  0  0  0  0  0  0  0  0  0  0
   -1.9411   -2.3569   -2.6319 H   0  0  0  0  0  0  0  0  0  0  0  0
    0.9012    0.5285    0.2122 H   0  0  0  0  0  0  0  0  0  0  0  0
   -1.7942    1.8117    0.3912 H   0  0  0  0  0  0  0  0  0  0  0  0
   -0.8878    0.9947    1.6844 H   0  0  0  0  0  0  0  0  0  0  0  0
   -2.0173   -1.2658    2.6132 H   0  0  0  0  0  0  0  0  0  0  0  0
   -4.1380   -2.0355    3.6213 H   0  0  0  0  0  0  0  0  0  0  0  0
   -6.2489   -0.8525    3.1485 H   0  0  0  0  0  0  0  0  0  0  0  0
   -4.1176    1.9602    0.6792 H   0  0  0  0  0  0  0  0  0  0  0  0
   -7.4883    0.8362    2.0040 H   0  0  0  0  0  0  0  0  0  0  0  0
   -6.5462    2.3508    2.0856 H   0  0  0  0  0  0  0  0  0  0  0  0
   -7.3285    3.6021    0.2739 H   0  0  0  0  0  0  0  0  0  0  0  0
   -8.7239    2.4460    0.3345 H   0  0  0  0  0  0  0  0  0  0  0  0
   -7.8784    2.8147   -1.2229 H   0  0  0  0  0  0  0  0  0  0  0  0
   -8.3587    0.1731   -0.3874 H   0  0  0  0  0  0  0  0  0  0  0  0
   -6.7933   -0.5878   -0.0370 H   0  0  0  0  0  0  0  0  0  0  0  0
   -7.3002   -0.7224   -2.4330 H   0  0  0  0  0  0  0  0  0  0  0  0
   -7.5107    1.0291   -2.5472 H   0  0  0  0  0  0  0  0  0  0  0  0
   -5.3594    1.0965   -3.2416 H   0  0  0  0  0  0  0  0  0  0  0  0
   -4.8893    0.9599   -1.5398 H   0  0  0  0  0  0  0  0  0  0  0  0
   -5.3352   -1.4975   -3.3884 H   0  0  0  0  0  0  0  0  0  0  0  0
   -3.7801   -0.6274   -3.2884 H   0  0  0  0  0  0  0  0  0  0  0  0
   -3.9373   -2.7075   -1.7879 H   0  0  0  0  0  0  0  0  0  0  0  0
   -5.1902   -1.8862   -0.8594 H   0  0  0  0  0  0  0  0  0  0  0  0
  1  2  1  0
  2  3  1  0
  2  4  1  0
  4  5  2  0
  5  6  1  0
  6  7  2  0
  7  8  1  0
  8  9  1  0
  9 10  1  0
 10 11  1  0
 11 12  1  0
 12 13  1  0
 13 14  2  0
 13 15  1  0
 15 16  2  0
 16 17  1  0
 17 18  2  0
 18 19  1  0
 19 20  2  0
 19 21  1  0
 21 22  1  0
 22 23  2  0
 23 24  1  0
 24 25  2  0
 25 26  1  0
 26 27  2  0
 26 28  1  0
 28 29  1  0
 29 30  1  0
 29 31  1  0
 31 32  1  0
 32 33  1  0
 33 34  1  0
 34 35  1  0
 35 36  1  0
  8  4  1  0
 20 15  1  0
 27 22  1  0
 36 18  1  0
  1 37  1  0
  1 38  1  0
  1 39  1  0
  2 40  1  0
  3 41  1  0
  3 42  1  0
  3 43  1  0
  6 44  1  0
  7 45  1  0
  9 46  1  0
  9 47  1  0
 10 48  1  0
 10 49  1  0
 11 50  1  0
 11 51  1  0
 12 52  1  0
 16 53  1  0
 17 54  1  0
 20 55  1  0
 21 56  1  0
 21 57  1  0
 23 58  1  0
 24 59  1  0
 25 60  1  0
 27 61  1  0
 28 62  1  0
 28 63  1  0
 30 64  1  0
 30 65  1  0
 30 66  1  0
 31 67  1  0
 31 68  1  0
 32 69  1  0
 32 70  1  0
 33 71  1  0
 33 72  1  0
 34 73  1  0
 34 74  1  0
 35 75  1  0
 35 76  1  0
M  END
$$$$
