
     RDKit          3D

 71 75  0  0  0  0  0  0  0  0999 V2000
    4.2166   -0.7956   -1.5924 O   0  0  0  0  0  0  0  0  0  0  0  0
    4.1469    0.1163   -0.7229 C   0  0  0  0  0  0  0  0  0  0  0  0
    5.2378    1.0408   -0.5757 N   0  0  0  0  0  0  0  0  0  0  0  0
    6.4111    1.0098   -1.4463 C   0  0  0  0  0  0  0  0  0  0  0  0
    7.3805   -0.0822   -0.9897 C   0  0  0  0  0  0  0  0  0  0  0  0
    8.5967   -0.1044   -1.8616 C   0  0  0  0  0  0  0  0  0  0  0  0
    8.7575   -0.8526   -3.0063 C   0  0  0  0  0  0  0  0  0  0  0  0
    9.9535   -0.5478   -3.5305 N   0  0  0  0  0  0  0  0  0  0  0  0
   10.4840    0.3768   -2.7074 C   0  0  0  0  0  0  0  0  0  0  0  0
    9.6751    0.6820   -1.6706 N   0  0  0  0  0  0  0  0  0  0  0  0
    2.9473    0.2003    0.1452 C   0  0  0  0  0  0  0  0  0  0  0  0
    2.5576    1.4151    0.7305 C   0  0  0  0  0  0  0  0  0  0  0  0
    1.4242    1.4813    1.5430 C   0  0  0  0  0  0  0  0  0  0  0  0
    0.6477    0.3332    1.7862 C   0  0  0  0  0  0  0  0  0  0  0  0
    1.0428   -0.8953    1.2152 C   0  0  0  0  0  0  0  0  0  0  0  0
    2.1736   -0.9471    0.3842 C   0  0  0  0  0  0  0  0  0  0  0  0
    0.2677   -2.1639    1.4829 C   0  0  0  0  0  0  0  0  0  0  0  0
   -0.7518   -2.4683    0.4104 C   0  0  0  0  0  0  0  0  0  0  0  0
   -0.9701   -3.8002    0.0211 C   0  0  0  0  0  0  0  0  0  0  0  0
   -2.0265   -4.1235   -0.8335 C   0  0  0  0  0  0  0  0  0  0  0  0
   -2.8962   -3.1277   -1.2820 C   0  0  0  0  0  0  0  0  0  0  0  0
   -2.6916   -1.7903   -0.9086 C   0  0  0  0  0  0  0  0  0  0  0  0
   -1.6069   -1.4661   -0.0820 C   0  0  0  0  0  0  0  0  0  0  0  0
   -3.6854   -0.7297   -1.2952 C   0  0  0  0  0  0  0  0  0  0  0  0
   -4.5743   -0.4430   -0.1426 N   0  0  0  0  0  0  0  0  0  0  0  0
   -6.0057   -0.4024   -0.5109 C   0  0  0  0  0  0  0  0  0  0  0  0
   -6.3307    0.7437   -1.4929 C   0  0  0  0  0  0  0  0  0  0  0  0
   -7.8108    0.8596   -1.8281 C   0  0  0  0  0  0  0  0  0  0  0  0
   -7.1517    1.9024   -0.9422 C   0  0  0  0  0  0  0  0  0  0  0  0
   -4.1544    0.7209    0.6779 C   0  0  0  0  0  0  0  0  0  0  0  0
   -3.8052    0.2641    2.0998 C   0  0  0  0  0  0  0  0  0  0  0  0
   -3.5229    1.4654    3.0273 C   0  0  0  0  0  0  0  0  0  0  0  0
   -2.3200    1.2489    3.9654 C   0  0  0  0  0  0  0  0  0  0  0  0
   -0.9711    1.5286    3.2860 C   0  0  0  0  0  0  0  0  0  0  0  0
   -0.5212    0.3812    2.5682 O   0  0  0  0  0  0  0  0  0  0  0  0
    5.2492    1.7108    0.2238 H   0  0  0  0  0  0  0  0  0  0  0  0
    6.0980    0.8386   -2.5000 H   0  0  0  0  0  0  0  0  0  0  0  0
    6.9216    1.9974   -1.3994 H   0  0  0  0  0  0  0  0  0  0  0  0
    6.8812   -1.0746   -1.0270 H   0  0  0  0  0  0  0  0  0  0  0  0
    7.6890    0.1104    0.0610 H   0  0  0  0  0  0  0  0  0  0  0  0
    8.0550   -1.5581   -3.4311 H   0  0  0  0  0  0  0  0  0  0  0  0
   10.3800   -0.9387   -4.3996 H   0  0  0  0  0  0  0  0  0  0  0  0
   11.4523    0.8332   -2.8640 H   0  0  0  0  0  0  0  0  0  0  0  0
    3.1073    2.3272    0.5411 H   0  0  0  0  0  0  0  0  0  0  0  0
    1.1562    2.4381    1.9683 H   0  0  0  0  0  0  0  0  0  0  0  0
    2.4619   -1.8938   -0.0578 H   0  0  0  0  0  0  0  0  0  0  0  0
    0.9883   -3.0061    1.5779 H   0  0  0  0  0  0  0  0  0  0  0  0
   -0.2561   -2.1038    2.4607 H   0  0  0  0  0  0  0  0  0  0  0  0
   -0.3404   -4.5948    0.4020 H   0  0  0  0  0  0  0  0  0  0  0  0
   -2.1925   -5.1540   -1.1202 H   0  0  0  0  0  0  0  0  0  0  0  0
   -3.7357   -3.4026   -1.9084 H   0  0  0  0  0  0  0  0  0  0  0  0
   -1.4605   -0.4365    0.2087 H   0  0  0  0  0  0  0  0  0  0  0  0
   -4.2634   -1.0904   -2.1761 H   0  0  0  0  0  0  0  0  0  0  0  0
   -3.1538    0.1795   -1.6528 H   0  0  0  0  0  0  0  0  0  0  0  0
   -6.2855   -1.3676   -0.9870 H   0  0  0  0  0  0  0  0  0  0  0  0
   -6.6199   -0.3337    0.4148 H   0  0  0  0  0  0  0  0  0  0  0  0
   -5.6619    0.9694   -2.3504 H   0  0  0  0  0  0  0  0  0  0  0  0
   -8.0257    1.2169   -2.8573 H   0  0  0  0  0  0  0  0  0  0  0  0
   -8.4942    0.1751   -1.2806 H   0  0  0  0  0  0  0  0  0  0  0  0
   -6.9696    2.8735   -1.4486 H   0  0  0  0  0  0  0  0  0  0  0  0
   -7.4469    1.8368    0.1267 H   0  0  0  0  0  0  0  0  0  0  0  0
   -3.2688    1.2402    0.2508 H   0  0  0  0  0  0  0  0  0  0  0  0
   -4.9582    1.4859    0.7454 H   0  0  0  0  0  0  0  0  0  0  0  0
   -2.9367   -0.4223    2.0621 H   0  0  0  0  0  0  0  0  0  0  0  0
   -4.6559   -0.3204    2.5140 H   0  0  0  0  0  0  0  0  0  0  0  0
   -3.3722    2.4025    2.4473 H   0  0  0  0  0  0  0  0  0  0  0  0
   -4.4267    1.6377    3.6521 H   0  0  0  0  0  0  0  0  0  0  0  0
   -2.3337    0.2241    4.3970 H   0  0  0  0  0  0  0  0  0  0  0  0
   -2.4236    1.9607    4.8132 H   0  0  0  0  0  0  0  0  0  0  0  0
   -1.0624    2.4009    2.6036 H   0  0  0  0  0  0  0  0  0  0  0  0
   -0.2200    1.7740    4.0681 H   0  0  0  0  0  0  0  0  0  0  0  0
  1  2  2  0
  2  3  1  0
  3  4  1  0
  4  5  1  0
  5  6  1  0
  6  7  2  0
  7  8  1  0
  8  9  1  0
  9 10  2  0
  2 11  1  0
 11 12  2  0
 12 13  1  0
 13 14  2  0
 14 15  1  0
 15 16  2  0
 15 17  1  0
 17 18  1  0
 18 19  2  0
 19 20  1  0
 20 21  2  0
 21 22  1  0
 22 23  2  0
 22 24  1  0
 24 25  1  0
 25 26  1  0
 26 27  1  0
 27 28  1  0
 28 29  1  0
 25 30  1  0
 30 31  1  0
 31 32  1  0
 32 33  1  0
 33 34  1  0
 34 35  1  0
 10  6  1  0
 16 11  1  0
 23 18  1  0
 29 27  1  0
 35 14  1  0
  3 36  1  0
  4 37  1  0
  4 38  1  0
  5 39  1  0
  5 40  1  0
  7 41  1  0
  8 42  1  0
  9 43  1  0
 12 44  1  0
 13 45  1  0
 16 46  1  0
 17 47  1  0
 17 48  1  0
 19 49  1  0
 20 50  1  0
 21 51  1  0
 23 52  1  0
 24 53  1  0
 24 54  1  0
 26 55  1  0
 26 56  1  0
 27 57  1  0
 28 58  1  0
 28 59  1  0
 29 60  1  0
 29 61  1  0
 30 62  1  0
 30 63  1  0
 31 64  1  0
 31 65  1  0
 32 66  1  0
 32 67  1  0
 33 68  1  0
 33 69  1  0
 34 70  1  0
 34 71  1  0
M  END
$$$$
