
     RDKit          3D

 79 83  0  0  0  0  0  0  0  0999 V2000
   -4.1114   -0.0903    1.8868 O   0  0  0  0  0  0  0  0  0  0  0  0
   -4.2090    0.8756    1.0767 C   0  0  0  0  0  0  0  0  0  0  0  0
   -5.0971    2.0109    1.4181 C   0  0  0  0  0  0  0  0  0  0  0  0
   -6.2931    1.7884    2.1169 C   0  0  0  0  0  0  0  0  0  0  0  0
   -7.1223    2.8642    2.4489 C   0  0  0  0  0  0  0  0  0  0  0  0
   -6.7410    4.1590    2.0930 C   0  0  0  0  0  0  0  0  0  0  0  0
   -5.5620    4.3659    1.4503 N   0  0  0  0  0  0  0  0  0  0  0  0
   -4.7386    3.3354    1.1131 C   0  0  0  0  0  0  0  0  0  0  0  0
   -3.4428    0.8456   -0.1449 N   0  0  0  0  0  0  0  0  0  0  0  0
   -3.9956    1.3561   -1.4234 C   0  0  0  0  0  0  0  0  0  0  0  0
   -4.7949    0.3132   -2.2508 C   0  0  0  0  0  0  0  0  0  0  0  0
   -5.9605   -0.3706   -1.4840 C   0  0  0  0  0  0  0  0  0  0  0  0
   -6.2284   -1.8346   -1.9203 C   0  0  0  0  0  0  0  0  0  0  0  0
   -5.5249   -2.8989   -1.0264 C   0  0  0  0  0  0  0  0  0  0  0  0
   -4.3612   -3.6254   -1.7420 C   0  0  0  0  0  0  0  0  0  0  0  0
   -3.2166   -4.0756   -0.7887 C   0  0  0  0  0  0  0  0  0  0  0  0
   -2.5041   -2.9939   -0.0644 N   0  0  0  0  0  0  0  0  0  0  0  0
   -2.3114   -1.8048   -0.8997 C   0  0  0  0  0  0  0  0  0  0  0  0
   -1.5040   -0.7392   -0.2183 C   0  0  0  0  0  0  0  0  0  0  0  0
   -0.1655   -1.0070    0.1075 C   0  0  0  0  0  0  0  0  0  0  0  0
    0.6584   -0.0114    0.6530 C   0  0  0  0  0  0  0  0  0  0  0  0
    2.0164   -0.3391    1.0085 N   0  0  0  0  0  0  0  0  0  0  0  0
    3.0536    0.6559    1.3149 C   0  0  0  0  0  0  0  0  0  0  0  0
    4.3024   -0.0234    1.9306 C   0  0  0  0  0  0  0  0  0  0  0  0
    5.3355   -0.3806    0.8524 C   0  0  0  0  0  0  0  0  0  0  0  0
    5.8153    0.8138    0.1029 N   0  0  0  0  0  0  0  0  0  0  0  0
    7.1421    1.2626    0.5707 C   0  0  0  0  0  0  0  0  0  0  0  0
    8.2201    0.3761    0.0047 C   0  0  0  0  0  0  0  0  0  0  0  0
    8.4431    0.3447   -1.3828 C   0  0  0  0  0  0  0  0  0  0  0  0
    9.4288   -0.4881   -1.9212 C   0  0  0  0  0  0  0  0  0  0  0  0
   10.2034   -1.2878   -1.0769 C   0  0  0  0  0  0  0  0  0  0  0  0
    9.9941   -1.2565    0.3058 C   0  0  0  0  0  0  0  0  0  0  0  0
    9.0033   -0.4299    0.8467 C   0  0  0  0  0  0  0  0  0  0  0  0
    4.8582    1.9443    0.0825 C   0  0  0  0  0  0  0  0  0  0  0  0
    3.4067    1.4564    0.0415 C   0  0  0  0  0  0  0  0  0  0  0  0
    0.1275    1.2745    0.8548 C   0  0  0  0  0  0  0  0  0  0  0  0
   -1.2018    1.5511    0.5350 C   0  0  0  0  0  0  0  0  0  0  0  0
   -2.0342    0.5586   -0.0008 C   0  0  0  0  0  0  0  0  0  0  0  0
   -6.5884    0.7827    2.4006 H   0  0  0  0  0  0  0  0  0  0  0  0
   -8.0492    2.6950    2.9791 H   0  0  0  0  0  0  0  0  0  0  0  0
   -7.3779    5.0002    2.3428 H   0  0  0  0  0  0  0  0  0  0  0  0
   -3.8052    3.5519    0.6112 H   0  0  0  0  0  0  0  0  0  0  0  0
   -4.6620    2.2203   -1.2390 H   0  0  0  0  0  0  0  0  0  0  0  0
   -3.1647    1.7389   -2.0552 H   0  0  0  0  0  0  0  0  0  0  0  0
   -5.2388    0.8531   -3.1161 H   0  0  0  0  0  0  0  0  0  0  0  0
   -4.1120   -0.4144   -2.7317 H   0  0  0  0  0  0  0  0  0  0  0  0
   -6.8859    0.2311   -1.6630 H   0  0  0  0  0  0  0  0  0  0  0  0
   -5.8133   -0.3460   -0.3913 H   0  0  0  0  0  0  0  0  0  0  0  0
   -7.3265   -2.0012   -1.8328 H   0  0  0  0  0  0  0  0  0  0  0  0
   -5.9974   -1.9785   -3.0011 H   0  0  0  0  0  0  0  0  0  0  0  0
   -6.2698   -3.6724   -0.7322 H   0  0  0  0  0  0  0  0  0  0  0  0
   -5.1907   -2.4498   -0.0691 H   0  0  0  0  0  0  0  0  0  0  0  0
   -4.7701   -4.5320   -2.2419 H   0  0  0  0  0  0  0  0  0  0  0  0
   -3.9433   -3.0088   -2.5663 H   0  0  0  0  0  0  0  0  0  0  0  0
   -2.4710   -4.6381   -1.3917 H   0  0  0  0  0  0  0  0  0  0  0  0
   -3.6319   -4.7933   -0.0481 H   0  0  0  0  0  0  0  0  0  0  0  0
   -3.0749   -2.7224    0.7726 H   0  0  0  0  0  0  0  0  0  0  0  0
   -1.8175   -2.0743   -1.8629 H   0  0  0  0  0  0  0  0  0  0  0  0
   -3.2972   -1.3926   -1.0938 H   0  0  0  0  0  0  0  0  0  0  0  0
    0.2388   -1.9958   -0.0715 H   0  0  0  0  0  0  0  0  0  0  0  0
    2.2879   -1.3477    0.9995 H   0  0  0  0  0  0  0  0  0  0  0  0
    2.6662    1.3526    2.0893 H   0  0  0  0  0  0  0  0  0  0  0  0
    4.7818    0.6699    2.6564 H   0  0  0  0  0  0  0  0  0  0  0  0
    4.0176   -0.9325    2.5030 H   0  0  0  0  0  0  0  0  0  0  0  0
    6.1745   -0.9406    1.3238 H   0  0  0  0  0  0  0  0  0  0  0  0
    4.8701   -1.0851    0.1310 H   0  0  0  0  0  0  0  0  0  0  0  0
    7.1799    1.2909    1.6849 H   0  0  0  0  0  0  0  0  0  0  0  0
    7.3528    2.2979    0.2193 H   0  0  0  0  0  0  0  0  0  0  0  0
    7.8492    0.9639   -2.0434 H   0  0  0  0  0  0  0  0  0  0  0  0
    9.5908   -0.5120   -2.9918 H   0  0  0  0  0  0  0  0  0  0  0  0
   10.9687   -1.9287   -1.4939 H   0  0  0  0  0  0  0  0  0  0  0  0
   10.6002   -1.8732    0.9579 H   0  0  0  0  0  0  0  0  0  0  0  0
    8.8482   -0.4218    1.9190 H   0  0  0  0  0  0  0  0  0  0  0  0
    4.9908    2.5994    0.9747 H   0  0  0  0  0  0  0  0  0  0  0  0
    5.0487    2.5612   -0.8203 H   0  0  0  0  0  0  0  0  0  0  0  0
    3.2791    0.8181   -0.8581 H   0  0  0  0  0  0  0  0  0  0  0  0
    2.7285    2.3285   -0.0623 H   0  0  0  0  0  0  0  0  0  0  0  0
    0.7190    2.0683    1.2858 H   0  0  0  0  0  0  0  0  0  0  0  0
   -1.5936    2.5415    0.7305 H   0  0  0  0  0  0  0  0  0  0  0  0
  1  2  2  0
  2  3  1  0
  3  4  2  0
  4  5  1  0
  5  6  2  0
  6  7  1  0
  7  8  2  0
  2  9  1  0
  9 10  1  0
 10 11  1  0
 11 12  1  0
 12 13  1  0
 13 14  1  0
 14 15  1  0
 15 16  1  0
 16 17  1  0
 17 18  1  0
 18 19  1  0
 19 20  2  0
 20 21  1  0
 21 22  1  0
 22 23  1  0
 23 24  1  0
 24 25  1  0
 25 26  1  0
 26 27  1  0
 27 28  1  0
 28 29  2  0
 29 30  1  0
 30 31  2  0
 31 32  1  0
 32 33  2  0
 26 34  1  0
 34 35  1  0
 21 36  2  0
 36 37  1  0
 37 38  2  0
  8  3  1  0
 38  9  1  0
 38 19  1  0
 35 23  1  0
 33 28  1  0
  4 39  1  0
  5 40  1  0
  6 41  1  0
  8 42  1  0
 10 43  1  0
 10 44  1  0
 11 45  1  0
 11 46  1  0
 12 47  1  0
 12 48  1  0
 13 49  1  0
 13 50  1  0
 14 51  1  0
 14 52  1  0
 15 53  1  0
 15 54  1  0
 16 55  1  0
 16 56  1  0
 17 57  1  0
 18 58  1  0
 18 59  1  0
 20 60  1  0
 22 61  1  0
 23 62  1  0
 24 63  1  0
 24 64  1  0
 25 65  1  0
 25 66  1  0
 27 67  1  0
 27 68  1  0
 29 69  1  0
 30 70  1  0
 31 71  1  0
 32 72  1  0
 33 73  1  0
 34 74  1  0
 34 75  1  0
 35 76  1  0
 35 77  1  0
 36 78  1  0
 37 79  1  0
M  END
$$$$
