
     RDKit          3D

 75 77  0  0  0  0  0  0  0  0999 V2000
   -1.6473   -3.4955    2.7117 C   0  0  0  0  0  0  0  0  0  0  0  0
   -1.5467   -2.2898    1.8210 C   0  0  0  0  0  0  0  0  0  0  0  0
   -2.0611   -1.2099    2.2113 O   0  0  0  0  0  0  0  0  0  0  0  0
   -0.8810   -2.3413    0.5383 N   0  0  0  0  0  0  0  0  0  0  0  0
   -0.9312   -3.5595   -0.2920 C   0  0  0  0  0  0  0  0  0  0  0  0
   -2.3704   -4.0626   -0.5809 C   0  0  0  0  0  0  0  0  0  0  0  0
   -3.0519   -3.3834   -1.7821 C   0  0  0  0  0  0  0  0  0  0  0  0
   -3.8174   -2.0962   -1.4030 C   0  0  0  0  0  0  0  0  0  0  0  0
   -3.9281   -1.1239   -2.6023 C   0  0  0  0  0  0  0  0  0  0  0  0
   -4.0163    0.3626   -2.1885 C   0  0  0  0  0  0  0  0  0  0  0  0
   -2.6974    1.1845   -2.3450 C   0  0  0  0  0  0  0  0  0  0  0  0
   -1.6156    0.9764   -1.3330 N   0  0  0  0  0  4  0  0  0  0  0  0
   -2.0818    1.1004    0.0766 C   0  0  0  0  0  0  0  0  0  0  0  0
   -2.3293    2.5685    0.4898 C   0  0  0  0  0  0  0  0  0  0  0  0
   -3.0724    2.6707    1.8408 C   0  0  0  0  0  0  0  0  0  0  0  0
   -4.5912    2.5279    1.6523 C   0  0  0  0  0  0  0  0  0  0  0  0
   -2.7532    4.0092    2.5197 C   0  0  0  0  0  0  0  0  0  0  0  0
   -0.8522   -0.2685   -1.6137 C   0  0  0  0  0  0  0  0  0  0  0  0
    0.3094   -0.4990   -0.6736 C   0  0  0  0  0  0  0  0  0  0  0  0
    1.4524    0.3040   -0.8136 C   0  0  0  0  0  0  0  0  0  0  0  0
    2.5566    0.1465    0.0377 C   0  0  0  0  0  0  0  0  0  0  0  0
    3.7616    0.9839   -0.1649 C   0  0  0  0  0  0  0  0  0  0  0  0
    3.6266    2.1503   -0.6267 O   0  0  0  0  0  0  0  0  0  0  0  0
    5.0748    0.4847    0.1392 N   0  0  0  0  0  0  0  0  0  0  0  0
    6.2846    1.1739   -0.2261 C   0  0  0  0  0  0  0  0  0  0  0  0
    6.4195    1.7512   -1.5034 C   0  0  0  0  0  0  0  0  0  0  0  0
    7.6264    2.3422   -1.8721 C   0  0  0  0  0  0  0  0  0  0  0  0
    8.6736    2.3472   -1.0075 N   0  0  0  0  0  0  0  0  0  0  0  0
    8.5793    1.7978    0.2340 C   0  0  0  0  0  0  0  0  0  0  0  0
    7.3833    1.2019    0.6591 C   0  0  0  0  0  0  0  0  0  0  0  0
    7.2981    0.5879    2.0324 C   0  0  0  0  0  0  0  0  0  0  0  0
    2.4952   -0.8078    1.0620 C   0  0  0  0  0  0  0  0  0  0  0  0
    1.3602   -1.6051    1.2202 C   0  0  0  0  0  0  0  0  0  0  0  0
    0.2583   -1.4687    0.3611 C   0  0  0  0  0  0  0  0  0  0  0  0
   -2.6515   -3.9593    2.6192 H   0  0  0  0  0  0  0  0  0  0  0  0
   -0.8674   -4.2443    2.4676 H   0  0  0  0  0  0  0  0  0  0  0  0
   -1.5052   -3.1850    3.7659 H   0  0  0  0  0  0  0  0  0  0  0  0
   -0.3992   -3.3965   -1.2557 H   0  0  0  0  0  0  0  0  0  0  0  0
   -0.3639   -4.3645    0.2199 H   0  0  0  0  0  0  0  0  0  0  0  0
   -3.0212   -4.0026    0.3108 H   0  0  0  0  0  0  0  0  0  0  0  0
   -2.2863   -5.1416   -0.8256 H   0  0  0  0  0  0  0  0  0  0  0  0
   -2.2930   -3.1997   -2.5666 H   0  0  0  0  0  0  0  0  0  0  0  0
   -3.7836   -4.0892   -2.2289 H   0  0  0  0  0  0  0  0  0  0  0  0
   -3.3386   -1.6082   -0.5330 H   0  0  0  0  0  0  0  0  0  0  0  0
   -4.8398   -2.3683   -1.0614 H   0  0  0  0  0  0  0  0  0  0  0  0
   -3.0971   -1.2474   -3.3231 H   0  0  0  0  0  0  0  0  0  0  0  0
   -4.8496   -1.3978   -3.1583 H   0  0  0  0  0  0  0  0  0  0  0  0
   -4.7387    0.8370   -2.8954 H   0  0  0  0  0  0  0  0  0  0  0  0
   -4.5019    0.4877   -1.1977 H   0  0  0  0  0  0  0  0  0  0  0  0
   -2.9841    2.2580   -2.3484 H   0  0  0  0  0  0  0  0  0  0  0  0
   -2.2982    1.0161   -3.3702 H   0  0  0  0  0  0  0  0  0  0  0  0
   -0.9276    1.7536   -1.4893 H   0  0  0  0  0  0  0  0  0  0  0  0
   -2.9685    0.4763    0.2774 H   0  0  0  0  0  0  0  0  0  0  0  0
   -1.3050    0.7336    0.7779 H   0  0  0  0  0  0  0  0  0  0  0  0
   -1.3310    3.0586    0.5716 H   0  0  0  0  0  0  0  0  0  0  0  0
   -2.8901    3.1229   -0.2883 H   0  0  0  0  0  0  0  0  0  0  0  0
   -2.7239    1.8643    2.5272 H   0  0  0  0  0  0  0  0  0  0  0  0
   -4.9606    3.3096    0.9505 H   0  0  0  0  0  0  0  0  0  0  0  0
   -4.8463    1.5301    1.2462 H   0  0  0  0  0  0  0  0  0  0  0  0
   -5.1217    2.6507    2.6248 H   0  0  0  0  0  0  0  0  0  0  0  0
   -2.9614    4.8619    1.8362 H   0  0  0  0  0  0  0  0  0  0  0  0
   -1.6791    4.0415    2.8067 H   0  0  0  0  0  0  0  0  0  0  0  0
   -3.3592    4.1319    3.4424 H   0  0  0  0  0  0  0  0  0  0  0  0
   -1.4944   -1.1417   -1.5985 H   0  0  0  0  0  0  0  0  0  0  0  0
   -0.4424   -0.2247   -2.6479 H   0  0  0  0  0  0  0  0  0  0  0  0
    1.4852    1.0454   -1.6047 H   0  0  0  0  0  0  0  0  0  0  0  0
    5.1701   -0.4399    0.6183 H   0  0  0  0  0  0  0  0  0  0  0  0
    5.6083    1.7202   -2.2199 H   0  0  0  0  0  0  0  0  0  0  0  0
    7.7366    2.7872   -2.8529 H   0  0  0  0  0  0  0  0  0  0  0  0
    9.4385    1.8264    0.8923 H   0  0  0  0  0  0  0  0  0  0  0  0
    8.0933    0.9863    2.6987 H   0  0  0  0  0  0  0  0  0  0  0  0
    7.4117   -0.5130    1.9584 H   0  0  0  0  0  0  0  0  0  0  0  0
    6.3194    0.8331    2.5012 H   0  0  0  0  0  0  0  0  0  0  0  0
    3.3123   -0.9275    1.7600 H   0  0  0  0  0  0  0  0  0  0  0  0
    1.3395   -2.3415    2.0136 H   0  0  0  0  0  0  0  0  0  0  0  0
  1  2  1  0
  2  3  2  0
  2  4  1  0
  4  5  1  0
  5  6  1  0
  6  7  1  0
  7  8  1  0
  8  9  1  0
  9 10  1  0
 10 11  1  0
 11 12  1  0
 12 13  1  0
 13 14  1  0
 14 15  1  0
 15 16  1  0
 15 17  1  0
 12 18  1  0
 18 19  1  0
 19 20  2  0
 20 21  1  0
 21 22  1  0
 22 23  2  0
 22 24  1  0
 24 25  1  0
 25 26  2  0
 26 27  1  0
 27 28  2  0
 28 29  1  0
 29 30  2  0
 30 31  1  0
 21 32  2  0
 32 33  1  0
 33 34  2  0
 34  4  1  0
 34 19  1  0
 30 25  1  0
  1 35  1  0
  1 36  1  0
  1 37  1  0
  5 38  1  0
  5 39  1  0
  6 40  1  0
  6 41  1  0
  7 42  1  0
  7 43  1  0
  8 44  1  0
  8 45  1  0
  9 46  1  0
  9 47  1  0
 10 48  1  0
 10 49  1  0
 11 50  1  0
 11 51  1  0
 12 52  1  0
 13 53  1  0
 13 54  1  0
 14 55  1  0
 14 56  1  0
 15 57  1  0
 16 58  1  0
 16 59  1  0
 16 60  1  0
 17 61  1  0
 17 62  1  0
 17 63  1  0
 18 64  1  0
 18 65  1  0
 20 66  1  0
 24 67  1  0
 26 68  1  0
 27 69  1  0
 29 70  1  0
 31 71  1  0
 31 72  1  0
 31 73  1  0
 32 74  1  0
 33 75  1  0
M  CHG  1  12   1
M  END
$$$$
