
     RDKit          3D

 82 85  0  0  0  0  0  0  0  0999 V2000
    0.3766   -1.5819   -3.8925 C   0  0  0  0  0  0  0  0  0  0  0  0
   -0.9868   -2.1251   -3.5689 C   0  0  0  0  0  0  0  0  0  0  0  0
   -1.7223   -2.5169   -4.5181 O   0  0  0  0  0  0  0  0  0  0  0  0
   -1.4678   -2.1911   -2.2049 N   0  0  0  0  0  0  0  0  0  0  0  0
   -2.8991   -2.4472   -1.9666 C   0  0  0  0  0  0  0  0  0  0  0  0
   -3.1910   -3.0085   -0.5626 C   0  0  0  0  0  0  0  0  0  0  0  0
   -4.7063   -3.1109   -0.2805 C   0  0  0  0  0  0  0  0  0  0  0  0
   -5.2980   -1.8340    0.3570 C   0  0  0  0  0  0  0  0  0  0  0  0
   -5.8400   -0.8123   -0.6747 C   0  0  0  0  0  0  0  0  0  0  0  0
   -5.4929    0.6525   -0.3304 C   0  0  0  0  0  0  0  0  0  0  0  0
   -4.1284    1.1253   -0.8806 C   0  0  0  0  0  0  0  0  0  0  0  0
   -2.9725    0.4415   -0.2529 N   0  0  0  0  0  0  0  0  0  0  0  0
   -2.7629    0.8217    1.1741 C   0  0  0  0  0  0  0  0  0  0  0  0
   -2.4546    2.3231    1.4399 C   0  0  0  0  0  0  0  0  0  0  0  0
   -3.6463    3.1196    2.0300 C   0  0  0  0  0  0  0  0  0  0  0  0
   -4.0096    2.6564    3.4528 C   0  0  0  0  0  0  0  0  0  0  0  0
   -3.3101    4.6172    2.0519 C   0  0  0  0  0  0  0  0  0  0  0  0
   -1.7495    0.5679   -1.0940 C   0  0  0  0  0  0  0  0  0  0  0  0
   -0.6670   -0.3980   -0.6622 C   0  0  0  0  0  0  0  0  0  0  0  0
    0.3045    0.0382    0.2562 C   0  0  0  0  0  0  0  0  0  0  0  0
    1.2887   -0.8314    0.7403 C   0  0  0  0  0  0  0  0  0  0  0  0
    2.2607   -0.3277    1.7321 C   0  0  0  0  0  0  0  0  0  0  0  0
    1.8135    0.2130    2.7818 O   0  0  0  0  0  0  0  0  0  0  0  0
    3.6758   -0.2820    1.4585 N   0  0  0  0  0  0  0  0  0  0  0  0
    4.4742    0.8363    1.9791 C   0  0  0  0  0  0  0  0  0  0  0  0
    5.4690    1.3137    0.9153 C   0  0  0  0  0  0  0  0  0  0  0  0
    6.2028    0.1918    0.3110 N   0  0  0  0  0  0  0  0  0  0  0  0
    7.3275    0.4685   -0.5483 C   0  0  0  0  0  0  0  0  0  0  0  0
    7.5478    1.7342   -1.0025 N   0  0  0  0  0  0  0  0  0  0  0  0
    8.6049    2.0183   -1.8091 C   0  0  0  0  0  0  0  0  0  0  0  0
    9.4873    1.0040   -2.1833 C   0  0  0  0  0  0  0  0  0  0  0  0
    9.2548   -0.2844   -1.7067 C   0  0  0  0  0  0  0  0  0  0  0  0
    8.1867   -0.5273   -0.9038 N   0  0  0  0  0  0  0  0  0  0  0  0
    5.8655   -1.1880    0.6846 C   0  0  0  0  0  0  0  0  0  0  0  0
    4.3441   -1.3743    0.7303 C   0  0  0  0  0  0  0  0  0  0  0  0
    1.2876   -2.1667    0.3186 C   0  0  0  0  0  0  0  0  0  0  0  0
    0.3605   -2.6030   -0.6297 C   0  0  0  0  0  0  0  0  0  0  0  0
   -0.6089   -1.7286   -1.1420 C   0  0  0  0  0  0  0  0  0  0  0  0
    0.4663   -0.5426   -3.5151 H   0  0  0  0  0  0  0  0  0  0  0  0
    1.1574   -2.2124   -3.4171 H   0  0  0  0  0  0  0  0  0  0  0  0
    0.5431   -1.5753   -4.9913 H   0  0  0  0  0  0  0  0  0  0  0  0
   -3.4512   -1.5107   -2.1467 H   0  0  0  0  0  0  0  0  0  0  0  0
   -3.2723   -3.1965   -2.6954 H   0  0  0  0  0  0  0  0  0  0  0  0
   -2.7507   -4.0293   -0.5096 H   0  0  0  0  0  0  0  0  0  0  0  0
   -2.6959   -2.4085    0.2284 H   0  0  0  0  0  0  0  0  0  0  0  0
   -4.8450   -3.9409    0.4498 H   0  0  0  0  0  0  0  0  0  0  0  0
   -5.2741   -3.3989   -1.1960 H   0  0  0  0  0  0  0  0  0  0  0  0
   -6.1429   -2.1392    1.0135 H   0  0  0  0  0  0  0  0  0  0  0  0
   -4.5570   -1.3826    1.0425 H   0  0  0  0  0  0  0  0  0  0  0  0
   -5.5308   -1.0458   -1.7112 H   0  0  0  0  0  0  0  0  0  0  0  0
   -6.9481   -0.9040   -0.6840 H   0  0  0  0  0  0  0  0  0  0  0  0
   -6.2637    1.2924   -0.8109 H   0  0  0  0  0  0  0  0  0  0  0  0
   -5.5860    0.8376    0.7594 H   0  0  0  0  0  0  0  0  0  0  0  0
   -4.1466    0.9365   -1.9765 H   0  0  0  0  0  0  0  0  0  0  0  0
   -4.0402    2.2252   -0.7700 H   0  0  0  0  0  0  0  0  0  0  0  0
   -3.6274    0.4944    1.7738 H   0  0  0  0  0  0  0  0  0  0  0  0
   -1.9402    0.2101    1.5967 H   0  0  0  0  0  0  0  0  0  0  0  0
   -2.1223    2.8238    0.5121 H   0  0  0  0  0  0  0  0  0  0  0  0
   -1.5957    2.3883    2.1458 H   0  0  0  0  0  0  0  0  0  0  0  0
   -4.5377    2.9881    1.3775 H   0  0  0  0  0  0  0  0  0  0  0  0
   -3.1037    2.6145    4.1009 H   0  0  0  0  0  0  0  0  0  0  0  0
   -4.4997    1.6581    3.4369 H   0  0  0  0  0  0  0  0  0  0  0  0
   -4.7378    3.3589    3.9111 H   0  0  0  0  0  0  0  0  0  0  0  0
   -2.4793    4.8203    2.7671 H   0  0  0  0  0  0  0  0  0  0  0  0
   -4.2006    5.2042    2.3682 H   0  0  0  0  0  0  0  0  0  0  0  0
   -3.0108    4.9679    1.0397 H   0  0  0  0  0  0  0  0  0  0  0  0
   -1.9860    0.3610   -2.1602 H   0  0  0  0  0  0  0  0  0  0  0  0
   -1.3603    1.6063   -1.0973 H   0  0  0  0  0  0  0  0  0  0  0  0
    0.2851    1.0626    0.6031 H   0  0  0  0  0  0  0  0  0  0  0  0
    3.8268    1.6950    2.2662 H   0  0  0  0  0  0  0  0  0  0  0  0
    5.0231    0.5022    2.8852 H   0  0  0  0  0  0  0  0  0  0  0  0
    6.1838    2.0164    1.3952 H   0  0  0  0  0  0  0  0  0  0  0  0
    4.9160    1.8575    0.1196 H   0  0  0  0  0  0  0  0  0  0  0  0
    8.7629    3.0309   -2.1587 H   0  0  0  0  0  0  0  0  0  0  0  0
   10.3338    1.2165   -2.8221 H   0  0  0  0  0  0  0  0  0  0  0  0
    9.9236   -1.0930   -1.9722 H   0  0  0  0  0  0  0  0  0  0  0  0
    6.2863   -1.9239   -0.0341 H   0  0  0  0  0  0  0  0  0  0  0  0
    6.2963   -1.4041    1.6854 H   0  0  0  0  0  0  0  0  0  0  0  0
    4.1340   -2.3433    1.2338 H   0  0  0  0  0  0  0  0  0  0  0  0
    3.9608   -1.4128   -0.3127 H   0  0  0  0  0  0  0  0  0  0  0  0
    1.9891   -2.8809    0.7259 H   0  0  0  0  0  0  0  0  0  0  0  0
    0.3990   -3.6275   -0.9746 H   0  0  0  0  0  0  0  0  0  0  0  0
  1  2  1  0
  2  3  2  0
  2  4  1  0
  4  5  1  0
  5  6  1  0
  6  7  1  0
  7  8  1  0
  8  9  1  0
  9 10  1  0
 10 11  1  0
 11 12  1  0
 12 13  1  0
 13 14  1  0
 14 15  1  0
 15 16  1  0
 15 17  1  0
 12 18  1  0
 18 19  1  0
 19 20  2  0
 20 21  1  0
 21 22  1  0
 22 23  2  0
 22 24  1  0
 24 25  1  0
 25 26  1  0
 26 27  1  0
 27 28  1  0
 28 29  2  0
 29 30  1  0
 30 31  2  0
 31 32  1  0
 32 33  2  0
 27 34  1  0
 34 35  1  0
 21 36  2  0
 36 37  1  0
 37 38  2  0
 38  4  1  0
 38 19  1  0
 35 24  1  0
 33 28  1  0
  1 39  1  0
  1 40  1  0
  1 41  1  0
  5 42  1  0
  5 43  1  0
  6 44  1  0
  6 45  1  0
  7 46  1  0
  7 47  1  0
  8 48  1  0
  8 49  1  0
  9 50  1  0
  9 51  1  0
 10 52  1  0
 10 53  1  0
 11 54  1  0
 11 55  1  0
 13 56  1  0
 13 57  1  0
 14 58  1  0
 14 59  1  0
 15 60  1  0
 16 61  1  0
 16 62  1  0
 16 63  1  0
 17 64  1  0
 17 65  1  0
 17 66  1  0
 18 67  1  0
 18 68  1  0
 20 69  1  0
 25 70  1  0
 25 71  1  0
 26 72  1  0
 26 73  1  0
 30 74  1  0
 31 75  1  0
 32 76  1  0
 34 77  1  0
 34 78  1  0
 35 79  1  0
 35 80  1  0
 36 81  1  0
 37 82  1  0
M  END
$$$$
