
     RDKit          3D

 80 83  0  0  0  0  0  0  0  0999 V2000
  -10.4876    1.3392   -1.2997 C   0  0  0  0  0  0  0  0  0  0  0  0
   -9.1188    0.8514   -0.8454 C   0  0  0  0  0  0  0  0  0  0  0  0
   -8.1989    0.9472   -1.9293 O   0  0  0  0  0  0  0  0  0  0  0  0
   -6.8323    0.6405   -1.8405 C   0  0  0  0  0  0  0  0  0  0  0  0
   -6.0263    0.8784   -2.9598 C   0  0  0  0  0  0  0  0  0  0  0  0
   -4.6548    0.6094   -2.9173 C   0  0  0  0  0  0  0  0  0  0  0  0
   -4.0761    0.1004   -1.7528 C   0  0  0  0  0  0  0  0  0  0  0  0
   -4.8636   -0.1418   -0.6145 C   0  0  0  0  0  0  0  0  0  0  0  0
   -4.2644   -0.7020    0.6209 C   0  0  0  0  0  0  0  0  0  0  0  0
   -4.9531   -1.4934    1.3237 O   0  0  0  0  0  0  0  0  0  0  0  0
   -2.9321   -0.3403    1.0553 N   0  0  0  0  0  0  0  0  0  0  0  0
   -2.6231    1.1150    1.0526 C   0  0  0  0  0  0  0  0  0  0  0  0
   -1.3222    1.5545    1.7641 C   0  0  0  0  0  0  0  0  0  0  0  0
   -0.0686    1.3128    0.8985 C   0  0  0  0  0  0  0  0  0  0  0  0
    1.1550    0.9192    1.7450 C   0  0  0  0  0  0  0  0  0  0  0  0
    2.4999    0.7351    0.9526 C   0  0  0  0  0  0  0  0  0  0  0  0
    3.4057   -0.2365    1.7576 C   0  0  0  0  0  0  0  0  0  0  0  0
    4.8232   -0.3020    1.1831 C   0  0  0  0  0  0  0  0  0  0  0  0
    5.4427    1.0339    1.2569 N   0  0  0  0  0  0  0  0  0  0  0  0
    6.8909    1.0145    0.9519 C   0  0  0  0  0  0  0  0  0  0  0  0
    7.2164    0.5836   -0.4636 C   0  0  0  0  0  0  0  0  0  0  0  0
    7.4205   -0.7711   -0.7667 C   0  0  0  0  0  0  0  0  0  0  0  0
    7.7207   -1.1468   -2.0777 C   0  0  0  0  0  0  0  0  0  0  0  0
    7.8185   -0.2044   -3.0520 N   0  0  0  0  0  0  0  0  0  0  0  0
    7.6318    1.1155   -2.7875 C   0  0  0  0  0  0  0  0  0  0  0  0
    7.3323    1.5346   -1.4895 C   0  0  0  0  0  0  0  0  0  0  0  0
    4.6999    2.0155    0.4459 C   0  0  0  0  0  0  0  0  0  0  0  0
    3.2373    2.1176    0.9226 C   0  0  0  0  0  0  0  0  0  0  0  0
    2.2550    0.2249   -0.4908 C   0  0  0  0  0  0  0  0  0  0  0  0
    2.6213    0.9418   -1.4635 O   0  0  0  0  0  0  0  0  0  0  0  0
    1.4619   -0.8911   -0.8129 O   0  0  0  0  0  0  0  0  0  0  0  0
    1.6577   -2.2400   -0.3933 C   0  0  0  0  0  0  0  0  0  0  0  0
    0.5720   -2.6634    0.6137 C   0  0  0  0  0  0  0  0  0  0  0  0
    0.8668   -3.9517    1.0919 O   0  0  0  0  0  0  0  0  0  0  0  0
   -0.8630   -2.6736    0.0018 C   0  0  0  0  0  0  0  0  0  0  0  0
   -1.0822   -1.5884   -0.8617 O   0  0  0  0  0  0  0  0  0  0  0  0
   -1.9654   -2.6848    1.0844 C   0  0  0  0  0  0  0  0  0  0  0  0
   -2.1705   -1.3436    1.8362 C   0  0  0  0  0  0  0  0  0  0  0  0
   -6.2467    0.1171   -0.6703 C   0  0  0  0  0  0  0  0  0  0  0  0
  -10.8876    0.6673   -2.0887 H   0  0  0  0  0  0  0  0  0  0  0  0
  -11.1890    1.3510   -0.4405 H   0  0  0  0  0  0  0  0  0  0  0  0
  -10.4054    2.3674   -1.7114 H   0  0  0  0  0  0  0  0  0  0  0  0
   -9.1967   -0.2057   -0.5068 H   0  0  0  0  0  0  0  0  0  0  0  0
   -8.7724    1.4878   -0.0004 H   0  0  0  0  0  0  0  0  0  0  0  0
   -6.4656    1.2752   -3.8667 H   0  0  0  0  0  0  0  0  0  0  0  0
   -4.0410    0.7885   -3.7905 H   0  0  0  0  0  0  0  0  0  0  0  0
   -3.0175   -0.1165   -1.7466 H   0  0  0  0  0  0  0  0  0  0  0  0
   -2.5884    1.4896    0.0084 H   0  0  0  0  0  0  0  0  0  0  0  0
   -3.4637    1.6502    1.5491 H   0  0  0  0  0  0  0  0  0  0  0  0
   -1.3879    2.6496    1.9495 H   0  0  0  0  0  0  0  0  0  0  0  0
   -1.2515    1.1001    2.7748 H   0  0  0  0  0  0  0  0  0  0  0  0
    0.1604    2.2305    0.3158 H   0  0  0  0  0  0  0  0  0  0  0  0
   -0.2855    0.5083    0.1780 H   0  0  0  0  0  0  0  0  0  0  0  0
    0.9091   -0.0043    2.2989 H   0  0  0  0  0  0  0  0  0  0  0  0
    1.2802    1.6812    2.5462 H   0  0  0  0  0  0  0  0  0  0  0  0
    3.4847    0.1211    2.8100 H   0  0  0  0  0  0  0  0  0  0  0  0
    2.9707   -1.2505    1.8242 H   0  0  0  0  0  0  0  0  0  0  0  0
    4.7889   -0.6754    0.1358 H   0  0  0  0  0  0  0  0  0  0  0  0
    5.4092   -1.0252    1.7908 H   0  0  0  0  0  0  0  0  0  0  0  0
    7.4072    0.3425    1.6715 H   0  0  0  0  0  0  0  0  0  0  0  0
    7.3180    2.0240    1.1400 H   0  0  0  0  0  0  0  0  0  0  0  0
    7.3475   -1.5277    0.0028 H   0  0  0  0  0  0  0  0  0  0  0  0
    7.8762   -2.1886   -2.3201 H   0  0  0  0  0  0  0  0  0  0  0  0
    7.7171    1.8406   -3.5846 H   0  0  0  0  0  0  0  0  0  0  0  0
    7.1871    2.5875   -1.2886 H   0  0  0  0  0  0  0  0  0  0  0  0
    5.1668    3.0191    0.5545 H   0  0  0  0  0  0  0  0  0  0  0  0
    4.7397    1.7482   -0.6288 H   0  0  0  0  0  0  0  0  0  0  0  0
    2.6879    2.8383    0.2774 H   0  0  0  0  0  0  0  0  0  0  0  0
    3.2645    2.5551    1.9449 H   0  0  0  0  0  0  0  0  0  0  0  0
    1.5769   -2.8940   -1.2887 H   0  0  0  0  0  0  0  0  0  0  0  0
    2.6831   -2.3934    0.0016 H   0  0  0  0  0  0  0  0  0  0  0  0
    0.6100   -1.9608    1.4602 H   0  0  0  0  0  0  0  0  0  0  0  0
    1.6221   -3.8604    1.7309 H   0  0  0  0  0  0  0  0  0  0  0  0
   -0.9710   -3.6268   -0.5720 H   0  0  0  0  0  0  0  0  0  0  0  0
   -0.8495   -1.8844   -1.7819 H   0  0  0  0  0  0  0  0  0  0  0  0
   -1.7137   -3.4682    1.8321 H   0  0  0  0  0  0  0  0  0  0  0  0
   -2.9191   -3.0080    0.6158 H   0  0  0  0  0  0  0  0  0  0  0  0
   -1.1919   -0.9694    2.1578 H   0  0  0  0  0  0  0  0  0  0  0  0
   -2.7303   -1.5547    2.7732 H   0  0  0  0  0  0  0  0  0  0  0  0
   -6.8592   -0.0782    0.2020 H   0  0  0  0  0  0  0  0  0  0  0  0
  1  2  1  0
  2  3  1  0
  3  4  1  0
  4  5  2  0
  5  6  1  0
  6  7  2  0
  7  8  1  0
  8  9  1  0
  9 10  2  0
  9 11  1  0
 11 12  1  0
 12 13  1  0
 13 14  1  0
 14 15  1  0
 15 16  1  0
 16 17  1  0
 17 18  1  0
 18 19  1  0
 19 20  1  0
 20 21  1  0
 21 22  2  0
 22 23  1  0
 23 24  2  0
 24 25  1  0
 25 26  2  0
 19 27  1  0
 27 28  1  0
 16 29  1  0
 29 30  2  0
 29 31  1  0
 31 32  1  0
 32 33  1  0
 33 34  1  0
 33 35  1  0
 35 36  1  0
 35 37  1  0
 37 38  1  0
  8 39  2  0
 39  4  1  0
 38 11  1  0
 28 16  1  0
 26 21  1  0
  1 40  1  0
  1 41  1  0
  1 42  1  0
  2 43  1  0
  2 44  1  0
  5 45  1  0
  6 46  1  0
  7 47  1  0
 12 48  1  0
 12 49  1  0
 13 50  1  0
 13 51  1  0
 14 52  1  0
 14 53  1  0
 15 54  1  0
 15 55  1  0
 17 56  1  0
 17 57  1  0
 18 58  1  0
 18 59  1  0
 20 60  1  0
 20 61  1  0
 22 62  1  0
 23 63  1  0
 25 64  1  0
 26 65  1  0
 27 66  1  0
 27 67  1  0
 28 68  1  0
 28 69  1  0
 32 70  1  0
 32 71  1  0
 33 72  1  0
 34 73  1  0
 35 74  1  0
 36 75  1  0
 37 76  1  0
 37 77  1  0
 38 78  1  0
 38 79  1  0
 39 80  1  0
M  END
$$$$
