
     RDKit          3D

 71 73  0  0  0  0  0  0  0  0999 V2000
    5.7528    0.4608    1.0714 C   0  0  0  0  0  0  0  0  0  0  0  0
    5.3071   -0.9808    0.7700 C   0  0  0  0  0  0  0  0  0  0  0  0
    6.5463   -1.8335    0.4473 C   0  0  0  0  0  0  0  0  0  0  0  0
    4.2619   -1.0143   -0.3870 C   0  0  0  0  0  0  0  0  0  0  0  0
    3.6927   -2.4248   -0.6456 C   0  0  0  0  0  0  0  0  0  0  0  0
    2.6963   -2.3844   -1.6320 O   0  0  0  0  0  0  0  0  0  0  0  0
    3.1662   -0.0589   -0.1562 N   0  0  0  0  0  0  0  0  0  0  0  0
    2.2687   -0.0938    0.9676 C   0  0  0  0  0  0  0  0  0  0  0  0
    2.3983   -0.9677    1.8653 O   0  0  0  0  0  0  0  0  0  0  0  0
    1.2504    0.9605    1.1354 C   0  0  0  0  0  0  0  0  0  0  0  0
    1.3696    1.7843    2.2628 C   0  0  0  0  0  0  0  0  0  0  0  0
    0.5543    2.8994    2.4150 C   0  0  0  0  0  0  0  0  0  0  0  0
   -0.3748    3.2243    1.4323 C   0  0  0  0  0  0  0  0  0  0  0  0
   -0.5399    2.4060    0.2991 C   0  0  0  0  0  0  0  0  0  0  0  0
    0.2323    1.2188    0.1729 C   0  0  0  0  0  0  0  0  0  0  0  0
   -0.0290    0.2649   -0.9967 C   0  0  0  0  0  0  0  0  0  0  0  0
   -0.9427   -0.8671   -0.6836 N   0  0  0  0  0  0  0  0  0  0  0  0
   -0.3579   -1.8379    0.2612 C   0  0  0  0  0  0  0  0  0  0  0  0
   -1.0326   -3.1785    0.1284 C   0  0  0  0  0  0  0  0  0  0  0  0
   -1.7398   -3.7349    1.2082 C   0  0  0  0  0  0  0  0  0  0  0  0
   -2.3889   -4.9652    1.0626 C   0  0  0  0  0  0  0  0  0  0  0  0
   -2.3316   -5.6490   -0.1554 C   0  0  0  0  0  0  0  0  0  0  0  0
   -1.6255   -5.1039   -1.2312 C   0  0  0  0  0  0  0  0  0  0  0  0
   -0.9792   -3.8722   -1.0931 C   0  0  0  0  0  0  0  0  0  0  0  0
   -2.2957   -0.4400   -0.2670 C   0  0  0  0  0  0  0  0  0  0  0  0
   -3.0786    0.0796   -1.4450 C   0  0  0  0  0  0  0  0  0  0  0  0
   -2.8620   -0.4150   -2.5837 O   0  0  0  0  0  0  0  0  0  0  0  0
   -4.1264    1.0505   -1.3060 N   0  0  0  0  0  0  0  0  0  0  0  0
   -4.5226    1.6625   -0.0364 C   0  0  0  0  0  0  0  0  0  0  0  0
   -5.2581    2.9877   -0.2689 C   0  0  0  0  0  0  0  0  0  0  0  0
   -4.4203    4.0127   -1.0555 C   0  0  0  0  0  0  0  0  0  0  0  0
   -3.1561    4.4903   -0.3004 C   0  0  0  0  0  0  0  0  0  0  0  0
   -1.8434    4.1099   -1.0103 C   0  0  0  0  0  0  0  0  0  0  0  0
   -1.4414    2.7654   -0.7214 O   0  0  0  0  0  0  0  0  0  0  0  0
    4.8978    1.0708    1.4294 H   0  0  0  0  0  0  0  0  0  0  0  0
    6.1763    0.9375    0.1603 H   0  0  0  0  0  0  0  0  0  0  0  0
    6.5196    0.4683    1.8757 H   0  0  0  0  0  0  0  0  0  0  0  0
    4.8535   -1.3988    1.6943 H   0  0  0  0  0  0  0  0  0  0  0  0
    6.2846   -2.9103    0.4010 H   0  0  0  0  0  0  0  0  0  0  0  0
    6.9992   -1.5249   -0.5191 H   0  0  0  0  0  0  0  0  0  0  0  0
    7.3107   -1.7238    1.2477 H   0  0  0  0  0  0  0  0  0  0  0  0
    4.7870   -0.7050   -1.3187 H   0  0  0  0  0  0  0  0  0  0  0  0
    3.2522   -2.8392    0.2863 H   0  0  0  0  0  0  0  0  0  0  0  0
    4.4970   -3.1199   -0.9721 H   0  0  0  0  0  0  0  0  0  0  0  0
    3.1569   -2.2426   -2.4998 H   0  0  0  0  0  0  0  0  0  0  0  0
    3.0645    0.7241   -0.8398 H   0  0  0  0  0  0  0  0  0  0  0  0
    2.1309    1.5870    3.0083 H   0  0  0  0  0  0  0  0  0  0  0  0
    0.6714    3.5403    3.2794 H   0  0  0  0  0  0  0  0  0  0  0  0
   -0.9612    4.1219    1.5637 H   0  0  0  0  0  0  0  0  0  0  0  0
   -0.4371    0.8286   -1.8619 H   0  0  0  0  0  0  0  0  0  0  0  0
    0.9230   -0.1383   -1.3927 H   0  0  0  0  0  0  0  0  0  0  0  0
   -0.4214   -1.4545    1.3052 H   0  0  0  0  0  0  0  0  0  0  0  0
    0.7103   -2.0080    0.0240 H   0  0  0  0  0  0  0  0  0  0  0  0
   -1.7995   -3.2136    2.1563 H   0  0  0  0  0  0  0  0  0  0  0  0
   -2.9374   -5.3890    1.8940 H   0  0  0  0  0  0  0  0  0  0  0  0
   -2.8354   -6.6006   -0.2653 H   0  0  0  0  0  0  0  0  0  0  0  0
   -1.5857   -5.6330   -2.1752 H   0  0  0  0  0  0  0  0  0  0  0  0
   -0.4405   -3.4558   -1.9349 H   0  0  0  0  0  0  0  0  0  0  0  0
   -2.8772   -1.2999    0.1281 H   0  0  0  0  0  0  0  0  0  0  0  0
   -2.2248    0.2845    0.5625 H   0  0  0  0  0  0  0  0  0  0  0  0
   -4.7134    1.2397   -2.1519 H   0  0  0  0  0  0  0  0  0  0  0  0
   -5.1869    0.9622    0.5123 H   0  0  0  0  0  0  0  0  0  0  0  0
   -3.6441    1.8682    0.6012 H   0  0  0  0  0  0  0  0  0  0  0  0
   -6.1960    2.7854   -0.8317 H   0  0  0  0  0  0  0  0  0  0  0  0
   -5.5457    3.4212    0.7136 H   0  0  0  0  0  0  0  0  0  0  0  0
   -4.1720    3.6057   -2.0579 H   0  0  0  0  0  0  0  0  0  0  0  0
   -5.0685    4.8965   -1.2428 H   0  0  0  0  0  0  0  0  0  0  0  0
   -3.1472    4.1257    0.7476 H   0  0  0  0  0  0  0  0  0  0  0  0
   -3.1931    5.5976   -0.2247 H   0  0  0  0  0  0  0  0  0  0  0  0
   -1.9596    4.2184   -2.1093 H   0  0  0  0  0  0  0  0  0  0  0  0
   -1.0386    4.8178   -0.7173 H   0  0  0  0  0  0  0  0  0  0  0  0
  1  2  1  0
  2  3  1  0
  2  4  1  0
  4  5  1  0
  5  6  1  0
  4  7  1  0
  7  8  1  0
  8  9  2  0
  8 10  1  0
 10 11  2  0
 11 12  1  0
 12 13  2  0
 13 14  1  0
 14 15  2  0
 15 16  1  0
 16 17  1  0
 17 18  1  0
 18 19  1  0
 19 20  2  0
 20 21  1  0
 21 22  2  0
 22 23  1  0
 23 24  2  0
 17 25  1  0
 25 26  1  0
 26 27  2  0
 26 28  1  0
 28 29  1  0
 29 30  1  0
 30 31  1  0
 31 32  1  0
 32 33  1  0
 33 34  1  0
 15 10  1  0
 24 19  1  0
 34 14  1  0
  1 35  1  0
  1 36  1  0
  1 37  1  0
  2 38  1  0
  3 39  1  0
  3 40  1  0
  3 41  1  0
  4 42  1  0
  5 43  1  0
  5 44  1  0
  6 45  1  0
  7 46  1  0
 11 47  1  0
 12 48  1  0
 13 49  1  0
 16 50  1  0
 16 51  1  0
 18 52  1  0
 18 53  1  0
 20 54  1  0
 21 55  1  0
 22 56  1  0
 23 57  1  0
 24 58  1  0
 25 59  1  0
 25 60  1  0
 28 61  1  0
 29 62  1  0
 29 63  1  0
 30 64  1  0
 30 65  1  0
 31 66  1  0
 31 67  1  0
 32 68  1  0
 32 69  1  0
 33 70  1  0
 33 71  1  0
M  END
$$$$
