
     RDKit          3D

 77 79  0  0  0  0  0  0  0  0999 V2000
    9.7231   -0.3899   -1.8844 C   0  0  0  0  0  0  0  0  0  0  0  0
    8.7337    0.6026   -1.6332 O   0  0  0  0  0  0  0  0  0  0  0  0
    7.5685    0.3868   -0.8824 C   0  0  0  0  0  0  0  0  0  0  0  0
    6.6730    1.4506   -0.7240 C   0  0  0  0  0  0  0  0  0  0  0  0
    5.4974    1.2864    0.0140 C   0  0  0  0  0  0  0  0  0  0  0  0
    5.2033    0.0509    0.6103 C   0  0  0  0  0  0  0  0  0  0  0  0
    3.9231   -0.1427    1.3831 C   0  0  0  0  0  0  0  0  0  0  0  0
    2.9931   -1.0315    0.6540 N   0  0  0  0  0  0  0  0  0  0  0  0
    2.5715   -0.4308   -0.6394 C   0  0  0  0  0  0  0  0  0  0  0  0
    1.2454   -1.0198   -1.1316 C   0  0  0  0  0  0  0  0  0  0  0  0
    0.0696   -0.6562   -0.1639 C   0  0  0  0  0  0  0  0  0  0  0  0
   -1.0330   -1.7553   -0.2362 C   0  0  0  0  0  0  0  0  0  0  0  0
   -1.5378   -2.0571   -1.6642 C   0  0  0  0  0  0  0  0  0  0  0  0
   -2.8851   -2.8154   -1.6589 C   0  0  0  0  0  0  0  0  0  0  0  0
   -3.9880   -2.0263   -2.3684 C   0  0  0  0  0  0  0  0  0  0  0  0
   -4.1599   -0.7782   -1.7288 O   0  0  0  0  0  0  0  0  0  0  0  0
   -5.0052    0.0425   -2.5054 C   0  0  0  0  0  0  0  0  0  0  0  0
   -5.1803    1.4100   -1.8325 C   0  0  0  0  0  0  0  0  0  0  0  0
   -5.9183    1.2977   -0.4901 C   0  0  0  0  0  0  0  0  0  0  0  0
   -3.8888    2.1134   -1.7481 N   0  0  0  0  0  0  0  0  0  0  0  0
   -3.2142    2.5118   -0.5437 C   0  0  0  0  0  0  0  0  0  0  0  0
   -2.9130    3.7260   -0.3877 O   0  0  0  0  0  0  0  0  0  0  0  0
   -2.7302    1.4989    0.4633 C   0  0  0  0  0  0  0  0  0  0  0  0
   -3.2465    1.8466    1.8775 C   0  0  0  0  0  0  0  0  0  0  0  0
   -2.9237    0.7450    2.9248 C   0  0  0  0  0  0  0  0  0  0  0  0
   -1.7044    1.1240    3.7779 C   0  0  0  0  0  0  0  0  0  0  0  0
   -4.1302    0.4831    3.8362 C   0  0  0  0  0  0  0  0  0  0  0  0
   -1.2667    1.4591    0.4489 N   0  0  0  0  0  0  0  0  0  0  0  0
   -0.5551    0.6929   -0.5304 C   0  0  0  0  0  0  0  0  0  0  0  0
   -0.4836    1.1379   -1.7083 O   0  0  0  0  0  0  0  0  0  0  0  0
    0.6107   -0.5754    1.3036 C   0  0  0  0  0  0  0  0  0  0  0  0
    1.8553   -1.4510    1.5152 C   0  0  0  0  0  0  0  0  0  0  0  0
    6.0957   -1.0195    0.4498 C   0  0  0  0  0  0  0  0  0  0  0  0
    7.2713   -0.8550   -0.2887 C   0  0  0  0  0  0  0  0  0  0  0  0
    9.2765   -1.2421   -2.4389 H   0  0  0  0  0  0  0  0  0  0  0  0
   10.5312    0.0520   -2.5026 H   0  0  0  0  0  0  0  0  0  0  0  0
   10.1609   -0.7441   -0.9273 H   0  0  0  0  0  0  0  0  0  0  0  0
    6.8880    2.4096   -1.1785 H   0  0  0  0  0  0  0  0  0  0  0  0
    4.8156    2.1217    0.1155 H   0  0  0  0  0  0  0  0  0  0  0  0
    3.4365    0.8336    1.6068 H   0  0  0  0  0  0  0  0  0  0  0  0
    4.1989   -0.5967    2.3607 H   0  0  0  0  0  0  0  0  0  0  0  0
    3.3522   -0.6377   -1.4028 H   0  0  0  0  0  0  0  0  0  0  0  0
    2.4606    0.6749   -0.5592 H   0  0  0  0  0  0  0  0  0  0  0  0
    1.0501   -0.6842   -2.1724 H   0  0  0  0  0  0  0  0  0  0  0  0
    1.3753   -2.1238   -1.1856 H   0  0  0  0  0  0  0  0  0  0  0  0
   -1.8877   -1.4464    0.4016 H   0  0  0  0  0  0  0  0  0  0  0  0
   -0.6457   -2.7036    0.1978 H   0  0  0  0  0  0  0  0  0  0  0  0
   -1.6246   -1.1165   -2.2474 H   0  0  0  0  0  0  0  0  0  0  0  0
   -0.7812   -2.6798   -2.1893 H   0  0  0  0  0  0  0  0  0  0  0  0
   -3.2207   -3.0517   -0.6249 H   0  0  0  0  0  0  0  0  0  0  0  0
   -2.7588   -3.7887   -2.1820 H   0  0  0  0  0  0  0  0  0  0  0  0
   -3.6929   -1.9063   -3.4373 H   0  0  0  0  0  0  0  0  0  0  0  0
   -4.9328   -2.6125   -2.3188 H   0  0  0  0  0  0  0  0  0  0  0  0
   -6.0072   -0.4306   -2.6263 H   0  0  0  0  0  0  0  0  0  0  0  0
   -4.5680    0.2129   -3.5164 H   0  0  0  0  0  0  0  0  0  0  0  0
   -5.8393    2.0139   -2.4955 H   0  0  0  0  0  0  0  0  0  0  0  0
   -5.4255    0.5745    0.1894 H   0  0  0  0  0  0  0  0  0  0  0  0
   -5.9799    2.2932   -0.0021 H   0  0  0  0  0  0  0  0  0  0  0  0
   -6.9555    0.9407   -0.6648 H   0  0  0  0  0  0  0  0  0  0  0  0
   -3.5471    2.5519   -2.6337 H   0  0  0  0  0  0  0  0  0  0  0  0
   -3.1211    0.5021    0.1833 H   0  0  0  0  0  0  0  0  0  0  0  0
   -2.8299    2.8268    2.2009 H   0  0  0  0  0  0  0  0  0  0  0  0
   -4.3458    1.9957    1.8163 H   0  0  0  0  0  0  0  0  0  0  0  0
   -2.6953   -0.2135    2.4095 H   0  0  0  0  0  0  0  0  0  0  0  0
   -1.4386    0.2866    4.4577 H   0  0  0  0  0  0  0  0  0  0  0  0
   -1.9194    2.0266    4.3895 H   0  0  0  0  0  0  0  0  0  0  0  0
   -0.8261    1.3362    3.1375 H   0  0  0  0  0  0  0  0  0  0  0  0
   -4.9949    0.1334    3.2323 H   0  0  0  0  0  0  0  0  0  0  0  0
   -3.8888   -0.3082    4.5780 H   0  0  0  0  0  0  0  0  0  0  0  0
   -4.4201    1.4094    4.3778 H   0  0  0  0  0  0  0  0  0  0  0  0
   -0.7509    2.2618    0.8757 H   0  0  0  0  0  0  0  0  0  0  0  0
    0.9088    0.4656    1.5582 H   0  0  0  0  0  0  0  0  0  0  0  0
   -0.1724   -0.8704    2.0357 H   0  0  0  0  0  0  0  0  0  0  0  0
    1.6020   -2.5067    1.2799 H   0  0  0  0  0  0  0  0  0  0  0  0
    2.1256   -1.4403    2.5945 H   0  0  0  0  0  0  0  0  0  0  0  0
    5.8775   -1.9830    0.8940 H   0  0  0  0  0  0  0  0  0  0  0  0
    7.9397   -1.6986   -0.3938 H   0  0  0  0  0  0  0  0  0  0  0  0
  1  2  1  0
  2  3  1  0
  3  4  2  0
  4  5  1  0
  5  6  2  0
  6  7  1  0
  7  8  1  0
  8  9  1  0
  9 10  1  0
 10 11  1  0
 11 12  1  0
 12 13  1  0
 13 14  1  0
 14 15  1  0
 15 16  1  0
 16 17  1  0
 17 18  1  0
 18 19  1  0
 18 20  1  0
 20 21  1  0
 21 22  2  0
 21 23  1  0
 23 24  1  0
 24 25  1  0
 25 26  1  0
 25 27  1  0
 23 28  1  0
 28 29  1  0
 29 30  2  0
 11 31  1  0
 31 32  1  0
  6 33  1  0
 33 34  2  0
 34  3  1  0
 32  8  1  0
 29 11  1  0
  1 35  1  0
  1 36  1  0
  1 37  1  0
  4 38  1  0
  5 39  1  0
  7 40  1  0
  7 41  1  0
  9 42  1  0
  9 43  1  0
 10 44  1  0
 10 45  1  0
 12 46  1  0
 12 47  1  0
 13 48  1  0
 13 49  1  0
 14 50  1  0
 14 51  1  0
 15 52  1  0
 15 53  1  0
 17 54  1  0
 17 55  1  0
 18 56  1  0
 19 57  1  0
 19 58  1  0
 19 59  1  0
 20 60  1  0
 23 61  1  0
 24 62  1  0
 24 63  1  0
 25 64  1  0
 26 65  1  0
 26 66  1  0
 26 67  1  0
 27 68  1  0
 27 69  1  0
 27 70  1  0
 28 71  1  0
 31 72  1  0
 31 73  1  0
 32 74  1  0
 32 75  1  0
 33 76  1  0
 34 77  1  0
M  END
$$$$
