
     RDKit          3D

 70 73  0  0  0  0  0  0  0  0999 V2000
   -0.4181   -3.4157   -2.8308 C   0  0  0  0  0  0  0  0  0  0  0  0
   -0.9178   -3.8684   -1.4871 C   0  0  0  0  0  0  0  0  0  0  0  0
   -1.5372   -4.9640   -1.4283 O   0  0  0  0  0  0  0  0  0  0  0  0
   -0.7006   -3.0838   -0.2869 N   0  0  0  0  0  0  0  0  0  0  0  0
   -1.0851   -3.6173    1.0404 C   0  0  0  0  0  0  0  0  0  0  0  0
   -2.5651   -4.0452    1.1755 C   0  0  0  0  0  0  0  0  0  0  0  0
   -3.6057   -3.0688    0.5801 C   0  0  0  0  0  0  0  0  0  0  0  0
   -4.4813   -2.3647    1.6347 C   0  0  0  0  0  0  0  0  0  0  0  0
   -3.7924   -1.1907    2.3538 C   0  0  0  0  0  0  0  0  0  0  0  0
   -3.5039    0.0093    1.4199 C   0  0  0  0  0  0  0  0  0  0  0  0
   -2.0289    0.0789    0.9897 C   0  0  0  0  0  0  0  0  0  0  0  0
   -1.9054    0.6453   -0.3785 N   0  0  0  0  0  0  0  0  0  0  0  0
   -1.4172    2.0584   -0.4122 C   0  0  0  0  0  0  0  0  0  0  0  0
   -2.2923    2.9878    0.4678 C   0  0  0  0  0  0  0  0  0  0  0  0
   -1.8398    4.4641    0.3699 C   0  0  0  0  0  0  0  0  0  0  0  0
   -0.9462    4.7064   -0.7022 O   0  0  0  0  0  0  0  0  0  0  0  0
   -1.4758    4.1670   -1.8933 C   0  0  0  0  0  0  0  0  0  0  0  0
   -1.4282    2.6297   -1.8594 C   0  0  0  0  0  0  0  0  0  0  0  0
   -1.2186   -0.2966   -1.3129 C   0  0  0  0  0  0  0  0  0  0  0  0
    0.1457   -0.7813   -0.8357 C   0  0  0  0  0  0  0  0  0  0  0  0
    1.2493    0.0848   -0.9394 C   0  0  0  0  0  0  0  0  0  0  0  0
    2.5172   -0.2849   -0.4645 C   0  0  0  0  0  0  0  0  0  0  0  0
    3.6491    0.6652   -0.5780 C   0  0  0  0  0  0  0  0  0  0  0  0
    3.6776    1.4654   -1.5524 O   0  0  0  0  0  0  0  0  0  0  0  0
    4.7116    0.6774    0.3946 N   0  0  0  0  0  0  0  0  0  0  0  0
    5.7669    1.6536    0.4164 C   0  0  0  0  0  0  0  0  0  0  0  0
    7.0524    1.2675    0.8196 C   0  0  0  0  0  0  0  0  0  0  0  0
    8.0767    2.2160    0.8667 C   0  0  0  0  0  0  0  0  0  0  0  0
    7.8226    3.5110    0.5409 N   0  0  0  0  0  0  0  0  0  0  0  0
    6.5814    3.9207    0.1675 C   0  0  0  0  0  0  0  0  0  0  0  0
    5.5286    3.0037    0.1058 C   0  0  0  0  0  0  0  0  0  0  0  0
    2.6918   -1.5632    0.0828 C   0  0  0  0  0  0  0  0  0  0  0  0
    1.6214   -2.4530    0.1520 C   0  0  0  0  0  0  0  0  0  0  0  0
    0.3469   -2.0874   -0.3079 C   0  0  0  0  0  0  0  0  0  0  0  0
   -0.4736   -4.2493   -3.5624 H   0  0  0  0  0  0  0  0  0  0  0  0
   -1.0446   -2.5821   -3.2051 H   0  0  0  0  0  0  0  0  0  0  0  0
    0.6399   -3.0885   -2.7682 H   0  0  0  0  0  0  0  0  0  0  0  0
   -0.4448   -4.4966    1.2708 H   0  0  0  0  0  0  0  0  0  0  0  0
   -0.8692   -2.8696    1.8336 H   0  0  0  0  0  0  0  0  0  0  0  0
   -2.7714   -4.2228    2.2540 H   0  0  0  0  0  0  0  0  0  0  0  0
   -2.6970   -5.0410    0.7014 H   0  0  0  0  0  0  0  0  0  0  0  0
   -3.1489   -2.3288   -0.0954 H   0  0  0  0  0  0  0  0  0  0  0  0
   -4.2910   -3.6630   -0.0638 H   0  0  0  0  0  0  0  0  0  0  0  0
   -5.3994   -1.9836    1.1360 H   0  0  0  0  0  0  0  0  0  0  0  0
   -4.8241   -3.1044    2.3904 H   0  0  0  0  0  0  0  0  0  0  0  0
   -4.4836   -0.8446    3.1537 H   0  0  0  0  0  0  0  0  0  0  0  0
   -2.8735   -1.5424    2.8721 H   0  0  0  0  0  0  0  0  0  0  0  0
   -3.7620    0.9467    1.9565 H   0  0  0  0  0  0  0  0  0  0  0  0
   -4.1626   -0.0307    0.5245 H   0  0  0  0  0  0  0  0  0  0  0  0
   -1.4270    0.6429    1.7349 H   0  0  0  0  0  0  0  0  0  0  0  0
   -1.6190   -0.9371    1.0363 H   0  0  0  0  0  0  0  0  0  0  0  0
   -0.3827    2.1054   -0.0085 H   0  0  0  0  0  0  0  0  0  0  0  0
   -3.3513    2.9070    0.1358 H   0  0  0  0  0  0  0  0  0  0  0  0
   -2.2512    2.6981    1.5367 H   0  0  0  0  0  0  0  0  0  0  0  0
   -1.3188    4.7423    1.3113 H   0  0  0  0  0  0  0  0  0  0  0  0
   -2.7257    5.1335    0.2875 H   0  0  0  0  0  0  0  0  0  0  0  0
   -2.5185    4.5227   -2.0665 H   0  0  0  0  0  0  0  0  0  0  0  0
   -0.8707    4.5334   -2.7503 H   0  0  0  0  0  0  0  0  0  0  0  0
   -0.5137    2.3050   -2.3974 H   0  0  0  0  0  0  0  0  0  0  0  0
   -2.3098    2.2408   -2.4151 H   0  0  0  0  0  0  0  0  0  0  0  0
   -1.1123    0.1345   -2.3265 H   0  0  0  0  0  0  0  0  0  0  0  0
   -1.8904   -1.1558   -1.4868 H   0  0  0  0  0  0  0  0  0  0  0  0
    1.1259    1.0587   -1.3893 H   0  0  0  0  0  0  0  0  0  0  0  0
    4.7565   -0.0833    1.1077 H   0  0  0  0  0  0  0  0  0  0  0  0
    7.2595    0.2380    1.0844 H   0  0  0  0  0  0  0  0  0  0  0  0
    9.0742    1.9225    1.1655 H   0  0  0  0  0  0  0  0  0  0  0  0
    6.4091    4.9615   -0.0725 H   0  0  0  0  0  0  0  0  0  0  0  0
    4.5383    3.3535   -0.1530 H   0  0  0  0  0  0  0  0  0  0  0  0
    3.6633   -1.9014    0.4160 H   0  0  0  0  0  0  0  0  0  0  0  0
    1.7906   -3.4484    0.5429 H   0  0  0  0  0  0  0  0  0  0  0  0
  1  2  1  0
  2  3  2  0
  2  4  1  0
  4  5  1  0
  5  6  1  0
  6  7  1  0
  7  8  1  0
  8  9  1  0
  9 10  1  0
 10 11  1  0
 11 12  1  0
 12 13  1  0
 13 14  1  0
 14 15  1  0
 15 16  1  0
 16 17  1  0
 17 18  1  0
 12 19  1  0
 19 20  1  0
 20 21  2  0
 21 22  1  0
 22 23  1  0
 23 24  2  0
 23 25  1  0
 25 26  1  0
 26 27  2  0
 27 28  1  0
 28 29  2  0
 29 30  1  0
 30 31  2  0
 22 32  2  0
 32 33  1  0
 33 34  2  0
 34  4  1  0
 18 13  1  0
 34 20  1  0
 31 26  1  0
  1 35  1  0
  1 36  1  0
  1 37  1  0
  5 38  1  0
  5 39  1  0
  6 40  1  0
  6 41  1  0
  7 42  1  0
  7 43  1  0
  8 44  1  0
  8 45  1  0
  9 46  1  0
  9 47  1  0
 10 48  1  0
 10 49  1  0
 11 50  1  0
 11 51  1  0
 13 52  1  0
 14 53  1  0
 14 54  1  0
 15 55  1  0
 15 56  1  0
 17 57  1  0
 17 58  1  0
 18 59  1  0
 18 60  1  0
 19 61  1  0
 19 62  1  0
 21 63  1  0
 25 64  1  0
 27 65  1  0
 28 66  1  0
 30 67  1  0
 31 68  1  0
 32 69  1  0
 33 70  1  0
M  END
$$$$
