
     RDKit          3D

 77 79  0  0  0  0  0  0  0  0999 V2000
    4.1702    2.5024   -2.6581 C   0  0  0  0  0  0  0  0  0  0  0  0
    5.0595    1.4185   -2.9341 O   0  0  0  0  0  0  0  0  0  0  0  0
    5.3846    0.4063   -2.0192 C   0  0  0  0  0  0  0  0  0  0  0  0
    6.2709   -0.6011   -2.4245 C   0  0  0  0  0  0  0  0  0  0  0  0
    6.6007   -1.6470   -1.5584 C   0  0  0  0  0  0  0  0  0  0  0  0
    6.0479   -1.6981   -0.2767 C   0  0  0  0  0  0  0  0  0  0  0  0
    5.1683   -0.6906    0.1513 C   0  0  0  0  0  0  0  0  0  0  0  0
    4.5123   -0.7685    1.5057 C   0  0  0  0  0  0  0  0  0  0  0  0
    3.0529   -0.9190    1.3494 N   0  0  0  0  0  0  0  0  0  0  0  0
    2.6982   -2.2598    0.8220 C   0  0  0  0  0  0  0  0  0  0  0  0
    1.1996   -2.5876    0.9979 C   0  0  0  0  0  0  0  0  0  0  0  0
    0.3046   -1.3165    1.1151 C   0  0  0  0  0  0  0  0  0  0  0  0
    0.4253   -0.4423   -0.1869 C   0  0  0  0  0  0  0  0  0  0  0  0
   -0.0226   -1.1149   -1.5042 C   0  0  0  0  0  0  0  0  0  0  0  0
    0.1875   -0.2060   -2.7287 C   0  0  0  0  0  0  0  0  0  0  0  0
   -0.7719    0.9894   -2.8015 C   0  0  0  0  0  0  0  0  0  0  0  0
   -2.1096    0.5377   -2.8748 O   0  0  0  0  0  0  0  0  0  0  0  0
   -2.9998    1.6299   -3.0406 C   0  0  0  0  0  0  0  0  0  0  0  0
   -3.7338    1.9388   -1.7243 C   0  0  0  0  0  0  0  0  0  0  0  0
   -4.6549    3.1497   -1.8986 C   0  0  0  0  0  0  0  0  0  0  0  0
   -4.5332    0.7774   -1.3097 N   0  0  0  0  0  0  0  0  0  0  0  0
   -4.1678   -0.1853   -0.3045 C   0  0  0  0  0  0  0  0  0  0  0  0
   -4.9959   -1.0949   -0.0224 O   0  0  0  0  0  0  0  0  0  0  0  0
   -2.8523   -0.1275    0.4515 C   0  0  0  0  0  0  0  0  0  0  0  0
   -2.9663    0.6863    1.7672 C   0  0  0  0  0  0  0  0  0  0  0  0
   -4.1546    0.3370    2.7002 C   0  0  0  0  0  0  0  0  0  0  0  0
   -4.0277   -1.0657    3.3100 C   0  0  0  0  0  0  0  0  0  0  0  0
   -4.2536    1.3788    3.8233 C   0  0  0  0  0  0  0  0  0  0  0  0
   -2.2983   -1.4765    0.6622 N   0  0  0  0  0  0  0  0  0  0  0  0
   -1.1271   -1.7876    1.4387 C   0  0  0  0  0  0  0  0  0  0  0  0
   -1.2791   -2.5748    2.4133 O   0  0  0  0  0  0  0  0  0  0  0  0
    0.8231   -0.4733    2.3325 C   0  0  0  0  0  0  0  0  0  0  0  0
    2.3364   -0.6294    2.6026 C   0  0  0  0  0  0  0  0  0  0  0  0
    4.8414    0.3623   -0.7206 C   0  0  0  0  0  0  0  0  0  0  0  0
    4.0821    3.1407   -3.5638 H   0  0  0  0  0  0  0  0  0  0  0  0
    4.5670    3.1191   -1.8220 H   0  0  0  0  0  0  0  0  0  0  0  0
    3.1583    2.1159   -2.4069 H   0  0  0  0  0  0  0  0  0  0  0  0
    6.6973   -0.5804   -3.4195 H   0  0  0  0  0  0  0  0  0  0  0  0
    7.2765   -2.4278   -1.8860 H   0  0  0  0  0  0  0  0  0  0  0  0
    6.2977   -2.5264    0.3779 H   0  0  0  0  0  0  0  0  0  0  0  0
    4.7496    0.1798    2.0385 H   0  0  0  0  0  0  0  0  0  0  0  0
    4.9339   -1.5975    2.1209 H   0  0  0  0  0  0  0  0  0  0  0  0
    2.9347   -2.2909   -0.2646 H   0  0  0  0  0  0  0  0  0  0  0  0
    3.2998   -3.0573    1.3155 H   0  0  0  0  0  0  0  0  0  0  0  0
    1.1087   -3.1846    1.9338 H   0  0  0  0  0  0  0  0  0  0  0  0
    0.8562   -3.2565    0.1796 H   0  0  0  0  0  0  0  0  0  0  0  0
    1.4776   -0.1302   -0.3372 H   0  0  0  0  0  0  0  0  0  0  0  0
   -0.0896    0.5203   -0.0327 H   0  0  0  0  0  0  0  0  0  0  0  0
   -1.0787   -1.4381   -1.4692 H   0  0  0  0  0  0  0  0  0  0  0  0
    0.5904   -2.0240   -1.6729 H   0  0  0  0  0  0  0  0  0  0  0  0
    0.0491   -0.8188   -3.6469 H   0  0  0  0  0  0  0  0  0  0  0  0
    1.2354    0.1668   -2.7396 H   0  0  0  0  0  0  0  0  0  0  0  0
   -0.6263    1.6551   -1.9228 H   0  0  0  0  0  0  0  0  0  0  0  0
   -0.5044    1.5588   -3.7210 H   0  0  0  0  0  0  0  0  0  0  0  0
   -2.5110    2.5588   -3.4238 H   0  0  0  0  0  0  0  0  0  0  0  0
   -3.7493    1.3431   -3.8092 H   0  0  0  0  0  0  0  0  0  0  0  0
   -2.9961    2.2206   -0.9459 H   0  0  0  0  0  0  0  0  0  0  0  0
   -5.1806    3.3607   -0.9422 H   0  0  0  0  0  0  0  0  0  0  0  0
   -4.0630    4.0459   -2.1809 H   0  0  0  0  0  0  0  0  0  0  0  0
   -5.4143    2.9566   -2.6860 H   0  0  0  0  0  0  0  0  0  0  0  0
   -5.3924    0.5717   -1.8662 H   0  0  0  0  0  0  0  0  0  0  0  0
   -2.1543    0.4028   -0.1987 H   0  0  0  0  0  0  0  0  0  0  0  0
   -3.0652    1.7553    1.4786 H   0  0  0  0  0  0  0  0  0  0  0  0
   -2.0150    0.6132    2.3359 H   0  0  0  0  0  0  0  0  0  0  0  0
   -5.1051    0.3916    2.1293 H   0  0  0  0  0  0  0  0  0  0  0  0
   -4.1021   -1.8441    2.5241 H   0  0  0  0  0  0  0  0  0  0  0  0
   -3.0631   -1.1725    3.8509 H   0  0  0  0  0  0  0  0  0  0  0  0
   -4.8585   -1.2502    4.0259 H   0  0  0  0  0  0  0  0  0  0  0  0
   -4.4141    2.3913    3.3914 H   0  0  0  0  0  0  0  0  0  0  0  0
   -5.1115    1.1519    4.4939 H   0  0  0  0  0  0  0  0  0  0  0  0
   -3.3188    1.3901    4.4300 H   0  0  0  0  0  0  0  0  0  0  0  0
   -2.8889   -2.3023    0.4136 H   0  0  0  0  0  0  0  0  0  0  0  0
    0.5908    0.6030    2.1805 H   0  0  0  0  0  0  0  0  0  0  0  0
    0.2996   -0.7576    3.2706 H   0  0  0  0  0  0  0  0  0  0  0  0
    2.5116   -1.4456    3.3413 H   0  0  0  0  0  0  0  0  0  0  0  0
    2.7035    0.3181    3.0563 H   0  0  0  0  0  0  0  0  0  0  0  0
    4.1478    1.1252   -0.3855 H   0  0  0  0  0  0  0  0  0  0  0  0
  1  2  1  0
  2  3  1  0
  3  4  2  0
  4  5  1  0
  5  6  2  0
  6  7  1  0
  7  8  1  0
  8  9  1  0
  9 10  1  0
 10 11  1  0
 11 12  1  0
 12 13  1  0
 13 14  1  0
 14 15  1  0
 15 16  1  0
 16 17  1  0
 17 18  1  0
 18 19  1  0
 19 20  1  0
 19 21  1  0
 21 22  1  0
 22 23  2  0
 22 24  1  0
 24 25  1  0
 25 26  1  0
 26 27  1  0
 26 28  1  0
 24 29  1  0
 29 30  1  0
 30 31  2  0
 12 32  1  0
 32 33  1  0
  7 34  2  0
 34  3  1  0
 33  9  1  0
 30 12  1  0
  1 35  1  0
  1 36  1  0
  1 37  1  0
  4 38  1  0
  5 39  1  0
  6 40  1  0
  8 41  1  0
  8 42  1  0
 10 43  1  0
 10 44  1  0
 11 45  1  0
 11 46  1  0
 13 47  1  0
 13 48  1  0
 14 49  1  0
 14 50  1  0
 15 51  1  0
 15 52  1  0
 16 53  1  0
 16 54  1  0
 18 55  1  0
 18 56  1  0
 19 57  1  0
 20 58  1  0
 20 59  1  0
 20 60  1  0
 21 61  1  0
 24 62  1  0
 25 63  1  0
 25 64  1  0
 26 65  1  0
 27 66  1  0
 27 67  1  0
 27 68  1  0
 28 69  1  0
 28 70  1  0
 28 71  1  0
 29 72  1  0
 32 73  1  0
 32 74  1  0
 33 75  1  0
 33 76  1  0
 34 77  1  0
M  END
$$$$
