
     RDKit          3D

 69 71  0  0  0  0  0  0  0  0999 V2000
   -5.1232   -0.7885   -1.3652 C   0  0  0  0  0  0  0  0  0  0  0  0
   -4.5150   -2.1657   -1.1228 C   0  0  0  0  0  0  0  0  0  0  0  0
   -3.0123   -2.1252   -1.1998 C   0  0  0  0  0  0  0  0  0  0  0  0
   -2.4785   -2.2039   -2.3403 O   0  0  0  0  0  0  0  0  0  0  0  0
   -2.1719   -2.0645   -0.0248 N   0  0  0  0  0  0  0  0  0  0  0  0
   -2.6232   -1.4753    1.2501 C   0  0  0  0  0  0  0  0  0  0  0  0
   -1.8910   -0.1579    1.5382 C   0  0  0  0  0  0  0  0  0  0  0  0
   -2.4589    1.0086    0.7059 C   0  0  0  0  0  0  0  0  0  0  0  0
   -1.8012    2.3207    0.9773 N   0  0  0  0  0  0  0  0  0  0  0  0
   -2.5135    3.4628    0.3146 C   0  0  0  0  0  0  0  0  0  0  0  0
   -1.8458    4.8196    0.6314 C   0  0  0  0  0  0  0  0  0  0  0  0
   -3.9897    3.5544    0.7610 C   0  0  0  0  0  0  0  0  0  0  0  0
   -0.3390    2.2983    0.6826 C   0  0  0  0  0  0  0  0  0  0  0  0
    0.0093    2.1674   -0.8222 C   0  0  0  0  0  0  0  0  0  0  0  0
    1.3004    1.3717   -1.0635 C   0  0  0  0  0  0  0  0  0  0  0  0
    1.1952   -0.0194   -0.5862 N   0  0  0  0  0  0  0  0  0  0  0  0
    2.0886   -0.4556    0.4607 C   0  0  0  0  0  0  0  0  0  0  0  0
    1.6121   -0.9946    1.4962 O   0  0  0  0  0  0  0  0  0  0  0  0
    3.5568   -0.2560    0.3602 C   0  0  0  0  0  0  0  0  0  0  0  0
    4.3101   -0.0734    1.5293 C   0  0  0  0  0  0  0  0  0  0  0  0
    5.6879    0.1224    1.4564 C   0  0  0  0  0  0  0  0  0  0  0  0
    6.3173    0.1421    0.2074 C   0  0  0  0  0  0  0  0  0  0  0  0
    7.8044    0.3156    0.1204 C   0  0  0  0  0  0  0  0  0  0  0  0
    5.5826   -0.0678   -0.9222 N   0  0  0  0  0  0  0  0  0  0  0  0
    4.2344   -0.2660   -0.8777 C   0  0  0  0  0  0  0  0  0  0  0  0
    3.6084   -0.4792   -1.9511 O   0  0  0  0  0  0  0  0  0  0  0  0
    0.3128   -0.9563   -1.3173 C   0  0  0  0  0  0  0  0  0  0  0  0
    0.2265   -2.3396   -0.6993 C   0  0  0  0  0  0  0  0  0  0  0  0
    1.3490   -3.1836   -0.7891 C   0  0  0  0  0  0  0  0  0  0  0  0
    1.3403   -4.4497   -0.2011 C   0  0  0  0  0  0  0  0  0  0  0  0
    2.4378   -5.2417   -0.2863 F   0  0  0  0  0  0  0  0  0  0  0  0
    0.2045   -4.8994    0.4715 C   0  0  0  0  0  0  0  0  0  0  0  0
    0.1925   -6.1321    1.0369 F   0  0  0  0  0  0  0  0  0  0  0  0
   -0.9301   -4.0897    0.5445 C   0  0  0  0  0  0  0  0  0  0  0  0
   -0.9401   -2.8135   -0.0405 C   0  0  0  0  0  0  0  0  0  0  0  0
   -4.7505   -0.3613   -2.3204 H   0  0  0  0  0  0  0  0  0  0  0  0
   -6.2277   -0.8772   -1.4251 H   0  0  0  0  0  0  0  0  0  0  0  0
   -4.8747   -0.0994   -0.5354 H   0  0  0  0  0  0  0  0  0  0  0  0
   -4.8571   -2.5767   -0.1510 H   0  0  0  0  0  0  0  0  0  0  0  0
   -4.8917   -2.8581   -1.9064 H   0  0  0  0  0  0  0  0  0  0  0  0
   -3.7166   -1.3028    1.2698 H   0  0  0  0  0  0  0  0  0  0  0  0
   -2.4107   -2.1857    2.0784 H   0  0  0  0  0  0  0  0  0  0  0  0
   -0.8244   -0.3325    1.3326 H   0  0  0  0  0  0  0  0  0  0  0  0
   -1.9973    0.0896    2.6165 H   0  0  0  0  0  0  0  0  0  0  0  0
   -2.4469    0.7619   -0.3742 H   0  0  0  0  0  0  0  0  0  0  0  0
   -3.5209    1.0617    1.0100 H   0  0  0  0  0  0  0  0  0  0  0  0
   -2.5070    3.3287   -0.7899 H   0  0  0  0  0  0  0  0  0  0  0  0
   -1.6767    4.9220    1.7248 H   0  0  0  0  0  0  0  0  0  0  0  0
   -0.8823    4.9283    0.0940 H   0  0  0  0  0  0  0  0  0  0  0  0
   -2.4765    5.6672    0.2875 H   0  0  0  0  0  0  0  0  0  0  0  0
   -4.0705    3.4316    1.8623 H   0  0  0  0  0  0  0  0  0  0  0  0
   -4.4400    4.5304    0.4795 H   0  0  0  0  0  0  0  0  0  0  0  0
   -4.6071    2.7868    0.2501 H   0  0  0  0  0  0  0  0  0  0  0  0
    0.1628    1.5214    1.2846 H   0  0  0  0  0  0  0  0  0  0  0  0
    0.1451    3.2110    1.0852 H   0  0  0  0  0  0  0  0  0  0  0  0
    0.1532    3.1865   -1.2403 H   0  0  0  0  0  0  0  0  0  0  0  0
   -0.8085    1.7214   -1.4151 H   0  0  0  0  0  0  0  0  0  0  0  0
    1.5274    1.3702   -2.1515 H   0  0  0  0  0  0  0  0  0  0  0  0
    2.1362    1.9039   -0.5577 H   0  0  0  0  0  0  0  0  0  0  0  0
    3.8306   -0.0711    2.5001 H   0  0  0  0  0  0  0  0  0  0  0  0
    6.2598    0.2613    2.3659 H   0  0  0  0  0  0  0  0  0  0  0  0
    8.1637    1.0070    0.9119 H   0  0  0  0  0  0  0  0  0  0  0  0
    8.2986   -0.6700    0.2466 H   0  0  0  0  0  0  0  0  0  0  0  0
    8.0909    0.7402   -0.8650 H   0  0  0  0  0  0  0  0  0  0  0  0
    6.0635   -0.0853   -1.8507 H   0  0  0  0  0  0  0  0  0  0  0  0
    0.6910   -1.0628   -2.3569 H   0  0  0  0  0  0  0  0  0  0  0  0
   -0.6962   -0.5170   -1.4040 H   0  0  0  0  0  0  0  0  0  0  0  0
    2.2410   -2.8509   -1.3047 H   0  0  0  0  0  0  0  0  0  0  0  0
   -1.8181   -4.4646    1.0380 H   0  0  0  0  0  0  0  0  0  0  0  0
  1  2  1  0
  2  3  1  0
  3  4  2  0
  3  5  1  0
  5  6  1  0
  6  7  1  0
  7  8  1  0
  8  9  1  0
  9 10  1  0
 10 11  1  0
 10 12  1  0
  9 13  1  0
 13 14  1  0
 14 15  1  0
 15 16  1  0
 16 17  1  0
 17 18  2  0
 17 19  1  0
 19 20  2  0
 20 21  1  0
 21 22  2  0
 22 23  1  0
 22 24  1  0
 24 25  1  0
 25 26  2  0
 16 27  1  0
 27 28  1  0
 28 29  2  0
 29 30  1  0
 30 31  1  0
 30 32  2  0
 32 33  1  0
 32 34  1  0
 34 35  2  0
 35  5  1  0
 25 19  1  0
 35 28  1  0
  1 36  1  0
  1 37  1  0
  1 38  1  0
  2 39  1  0
  2 40  1  0
  6 41  1  0
  6 42  1  0
  7 43  1  0
  7 44  1  0
  8 45  1  0
  8 46  1  0
 10 47  1  0
 11 48  1  0
 11 49  1  0
 11 50  1  0
 12 51  1  0
 12 52  1  0
 12 53  1  0
 13 54  1  0
 13 55  1  0
 14 56  1  0
 14 57  1  0
 15 58  1  0
 15 59  1  0
 20 60  1  0
 21 61  1  0
 23 62  1  0
 23 63  1  0
 23 64  1  0
 24 65  1  0
 27 66  1  0
 27 67  1  0
 29 68  1  0
 34 69  1  0
M  END
$$$$
