
     RDKit          3D

 67 69  0  0  0  0  0  0  0  0999 V2000
   -2.1927    4.7026   -0.9732 C   0  0  0  0  0  0  0  0  0  0  0  0
   -1.5118    3.3956   -1.2478 C   0  0  0  0  0  0  0  0  0  0  0  0
   -1.1955    3.1231   -2.4402 O   0  0  0  0  0  0  0  0  0  0  0  0
   -1.1787    2.4649   -0.1869 N   0  0  0  0  0  0  0  0  0  0  0  0
   -1.8745    2.5426    1.1184 C   0  0  0  0  0  0  0  0  0  0  0  0
   -3.2693    1.8428    1.1772 C   0  0  0  0  0  0  0  0  0  0  0  0
   -4.0817    1.7735   -0.1433 C   0  0  0  0  0  0  0  0  0  0  0  0
   -5.0462    0.5596   -0.2189 C   0  0  0  0  0  0  0  0  0  0  0  0
   -4.4750   -0.6526   -1.0047 C   0  0  0  0  0  0  0  0  0  0  0  0
   -3.8131   -1.7278   -0.1008 C   0  0  0  0  0  0  0  0  0  0  0  0
   -2.4941   -2.3271   -0.6975 C   0  0  0  0  0  0  0  0  0  0  0  0
   -1.2475   -1.9312    0.0267 N   0  0  0  0  0  0  0  0  0  0  0  0
   -0.9262   -2.8332    1.1807 C   0  0  0  0  0  0  0  0  0  0  0  0
   -1.9456   -2.7829    2.3367 C   0  0  0  0  0  0  0  0  0  0  0  0
    0.4981   -2.6141    1.7173 C   0  0  0  0  0  0  0  0  0  0  0  0
   -1.1735   -0.4689    0.2905 C   0  0  0  0  0  0  0  0  0  0  0  0
    0.0210    0.2445   -0.2893 C   0  0  0  0  0  0  0  0  0  0  0  0
    1.1542   -0.4666   -0.7213 C   0  0  0  0  0  0  0  0  0  0  0  0
    2.3250    0.2007   -1.1020 C   0  0  0  0  0  0  0  0  0  0  0  0
    3.5013   -0.5883   -1.5205 C   0  0  0  0  0  0  0  0  0  0  0  0
    3.4134   -1.2871   -2.5672 O   0  0  0  0  0  0  0  0  0  0  0  0
    4.7209   -0.6143   -0.7412 N   0  0  0  0  0  0  0  0  0  0  0  0
    5.5693   -1.8155   -0.8176 C   0  0  0  0  0  0  0  0  0  0  0  0
    6.2681   -2.0744    0.5184 C   0  0  0  0  0  0  0  0  0  0  0  0
    7.0245   -0.8935    0.9051 N   0  0  0  0  0  0  0  0  0  0  0  0
    6.4586    0.4040    0.7260 C   0  0  0  0  0  0  0  0  0  0  0  0
    7.0651    1.4158    1.1653 O   0  0  0  0  0  0  0  0  0  0  0  0
    5.1270    0.5716    0.0383 C   0  0  0  0  0  0  0  0  0  0  0  0
    2.3419    1.5976   -1.1258 C   0  0  0  0  0  0  0  0  0  0  0  0
    1.2088    2.3207   -0.7606 C   0  0  0  0  0  0  0  0  0  0  0  0
    0.0277    1.6678   -0.3603 C   0  0  0  0  0  0  0  0  0  0  0  0
   -1.5577    5.3159   -0.3048 H   0  0  0  0  0  0  0  0  0  0  0  0
   -2.3543    5.2566   -1.9229 H   0  0  0  0  0  0  0  0  0  0  0  0
   -3.1784    4.5425   -0.4964 H   0  0  0  0  0  0  0  0  0  0  0  0
   -1.2271    2.1077    1.9088 H   0  0  0  0  0  0  0  0  0  0  0  0
   -1.9940    3.6032    1.4205 H   0  0  0  0  0  0  0  0  0  0  0  0
   -3.1539    0.8321    1.6095 H   0  0  0  0  0  0  0  0  0  0  0  0
   -3.8822    2.3824    1.9317 H   0  0  0  0  0  0  0  0  0  0  0  0
   -3.4360    1.7608   -1.0366 H   0  0  0  0  0  0  0  0  0  0  0  0
   -4.6855    2.7038   -0.2193 H   0  0  0  0  0  0  0  0  0  0  0  0
   -5.3967    0.2557    0.7933 H   0  0  0  0  0  0  0  0  0  0  0  0
   -5.9565    0.8979   -0.7640 H   0  0  0  0  0  0  0  0  0  0  0  0
   -5.3096   -1.1391   -1.5599 H   0  0  0  0  0  0  0  0  0  0  0  0
   -3.7750   -0.2913   -1.7943 H   0  0  0  0  0  0  0  0  0  0  0  0
   -4.5423   -2.5542    0.0509 H   0  0  0  0  0  0  0  0  0  0  0  0
   -3.6387   -1.3113    0.9065 H   0  0  0  0  0  0  0  0  0  0  0  0
   -2.3790   -2.0415   -1.7660 H   0  0  0  0  0  0  0  0  0  0  0  0
   -2.5815   -3.4364   -0.7261 H   0  0  0  0  0  0  0  0  0  0  0  0
   -0.9313   -3.8813    0.8091 H   0  0  0  0  0  0  0  0  0  0  0  0
   -1.6023   -3.4243    3.1767 H   0  0  0  0  0  0  0  0  0  0  0  0
   -2.9208   -3.2047    2.0183 H   0  0  0  0  0  0  0  0  0  0  0  0
   -2.0822   -1.7577    2.7354 H   0  0  0  0  0  0  0  0  0  0  0  0
    0.6612   -1.5662    2.0485 H   0  0  0  0  0  0  0  0  0  0  0  0
    1.2450   -2.8959    0.9502 H   0  0  0  0  0  0  0  0  0  0  0  0
    0.6844   -3.2772    2.5884 H   0  0  0  0  0  0  0  0  0  0  0  0
   -1.1904   -0.2594    1.3766 H   0  0  0  0  0  0  0  0  0  0  0  0
   -2.0169    0.0321   -0.1948 H   0  0  0  0  0  0  0  0  0  0  0  0
    1.1329   -1.5441   -0.7812 H   0  0  0  0  0  0  0  0  0  0  0  0
    6.3252   -1.6788   -1.6191 H   0  0  0  0  0  0  0  0  0  0  0  0
    4.9577   -2.7107   -1.0617 H   0  0  0  0  0  0  0  0  0  0  0  0
    6.9517   -2.9456    0.4306 H   0  0  0  0  0  0  0  0  0  0  0  0
    5.5105   -2.2996    1.2997 H   0  0  0  0  0  0  0  0  0  0  0  0
    7.9953   -0.9942    1.2832 H   0  0  0  0  0  0  0  0  0  0  0  0
    5.2133    1.4436   -0.6455 H   0  0  0  0  0  0  0  0  0  0  0  0
    4.3610    0.7913    0.8117 H   0  0  0  0  0  0  0  0  0  0  0  0
    3.2135    2.1349   -1.4720 H   0  0  0  0  0  0  0  0  0  0  0  0
    1.2414    3.4027   -0.8166 H   0  0  0  0  0  0  0  0  0  0  0  0
  1  2  1  0
  2  3  2  0
  2  4  1  0
  4  5  1  0
  5  6  1  0
  6  7  1  0
  7  8  1  0
  8  9  1  0
  9 10  1  0
 10 11  1  0
 11 12  1  0
 12 13  1  0
 13 14  1  0
 13 15  1  0
 12 16  1  0
 16 17  1  0
 17 18  2  0
 18 19  1  0
 19 20  1  0
 20 21  2  0
 20 22  1  0
 22 23  1  0
 23 24  1  0
 24 25  1  0
 25 26  1  0
 26 27  2  0
 26 28  1  0
 19 29  2  0
 29 30  1  0
 30 31  2  0
 31  4  1  0
 31 17  1  0
 28 22  1  0
  1 32  1  0
  1 33  1  0
  1 34  1  0
  5 35  1  0
  5 36  1  0
  6 37  1  0
  6 38  1  0
  7 39  1  0
  7 40  1  0
  8 41  1  0
  8 42  1  0
  9 43  1  0
  9 44  1  0
 10 45  1  0
 10 46  1  0
 11 47  1  0
 11 48  1  0
 13 49  1  0
 14 50  1  0
 14 51  1  0
 14 52  1  0
 15 53  1  0
 15 54  1  0
 15 55  1  0
 16 56  1  0
 16 57  1  0
 18 58  1  0
 23 59  1  0
 23 60  1  0
 24 61  1  0
 24 62  1  0
 25 63  1  0
 28 64  1  0
 28 65  1  0
 29 66  1  0
 30 67  1  0
M  END
$$$$
