
     RDKit          3D

102104  0  0  0  0  0  0  0  0999 V2000
   -0.2647    7.7882   -0.0066 C   0  0  0  0  0  0  0  0  0  0  0  0
   -0.5719    6.4186    0.2298 O   0  0  0  0  0  0  0  0  0  0  0  0
   -0.3762    5.3880   -0.7021 C   0  0  0  0  0  0  0  0  0  0  0  0
    0.1893    5.6122   -1.9699 C   0  0  0  0  0  0  0  0  0  0  0  0
    0.3649    4.5499   -2.8575 C   0  0  0  0  0  0  0  0  0  0  0  0
   -0.0232    3.2604   -2.4944 C   0  0  0  0  0  0  0  0  0  0  0  0
   -0.6105    3.0098   -1.2398 C   0  0  0  0  0  0  0  0  0  0  0  0
   -0.9813    1.5680   -0.8910 C   0  0  0  0  0  0  0  0  0  0  0  0
   -2.2306    1.3655    0.0548 C   0  0  0  0  0  0  0  0  0  0  0  0
   -3.6076    1.7336   -0.6192 C   0  0  0  0  0  0  0  0  0  0  0  0
   -3.8451    1.0807   -1.9910 C   0  0  0  0  0  0  0  0  0  0  0  0
   -3.8452    3.2476   -0.7181 C   0  0  0  0  0  0  0  0  0  0  0  0
   -2.2374   -0.0824    0.6488 C   0  0  0  0  0  0  0  0  0  0  0  0
   -3.4188   -0.4184    1.4639 N   0  0  0  0  0  0  0  0  0  0  0  0
   -3.8715    0.4543    2.5239 C   0  0  0  0  0  0  0  0  0  0  0  0
   -2.9234    1.2617    3.3575 C   0  0  0  0  0  0  0  0  0  0  0  0
   -5.1016    0.5179    2.7886 O   0  0  0  0  0  0  0  0  0  0  0  0
   -3.8754   -1.8244    1.4944 C   0  0  0  0  0  0  0  0  0  0  0  0
   -4.7853   -2.2216    0.2976 C   0  0  0  0  0  0  0  0  0  0  0  0
   -5.4820   -1.0772   -0.1717 O   0  0  0  0  0  0  0  0  0  0  0  0
   -6.7787   -1.0125    0.3785 C   0  0  0  0  0  0  0  0  0  0  0  0
   -4.0536   -2.8776   -0.9116 C   0  0  0  0  0  0  0  0  0  0  0  0
   -5.0287   -3.1764   -1.8796 O   0  0  0  0  0  0  0  0  0  0  0  0
   -3.2423   -4.1835   -0.6028 C   0  0  0  0  0  0  0  0  0  0  0  0
   -3.6260   -4.7659    0.6161 O   0  0  0  0  0  0  0  0  0  0  0  0
   -1.7220   -3.9502   -0.6009 C   0  0  0  0  0  0  0  0  0  0  0  0
   -1.3030   -3.5109   -1.8777 O   0  0  0  0  0  0  0  0  0  0  0  0
    0.1113   -3.4151   -1.9309 C   0  0  0  0  0  0  0  0  0  0  0  0
    0.5248   -2.2380   -2.8270 C   0  0  0  0  0  0  0  0  0  0  0  0
   -0.0145   -0.8849   -2.3291 C   0  0  0  0  0  0  0  0  0  0  0  0
    0.7973   -0.3355   -1.1324 C   0  0  0  0  0  0  0  0  0  0  0  0
    0.2251    0.8348   -0.4091 N   0  0  0  0  0  0  0  0  0  0  0  0
    0.8725    1.2483    0.8311 C   0  0  0  0  0  0  0  0  0  0  0  0
    0.4269    2.2298    1.4835 O   0  0  0  0  0  0  0  0  0  0  0  0
    2.0320    0.4965    1.4317 C   0  0  0  0  0  0  0  0  0  0  0  0
    3.1674    0.4880    0.5039 N   0  0  0  0  0  0  0  0  0  0  0  0
    4.2168   -0.4434    0.9394 C   0  0  0  0  0  0  0  0  0  0  0  0
    4.9853   -0.9407   -0.2838 C   0  0  0  0  0  0  0  0  0  0  0  0
    5.9144   -1.9589    0.0875 O   0  0  0  0  0  0  0  0  0  0  0  0
    7.1519   -1.7554    0.7245 C   0  0  0  0  0  0  0  0  0  0  0  0
    7.6956   -0.4677    0.9144 C   0  0  0  0  0  0  0  0  0  0  0  0
    8.9459   -0.3099    1.5168 C   0  0  0  0  0  0  0  0  0  0  0  0
    9.6692   -1.4276    1.9356 C   0  0  0  0  0  0  0  0  0  0  0  0
    9.1369   -2.7073    1.7654 C   0  0  0  0  0  0  0  0  0  0  0  0
    7.8752   -2.8807    1.1723 C   0  0  0  0  0  0  0  0  0  0  0  0
    7.3236   -4.2664    0.9861 C   0  0  0  0  0  0  0  0  0  0  0  0
   -0.7614    4.0916   -0.3430 C   0  0  0  0  0  0  0  0  0  0  0  0
   -0.5237    8.3763    0.8952 H   0  0  0  0  0  0  0  0  0  0  0  0
   -0.8608    8.1709   -0.8600 H   0  0  0  0  0  0  0  0  0  0  0  0
    0.8195    7.9091   -0.2097 H   0  0  0  0  0  0  0  0  0  0  0  0
    0.4978    6.6017   -2.2753 H   0  0  0  0  0  0  0  0  0  0  0  0
    0.8060    4.7262   -3.8308 H   0  0  0  0  0  0  0  0  0  0  0  0
    0.1316    2.4518   -3.1988 H   0  0  0  0  0  0  0  0  0  0  0  0
   -1.2933    1.1434   -1.8505 H   0  0  0  0  0  0  0  0  0  0  0  0
   -2.1078    2.0273    0.9278 H   0  0  0  0  0  0  0  0  0  0  0  0
   -4.4204    1.3728    0.0400 H   0  0  0  0  0  0  0  0  0  0  0  0
   -3.5496    0.0169   -1.9776 H   0  0  0  0  0  0  0  0  0  0  0  0
   -3.2772    1.6003   -2.7919 H   0  0  0  0  0  0  0  0  0  0  0  0
   -4.9232    1.1340   -2.2518 H   0  0  0  0  0  0  0  0  0  0  0  0
   -3.2052    3.7090   -1.4963 H   0  0  0  0  0  0  0  0  0  0  0  0
   -3.6569    3.7385    0.2594 H   0  0  0  0  0  0  0  0  0  0  0  0
   -4.9024    3.4456   -0.9961 H   0  0  0  0  0  0  0  0  0  0  0  0
   -1.3411   -0.2374    1.2812 H   0  0  0  0  0  0  0  0  0  0  0  0
   -2.1424   -0.8046   -0.1716 H   0  0  0  0  0  0  0  0  0  0  0  0
   -1.8763    0.9304    3.2178 H   0  0  0  0  0  0  0  0  0  0  0  0
   -3.0124    2.3360    3.0953 H   0  0  0  0  0  0  0  0  0  0  0  0
   -3.1787    1.1411    4.4310 H   0  0  0  0  0  0  0  0  0  0  0  0
   -3.0034   -2.4950    1.5904 H   0  0  0  0  0  0  0  0  0  0  0  0
   -4.4567   -2.0060    2.4260 H   0  0  0  0  0  0  0  0  0  0  0  0
   -5.4854   -3.0095    0.6699 H   0  0  0  0  0  0  0  0  0  0  0  0
   -7.4239   -1.8068   -0.0558 H   0  0  0  0  0  0  0  0  0  0  0  0
   -6.7622   -1.0985    1.4877 H   0  0  0  0  0  0  0  0  0  0  0  0
   -7.2244   -0.0297    0.1231 H   0  0  0  0  0  0  0  0  0  0  0  0
   -3.3716   -2.1234   -1.3471 H   0  0  0  0  0  0  0  0  0  0  0  0
   -4.5619   -3.2477   -2.7541 H   0  0  0  0  0  0  0  0  0  0  0  0
   -3.4251   -4.9249   -1.4189 H   0  0  0  0  0  0  0  0  0  0  0  0
   -4.4901   -5.2304    0.4548 H   0  0  0  0  0  0  0  0  0  0  0  0
   -1.2262   -4.9153   -0.3414 H   0  0  0  0  0  0  0  0  0  0  0  0
   -1.4526   -3.1962    0.1693 H   0  0  0  0  0  0  0  0  0  0  0  0
    0.5964   -3.3012   -0.9318 H   0  0  0  0  0  0  0  0  0  0  0  0
    0.5127   -4.3504   -2.3782 H   0  0  0  0  0  0  0  0  0  0  0  0
    0.1307   -2.4197   -3.8506 H   0  0  0  0  0  0  0  0  0  0  0  0
    1.6345   -2.2005   -2.8993 H   0  0  0  0  0  0  0  0  0  0  0  0
    0.0573   -0.1576   -3.1674 H   0  0  0  0  0  0  0  0  0  0  0  0
   -1.0836   -1.0117   -2.0803 H   0  0  0  0  0  0  0  0  0  0  0  0
    0.9284   -1.1605   -0.4030 H   0  0  0  0  0  0  0  0  0  0  0  0
    1.8004   -0.0561   -1.5237 H   0  0  0  0  0  0  0  0  0  0  0  0
    2.3415    0.9646    2.3950 H   0  0  0  0  0  0  0  0  0  0  0  0
    1.6867   -0.5351    1.6592 H   0  0  0  0  0  0  0  0  0  0  0  0
    3.5747    1.4523    0.4628 H   0  0  0  0  0  0  0  0  0  0  0  0
    3.7836   -1.3365    1.4466 H   0  0  0  0  0  0  0  0  0  0  0  0
    4.9066    0.0599    1.6556 H   0  0  0  0  0  0  0  0  0  0  0  0
    4.2575   -1.3898   -0.9939 H   0  0  0  0  0  0  0  0  0  0  0  0
    5.4940   -0.1060   -0.8141 H   0  0  0  0  0  0  0  0  0  0  0  0
    7.1700    0.4182    0.5904 H   0  0  0  0  0  0  0  0  0  0  0  0
    9.3590    0.6828    1.6526 H   0  0  0  0  0  0  0  0  0  0  0  0
   10.6448   -1.3014    2.3884 H   0  0  0  0  0  0  0  0  0  0  0  0
    9.7119   -3.5633    2.0966 H   0  0  0  0  0  0  0  0  0  0  0  0
    6.2595   -4.3008    1.3019 H   0  0  0  0  0  0  0  0  0  0  0  0
    7.8830   -5.0091    1.5951 H   0  0  0  0  0  0  0  0  0  0  0  0
    7.3976   -4.5542   -0.0836 H   0  0  0  0  0  0  0  0  0  0  0  0
   -1.1912    3.9574    0.6378 H   0  0  0  0  0  0  0  0  0  0  0  0
  1  2  1  0
  2  3  1  0
  3  4  2  0
  4  5  1  0
  5  6  2  0
  6  7  1  0
  7  8  1  0
  8  9  1  0
  9 10  1  0
 10 11  1  0
 10 12  1  0
  9 13  1  0
 13 14  1  0
 14 15  1  0
 15 16  1  0
 15 17  2  0
 14 18  1  0
 18 19  1  0
 19 20  1  0
 20 21  1  0
 19 22  1  0
 22 23  1  0
 22 24  1  0
 24 25  1  0
 24 26  1  0
 26 27  1  0
 27 28  1  0
 28 29  1  0
 29 30  1  0
 30 31  1  0
 31 32  1  0
 32 33  1  0
 33 34  2  0
 33 35  1  0
 35 36  1  0
 36 37  1  0
 37 38  1  0
 38 39  1  0
 39 40  1  0
 40 41  2  0
 41 42  1  0
 42 43  2  0
 43 44  1  0
 44 45  2  0
 45 46  1  0
  7 47  2  0
 47  3  1  0
 32  8  1  0
 45 40  1  0
  1 48  1  0
  1 49  1  0
  1 50  1  0
  4 51  1  0
  5 52  1  0
  6 53  1  0
  8 54  1  0
  9 55  1  0
 10 56  1  0
 11 57  1  0
 11 58  1  0
 11 59  1  0
 12 60  1  0
 12 61  1  0
 12 62  1  0
 13 63  1  0
 13 64  1  0
 16 65  1  0
 16 66  1  0
 16 67  1  0
 18 68  1  0
 18 69  1  0
 19 70  1  0
 21 71  1  0
 21 72  1  0
 21 73  1  0
 22 74  1  0
 23 75  1  0
 24 76  1  0
 25 77  1  0
 26 78  1  0
 26 79  1  0
 28 80  1  0
 28 81  1  0
 29 82  1  0
 29 83  1  0
 30 84  1  0
 30 85  1  0
 31 86  1  0
 31 87  1  0
 35 88  1  0
 35 89  1  0
 36 90  1  0
 37 91  1  0
 37 92  1  0
 38 93  1  0
 38 94  1  0
 41 95  1  0
 42 96  1  0
 43 97  1  0
 44 98  1  0
 46 99  1  0
 46100  1  0
 46101  1  0
 47102  1  0
M  END
$$$$
