
     RDKit          3D

 77 80  0  0  0  0  0  0  0  0999 V2000
   -1.3397    1.8679    2.9831 C   0  0  0  0  0  0  0  0  0  0  0  0
   -2.1457    2.5289    1.8979 C   0  0  0  0  0  0  0  0  0  0  0  0
   -3.0412    3.3475    2.2445 O   0  0  0  0  0  0  0  0  0  0  0  0
   -1.9089    2.2682    0.4915 N   0  0  0  0  0  0  0  0  0  0  0  0
   -2.1277    3.3513   -0.4902 C   0  0  0  0  0  0  0  0  0  0  0  0
   -3.6096    3.7372   -0.6859 C   0  0  0  0  0  0  0  0  0  0  0  0
   -4.5629    2.5502   -0.8653 C   0  0  0  0  0  0  0  0  0  0  0  0
   -4.2145    1.6870   -2.0922 C   0  0  0  0  0  0  0  0  0  0  0  0
   -5.1658    0.4869   -2.2760 C   0  0  0  0  0  0  0  0  0  0  0  0
   -5.0966   -0.5660   -1.1527 C   0  0  0  0  0  0  0  0  0  0  0  0
   -3.7643   -1.3608   -1.1342 C   0  0  0  0  0  0  0  0  0  0  0  0
   -3.3142   -1.7564    0.2296 N   0  0  0  0  0  0  0  0  0  0  0  0
   -4.3299   -2.5416    1.0033 C   0  0  0  0  0  0  0  0  0  0  0  0
   -4.7736   -3.8002    0.2278 C   0  0  0  0  0  0  0  0  0  0  0  0
   -3.7820   -3.0098    2.3662 C   0  0  0  0  0  0  0  0  0  0  0  0
   -2.7329   -0.5963    0.9600 C   0  0  0  0  0  0  0  0  0  0  0  0
   -1.3985   -0.1881    0.3695 C   0  0  0  0  0  0  0  0  0  0  0  0
   -0.4436   -1.1986    0.1454 C   0  0  0  0  0  0  0  0  0  0  0  0
    0.8310   -0.8897   -0.3410 C   0  0  0  0  0  0  0  0  0  0  0  0
    1.8512   -1.9497   -0.4844 C   0  0  0  0  0  0  0  0  0  0  0  0
    1.4994   -3.0932   -0.8856 O   0  0  0  0  0  0  0  0  0  0  0  0
    3.2360   -1.6957   -0.1708 N   0  0  0  0  0  0  0  0  0  0  0  0
    3.6179   -0.9338    1.0203 C   0  0  0  0  0  0  0  0  0  0  0  0
    4.6828    0.0988    0.6554 C   0  0  0  0  0  0  0  0  0  0  0  0
    5.7511   -0.5000   -0.1655 N   0  0  0  0  0  0  0  0  0  0  0  0
    7.0753    0.0724   -0.1496 C   0  0  0  0  0  0  0  0  0  0  0  0
    7.2790    1.4425    0.1050 C   0  0  0  0  0  0  0  0  0  0  0  0
    8.5739    1.9628    0.0732 C   0  0  0  0  0  0  0  0  0  0  0  0
    9.6541    1.1240   -0.2037 C   0  0  0  0  0  0  0  0  0  0  0  0
    9.4216   -0.2287   -0.4510 C   0  0  0  0  0  0  0  0  0  0  0  0
    8.1534   -0.7175   -0.4221 N   0  0  0  0  0  0  0  0  0  0  0  0
    5.3824   -1.3772   -1.2909 C   0  0  0  0  0  0  0  0  0  0  0  0
    4.3123   -2.3888   -0.8800 C   0  0  0  0  0  0  0  0  0  0  0  0
    1.1449    0.4413   -0.6483 C   0  0  0  0  0  0  0  0  0  0  0  0
    0.2141    1.4531   -0.4234 C   0  0  0  0  0  0  0  0  0  0  0  0
   -1.0518    1.1665    0.1129 C   0  0  0  0  0  0  0  0  0  0  0  0
   -0.3915    1.4497    2.5999 H   0  0  0  0  0  0  0  0  0  0  0  0
   -1.0832    2.6123    3.7644 H   0  0  0  0  0  0  0  0  0  0  0  0
   -1.9309    1.0507    3.4488 H   0  0  0  0  0  0  0  0  0  0  0  0
   -1.5598    4.2487   -0.1673 H   0  0  0  0  0  0  0  0  0  0  0  0
   -1.7163    3.0670   -1.4823 H   0  0  0  0  0  0  0  0  0  0  0  0
   -3.9556    4.3472    0.1754 H   0  0  0  0  0  0  0  0  0  0  0  0
   -3.6898    4.3943   -1.5794 H   0  0  0  0  0  0  0  0  0  0  0  0
   -4.5532    1.9593    0.0680 H   0  0  0  0  0  0  0  0  0  0  0  0
   -5.5927    2.9503   -0.9914 H   0  0  0  0  0  0  0  0  0  0  0  0
   -3.1680    1.3348   -2.0328 H   0  0  0  0  0  0  0  0  0  0  0  0
   -4.2825    2.3234   -3.0042 H   0  0  0  0  0  0  0  0  0  0  0  0
   -4.9329   -0.0090   -3.2454 H   0  0  0  0  0  0  0  0  0  0  0  0
   -6.2095    0.8645   -2.3462 H   0  0  0  0  0  0  0  0  0  0  0  0
   -5.9277   -1.2838   -1.3136 H   0  0  0  0  0  0  0  0  0  0  0  0
   -5.3151   -0.0867   -0.1812 H   0  0  0  0  0  0  0  0  0  0  0  0
   -2.9548   -0.7995   -1.6421 H   0  0  0  0  0  0  0  0  0  0  0  0
   -3.8677   -2.2630   -1.7760 H   0  0  0  0  0  0  0  0  0  0  0  0
   -5.2322   -1.9263    1.1999 H   0  0  0  0  0  0  0  0  0  0  0  0
   -5.3715   -3.5362   -0.6691 H   0  0  0  0  0  0  0  0  0  0  0  0
   -5.4316   -4.4442    0.8532 H   0  0  0  0  0  0  0  0  0  0  0  0
   -3.8895   -4.3929   -0.0867 H   0  0  0  0  0  0  0  0  0  0  0  0
   -2.7454   -3.3892    2.2574 H   0  0  0  0  0  0  0  0  0  0  0  0
   -3.8097   -2.1852    3.1073 H   0  0  0  0  0  0  0  0  0  0  0  0
   -4.4078   -3.8200    2.8062 H   0  0  0  0  0  0  0  0  0  0  0  0
   -3.4436    0.2483    0.9933 H   0  0  0  0  0  0  0  0  0  0  0  0
   -2.5107   -0.8486    2.0121 H   0  0  0  0  0  0  0  0  0  0  0  0
   -0.6843   -2.2307    0.3799 H   0  0  0  0  0  0  0  0  0  0  0  0
    2.7464   -0.4179    1.4777 H   0  0  0  0  0  0  0  0  0  0  0  0
    4.0291   -1.6319    1.7809 H   0  0  0  0  0  0  0  0  0  0  0  0
    4.2146    0.9359    0.0959 H   0  0  0  0  0  0  0  0  0  0  0  0
    5.1102    0.5072    1.6011 H   0  0  0  0  0  0  0  0  0  0  0  0
    6.4531    2.1072    0.3043 H   0  0  0  0  0  0  0  0  0  0  0  0
    8.7403    3.0155    0.2629 H   0  0  0  0  0  0  0  0  0  0  0  0
   10.6594    1.5178   -0.2311 H   0  0  0  0  0  0  0  0  0  0  0  0
   10.2484   -0.8899   -0.6641 H   0  0  0  0  0  0  0  0  0  0  0  0
    6.2671   -1.9381   -1.6608 H   0  0  0  0  0  0  0  0  0  0  0  0
    4.9963   -0.7525   -2.1268 H   0  0  0  0  0  0  0  0  0  0  0  0
    3.9312   -2.8992   -1.7913 H   0  0  0  0  0  0  0  0  0  0  0  0
    4.7579   -3.1578   -0.2100 H   0  0  0  0  0  0  0  0  0  0  0  0
    2.1173    0.6995   -1.0482 H   0  0  0  0  0  0  0  0  0  0  0  0
    0.5093    2.4748   -0.6115 H   0  0  0  0  0  0  0  0  0  0  0  0
  1  2  1  0
  2  3  2  0
  2  4  1  0
  4  5  1  0
  5  6  1  0
  6  7  1  0
  7  8  1  0
  8  9  1  0
  9 10  1  0
 10 11  1  0
 11 12  1  0
 12 13  1  0
 13 14  1  0
 13 15  1  0
 12 16  1  0
 16 17  1  0
 17 18  2  0
 18 19  1  0
 19 20  1  0
 20 21  2  0
 20 22  1  0
 22 23  1  0
 23 24  1  0
 24 25  1  0
 25 26  1  0
 26 27  2  0
 27 28  1  0
 28 29  2  0
 29 30  1  0
 30 31  2  0
 25 32  1  0
 32 33  1  0
 19 34  2  0
 34 35  1  0
 35 36  2  0
 36  4  1  0
 36 17  1  0
 33 22  1  0
 31 26  1  0
  1 37  1  0
  1 38  1  0
  1 39  1  0
  5 40  1  0
  5 41  1  0
  6 42  1  0
  6 43  1  0
  7 44  1  0
  7 45  1  0
  8 46  1  0
  8 47  1  0
  9 48  1  0
  9 49  1  0
 10 50  1  0
 10 51  1  0
 11 52  1  0
 11 53  1  0
 13 54  1  0
 14 55  1  0
 14 56  1  0
 14 57  1  0
 15 58  1  0
 15 59  1  0
 15 60  1  0
 16 61  1  0
 16 62  1  0
 18 63  1  0
 23 64  1  0
 23 65  1  0
 24 66  1  0
 24 67  1  0
 27 68  1  0
 28 69  1  0
 29 70  1  0
 30 71  1  0
 32 72  1  0
 32 73  1  0
 33 74  1  0
 33 75  1  0
 34 76  1  0
 35 77  1  0
M  END
$$$$
