
     RDKit          3D

 63 65  0  0  0  0  0  0  0  0999 V2000
   -3.3357    0.2255    3.0439 C   0  0  0  0  0  0  0  0  0  0  0  0
   -3.2144    1.4371    2.1250 C   0  0  0  0  0  0  0  0  0  0  0  0
   -3.7561    1.1248    0.7557 C   0  0  0  0  0  0  0  0  0  0  0  0
   -4.9736    0.8147    0.6380 O   0  0  0  0  0  0  0  0  0  0  0  0
   -2.9050    1.1424   -0.4096 N   0  0  0  0  0  0  0  0  0  0  0  0
   -3.2885    0.3681   -1.6062 C   0  0  0  0  0  0  0  0  0  0  0  0
   -3.3921   -1.1549   -1.3084 C   0  0  0  0  0  0  0  0  0  0  0  0
   -2.4179   -2.0493   -2.1213 C   0  0  0  0  0  0  0  0  0  0  0  0
   -1.2786   -2.5059   -1.2831 N   0  0  0  0  0  0  0  0  0  0  0  0
   -1.6594   -3.6986   -0.4994 C   0  0  0  0  0  0  0  0  0  0  0  0
   -0.0556   -2.7773   -2.0802 C   0  0  0  0  0  0  0  0  0  0  0  0
    1.2303   -2.5388   -1.2461 C   0  0  0  0  0  0  0  0  0  0  0  0
    1.8494   -1.1308   -1.4075 C   0  0  0  0  0  0  0  0  0  0  0  0
    1.1931   -0.1337   -0.5402 N   0  0  0  0  0  0  0  0  0  0  0  0
    1.6641    0.0788    0.8101 C   0  0  0  0  0  0  0  0  0  0  0  0
    0.8304    0.2879    1.7346 O   0  0  0  0  0  0  0  0  0  0  0  0
    3.0970    0.0280    1.1647 C   0  0  0  0  0  0  0  0  0  0  0  0
    3.6135   -0.4928    2.3335 C   0  0  0  0  0  0  0  0  0  0  0  0
    4.9389   -0.2646    2.3465 N   0  0  0  0  0  0  0  0  0  0  0  0
    5.8438   -0.5797    3.4432 C   0  0  0  0  0  0  0  0  0  0  0  0
    5.2952    0.4136    1.2677 N   0  0  0  0  0  0  0  0  0  0  0  0
    4.1920    0.5899    0.5135 C   0  0  0  0  0  0  0  0  0  0  0  0
    4.1770    1.4752   -0.6920 C   0  0  0  0  0  0  0  0  0  0  0  0
   -0.1825    0.2497   -0.8851 C   0  0  0  0  0  0  0  0  0  0  0  0
   -0.4972    1.7131   -0.7193 C   0  0  0  0  0  0  0  0  0  0  0  0
    0.4937    2.6941   -0.8899 C   0  0  0  0  0  0  0  0  0  0  0  0
    0.1798    4.0491   -0.7603 C   0  0  0  0  0  0  0  0  0  0  0  0
    1.1506    4.9839   -0.9076 F   0  0  0  0  0  0  0  0  0  0  0  0
   -1.1324    4.4414   -0.4883 C   0  0  0  0  0  0  0  0  0  0  0  0
   -1.4358    5.7576   -0.3641 F   0  0  0  0  0  0  0  0  0  0  0  0
   -2.1379    3.4798   -0.3667 C   0  0  0  0  0  0  0  0  0  0  0  0
   -1.8384    2.1138   -0.5005 C   0  0  0  0  0  0  0  0  0  0  0  0
   -2.9103    0.4684    4.0404 H   0  0  0  0  0  0  0  0  0  0  0  0
   -2.7774   -0.6374    2.6188 H   0  0  0  0  0  0  0  0  0  0  0  0
   -4.4045   -0.0538    3.1743 H   0  0  0  0  0  0  0  0  0  0  0  0
   -2.1431    1.7263    2.0740 H   0  0  0  0  0  0  0  0  0  0  0  0
   -3.7831    2.2904    2.5552 H   0  0  0  0  0  0  0  0  0  0  0  0
   -4.2754    0.7375   -1.9604 H   0  0  0  0  0  0  0  0  0  0  0  0
   -2.5907    0.5777   -2.4439 H   0  0  0  0  0  0  0  0  0  0  0  0
   -3.2686   -1.3449   -0.2217 H   0  0  0  0  0  0  0  0  0  0  0  0
   -4.4287   -1.4757   -1.5492 H   0  0  0  0  0  0  0  0  0  0  0  0
   -2.9754   -2.9245   -2.5259 H   0  0  0  0  0  0  0  0  0  0  0  0
   -2.0752   -1.4959   -3.0212 H   0  0  0  0  0  0  0  0  0  0  0  0
   -1.9123   -4.5527   -1.1645 H   0  0  0  0  0  0  0  0  0  0  0  0
   -0.8319   -4.0066    0.1729 H   0  0  0  0  0  0  0  0  0  0  0  0
   -2.5355   -3.4834    0.1469 H   0  0  0  0  0  0  0  0  0  0  0  0
   -0.0605   -3.8267   -2.4534 H   0  0  0  0  0  0  0  0  0  0  0  0
   -0.0062   -2.1490   -2.9956 H   0  0  0  0  0  0  0  0  0  0  0  0
    1.9905   -3.2737   -1.5909 H   0  0  0  0  0  0  0  0  0  0  0  0
    1.0611   -2.7475   -0.1691 H   0  0  0  0  0  0  0  0  0  0  0  0
    1.8036   -0.7989   -2.4684 H   0  0  0  0  0  0  0  0  0  0  0  0
    2.9294   -1.2071   -1.1627 H   0  0  0  0  0  0  0  0  0  0  0  0
    3.0586   -0.9749    3.1288 H   0  0  0  0  0  0  0  0  0  0  0  0
    5.7072    0.1582    4.2612 H   0  0  0  0  0  0  0  0  0  0  0  0
    5.6317   -1.5995    3.8292 H   0  0  0  0  0  0  0  0  0  0  0  0
    6.8966   -0.5429    3.0922 H   0  0  0  0  0  0  0  0  0  0  0  0
    3.4842    1.0943   -1.4654 H   0  0  0  0  0  0  0  0  0  0  0  0
    5.1930    1.5196   -1.1361 H   0  0  0  0  0  0  0  0  0  0  0  0
    3.8744    2.5000   -0.3926 H   0  0  0  0  0  0  0  0  0  0  0  0
   -0.3935   -0.0018   -1.9440 H   0  0  0  0  0  0  0  0  0  0  0  0
   -0.8570   -0.3272   -0.2211 H   0  0  0  0  0  0  0  0  0  0  0  0
    1.5087    2.4135   -1.1254 H   0  0  0  0  0  0  0  0  0  0  0  0
   -3.1571    3.7963   -0.1830 H   0  0  0  0  0  0  0  0  0  0  0  0
  1  2  1  0
  2  3  1  0
  3  4  2  0
  3  5  1  0
  5  6  1  0
  6  7  1  0
  7  8  1  0
  8  9  1  0
  9 10  1  0
  9 11  1  0
 11 12  1  0
 12 13  1  0
 13 14  1  0
 14 15  1  0
 15 16  2  0
 15 17  1  0
 17 18  2  0
 18 19  1  0
 19 20  1  0
 19 21  1  0
 21 22  2  0
 22 23  1  0
 14 24  1  0
 24 25  1  0
 25 26  2  0
 26 27  1  0
 27 28  1  0
 27 29  2  0
 29 30  1  0
 29 31  1  0
 31 32  2  0
 32  5  1  0
 22 17  1  0
 32 25  1  0
  1 33  1  0
  1 34  1  0
  1 35  1  0
  2 36  1  0
  2 37  1  0
  6 38  1  0
  6 39  1  0
  7 40  1  0
  7 41  1  0
  8 42  1  0
  8 43  1  0
 10 44  1  0
 10 45  1  0
 10 46  1  0
 11 47  1  0
 11 48  1  0
 12 49  1  0
 12 50  1  0
 13 51  1  0
 13 52  1  0
 18 53  1  0
 20 54  1  0
 20 55  1  0
 20 56  1  0
 23 57  1  0
 23 58  1  0
 23 59  1  0
 24 60  1  0
 24 61  1  0
 26 62  1  0
 31 63  1  0
M  END
$$$$
