
     RDKit          3D

 82 85  0  0  0  0  0  0  0  0999 V2000
   -2.9147   -4.7287    1.0309 C   0  0  0  0  0  0  0  0  0  0  0  0
   -1.8512   -3.7090    1.4470 C   0  0  0  0  0  0  0  0  0  0  0  0
   -1.4579   -2.7267    0.3172 C   0  0  2  0  0  0  0  0  0  0  0  0
   -2.6221   -1.9916   -0.2260 N   0  0  0  0  0  0  0  0  0  0  0  0
   -3.2845   -1.1511    0.7894 C   0  0  0  0  0  0  0  0  0  0  0  0
   -4.0836   -0.0146    0.1283 C   0  0  0  0  0  0  0  0  0  0  0  0
   -5.1042    0.6029    1.0974 C   0  0  0  0  0  0  0  0  0  0  0  0
   -5.8506    1.7552    0.4058 C   0  0  0  0  0  0  0  0  0  0  0  0
   -4.9010    2.7157   -0.2664 C   0  0  0  0  0  0  0  0  0  0  0  0
   -5.3214    4.0150   -0.5917 C   0  0  0  0  0  0  0  0  0  0  0  0
   -4.4300    4.9142   -1.1827 C   0  0  0  0  0  0  0  0  0  0  0  0
   -3.1117    4.5308   -1.4391 C   0  0  0  0  0  0  0  0  0  0  0  0
   -2.6812    3.2275   -1.1469 C   0  0  0  0  0  0  0  0  0  0  0  0
   -3.5897    2.3086   -0.5878 C   0  0  0  0  0  0  0  0  0  0  0  0
   -3.1788    0.9974   -0.3135 O   0  0  0  0  0  0  0  0  0  0  0  0
   -1.2258    2.8632   -1.2990 C   0  0  0  0  0  0  0  0  0  0  0  0
   -0.4500    3.1583    0.0041 C   0  0  0  0  0  0  0  0  0  0  0  0
    0.5710    2.0647    0.3393 C   0  0  0  0  0  0  0  0  0  0  0  0
    1.6575    2.0183   -0.6433 N   0  0  0  0  0  0  0  0  0  0  0  0
    2.7833    1.1216   -0.6134 C   0  0  0  0  0  0  0  0  0  0  0  0
    3.6484    1.2351   -1.5218 O   0  0  0  0  0  0  0  0  0  0  0  0
    3.0397    0.0833    0.4679 C   0  0  1  0  0  0  0  0  0  0  0  0
    3.6537    0.7122    1.7353 C   0  0  0  0  0  0  0  0  0  0  0  0
    4.9828    1.3702    1.4638 C   0  0  0  0  0  0  0  0  0  0  0  0
    5.0834    2.7701    1.3733 C   0  0  0  0  0  0  0  0  0  0  0  0
    6.3208    3.3713    1.1218 C   0  0  0  0  0  0  0  0  0  0  0  0
    7.4625    2.5813    0.9512 C   0  0  0  0  0  0  0  0  0  0  0  0
    7.3680    1.1903    1.0303 C   0  0  0  0  0  0  0  0  0  0  0  0
    6.1334    0.5845    1.2838 C   0  0  0  0  0  0  0  0  0  0  0  0
    1.8290   -0.6680    0.8111 N   0  0  0  0  0  0  0  0  0  0  0  0
    1.7409   -2.0922    0.6630 C   0  0  0  0  0  0  0  0  0  0  0  0
    1.6517   -2.7967    1.7043 O   0  0  0  0  0  0  0  0  0  0  0  0
    1.7208   -2.7980   -0.6795 C   0  0  2  0  0  0  0  0  0  0  0  0
    1.7337   -1.9082   -1.9570 C   0  0  0  0  0  0  0  0  0  0  0  0
    0.5054   -1.0071   -2.1283 C   0  0  0  0  0  0  0  0  0  0  0  0
    1.8479   -2.7207   -3.0974 O   0  0  0  0  0  0  0  0  0  0  0  0
    0.6437   -3.8169   -0.7288 N   0  0  0  0  0  0  0  0  0  0  0  0
    0.9920   -5.2351   -0.8736 C   0  0  0  0  0  0  0  0  0  0  0  0
   -0.7569   -3.4843   -0.7932 C   0  0  0  0  0  0  0  0  0  0  0  0
   -1.4548   -3.9749   -1.7231 O   0  0  0  0  0  0  0  0  0  0  0  0
   -2.5198   -5.4123    0.2522 H   0  0  0  0  0  0  0  0  0  0  0  0
   -3.1996   -5.3411    1.9125 H   0  0  0  0  0  0  0  0  0  0  0  0
   -3.8236   -4.2169    0.6511 H   0  0  0  0  0  0  0  0  0  0  0  0
   -2.2221   -3.1446    2.3293 H   0  0  0  0  0  0  0  0  0  0  0  0
   -0.9449   -4.2559    1.7876 H   0  0  0  0  0  0  0  0  0  0  0  0
   -0.7589   -1.9882    0.7473 H   0  0  0  0  0  0  0  0  0  0  0  0
   -2.2623   -1.3659   -0.9846 H   0  0  0  0  0  0  0  0  0  0  0  0
   -3.9804   -1.7902    1.3746 H   0  0  0  0  0  0  0  0  0  0  0  0
   -2.5471   -0.7025    1.4945 H   0  0  0  0  0  0  0  0  0  0  0  0
   -4.6329   -0.4178   -0.7512 H   0  0  0  0  0  0  0  0  0  0  0  0
   -5.8393   -0.1642    1.4242 H   0  0  0  0  0  0  0  0  0  0  0  0
   -4.5786    0.9934    1.9967 H   0  0  0  0  0  0  0  0  0  0  0  0
   -6.4481    2.2976    1.1687 H   0  0  0  0  0  0  0  0  0  0  0  0
   -6.5508    1.3442   -0.3529 H   0  0  0  0  0  0  0  0  0  0  0  0
   -6.3343    4.3330   -0.3732 H   0  0  0  0  0  0  0  0  0  0  0  0
   -4.7534    5.9194   -1.4147 H   0  0  0  0  0  0  0  0  0  0  0  0
   -2.4192    5.2531   -1.8506 H   0  0  0  0  0  0  0  0  0  0  0  0
   -1.1452    1.7934   -1.5850 H   0  0  0  0  0  0  0  0  0  0  0  0
   -0.7758    3.4336   -2.1392 H   0  0  0  0  0  0  0  0  0  0  0  0
    0.0666    4.1409   -0.0817 H   0  0  0  0  0  0  0  0  0  0  0  0
   -1.1516    3.2325    0.8680 H   0  0  0  0  0  0  0  0  0  0  0  0
    0.9886    2.2684    1.3473 H   0  0  0  0  0  0  0  0  0  0  0  0
    0.0273    1.1013    0.3623 H   0  0  0  0  0  0  0  0  0  0  0  0
    1.6423    2.7128   -1.4283 H   0  0  0  0  0  0  0  0  0  0  0  0
    3.7908   -0.6368    0.0701 H   0  0  0  0  0  0  0  0  0  0  0  0
    3.8019   -0.0850    2.4972 H   0  0  0  0  0  0  0  0  0  0  0  0
    2.9512    1.4443    2.1815 H   0  0  0  0  0  0  0  0  0  0  0  0
    4.2072    3.3946    1.5060 H   0  0  0  0  0  0  0  0  0  0  0  0
    6.3967    4.4503    1.0658 H   0  0  0  0  0  0  0  0  0  0  0  0
    8.4185    3.0477    0.7557 H   0  0  0  0  0  0  0  0  0  0  0  0
    8.2520    0.5771    0.8978 H   0  0  0  0  0  0  0  0  0  0  0  0
    6.0718   -0.4966    1.3388 H   0  0  0  0  0  0  0  0  0  0  0  0
    1.2424   -0.2812    1.5846 H   0  0  0  0  0  0  0  0  0  0  0  0
    2.7054   -3.3154   -0.7054 H   0  0  0  0  0  0  0  0  0  0  0  0
    2.6265   -1.2520   -1.9129 H   0  0  0  0  0  0  0  0  0  0  0  0
    0.7600   -0.1557   -2.7933 H   0  0  0  0  0  0  0  0  0  0  0  0
    0.1565   -0.6045   -1.1599 H   0  0  0  0  0  0  0  0  0  0  0  0
   -0.3300   -1.5627   -2.5984 H   0  0  0  0  0  0  0  0  0  0  0  0
    2.7752   -3.0807   -3.1053 H   0  0  0  0  0  0  0  0  0  0  0  0
    0.4759   -5.8281   -0.0908 H   0  0  0  0  0  0  0  0  0  0  0  0
    2.0825   -5.4075   -0.7646 H   0  0  0  0  0  0  0  0  0  0  0  0
    0.6792   -5.5998   -1.8744 H   0  0  0  0  0  0  0  0  0  0  0  0
  1  2  1  0
  2  3  1  0
  3  4  1  0
  4  5  1  0
  5  6  1  0
  6  7  1  0
  7  8  1  0
  8  9  1  0
  9 10  1  0
 10 11  2  0
 11 12  1  0
 12 13  2  0
 13 14  1  0
 14 15  1  0
 13 16  1  0
 16 17  1  0
 17 18  1  0
 18 19  1  0
 19 20  1  0
 20 21  2  0
 20 22  1  0
 22 23  1  0
 23 24  1  0
 24 25  2  0
 25 26  1  0
 26 27  2  0
 27 28  1  0
 28 29  2  0
 22 30  1  0
 30 31  1  0
 31 32  2  0
 31 33  1  0
 33 34  1  0
 34 35  1  0
 34 36  1  0
 33 37  1  0
 37 38  1  0
 37 39  1  0
 39 40  2  0
 39  3  1  0
 15  6  1  0
 29 24  1  0
 14  9  2  0
  1 41  1  0
  1 42  1  0
  1 43  1  0
  2 44  1  0
  2 45  1  0
  3 46  1  1
  4 47  1  0
  5 48  1  0
  5 49  1  0
  6 50  1  0
  7 51  1  0
  7 52  1  0
  8 53  1  0
  8 54  1  0
 10 55  1  0
 11 56  1  0
 12 57  1  0
 16 58  1  0
 16 59  1  0
 17 60  1  0
 17 61  1  0
 18 62  1  0
 18 63  1  0
 19 64  1  0
 22 65  1  6
 23 66  1  0
 23 67  1  0
 25 68  1  0
 26 69  1  0
 27 70  1  0
 28 71  1  0
 29 72  1  0
 30 73  1  0
 33 74  1  6
 34 75  1  0
 35 76  1  0
 35 77  1  0
 35 78  1  0
 36 79  1  0
 38 80  1  0
 38 81  1  0
 38 82  1  0
M  END
$$$$
