
     RDKit          3D

 70 72  0  0  0  0  0  0  0  0999 V2000
   -1.2466    2.1374    2.4572 C   0  0  0  0  0  0  0  0  0  0  0  0
   -1.4029    2.8889    1.1694 C   0  0  0  0  0  0  0  0  0  0  0  0
   -1.5571    4.1382    1.2198 O   0  0  0  0  0  0  0  0  0  0  0  0
   -1.3042    2.2103   -0.1046 N   0  0  0  0  0  0  0  0  0  0  0  0
   -1.7809    2.8495   -1.3517 C   0  0  0  0  0  0  0  0  0  0  0  0
   -3.0981    3.6650   -1.2434 C   0  0  0  0  0  0  0  0  0  0  0  0
   -4.2634    2.9985   -0.4889 C   0  0  0  0  0  0  0  0  0  0  0  0
   -4.8912    1.8169   -1.2557 C   0  0  0  0  0  0  0  0  0  0  0  0
   -5.5817    0.7944   -0.3202 C   0  0  0  0  0  0  0  0  0  0  0  0
   -4.7679   -0.5007   -0.1308 C   0  0  0  0  0  0  0  0  0  0  0  0
   -3.5387   -0.3082    0.7925 C   0  0  0  0  0  0  0  0  0  0  0  0
   -2.3747   -1.1566    0.4320 N   0  0  0  0  0  0  0  0  0  0  0  0
   -2.6557   -2.6248    0.4893 C   0  0  0  0  0  0  0  0  0  0  0  0
   -3.2900   -3.0340    1.8369 C   0  0  0  0  0  0  0  0  0  0  0  0
   -1.3620   -3.4446    0.3146 C   0  0  0  0  0  0  0  0  0  0  0  0
   -1.7682   -0.6963   -0.8491 C   0  0  0  0  0  0  0  0  0  0  0  0
   -0.4018   -0.0881   -0.6162 C   0  0  0  0  0  0  0  0  0  0  0  0
    0.7289   -0.9127   -0.7755 C   0  0  0  0  0  0  0  0  0  0  0  0
    2.0233   -0.4371   -0.5228 C   0  0  0  0  0  0  0  0  0  0  0  0
    3.1910   -1.3292   -0.6955 C   0  0  0  0  0  0  0  0  0  0  0  0
    3.1424   -2.2507   -1.5535 O   0  0  0  0  0  0  0  0  0  0  0  0
    4.3718   -1.1607    0.1067 N   0  0  0  0  0  0  0  0  0  0  0  0
    5.6095   -1.9056   -0.1593 C   0  0  0  0  0  0  0  0  0  0  0  0
    6.5424   -1.8787    1.0701 C   0  0  0  0  0  0  0  0  0  0  0  0
    7.4361   -0.6227    1.0894 C   0  0  0  0  0  0  0  0  0  0  0  0
    6.8651    0.4217    0.3264 O   0  0  0  0  0  0  0  0  0  0  0  0
    6.9063    0.0979   -1.0550 C   0  0  0  0  0  0  0  0  0  0  0  0
    6.3350   -1.3050   -1.3733 C   0  0  0  0  0  0  0  0  0  0  0  0
    2.1950    0.8976   -0.1400 C   0  0  0  0  0  0  0  0  0  0  0  0
    1.0936    1.7402   -0.0119 C   0  0  0  0  0  0  0  0  0  0  0  0
   -0.2121    1.2715   -0.2408 C   0  0  0  0  0  0  0  0  0  0  0  0
   -1.2745    1.0410    2.2858 H   0  0  0  0  0  0  0  0  0  0  0  0
   -0.2738    2.4025    2.9240 H   0  0  0  0  0  0  0  0  0  0  0  0
   -2.0720    2.4083    3.1497 H   0  0  0  0  0  0  0  0  0  0  0  0
   -0.9884    3.5379   -1.7161 H   0  0  0  0  0  0  0  0  0  0  0  0
   -1.9032    2.0869   -2.1471 H   0  0  0  0  0  0  0  0  0  0  0  0
   -2.8825    4.6445   -0.7669 H   0  0  0  0  0  0  0  0  0  0  0  0
   -3.4393    3.9098   -2.2730 H   0  0  0  0  0  0  0  0  0  0  0  0
   -5.0563    3.7637   -0.3418 H   0  0  0  0  0  0  0  0  0  0  0  0
   -3.9489    2.7237    0.5319 H   0  0  0  0  0  0  0  0  0  0  0  0
   -5.6485    2.2311   -1.9563 H   0  0  0  0  0  0  0  0  0  0  0  0
   -4.1459    1.3147   -1.8996 H   0  0  0  0  0  0  0  0  0  0  0  0
   -6.5553    0.5102   -0.7775 H   0  0  0  0  0  0  0  0  0  0  0  0
   -5.8226    1.2421    0.6686 H   0  0  0  0  0  0  0  0  0  0  0  0
   -5.4325   -1.2666    0.3228 H   0  0  0  0  0  0  0  0  0  0  0  0
   -4.4793   -0.8945   -1.1282 H   0  0  0  0  0  0  0  0  0  0  0  0
   -3.2095    0.7378    0.7775 H   0  0  0  0  0  0  0  0  0  0  0  0
   -3.8290   -0.4670    1.8512 H   0  0  0  0  0  0  0  0  0  0  0  0
   -3.3581   -2.9136   -0.3243 H   0  0  0  0  0  0  0  0  0  0  0  0
   -2.7049   -2.6142    2.6830 H   0  0  0  0  0  0  0  0  0  0  0  0
   -3.3263   -4.1384    1.9453 H   0  0  0  0  0  0  0  0  0  0  0  0
   -4.3392   -2.6837    1.9079 H   0  0  0  0  0  0  0  0  0  0  0  0
   -1.5148   -4.5069    0.5991 H   0  0  0  0  0  0  0  0  0  0  0  0
   -0.5479   -3.0264    0.9438 H   0  0  0  0  0  0  0  0  0  0  0  0
   -1.0464   -3.4674   -0.7468 H   0  0  0  0  0  0  0  0  0  0  0  0
   -2.3927    0.0494   -1.3669 H   0  0  0  0  0  0  0  0  0  0  0  0
   -1.7035   -1.5160   -1.5950 H   0  0  0  0  0  0  0  0  0  0  0  0
    0.6063   -1.9376   -1.0964 H   0  0  0  0  0  0  0  0  0  0  0  0
    4.3314   -0.5132    0.9279 H   0  0  0  0  0  0  0  0  0  0  0  0
    5.3527   -2.9675   -0.3720 H   0  0  0  0  0  0  0  0  0  0  0  0
    5.9412   -1.9361    2.0040 H   0  0  0  0  0  0  0  0  0  0  0  0
    7.1975   -2.7771    1.0516 H   0  0  0  0  0  0  0  0  0  0  0  0
    8.4614   -0.8651    0.7228 H   0  0  0  0  0  0  0  0  0  0  0  0
    7.5469   -0.2749    2.1379 H   0  0  0  0  0  0  0  0  0  0  0  0
    7.9487    0.1852   -1.4360 H   0  0  0  0  0  0  0  0  0  0  0  0
    6.3020    0.8561   -1.5981 H   0  0  0  0  0  0  0  0  0  0  0  0
    7.1727   -1.9802   -1.6559 H   0  0  0  0  0  0  0  0  0  0  0  0
    5.6503   -1.2510   -2.2477 H   0  0  0  0  0  0  0  0  0  0  0  0
    3.1837    1.3047    0.0267 H   0  0  0  0  0  0  0  0  0  0  0  0
    1.2569    2.7754    0.2630 H   0  0  0  0  0  0  0  0  0  0  0  0
  1  2  1  0
  2  3  2  0
  2  4  1  0
  4  5  1  0
  5  6  1  0
  6  7  1  0
  7  8  1  0
  8  9  1  0
  9 10  1  0
 10 11  1  0
 11 12  1  0
 12 13  1  0
 13 14  1  0
 13 15  1  0
 12 16  1  0
 16 17  1  0
 17 18  2  0
 18 19  1  0
 19 20  1  0
 20 21  2  0
 20 22  1  0
 22 23  1  0
 23 24  1  0
 24 25  1  0
 25 26  1  0
 26 27  1  0
 27 28  1  0
 19 29  2  0
 29 30  1  0
 30 31  2  0
 31  4  1  0
 31 17  1  0
 28 23  1  0
  1 32  1  0
  1 33  1  0
  1 34  1  0
  5 35  1  0
  5 36  1  0
  6 37  1  0
  6 38  1  0
  7 39  1  0
  7 40  1  0
  8 41  1  0
  8 42  1  0
  9 43  1  0
  9 44  1  0
 10 45  1  0
 10 46  1  0
 11 47  1  0
 11 48  1  0
 13 49  1  0
 14 50  1  0
 14 51  1  0
 14 52  1  0
 15 53  1  0
 15 54  1  0
 15 55  1  0
 16 56  1  0
 16 57  1  0
 18 58  1  0
 22 59  1  0
 23 60  1  0
 24 61  1  0
 24 62  1  0
 25 63  1  0
 25 64  1  0
 27 65  1  0
 27 66  1  0
 28 67  1  0
 28 68  1  0
 29 69  1  0
 30 70  1  0
M  END
$$$$
