
     RDKit          3D

 65 68  0  0  0  0  0  0  0  0999 V2000
    5.6480   -2.2726    1.2893 O   0  0  0  0  0  0  0  0  0  0  0  0
    5.3440   -1.1141    0.8925 C   0  0  0  0  0  0  0  0  0  0  0  0
    6.2132   -0.0119    1.1961 N   0  0  0  0  0  0  0  0  0  0  0  0
    7.3392   -0.1641    2.1176 C   0  0  0  0  0  0  0  0  0  0  0  0
    8.1125    1.1456    2.2578 C   0  0  0  0  0  0  0  0  0  0  0  0
    9.1766    0.9675    3.1502 O   0  0  0  0  0  0  0  0  0  0  0  0
    4.1030   -0.9190    0.1034 C   0  0  0  0  0  0  0  0  0  0  0  0
    3.5798   -1.9783   -0.6498 C   0  0  0  0  0  0  0  0  0  0  0  0
    2.4150   -1.8114   -1.3982 C   0  0  0  0  0  0  0  0  0  0  0  0
    1.7272   -0.5834   -1.3923 C   0  0  0  0  0  0  0  0  0  0  0  0
    2.2472    0.4974   -0.6379 C   0  0  0  0  0  0  0  0  0  0  0  0
    3.4310    0.3140    0.1004 C   0  0  0  0  0  0  0  0  0  0  0  0
    1.6546    1.8968   -0.7041 C   0  0  0  0  0  0  0  0  0  0  0  0
    0.1467    1.9473   -0.6361 C   0  0  0  0  0  0  0  0  0  0  0  0
   -0.5761    2.6666   -1.6023 C   0  0  0  0  0  0  0  0  0  0  0  0
   -1.9709    2.7054   -1.5564 C   0  0  0  0  0  0  0  0  0  0  0  0
   -2.6589    2.0110   -0.5604 C   0  0  0  0  0  0  0  0  0  0  0  0
   -1.9539    1.2859    0.4125 C   0  0  0  0  0  0  0  0  0  0  0  0
   -0.5476    1.2993    0.3988 C   0  0  0  0  0  0  0  0  0  0  0  0
   -2.7046    0.4791    1.4390 C   0  0  0  0  0  0  0  0  0  0  0  0
   -3.6150   -0.4900    0.7699 N   0  0  0  0  0  0  0  0  0  0  0  0
   -4.9134   -0.5752    1.4765 C   0  0  0  0  0  0  0  0  0  0  0  0
   -5.7811    0.6495    1.1381 C   0  0  0  0  0  0  0  0  0  0  0  0
   -7.2765    0.3952    1.0120 C   0  0  0  0  0  0  0  0  0  0  0  0
   -6.4327    0.6101   -0.2359 C   0  0  0  0  0  0  0  0  0  0  0  0
   -3.0001   -1.8358    0.6401 C   0  0  0  0  0  0  0  0  0  0  0  0
   -1.9475   -1.8812   -0.4777 C   0  0  0  0  0  0  0  0  0  0  0  0
   -2.5659   -1.7263   -1.8856 C   0  0  0  0  0  0  0  0  0  0  0  0
   -1.6610   -1.0178   -2.9197 C   0  0  0  0  0  0  0  0  0  0  0  0
   -0.1749   -1.4031   -2.8480 C   0  0  0  0  0  0  0  0  0  0  0  0
    0.5248   -0.4082   -2.0960 O   0  0  0  0  0  0  0  0  0  0  0  0
    6.0660    0.9041    0.7154 H   0  0  0  0  0  0  0  0  0  0  0  0
    8.0235   -0.9534    1.7369 H   0  0  0  0  0  0  0  0  0  0  0  0
    6.9571   -0.4723    3.1152 H   0  0  0  0  0  0  0  0  0  0  0  0
    8.5049    1.4515    1.2616 H   0  0  0  0  0  0  0  0  0  0  0  0
    7.4313    1.9387    2.6410 H   0  0  0  0  0  0  0  0  0  0  0  0
    9.6554    1.8358    3.1850 H   0  0  0  0  0  0  0  0  0  0  0  0
    4.0840   -2.9366   -0.6753 H   0  0  0  0  0  0  0  0  0  0  0  0
    2.0673   -2.6497   -1.9842 H   0  0  0  0  0  0  0  0  0  0  0  0
    3.8197    1.1383    0.6837 H   0  0  0  0  0  0  0  0  0  0  0  0
    2.0163    2.3666   -1.6444 H   0  0  0  0  0  0  0  0  0  0  0  0
    2.0403    2.5217    0.1307 H   0  0  0  0  0  0  0  0  0  0  0  0
   -0.0617    3.1933   -2.3968 H   0  0  0  0  0  0  0  0  0  0  0  0
   -2.5205    3.2586   -2.3071 H   0  0  0  0  0  0  0  0  0  0  0  0
   -3.7411    2.0273   -0.5560 H   0  0  0  0  0  0  0  0  0  0  0  0
    0.0062    0.7554    1.1545 H   0  0  0  0  0  0  0  0  0  0  0  0
   -2.0033   -0.0319    2.1362 H   0  0  0  0  0  0  0  0  0  0  0  0
   -3.2629    1.2074    2.0677 H   0  0  0  0  0  0  0  0  0  0  0  0
   -4.7611   -0.6250    2.5780 H   0  0  0  0  0  0  0  0  0  0  0  0
   -5.4621   -1.5012    1.1927 H   0  0  0  0  0  0  0  0  0  0  0  0
   -5.5008    1.6623    1.4977 H   0  0  0  0  0  0  0  0  0  0  0  0
   -7.9164    1.2646    1.2740 H   0  0  0  0  0  0  0  0  0  0  0  0
   -7.6188   -0.6531    1.1461 H   0  0  0  0  0  0  0  0  0  0  0  0
   -6.2562   -0.3112   -0.8309 H   0  0  0  0  0  0  0  0  0  0  0  0
   -6.5667    1.6068   -0.7079 H   0  0  0  0  0  0  0  0  0  0  0  0
   -3.7642   -2.6038    0.3844 H   0  0  0  0  0  0  0  0  0  0  0  0
   -2.5421   -2.1571    1.6023 H   0  0  0  0  0  0  0  0  0  0  0  0
   -1.4340   -2.8658   -0.4249 H   0  0  0  0  0  0  0  0  0  0  0  0
   -1.1680   -1.1270   -0.2893 H   0  0  0  0  0  0  0  0  0  0  0  0
   -3.5174   -1.1536   -1.8282 H   0  0  0  0  0  0  0  0  0  0  0  0
   -2.8260   -2.7374   -2.2687 H   0  0  0  0  0  0  0  0  0  0  0  0
   -2.0450   -1.2632   -3.9342 H   0  0  0  0  0  0  0  0  0  0  0  0
   -1.7664    0.0827   -2.8024 H   0  0  0  0  0  0  0  0  0  0  0  0
   -0.0768   -2.4108   -2.3953 H   0  0  0  0  0  0  0  0  0  0  0  0
    0.2564   -1.4402   -3.8714 H   0  0  0  0  0  0  0  0  0  0  0  0
  1  2  2  0
  2  3  1  0
  3  4  1  0
  4  5  1  0
  5  6  1  0
  2  7  1  0
  7  8  2  0
  8  9  1  0
  9 10  2  0
 10 11  1  0
 11 12  2  0
 11 13  1  0
 13 14  1  0
 14 15  2  0
 15 16  1  0
 16 17  2  0
 17 18  1  0
 18 19  2  0
 18 20  1  0
 20 21  1  0
 21 22  1  0
 22 23  1  0
 23 24  1  0
 24 25  1  0
 21 26  1  0
 26 27  1  0
 27 28  1  0
 28 29  1  0
 29 30  1  0
 30 31  1  0
 12  7  1  0
 19 14  1  0
 25 23  1  0
 31 10  1  0
  3 32  1  0
  4 33  1  0
  4 34  1  0
  5 35  1  0
  5 36  1  0
  6 37  1  0
  8 38  1  0
  9 39  1  0
 12 40  1  0
 13 41  1  0
 13 42  1  0
 15 43  1  0
 16 44  1  0
 17 45  1  0
 19 46  1  0
 20 47  1  0
 20 48  1  0
 22 49  1  0
 22 50  1  0
 23 51  1  0
 24 52  1  0
 24 53  1  0
 25 54  1  0
 25 55  1  0
 26 56  1  0
 26 57  1  0
 27 58  1  0
 27 59  1  0
 28 60  1  0
 28 61  1  0
 29 62  1  0
 29 63  1  0
 30 64  1  0
 30 65  1  0
M  END
$$$$
