
     RDKit          3D

 57 60  0  0  0  0  0  0  0  0999 V2000
    8.8808    1.5003    0.1025 C   0  0  0  0  0  0  0  0  0  0  0  0
    7.3393    0.7829    0.6212 S   0  0  0  0  0  6  0  0  0  0  0  0
    6.8709    1.4881    1.8634 O   0  0  0  0  0  0  0  0  0  0  0  0
    7.5405   -0.6774    0.9124 O   0  0  0  0  0  0  0  0  0  0  0  0
    6.1864    0.9701   -0.6382 N   0  0  0  0  0  0  0  0  0  0  0  0
    4.6544    0.9086   -0.3592 S   0  0  0  0  0  6  0  0  0  0  0  0
    3.7876    1.1267   -1.8988 C   0  0  0  0  0  0  0  0  0  0  0  0
    4.2689    2.0183    0.5789 O   0  0  0  0  0  0  0  0  0  0  0  0
    4.2291   -0.6705    0.3647 C   0  0  0  0  0  0  0  0  0  0  0  0
    2.7430   -0.7811    0.5596 C   0  0  0  0  0  0  0  0  0  0  0  0
    1.9411   -1.3852   -0.4206 C   0  0  0  0  0  0  0  0  0  0  0  0
    0.5538   -1.4455   -0.2398 C   0  0  0  0  0  0  0  0  0  0  0  0
    0.0025   -0.9145    0.8849 N   0  0  0  0  0  0  0  0  0  0  0  0
    0.7515   -0.3103    1.8489 C   0  0  0  0  0  0  0  0  0  0  0  0
    2.1380   -0.2363    1.7017 C   0  0  0  0  0  0  0  0  0  0  0  0
    0.1409    0.2538    2.9768 O   0  0  0  0  0  0  0  0  0  0  0  0
   -1.2763    0.2900    3.1490 C   0  0  0  0  0  0  0  0  0  0  0  0
   -1.9169    1.2601    2.1382 C   0  0  0  0  0  0  0  0  0  0  0  0
   -3.2469    0.7457    1.5815 C   0  0  0  0  0  0  0  0  0  0  0  0
   -3.5019    1.4053    0.3445 O   0  0  0  0  0  0  0  0  0  0  0  0
   -4.6108    1.1447   -0.4654 C   0  0  0  0  0  0  0  0  0  0  0  0
   -5.4902    2.2061   -0.7154 C   0  0  0  0  0  0  0  0  0  0  0  0
   -6.6142    2.0257   -1.5217 C   0  0  0  0  0  0  0  0  0  0  0  0
   -7.4616    3.0601   -1.7460 F   0  0  0  0  0  0  0  0  0  0  0  0
   -6.8616    0.7833   -2.1025 C   0  0  0  0  0  0  0  0  0  0  0  0
   -5.9840   -0.2796   -1.8818 C   0  0  0  0  0  0  0  0  0  0  0  0
   -4.8488   -0.1222   -1.0616 C   0  0  0  0  0  0  0  0  0  0  0  0
   -3.9166   -1.2729   -0.9103 C   0  0  0  0  0  0  0  0  0  0  0  0
   -2.5329   -1.1159   -1.1141 C   0  0  0  0  0  0  0  0  0  0  0  0
   -1.6867   -2.2321   -1.0241 C   0  0  0  0  0  0  0  0  0  0  0  0
   -2.2090   -3.4583   -0.7600 N   0  0  0  0  0  0  0  0  0  0  0  0
   -3.5368   -3.6399   -0.5457 C   0  0  0  0  0  0  0  0  0  0  0  0
   -4.4127   -2.5551   -0.6053 C   0  0  0  0  0  0  0  0  0  0  0  0
   -5.7311   -2.7551   -0.3510 F   0  0  0  0  0  0  0  0  0  0  0  0
   -0.2752   -2.0982   -1.2119 N   0  0  0  0  0  0  0  0  0  0  0  0
    8.7336    2.5783   -0.1145 H   0  0  0  0  0  0  0  0  0  0  0  0
    9.2394    0.9864   -0.8131 H   0  0  0  0  0  0  0  0  0  0  0  0
    9.6345    1.3858    0.9087 H   0  0  0  0  0  0  0  0  0  0  0  0
    3.9869    0.2609   -2.5633 H   0  0  0  0  0  0  0  0  0  0  0  0
    4.1358    2.0575   -2.3922 H   0  0  0  0  0  0  0  0  0  0  0  0
    2.6974    1.2020   -1.7074 H   0  0  0  0  0  0  0  0  0  0  0  0
    4.5973   -1.4828   -0.2978 H   0  0  0  0  0  0  0  0  0  0  0  0
    4.7456   -0.7753    1.3423 H   0  0  0  0  0  0  0  0  0  0  0  0
    2.3900   -1.8019   -1.3141 H   0  0  0  0  0  0  0  0  0  0  0  0
    2.7356    0.2508    2.4625 H   0  0  0  0  0  0  0  0  0  0  0  0
   -1.6764   -0.7431    3.0535 H   0  0  0  0  0  0  0  0  0  0  0  0
   -1.5037    0.6345    4.1799 H   0  0  0  0  0  0  0  0  0  0  0  0
   -2.0747    2.2505    2.6180 H   0  0  0  0  0  0  0  0  0  0  0  0
   -1.2247    1.4302    1.2854 H   0  0  0  0  0  0  0  0  0  0  0  0
   -3.2026   -0.3497    1.4266 H   0  0  0  0  0  0  0  0  0  0  0  0
   -4.0654    0.9648    2.3005 H   0  0  0  0  0  0  0  0  0  0  0  0
   -5.3025    3.1759   -0.2718 H   0  0  0  0  0  0  0  0  0  0  0  0
   -7.7276    0.6453   -2.7370 H   0  0  0  0  0  0  0  0  0  0  0  0
   -6.1798   -1.2230   -2.3765 H   0  0  0  0  0  0  0  0  0  0  0  0
   -2.1176   -0.1458   -1.3581 H   0  0  0  0  0  0  0  0  0  0  0  0
   -3.9129   -4.6294   -0.3224 H   0  0  0  0  0  0  0  0  0  0  0  0
    0.1770   -2.6917   -1.9434 H   0  0  0  0  0  0  0  0  0  0  0  0
  1  2  1  0
  2  3  2  0
  2  4  2  0
  2  5  1  0
  5  6  2  0
  6  7  1  0
  6  8  2  0
  6  9  1  0
  9 10  1  0
 10 11  2  0
 11 12  1  0
 12 13  2  0
 13 14  1  0
 14 15  2  0
 14 16  1  0
 16 17  1  0
 17 18  1  0
 18 19  1  0
 19 20  1  0
 20 21  1  0
 21 22  2  0
 22 23  1  0
 23 24  1  0
 23 25  2  0
 25 26  1  0
 26 27  2  0
 27 28  1  0
 28 29  2  0
 29 30  1  0
 30 31  2  0
 31 32  1  0
 32 33  2  0
 33 34  1  0
 30 35  1  0
 15 10  1  0
 27 21  1  0
 33 28  1  0
 35 12  1  0
  1 36  1  0
  1 37  1  0
  1 38  1  0
  7 39  1  0
  7 40  1  0
  7 41  1  0
  9 42  1  0
  9 43  1  0
 11 44  1  0
 15 45  1  0
 17 46  1  0
 17 47  1  0
 18 48  1  0
 18 49  1  0
 19 50  1  0
 19 51  1  0
 22 52  1  0
 25 53  1  0
 26 54  1  0
 29 55  1  0
 32 56  1  0
 35 57  1  0
M  END
$$$$
