
     RDKit          3D

 77 78  0  0  0  0  0  0  0  0999 V2000
    7.1560    2.5300    2.5834 C   0  0  0  0  0  0  0  0  0  0  0  0
    6.6423    1.1447    2.1972 C   0  0  0  0  0  0  0  0  0  0  0  0
    5.7886    1.1671    0.8990 C   0  0  0  0  0  0  0  0  0  0  0  0
    6.5462    0.5978   -0.3226 C   0  0  0  0  0  0  0  0  0  0  0  0
    7.7512    1.4433   -0.7341 C   0  0  0  0  0  0  0  0  0  0  0  0
    4.5705    0.3691    1.1037 N   0  0  0  0  0  0  0  0  0  0  0  0
    3.2857    0.7750    0.6014 C   0  0  0  0  0  0  0  0  0  0  0  0
    3.0977    1.9774    0.2496 O   0  0  0  0  0  0  0  0  0  0  0  0
    2.1547   -0.1843    0.5180 C   0  0  0  0  0  0  0  0  0  0  0  0
    2.3794   -1.5556    0.3517 C   0  0  0  0  0  0  0  0  0  0  0  0
    1.3073   -2.4383    0.2320 C   0  0  0  0  0  0  0  0  0  0  0  0
   -0.0222   -1.9796    0.2634 C   0  0  0  0  0  0  0  0  0  0  0  0
   -0.2637   -0.5911    0.4670 C   0  0  0  0  0  0  0  0  0  0  0  0
    0.8335    0.2839    0.5725 C   0  0  0  0  0  0  0  0  0  0  0  0
   -1.6447    0.0061    0.5988 C   0  0  0  0  0  0  0  0  0  0  0  0
   -2.1068    0.5778   -0.6899 N   0  0  0  0  0  0  0  0  0  0  0  0
   -2.7101    1.9242   -0.5461 C   0  0  0  0  0  0  0  0  0  0  0  0
   -1.6232    3.0021   -0.3801 C   0  0  0  0  0  0  0  0  0  0  0  0
   -2.1537    4.4583   -0.3820 C   0  0  0  0  0  0  0  0  0  0  0  0
   -2.6699    4.8946   -1.7608 C   0  0  0  0  0  0  0  0  0  0  0  0
   -3.2168    4.6955    0.7045 C   0  0  0  0  0  0  0  0  0  0  0  0
   -2.9935   -0.3528   -1.4354 C   0  0  0  0  0  0  0  0  0  0  0  0
   -4.4398   -0.4482   -0.8753 C   0  0  0  0  0  0  0  0  0  0  0  0
   -5.2294   -1.6317   -1.4761 C   0  0  0  0  0  0  0  0  0  0  0  0
   -5.3746   -2.8462   -0.5301 C   0  0  0  0  0  0  0  0  0  0  0  0
   -4.0598   -3.6328   -0.3203 C   0  0  0  0  0  0  0  0  0  0  0  0
   -3.3751   -3.3088    1.0259 C   0  0  0  0  0  0  0  0  0  0  0  0
   -1.8397   -3.5264    1.0992 C   0  0  0  0  0  0  0  0  0  0  0  0
   -1.0741   -2.9331   -0.0213 N   0  0  0  0  0  0  0  0  0  0  0  0
   -0.9261   -3.6487   -1.2717 C   0  0  0  0  0  0  0  0  0  0  0  0
   -1.0183   -5.1466   -1.3454 C   0  0  0  0  0  0  0  0  0  0  0  0
   -0.6626   -3.0062   -2.3243 O   0  0  0  0  0  0  0  0  0  0  0  0
    7.7585    2.4542    3.5111 H   0  0  0  0  0  0  0  0  0  0  0  0
    6.3011    3.2155    2.7697 H   0  0  0  0  0  0  0  0  0  0  0  0
    7.7940    2.9511    1.7797 H   0  0  0  0  0  0  0  0  0  0  0  0
    6.0362    0.7659    3.0487 H   0  0  0  0  0  0  0  0  0  0  0  0
    7.5062    0.4548    2.0942 H   0  0  0  0  0  0  0  0  0  0  0  0
    5.5024    2.2179    0.6657 H   0  0  0  0  0  0  0  0  0  0  0  0
    6.8817   -0.4414   -0.1117 H   0  0  0  0  0  0  0  0  0  0  0  0
    5.8446    0.5546   -1.1846 H   0  0  0  0  0  0  0  0  0  0  0  0
    8.5354    1.4041    0.0457 H   0  0  0  0  0  0  0  0  0  0  0  0
    7.4507    2.5006   -0.9032 H   0  0  0  0  0  0  0  0  0  0  0  0
    8.1835    1.0406   -1.6742 H   0  0  0  0  0  0  0  0  0  0  0  0
    4.6737   -0.5748    1.5339 H   0  0  0  0  0  0  0  0  0  0  0  0
    3.3827   -1.9490    0.2713 H   0  0  0  0  0  0  0  0  0  0  0  0
    1.5139   -3.4907    0.0784 H   0  0  0  0  0  0  0  0  0  0  0  0
    0.6582    1.3410    0.7184 H   0  0  0  0  0  0  0  0  0  0  0  0
   -1.6171    0.7751    1.4025 H   0  0  0  0  0  0  0  0  0  0  0  0
   -2.3350   -0.7391    0.9919 H   0  0  0  0  0  0  0  0  0  0  0  0
   -3.4093    1.9454    0.3193 H   0  0  0  0  0  0  0  0  0  0  0  0
   -3.2867    2.1704   -1.4626 H   0  0  0  0  0  0  0  0  0  0  0  0
   -0.8682    2.8905   -1.1909 H   0  0  0  0  0  0  0  0  0  0  0  0
   -1.0917    2.8434    0.5801 H   0  0  0  0  0  0  0  0  0  0  0  0
   -1.2866    5.1135   -0.1379 H   0  0  0  0  0  0  0  0  0  0  0  0
   -2.8754    5.9871   -1.7564 H   0  0  0  0  0  0  0  0  0  0  0  0
   -3.6106    4.3669   -2.0271 H   0  0  0  0  0  0  0  0  0  0  0  0
   -1.9080    4.6950   -2.5429 H   0  0  0  0  0  0  0  0  0  0  0  0
   -4.1716    4.1928    0.4365 H   0  0  0  0  0  0  0  0  0  0  0  0
   -2.8637    4.3082    1.6856 H   0  0  0  0  0  0  0  0  0  0  0  0
   -3.4185    5.7851    0.8113 H   0  0  0  0  0  0  0  0  0  0  0  0
   -3.0436   -0.0278   -2.4983 H   0  0  0  0  0  0  0  0  0  0  0  0
   -2.5304   -1.3531   -1.4634 H   0  0  0  0  0  0  0  0  0  0  0  0
   -4.9762    0.4872   -1.1486 H   0  0  0  0  0  0  0  0  0  0  0  0
   -4.4533   -0.4924    0.2319 H   0  0  0  0  0  0  0  0  0  0  0  0
   -6.2579   -1.2763   -1.7072 H   0  0  0  0  0  0  0  0  0  0  0  0
   -4.7913   -1.9486   -2.4490 H   0  0  0  0  0  0  0  0  0  0  0  0
   -5.8243   -2.5312    0.4400 H   0  0  0  0  0  0  0  0  0  0  0  0
   -6.1103   -3.5363   -0.9992 H   0  0  0  0  0  0  0  0  0  0  0  0
   -3.4116   -3.4571   -1.1892 H   0  0  0  0  0  0  0  0  0  0  0  0
   -4.2904   -4.7182   -0.3259 H   0  0  0  0  0  0  0  0  0  0  0  0
   -3.6410   -2.2969    1.3642 H   0  0  0  0  0  0  0  0  0  0  0  0
   -3.8331   -3.9603    1.7976 H   0  0  0  0  0  0  0  0  0  0  0  0
   -1.6257   -4.6123    1.1795 H   0  0  0  0  0  0  0  0  0  0  0  0
   -1.4907   -3.0862    2.0620 H   0  0  0  0  0  0  0  0  0  0  0  0
   -2.0582   -5.4806   -1.1529 H   0  0  0  0  0  0  0  0  0  0  0  0
   -0.3379   -5.6013   -0.5916 H   0  0  0  0  0  0  0  0  0  0  0  0
   -0.7136   -5.5035   -2.3545 H   0  0  0  0  0  0  0  0  0  0  0  0
  1  2  1  0
  2  3  1  0
  3  4  1  0
  4  5  1  0
  3  6  1  0
  6  7  1  0
  7  8  2  0
  7  9  1  0
  9 10  2  0
 10 11  1  0
 11 12  2  0
 12 13  1  0
 13 14  2  0
 13 15  1  0
 15 16  1  0
 16 17  1  0
 17 18  1  0
 18 19  1  0
 19 20  1  0
 19 21  1  0
 16 22  1  0
 22 23  1  0
 23 24  1  0
 24 25  1  0
 25 26  1  0
 26 27  1  0
 27 28  1  0
 28 29  1  0
 29 30  1  0
 30 31  1  0
 30 32  2  0
 14  9  1  0
 29 12  1  0
  1 33  1  0
  1 34  1  0
  1 35  1  0
  2 36  1  0
  2 37  1  0
  3 38  1  0
  4 39  1  0
  4 40  1  0
  5 41  1  0
  5 42  1  0
  5 43  1  0
  6 44  1  0
 10 45  1  0
 11 46  1  0
 14 47  1  0
 15 48  1  0
 15 49  1  0
 17 50  1  0
 17 51  1  0
 18 52  1  0
 18 53  1  0
 19 54  1  0
 20 55  1  0
 20 56  1  0
 20 57  1  0
 21 58  1  0
 21 59  1  0
 21 60  1  0
 22 61  1  0
 22 62  1  0
 23 63  1  0
 23 64  1  0
 24 65  1  0
 24 66  1  0
 25 67  1  0
 25 68  1  0
 26 69  1  0
 26 70  1  0
 27 71  1  0
 27 72  1  0
 28 73  1  0
 28 74  1  0
 31 75  1  0
 31 76  1  0
 31 77  1  0
M  END
$$$$
