
     RDKit          3D

 92 97  0  0  0  0  0  0  0  0999 V2000
   -2.8563   -2.8904    1.9288 O   0  0  0  0  0  0  0  0  0  0  0  0
   -2.9622   -2.4087    0.7671 C   0  0  0  0  0  0  0  0  0  0  0  0
   -1.8277   -2.4053   -0.1120 N   0  0  0  0  0  0  0  0  0  0  0  0
   -0.5173   -1.9035    0.3201 C   0  0  0  0  0  0  0  0  0  0  0  0
    0.5354   -2.2189   -0.7544 C   0  0  0  0  0  0  0  0  0  0  0  0
    1.9265   -1.6634   -0.3740 C   0  0  0  0  0  0  0  0  0  0  0  0
    1.8698   -0.4177    0.4362 N   0  0  0  0  0  0  0  0  0  0  0  0
    3.0846    0.4018    0.2412 C   0  0  0  0  0  0  0  0  0  0  0  0
    4.3216   -0.2936    0.7494 C   0  0  0  0  0  0  0  0  0  0  0  0
    4.2426   -1.0407    1.7623 O   0  0  0  0  0  0  0  0  0  0  0  0
    5.6011   -0.0617    0.1314 N   0  0  0  0  0  0  0  0  0  0  0  0
    6.6414   -1.0969    0.2292 C   0  0  0  0  0  0  0  0  0  0  0  0
    7.5618   -1.0436   -0.9932 C   0  0  0  0  0  0  0  0  0  0  0  0
    8.0005    0.3385   -1.2100 N   0  0  0  0  0  0  0  0  0  0  0  0
    9.3916    0.7125   -1.1402 C   0  0  0  0  0  0  0  0  0  0  0  0
    9.9380    1.6000   -2.0844 C   0  0  0  0  0  0  0  0  0  0  0  0
   11.2848    1.9731   -2.0066 C   0  0  0  0  0  0  0  0  0  0  0  0
   12.0975    1.4623   -0.9910 C   0  0  0  0  0  0  0  0  0  0  0  0
   13.4036    1.8209   -0.9191 F   0  0  0  0  0  0  0  0  0  0  0  0
   11.5612    0.5831   -0.0433 C   0  0  0  0  0  0  0  0  0  0  0  0
   10.2156    0.2104   -0.1163 C   0  0  0  0  0  0  0  0  0  0  0  0
    6.9539    1.3511   -1.3788 C   0  0  0  0  0  0  0  0  0  0  0  0
    6.0190    1.3201   -0.1679 C   0  0  0  0  0  0  0  0  0  0  0  0
    0.6694    0.3794    0.1191 C   0  0  0  0  0  0  0  0  0  0  0  0
   -0.6035   -0.3655    0.5853 C   0  0  0  0  0  0  0  0  0  0  0  0
   -0.9195   -0.0579    2.0787 C   0  0  0  0  0  0  0  0  0  0  0  0
   -2.0732    0.9028    2.1903 C   0  0  0  0  0  0  0  0  0  0  0  0
   -3.2625    0.5113    2.6730 C   0  0  0  0  0  0  0  0  0  0  0  0
   -4.4784    1.4009    2.6361 C   0  0  0  0  0  0  0  0  0  0  0  0
   -5.4126    1.1908    1.3955 C   0  0  0  0  0  0  0  0  0  0  0  0
   -4.6969    1.5053    0.0440 C   0  0  0  0  0  0  0  0  0  0  0  0
   -4.7477    2.9957   -0.3525 C   0  0  0  0  0  0  0  0  0  0  0  0
   -4.8846    3.8180    0.7844 O   0  0  0  0  0  0  0  0  0  0  0  0
   -6.1800    3.6682    1.3386 C   0  0  0  0  0  0  0  0  0  0  0  0
   -6.6038    2.1899    1.5245 C   0  0  0  0  0  0  0  0  0  0  0  0
   -5.9578   -0.2526    1.4046 C   0  0  0  0  0  0  0  0  0  0  0  0
   -7.1998   -0.4442    1.5264 O   0  0  0  0  0  0  0  0  0  0  0  0
   -5.1027   -1.4103    1.4213 N   0  0  0  0  0  0  0  0  0  0  0  0
   -4.2752   -1.8435    0.2833 C   0  0  0  0  0  0  0  0  0  0  0  0
   -5.0327   -2.8786   -0.5731 C   0  0  0  0  0  0  0  0  0  0  0  0
   -6.2068   -2.2464   -1.2799 C   0  0  0  0  0  0  0  0  0  0  0  0
   -5.9894   -1.3971   -2.3772 C   0  0  0  0  0  0  0  0  0  0  0  0
   -7.0628   -0.7416   -2.9852 C   0  0  0  0  0  0  0  0  0  0  0  0
   -8.3626   -0.9367   -2.5101 C   0  0  0  0  0  0  0  0  0  0  0  0
   -8.5904   -1.7894   -1.4271 C   0  0  0  0  0  0  0  0  0  0  0  0
   -7.5182   -2.4449   -0.8142 C   0  0  0  0  0  0  0  0  0  0  0  0
   -2.0018   -2.5549   -1.1352 H   0  0  0  0  0  0  0  0  0  0  0  0
   -0.2042   -2.4507    1.2360 H   0  0  0  0  0  0  0  0  0  0  0  0
    0.6022   -3.3195   -0.9111 H   0  0  0  0  0  0  0  0  0  0  0  0
    0.2182   -1.7577   -1.7180 H   0  0  0  0  0  0  0  0  0  0  0  0
    2.4595   -2.4363    0.2208 H   0  0  0  0  0  0  0  0  0  0  0  0
    2.5079   -1.5146   -1.3135 H   0  0  0  0  0  0  0  0  0  0  0  0
    3.0005    1.3565    0.8069 H   0  0  0  0  0  0  0  0  0  0  0  0
    3.2057    0.6527   -0.8374 H   0  0  0  0  0  0  0  0  0  0  0  0
    7.2403   -0.9333    1.1505 H   0  0  0  0  0  0  0  0  0  0  0  0
    6.1804   -2.1075    0.2821 H   0  0  0  0  0  0  0  0  0  0  0  0
    6.9982   -1.3856   -1.8891 H   0  0  0  0  0  0  0  0  0  0  0  0
    8.4277   -1.7302   -0.8537 H   0  0  0  0  0  0  0  0  0  0  0  0
    9.3263    1.9905   -2.8898 H   0  0  0  0  0  0  0  0  0  0  0  0
   11.7005    2.6534   -2.7423 H   0  0  0  0  0  0  0  0  0  0  0  0
   12.1865    0.1973    0.7540 H   0  0  0  0  0  0  0  0  0  0  0  0
    9.8107   -0.4530    0.6383 H   0  0  0  0  0  0  0  0  0  0  0  0
    6.3749    1.1322   -2.3047 H   0  0  0  0  0  0  0  0  0  0  0  0
    7.3861    2.3724   -1.4731 H   0  0  0  0  0  0  0  0  0  0  0  0
    5.1458    1.9711   -0.3836 H   0  0  0  0  0  0  0  0  0  0  0  0
    6.5496    1.7416    0.7178 H   0  0  0  0  0  0  0  0  0  0  0  0
    0.7119    1.3808    0.6050 H   0  0  0  0  0  0  0  0  0  0  0  0
    0.6135    0.5662   -0.9785 H   0  0  0  0  0  0  0  0  0  0  0  0
   -1.4256    0.0329   -0.0553 H   0  0  0  0  0  0  0  0  0  0  0  0
   -1.1496   -0.9844    2.6461 H   0  0  0  0  0  0  0  0  0  0  0  0
   -0.0434    0.3899    2.5948 H   0  0  0  0  0  0  0  0  0  0  0  0
   -1.9625    1.8976    1.7707 H   0  0  0  0  0  0  0  0  0  0  0  0
   -3.3718   -0.4787    3.0988 H   0  0  0  0  0  0  0  0  0  0  0  0
   -4.1488    2.4553    2.7233 H   0  0  0  0  0  0  0  0  0  0  0  0
   -5.0672    1.1932    3.5567 H   0  0  0  0  0  0  0  0  0  0  0  0
   -3.6389    1.1819    0.0713 H   0  0  0  0  0  0  0  0  0  0  0  0
   -5.1889    0.9417   -0.7772 H   0  0  0  0  0  0  0  0  0  0  0  0
   -5.5772    3.1809   -1.0760 H   0  0  0  0  0  0  0  0  0  0  0  0
   -3.8057    3.2696   -0.8745 H   0  0  0  0  0  0  0  0  0  0  0  0
   -6.9255    4.2037    0.7106 H   0  0  0  0  0  0  0  0  0  0  0  0
   -6.1889    4.1664    2.3306 H   0  0  0  0  0  0  0  0  0  0  0  0
   -7.1138    2.0708    2.5077 H   0  0  0  0  0  0  0  0  0  0  0  0
   -7.3586    1.9561    0.7383 H   0  0  0  0  0  0  0  0  0  0  0  0
   -5.3696   -2.1574    2.1035 H   0  0  0  0  0  0  0  0  0  0  0  0
   -4.0170   -0.9854   -0.3580 H   0  0  0  0  0  0  0  0  0  0  0  0
   -5.3705   -3.7283    0.0620 H   0  0  0  0  0  0  0  0  0  0  0  0
   -4.3477   -3.3010   -1.3424 H   0  0  0  0  0  0  0  0  0  0  0  0
   -4.9842   -1.2286   -2.7452 H   0  0  0  0  0  0  0  0  0  0  0  0
   -6.8851   -0.0805   -3.8233 H   0  0  0  0  0  0  0  0  0  0  0  0
   -9.1917   -0.4278   -2.9799 H   0  0  0  0  0  0  0  0  0  0  0  0
   -9.5972   -1.9380   -1.0610 H   0  0  0  0  0  0  0  0  0  0  0  0
   -7.7062   -3.0842    0.0383 H   0  0  0  0  0  0  0  0  0  0  0  0
  1  2  2  0
  2  3  1  0
  3  4  1  0
  4  5  1  0
  5  6  1  0
  6  7  1  0
  7  8  1  0
  8  9  1  0
  9 10  2  0
  9 11  1  0
 11 12  1  0
 12 13  1  0
 13 14  1  0
 14 15  1  0
 15 16  2  0
 16 17  1  0
 17 18  2  0
 18 19  1  0
 18 20  1  0
 20 21  2  0
 14 22  1  0
 22 23  1  0
  7 24  1  0
 24 25  1  0
 25 26  1  0
 26 27  1  0
 27 28  2  0
 28 29  1  0
 29 30  1  0
 30 31  1  0
 31 32  1  0
 32 33  1  0
 33 34  1  0
 34 35  1  0
 30 36  1  0
 36 37  2  0
 36 38  1  0
 38 39  1  0
 39 40  1  0
 40 41  1  0
 41 42  2  0
 42 43  1  0
 43 44  2  0
 44 45  1  0
 45 46  2  0
 39  2  1  0
 46 41  1  0
 25  4  1  0
 35 30  1  0
 23 11  1  0
 21 15  1  0
  3 47  1  0
  4 48  1  0
  5 49  1  0
  5 50  1  0
  6 51  1  0
  6 52  1  0
  8 53  1  0
  8 54  1  0
 12 55  1  0
 12 56  1  0
 13 57  1  0
 13 58  1  0
 16 59  1  0
 17 60  1  0
 20 61  1  0
 21 62  1  0
 22 63  1  0
 22 64  1  0
 23 65  1  0
 23 66  1  0
 24 67  1  0
 24 68  1  0
 25 69  1  0
 26 70  1  0
 26 71  1  0
 27 72  1  0
 28 73  1  0
 29 74  1  0
 29 75  1  0
 31 76  1  0
 31 77  1  0
 32 78  1  0
 32 79  1  0
 34 80  1  0
 34 81  1  0
 35 82  1  0
 35 83  1  0
 38 84  1  0
 39 85  1  0
 40 86  1  0
 40 87  1  0
 42 88  1  0
 43 89  1  0
 44 90  1  0
 45 91  1  0
 46 92  1  0
M  END
$$$$
