
     RDKit          3D

 75 78  0  0  0  0  0  0  0  0999 V2000
   -2.1924    5.5325   -0.3136 C   0  0  0  0  0  0  0  0  0  0  0  0
   -1.8941    4.3528   -1.2392 C   0  0  0  0  0  0  0  0  0  0  0  0
   -2.3012    3.0024   -0.6282 C   0  0  0  0  0  0  0  0  0  0  0  0
   -1.4374    2.6143    0.5824 C   0  0  0  0  0  0  0  0  0  0  0  0
   -1.6091    1.1825    0.9460 N   0  0  0  0  0  0  0  0  0  0  0  0
   -2.9350    0.9601    1.5980 C   0  0  0  0  0  0  0  0  0  0  0  0
   -3.9387    0.3240    0.6284 C   0  0  0  0  0  0  0  0  0  0  0  0
   -3.6874   -1.0722    0.5003 O   0  0  0  0  0  0  0  0  0  0  0  0
   -4.4609   -1.9596   -0.2654 C   0  0  0  0  0  0  0  0  0  0  0  0
   -5.6018   -1.5270   -0.9712 C   0  0  0  0  0  0  0  0  0  0  0  0
   -6.3535   -2.4312   -1.7233 C   0  0  0  0  0  0  0  0  0  0  0  0
   -5.9786   -3.7722   -1.7849 C   0  0  0  0  0  0  0  0  0  0  0  0
   -4.8462   -4.2147   -1.0987 C   0  0  0  0  0  0  0  0  0  0  0  0
   -4.0804   -3.3189   -0.3318 C   0  0  0  0  0  0  0  0  0  0  0  0
   -2.8491   -3.8185    0.3938 C   0  0  0  0  0  0  0  0  0  0  0  0
   -1.5532   -3.2120   -0.1915 C   0  0  0  0  0  0  0  0  0  0  0  0
   -0.8478   -2.2565    0.7937 C   0  0  0  0  0  0  0  0  0  0  0  0
   -0.0677   -1.1571    0.0461 C   0  0  0  0  0  0  0  0  0  0  0  0
    0.6123   -0.0943    0.9691 C   0  0  0  0  0  0  0  0  0  0  0  0
    1.4223    0.8936    0.0630 C   0  0  0  0  0  0  0  0  0  0  0  0
    2.8556    0.4245   -0.2040 C   0  0  0  0  0  0  0  0  0  0  0  0
    3.5825    0.2981    1.0693 N   0  0  0  0  0  0  0  0  0  0  0  0
    4.9860    0.6122    1.1465 C   0  0  0  0  0  0  0  0  0  0  0  0
    5.4820    1.0205    2.2316 O   0  0  0  0  0  0  0  0  0  0  0  0
    5.8619    0.4850   -0.0329 C   0  0  0  0  0  0  0  0  0  0  0  0
    6.4519    1.6360   -0.5718 C   0  0  0  0  0  0  0  0  0  0  0  0
    7.2562    1.5446   -1.7076 C   0  0  0  0  0  0  0  0  0  0  0  0
    7.4724    0.2974   -2.2925 C   0  0  0  0  0  0  0  0  0  0  0  0
    6.9144   -0.8158   -1.7482 N   0  0  0  0  0  0  0  0  0  0  0  0
    6.1292   -0.7645   -0.6361 C   0  0  0  0  0  0  0  0  0  0  0  0
    5.5802   -2.0483   -0.0836 C   0  0  0  0  0  0  0  0  0  0  0  0
    2.8389   -0.0101    2.2988 C   0  0  0  0  0  0  0  0  0  0  0  0
    1.5853   -0.8261    1.9647 C   0  0  0  0  0  0  0  0  0  0  0  0
   -0.4670    0.7062    1.7874 C   0  0  0  0  0  0  0  0  0  0  0  0
   -3.2591    5.5240   -0.0050 H   0  0  0  0  0  0  0  0  0  0  0  0
   -1.9856    6.4833   -0.8480 H   0  0  0  0  0  0  0  0  0  0  0  0
   -1.5466    5.4954    0.5876 H   0  0  0  0  0  0  0  0  0  0  0  0
   -0.8121    4.3472   -1.4985 H   0  0  0  0  0  0  0  0  0  0  0  0
   -2.4638    4.4968   -2.1833 H   0  0  0  0  0  0  0  0  0  0  0  0
   -3.3715    3.0492   -0.3338 H   0  0  0  0  0  0  0  0  0  0  0  0
   -2.1862    2.2227   -1.4130 H   0  0  0  0  0  0  0  0  0  0  0  0
   -1.6669    3.2721    1.4504 H   0  0  0  0  0  0  0  0  0  0  0  0
   -0.3899    2.8261    0.3082 H   0  0  0  0  0  0  0  0  0  0  0  0
   -3.3726    1.9097    1.9799 H   0  0  0  0  0  0  0  0  0  0  0  0
   -2.8849    0.2989    2.4887 H   0  0  0  0  0  0  0  0  0  0  0  0
   -3.8893    0.7996   -0.3704 H   0  0  0  0  0  0  0  0  0  0  0  0
   -4.9616    0.4719    1.0398 H   0  0  0  0  0  0  0  0  0  0  0  0
   -5.9167   -0.4928   -0.9452 H   0  0  0  0  0  0  0  0  0  0  0  0
   -7.2310   -2.0907   -2.2586 H   0  0  0  0  0  0  0  0  0  0  0  0
   -6.5641   -4.4706   -2.3678 H   0  0  0  0  0  0  0  0  0  0  0  0
   -4.5699   -5.2592   -1.1647 H   0  0  0  0  0  0  0  0  0  0  0  0
   -2.9562   -3.6023    1.4799 H   0  0  0  0  0  0  0  0  0  0  0  0
   -2.7845   -4.9266    0.3189 H   0  0  0  0  0  0  0  0  0  0  0  0
   -1.7720   -2.6982   -1.1544 H   0  0  0  0  0  0  0  0  0  0  0  0
   -0.8474   -4.0331   -0.4440 H   0  0  0  0  0  0  0  0  0  0  0  0
   -0.1590   -2.8563    1.4265 H   0  0  0  0  0  0  0  0  0  0  0  0
   -1.5778   -1.7872    1.4798 H   0  0  0  0  0  0  0  0  0  0  0  0
   -0.7598   -0.6421   -0.6563 H   0  0  0  0  0  0  0  0  0  0  0  0
    0.7060   -1.6521   -0.5812 H   0  0  0  0  0  0  0  0  0  0  0  0
    1.5328    1.8745    0.5722 H   0  0  0  0  0  0  0  0  0  0  0  0
    0.9027    1.0766   -0.9034 H   0  0  0  0  0  0  0  0  0  0  0  0
    3.3480    1.1785   -0.8563 H   0  0  0  0  0  0  0  0  0  0  0  0
    2.8523   -0.5471   -0.7381 H   0  0  0  0  0  0  0  0  0  0  0  0
    6.2739    2.6056   -0.1227 H   0  0  0  0  0  0  0  0  0  0  0  0
    7.7038    2.4334   -2.1334 H   0  0  0  0  0  0  0  0  0  0  0  0
    8.0914    0.2121   -3.1754 H   0  0  0  0  0  0  0  0  0  0  0  0
    4.5213   -2.1701   -0.3848 H   0  0  0  0  0  0  0  0  0  0  0  0
    5.6545   -2.0602    1.0241 H   0  0  0  0  0  0  0  0  0  0  0  0
    6.1578   -2.9121   -0.4749 H   0  0  0  0  0  0  0  0  0  0  0  0
    2.5572    0.9338    2.8134 H   0  0  0  0  0  0  0  0  0  0  0  0
    3.4755   -0.6112    2.9852 H   0  0  0  0  0  0  0  0  0  0  0  0
    1.0735   -1.1100    2.9102 H   0  0  0  0  0  0  0  0  0  0  0  0
    1.9473   -1.7778    1.5147 H   0  0  0  0  0  0  0  0  0  0  0  0
    0.0174    1.5519    2.3270 H   0  0  0  0  0  0  0  0  0  0  0  0
   -0.8160    0.0486    2.6094 H   0  0  0  0  0  0  0  0  0  0  0  0
  1  2  1  0
  2  3  1  0
  3  4  1  0
  4  5  1  0
  5  6  1  0
  6  7  1  0
  7  8  1  0
  8  9  1  0
  9 10  2  0
 10 11  1  0
 11 12  2  0
 12 13  1  0
 13 14  2  0
 14 15  1  0
 15 16  1  0
 16 17  1  0
 17 18  1  0
 18 19  1  0
 19 20  1  0
 20 21  1  0
 21 22  1  0
 22 23  1  0
 23 24  2  0
 23 25  1  0
 25 26  2  0
 26 27  1  0
 27 28  2  0
 28 29  1  0
 29 30  2  0
 30 31  1  0
 22 32  1  0
 32 33  1  0
 19 34  1  0
 34  5  1  0
 14  9  1  0
 33 19  1  0
 30 25  1  0
  1 35  1  0
  1 36  1  0
  1 37  1  0
  2 38  1  0
  2 39  1  0
  3 40  1  0
  3 41  1  0
  4 42  1  0
  4 43  1  0
  6 44  1  0
  6 45  1  0
  7 46  1  0
  7 47  1  0
 10 48  1  0
 11 49  1  0
 12 50  1  0
 13 51  1  0
 15 52  1  0
 15 53  1  0
 16 54  1  0
 16 55  1  0
 17 56  1  0
 17 57  1  0
 18 58  1  0
 18 59  1  0
 20 60  1  0
 20 61  1  0
 21 62  1  0
 21 63  1  0
 26 64  1  0
 27 65  1  0
 28 66  1  0
 31 67  1  0
 31 68  1  0
 31 69  1  0
 32 70  1  0
 32 71  1  0
 33 72  1  0
 33 73  1  0
 34 74  1  0
 34 75  1  0
M  END
$$$$
