
     RDKit          3D

 75 77  0  0  0  0  0  0  0  0999 V2000
   -4.6169   -4.4327   -1.1358 C   0  0  0  0  0  0  0  0  0  0  0  0
   -4.5100   -3.6454    0.1801 C   0  0  0  0  0  0  0  0  0  0  0  0
   -5.1266   -4.4628    1.3230 C   0  0  0  0  0  0  0  0  0  0  0  0
   -3.0402   -3.2887    0.5191 C   0  0  0  0  0  0  0  0  0  0  0  0
   -2.4500   -2.1470   -0.3482 C   0  0  0  0  0  0  0  0  0  0  0  0
   -0.9849   -2.1366   -0.2189 N   0  0  0  0  0  0  0  0  0  0  0  0
   -0.2758   -2.0768    1.0296 C   0  0  0  0  0  0  0  0  0  0  0  0
    0.5906   -2.9552    1.2865 O   0  0  0  0  0  0  0  0  0  0  0  0
   -0.4402   -0.9170    1.9730 C   0  0  0  0  0  0  0  0  0  0  0  0
    0.7836    0.0259    1.9829 C   0  0  0  0  0  0  0  0  0  0  0  0
    1.3225    0.3055    0.5857 C   0  0  0  0  0  0  0  0  0  0  0  0
    0.5042    0.5292   -0.3465 O   0  0  0  0  0  0  0  0  0  0  0  0
    2.7388    0.4250    0.3239 N   0  0  0  0  0  0  0  0  0  0  0  0
    3.7020   -0.3421    1.1320 C   0  0  0  0  0  0  0  0  0  0  0  0
    5.0679   -0.5378    0.4583 C   0  0  0  0  0  0  0  0  0  0  0  0
    4.9566   -1.2265   -0.9168 C   0  0  0  0  0  0  0  0  0  0  0  0
    4.7375   -0.2971   -2.0442 N   0  0  0  0  0  0  0  0  0  0  0  0
    5.8836    0.5778   -2.3437 C   0  0  0  0  0  0  0  0  0  0  0  0
    3.4347    0.3992   -2.0484 C   0  0  0  0  0  0  0  0  0  0  0  0
    3.1813    1.2603   -0.8018 C   0  0  0  0  0  0  0  0  0  0  0  0
    0.4136    1.2734    2.6654 N   0  0  0  0  0  0  0  0  0  0  0  0
    1.0619    2.5221    2.4013 C   0  0  0  0  0  0  0  0  0  0  0  0
    1.9383    2.9283    3.2109 O   0  0  0  0  0  0  0  0  0  0  0  0
    0.7022    3.3585    1.2218 C   0  0  0  0  0  0  0  0  0  0  0  0
    1.6159    4.3384    0.7887 C   0  0  0  0  0  0  0  0  0  0  0  0
    1.2982    5.1950   -0.2650 C   0  0  0  0  0  0  0  0  0  0  0  0
    0.0581    5.1016   -0.8909 C   0  0  0  0  0  0  0  0  0  0  0  0
   -0.8632    4.1390   -0.4790 C   0  0  0  0  0  0  0  0  0  0  0  0
   -0.5507    3.2429    0.5617 C   0  0  0  0  0  0  0  0  0  0  0  0
   -1.4541    2.2378    0.9521 O   0  0  0  0  0  0  0  0  0  0  0  0
   -2.8742    2.2846    0.7955 C   0  0  0  0  0  0  0  0  0  0  0  0
   -3.3676    1.6850   -0.5354 C   0  0  0  0  0  0  0  0  0  0  0  0
   -2.7531    0.3833   -0.8584 N   0  0  0  0  0  0  0  0  0  0  0  0
   -2.0952    0.2230   -2.1626 C   0  0  0  0  0  0  0  0  0  0  0  0
   -3.0497   -0.7799   -0.0456 C   0  0  0  0  0  0  0  0  0  0  0  0
   -3.8255   -0.6577    0.9429 O   0  0  0  0  0  0  0  0  0  0  0  0
   -5.6682   -4.7474   -1.3102 H   0  0  0  0  0  0  0  0  0  0  0  0
   -3.9766   -5.3410   -1.1059 H   0  0  0  0  0  0  0  0  0  0  0  0
   -4.3145   -3.8047   -1.9988 H   0  0  0  0  0  0  0  0  0  0  0  0
   -5.1093   -2.7156    0.0756 H   0  0  0  0  0  0  0  0  0  0  0  0
   -6.1788   -4.7245    1.0863 H   0  0  0  0  0  0  0  0  0  0  0  0
   -5.1269   -3.8702    2.2617 H   0  0  0  0  0  0  0  0  0  0  0  0
   -4.5511   -5.3979    1.4895 H   0  0  0  0  0  0  0  0  0  0  0  0
   -2.4133   -4.2004    0.3963 H   0  0  0  0  0  0  0  0  0  0  0  0
   -2.9570   -2.9965    1.5900 H   0  0  0  0  0  0  0  0  0  0  0  0
   -2.6850   -2.3750   -1.4076 H   0  0  0  0  0  0  0  0  0  0  0  0
   -0.4405   -2.4785   -1.0430 H   0  0  0  0  0  0  0  0  0  0  0  0
   -0.5995   -1.3154    2.9979 H   0  0  0  0  0  0  0  0  0  0  0  0
   -1.3373   -0.3304    1.7247 H   0  0  0  0  0  0  0  0  0  0  0  0
    1.5630   -0.4699    2.5951 H   0  0  0  0  0  0  0  0  0  0  0  0
    3.2864   -1.3536    1.3376 H   0  0  0  0  0  0  0  0  0  0  0  0
    3.8509    0.1742    2.1049 H   0  0  0  0  0  0  0  0  0  0  0  0
    5.6699   -1.1944    1.1220 H   0  0  0  0  0  0  0  0  0  0  0  0
    5.6208    0.4200    0.4046 H   0  0  0  0  0  0  0  0  0  0  0  0
    4.1444   -1.9856   -0.9008 H   0  0  0  0  0  0  0  0  0  0  0  0
    5.8933   -1.7975   -1.1014 H   0  0  0  0  0  0  0  0  0  0  0  0
    5.7604    1.0206   -3.3540 H   0  0  0  0  0  0  0  0  0  0  0  0
    6.8269   -0.0085   -2.3565 H   0  0  0  0  0  0  0  0  0  0  0  0
    5.9841    1.4025   -1.6109 H   0  0  0  0  0  0  0  0  0  0  0  0
    2.6190   -0.3493   -2.1530 H   0  0  0  0  0  0  0  0  0  0  0  0
    3.3674    1.0478   -2.9495 H   0  0  0  0  0  0  0  0  0  0  0  0
    4.0681    1.8590   -0.5160 H   0  0  0  0  0  0  0  0  0  0  0  0
    2.3996    2.0125   -1.0480 H   0  0  0  0  0  0  0  0  0  0  0  0
   -0.0076    1.1717    3.6164 H   0  0  0  0  0  0  0  0  0  0  0  0
    2.5835    4.4414    1.2648 H   0  0  0  0  0  0  0  0  0  0  0  0
    2.0131    5.9387   -0.5908 H   0  0  0  0  0  0  0  0  0  0  0  0
   -0.1901    5.7763   -1.6999 H   0  0  0  0  0  0  0  0  0  0  0  0
   -1.8145    4.1006   -0.9837 H   0  0  0  0  0  0  0  0  0  0  0  0
   -3.3256    1.7174    1.6346 H   0  0  0  0  0  0  0  0  0  0  0  0
   -3.2370    3.3303    0.8973 H   0  0  0  0  0  0  0  0  0  0  0  0
   -3.2034    2.4151   -1.3520 H   0  0  0  0  0  0  0  0  0  0  0  0
   -4.4696    1.5557   -0.4747 H   0  0  0  0  0  0  0  0  0  0  0  0
   -1.1368   -0.3178   -2.0584 H   0  0  0  0  0  0  0  0  0  0  0  0
   -2.7587   -0.3458   -2.8476 H   0  0  0  0  0  0  0  0  0  0  0  0
   -1.8632    1.2036   -2.6298 H   0  0  0  0  0  0  0  0  0  0  0  0
  1  2  1  0
  2  3  1  0
  2  4  1  0
  4  5  1  0
  5  6  1  0
  6  7  1  0
  7  8  2  0
  7  9  1  0
  9 10  1  0
 10 11  1  0
 11 12  2  0
 11 13  1  0
 13 14  1  0
 14 15  1  0
 15 16  1  0
 16 17  1  0
 17 18  1  0
 17 19  1  0
 19 20  1  0
 10 21  1  0
 21 22  1  0
 22 23  2  0
 22 24  1  0
 24 25  2  0
 25 26  1  0
 26 27  2  0
 27 28  1  0
 28 29  2  0
 29 30  1  0
 30 31  1  0
 31 32  1  0
 32 33  1  0
 33 34  1  0
 33 35  1  0
 35 36  2  0
 35  5  1  0
 20 13  1  0
 29 24  1  0
  1 37  1  0
  1 38  1  0
  1 39  1  0
  2 40  1  0
  3 41  1  0
  3 42  1  0
  3 43  1  0
  4 44  1  0
  4 45  1  0
  5 46  1  0
  6 47  1  0
  9 48  1  0
  9 49  1  0
 10 50  1  0
 14 51  1  0
 14 52  1  0
 15 53  1  0
 15 54  1  0
 16 55  1  0
 16 56  1  0
 18 57  1  0
 18 58  1  0
 18 59  1  0
 19 60  1  0
 19 61  1  0
 20 62  1  0
 20 63  1  0
 21 64  1  0
 25 65  1  0
 26 66  1  0
 27 67  1  0
 28 68  1  0
 31 69  1  0
 31 70  1  0
 32 71  1  0
 32 72  1  0
 34 73  1  0
 34 74  1  0
 34 75  1  0
M  END
$$$$
