
     RDKit          3D

 71 74  0  0  0  0  0  0  0  0999 V2000
    8.9272   -0.3025    0.9721 C   0  0  0  0  0  0  0  0  0  0  0  0
    7.5237   -0.0924    0.3931 C   0  0  0  0  0  0  0  0  0  0  0  0
    7.3872   -0.7690   -0.9831 C   0  0  0  0  0  0  0  0  0  0  0  0
    5.9346   -0.7448   -1.5097 C   0  0  0  0  0  0  0  0  0  0  0  0
    5.0410    0.0254   -0.6192 N   0  0  0  0  0  0  0  0  0  0  0  0
    3.6743    0.0753   -1.1819 C   0  0  0  0  0  0  0  0  0  0  0  0
    2.8663    1.1782   -0.5455 C   0  0  0  0  0  0  0  0  0  0  0  0
    3.4660    2.2022   -0.1158 O   0  0  0  0  0  0  0  0  0  0  0  0
    1.4256    1.1125   -0.4801 N   0  0  0  0  0  0  0  0  0  0  0  0
    0.6908    2.0376    0.3905 C   0  0  0  0  0  0  0  0  0  0  0  0
   -0.5017    1.3320    1.0539 C   0  0  0  0  0  0  0  0  0  0  0  0
   -1.3918    0.4558    0.0799 C   0  0  0  0  0  0  0  0  0  0  0  0
   -1.4102   -1.0468    0.5931 C   0  0  0  0  0  0  0  0  0  0  0  0
   -1.6538   -2.2173   -0.3983 C   0  0  0  0  0  0  0  0  0  0  0  0
   -3.0446   -2.3451   -1.0461 C   0  0  0  0  0  0  0  0  0  0  0  0
   -4.1654   -2.8502   -0.1039 C   0  0  0  0  0  0  0  0  0  0  0  0
   -5.0196   -1.7295    0.4934 C   0  0  0  0  0  0  0  0  0  0  0  0
   -5.4484   -0.8552   -0.5509 O   0  0  0  0  0  0  0  0  0  0  0  0
   -6.1242    0.3697   -0.4269 C   0  0  0  0  0  0  0  0  0  0  0  0
   -7.0787    0.6471   -1.4158 C   0  0  0  0  0  0  0  0  0  0  0  0
   -7.8150    1.8314   -1.3944 C   0  0  0  0  0  0  0  0  0  0  0  0
   -7.5997    2.7662   -0.3855 C   0  0  0  0  0  0  0  0  0  0  0  0
   -6.6380    2.5245    0.5954 C   0  0  0  0  0  0  0  0  0  0  0  0
   -5.8728    1.3438    0.5822 C   0  0  0  0  0  0  0  0  0  0  0  0
   -4.8692    1.1922    1.6551 C   0  0  0  0  0  0  0  0  0  0  0  0
   -5.2603    1.2680    2.8505 O   0  0  0  0  0  0  0  0  0  0  0  0
   -3.4682    0.9958    1.4026 N   0  0  0  0  0  0  0  0  0  0  0  0
   -2.8343    1.0592    0.0781 C   0  0  0  0  0  0  0  0  0  0  0  0
   -0.8280    0.5536   -1.3706 C   0  0  0  0  0  0  0  0  0  0  0  0
    0.6817    0.2696   -1.4265 C   0  0  0  0  0  0  0  0  0  0  0  0
    5.0316   -0.5806    0.7321 C   0  0  0  0  0  0  0  0  0  0  0  0
    6.4456   -0.6230    1.3545 C   0  0  0  0  0  0  0  0  0  0  0  0
    9.1313   -1.3833    1.1298 H   0  0  0  0  0  0  0  0  0  0  0  0
    9.0202    0.2254    1.9450 H   0  0  0  0  0  0  0  0  0  0  0  0
    9.6915    0.1094    0.2793 H   0  0  0  0  0  0  0  0  0  0  0  0
    7.3713    1.0034    0.2643 H   0  0  0  0  0  0  0  0  0  0  0  0
    7.7270   -1.8267   -0.9153 H   0  0  0  0  0  0  0  0  0  0  0  0
    8.0540   -0.2517   -1.7077 H   0  0  0  0  0  0  0  0  0  0  0  0
    5.5617   -1.7895   -1.6218 H   0  0  0  0  0  0  0  0  0  0  0  0
    5.9424   -0.2838   -2.5228 H   0  0  0  0  0  0  0  0  0  0  0  0
    3.7100    0.2949   -2.2718 H   0  0  0  0  0  0  0  0  0  0  0  0
    3.1684   -0.9067   -1.0535 H   0  0  0  0  0  0  0  0  0  0  0  0
    1.3491    2.4359    1.1933 H   0  0  0  0  0  0  0  0  0  0  0  0
    0.3324    2.9006   -0.2116 H   0  0  0  0  0  0  0  0  0  0  0  0
   -0.1062    0.7243    1.8963 H   0  0  0  0  0  0  0  0  0  0  0  0
   -1.0952    2.1343    1.5442 H   0  0  0  0  0  0  0  0  0  0  0  0
   -0.4043   -1.2683    1.0116 H   0  0  0  0  0  0  0  0  0  0  0  0
   -2.0956   -1.1686    1.4533 H   0  0  0  0  0  0  0  0  0  0  0  0
   -1.4455   -3.1658    0.1440 H   0  0  0  0  0  0  0  0  0  0  0  0
   -0.8975   -2.1908   -1.2070 H   0  0  0  0  0  0  0  0  0  0  0  0
   -2.9376   -3.1122   -1.8449 H   0  0  0  0  0  0  0  0  0  0  0  0
   -3.3205   -1.4256   -1.5919 H   0  0  0  0  0  0  0  0  0  0  0  0
   -4.8445   -3.5073   -0.6907 H   0  0  0  0  0  0  0  0  0  0  0  0
   -3.7437   -3.4743    0.7138 H   0  0  0  0  0  0  0  0  0  0  0  0
   -4.4222   -1.2268    1.2612 H   0  0  0  0  0  0  0  0  0  0  0  0
   -5.9107   -2.1672    0.9920 H   0  0  0  0  0  0  0  0  0  0  0  0
   -7.2610   -0.0734   -2.2035 H   0  0  0  0  0  0  0  0  0  0  0  0
   -8.5561    2.0224   -2.1600 H   0  0  0  0  0  0  0  0  0  0  0  0
   -8.1746    3.6831   -0.3660 H   0  0  0  0  0  0  0  0  0  0  0  0
   -6.4777    3.2730    1.3628 H   0  0  0  0  0  0  0  0  0  0  0  0
   -2.8744    0.8292    2.2463 H   0  0  0  0  0  0  0  0  0  0  0  0
   -3.4503    0.5429   -0.6699 H   0  0  0  0  0  0  0  0  0  0  0  0
   -2.7988    2.1244   -0.2392 H   0  0  0  0  0  0  0  0  0  0  0  0
   -0.9953    1.5796   -1.7680 H   0  0  0  0  0  0  0  0  0  0  0  0
   -1.3650   -0.1199   -2.0686 H   0  0  0  0  0  0  0  0  0  0  0  0
    0.8731   -0.7962   -1.1916 H   0  0  0  0  0  0  0  0  0  0  0  0
    1.0392    0.4671   -2.4608 H   0  0  0  0  0  0  0  0  0  0  0  0
    4.3727    0.0111    1.4059 H   0  0  0  0  0  0  0  0  0  0  0  0
    4.6173   -1.6152    0.6930 H   0  0  0  0  0  0  0  0  0  0  0  0
    6.6835   -1.6740    1.6360 H   0  0  0  0  0  0  0  0  0  0  0  0
    6.4599   -0.0176    2.2884 H   0  0  0  0  0  0  0  0  0  0  0  0
  1  2  1  0
  2  3  1  0
  3  4  1  0
  4  5  1  0
  5  6  1  0
  6  7  1  0
  7  8  2  0
  7  9  1  0
  9 10  1  0
 10 11  1  0
 11 12  1  0
 12 13  1  0
 13 14  1  0
 14 15  1  0
 15 16  1  0
 16 17  1  0
 17 18  1  0
 18 19  1  0
 19 20  2  0
 20 21  1  0
 21 22  2  0
 22 23  1  0
 23 24  2  0
 24 25  1  0
 25 26  2  0
 25 27  1  0
 27 28  1  0
 12 29  1  0
 29 30  1  0
  5 31  1  0
 31 32  1  0
 32  2  1  0
 30  9  1  0
 28 12  1  0
 24 19  1  0
  1 33  1  0
  1 34  1  0
  1 35  1  0
  2 36  1  0
  3 37  1  0
  3 38  1  0
  4 39  1  0
  4 40  1  0
  6 41  1  0
  6 42  1  0
 10 43  1  0
 10 44  1  0
 11 45  1  0
 11 46  1  0
 13 47  1  0
 13 48  1  0
 14 49  1  0
 14 50  1  0
 15 51  1  0
 15 52  1  0
 16 53  1  0
 16 54  1  0
 17 55  1  0
 17 56  1  0
 20 57  1  0
 21 58  1  0
 22 59  1  0
 23 60  1  0
 27 61  1  0
 28 62  1  0
 28 63  1  0
 29 64  1  0
 29 65  1  0
 30 66  1  0
 30 67  1  0
 31 68  1  0
 31 69  1  0
 32 70  1  0
 32 71  1  0
M  END
$$$$
