
     RDKit          3D

 72 76  0  0  0  0  0  0  0  0999 V2000
   -9.8033    0.2731   -3.2906 C   0  0  0  0  0  0  0  0  0  0  0  0
   -8.2964    0.1513   -3.0718 C   0  0  0  0  0  0  0  0  0  0  0  0
   -7.7611    1.1735   -2.0266 C   0  0  0  0  0  0  0  0  0  0  0  0
   -7.1613    0.2920   -0.9906 C   0  0  0  0  0  0  0  0  0  0  0  0
   -6.4910    0.6495    0.1809 C   0  0  0  0  0  0  0  0  0  0  0  0
   -6.0010   -0.3771    1.0177 C   0  0  0  0  0  0  0  0  0  0  0  0
   -5.2053   -0.0401    2.2460 C   0  0  0  0  0  0  0  0  0  0  0  0
   -3.7795   -0.1003    1.9292 N   0  0  0  0  0  0  0  0  0  0  0  0
   -2.9469    1.0651    1.8341 C   0  0  0  0  0  0  0  0  0  0  0  0
   -3.3483    2.1687    2.2798 O   0  0  0  0  0  0  0  0  0  0  0  0
   -1.5947    0.9719    1.2460 C   0  0  0  0  0  0  0  0  0  0  0  0
   -1.1052    2.0119    0.4458 C   0  0  0  0  0  0  0  0  0  0  0  0
    0.1696    1.9285   -0.1246 C   0  0  0  0  0  0  0  0  0  0  0  0
    0.9832    0.8006    0.0986 C   0  0  0  0  0  0  0  0  0  0  0  0
    0.5030   -0.2416    0.9203 C   0  0  0  0  0  0  0  0  0  0  0  0
   -0.7821   -0.1479    1.4845 C   0  0  0  0  0  0  0  0  0  0  0  0
    1.3115   -1.5038    1.1355 C   0  0  0  0  0  0  0  0  0  0  0  0
    2.6880   -1.2162    1.6797 C   0  0  0  0  0  0  0  0  0  0  0  0
    2.8500   -0.4992    2.8765 C   0  0  0  0  0  0  0  0  0  0  0  0
    4.1300   -0.2193    3.3602 C   0  0  0  0  0  0  0  0  0  0  0  0
    5.2565   -0.6744    2.6688 C   0  0  0  0  0  0  0  0  0  0  0  0
    5.1102   -1.4161    1.4872 C   0  0  0  0  0  0  0  0  0  0  0  0
    3.8236   -1.6764    0.9945 C   0  0  0  0  0  0  0  0  0  0  0  0
    6.3102   -1.8865    0.7084 C   0  0  0  0  0  0  0  0  0  0  0  0
    6.4491   -1.0798   -0.5231 N   0  0  0  0  0  0  0  0  0  0  0  0
    7.0948   -1.8728   -1.5824 C   0  0  0  0  0  0  0  0  0  0  0  0
    7.2094    0.1659   -0.2652 C   0  0  0  0  0  0  0  0  0  0  0  0
    6.7096    1.3139   -1.1542 C   0  0  0  0  0  0  0  0  0  0  0  0
    5.2681    1.7484   -0.8180 C   0  0  0  0  0  0  0  0  0  0  0  0
    4.2355    1.1517   -1.7894 C   0  0  0  0  0  0  0  0  0  0  0  0
    2.8084    1.5856   -1.4317 C   0  0  0  0  0  0  0  0  0  0  0  0
    2.2533    0.6780   -0.4840 O   0  0  0  0  0  0  0  0  0  0  0  0
   -6.1774   -1.7317    0.6424 C   0  0  0  0  0  0  0  0  0  0  0  0
   -6.8479   -2.0566   -0.5479 C   0  0  0  0  0  0  0  0  0  0  0  0
   -7.3236   -1.0176   -1.3435 C   0  0  0  0  0  0  0  0  0  0  0  0
   -7.9847   -1.1402   -2.5450 O   0  0  0  0  0  0  0  0  0  0  0  0
  -10.0532    1.2846   -3.6769 H   0  0  0  0  0  0  0  0  0  0  0  0
  -10.1347   -0.4862   -4.0308 H   0  0  0  0  0  0  0  0  0  0  0  0
  -10.3487    0.0983   -2.3403 H   0  0  0  0  0  0  0  0  0  0  0  0
   -7.7695    0.2890   -4.0410 H   0  0  0  0  0  0  0  0  0  0  0  0
   -6.9767    1.8223   -2.4722 H   0  0  0  0  0  0  0  0  0  0  0  0
   -8.5679    1.7962   -1.5811 H   0  0  0  0  0  0  0  0  0  0  0  0
   -6.3507    1.6941    0.4335 H   0  0  0  0  0  0  0  0  0  0  0  0
   -5.4256   -0.7769    3.0478 H   0  0  0  0  0  0  0  0  0  0  0  0
   -5.4941    0.9618    2.6342 H   0  0  0  0  0  0  0  0  0  0  0  0
   -3.4033   -1.0229    1.6128 H   0  0  0  0  0  0  0  0  0  0  0  0
   -1.7167    2.8846    0.2471 H   0  0  0  0  0  0  0  0  0  0  0  0
    0.5023    2.7417   -0.7554 H   0  0  0  0  0  0  0  0  0  0  0  0
   -1.1407   -0.9463    2.1233 H   0  0  0  0  0  0  0  0  0  0  0  0
    1.3776   -2.0356    0.1619 H   0  0  0  0  0  0  0  0  0  0  0  0
    0.7999   -2.1959    1.8382 H   0  0  0  0  0  0  0  0  0  0  0  0
    1.9817   -0.1487    3.4246 H   0  0  0  0  0  0  0  0  0  0  0  0
    4.2540    0.3508    4.2702 H   0  0  0  0  0  0  0  0  0  0  0  0
    6.2419   -0.4444    3.0511 H   0  0  0  0  0  0  0  0  0  0  0  0
    3.7109   -2.2310    0.0702 H   0  0  0  0  0  0  0  0  0  0  0  0
    7.2374   -1.8460    1.3254 H   0  0  0  0  0  0  0  0  0  0  0  0
    6.1467   -2.9629    0.4696 H   0  0  0  0  0  0  0  0  0  0  0  0
    7.1981   -1.2735   -2.5109 H   0  0  0  0  0  0  0  0  0  0  0  0
    8.0974   -2.2316   -1.2601 H   0  0  0  0  0  0  0  0  0  0  0  0
    6.4657   -2.7531   -1.8354 H   0  0  0  0  0  0  0  0  0  0  0  0
    8.3028    0.0201   -0.4344 H   0  0  0  0  0  0  0  0  0  0  0  0
    7.1069    0.4960    0.7941 H   0  0  0  0  0  0  0  0  0  0  0  0
    7.3852    2.1830   -0.9845 H   0  0  0  0  0  0  0  0  0  0  0  0
    6.8110    1.0431   -2.2280 H   0  0  0  0  0  0  0  0  0  0  0  0
    5.2131    2.8564   -0.8865 H   0  0  0  0  0  0  0  0  0  0  0  0
    5.0020    1.4759    0.2267 H   0  0  0  0  0  0  0  0  0  0  0  0
    4.4673    1.5035   -2.8183 H   0  0  0  0  0  0  0  0  0  0  0  0
    4.3014    0.0409   -1.7949 H   0  0  0  0  0  0  0  0  0  0  0  0
    2.8133    2.6190   -1.0129 H   0  0  0  0  0  0  0  0  0  0  0  0
    2.1791    1.5777   -2.3480 H   0  0  0  0  0  0  0  0  0  0  0  0
   -5.7878   -2.5282    1.2660 H   0  0  0  0  0  0  0  0  0  0  0  0
   -6.9804   -3.0879   -0.8480 H   0  0  0  0  0  0  0  0  0  0  0  0
  1  2  1  0
  2  3  1  0
  3  4  1  0
  4  5  2  0
  5  6  1  0
  6  7  1  0
  7  8  1  0
  8  9  1  0
  9 10  2  0
  9 11  1  0
 11 12  2  0
 12 13  1  0
 13 14  2  0
 14 15  1  0
 15 16  2  0
 15 17  1  0
 17 18  1  0
 18 19  2  0
 19 20  1  0
 20 21  2  0
 21 22  1  0
 22 23  2  0
 22 24  1  0
 24 25  1  0
 25 26  1  0
 25 27  1  0
 27 28  1  0
 28 29  1  0
 29 30  1  0
 30 31  1  0
 31 32  1  0
  6 33  2  0
 33 34  1  0
 34 35  2  0
 35 36  1  0
 36  2  1  0
 35  4  1  0
 16 11  1  0
 23 18  1  0
 32 14  1  0
  1 37  1  0
  1 38  1  0
  1 39  1  0
  2 40  1  0
  3 41  1  0
  3 42  1  0
  5 43  1  0
  7 44  1  0
  7 45  1  0
  8 46  1  0
 12 47  1  0
 13 48  1  0
 16 49  1  0
 17 50  1  0
 17 51  1  0
 19 52  1  0
 20 53  1  0
 21 54  1  0
 23 55  1  0
 24 56  1  0
 24 57  1  0
 26 58  1  0
 26 59  1  0
 26 60  1  0
 27 61  1  0
 27 62  1  0
 28 63  1  0
 28 64  1  0
 29 65  1  0
 29 66  1  0
 30 67  1  0
 30 68  1  0
 31 69  1  0
 31 70  1  0
 33 71  1  0
 34 72  1  0
M  END
$$$$
