
     RDKit          3D

 79 83  0  0  0  0  0  0  0  0999 V2000
    4.4036   -1.9980    0.5705 O   0  0  0  0  0  0  0  0  0  0  0  0
    3.7142   -0.9761    0.3052 C   0  0  0  0  0  0  0  0  0  0  0  0
    4.3765    0.2504   -0.0346 N   0  0  0  0  0  0  0  0  0  0  0  0
    5.7082    0.5695    0.4750 C   0  0  0  0  0  0  0  0  0  0  0  0
    6.7942    0.0455   -0.4705 C   0  0  0  0  0  0  0  0  0  0  0  0
    8.1918    0.2538    0.1317 C   0  0  0  0  0  0  0  0  0  0  0  0
    9.2414   -0.1782   -0.8180 N   0  0  0  0  0  0  0  0  0  0  0  0
    9.5199    0.8627   -1.8266 C   0  0  0  0  0  0  0  0  0  0  0  0
   10.8554    1.5265   -1.4885 C   0  0  0  0  0  0  0  0  0  0  0  0
   11.2868    0.9066   -0.1805 C   0  0  0  0  0  0  0  0  0  0  0  0
   10.5212   -0.3985   -0.1287 C   0  0  0  0  0  0  0  0  0  0  0  0
    2.2354   -1.0498    0.3909 C   0  0  0  0  0  0  0  0  0  0  0  0
    1.5882   -2.2965    0.4029 C   0  0  0  0  0  0  0  0  0  0  0  0
    0.2065   -2.3793    0.5976 C   0  0  0  0  0  0  0  0  0  0  0  0
   -0.5591   -1.2179    0.8129 C   0  0  0  0  0  0  0  0  0  0  0  0
    0.0696    0.0445    0.7371 C   0  0  0  0  0  0  0  0  0  0  0  0
    1.4635    0.1157    0.5427 C   0  0  0  0  0  0  0  0  0  0  0  0
   -0.6977    1.3221    0.9911 C   0  0  0  0  0  0  0  0  0  0  0  0
   -1.8453    1.4948    0.0306 C   0  0  0  0  0  0  0  0  0  0  0  0
   -1.6116    1.6675   -1.3448 C   0  0  0  0  0  0  0  0  0  0  0  0
   -2.6868    1.8304   -2.2231 C   0  0  0  0  0  0  0  0  0  0  0  0
   -3.9989    1.8106   -1.7400 C   0  0  0  0  0  0  0  0  0  0  0  0
   -4.2437    1.6373   -0.3710 C   0  0  0  0  0  0  0  0  0  0  0  0
   -3.1619    1.4960    0.5099 C   0  0  0  0  0  0  0  0  0  0  0  0
   -5.6555    1.5701    0.1498 C   0  0  0  0  0  0  0  0  0  0  0  0
   -6.3830    0.3879   -0.3698 N   0  0  0  0  0  0  0  0  0  0  0  0
   -7.8025    0.3983    0.0591 C   0  0  0  0  0  0  0  0  0  0  0  0
   -8.6373    1.1925   -0.9543 C   0  0  0  0  0  0  0  0  0  0  0  0
  -10.1421    1.0303   -0.8128 C   0  0  0  0  0  0  0  0  0  0  0  0
   -9.4101    0.3648   -1.9697 C   0  0  0  0  0  0  0  0  0  0  0  0
   -5.7108   -0.9081   -0.0982 C   0  0  0  0  0  0  0  0  0  0  0  0
   -5.4891   -1.1980    1.4007 C   0  0  0  0  0  0  0  0  0  0  0  0
   -5.0756   -2.6564    1.6584 C   0  0  0  0  0  0  0  0  0  0  0  0
   -3.6741   -3.0264    1.1352 C   0  0  0  0  0  0  0  0  0  0  0  0
   -2.5306   -2.3290    1.8935 C   0  0  0  0  0  0  0  0  0  0  0  0
   -1.9390   -1.3021    1.0925 O   0  0  0  0  0  0  0  0  0  0  0  0
    3.8934    0.9553   -0.6329 H   0  0  0  0  0  0  0  0  0  0  0  0
    5.7982    1.6730    0.5578 H   0  0  0  0  0  0  0  0  0  0  0  0
    5.8362    0.1372    1.4925 H   0  0  0  0  0  0  0  0  0  0  0  0
    6.7039    0.5743   -1.4420 H   0  0  0  0  0  0  0  0  0  0  0  0
    6.6413   -1.0396   -0.6540 H   0  0  0  0  0  0  0  0  0  0  0  0
    8.2355   -0.3589    1.0583 H   0  0  0  0  0  0  0  0  0  0  0  0
    8.3335    1.3156    0.4278 H   0  0  0  0  0  0  0  0  0  0  0  0
    9.5841    0.3780   -2.8232 H   0  0  0  0  0  0  0  0  0  0  0  0
    8.7174    1.6277   -1.8919 H   0  0  0  0  0  0  0  0  0  0  0  0
   11.6041    1.2972   -2.2770 H   0  0  0  0  0  0  0  0  0  0  0  0
   10.7488    2.6281   -1.3911 H   0  0  0  0  0  0  0  0  0  0  0  0
   12.3844    0.7411   -0.1354 H   0  0  0  0  0  0  0  0  0  0  0  0
   10.9717    1.5520    0.6674 H   0  0  0  0  0  0  0  0  0  0  0  0
   10.4054   -0.7560    0.9190 H   0  0  0  0  0  0  0  0  0  0  0  0
   11.0903   -1.1799   -0.6828 H   0  0  0  0  0  0  0  0  0  0  0  0
    2.1536   -3.2123    0.2717 H   0  0  0  0  0  0  0  0  0  0  0  0
   -0.2647   -3.3549    0.5760 H   0  0  0  0  0  0  0  0  0  0  0  0
    1.9461    1.0830    0.5625 H   0  0  0  0  0  0  0  0  0  0  0  0
   -0.0345    2.2086    0.8896 H   0  0  0  0  0  0  0  0  0  0  0  0
   -1.0548    1.3151    2.0421 H   0  0  0  0  0  0  0  0  0  0  0  0
   -0.5992    1.6783   -1.7330 H   0  0  0  0  0  0  0  0  0  0  0  0
   -2.5039    1.9692   -3.2809 H   0  0  0  0  0  0  0  0  0  0  0  0
   -4.8231    1.9225   -2.4314 H   0  0  0  0  0  0  0  0  0  0  0  0
   -3.3460    1.3810    1.5723 H   0  0  0  0  0  0  0  0  0  0  0  0
   -6.1760    2.4974   -0.1705 H   0  0  0  0  0  0  0  0  0  0  0  0
   -5.6683    1.5792    1.2625 H   0  0  0  0  0  0  0  0  0  0  0  0
   -8.2050   -0.6352    0.1560 H   0  0  0  0  0  0  0  0  0  0  0  0
   -7.9152    0.8695    1.0629 H   0  0  0  0  0  0  0  0  0  0  0  0
   -8.3080    2.1983   -1.2944 H   0  0  0  0  0  0  0  0  0  0  0  0
  -10.7226    1.9402   -1.0897 H   0  0  0  0  0  0  0  0  0  0  0  0
  -10.4789    0.3240   -0.0268 H   0  0  0  0  0  0  0  0  0  0  0  0
   -9.3398   -0.7415   -1.8747 H   0  0  0  0  0  0  0  0  0  0  0  0
   -9.5728    0.8684   -2.9453 H   0  0  0  0  0  0  0  0  0  0  0  0
   -4.7365   -0.9393   -0.6303 H   0  0  0  0  0  0  0  0  0  0  0  0
   -6.3135   -1.7241   -0.5490 H   0  0  0  0  0  0  0  0  0  0  0  0
   -6.4296   -1.0120    1.9577 H   0  0  0  0  0  0  0  0  0  0  0  0
   -4.7199   -0.5219    1.8190 H   0  0  0  0  0  0  0  0  0  0  0  0
   -5.8215   -3.3326    1.1878 H   0  0  0  0  0  0  0  0  0  0  0  0
   -5.1160   -2.8518    2.7521 H   0  0  0  0  0  0  0  0  0  0  0  0
   -3.5968   -2.8344    0.0444 H   0  0  0  0  0  0  0  0  0  0  0  0
   -3.5543   -4.1223    1.2676 H   0  0  0  0  0  0  0  0  0  0  0  0
   -1.7750   -3.0875    2.1916 H   0  0  0  0  0  0  0  0  0  0  0  0
   -2.8937   -1.8732    2.8358 H   0  0  0  0  0  0  0  0  0  0  0  0
  1  2  2  0
  2  3  1  0
  3  4  1  0
  4  5  1  0
  5  6  1  0
  6  7  1  0
  7  8  1  0
  8  9  1  0
  9 10  1  0
 10 11  1  0
  2 12  1  0
 12 13  2  0
 13 14  1  0
 14 15  2  0
 15 16  1  0
 16 17  2  0
 16 18  1  0
 18 19  1  0
 19 20  2  0
 20 21  1  0
 21 22  2  0
 22 23  1  0
 23 24  2  0
 23 25  1  0
 25 26  1  0
 26 27  1  0
 27 28  1  0
 28 29  1  0
 29 30  1  0
 26 31  1  0
 31 32  1  0
 32 33  1  0
 33 34  1  0
 34 35  1  0
 35 36  1  0
 11  7  1  0
 17 12  1  0
 24 19  1  0
 30 28  1  0
 36 15  1  0
  3 37  1  0
  4 38  1  0
  4 39  1  0
  5 40  1  0
  5 41  1  0
  6 42  1  0
  6 43  1  0
  8 44  1  0
  8 45  1  0
  9 46  1  0
  9 47  1  0
 10 48  1  0
 10 49  1  0
 11 50  1  0
 11 51  1  0
 13 52  1  0
 14 53  1  0
 17 54  1  0
 18 55  1  0
 18 56  1  0
 20 57  1  0
 21 58  1  0
 22 59  1  0
 24 60  1  0
 25 61  1  0
 25 62  1  0
 27 63  1  0
 27 64  1  0
 28 65  1  0
 29 66  1  0
 29 67  1  0
 30 68  1  0
 30 69  1  0
 31 70  1  0
 31 71  1  0
 32 72  1  0
 32 73  1  0
 33 74  1  0
 33 75  1  0
 34 76  1  0
 34 77  1  0
 35 78  1  0
 35 79  1  0
M  END
$$$$
