
     RDKit          3D

 66 70  0  0  0  0  0  0  0  0999 V2000
    5.1820    2.0469    1.4997 O   0  0  0  0  0  0  0  0  0  0  0  0
    5.2958    0.8804    1.0276 C   0  0  0  0  0  0  0  0  0  0  0  0
    4.2035    0.3390    0.1642 C   0  0  0  0  0  0  0  0  0  0  0  0
    4.1200   -1.0186   -0.1834 C   0  0  0  0  0  0  0  0  0  0  0  0
    3.0928   -1.4797   -1.0055 C   0  0  0  0  0  0  0  0  0  0  0  0
    2.0903   -0.6198   -1.4683 C   0  0  0  0  0  0  0  0  0  0  0  0
    2.1144    0.7464   -1.0740 C   0  0  0  0  0  0  0  0  0  0  0  0
    3.1900    1.2059   -0.2884 C   0  0  0  0  0  0  0  0  0  0  0  0
    1.0294    1.7452   -1.4295 C   0  0  0  0  0  0  0  0  0  0  0  0
   -0.0440    1.8469   -0.3577 C   0  0  0  0  0  0  0  0  0  0  0  0
    0.2606    2.1437    0.9901 C   0  0  0  0  0  0  0  0  0  0  0  0
   -0.7586    2.2428    1.9428 C   0  0  0  0  0  0  0  0  0  0  0  0
   -2.0904    2.0494    1.5727 C   0  0  0  0  0  0  0  0  0  0  0  0
   -2.4151    1.7832    0.2358 C   0  0  0  0  0  0  0  0  0  0  0  0
   -1.3933    1.7292   -0.7253 C   0  0  0  0  0  0  0  0  0  0  0  0
   -3.8465    1.5347   -0.1803 C   0  0  0  0  0  0  0  0  0  0  0  0
   -4.4535    0.3285    0.4495 N   0  0  0  0  0  0  0  0  0  0  0  0
   -5.7647    0.0504   -0.1909 C   0  0  0  0  0  0  0  0  0  0  0  0
   -6.8334    1.0902    0.1675 C   0  0  0  0  0  0  0  0  0  0  0  0
   -7.7052   -0.0004    0.7745 C   0  0  0  0  0  0  0  0  0  0  0  0
   -6.6126   -1.0253    0.5027 C   0  0  0  0  0  0  0  0  0  0  0  0
   -3.5580   -0.8660    0.4631 C   0  0  0  0  0  0  0  0  0  0  0  0
   -3.1920   -1.4176   -0.9358 C   0  0  0  0  0  0  0  0  0  0  0  0
   -2.0483   -2.4523   -0.8593 C   0  0  0  0  0  0  0  0  0  0  0  0
   -0.6332   -1.8303   -0.8620 C   0  0  0  0  0  0  0  0  0  0  0  0
   -0.2359   -1.2747   -2.2408 C   0  0  0  0  0  0  0  0  0  0  0  0
    1.1792   -1.1553   -2.3917 O   0  0  0  0  0  0  0  0  0  0  0  0
    6.4938    0.1509    1.3349 N   0  0  0  0  0  0  0  0  0  0  0  0
    7.1841   -1.1198    1.0235 C   0  0  0  0  0  0  0  0  0  0  0  0
    8.4327   -0.8177    1.7884 C   0  0  0  0  0  0  0  0  0  0  0  0
    9.5338   -0.5987    0.9447 O   0  0  0  0  0  0  0  0  0  0  0  0
    7.7105    0.4477    2.1142 C   0  0  0  0  0  0  0  0  0  0  0  0
    4.8323   -1.7410    0.1703 H   0  0  0  0  0  0  0  0  0  0  0  0
    3.0659   -2.5262   -1.2801 H   0  0  0  0  0  0  0  0  0  0  0  0
    3.2325    2.2568   -0.0266 H   0  0  0  0  0  0  0  0  0  0  0  0
    0.5933    1.5011   -2.4223 H   0  0  0  0  0  0  0  0  0  0  0  0
    1.4731    2.7558   -1.5622 H   0  0  0  0  0  0  0  0  0  0  0  0
    1.2738    2.3081    1.3244 H   0  0  0  0  0  0  0  0  0  0  0  0
   -0.5150    2.4695    2.9720 H   0  0  0  0  0  0  0  0  0  0  0  0
   -2.8668    2.1054    2.3270 H   0  0  0  0  0  0  0  0  0  0  0  0
   -1.6559    1.5926   -1.7658 H   0  0  0  0  0  0  0  0  0  0  0  0
   -4.4318    2.4356    0.1016 H   0  0  0  0  0  0  0  0  0  0  0  0
   -3.9064    1.4676   -1.2905 H   0  0  0  0  0  0  0  0  0  0  0  0
   -5.6906   -0.1116   -1.2924 H   0  0  0  0  0  0  0  0  0  0  0  0
   -6.5144    1.8171    0.9469 H   0  0  0  0  0  0  0  0  0  0  0  0
   -7.2909    1.5669   -0.7287 H   0  0  0  0  0  0  0  0  0  0  0  0
   -8.6245   -0.1829    0.1729 H   0  0  0  0  0  0  0  0  0  0  0  0
   -7.8969    0.1538    1.8613 H   0  0  0  0  0  0  0  0  0  0  0  0
   -6.1898   -1.4086    1.4555 H   0  0  0  0  0  0  0  0  0  0  0  0
   -6.9372   -1.8239   -0.2025 H   0  0  0  0  0  0  0  0  0  0  0  0
   -2.6346   -0.6355    1.0351 H   0  0  0  0  0  0  0  0  0  0  0  0
   -4.0253   -1.6823    1.0510 H   0  0  0  0  0  0  0  0  0  0  0  0
   -4.0884   -1.9223   -1.3583 H   0  0  0  0  0  0  0  0  0  0  0  0
   -2.9215   -0.6045   -1.6375 H   0  0  0  0  0  0  0  0  0  0  0  0
   -2.1665   -3.0733    0.0582 H   0  0  0  0  0  0  0  0  0  0  0  0
   -2.1365   -3.1561   -1.7186 H   0  0  0  0  0  0  0  0  0  0  0  0
   -0.5519   -1.0291   -0.0962 H   0  0  0  0  0  0  0  0  0  0  0  0
    0.0901   -2.6297   -0.5877 H   0  0  0  0  0  0  0  0  0  0  0  0
   -0.5859   -1.9721   -3.0324 H   0  0  0  0  0  0  0  0  0  0  0  0
   -0.7225   -0.3105   -2.4408 H   0  0  0  0  0  0  0  0  0  0  0  0
    7.3514   -1.2301   -0.0735 H   0  0  0  0  0  0  0  0  0  0  0  0
    6.6415   -1.9882    1.4659 H   0  0  0  0  0  0  0  0  0  0  0  0
    8.6333   -1.4732    2.6642 H   0  0  0  0  0  0  0  0  0  0  0  0
    9.9437   -1.4933    0.8050 H   0  0  0  0  0  0  0  0  0  0  0  0
    8.2190    1.3585    1.7328 H   0  0  0  0  0  0  0  0  0  0  0  0
    7.4747    0.5206    3.1974 H   0  0  0  0  0  0  0  0  0  0  0  0
  1  2  2  0
  2  3  1  0
  3  4  2  0
  4  5  1  0
  5  6  2  0
  6  7  1  0
  7  8  2  0
  7  9  1  0
  9 10  1  0
 10 11  2  0
 11 12  1  0
 12 13  2  0
 13 14  1  0
 14 15  2  0
 14 16  1  0
 16 17  1  0
 17 18  1  0
 18 19  1  0
 19 20  1  0
 20 21  1  0
 17 22  1  0
 22 23  1  0
 23 24  1  0
 24 25  1  0
 25 26  1  0
 26 27  1  0
  2 28  1  0
 28 29  1  0
 29 30  1  0
 30 31  1  0
 30 32  1  0
  8  3  1  0
 15 10  1  0
 21 18  1  0
 32 28  1  0
 27  6  1  0
  4 33  1  0
  5 34  1  0
  8 35  1  0
  9 36  1  0
  9 37  1  0
 11 38  1  0
 12 39  1  0
 13 40  1  0
 15 41  1  0
 16 42  1  0
 16 43  1  0
 18 44  1  0
 19 45  1  0
 19 46  1  0
 20 47  1  0
 20 48  1  0
 21 49  1  0
 21 50  1  0
 22 51  1  0
 22 52  1  0
 23 53  1  0
 23 54  1  0
 24 55  1  0
 24 56  1  0
 25 57  1  0
 25 58  1  0
 26 59  1  0
 26 60  1  0
 29 61  1  0
 29 62  1  0
 30 63  1  0
 31 64  1  0
 32 65  1  0
 32 66  1  0
M  END
$$$$
