
     RDKit          3D

 58 61  0  0  0  0  0  0  0  0999 V2000
    0.5833    3.6962    0.4491 O   0  0  0  0  0  0  0  0  0  0  0  0
   -0.4937    3.0471    0.3456 C   0  0  0  0  0  0  0  0  0  0  0  0
   -1.7530    3.7150    0.7346 C   0  0  0  0  0  0  0  0  0  0  0  0
   -2.0234    5.0201    0.2990 C   0  0  0  0  0  0  0  0  0  0  0  0
   -3.2064    5.6540    0.6831 C   0  0  0  0  0  0  0  0  0  0  0  0
   -4.1036    4.9816    1.5146 C   0  0  0  0  0  0  0  0  0  0  0  0
   -3.8176    3.7261    1.9501 N   0  0  0  0  0  0  0  0  0  0  0  0
   -2.6739    3.0862    1.5868 C   0  0  0  0  0  0  0  0  0  0  0  0
   -0.4701    1.6890   -0.1514 N   0  0  0  0  0  0  0  0  0  0  0  0
   -1.6759    1.1378   -0.8069 C   0  0  0  0  0  0  0  0  0  0  0  0
   -1.4094   -0.0892   -1.7030 C   0  0  0  0  0  0  0  0  0  0  0  0
   -2.7184   -0.8418   -2.0216 C   0  0  0  0  0  0  0  0  0  0  0  0
   -2.5123   -2.3222   -2.3871 C   0  0  0  0  0  0  0  0  0  0  0  0
   -1.8323   -3.2096   -1.3174 C   0  0  0  0  0  0  0  0  0  0  0  0
   -2.5314   -3.2675    0.0638 C   0  0  0  0  0  0  0  0  0  0  0  0
   -2.1246   -2.1647    1.0632 C   0  0  0  0  0  0  0  0  0  0  0  0
   -0.6693   -1.9686    1.0720 N   0  0  0  0  0  0  0  0  0  0  0  0
   -0.2575   -0.6916    1.6800 C   0  0  0  0  0  0  0  0  0  0  0  0
    0.9011   -0.1350    0.8882 C   0  0  0  0  0  0  0  0  0  0  0  0
    2.1428   -0.7859    0.9947 C   0  0  0  0  0  0  0  0  0  0  0  0
    3.2405   -0.3926    0.2113 C   0  0  0  0  0  0  0  0  0  0  0  0
    4.5445   -1.0931    0.3347 C   0  0  0  0  0  0  0  0  0  0  0  0
    5.3173   -1.3852   -0.8025 C   0  0  0  0  0  0  0  0  0  0  0  0
    6.5398   -2.0456   -0.6700 C   0  0  0  0  0  0  0  0  0  0  0  0
    6.9860   -2.4106    0.6001 C   0  0  0  0  0  0  0  0  0  0  0  0
    6.2333   -2.1230    1.6941 N   0  0  0  0  0  0  0  0  0  0  0  0
    5.0379   -1.4826    1.5929 C   0  0  0  0  0  0  0  0  0  0  0  0
    3.0821    0.6633   -0.6982 C   0  0  0  0  0  0  0  0  0  0  0  0
    1.8576    1.3196   -0.8145 C   0  0  0  0  0  0  0  0  0  0  0  0
    0.7603    0.9414   -0.0271 C   0  0  0  0  0  0  0  0  0  0  0  0
   -1.3262    5.5403   -0.3464 H   0  0  0  0  0  0  0  0  0  0  0  0
   -3.4253    6.6571    0.3406 H   0  0  0  0  0  0  0  0  0  0  0  0
   -5.0236    5.4611    1.8210 H   0  0  0  0  0  0  0  0  0  0  0  0
   -2.4750    2.0993    1.9818 H   0  0  0  0  0  0  0  0  0  0  0  0
   -2.4134    0.8784   -0.0246 H   0  0  0  0  0  0  0  0  0  0  0  0
   -2.1423    1.9239   -1.4406 H   0  0  0  0  0  0  0  0  0  0  0  0
   -0.7048   -0.7699   -1.2066 H   0  0  0  0  0  0  0  0  0  0  0  0
   -0.9259    0.2389   -2.6486 H   0  0  0  0  0  0  0  0  0  0  0  0
   -3.4484   -0.7839   -1.1903 H   0  0  0  0  0  0  0  0  0  0  0  0
   -3.2070   -0.3345   -2.8818 H   0  0  0  0  0  0  0  0  0  0  0  0
   -1.9064   -2.3732   -3.3179 H   0  0  0  0  0  0  0  0  0  0  0  0
   -3.5061   -2.7600   -2.6259 H   0  0  0  0  0  0  0  0  0  0  0  0
   -1.8441   -4.2438   -1.7264 H   0  0  0  0  0  0  0  0  0  0  0  0
   -0.7550   -2.9672   -1.2229 H   0  0  0  0  0  0  0  0  0  0  0  0
   -2.2757   -4.2441    0.5307 H   0  0  0  0  0  0  0  0  0  0  0  0
   -3.6348   -3.2571   -0.0700 H   0  0  0  0  0  0  0  0  0  0  0  0
   -2.6546   -1.2321    0.8047 H   0  0  0  0  0  0  0  0  0  0  0  0
   -2.4696   -2.4517    2.0815 H   0  0  0  0  0  0  0  0  0  0  0  0
   -0.2277   -2.7582    1.5998 H   0  0  0  0  0  0  0  0  0  0  0  0
   -1.0835    0.0455    1.7330 H   0  0  0  0  0  0  0  0  0  0  0  0
    0.0628   -0.8596    2.7329 H   0  0  0  0  0  0  0  0  0  0  0  0
    2.2417   -1.6270    1.6710 H   0  0  0  0  0  0  0  0  0  0  0  0
    4.9686   -1.1202   -1.7927 H   0  0  0  0  0  0  0  0  0  0  0  0
    7.1343   -2.2757   -1.5448 H   0  0  0  0  0  0  0  0  0  0  0  0
    7.9316   -2.9230    0.7170 H   0  0  0  0  0  0  0  0  0  0  0  0
    4.4835   -1.2631    2.4959 H   0  0  0  0  0  0  0  0  0  0  0  0
    3.9124    0.9963   -1.3081 H   0  0  0  0  0  0  0  0  0  0  0  0
    1.7607    2.1350   -1.5205 H   0  0  0  0  0  0  0  0  0  0  0  0
  1  2  2  0
  2  3  1  0
  3  4  2  0
  4  5  1  0
  5  6  2  0
  6  7  1  0
  7  8  2  0
  2  9  1  0
  9 10  1  0
 10 11  1  0
 11 12  1  0
 12 13  1  0
 13 14  1  0
 14 15  1  0
 15 16  1  0
 16 17  1  0
 17 18  1  0
 18 19  1  0
 19 20  2  0
 20 21  1  0
 21 22  1  0
 22 23  2  0
 23 24  1  0
 24 25  2  0
 25 26  1  0
 26 27  2  0
 21 28  2  0
 28 29  1  0
 29 30  2  0
  8  3  1  0
 30  9  1  0
 30 19  1  0
 27 22  1  0
  4 31  1  0
  5 32  1  0
  6 33  1  0
  8 34  1  0
 10 35  1  0
 10 36  1  0
 11 37  1  0
 11 38  1  0
 12 39  1  0
 12 40  1  0
 13 41  1  0
 13 42  1  0
 14 43  1  0
 14 44  1  0
 15 45  1  0
 15 46  1  0
 16 47  1  0
 16 48  1  0
 17 49  1  0
 18 50  1  0
 18 51  1  0
 20 52  1  0
 23 53  1  0
 24 54  1  0
 25 55  1  0
 27 56  1  0
 28 57  1  0
 29 58  1  0
M  END
$$$$
