
     RDKit          3D

 82 85  0  0  0  0  0  0  0  0999 V2000
   -4.7443   -2.6756   -1.4106 C   0  0  0  0  0  0  0  0  0  0  0  0
   -3.3570   -2.1397   -1.2057 C   0  0  0  0  0  0  0  0  0  0  0  0
   -2.5111   -2.3145   -2.1273 O   0  0  0  0  0  0  0  0  0  0  0  0
   -2.9714   -1.4400    0.0028 N   0  0  0  0  0  0  0  0  0  0  0  0
   -3.8543   -1.4438    1.1889 C   0  0  0  0  0  0  0  0  0  0  0  0
   -3.6461   -0.1982    2.0718 C   0  0  0  0  0  0  0  0  0  0  0  0
   -4.9386    0.3238    2.7237 C   0  0  0  0  0  0  0  0  0  0  0  0
   -5.9502    0.9631    1.7453 C   0  0  0  0  0  0  0  0  0  0  0  0
   -5.3533    2.0846    0.8667 C   0  0  0  0  0  0  0  0  0  0  0  0
   -5.0171    1.5969   -0.5598 C   0  0  0  0  0  0  0  0  0  0  0  0
   -3.8548    2.3796   -1.1807 C   0  0  0  0  0  0  0  0  0  0  0  0
   -2.5697    1.9545   -0.5634 N   0  0  0  0  0  0  0  0  0  0  0  0
   -1.7688    3.1252   -0.0952 C   0  0  0  0  0  0  0  0  0  0  0  0
   -0.7886    2.7548    1.0254 C   0  0  0  0  0  0  0  0  0  0  0  0
   -1.0684    3.8938   -1.2290 C   0  0  0  0  0  0  0  0  0  0  0  0
   -1.8627    0.9559   -1.4125 C   0  0  0  0  0  0  0  0  0  0  0  0
   -1.0173   -0.0022   -0.5936 C   0  0  0  0  0  0  0  0  0  0  0  0
    0.3772    0.1641   -0.5895 C   0  0  0  0  0  0  0  0  0  0  0  0
    1.1998   -0.6405    0.2101 C   0  0  0  0  0  0  0  0  0  0  0  0
    2.6551   -0.3865    0.2489 C   0  0  0  0  0  0  0  0  0  0  0  0
    3.0457    0.8118    0.2802 O   0  0  0  0  0  0  0  0  0  0  0  0
    3.6296   -1.4566    0.2678 N   0  0  0  0  0  0  0  0  0  0  0  0
    3.3507   -2.7682   -0.3429 C   0  0  0  0  0  0  0  0  0  0  0  0
    3.7571   -3.8882    0.6172 C   0  0  0  0  0  0  0  0  0  0  0  0
    5.2181   -3.7268    1.0496 C   0  0  0  0  0  0  0  0  0  0  0  0
    5.4649   -2.3408    1.6667 C   0  0  0  0  0  0  0  0  0  0  0  0
    5.0030   -1.1933    0.7432 C   0  0  0  0  0  0  0  0  0  0  0  0
    5.9832   -0.9773   -0.4348 C   0  0  0  0  0  0  0  0  0  0  0  0
    5.5727    0.1890   -1.2977 C   0  0  0  0  0  0  0  0  0  0  0  0
    4.8094   -0.0201   -2.4598 C   0  0  0  0  0  0  0  0  0  0  0  0
    4.3705    1.0665   -3.2225 C   0  0  0  0  0  0  0  0  0  0  0  0
    4.6903    2.3693   -2.8314 C   0  0  0  0  0  0  0  0  0  0  0  0
    5.4519    2.5874   -1.6791 C   0  0  0  0  0  0  0  0  0  0  0  0
    5.8900    1.5029   -0.9115 C   0  0  0  0  0  0  0  0  0  0  0  0
    0.6196   -1.6293    1.0150 C   0  0  0  0  0  0  0  0  0  0  0  0
   -0.7551   -1.8585    0.9656 C   0  0  0  0  0  0  0  0  0  0  0  0
   -1.5830   -1.0717    0.1499 C   0  0  0  0  0  0  0  0  0  0  0  0
   -4.8092   -3.2215   -2.3744 H   0  0  0  0  0  0  0  0  0  0  0  0
   -5.4782   -1.8399   -1.4287 H   0  0  0  0  0  0  0  0  0  0  0  0
   -4.9956   -3.3871   -0.5978 H   0  0  0  0  0  0  0  0  0  0  0  0
   -3.6565   -2.3541    1.7944 H   0  0  0  0  0  0  0  0  0  0  0  0
   -4.9136   -1.5013    0.8757 H   0  0  0  0  0  0  0  0  0  0  0  0
   -3.1819    0.6181    1.4966 H   0  0  0  0  0  0  0  0  0  0  0  0
   -2.9221   -0.4543    2.8781 H   0  0  0  0  0  0  0  0  0  0  0  0
   -5.4365   -0.5080    3.2661 H   0  0  0  0  0  0  0  0  0  0  0  0
   -4.6579    1.0867    3.4818 H   0  0  0  0  0  0  0  0  0  0  0  0
   -6.4407    0.1846    1.1218 H   0  0  0  0  0  0  0  0  0  0  0  0
   -6.7621    1.4068    2.3622 H   0  0  0  0  0  0  0  0  0  0  0  0
   -4.4670    2.5300    1.3680 H   0  0  0  0  0  0  0  0  0  0  0  0
   -6.0953    2.9093    0.7794 H   0  0  0  0  0  0  0  0  0  0  0  0
   -4.7672    0.5186   -0.5750 H   0  0  0  0  0  0  0  0  0  0  0  0
   -5.9187    1.7265   -1.2000 H   0  0  0  0  0  0  0  0  0  0  0  0
   -4.0597    3.4659   -1.0539 H   0  0  0  0  0  0  0  0  0  0  0  0
   -3.8508    2.2170   -2.2841 H   0  0  0  0  0  0  0  0  0  0  0  0
   -2.4637    3.8465    0.3922 H   0  0  0  0  0  0  0  0  0  0  0  0
   -0.5704    3.6526    1.6405 H   0  0  0  0  0  0  0  0  0  0  0  0
    0.1803    2.4070    0.6263 H   0  0  0  0  0  0  0  0  0  0  0  0
   -1.2195    1.9777    1.6893 H   0  0  0  0  0  0  0  0  0  0  0  0
   -1.7704    4.0791   -2.0683 H   0  0  0  0  0  0  0  0  0  0  0  0
   -0.7258    4.8805   -0.8541 H   0  0  0  0  0  0  0  0  0  0  0  0
   -0.1816    3.3453   -1.6059 H   0  0  0  0  0  0  0  0  0  0  0  0
   -1.2587    1.4511   -2.2000 H   0  0  0  0  0  0  0  0  0  0  0  0
   -2.5935    0.3424   -1.9791 H   0  0  0  0  0  0  0  0  0  0  0  0
    0.8250    0.9428   -1.1958 H   0  0  0  0  0  0  0  0  0  0  0  0
    2.2835   -2.8880   -0.6136 H   0  0  0  0  0  0  0  0  0  0  0  0
    3.9243   -2.8688   -1.2880 H   0  0  0  0  0  0  0  0  0  0  0  0
    3.6259   -4.8720    0.1150 H   0  0  0  0  0  0  0  0  0  0  0  0
    3.0987   -3.8690    1.5122 H   0  0  0  0  0  0  0  0  0  0  0  0
    5.8872   -3.8832    0.1759 H   0  0  0  0  0  0  0  0  0  0  0  0
    5.4654   -4.5088    1.8021 H   0  0  0  0  0  0  0  0  0  0  0  0
    4.9033   -2.2751    2.6254 H   0  0  0  0  0  0  0  0  0  0  0  0
    6.5443   -2.2282    1.9097 H   0  0  0  0  0  0  0  0  0  0  0  0
    5.0163   -0.2708    1.3678 H   0  0  0  0  0  0  0  0  0  0  0  0
    7.0000   -0.7820   -0.0319 H   0  0  0  0  0  0  0  0  0  0  0  0
    6.0664   -1.8933   -1.0575 H   0  0  0  0  0  0  0  0  0  0  0  0
    4.5465   -1.0222   -2.7729 H   0  0  0  0  0  0  0  0  0  0  0  0
    3.7779    0.8963   -4.1129 H   0  0  0  0  0  0  0  0  0  0  0  0
    4.3507    3.2110   -3.4219 H   0  0  0  0  0  0  0  0  0  0  0  0
    5.6978    3.5976   -1.3799 H   0  0  0  0  0  0  0  0  0  0  0  0
    6.4693    1.6859   -0.0141 H   0  0  0  0  0  0  0  0  0  0  0  0
    1.2323   -2.2335    1.6719 H   0  0  0  0  0  0  0  0  0  0  0  0
   -1.1758   -2.6697    1.5467 H   0  0  0  0  0  0  0  0  0  0  0  0
  1  2  1  0
  2  3  2  0
  2  4  1  0
  4  5  1  0
  5  6  1  0
  6  7  1  0
  7  8  1  0
  8  9  1  0
  9 10  1  0
 10 11  1  0
 11 12  1  0
 12 13  1  0
 13 14  1  0
 13 15  1  0
 12 16  1  0
 16 17  1  0
 17 18  2  0
 18 19  1  0
 19 20  1  0
 20 21  2  0
 20 22  1  0
 22 23  1  0
 23 24  1  0
 24 25  1  0
 25 26  1  0
 26 27  1  0
 27 28  1  0
 28 29  1  0
 29 30  2  0
 30 31  1  0
 31 32  2  0
 32 33  1  0
 33 34  2  0
 19 35  2  0
 35 36  1  0
 36 37  2  0
 37  4  1  0
 37 17  1  0
 27 22  1  0
 34 29  1  0
  1 38  1  0
  1 39  1  0
  1 40  1  0
  5 41  1  0
  5 42  1  0
  6 43  1  0
  6 44  1  0
  7 45  1  0
  7 46  1  0
  8 47  1  0
  8 48  1  0
  9 49  1  0
  9 50  1  0
 10 51  1  0
 10 52  1  0
 11 53  1  0
 11 54  1  0
 13 55  1  0
 14 56  1  0
 14 57  1  0
 14 58  1  0
 15 59  1  0
 15 60  1  0
 15 61  1  0
 16 62  1  0
 16 63  1  0
 18 64  1  0
 23 65  1  0
 23 66  1  0
 24 67  1  0
 24 68  1  0
 25 69  1  0
 25 70  1  0
 26 71  1  0
 26 72  1  0
 27 73  1  0
 28 74  1  0
 28 75  1  0
 30 76  1  0
 31 77  1  0
 32 78  1  0
 33 79  1  0
 34 80  1  0
 35 81  1  0
 36 82  1  0
M  END
$$$$
