
     RDKit          3D

 79 81  0  0  0  0  0  0  0  0999 V2000
   -1.6128   -4.2187    2.8154 C   0  0  0  0  0  0  0  0  0  0  0  0
   -2.6629   -4.1092    1.7506 C   0  0  0  0  0  0  0  0  0  0  0  0
   -3.7199   -4.7931    1.8634 O   0  0  0  0  0  0  0  0  0  0  0  0
   -2.5002   -3.2104    0.6279 N   0  0  0  0  0  0  0  0  0  0  0  0
   -3.4924   -3.2469   -0.4676 C   0  0  0  0  0  0  0  0  0  0  0  0
   -3.2483   -2.1904   -1.5769 C   0  0  0  0  0  0  0  0  0  0  0  0
   -4.5527   -1.6721   -2.2112 C   0  0  0  0  0  0  0  0  0  0  0  0
   -4.3571   -0.2976   -2.8916 C   0  0  0  0  0  0  0  0  0  0  0  0
   -4.6696    0.9213   -1.9847 C   0  0  0  0  0  0  0  0  0  0  0  0
   -3.6189    1.2136   -0.8873 C   0  0  0  0  0  0  0  0  0  0  0  0
   -4.0008    0.5990    0.4713 C   0  0  0  0  0  0  0  0  0  0  0  0
   -2.8844    0.7441    1.4483 N   0  0  0  0  0  0  0  0  0  0  0  0
   -3.2302    1.6767    2.5498 C   0  0  0  0  0  0  0  0  0  0  0  0
   -3.1014    3.1479    2.0997 C   0  0  0  0  0  0  0  0  0  0  0  0
   -1.6711    3.4564    1.6297 C   0  0  0  0  0  0  0  0  0  0  0  0
   -3.4985    4.0935    3.2412 C   0  0  0  0  0  0  0  0  0  0  0  0
   -2.4203   -0.5659    1.9782 C   0  0  0  0  0  0  0  0  0  0  0  0
   -1.2809   -1.1035    1.1435 C   0  0  0  0  0  0  0  0  0  0  0  0
   -0.1278   -0.3156    1.0007 C   0  0  0  0  0  0  0  0  0  0  0  0
    0.9687   -0.7655    0.2518 C   0  0  0  0  0  0  0  0  0  0  0  0
    2.1740    0.0859    0.1199 C   0  0  0  0  0  0  0  0  0  0  0  0
    2.4783    0.8795    1.0487 O   0  0  0  0  0  0  0  0  0  0  0  0
    2.9798    0.0299   -1.0680 N   0  0  0  0  0  0  0  0  0  0  0  0
    4.3079    0.6459   -1.1623 C   0  0  0  0  0  0  0  0  0  0  0  0
    4.4666    1.3265   -2.5339 C   0  0  0  0  0  0  0  0  0  0  0  0
    3.4016    2.2066   -2.7763 O   0  0  0  0  0  0  0  0  0  0  0  0
    5.3753   -0.4393   -0.9347 C   0  0  0  0  0  0  0  0  0  0  0  0
    6.7744    0.1251   -0.8923 C   0  0  0  0  0  0  0  0  0  0  0  0
    7.2495    0.7676    0.2652 C   0  0  0  0  0  0  0  0  0  0  0  0
    8.5379    1.3090    0.2907 C   0  0  0  0  0  0  0  0  0  0  0  0
    9.3591    1.2175   -0.8369 C   0  0  0  0  0  0  0  0  0  0  0  0
    8.8913    0.5919   -1.9961 C   0  0  0  0  0  0  0  0  0  0  0  0
    7.6043    0.0476   -2.0258 C   0  0  0  0  0  0  0  0  0  0  0  0
    0.9146   -2.0362   -0.3394 C   0  0  0  0  0  0  0  0  0  0  0  0
   -0.2163   -2.8400   -0.1893 C   0  0  0  0  0  0  0  0  0  0  0  0
   -1.3178   -2.3879    0.5481 C   0  0  0  0  0  0  0  0  0  0  0  0
   -1.9915   -4.8209    3.6689 H   0  0  0  0  0  0  0  0  0  0  0  0
   -0.7124   -4.7187    2.4041 H   0  0  0  0  0  0  0  0  0  0  0  0
   -1.3232   -3.2172    3.1853 H   0  0  0  0  0  0  0  0  0  0  0  0
   -4.4974   -3.1062   -0.0194 H   0  0  0  0  0  0  0  0  0  0  0  0
   -3.4913   -4.2506   -0.9354 H   0  0  0  0  0  0  0  0  0  0  0  0
   -2.5888   -2.6166   -2.3636 H   0  0  0  0  0  0  0  0  0  0  0  0
   -2.7096   -1.3236   -1.1725 H   0  0  0  0  0  0  0  0  0  0  0  0
   -5.3718   -1.5990   -1.4625 H   0  0  0  0  0  0  0  0  0  0  0  0
   -4.8789   -2.4129   -2.9727 H   0  0  0  0  0  0  0  0  0  0  0  0
   -3.3323   -0.2042   -3.3197 H   0  0  0  0  0  0  0  0  0  0  0  0
   -5.0601   -0.2543   -3.7548 H   0  0  0  0  0  0  0  0  0  0  0  0
   -4.7130    1.8169   -2.6500 H   0  0  0  0  0  0  0  0  0  0  0  0
   -5.6873    0.8194   -1.5369 H   0  0  0  0  0  0  0  0  0  0  0  0
   -3.5579    2.3135   -0.7618 H   0  0  0  0  0  0  0  0  0  0  0  0
   -2.6024    0.8959   -1.2159 H   0  0  0  0  0  0  0  0  0  0  0  0
   -4.2736   -0.4644    0.3143 H   0  0  0  0  0  0  0  0  0  0  0  0
   -4.9373    1.0873    0.8250 H   0  0  0  0  0  0  0  0  0  0  0  0
   -2.5391    1.5513    3.4141 H   0  0  0  0  0  0  0  0  0  0  0  0
   -4.2592    1.4751    2.9322 H   0  0  0  0  0  0  0  0  0  0  0  0
   -3.8043    3.3380    1.2613 H   0  0  0  0  0  0  0  0  0  0  0  0
   -0.9332    3.2240    2.4309 H   0  0  0  0  0  0  0  0  0  0  0  0
   -1.5730    4.5304    1.3599 H   0  0  0  0  0  0  0  0  0  0  0  0
   -1.4101    2.8583    0.7315 H   0  0  0  0  0  0  0  0  0  0  0  0
   -3.3962    5.1536    2.9221 H   0  0  0  0  0  0  0  0  0  0  0  0
   -2.8609    3.9192    4.1284 H   0  0  0  0  0  0  0  0  0  0  0  0
   -4.5545    3.9249    3.5293 H   0  0  0  0  0  0  0  0  0  0  0  0
   -3.2622   -1.2851    2.0762 H   0  0  0  0  0  0  0  0  0  0  0  0
   -2.0159   -0.4762    3.0098 H   0  0  0  0  0  0  0  0  0  0  0  0
   -0.0915    0.6570    1.4754 H   0  0  0  0  0  0  0  0  0  0  0  0
    2.6399   -0.5323   -1.8820 H   0  0  0  0  0  0  0  0  0  0  0  0
    4.4233    1.4275   -0.3787 H   0  0  0  0  0  0  0  0  0  0  0  0
    5.4293    1.8823   -2.5824 H   0  0  0  0  0  0  0  0  0  0  0  0
    4.4761    0.5592   -3.3363 H   0  0  0  0  0  0  0  0  0  0  0  0
    3.5282    2.9763   -2.1608 H   0  0  0  0  0  0  0  0  0  0  0  0
    5.1709   -0.9435    0.0367 H   0  0  0  0  0  0  0  0  0  0  0  0
    5.2910   -1.2209   -1.7241 H   0  0  0  0  0  0  0  0  0  0  0  0
    6.6209    0.8554    1.1428 H   0  0  0  0  0  0  0  0  0  0  0  0
    8.8973    1.7996    1.1859 H   0  0  0  0  0  0  0  0  0  0  0  0
   10.3577    1.6325   -0.8145 H   0  0  0  0  0  0  0  0  0  0  0  0
    9.5299    0.5236   -2.8680 H   0  0  0  0  0  0  0  0  0  0  0  0
    7.2546   -0.4306   -2.9332 H   0  0  0  0  0  0  0  0  0  0  0  0
    1.7549   -2.4249   -0.8948 H   0  0  0  0  0  0  0  0  0  0  0  0
   -0.2439   -3.8121   -0.6640 H   0  0  0  0  0  0  0  0  0  0  0  0
  1  2  1  0
  2  3  2  0
  2  4  1  0
  4  5  1  0
  5  6  1  0
  6  7  1  0
  7  8  1  0
  8  9  1  0
  9 10  1  0
 10 11  1  0
 11 12  1  0
 12 13  1  0
 13 14  1  0
 14 15  1  0
 14 16  1  0
 12 17  1  0
 17 18  1  0
 18 19  2  0
 19 20  1  0
 20 21  1  0
 21 22  2  0
 21 23  1  0
 23 24  1  0
 24 25  1  0
 25 26  1  0
 24 27  1  0
 27 28  1  0
 28 29  2  0
 29 30  1  0
 30 31  2  0
 31 32  1  0
 32 33  2  0
 20 34  2  0
 34 35  1  0
 35 36  2  0
 36  4  1  0
 36 18  1  0
 33 28  1  0
  1 37  1  0
  1 38  1  0
  1 39  1  0
  5 40  1  0
  5 41  1  0
  6 42  1  0
  6 43  1  0
  7 44  1  0
  7 45  1  0
  8 46  1  0
  8 47  1  0
  9 48  1  0
  9 49  1  0
 10 50  1  0
 10 51  1  0
 11 52  1  0
 11 53  1  0
 13 54  1  0
 13 55  1  0
 14 56  1  0
 15 57  1  0
 15 58  1  0
 15 59  1  0
 16 60  1  0
 16 61  1  0
 16 62  1  0
 17 63  1  0
 17 64  1  0
 19 65  1  0
 23 66  1  0
 24 67  1  0
 25 68  1  0
 25 69  1  0
 26 70  1  0
 27 71  1  0
 27 72  1  0
 29 73  1  0
 30 74  1  0
 31 75  1  0
 32 76  1  0
 33 77  1  0
 34 78  1  0
 35 79  1  0
M  END
$$$$
