
     RDKit          3D

 87 90  0  0  0  0  0  0  0  0999 V2000
   10.7497    0.3922    0.9252 C   0  0  0  0  0  0  0  0  0  0  0  0
    9.7590   -0.6111    0.8897 O   0  0  0  0  0  0  0  0  0  0  0  0
    8.5169   -0.0346    0.5419 C   0  0  0  0  0  0  0  0  0  0  0  0
    7.4388   -1.1191    0.5653 C   0  0  0  0  0  0  0  0  0  0  0  0
    6.1223   -0.5639    0.1780 N   0  0  0  0  0  0  0  0  0  0  0  0
    6.0405   -0.2950   -1.2856 C   0  0  0  0  0  0  0  0  0  0  0  0
    4.7845   -0.8572   -1.9710 C   0  0  0  0  0  0  0  0  0  0  0  0
    3.5899   -0.6079   -1.1543 N   0  0  0  0  0  0  0  0  0  0  0  0
    2.3414   -0.2343   -1.7919 C   0  0  0  0  0  0  0  0  0  0  0  0
    2.3075   -0.0601   -3.0413 O   0  0  0  0  0  0  0  0  0  0  0  0
    1.0649    0.0046   -1.0132 C   0  0  0  0  0  0  0  0  0  0  0  0
    0.8001    1.5175   -0.8715 C   0  0  0  0  0  0  0  0  0  0  0  0
   -0.3073    1.7907    0.1582 C   0  0  0  0  0  0  0  0  0  0  0  0
   -0.8710    3.1880    0.0409 C   0  0  0  0  0  0  0  0  0  0  0  0
   -0.0664    4.1468   -0.1126 O   0  0  0  0  0  0  0  0  0  0  0  0
   -2.2908    3.4545    0.1670 N   0  0  0  0  0  0  0  0  0  0  0  0
   -2.8168    4.7716   -0.2213 C   0  0  0  0  0  0  0  0  0  0  0  0
   -3.1669    2.4167    0.7520 C   0  0  0  0  0  0  0  0  0  0  0  0
   -4.6027    2.8603    1.0473 C   0  0  0  0  0  0  0  0  0  0  0  0
   -5.2879    1.7892    1.6946 O   0  0  0  0  0  0  0  0  0  0  0  0
   -6.6620    1.5925    1.5433 C   0  0  0  0  0  0  0  0  0  0  0  0
   -7.5256    1.9910    2.5710 C   0  0  0  0  0  0  0  0  0  0  0  0
   -8.9081    1.8507    2.4243 C   0  0  0  0  0  0  0  0  0  0  0  0
   -9.4344    1.3110    1.2492 C   0  0  0  0  0  0  0  0  0  0  0  0
   -8.5797    0.8916    0.2256 C   0  0  0  0  0  0  0  0  0  0  0  0
   -7.1872    1.0072    0.3709 C   0  0  0  0  0  0  0  0  0  0  0  0
   -6.3012    0.5291   -0.7136 C   0  0  0  0  0  0  0  0  0  0  0  0
   -6.5622    0.8494   -1.9037 O   0  0  0  0  0  0  0  0  0  0  0  0
   -5.1438   -0.2778   -0.4460 N   0  0  0  0  0  0  0  0  0  0  0  0
   -5.1313   -1.3188    0.5859 C   0  0  0  0  0  0  0  0  0  0  0  0
   -3.7927   -1.3617    1.3362 C   0  0  0  0  0  0  0  0  0  0  0  0
   -2.6224   -1.7877    0.4450 C   0  0  0  0  0  0  0  0  0  0  0  0
   -1.4741   -2.0198    1.2604 O   0  0  0  0  0  0  0  0  0  0  0  0
   -0.3336   -2.7519    0.8859 C   0  0  0  0  0  0  0  0  0  0  0  0
    0.3413   -3.4387    1.9057 C   0  0  0  0  0  0  0  0  0  0  0  0
    1.4603   -4.2237    1.6225 C   0  0  0  0  0  0  0  0  0  0  0  0
    1.9251   -4.3281    0.3117 C   0  0  0  0  0  0  0  0  0  0  0  0
    1.2829   -3.6329   -0.7153 C   0  0  0  0  0  0  0  0  0  0  0  0
    0.1664   -2.8288   -0.4422 C   0  0  0  0  0  0  0  0  0  0  0  0
   -0.3881   -2.0318   -1.5445 C   0  0  0  0  0  0  0  0  0  0  0  0
   -1.1632   -2.5866   -2.3680 O   0  0  0  0  0  0  0  0  0  0  0  0
   -0.0560   -0.6438   -1.7098 N   0  0  0  0  0  0  0  0  0  0  0  0
    3.6697   -0.8528    0.2938 C   0  0  0  0  0  0  0  0  0  0  0  0
    5.0343   -1.4215    0.6871 C   0  0  0  0  0  0  0  0  0  0  0  0
   11.7311   -0.0830    1.1279 H   0  0  0  0  0  0  0  0  0  0  0  0
   10.8308    0.9208   -0.0511 H   0  0  0  0  0  0  0  0  0  0  0  0
   10.5491    1.1211    1.7429 H   0  0  0  0  0  0  0  0  0  0  0  0
    8.2320    0.7572    1.2731 H   0  0  0  0  0  0  0  0  0  0  0  0
    8.5716    0.4115   -0.4762 H   0  0  0  0  0  0  0  0  0  0  0  0
    7.4064   -1.5195    1.6052 H   0  0  0  0  0  0  0  0  0  0  0  0
    7.7247   -1.9628   -0.1018 H   0  0  0  0  0  0  0  0  0  0  0  0
    6.9232   -0.6869   -1.8375 H   0  0  0  0  0  0  0  0  0  0  0  0
    6.0457    0.8071   -1.4247 H   0  0  0  0  0  0  0  0  0  0  0  0
    4.7018   -0.3854   -2.9738 H   0  0  0  0  0  0  0  0  0  0  0  0
    4.8974   -1.9522   -2.1229 H   0  0  0  0  0  0  0  0  0  0  0  0
    1.1378   -0.4105    0.0093 H   0  0  0  0  0  0  0  0  0  0  0  0
    0.5163    1.9394   -1.8604 H   0  0  0  0  0  0  0  0  0  0  0  0
    1.7287    2.0329   -0.5392 H   0  0  0  0  0  0  0  0  0  0  0  0
    0.0964    1.6554    1.1840 H   0  0  0  0  0  0  0  0  0  0  0  0
   -1.1034    1.0382    0.0139 H   0  0  0  0  0  0  0  0  0  0  0  0
   -3.1104    5.3445    0.6849 H   0  0  0  0  0  0  0  0  0  0  0  0
   -3.6952    4.6510   -0.8924 H   0  0  0  0  0  0  0  0  0  0  0  0
   -2.0662    5.3660   -0.7832 H   0  0  0  0  0  0  0  0  0  0  0  0
   -2.7161    2.0603    1.7018 H   0  0  0  0  0  0  0  0  0  0  0  0
   -3.2322    1.5642    0.0469 H   0  0  0  0  0  0  0  0  0  0  0  0
   -5.1153    3.1160    0.0931 H   0  0  0  0  0  0  0  0  0  0  0  0
   -4.6068    3.7444    1.7218 H   0  0  0  0  0  0  0  0  0  0  0  0
   -7.1239    2.4311    3.4741 H   0  0  0  0  0  0  0  0  0  0  0  0
   -9.5728    2.1733    3.2161 H   0  0  0  0  0  0  0  0  0  0  0  0
  -10.5064    1.2142    1.1317 H   0  0  0  0  0  0  0  0  0  0  0  0
   -9.0029    0.4612   -0.6735 H   0  0  0  0  0  0  0  0  0  0  0  0
   -4.4406   -0.3545   -1.2147 H   0  0  0  0  0  0  0  0  0  0  0  0
   -5.9380   -1.1405    1.3276 H   0  0  0  0  0  0  0  0  0  0  0  0
   -5.3306   -2.3036    0.1117 H   0  0  0  0  0  0  0  0  0  0  0  0
   -3.8924   -2.0924    2.1703 H   0  0  0  0  0  0  0  0  0  0  0  0
   -3.5781   -0.3662    1.7821 H   0  0  0  0  0  0  0  0  0  0  0  0
   -2.8876   -2.7249   -0.0957 H   0  0  0  0  0  0  0  0  0  0  0  0
   -2.4074   -0.9774   -0.2781 H   0  0  0  0  0  0  0  0  0  0  0  0
   -0.0191   -3.3762    2.9252 H   0  0  0  0  0  0  0  0  0  0  0  0
    1.9641   -4.7543    2.4211 H   0  0  0  0  0  0  0  0  0  0  0  0
    2.7959   -4.9341    0.0946 H   0  0  0  0  0  0  0  0  0  0  0  0
    1.6807   -3.6962   -1.7217 H   0  0  0  0  0  0  0  0  0  0  0  0
   -0.5156   -0.1369   -2.5010 H   0  0  0  0  0  0  0  0  0  0  0  0
    3.4905    0.1014    0.8367 H   0  0  0  0  0  0  0  0  0  0  0  0
    2.9030   -1.5929    0.5995 H   0  0  0  0  0  0  0  0  0  0  0  0
    5.1359   -2.4578    0.2908 H   0  0  0  0  0  0  0  0  0  0  0  0
    5.0783   -1.4682    1.7972 H   0  0  0  0  0  0  0  0  0  0  0  0
  1  2  1  0
  2  3  1  0
  3  4  1  0
  4  5  1  0
  5  6  1  0
  6  7  1  0
  7  8  1  0
  8  9  1  0
  9 10  2  0
  9 11  1  0
 11 12  1  0
 12 13  1  0
 13 14  1  0
 14 15  2  0
 14 16  1  0
 16 17  1  0
 16 18  1  0
 18 19  1  0
 19 20  1  0
 20 21  1  0
 21 22  2  0
 22 23  1  0
 23 24  2  0
 24 25  1  0
 25 26  2  0
 26 27  1  0
 27 28  2  0
 27 29  1  0
 29 30  1  0
 30 31  1  0
 31 32  1  0
 32 33  1  0
 33 34  1  0
 34 35  2  0
 35 36  1  0
 36 37  2  0
 37 38  1  0
 38 39  2  0
 39 40  1  0
 40 41  2  0
 40 42  1  0
  8 43  1  0
 43 44  1  0
 44  5  1  0
 42 11  1  0
 26 21  1  0
 39 34  1  0
  1 45  1  0
  1 46  1  0
  1 47  1  0
  3 48  1  0
  3 49  1  0
  4 50  1  0
  4 51  1  0
  6 52  1  0
  6 53  1  0
  7 54  1  0
  7 55  1  0
 11 56  1  0
 12 57  1  0
 12 58  1  0
 13 59  1  0
 13 60  1  0
 17 61  1  0
 17 62  1  0
 17 63  1  0
 18 64  1  0
 18 65  1  0
 19 66  1  0
 19 67  1  0
 22 68  1  0
 23 69  1  0
 24 70  1  0
 25 71  1  0
 29 72  1  0
 30 73  1  0
 30 74  1  0
 31 75  1  0
 31 76  1  0
 32 77  1  0
 32 78  1  0
 35 79  1  0
 36 80  1  0
 37 81  1  0
 38 82  1  0
 42 83  1  0
 43 84  1  0
 43 85  1  0
 44 86  1  0
 44 87  1  0
M  END
$$$$
