
     RDKit          3D

 69 71  0  0  0  0  0  0  0  0999 V2000
   -2.6516   -4.7136   -0.9889 C   0  0  0  0  0  0  0  0  0  0  0  0
   -1.6246   -3.6217   -1.0722 C   0  0  0  0  0  0  0  0  0  0  0  0
   -0.8680   -3.5936   -2.0813 O   0  0  0  0  0  0  0  0  0  0  0  0
   -1.4935   -2.6036   -0.0502 N   0  0  0  0  0  0  0  0  0  0  0  0
   -2.4016   -2.5258    1.1048 C   0  0  0  0  0  0  0  0  0  0  0  0
   -3.8300   -2.1696    0.6533 C   0  0  0  0  0  0  0  0  0  0  0  0
   -4.3107   -0.8317    1.2351 C   0  0  0  0  0  0  0  0  0  0  0  0
   -5.5908   -0.3316    0.5465 C   0  0  0  0  0  0  0  0  0  0  0  0
   -5.3489    0.2332   -0.8677 C   0  0  0  0  0  0  0  0  0  0  0  0
   -4.5696    1.5671   -0.8642 C   0  0  0  0  0  0  0  0  0  0  0  0
   -3.2389    1.5171   -1.6457 C   0  0  0  0  0  0  0  0  0  0  0  0
   -2.1125    0.9819   -0.8243 N   0  0  0  0  0  0  0  0  0  0  0  0
   -1.2552    2.0492   -0.2124 C   0  0  0  0  0  0  0  0  0  0  0  0
   -2.0096    2.8519    0.8545 C   0  0  0  0  0  0  0  0  0  0  0  0
   -0.5980    3.0082   -1.2335 C   0  0  0  0  0  0  0  0  0  0  0  0
   -1.3459   -0.0418   -1.5955 C   0  0  0  0  0  0  0  0  0  0  0  0
   -0.1686   -0.6505   -0.8408 C   0  0  0  0  0  0  0  0  0  0  0  0
    1.1019   -0.0526   -0.9609 C   0  0  0  0  0  0  0  0  0  0  0  0
    2.2080   -0.5263   -0.2341 C   0  0  0  0  0  0  0  0  0  0  0  0
    3.5254    0.1472   -0.3723 C   0  0  0  0  0  0  0  0  0  0  0  0
    3.7448    0.8644   -1.3871 O   0  0  0  0  0  0  0  0  0  0  0  0
    4.5481    0.0125    0.6305 N   0  0  0  0  0  0  0  0  0  0  0  0
    5.8942    0.5617    0.4319 C   0  0  0  0  0  0  0  0  0  0  0  0
    5.9126    2.0764    0.6048 C   0  0  0  0  0  0  0  0  0  0  0  0
    7.3059    2.4230    1.1286 C   0  0  0  0  0  0  0  0  0  0  0  0
    7.9705    1.1064    1.5312 C   0  0  0  0  0  0  0  0  0  0  0  0
    6.8855    0.0437    1.4666 C   0  0  0  0  0  0  0  0  0  0  0  0
    2.0439   -1.6509    0.5894 C   0  0  0  0  0  0  0  0  0  0  0  0
    0.8065   -2.2859    0.6784 C   0  0  0  0  0  0  0  0  0  0  0  0
   -0.2980   -1.8089   -0.0386 C   0  0  0  0  0  0  0  0  0  0  0  0
   -2.7277   -5.1099    0.0446 H   0  0  0  0  0  0  0  0  0  0  0  0
   -3.6376   -4.3291   -1.3173 H   0  0  0  0  0  0  0  0  0  0  0  0
   -2.3660   -5.5588   -1.6521 H   0  0  0  0  0  0  0  0  0  0  0  0
   -2.0229   -1.7797    1.8420 H   0  0  0  0  0  0  0  0  0  0  0  0
   -2.4000   -3.4975    1.6450 H   0  0  0  0  0  0  0  0  0  0  0  0
   -3.8699   -2.1319   -0.4532 H   0  0  0  0  0  0  0  0  0  0  0  0
   -4.5296   -2.9763    0.9704 H   0  0  0  0  0  0  0  0  0  0  0  0
   -4.5226   -0.9760    2.3183 H   0  0  0  0  0  0  0  0  0  0  0  0
   -3.5129   -0.0637    1.1564 H   0  0  0  0  0  0  0  0  0  0  0  0
   -6.0554    0.4589    1.1776 H   0  0  0  0  0  0  0  0  0  0  0  0
   -6.3248   -1.1653    0.4854 H   0  0  0  0  0  0  0  0  0  0  0  0
   -4.8671   -0.5193   -1.5222 H   0  0  0  0  0  0  0  0  0  0  0  0
   -6.3488    0.4162   -1.3210 H   0  0  0  0  0  0  0  0  0  0  0  0
   -4.4158    1.9313    0.1689 H   0  0  0  0  0  0  0  0  0  0  0  0
   -5.2112    2.3364   -1.3496 H   0  0  0  0  0  0  0  0  0  0  0  0
   -3.3990    0.9242   -2.5747 H   0  0  0  0  0  0  0  0  0  0  0  0
   -3.0264    2.5387   -2.0160 H   0  0  0  0  0  0  0  0  0  0  0  0
   -0.4397    1.5668    0.3632 H   0  0  0  0  0  0  0  0  0  0  0  0
   -1.2970    3.4960    1.4142 H   0  0  0  0  0  0  0  0  0  0  0  0
   -2.7742    3.5131    0.3962 H   0  0  0  0  0  0  0  0  0  0  0  0
   -2.4920    2.1655    1.5819 H   0  0  0  0  0  0  0  0  0  0  0  0
   -0.2773    2.4850   -2.1537 H   0  0  0  0  0  0  0  0  0  0  0  0
    0.3017    3.4740   -0.7779 H   0  0  0  0  0  0  0  0  0  0  0  0
   -1.2824    3.8318   -1.5256 H   0  0  0  0  0  0  0  0  0  0  0  0
   -0.9844    0.3848   -2.5570 H   0  0  0  0  0  0  0  0  0  0  0  0
   -2.0371   -0.8616   -1.8858 H   0  0  0  0  0  0  0  0  0  0  0  0
    1.2249    0.8038   -1.6094 H   0  0  0  0  0  0  0  0  0  0  0  0
    4.3282   -0.4690    1.5284 H   0  0  0  0  0  0  0  0  0  0  0  0
    6.2672    0.2924   -0.5830 H   0  0  0  0  0  0  0  0  0  0  0  0
    5.1494    2.3848    1.3552 H   0  0  0  0  0  0  0  0  0  0  0  0
    5.7037    2.5918   -0.3590 H   0  0  0  0  0  0  0  0  0  0  0  0
    7.2305    3.1026    2.0064 H   0  0  0  0  0  0  0  0  0  0  0  0
    7.9028    2.9281    0.3370 H   0  0  0  0  0  0  0  0  0  0  0  0
    8.4070    1.1688    2.5525 H   0  0  0  0  0  0  0  0  0  0  0  0
    8.7778    0.8571    0.8068 H   0  0  0  0  0  0  0  0  0  0  0  0
    6.4041   -0.0416    2.4666 H   0  0  0  0  0  0  0  0  0  0  0  0
    7.3023   -0.9445    1.1726 H   0  0  0  0  0  0  0  0  0  0  0  0
    2.8759   -2.0806    1.1284 H   0  0  0  0  0  0  0  0  0  0  0  0
    0.7145   -3.1834    1.2781 H   0  0  0  0  0  0  0  0  0  0  0  0
  1  2  1  0
  2  3  2  0
  2  4  1  0
  4  5  1  0
  5  6  1  0
  6  7  1  0
  7  8  1  0
  8  9  1  0
  9 10  1  0
 10 11  1  0
 11 12  1  0
 12 13  1  0
 13 14  1  0
 13 15  1  0
 12 16  1  0
 16 17  1  0
 17 18  2  0
 18 19  1  0
 19 20  1  0
 20 21  2  0
 20 22  1  0
 22 23  1  0
 23 24  1  0
 24 25  1  0
 25 26  1  0
 26 27  1  0
 19 28  2  0
 28 29  1  0
 29 30  2  0
 30  4  1  0
 30 17  1  0
 27 23  1  0
  1 31  1  0
  1 32  1  0
  1 33  1  0
  5 34  1  0
  5 35  1  0
  6 36  1  0
  6 37  1  0
  7 38  1  0
  7 39  1  0
  8 40  1  0
  8 41  1  0
  9 42  1  0
  9 43  1  0
 10 44  1  0
 10 45  1  0
 11 46  1  0
 11 47  1  0
 13 48  1  0
 14 49  1  0
 14 50  1  0
 14 51  1  0
 15 52  1  0
 15 53  1  0
 15 54  1  0
 16 55  1  0
 16 56  1  0
 18 57  1  0
 22 58  1  0
 23 59  1  0
 24 60  1  0
 24 61  1  0
 25 62  1  0
 25 63  1  0
 26 64  1  0
 26 65  1  0
 27 66  1  0
 27 67  1  0
 28 68  1  0
 29 69  1  0
M  END
$$$$
