
     RDKit          3D

 71 73  0  0  0  0  0  0  0  0999 V2000
    8.8267    1.5628   -0.1664 C   0  0  0  0  0  0  0  0  0  0  0  0
    7.3223    1.3638   -0.2524 C   0  0  0  0  0  0  0  0  0  0  0  0
    7.0363    0.1342   -0.9147 O   0  0  0  0  0  0  0  0  0  0  0  0
    5.7437   -0.3167   -1.2237 C   0  0  0  0  0  0  0  0  0  0  0  0
    5.6058   -1.4814   -1.9911 C   0  0  0  0  0  0  0  0  0  0  0  0
    4.3364   -1.9426   -2.3577 C   0  0  0  0  0  0  0  0  0  0  0  0
    3.1933   -1.2405   -1.9621 C   0  0  0  0  0  0  0  0  0  0  0  0
    3.3165   -0.0911   -1.1728 C   0  0  0  0  0  0  0  0  0  0  0  0
    2.1249    0.6463   -0.7355 C   0  0  0  0  0  0  0  0  0  0  0  0
    1.4982    1.3533   -1.5660 O   0  0  0  0  0  0  0  0  0  0  0  0
    1.6809    0.5727    0.6313 N   0  0  0  0  0  0  0  0  0  0  0  0
    1.3143    1.8013    1.3533 C   0  0  0  0  0  0  0  0  0  0  0  0
   -0.2057    1.9196    1.5763 C   0  0  0  0  0  0  0  0  0  0  0  0
   -0.9855    2.0386    0.2571 C   0  0  0  0  0  0  0  0  0  0  0  0
   -2.5086    2.2258    0.4699 C   0  0  0  0  0  0  0  0  0  0  0  0
   -3.3969    0.9792    0.1403 C   0  0  0  0  0  0  0  0  0  0  0  0
   -3.1499    0.5296   -1.3384 C   0  0  0  0  0  0  0  0  0  0  0  0
   -4.4091   -0.0798   -1.9638 C   0  0  0  0  0  0  0  0  0  0  0  0
   -5.4940    0.9224   -2.0727 N   0  0  0  0  0  0  0  0  0  0  0  0
   -6.7911    0.2521   -2.2475 C   0  0  0  0  0  0  0  0  0  0  0  0
   -5.5339    1.9032   -0.9580 C   0  0  0  0  0  0  0  0  0  0  0  0
   -4.9004    1.3593    0.3325 C   0  0  0  0  0  0  0  0  0  0  0  0
   -3.0881   -0.1446    1.1184 C   0  0  0  0  0  0  0  0  0  0  0  0
   -3.1687    0.0762    2.3591 O   0  0  0  0  0  0  0  0  0  0  0  0
   -2.7854   -1.4316    0.6533 O   0  0  0  0  0  0  0  0  0  0  0  0
   -2.5718   -2.5635    1.4972 C   0  0  0  0  0  0  0  0  0  0  0  0
   -1.3556   -3.3890    1.0165 C   0  0  0  0  0  0  0  0  0  0  0  0
   -1.3948   -3.5282   -0.3811 O   0  0  0  0  0  0  0  0  0  0  0  0
    0.0152   -2.8009    1.4523 C   0  0  0  0  0  0  0  0  0  0  0  0
    0.0151   -2.6075    2.8465 O   0  0  0  0  0  0  0  0  0  0  0  0
    0.3445   -1.4826    0.7245 C   0  0  0  0  0  0  0  0  0  0  0  0
    1.5606   -0.7376    1.2883 C   0  0  0  0  0  0  0  0  0  0  0  0
    4.5871    0.3649   -0.7967 C   0  0  0  0  0  0  0  0  0  0  0  0
    9.0469    2.5469    0.3029 H   0  0  0  0  0  0  0  0  0  0  0  0
    9.2742    1.5441   -1.1813 H   0  0  0  0  0  0  0  0  0  0  0  0
    9.2822    0.7593    0.4508 H   0  0  0  0  0  0  0  0  0  0  0  0
    6.8966    1.3496    0.7750 H   0  0  0  0  0  0  0  0  0  0  0  0
    6.8810    2.2065   -0.8278 H   0  0  0  0  0  0  0  0  0  0  0  0
    6.4859   -2.0243   -2.3134 H   0  0  0  0  0  0  0  0  0  0  0  0
    4.2398   -2.8415   -2.9542 H   0  0  0  0  0  0  0  0  0  0  0  0
    2.2154   -1.5985   -2.2602 H   0  0  0  0  0  0  0  0  0  0  0  0
    1.6835    2.6966    0.8077 H   0  0  0  0  0  0  0  0  0  0  0  0
    1.8163    1.7974    2.3441 H   0  0  0  0  0  0  0  0  0  0  0  0
   -0.3920    2.8314    2.1825 H   0  0  0  0  0  0  0  0  0  0  0  0
   -0.5699    1.0526    2.1673 H   0  0  0  0  0  0  0  0  0  0  0  0
   -0.7849    1.1511   -0.3726 H   0  0  0  0  0  0  0  0  0  0  0  0
   -0.5942    2.9202   -0.2980 H   0  0  0  0  0  0  0  0  0  0  0  0
   -2.7086    2.5695    1.5081 H   0  0  0  0  0  0  0  0  0  0  0  0
   -2.8339    3.0668   -0.1806 H   0  0  0  0  0  0  0  0  0  0  0  0
   -2.8601    1.4012   -1.9655 H   0  0  0  0  0  0  0  0  0  0  0  0
   -2.3166   -0.2005   -1.4156 H   0  0  0  0  0  0  0  0  0  0  0  0
   -4.7253   -0.9584   -1.3569 H   0  0  0  0  0  0  0  0  0  0  0  0
   -4.1613   -0.4469   -2.9846 H   0  0  0  0  0  0  0  0  0  0  0  0
   -7.0738   -0.3105   -1.3299 H   0  0  0  0  0  0  0  0  0  0  0  0
   -6.7464   -0.4526   -3.1078 H   0  0  0  0  0  0  0  0  0  0  0  0
   -7.5811    0.9979   -2.4784 H   0  0  0  0  0  0  0  0  0  0  0  0
   -4.9855    2.8173   -1.2732 H   0  0  0  0  0  0  0  0  0  0  0  0
   -6.5750    2.2326   -0.7370 H   0  0  0  0  0  0  0  0  0  0  0  0
   -5.0212    2.1066    1.1459 H   0  0  0  0  0  0  0  0  0  0  0  0
   -5.4938    0.4682    0.6381 H   0  0  0  0  0  0  0  0  0  0  0  0
   -3.4823   -3.1978    1.4514 H   0  0  0  0  0  0  0  0  0  0  0  0
   -2.4369   -2.2672    2.5590 H   0  0  0  0  0  0  0  0  0  0  0  0
   -1.4275   -4.3978    1.4898 H   0  0  0  0  0  0  0  0  0  0  0  0
   -2.0516   -4.2464   -0.5846 H   0  0  0  0  0  0  0  0  0  0  0  0
    0.7985   -3.5449    1.1637 H   0  0  0  0  0  0  0  0  0  0  0  0
    0.8355   -3.0342    3.2092 H   0  0  0  0  0  0  0  0  0  0  0  0
    0.5112   -1.6942   -0.3552 H   0  0  0  0  0  0  0  0  0  0  0  0
   -0.5114   -0.8008    0.8021 H   0  0  0  0  0  0  0  0  0  0  0  0
    1.4315   -0.5910    2.3842 H   0  0  0  0  0  0  0  0  0  0  0  0
    2.4867   -1.3354    1.1355 H   0  0  0  0  0  0  0  0  0  0  0  0
    4.6657    1.2592   -0.1912 H   0  0  0  0  0  0  0  0  0  0  0  0
  1  2  1  0
  2  3  1  0
  3  4  1  0
  4  5  2  0
  5  6  1  0
  6  7  2  0
  7  8  1  0
  8  9  1  0
  9 10  2  0
  9 11  1  0
 11 12  1  0
 12 13  1  0
 13 14  1  0
 14 15  1  0
 15 16  1  0
 16 17  1  0
 17 18  1  0
 18 19  1  0
 19 20  1  0
 19 21  1  0
 21 22  1  0
 16 23  1  0
 23 24  2  0
 23 25  1  0
 25 26  1  0
 26 27  1  0
 27 28  1  0
 27 29  1  0
 29 30  1  0
 29 31  1  0
 31 32  1  0
  8 33  2  0
 33  4  1  0
 32 11  1  0
 22 16  1  0
  1 34  1  0
  1 35  1  0
  1 36  1  0
  2 37  1  0
  2 38  1  0
  5 39  1  0
  6 40  1  0
  7 41  1  0
 12 42  1  0
 12 43  1  0
 13 44  1  0
 13 45  1  0
 14 46  1  0
 14 47  1  0
 15 48  1  0
 15 49  1  0
 17 50  1  0
 17 51  1  0
 18 52  1  0
 18 53  1  0
 20 54  1  0
 20 55  1  0
 20 56  1  0
 21 57  1  0
 21 58  1  0
 22 59  1  0
 22 60  1  0
 26 61  1  0
 26 62  1  0
 27 63  1  0
 28 64  1  0
 29 65  1  0
 30 66  1  0
 31 67  1  0
 31 68  1  0
 32 69  1  0
 32 70  1  0
 33 71  1  0
M  END
$$$$
