
     RDKit          3D

 89 93  0  0  0  0  0  0  0  0999 V2000
    2.0282    1.4989   -1.5478 O   0  0  0  0  0  0  0  0  0  0  0  0
    2.1112    1.1504   -0.3365 C   0  0  0  0  0  0  0  0  0  0  0  0
    1.1196    1.6817    0.6535 C   0  0  0  0  0  0  0  0  0  0  0  0
   -0.0891    0.7853    0.6897 C   0  0  0  0  0  0  0  0  0  0  0  0
   -0.1909   -0.2358    1.6461 C   0  0  0  0  0  0  0  0  0  0  0  0
   -1.3018   -1.0801    1.6553 C   0  0  0  0  0  0  0  0  0  0  0  0
   -2.3208   -0.9267    0.7043 C   0  0  0  0  0  0  0  0  0  0  0  0
   -2.2191    0.0847   -0.2739 C   0  0  0  0  0  0  0  0  0  0  0  0
   -1.0957    0.9282   -0.2760 C   0  0  0  0  0  0  0  0  0  0  0  0
   -3.2935    0.2631   -1.3196 C   0  0  0  0  0  0  0  0  0  0  0  0
   -4.4452    1.0065   -0.7513 N   0  0  0  0  0  0  0  0  0  0  0  0
   -4.2170    2.4707   -0.8298 C   0  0  0  0  0  0  0  0  0  0  0  0
   -5.0038    3.1856    0.2351 C   0  0  0  0  0  0  0  0  0  0  0  0
   -4.5618    3.1544    1.5690 C   0  0  0  0  0  0  0  0  0  0  0  0
   -5.3058    3.7824    2.5716 C   0  0  0  0  0  0  0  0  0  0  0  0
   -6.5056    4.4214    2.2562 C   0  0  0  0  0  0  0  0  0  0  0  0
   -6.9553    4.4503    0.9321 C   0  0  0  0  0  0  0  0  0  0  0  0
   -6.2073    3.8371   -0.0757 C   0  0  0  0  0  0  0  0  0  0  0  0
   -5.7395    0.6135   -1.3716 C   0  0  0  0  0  0  0  0  0  0  0  0
   -6.7059    0.1637   -0.3068 C   0  0  0  0  0  0  0  0  0  0  0  0
   -6.8399    0.8710    0.7264 O   0  0  0  0  0  0  0  0  0  0  0  0
   -7.5621   -0.9819   -0.4615 N   0  0  0  0  0  0  0  0  0  0  0  0
   -7.3060   -2.1214   -1.3451 C   0  0  0  0  0  0  0  0  0  0  0  0
   -6.0223   -2.8739   -0.9561 C   0  0  0  0  0  0  0  0  0  0  0  0
   -5.9236   -3.1388    0.5557 C   0  0  0  0  0  0  0  0  0  0  0  0
   -4.6435   -3.8934    0.9497 C   0  0  0  0  0  0  0  0  0  0  0  0
   -3.3364   -3.1802    0.5579 C   0  0  0  0  0  0  0  0  0  0  0  0
   -3.4375   -1.7673    0.7405 O   0  0  0  0  0  0  0  0  0  0  0  0
    3.0954    0.1913    0.0716 N   0  0  0  0  0  0  0  0  0  0  0  0
    3.8552   -0.5807   -0.9118 C   0  0  0  0  0  0  0  0  0  0  0  0
    4.6180   -1.7041   -0.2431 C   0  0  0  0  0  0  0  0  0  0  0  0
    3.8794   -2.6614    0.4767 C   0  0  0  0  0  0  0  0  0  0  0  0
    4.5196   -3.7125    1.1316 C   0  0  0  0  0  0  0  0  0  0  0  0
    5.9053   -3.8347    1.0661 C   0  0  0  0  0  0  0  0  0  0  0  0
    6.6549   -2.9077    0.3418 C   0  0  0  0  0  0  0  0  0  0  0  0
    6.0294   -1.8416   -0.3294 C   0  0  0  0  0  0  0  0  0  0  0  0
    6.8902   -0.8742   -1.1155 C   0  0  0  0  0  0  0  0  0  0  0  0
    6.9329    0.4512   -0.4588 N   0  0  0  0  0  0  0  0  0  0  0  0
    7.4514    1.4994   -1.3776 C   0  0  0  0  0  0  0  0  0  0  0  0
    8.9518    1.7566   -1.1821 C   0  0  0  0  0  0  0  0  0  0  0  0
    9.2450    2.2514    0.2452 C   0  0  0  0  0  0  0  0  0  0  0  0
    8.2197    1.7388    1.2720 C   0  0  0  0  0  0  0  0  0  0  0  0
    7.6431    0.3822    0.8482 C   0  0  0  0  0  0  0  0  0  0  0  0
    1.5900    1.7501    1.6590 H   0  0  0  0  0  0  0  0  0  0  0  0
    0.8190    2.7123    0.3641 H   0  0  0  0  0  0  0  0  0  0  0  0
    0.5867   -0.3743    2.3868 H   0  0  0  0  0  0  0  0  0  0  0  0
   -1.3770   -1.8463    2.4151 H   0  0  0  0  0  0  0  0  0  0  0  0
   -0.9986    1.6956   -1.0344 H   0  0  0  0  0  0  0  0  0  0  0  0
   -3.5777   -0.7504   -1.6657 H   0  0  0  0  0  0  0  0  0  0  0  0
   -2.8926    0.7778   -2.2223 H   0  0  0  0  0  0  0  0  0  0  0  0
   -4.4551    2.8657   -1.8436 H   0  0  0  0  0  0  0  0  0  0  0  0
   -3.1491    2.7208   -0.6613 H   0  0  0  0  0  0  0  0  0  0  0  0
   -3.6415    2.6448    1.8284 H   0  0  0  0  0  0  0  0  0  0  0  0
   -4.9581    3.7578    3.5991 H   0  0  0  0  0  0  0  0  0  0  0  0
   -7.0865    4.8951    3.0365 H   0  0  0  0  0  0  0  0  0  0  0  0
   -7.8895    4.9372    0.6914 H   0  0  0  0  0  0  0  0  0  0  0  0
   -6.5722    3.8606   -1.0946 H   0  0  0  0  0  0  0  0  0  0  0  0
   -5.6164   -0.1694   -2.1451 H   0  0  0  0  0  0  0  0  0  0  0  0
   -6.2183    1.4579   -1.9160 H   0  0  0  0  0  0  0  0  0  0  0  0
   -8.3813   -1.0601    0.1845 H   0  0  0  0  0  0  0  0  0  0  0  0
   -7.2473   -1.7869   -2.4044 H   0  0  0  0  0  0  0  0  0  0  0  0
   -8.1628   -2.8296   -1.2789 H   0  0  0  0  0  0  0  0  0  0  0  0
   -5.9965   -3.8423   -1.5031 H   0  0  0  0  0  0  0  0  0  0  0  0
   -5.1470   -2.2915   -1.2880 H   0  0  0  0  0  0  0  0  0  0  0  0
   -5.9528   -2.1838    1.1225 H   0  0  0  0  0  0  0  0  0  0  0  0
   -6.8015   -3.7442    0.8726 H   0  0  0  0  0  0  0  0  0  0  0  0
   -4.6549   -4.0321    2.0534 H   0  0  0  0  0  0  0  0  0  0  0  0
   -4.6558   -4.9070    0.4925 H   0  0  0  0  0  0  0  0  0  0  0  0
   -3.1032   -3.3902   -0.5093 H   0  0  0  0  0  0  0  0  0  0  0  0
   -2.5060   -3.5961    1.1694 H   0  0  0  0  0  0  0  0  0  0  0  0
    3.2352    0.0170    1.0937 H   0  0  0  0  0  0  0  0  0  0  0  0
    3.1536   -1.0340   -1.6462 H   0  0  0  0  0  0  0  0  0  0  0  0
    4.5091    0.1137   -1.4741 H   0  0  0  0  0  0  0  0  0  0  0  0
    2.8001   -2.5864    0.5359 H   0  0  0  0  0  0  0  0  0  0  0  0
    3.9411   -4.4357    1.6902 H   0  0  0  0  0  0  0  0  0  0  0  0
    6.3999   -4.6514    1.5746 H   0  0  0  0  0  0  0  0  0  0  0  0
    7.7296   -3.0295    0.2984 H   0  0  0  0  0  0  0  0  0  0  0  0
    6.4616   -0.8044   -2.1396 H   0  0  0  0  0  0  0  0  0  0  0  0
    7.9229   -1.2705   -1.2497 H   0  0  0  0  0  0  0  0  0  0  0  0
    7.2596    1.2513   -2.4471 H   0  0  0  0  0  0  0  0  0  0  0  0
    6.8972    2.4447   -1.1811 H   0  0  0  0  0  0  0  0  0  0  0  0
    9.5062    0.8130   -1.3745 H   0  0  0  0  0  0  0  0  0  0  0  0
    9.3030    2.5109   -1.9177 H   0  0  0  0  0  0  0  0  0  0  0  0
   10.2651    1.9201    0.5384 H   0  0  0  0  0  0  0  0  0  0  0  0
    9.2405    3.3632    0.2607 H   0  0  0  0  0  0  0  0  0  0  0  0
    7.3866    2.4712    1.3683 H   0  0  0  0  0  0  0  0  0  0  0  0
    8.7053    1.6426    2.2681 H   0  0  0  0  0  0  0  0  0  0  0  0
    6.9284    0.0418    1.6285 H   0  0  0  0  0  0  0  0  0  0  0  0
    8.4806   -0.3521    0.8179 H   0  0  0  0  0  0  0  0  0  0  0  0
  1  2  2  0
  2  3  1  0
  3  4  1  0
  4  5  2  0
  5  6  1  0
  6  7  2  0
  7  8  1  0
  8  9  2  0
  8 10  1  0
 10 11  1  0
 11 12  1  0
 12 13  1  0
 13 14  2  0
 14 15  1  0
 15 16  2  0
 16 17  1  0
 17 18  2  0
 11 19  1  0
 19 20  1  0
 20 21  2  0
 20 22  1  0
 22 23  1  0
 23 24  1  0
 24 25  1  0
 25 26  1  0
 26 27  1  0
 27 28  1  0
  2 29  1  0
 29 30  1  0
 30 31  1  0
 31 32  2  0
 32 33  1  0
 33 34  2  0
 34 35  1  0
 35 36  2  0
 36 37  1  0
 37 38  1  0
 38 39  1  0
 39 40  1  0
 40 41  1  0
 41 42  1  0
 42 43  1  0
  9  4  1  0
 18 13  1  0
 36 31  1  0
 43 38  1  0
 28  7  1  0
  3 44  1  0
  3 45  1  0
  5 46  1  0
  6 47  1  0
  9 48  1  0
 10 49  1  0
 10 50  1  0
 12 51  1  0
 12 52  1  0
 14 53  1  0
 15 54  1  0
 16 55  1  0
 17 56  1  0
 18 57  1  0
 19 58  1  0
 19 59  1  0
 22 60  1  0
 23 61  1  0
 23 62  1  0
 24 63  1  0
 24 64  1  0
 25 65  1  0
 25 66  1  0
 26 67  1  0
 26 68  1  0
 27 69  1  0
 27 70  1  0
 29 71  1  0
 30 72  1  0
 30 73  1  0
 32 74  1  0
 33 75  1  0
 34 76  1  0
 35 77  1  0
 37 78  1  0
 37 79  1  0
 39 80  1  0
 39 81  1  0
 40 82  1  0
 40 83  1  0
 41 84  1  0
 41 85  1  0
 42 86  1  0
 42 87  1  0
 43 88  1  0
 43 89  1  0
M  END
$$$$
