
     RDKit          3D

 73 76  0  0  0  0  0  0  0  0999 V2000
   -0.4502   -3.2769    2.4661 C   0  0  0  0  0  0  0  0  0  0  0  0
   -1.4280   -3.4129    1.3369 C   0  0  0  0  0  0  0  0  0  0  0  0
   -2.4851   -4.0737    1.5300 O   0  0  0  0  0  0  0  0  0  0  0  0
   -1.1837   -2.8033    0.0491 N   0  0  0  0  0  0  0  0  0  0  0  0
   -1.9299   -3.2672   -1.1303 C   0  0  0  0  0  0  0  0  0  0  0  0
   -3.3777   -2.7302   -1.1139 C   0  0  0  0  0  0  0  0  0  0  0  0
   -3.8273   -2.0990   -2.4456 C   0  0  0  0  0  0  0  0  0  0  0  0
   -3.0477   -0.8270   -2.8606 C   0  0  0  0  0  0  0  0  0  0  0  0
   -3.7255    0.5038   -2.4611 C   0  0  0  0  0  0  0  0  0  0  0  0
   -3.4968    0.9302   -1.0006 C   0  0  0  0  0  0  0  0  0  0  0  0
   -2.0614    1.4368   -0.7425 C   0  0  0  0  0  0  0  0  0  0  0  0
   -1.6330    1.3373    0.6722 N   0  0  0  0  0  0  0  0  0  0  0  0
   -2.3671    2.2068    1.6301 C   0  0  0  0  0  0  0  0  0  0  0  0
   -3.5861    1.5235    2.2959 C   0  0  0  0  0  0  0  0  0  0  0  0
   -4.1543    2.4329    3.4054 C   0  0  0  0  0  0  0  0  0  0  0  0
   -3.2015    3.0088    4.3002 O   0  0  0  0  0  0  0  0  0  0  0  0
   -1.8879    2.5148    4.1245 C   0  0  0  0  0  0  0  0  0  0  0  0
   -1.3863    2.7599    2.6942 C   0  0  0  0  0  0  0  0  0  0  0  0
   -1.3135   -0.0324    1.1404 C   0  0  0  0  0  0  0  0  0  0  0  0
   -0.0987   -0.5881    0.4280 C   0  0  0  0  0  0  0  0  0  0  0  0
    1.0600    0.2053    0.3472 C   0  0  0  0  0  0  0  0  0  0  0  0
    2.2162   -0.2555   -0.3080 C   0  0  0  0  0  0  0  0  0  0  0  0
    3.4298    0.6023   -0.3444 C   0  0  0  0  0  0  0  0  0  0  0  0
    3.5657    1.5032    0.5298 O   0  0  0  0  0  0  0  0  0  0  0  0
    4.4520    0.4206   -1.3419 N   0  0  0  0  0  0  0  0  0  0  0  0
    5.6646    1.1943   -1.3697 C   0  0  0  0  0  0  0  0  0  0  0  0
    5.6191    2.5955   -1.2600 C   0  0  0  0  0  0  0  0  0  0  0  0
    6.7628    3.3270   -1.3172 N   0  0  0  0  0  0  0  0  0  0  0  0
    7.9764    2.7416   -1.4846 C   0  0  0  0  0  0  0  0  0  0  0  0
    8.0757    1.3552   -1.6137 C   0  0  0  0  0  0  0  0  0  0  0  0
    6.9163    0.5665   -1.5546 C   0  0  0  0  0  0  0  0  0  0  0  0
    7.0195   -0.9290   -1.7029 C   0  0  0  0  0  0  0  0  0  0  0  0
    2.2075   -1.5424   -0.8707 C   0  0  0  0  0  0  0  0  0  0  0  0
    1.0698   -2.3449   -0.7824 C   0  0  0  0  0  0  0  0  0  0  0  0
   -0.0815   -1.8910   -0.1249 C   0  0  0  0  0  0  0  0  0  0  0  0
   -0.6362   -4.0568    3.2342 H   0  0  0  0  0  0  0  0  0  0  0  0
    0.5879   -3.3989    2.0931 H   0  0  0  0  0  0  0  0  0  0  0  0
   -0.5556   -2.2798    2.9395 H   0  0  0  0  0  0  0  0  0  0  0  0
   -1.9504   -4.3789   -1.1336 H   0  0  0  0  0  0  0  0  0  0  0  0
   -1.3987   -2.9836   -2.0648 H   0  0  0  0  0  0  0  0  0  0  0  0
   -4.0612   -3.5804   -0.8978 H   0  0  0  0  0  0  0  0  0  0  0  0
   -3.5295   -2.0200   -0.2873 H   0  0  0  0  0  0  0  0  0  0  0  0
   -3.7063   -2.8655   -3.2425 H   0  0  0  0  0  0  0  0  0  0  0  0
   -4.9152   -1.8794   -2.3906 H   0  0  0  0  0  0  0  0  0  0  0  0
   -1.9956   -0.8589   -2.5121 H   0  0  0  0  0  0  0  0  0  0  0  0
   -2.9987   -0.8309   -3.9732 H   0  0  0  0  0  0  0  0  0  0  0  0
   -3.3406    1.3098   -3.1249 H   0  0  0  0  0  0  0  0  0  0  0  0
   -4.8190    0.4407   -2.6555 H   0  0  0  0  0  0  0  0  0  0  0  0
   -3.7739    0.1064   -0.3274 H   0  0  0  0  0  0  0  0  0  0  0  0
   -4.1967    1.7646   -0.7762 H   0  0  0  0  0  0  0  0  0  0  0  0
   -1.3281    0.9052   -1.3810 H   0  0  0  0  0  0  0  0  0  0  0  0
   -1.9945    2.4990   -1.0679 H   0  0  0  0  0  0  0  0  0  0  0  0
   -2.7653    3.0920    1.0846 H   0  0  0  0  0  0  0  0  0  0  0  0
   -3.3139    0.5485    2.7509 H   0  0  0  0  0  0  0  0  0  0  0  0
   -4.3882    1.3337    1.5575 H   0  0  0  0  0  0  0  0  0  0  0  0
   -4.7045    3.2710    2.9180 H   0  0  0  0  0  0  0  0  0  0  0  0
   -4.8995    1.8553    3.9960 H   0  0  0  0  0  0  0  0  0  0  0  0
   -1.2170    3.0465    4.8322 H   0  0  0  0  0  0  0  0  0  0  0  0
   -1.8363    1.4337    4.3841 H   0  0  0  0  0  0  0  0  0  0  0  0
   -0.3759    2.3029    2.5934 H   0  0  0  0  0  0  0  0  0  0  0  0
   -1.2565    3.8574    2.5441 H   0  0  0  0  0  0  0  0  0  0  0  0
   -2.1914   -0.6927    1.0256 H   0  0  0  0  0  0  0  0  0  0  0  0
   -1.0674   -0.0141    2.2229 H   0  0  0  0  0  0  0  0  0  0  0  0
    1.0558    1.1917    0.7947 H   0  0  0  0  0  0  0  0  0  0  0  0
    4.3515   -0.3319   -2.0563 H   0  0  0  0  0  0  0  0  0  0  0  0
    4.6734    3.1098   -1.1560 H   0  0  0  0  0  0  0  0  0  0  0  0
    8.8662    3.3562   -1.5274 H   0  0  0  0  0  0  0  0  0  0  0  0
    9.0493    0.9020   -1.7611 H   0  0  0  0  0  0  0  0  0  0  0  0
    8.0699   -1.2755   -1.6019 H   0  0  0  0  0  0  0  0  0  0  0  0
    6.6449   -1.2296   -2.7038 H   0  0  0  0  0  0  0  0  0  0  0  0
    6.4163   -1.4353   -0.9181 H   0  0  0  0  0  0  0  0  0  0  0  0
    3.0885   -1.9599   -1.3403 H   0  0  0  0  0  0  0  0  0  0  0  0
    1.0999   -3.3471   -1.1916 H   0  0  0  0  0  0  0  0  0  0  0  0
  1  2  1  0
  2  3  2  0
  2  4  1  0
  4  5  1  0
  5  6  1  0
  6  7  1  0
  7  8  1  0
  8  9  1  0
  9 10  1  0
 10 11  1  0
 11 12  1  0
 12 13  1  0
 13 14  1  0
 14 15  1  0
 15 16  1  0
 16 17  1  0
 17 18  1  0
 12 19  1  0
 19 20  1  0
 20 21  2  0
 21 22  1  0
 22 23  1  0
 23 24  2  0
 23 25  1  0
 25 26  1  0
 26 27  2  0
 27 28  1  0
 28 29  2  0
 29 30  1  0
 30 31  2  0
 31 32  1  0
 22 33  2  0
 33 34  1  0
 34 35  2  0
 35  4  1  0
 18 13  1  0
 35 20  1  0
 31 26  1  0
  1 36  1  0
  1 37  1  0
  1 38  1  0
  5 39  1  0
  5 40  1  0
  6 41  1  0
  6 42  1  0
  7 43  1  0
  7 44  1  0
  8 45  1  0
  8 46  1  0
  9 47  1  0
  9 48  1  0
 10 49  1  0
 10 50  1  0
 11 51  1  0
 11 52  1  0
 13 53  1  0
 14 54  1  0
 14 55  1  0
 15 56  1  0
 15 57  1  0
 17 58  1  0
 17 59  1  0
 18 60  1  0
 18 61  1  0
 19 62  1  0
 19 63  1  0
 21 64  1  0
 25 65  1  0
 27 66  1  0
 29 67  1  0
 30 68  1  0
 32 69  1  0
 32 70  1  0
 32 71  1  0
 33 72  1  0
 34 73  1  0
M  END
$$$$
