
     RDKit          3D

 68 70  0  0  0  0  0  0  0  0999 V2000
   -4.4616    3.1211    1.6639 C   0  0  0  0  0  0  0  0  0  0  0  0
   -5.2439    2.7325    0.4106 C   0  0  0  0  0  0  0  0  0  0  0  0
   -4.3726    1.9748   -0.5598 C   0  0  0  0  0  0  0  0  0  0  0  0
   -4.0003    2.5790   -1.6084 O   0  0  0  0  0  0  0  0  0  0  0  0
   -3.9118    0.6191   -0.3218 N   0  0  0  0  0  0  0  0  0  0  0  0
   -4.5086   -0.2565    0.7092 C   0  0  0  0  0  0  0  0  0  0  0  0
   -3.4613   -0.7998    1.7027 C   0  0  0  0  0  0  0  0  0  0  0  0
   -2.7700   -2.1042    1.2472 C   0  0  0  0  0  0  0  0  0  0  0  0
   -1.4348   -1.8412    0.6646 N   0  0  0  0  0  0  0  0  0  0  0  0
   -1.0590   -2.9545   -0.2289 C   0  0  0  0  0  0  0  0  0  0  0  0
   -0.4100   -1.6852    1.7263 C   0  0  0  0  0  0  0  0  0  0  0  0
    0.7305   -0.7596    1.2682 C   0  0  0  0  0  0  0  0  0  0  0  0
    0.3457    0.7336    1.2990 C   0  0  0  0  0  0  0  0  0  0  0  0
    0.2184    1.2941   -0.0574 N   0  0  0  0  0  0  0  0  0  0  0  0
    1.3984    1.6912   -0.7964 C   0  0  0  0  0  0  0  0  0  0  0  0
    1.2984    2.4761   -1.7780 O   0  0  0  0  0  0  0  0  0  0  0  0
    2.7349    1.1847   -0.4464 C   0  0  0  0  0  0  0  0  0  0  0  0
    3.4984    1.8196    0.5362 C   0  0  0  0  0  0  0  0  0  0  0  0
    4.7450    1.3066    0.8978 C   0  0  0  0  0  0  0  0  0  0  0  0
    5.2660    0.1484    0.2755 C   0  0  0  0  0  0  0  0  0  0  0  0
    6.5665   -0.3882    0.6522 N   0  0  0  0  0  0  0  0  0  0  0  0
    7.3790    0.2676    1.6858 C   0  0  0  0  0  0  0  0  0  0  0  0
    7.0882   -1.6056    0.0170 C   0  0  0  0  0  0  0  0  0  0  0  0
    4.4846   -0.4711   -0.7259 C   0  0  0  0  0  0  0  0  0  0  0  0
    3.2367    0.0459   -1.0833 C   0  0  0  0  0  0  0  0  0  0  0  0
   -1.1230    1.6095   -0.5815 C   0  0  0  0  0  0  0  0  0  0  0  0
   -1.6792    0.4837   -1.4340 C   0  0  0  0  0  0  0  0  0  0  0  0
   -0.8855   -0.0729   -2.4566 C   0  0  0  0  0  0  0  0  0  0  0  0
   -1.3932   -1.0636   -3.2984 C   0  0  0  0  0  0  0  0  0  0  0  0
   -0.6070   -1.5950   -4.2673 F   0  0  0  0  0  0  0  0  0  0  0  0
   -2.7097   -1.4990   -3.1536 C   0  0  0  0  0  0  0  0  0  0  0  0
   -3.2023   -2.4600   -3.9733 F   0  0  0  0  0  0  0  0  0  0  0  0
   -3.5178   -0.9548   -2.1569 C   0  0  0  0  0  0  0  0  0  0  0  0
   -3.0191    0.0325   -1.2891 C   0  0  0  0  0  0  0  0  0  0  0  0
   -5.1325    3.6632    2.3629 H   0  0  0  0  0  0  0  0  0  0  0  0
   -3.6153    3.7921    1.3942 H   0  0  0  0  0  0  0  0  0  0  0  0
   -4.0609    2.2200    2.1758 H   0  0  0  0  0  0  0  0  0  0  0  0
   -5.6109    3.6633   -0.0729 H   0  0  0  0  0  0  0  0  0  0  0  0
   -6.1551    2.1532    0.6730 H   0  0  0  0  0  0  0  0  0  0  0  0
   -5.2588    0.2882    1.3123 H   0  0  0  0  0  0  0  0  0  0  0  0
   -5.0780   -1.0819    0.2303 H   0  0  0  0  0  0  0  0  0  0  0  0
   -3.9918   -1.0244    2.6563 H   0  0  0  0  0  0  0  0  0  0  0  0
   -2.7261   -0.0054    1.9402 H   0  0  0  0  0  0  0  0  0  0  0  0
   -3.4305   -2.6252    0.5175 H   0  0  0  0  0  0  0  0  0  0  0  0
   -2.6813   -2.8000    2.1152 H   0  0  0  0  0  0  0  0  0  0  0  0
   -1.7902   -3.0499   -1.0576 H   0  0  0  0  0  0  0  0  0  0  0  0
   -1.0272   -3.9238    0.3211 H   0  0  0  0  0  0  0  0  0  0  0  0
   -0.0716   -2.7641   -0.6951 H   0  0  0  0  0  0  0  0  0  0  0  0
    0.0210   -2.6711    2.0197 H   0  0  0  0  0  0  0  0  0  0  0  0
   -0.8485   -1.2642    2.6591 H   0  0  0  0  0  0  0  0  0  0  0  0
    1.5912   -0.9099    1.9564 H   0  0  0  0  0  0  0  0  0  0  0  0
    1.0820   -1.0575    0.2607 H   0  0  0  0  0  0  0  0  0  0  0  0
    1.1184    1.3045    1.8578 H   0  0  0  0  0  0  0  0  0  0  0  0
   -0.5854    0.8942    1.8824 H   0  0  0  0  0  0  0  0  0  0  0  0
    3.1208    2.7073    1.0324 H   0  0  0  0  0  0  0  0  0  0  0  0
    5.2862    1.8204    1.6753 H   0  0  0  0  0  0  0  0  0  0  0  0
    8.3641   -0.2267    1.8235 H   0  0  0  0  0  0  0  0  0  0  0  0
    7.5804    1.3229    1.3968 H   0  0  0  0  0  0  0  0  0  0  0  0
    6.8429    0.2322    2.6598 H   0  0  0  0  0  0  0  0  0  0  0  0
    8.0950   -1.8761    0.3991 H   0  0  0  0  0  0  0  0  0  0  0  0
    6.4087   -2.4605    0.2284 H   0  0  0  0  0  0  0  0  0  0  0  0
    7.1742   -1.4496   -1.0802 H   0  0  0  0  0  0  0  0  0  0  0  0
    4.8215   -1.3639   -1.2324 H   0  0  0  0  0  0  0  0  0  0  0  0
    2.6457   -0.4614   -1.8398 H   0  0  0  0  0  0  0  0  0  0  0  0
   -1.8002    1.8397    0.2654 H   0  0  0  0  0  0  0  0  0  0  0  0
   -1.0958    2.5385   -1.1868 H   0  0  0  0  0  0  0  0  0  0  0  0
    0.1301    0.2568   -2.6154 H   0  0  0  0  0  0  0  0  0  0  0  0
   -4.5420   -1.2894   -2.0686 H   0  0  0  0  0  0  0  0  0  0  0  0
  1  2  1  0
  2  3  1  0
  3  4  2  0
  3  5  1  0
  5  6  1  0
  6  7  1  0
  7  8  1  0
  8  9  1  0
  9 10  1  0
  9 11  1  0
 11 12  1  0
 12 13  1  0
 13 14  1  0
 14 15  1  0
 15 16  2  0
 15 17  1  0
 17 18  2  0
 18 19  1  0
 19 20  2  0
 20 21  1  0
 21 22  1  0
 21 23  1  0
 20 24  1  0
 24 25  2  0
 14 26  1  0
 26 27  1  0
 27 28  2  0
 28 29  1  0
 29 30  1  0
 29 31  2  0
 31 32  1  0
 31 33  1  0
 33 34  2  0
 34  5  1  0
 25 17  1  0
 34 27  1  0
  1 35  1  0
  1 36  1  0
  1 37  1  0
  2 38  1  0
  2 39  1  0
  6 40  1  0
  6 41  1  0
  7 42  1  0
  7 43  1  0
  8 44  1  0
  8 45  1  0
 10 46  1  0
 10 47  1  0
 10 48  1  0
 11 49  1  0
 11 50  1  0
 12 51  1  0
 12 52  1  0
 13 53  1  0
 13 54  1  0
 18 55  1  0
 19 56  1  0
 22 57  1  0
 22 58  1  0
 22 59  1  0
 23 60  1  0
 23 61  1  0
 23 62  1  0
 24 63  1  0
 25 64  1  0
 26 65  1  0
 26 66  1  0
 28 67  1  0
 33 68  1  0
M  END
$$$$
