
     RDKit          3D

 77 79  0  0  0  0  0  0  0  0999 V2000
    3.5568    4.6735   -1.2239 C   0  0  0  0  0  0  0  0  0  0  0  0
    4.1752    3.3484   -0.7470 C   0  0  0  0  0  0  0  0  0  0  0  0
    5.2690    3.6468    0.2928 C   0  0  0  0  0  0  0  0  0  0  0  0
    3.0746    2.3980   -0.1861 C   0  0  0  0  0  0  0  0  0  0  0  0
    3.6414    1.0571    0.3136 C   0  0  0  0  0  0  0  0  0  0  0  0
    4.3795    0.4213   -0.7264 O   0  0  0  0  0  0  0  0  0  0  0  0
    5.1673   -0.7406   -0.6247 C   0  0  0  0  0  0  0  0  0  0  0  0
    6.0501   -0.9795   -1.6874 C   0  0  0  0  0  0  0  0  0  0  0  0
    6.8953   -2.0896   -1.6875 C   0  0  0  0  0  0  0  0  0  0  0  0
    6.8679   -2.9879   -0.6213 C   0  0  0  0  0  0  0  0  0  0  0  0
    7.9273   -4.3864   -0.6254 Cl  0  0  0  0  0  0  0  0  0  0  0  0
    5.9859   -2.7808    0.4417 C   0  0  0  0  0  0  0  0  0  0  0  0
    5.1244   -1.6711    0.4534 C   0  0  0  0  0  0  0  0  0  0  0  0
    4.1714   -1.5787    1.5715 C   0  0  0  0  0  0  0  0  0  0  0  0
    4.5561   -1.0841    2.6639 O   0  0  0  0  0  0  0  0  0  0  0  0
    2.8340   -2.0868    1.4585 N   0  0  0  0  0  0  0  0  0  0  0  0
    2.3214   -2.6789    0.2205 C   0  0  0  0  0  0  0  0  0  0  0  0
    0.7982   -2.9055    0.2726 C   0  0  0  0  0  0  0  0  0  0  0  0
   -0.0205   -1.6564   -0.1071 C   0  0  0  0  0  0  0  0  0  0  0  0
   -0.1552   -0.6508    1.0458 C   0  0  0  0  0  0  0  0  0  0  0  0
   -0.7888    0.5968    0.5830 N   0  0  0  0  0  0  0  0  0  0  0  0
   -2.1898    0.6714    0.2096 C   0  0  0  0  0  0  0  0  0  0  0  0
   -2.6017    1.6747   -0.4378 O   0  0  0  0  0  0  0  0  0  0  0  0
   -3.2043   -0.3967    0.5774 C   0  0  0  0  0  0  0  0  0  0  0  0
   -3.8581   -1.0019   -0.6888 C   0  0  0  0  0  0  0  0  0  0  0  0
   -5.2832   -0.4765   -0.9024 C   0  0  0  0  0  0  0  0  0  0  0  0
   -6.1725   -0.8376    0.2327 N   0  0  0  0  0  0  0  0  0  0  0  0
   -7.5149   -0.1839    0.1903 C   0  0  0  0  0  0  0  0  0  0  0  0
   -8.5223   -1.0121    1.0107 C   0  0  0  0  0  0  0  0  0  0  0  0
   -8.0858   -0.0376   -1.2381 C   0  0  0  0  0  0  0  0  0  0  0  0
   -5.5177   -0.6897    1.5684 C   0  0  0  0  0  0  0  0  0  0  0  0
   -4.2558    0.1853    1.5431 C   0  0  0  0  0  0  0  0  0  0  0  0
    0.0683    1.7826    0.4060 C   0  0  0  0  0  0  0  0  0  0  0  0
    0.6855    1.7914   -0.9730 C   0  0  0  0  0  0  0  0  0  0  0  0
   -0.0544    1.5401   -1.9620 O   0  0  0  0  0  0  0  0  0  0  0  0
    2.0648    2.1245   -1.2187 N   0  0  0  0  0  0  0  0  0  0  0  0
    3.0439    5.1906   -0.3845 H   0  0  0  0  0  0  0  0  0  0  0  0
    4.3453    5.3438   -1.6276 H   0  0  0  0  0  0  0  0  0  0  0  0
    2.8235    4.4974   -2.0385 H   0  0  0  0  0  0  0  0  0  0  0  0
    4.6614    2.8684   -1.6245 H   0  0  0  0  0  0  0  0  0  0  0  0
    5.8709    2.7381    0.5007 H   0  0  0  0  0  0  0  0  0  0  0  0
    4.8189    4.0160    1.2395 H   0  0  0  0  0  0  0  0  0  0  0  0
    5.9712    4.4175   -0.0914 H   0  0  0  0  0  0  0  0  0  0  0  0
    2.6043    2.9264    0.6695 H   0  0  0  0  0  0  0  0  0  0  0  0
    4.2864    1.2181    1.2023 H   0  0  0  0  0  0  0  0  0  0  0  0
    2.7925    0.4155    0.6075 H   0  0  0  0  0  0  0  0  0  0  0  0
    6.0861   -0.2885   -2.5206 H   0  0  0  0  0  0  0  0  0  0  0  0
    7.5710   -2.2495   -2.5187 H   0  0  0  0  0  0  0  0  0  0  0  0
    5.9595   -3.4983    1.2537 H   0  0  0  0  0  0  0  0  0  0  0  0
    2.2311   -2.0622    2.3119 H   0  0  0  0  0  0  0  0  0  0  0  0
    2.5763   -2.0323   -0.6462 H   0  0  0  0  0  0  0  0  0  0  0  0
    2.8254   -3.6573    0.0669 H   0  0  0  0  0  0  0  0  0  0  0  0
    0.5550   -3.6971   -0.4696 H   0  0  0  0  0  0  0  0  0  0  0  0
    0.4857   -3.2961    1.2654 H   0  0  0  0  0  0  0  0  0  0  0  0
   -1.0342   -1.9897   -0.4125 H   0  0  0  0  0  0  0  0  0  0  0  0
    0.4343   -1.1587   -0.9903 H   0  0  0  0  0  0  0  0  0  0  0  0
   -0.7139   -1.0844    1.9000 H   0  0  0  0  0  0  0  0  0  0  0  0
    0.8494   -0.4274    1.4465 H   0  0  0  0  0  0  0  0  0  0  0  0
   -2.7193   -1.2339    1.1137 H   0  0  0  0  0  0  0  0  0  0  0  0
   -3.2480   -0.7985   -1.5967 H   0  0  0  0  0  0  0  0  0  0  0  0
   -3.9106   -2.1081   -0.5828 H   0  0  0  0  0  0  0  0  0  0  0  0
   -5.2517    0.6278   -1.0440 H   0  0  0  0  0  0  0  0  0  0  0  0
   -5.6640   -0.9427   -1.8366 H   0  0  0  0  0  0  0  0  0  0  0  0
   -7.4518    0.8384    0.6281 H   0  0  0  0  0  0  0  0  0  0  0  0
   -8.2258   -1.0913    2.0752 H   0  0  0  0  0  0  0  0  0  0  0  0
   -8.6047   -2.0392    0.5938 H   0  0  0  0  0  0  0  0  0  0  0  0
   -9.5260   -0.5353    0.9887 H   0  0  0  0  0  0  0  0  0  0  0  0
   -8.0912   -1.0190   -1.7598 H   0  0  0  0  0  0  0  0  0  0  0  0
   -9.1276    0.3478   -1.2021 H   0  0  0  0  0  0  0  0  0  0  0  0
   -7.4996    0.6950   -1.8295 H   0  0  0  0  0  0  0  0  0  0  0  0
   -6.1968   -0.2523    2.3304 H   0  0  0  0  0  0  0  0  0  0  0  0
   -5.2438   -1.7010    1.9377 H   0  0  0  0  0  0  0  0  0  0  0  0
   -3.8254    0.2477    2.5670 H   0  0  0  0  0  0  0  0  0  0  0  0
   -4.5503    1.2154    1.2426 H   0  0  0  0  0  0  0  0  0  0  0  0
    0.8320    1.8001    1.2057 H   0  0  0  0  0  0  0  0  0  0  0  0
   -0.5231    2.7131    0.5409 H   0  0  0  0  0  0  0  0  0  0  0  0
    2.3946    2.0467   -2.2084 H   0  0  0  0  0  0  0  0  0  0  0  0
  1  2  1  0
  2  3  1  0
  2  4  1  0
  4  5  1  0
  5  6  1  0
  6  7  1  0
  7  8  2  0
  8  9  1  0
  9 10  2  0
 10 11  1  0
 10 12  1  0
 12 13  2  0
 13 14  1  0
 14 15  2  0
 14 16  1  0
 16 17  1  0
 17 18  1  0
 18 19  1  0
 19 20  1  0
 20 21  1  0
 21 22  1  0
 22 23  2  0
 22 24  1  0
 24 25  1  0
 25 26  1  0
 26 27  1  0
 27 28  1  0
 28 29  1  0
 28 30  1  0
 27 31  1  0
 31 32  1  0
 21 33  1  0
 33 34  1  0
 34 35  2  0
 34 36  1  0
 36  4  1  0
 13  7  1  0
 32 24  1  0
  1 37  1  0
  1 38  1  0
  1 39  1  0
  2 40  1  0
  3 41  1  0
  3 42  1  0
  3 43  1  0
  4 44  1  0
  5 45  1  0
  5 46  1  0
  8 47  1  0
  9 48  1  0
 12 49  1  0
 16 50  1  0
 17 51  1  0
 17 52  1  0
 18 53  1  0
 18 54  1  0
 19 55  1  0
 19 56  1  0
 20 57  1  0
 20 58  1  0
 24 59  1  0
 25 60  1  0
 25 61  1  0
 26 62  1  0
 26 63  1  0
 28 64  1  0
 29 65  1  0
 29 66  1  0
 29 67  1  0
 30 68  1  0
 30 69  1  0
 30 70  1  0
 31 71  1  0
 31 72  1  0
 32 73  1  0
 32 74  1  0
 33 75  1  0
 33 76  1  0
 36 77  1  0
M  END
$$$$
