
     RDKit          3D

 74 76  0  0  0  0  0  0  0  0999 V2000
    8.7757    1.7662    1.9698 C   0  0  0  0  0  0  0  0  0  0  0  0
    9.1977    0.3675    1.5263 C   0  0  0  0  0  0  0  0  0  0  0  0
    8.5625    0.0154    0.2963 O   0  0  0  0  0  0  0  0  0  0  0  0
    7.2137   -0.3485    0.1529 C   0  0  0  0  0  0  0  0  0  0  0  0
    6.3738   -0.6199    1.2519 C   0  0  0  0  0  0  0  0  0  0  0  0
    5.0426   -0.9941    1.0457 C   0  0  0  0  0  0  0  0  0  0  0  0
    4.5275   -1.0951   -0.2544 C   0  0  0  0  0  0  0  0  0  0  0  0
    3.0798   -1.4570   -0.4739 C   0  0  0  0  0  0  0  0  0  0  0  0
    2.1951   -0.2319   -0.5241 C   0  0  0  0  0  0  0  0  0  0  0  0
    2.5624    0.8036    0.0951 O   0  0  0  0  0  0  0  0  0  0  0  0
    0.9254   -0.2266   -1.2290 N   0  0  0  0  0  0  0  0  0  0  0  0
    0.3865    1.0649   -1.7044 C   0  0  0  0  0  0  0  0  0  0  0  0
   -0.2000    1.9145   -0.5523 C   0  0  0  0  0  0  0  0  0  0  0  0
   -1.7393    2.0085   -0.5717 C   0  0  0  0  0  0  0  0  0  0  0  0
   -2.3928    0.7054   -0.0677 C   0  0  0  0  0  0  0  0  0  0  0  0
   -3.9344    0.7230    0.2120 C   0  0  0  0  0  0  0  0  0  0  0  0
   -4.2629    1.6532    1.4242 C   0  0  0  0  0  0  0  0  0  0  0  0
   -5.6509    2.2873    1.2857 C   0  0  0  0  0  0  0  0  0  0  0  0
   -5.7147    3.1777    0.1071 N   0  0  0  0  0  0  0  0  0  0  0  0
   -7.1054    3.5711   -0.1626 C   0  0  0  0  0  0  0  0  0  0  0  0
   -5.0414    2.6536   -1.1093 C   0  0  0  0  0  0  0  0  0  0  0  0
   -4.7433    1.1447   -1.0536 C   0  0  0  0  0  0  0  0  0  0  0  0
   -4.3474   -0.7051    0.5744 C   0  0  0  0  0  0  0  0  0  0  0  0
   -5.4262   -0.9200    1.1952 O   0  0  0  0  0  0  0  0  0  0  0  0
   -3.5710   -1.7925    0.1658 O   0  0  0  0  0  0  0  0  0  0  0  0
   -3.0065   -2.7053    1.1037 C   0  0  0  0  0  0  0  0  0  0  0  0
   -2.1875   -3.7954    0.3878 C   0  0  0  0  0  0  0  0  0  0  0  0
   -1.3461   -4.4234    1.3228 O   0  0  0  0  0  0  0  0  0  0  0  0
   -1.3656   -3.2652   -0.8186 C   0  0  0  0  0  0  0  0  0  0  0  0
   -0.7483   -4.3454   -1.4728 O   0  0  0  0  0  0  0  0  0  0  0  0
   -0.2785   -2.2470   -0.4099 C   0  0  0  0  0  0  0  0  0  0  0  0
    0.2532   -1.4775   -1.6316 C   0  0  0  0  0  0  0  0  0  0  0  0
    5.3595   -0.8043   -1.3464 C   0  0  0  0  0  0  0  0  0  0  0  0
    6.6945   -0.4470   -1.1425 C   0  0  0  0  0  0  0  0  0  0  0  0
    8.9630    2.4951    1.1421 H   0  0  0  0  0  0  0  0  0  0  0  0
    7.6967    1.7830    2.2328 H   0  0  0  0  0  0  0  0  0  0  0  0
    9.3718    2.0658    2.8585 H   0  0  0  0  0  0  0  0  0  0  0  0
   10.2947    0.3686    1.3597 H   0  0  0  0  0  0  0  0  0  0  0  0
    8.9849   -0.3852    2.3179 H   0  0  0  0  0  0  0  0  0  0  0  0
    6.7328   -0.5464    2.2684 H   0  0  0  0  0  0  0  0  0  0  0  0
    4.4086   -1.1943    1.9024 H   0  0  0  0  0  0  0  0  0  0  0  0
    2.9997   -2.0275   -1.4210 H   0  0  0  0  0  0  0  0  0  0  0  0
    2.7398   -2.1220    0.3478 H   0  0  0  0  0  0  0  0  0  0  0  0
    1.2112    1.6334   -2.1934 H   0  0  0  0  0  0  0  0  0  0  0  0
   -0.3735    0.9186   -2.5053 H   0  0  0  0  0  0  0  0  0  0  0  0
    0.1962    2.9485   -0.6529 H   0  0  0  0  0  0  0  0  0  0  0  0
    0.1425    1.5460    0.4388 H   0  0  0  0  0  0  0  0  0  0  0  0
   -2.0795    2.2358   -1.6068 H   0  0  0  0  0  0  0  0  0  0  0  0
   -2.0215    2.8659    0.0676 H   0  0  0  0  0  0  0  0  0  0  0  0
   -2.1864   -0.0600   -0.8444 H   0  0  0  0  0  0  0  0  0  0  0  0
   -1.8826    0.3848    0.8687 H   0  0  0  0  0  0  0  0  0  0  0  0
   -3.5361    2.4811    1.5291 H   0  0  0  0  0  0  0  0  0  0  0  0
   -4.2070    1.0946    2.3842 H   0  0  0  0  0  0  0  0  0  0  0  0
   -6.4239    1.4869    1.2245 H   0  0  0  0  0  0  0  0  0  0  0  0
   -5.8520    2.8863    2.2001 H   0  0  0  0  0  0  0  0  0  0  0  0
   -7.1405    4.3010   -0.9962 H   0  0  0  0  0  0  0  0  0  0  0  0
   -7.5440    4.0718    0.7255 H   0  0  0  0  0  0  0  0  0  0  0  0
   -7.7195    2.6860   -0.4357 H   0  0  0  0  0  0  0  0  0  0  0  0
   -5.6335    2.8506   -2.0299 H   0  0  0  0  0  0  0  0  0  0  0  0
   -4.1005    3.2173   -1.2422 H   0  0  0  0  0  0  0  0  0  0  0  0
   -5.7271    0.6290   -1.0674 H   0  0  0  0  0  0  0  0  0  0  0  0
   -4.2194    0.8247   -1.9785 H   0  0  0  0  0  0  0  0  0  0  0  0
   -3.8135   -3.1860    1.7011 H   0  0  0  0  0  0  0  0  0  0  0  0
   -2.3547   -2.1420    1.8104 H   0  0  0  0  0  0  0  0  0  0  0  0
   -2.9212   -4.5365   -0.0064 H   0  0  0  0  0  0  0  0  0  0  0  0
   -1.1089   -5.3076    0.9464 H   0  0  0  0  0  0  0  0  0  0  0  0
   -2.0779   -2.7687   -1.5223 H   0  0  0  0  0  0  0  0  0  0  0  0
   -1.4074   -4.7131   -2.1188 H   0  0  0  0  0  0  0  0  0  0  0  0
   -0.6795   -1.5216    0.3202 H   0  0  0  0  0  0  0  0  0  0  0  0
    0.5496   -2.7820    0.0907 H   0  0  0  0  0  0  0  0  0  0  0  0
    0.9317   -2.1169   -2.2315 H   0  0  0  0  0  0  0  0  0  0  0  0
   -0.6022   -1.2446   -2.3013 H   0  0  0  0  0  0  0  0  0  0  0  0
    4.9724   -0.8469   -2.3540 H   0  0  0  0  0  0  0  0  0  0  0  0
    7.3286   -0.2288   -1.9933 H   0  0  0  0  0  0  0  0  0  0  0  0
  1  2  1  0
  2  3  1  0
  3  4  1  0
  4  5  2  0
  5  6  1  0
  6  7  2  0
  7  8  1  0
  8  9  1  0
  9 10  2  0
  9 11  1  0
 11 12  1  0
 12 13  1  0
 13 14  1  0
 14 15  1  0
 15 16  1  0
 16 17  1  0
 17 18  1  0
 18 19  1  0
 19 20  1  0
 19 21  1  0
 21 22  1  0
 16 23  1  0
 23 24  2  0
 23 25  1  0
 25 26  1  0
 26 27  1  0
 27 28  1  0
 27 29  1  0
 29 30  1  0
 29 31  1  0
 31 32  1  0
  7 33  1  0
 33 34  2  0
 34  4  1  0
 32 11  1  0
 22 16  1  0
  1 35  1  0
  1 36  1  0
  1 37  1  0
  2 38  1  0
  2 39  1  0
  5 40  1  0
  6 41  1  0
  8 42  1  0
  8 43  1  0
 12 44  1  0
 12 45  1  0
 13 46  1  0
 13 47  1  0
 14 48  1  0
 14 49  1  0
 15 50  1  0
 15 51  1  0
 17 52  1  0
 17 53  1  0
 18 54  1  0
 18 55  1  0
 20 56  1  0
 20 57  1  0
 20 58  1  0
 21 59  1  0
 21 60  1  0
 22 61  1  0
 22 62  1  0
 26 63  1  0
 26 64  1  0
 27 65  1  0
 28 66  1  0
 29 67  1  0
 30 68  1  0
 31 69  1  0
 31 70  1  0
 32 71  1  0
 32 72  1  0
 33 73  1  0
 34 74  1  0
M  END
$$$$
