
     RDKit          3D

 65 68  0  0  0  0  0  0  0  0999 V2000
   -1.5118   -3.2345    1.0632 C   0  0  0  0  0  0  0  0  0  0  0  0
   -1.0717   -1.9215    0.3742 C   0  0  0  0  0  0  0  0  0  0  0  0
   -0.8109   -2.1481   -1.1248 C   0  0  0  0  0  0  0  0  0  0  0  0
   -2.0412   -0.8725    0.5464 O   0  0  0  0  0  0  0  0  0  0  0  0
   -3.4055   -0.7699    0.2014 C   0  0  0  0  0  0  0  0  0  0  0  0
   -4.1680   -1.8682   -0.2428 C   0  0  0  0  0  0  0  0  0  0  0  0
   -5.5281   -1.7245   -0.5220 C   0  0  0  0  0  0  0  0  0  0  0  0
   -6.1504   -0.4888   -0.3638 C   0  0  0  0  0  0  0  0  0  0  0  0
   -5.4084    0.6217    0.0340 C   0  0  0  0  0  0  0  0  0  0  0  0
   -4.0339    0.5055    0.3135 C   0  0  0  0  0  0  0  0  0  0  0  0
   -3.2191    1.7819    0.5263 C   0  0  0  0  0  0  0  0  0  0  0  0
   -2.4330    1.7447    1.8873 C   0  0  0  0  0  0  0  0  0  0  0  0
   -1.0063    2.3271    1.8596 C   0  0  0  0  0  0  0  0  0  0  0  0
   -0.3202    1.9723    0.5427 C   0  0  0  0  0  0  0  0  0  0  0  0
   -1.0406    2.7159   -0.5725 C   0  0  0  0  0  0  0  0  0  0  0  0
   -2.4128    2.0747   -0.7831 C   0  0  0  0  0  0  0  0  0  0  0  0
    1.0621    2.2918    0.5415 O   0  0  0  0  0  0  0  0  0  0  0  0
    1.8432    1.1682    0.9345 C   0  0  0  0  0  0  0  0  0  0  0  0
    1.8656    0.0312   -0.1485 C   0  0  0  0  0  0  0  0  0  0  0  0
    3.2625   -0.0766   -0.8307 C   0  0  0  0  0  0  0  0  0  0  0  0
    3.5087    1.0541   -1.7453 N   0  0  0  0  0  0  0  0  0  0  0  0
    5.1803    1.5389   -1.7188 S   0  0  0  0  0  6  0  0  0  0  0  0
    5.5259    2.4560   -0.2304 C   0  0  0  0  0  0  0  0  0  0  0  0
    6.0796    0.3367   -1.7889 O   0  0  0  0  0  0  0  0  0  0  0  0
    5.4493    2.4204   -2.9064 O   0  0  0  0  0  0  0  0  0  0  0  0
    3.3212   -1.3928   -1.6234 C   0  0  0  0  0  0  0  0  0  0  0  0
    3.2204   -2.6179   -0.6949 C   0  0  0  0  0  0  0  0  0  0  0  0
    2.4517   -2.3401    0.6089 C   0  0  0  0  0  0  0  0  0  0  0  0
    1.4551   -1.2780    0.4252 N   0  0  0  0  0  0  0  0  0  0  0  0
    0.1861   -1.4409    1.0893 C   0  0  0  0  0  0  0  0  0  0  0  0
    0.1211   -1.2204    2.3294 O   0  0  0  0  0  0  0  0  0  0  0  0
   -2.0835   -3.9017    0.3912 H   0  0  0  0  0  0  0  0  0  0  0  0
   -0.6300   -3.8370    1.3793 H   0  0  0  0  0  0  0  0  0  0  0  0
   -2.1233   -3.0160    1.9650 H   0  0  0  0  0  0  0  0  0  0  0  0
   -1.7133   -2.5563   -1.6247 H   0  0  0  0  0  0  0  0  0  0  0  0
   -0.5595   -1.1900   -1.6202 H   0  0  0  0  0  0  0  0  0  0  0  0
    0.0234   -2.8673   -1.2725 H   0  0  0  0  0  0  0  0  0  0  0  0
   -3.7344   -2.8356   -0.4026 H   0  0  0  0  0  0  0  0  0  0  0  0
   -6.1019   -2.5767   -0.8668 H   0  0  0  0  0  0  0  0  0  0  0  0
   -7.2045   -0.3841   -0.5823 H   0  0  0  0  0  0  0  0  0  0  0  0
   -5.9043    1.5815    0.0947 H   0  0  0  0  0  0  0  0  0  0  0  0
   -3.9200    2.6411    0.6330 H   0  0  0  0  0  0  0  0  0  0  0  0
   -2.3735    0.7157    2.2959 H   0  0  0  0  0  0  0  0  0  0  0  0
   -3.0162    2.3050    2.6529 H   0  0  0  0  0  0  0  0  0  0  0  0
   -1.0446    3.4297    1.9879 H   0  0  0  0  0  0  0  0  0  0  0  0
   -0.4313    1.9144    2.7154 H   0  0  0  0  0  0  0  0  0  0  0  0
   -0.4840    0.9025    0.3510 H   0  0  0  0  0  0  0  0  0  0  0  0
   -0.4545    2.6359   -1.5153 H   0  0  0  0  0  0  0  0  0  0  0  0
   -1.1507    3.7975   -0.3321 H   0  0  0  0  0  0  0  0  0  0  0  0
   -3.0163    2.7233   -1.4550 H   0  0  0  0  0  0  0  0  0  0  0  0
   -2.2371    1.1335   -1.3488 H   0  0  0  0  0  0  0  0  0  0  0  0
    1.5160    0.7930    1.9264 H   0  0  0  0  0  0  0  0  0  0  0  0
    2.8725    1.5369    1.1214 H   0  0  0  0  0  0  0  0  0  0  0  0
    1.1528    0.2766   -0.9651 H   0  0  0  0  0  0  0  0  0  0  0  0
    4.0376   -0.1211   -0.0325 H   0  0  0  0  0  0  0  0  0  0  0  0
    2.9571    1.8935   -1.4559 H   0  0  0  0  0  0  0  0  0  0  0  0
    4.7565    3.2440   -0.0943 H   0  0  0  0  0  0  0  0  0  0  0  0
    6.5279    2.9283   -0.3113 H   0  0  0  0  0  0  0  0  0  0  0  0
    5.5108    1.7734    0.6444 H   0  0  0  0  0  0  0  0  0  0  0  0
    2.4834   -1.4149   -2.3564 H   0  0  0  0  0  0  0  0  0  0  0  0
    4.2645   -1.4569   -2.2039 H   0  0  0  0  0  0  0  0  0  0  0  0
    2.7291   -3.4509   -1.2467 H   0  0  0  0  0  0  0  0  0  0  0  0
    4.2470   -2.9554   -0.4269 H   0  0  0  0  0  0  0  0  0  0  0  0
    1.9696   -3.2841    0.9500 H   0  0  0  0  0  0  0  0  0  0  0  0
    3.1634   -2.0242    1.4035 H   0  0  0  0  0  0  0  0  0  0  0  0
  1  2  1  0
  2  3  1  0
  2  4  1  0
  4  5  1  0
  5  6  2  0
  6  7  1  0
  7  8  2  0
  8  9  1  0
  9 10  2  0
 10 11  1  0
 11 12  1  0
 12 13  1  0
 13 14  1  0
 14 15  1  0
 15 16  1  0
 14 17  1  0
 17 18  1  0
 18 19  1  0
 19 20  1  0
 20 21  1  0
 21 22  1  0
 22 23  1  0
 22 24  2  0
 22 25  2  0
 20 26  1  0
 26 27  1  0
 27 28  1  0
 28 29  1  0
 29 30  1  0
 30 31  2  0
 30  2  1  0
 10  5  1  0
 16 11  1  0
 29 19  1  0
  1 32  1  0
  1 33  1  0
  1 34  1  0
  3 35  1  0
  3 36  1  0
  3 37  1  0
  6 38  1  0
  7 39  1  0
  8 40  1  0
  9 41  1  0
 11 42  1  0
 12 43  1  0
 12 44  1  0
 13 45  1  0
 13 46  1  0
 14 47  1  0
 15 48  1  0
 15 49  1  0
 16 50  1  0
 16 51  1  0
 18 52  1  0
 18 53  1  0
 19 54  1  0
 20 55  1  0
 21 56  1  0
 23 57  1  0
 23 58  1  0
 23 59  1  0
 26 60  1  0
 26 61  1  0
 27 62  1  0
 27 63  1  0
 28 64  1  0
 28 65  1  0
M  END
$$$$
