
     RDKit          3D

 89 92  0  0  0  0  0  0  0  0999 V2000
   -2.5851    1.9789   -2.4472 C   0  0  0  0  0  0  0  0  0  0  0  0
   -3.0603    0.9824   -1.4765 N   0  0  0  0  0  0  0  0  0  0  0  0
   -3.4409   -0.3362   -1.9645 C   0  0  0  0  0  0  0  0  0  0  0  0
   -4.6516   -0.6882   -1.8998 O   0  0  0  0  0  0  0  0  0  0  0  0
   -2.4906   -1.3086   -2.6578 C   0  0  0  0  0  0  0  0  0  0  0  0
   -2.1397   -2.5713   -1.8293 C   0  0  0  0  0  0  0  0  0  0  0  0
   -2.1301   -2.3196   -0.4492 O   0  0  0  0  0  0  0  0  0  0  0  0
   -1.3174   -0.6841   -3.2955 N   0  0  0  0  0  0  0  0  0  0  0  0
   -0.0314   -0.4372   -2.7067 C   0  0  0  0  0  0  0  0  0  0  0  0
    0.9800   -0.3961   -3.4606 O   0  0  0  0  0  0  0  0  0  0  0  0
    0.1429   -0.1644   -1.2478 C   0  0  0  0  0  0  0  0  0  0  0  0
    1.2225   -1.0527   -0.6152 C   0  0  0  0  0  0  0  0  0  0  0  0
    1.1604   -1.0374    0.9291 C   0  0  0  0  0  0  0  0  0  0  0  0
    2.3276   -1.7478    1.5876 C   0  0  0  0  0  0  0  0  0  0  0  0
    2.4100   -1.7215    2.8463 O   0  0  0  0  0  0  0  0  0  0  0  0
    3.3149   -2.4746    0.8277 N   0  0  0  0  0  0  0  0  0  0  0  0
    4.5809   -2.9103    1.4136 C   0  0  0  0  0  0  0  0  0  0  0  0
    5.4779   -1.7172    1.7814 C   0  0  0  0  0  0  0  0  0  0  0  0
    5.5993   -0.6300    0.6964 C   0  0  0  0  0  0  0  0  0  0  0  0
    6.2077   -1.1629   -0.6196 C   0  0  0  0  0  0  0  0  0  0  0  0
    6.4440   -0.1246   -1.6550 N   0  0  0  0  0  0  0  0  0  0  0  0
    5.2272    0.5770   -2.0749 C   0  0  0  0  0  0  0  0  0  0  0  0
    5.2493    1.9685   -1.4652 C   0  0  0  0  0  0  0  0  0  0  0  0
    6.6589    2.1747   -0.9418 C   0  0  0  0  0  0  0  0  0  0  0  0
    7.4206    0.9018   -1.2692 C   0  0  0  0  0  0  0  0  0  0  0  0
    1.0975    0.3444    1.4202 N   0  0  0  0  0  0  0  0  0  0  0  0
    0.3035    0.7754    2.5404 C   0  0  0  0  0  0  0  0  0  0  0  0
    0.4790    1.9330    3.0021 O   0  0  0  0  0  0  0  0  0  0  0  0
   -0.6856   -0.1062    3.1939 C   0  0  0  0  0  0  0  0  0  0  0  0
   -0.4333   -0.5366    4.5072 C   0  0  0  0  0  0  0  0  0  0  0  0
   -1.2879   -1.4456    5.1334 C   0  0  0  0  0  0  0  0  0  0  0  0
   -2.3879   -1.9533    4.4491 C   0  0  0  0  0  0  0  0  0  0  0  0
   -2.6683   -1.5127    3.1559 C   0  0  0  0  0  0  0  0  0  0  0  0
   -1.8486   -0.5647    2.5337 C   0  0  0  0  0  0  0  0  0  0  0  0
   -2.2350   -0.1130    1.2661 O   0  0  0  0  0  0  0  0  0  0  0  0
   -2.2704    1.2611    0.8860 C   0  0  0  0  0  0  0  0  0  0  0  0
   -3.4034    1.5073   -0.1228 C   0  0  0  0  0  0  0  0  0  0  0  0
   -4.7548    1.0065    0.4676 C   0  0  0  0  0  0  0  0  0  0  0  0
   -5.9755    1.6160   -0.1890 C   0  0  0  0  0  0  0  0  0  0  0  0
   -6.1877    3.0079   -0.1516 C   0  0  0  0  0  0  0  0  0  0  0  0
   -7.3724    3.5578   -0.6443 C   0  0  0  0  0  0  0  0  0  0  0  0
   -8.3701    2.7261   -1.1596 C   0  0  0  0  0  0  0  0  0  0  0  0
   -8.1811    1.3454   -1.1899 C   0  0  0  0  0  0  0  0  0  0  0  0
   -6.9951    0.7938   -0.6982 C   0  0  0  0  0  0  0  0  0  0  0  0
   -1.6321    2.4350   -2.0769 H   0  0  0  0  0  0  0  0  0  0  0  0
   -3.3460    2.7740   -2.5685 H   0  0  0  0  0  0  0  0  0  0  0  0
   -2.4208    1.5434   -3.4594 H   0  0  0  0  0  0  0  0  0  0  0  0
   -3.0952   -1.7042   -3.5048 H   0  0  0  0  0  0  0  0  0  0  0  0
   -1.1408   -2.9636   -2.1329 H   0  0  0  0  0  0  0  0  0  0  0  0
   -2.8812   -3.3829   -2.0492 H   0  0  0  0  0  0  0  0  0  0  0  0
   -3.0574   -2.4540   -0.1189 H   0  0  0  0  0  0  0  0  0  0  0  0
   -1.3648   -0.5886   -4.3376 H   0  0  0  0  0  0  0  0  0  0  0  0
   -0.8062   -0.3438   -0.7339 H   0  0  0  0  0  0  0  0  0  0  0  0
    0.4096    0.9074   -1.1316 H   0  0  0  0  0  0  0  0  0  0  0  0
    2.2122   -0.6899   -0.9569 H   0  0  0  0  0  0  0  0  0  0  0  0
    1.0822   -2.1012   -0.9675 H   0  0  0  0  0  0  0  0  0  0  0  0
    0.2476   -1.5942    1.2157 H   0  0  0  0  0  0  0  0  0  0  0  0
    3.1576   -2.7149   -0.1706 H   0  0  0  0  0  0  0  0  0  0  0  0
    4.3818   -3.5197    2.3241 H   0  0  0  0  0  0  0  0  0  0  0  0
    5.1186   -3.5696    0.6964 H   0  0  0  0  0  0  0  0  0  0  0  0
    6.4931   -2.1013    2.0217 H   0  0  0  0  0  0  0  0  0  0  0  0
    5.0735   -1.2489    2.7035 H   0  0  0  0  0  0  0  0  0  0  0  0
    6.2504    0.1616    1.1123 H   0  0  0  0  0  0  0  0  0  0  0  0
    4.6015   -0.1699    0.5277 H   0  0  0  0  0  0  0  0  0  0  0  0
    5.5301   -1.9349   -1.0480 H   0  0  0  0  0  0  0  0  0  0  0  0
    7.1703   -1.6659   -0.3928 H   0  0  0  0  0  0  0  0  0  0  0  0
    4.2967    0.0375   -1.8006 H   0  0  0  0  0  0  0  0  0  0  0  0
    5.2281    0.6605   -3.1822 H   0  0  0  0  0  0  0  0  0  0  0  0
    4.5177    2.0359   -0.6289 H   0  0  0  0  0  0  0  0  0  0  0  0
    5.0009    2.7372   -2.2261 H   0  0  0  0  0  0  0  0  0  0  0  0
    6.6482    2.3381    0.1596 H   0  0  0  0  0  0  0  0  0  0  0  0
    7.1416    3.0531   -1.4233 H   0  0  0  0  0  0  0  0  0  0  0  0
    8.0625    0.5806   -0.4219 H   0  0  0  0  0  0  0  0  0  0  0  0
    8.0903    1.0916   -2.1367 H   0  0  0  0  0  0  0  0  0  0  0  0
    1.8130    1.0138    1.0573 H   0  0  0  0  0  0  0  0  0  0  0  0
    0.4311   -0.1719    5.0510 H   0  0  0  0  0  0  0  0  0  0  0  0
   -1.0824   -1.7686    6.1455 H   0  0  0  0  0  0  0  0  0  0  0  0
   -3.0302   -2.6843    4.9237 H   0  0  0  0  0  0  0  0  0  0  0  0
   -3.5411   -1.8951    2.6395 H   0  0  0  0  0  0  0  0  0  0  0  0
   -1.3022    1.5795    0.4537 H   0  0  0  0  0  0  0  0  0  0  0  0
   -2.4486    1.8945    1.7825 H   0  0  0  0  0  0  0  0  0  0  0  0
   -3.4717    2.6215   -0.1824 H   0  0  0  0  0  0  0  0  0  0  0  0
   -4.7913   -0.1101    0.4705 H   0  0  0  0  0  0  0  0  0  0  0  0
   -4.8076    1.2881    1.5477 H   0  0  0  0  0  0  0  0  0  0  0  0
   -5.4477    3.6775    0.2824 H   0  0  0  0  0  0  0  0  0  0  0  0
   -7.5356    4.6263   -0.5990 H   0  0  0  0  0  0  0  0  0  0  0  0
   -9.2925    3.1531   -1.5328 H   0  0  0  0  0  0  0  0  0  0  0  0
   -8.9619    0.7066   -1.5801 H   0  0  0  0  0  0  0  0  0  0  0  0
   -6.9011   -0.2804   -0.6806 H   0  0  0  0  0  0  0  0  0  0  0  0
  1  2  1  0
  2  3  1  0
  3  4  2  0
  3  5  1  0
  5  6  1  0
  6  7  1  0
  5  8  1  0
  8  9  1  0
  9 10  2  0
  9 11  1  0
 11 12  1  0
 12 13  1  0
 13 14  1  0
 14 15  2  0
 14 16  1  0
 16 17  1  0
 17 18  1  0
 18 19  1  0
 19 20  1  0
 20 21  1  0
 21 22  1  0
 22 23  1  0
 23 24  1  0
 24 25  1  0
 13 26  1  0
 26 27  1  0
 27 28  2  0
 27 29  1  0
 29 30  2  0
 30 31  1  0
 31 32  2  0
 32 33  1  0
 33 34  2  0
 34 35  1  0
 35 36  1  0
 36 37  1  0
 37 38  1  0
 38 39  1  0
 39 40  2  0
 40 41  1  0
 41 42  2  0
 42 43  1  0
 43 44  2  0
 37  2  1  0
 44 39  1  0
 25 21  1  0
 34 29  1  0
  1 45  1  0
  1 46  1  0
  1 47  1  0
  5 48  1  0
  6 49  1  0
  6 50  1  0
  7 51  1  0
  8 52  1  0
 11 53  1  0
 11 54  1  0
 12 55  1  0
 12 56  1  0
 13 57  1  0
 16 58  1  0
 17 59  1  0
 17 60  1  0
 18 61  1  0
 18 62  1  0
 19 63  1  0
 19 64  1  0
 20 65  1  0
 20 66  1  0
 22 67  1  0
 22 68  1  0
 23 69  1  0
 23 70  1  0
 24 71  1  0
 24 72  1  0
 25 73  1  0
 25 74  1  0
 26 75  1  0
 30 76  1  0
 31 77  1  0
 32 78  1  0
 33 79  1  0
 36 80  1  0
 36 81  1  0
 37 82  1  0
 38 83  1  0
 38 84  1  0
 40 85  1  0
 41 86  1  0
 42 87  1  0
 43 88  1  0
 44 89  1  0
M  END
$$$$
