
     RDKit          3D

 72 74  0  0  0  0  0  0  0  0999 V2000
   -2.4764    3.8088   -2.5939 C   0  0  0  0  0  0  0  0  0  0  0  0
   -3.0210    3.5744   -1.1756 C   0  0  0  0  0  0  0  0  0  0  0  0
   -3.0290    4.8921   -0.3859 C   0  0  0  0  0  0  0  0  0  0  0  0
   -2.2015    2.5115   -0.4015 C   0  0  0  0  0  0  0  0  0  0  0  0
   -2.2788    1.0715   -0.9645 C   0  0  0  0  0  0  0  0  0  0  0  0
   -1.1504    0.3045   -0.4191 N   0  0  0  0  0  0  0  0  0  0  0  0
   -0.4123   -0.6642   -1.1908 C   0  0  0  0  0  0  0  0  0  0  0  0
   -0.8644   -1.0214   -2.3130 O   0  0  0  0  0  0  0  0  0  0  0  0
    0.8684   -1.3254   -0.6480 C   0  0  0  0  0  0  0  0  0  0  0  0
    0.5216   -2.7477   -0.1006 C   0  0  0  0  0  0  0  0  0  0  0  0
   -0.4393   -2.7773    1.1122 C   0  0  0  0  0  0  0  0  0  0  0  0
   -1.4723   -3.9169    1.0060 C   0  0  0  0  0  0  0  0  0  0  0  0
   -2.4300   -3.9221    2.2094 C   0  0  0  0  0  0  0  0  0  0  0  0
   -3.1154   -2.6832    2.2858 O   0  0  0  0  0  0  0  0  0  0  0  0
   -4.3186   -2.7066    1.5391 C   0  0  0  0  0  0  0  0  0  0  0  0
   -4.6184   -1.2921    1.0116 C   0  0  0  0  0  0  0  0  0  0  0  0
   -4.6978   -0.2819    2.1654 C   0  0  0  0  0  0  0  0  0  0  0  0
   -3.5853   -0.8863    0.0492 N   0  0  0  0  0  0  0  0  0  0  0  0
   -3.5883    0.3890   -0.6075 C   0  0  0  0  0  0  0  0  0  0  0  0
   -4.6913    0.9155   -0.9343 O   0  0  0  0  0  0  0  0  0  0  0  0
    1.5413   -0.4428    0.4636 C   0  0  0  0  0  0  0  0  0  0  0  0
    3.0719   -0.4844    0.3909 C   0  0  0  0  0  0  0  0  0  0  0  0
    3.5543    0.1123   -0.8783 N   0  0  0  0  0  0  0  0  0  0  0  0
    4.9971   -0.1394   -1.0808 C   0  0  0  0  0  0  0  0  0  0  0  0
    5.8230    0.6805   -0.1240 C   0  0  0  0  0  0  0  0  0  0  0  0
    5.7579    2.0830   -0.1613 C   0  0  0  0  0  0  0  0  0  0  0  0
    6.5633    2.8425    0.6898 C   0  0  0  0  0  0  0  0  0  0  0  0
    7.4438    2.1933    1.5539 C   0  0  0  0  0  0  0  0  0  0  0  0
    7.5069    0.8366    1.5706 N   0  0  0  0  0  0  0  0  0  0  0  0
    6.7250    0.0737    0.7632 C   0  0  0  0  0  0  0  0  0  0  0  0
    2.7370   -0.2654   -2.0617 C   0  0  0  0  0  0  0  0  0  0  0  0
    1.8848   -1.5218   -1.8269 C   0  0  0  0  0  0  0  0  0  0  0  0
   -1.3837    3.9945   -2.5814 H   0  0  0  0  0  0  0  0  0  0  0  0
   -2.9770    4.6910   -3.0504 H   0  0  0  0  0  0  0  0  0  0  0  0
   -2.6912    2.9414   -3.2452 H   0  0  0  0  0  0  0  0  0  0  0  0
   -4.0794    3.2576   -1.2635 H   0  0  0  0  0  0  0  0  0  0  0  0
   -3.5966    5.6734   -0.9342 H   0  0  0  0  0  0  0  0  0  0  0  0
   -3.5223    4.7326    0.6037 H   0  0  0  0  0  0  0  0  0  0  0  0
   -1.9897    5.2619   -0.2097 H   0  0  0  0  0  0  0  0  0  0  0  0
   -1.1382    2.8365   -0.3932 H   0  0  0  0  0  0  0  0  0  0  0  0
   -2.5327    2.4872    0.6592 H   0  0  0  0  0  0  0  0  0  0  0  0
   -2.1955    1.1067   -2.0688 H   0  0  0  0  0  0  0  0  0  0  0  0
   -0.9664    0.4002    0.6023 H   0  0  0  0  0  0  0  0  0  0  0  0
    1.4638   -3.2576    0.2112 H   0  0  0  0  0  0  0  0  0  0  0  0
    0.1073   -3.3532   -0.9383 H   0  0  0  0  0  0  0  0  0  0  0  0
   -0.9781   -1.8093    1.2078 H   0  0  0  0  0  0  0  0  0  0  0  0
    0.1633   -2.9063    2.0471 H   0  0  0  0  0  0  0  0  0  0  0  0
   -0.9644   -4.8972    0.9157 H   0  0  0  0  0  0  0  0  0  0  0  0
   -2.0722   -3.7639    0.0838 H   0  0  0  0  0  0  0  0  0  0  0  0
   -3.1219   -4.7964    2.1587 H   0  0  0  0  0  0  0  0  0  0  0  0
   -1.8474   -4.0455    3.1503 H   0  0  0  0  0  0  0  0  0  0  0  0
   -5.1522   -3.0361    2.1976 H   0  0  0  0  0  0  0  0  0  0  0  0
   -4.2819   -3.4042    0.6744 H   0  0  0  0  0  0  0  0  0  0  0  0
   -5.6043   -1.3162    0.4940 H   0  0  0  0  0  0  0  0  0  0  0  0
   -5.0550    0.7011    1.7833 H   0  0  0  0  0  0  0  0  0  0  0  0
   -5.4205   -0.6334    2.9390 H   0  0  0  0  0  0  0  0  0  0  0  0
   -3.6951   -0.1467    2.6358 H   0  0  0  0  0  0  0  0  0  0  0  0
   -2.8906   -1.5934   -0.2825 H   0  0  0  0  0  0  0  0  0  0  0  0
    1.2127   -0.7350    1.4832 H   0  0  0  0  0  0  0  0  0  0  0  0
    1.2722    0.6250    0.3390 H   0  0  0  0  0  0  0  0  0  0  0  0
    3.4208   -1.5324    0.5053 H   0  0  0  0  0  0  0  0  0  0  0  0
    3.4758    0.1005    1.2423 H   0  0  0  0  0  0  0  0  0  0  0  0
    5.2189   -1.2226   -0.9744 H   0  0  0  0  0  0  0  0  0  0  0  0
    5.3098    0.1678   -2.1029 H   0  0  0  0  0  0  0  0  0  0  0  0
    5.0838    2.5865   -0.8506 H   0  0  0  0  0  0  0  0  0  0  0  0
    6.5210    3.9268    0.6732 H   0  0  0  0  0  0  0  0  0  0  0  0
    8.0937    2.7668    2.1963 H   0  0  0  0  0  0  0  0  0  0  0  0
    6.8202   -0.9984    0.8059 H   0  0  0  0  0  0  0  0  0  0  0  0
    2.0652    0.5832   -2.3025 H   0  0  0  0  0  0  0  0  0  0  0  0
    3.3618   -0.4327   -2.9654 H   0  0  0  0  0  0  0  0  0  0  0  0
    1.3762   -1.8056   -2.7735 H   0  0  0  0  0  0  0  0  0  0  0  0
    2.5838   -2.3645   -1.6155 H   0  0  0  0  0  0  0  0  0  0  0  0
  1  2  1  0
  2  3  1  0
  2  4  1  0
  4  5  1  0
  5  6  1  0
  6  7  1  0
  7  8  2  0
  7  9  1  0
  9 10  1  0
 10 11  1  0
 11 12  1  0
 12 13  1  0
 13 14  1  0
 14 15  1  0
 15 16  1  0
 16 17  1  0
 16 18  1  0
 18 19  1  0
 19 20  2  0
  9 21  1  0
 21 22  1  0
 22 23  1  0
 23 24  1  0
 24 25  1  0
 25 26  2  0
 26 27  1  0
 27 28  2  0
 28 29  1  0
 29 30  2  0
 23 31  1  0
 31 32  1  0
 19  5  1  0
 30 25  1  0
 32  9  1  0
  1 33  1  0
  1 34  1  0
  1 35  1  0
  2 36  1  0
  3 37  1  0
  3 38  1  0
  3 39  1  0
  4 40  1  0
  4 41  1  0
  5 42  1  0
  6 43  1  0
 10 44  1  0
 10 45  1  0
 11 46  1  0
 11 47  1  0
 12 48  1  0
 12 49  1  0
 13 50  1  0
 13 51  1  0
 15 52  1  0
 15 53  1  0
 16 54  1  0
 17 55  1  0
 17 56  1  0
 17 57  1  0
 18 58  1  0
 21 59  1  0
 21 60  1  0
 22 61  1  0
 22 62  1  0
 24 63  1  0
 24 64  1  0
 26 65  1  0
 27 66  1  0
 28 67  1  0
 30 68  1  0
 31 69  1  0
 31 70  1  0
 32 71  1  0
 32 72  1  0
M  END
$$$$
