
     RDKit          3D

 59 62  0  0  0  0  0  0  0  0999 V2000
    4.4053    1.3566    2.9970 C   0  0  0  0  0  0  0  0  0  0  0  0
    5.0363   -0.1507    2.2869 S   0  0  0  0  0  6  0  0  0  0  0  0
    6.1291    0.1770    1.3089 O   0  0  0  0  0  0  0  0  0  0  0  0
    5.6067   -0.9993    3.3877 O   0  0  0  0  0  0  0  0  0  0  0  0
    3.7526   -1.0328    1.5064 N   0  0  0  0  0  0  0  0  0  0  0  0
    3.3292   -0.3878    0.2459 C   0  0  0  0  0  0  0  0  0  0  0  0
    4.1412   -0.9535   -0.9428 C   0  0  0  0  0  0  0  0  0  0  0  0
    3.5334   -0.6260   -2.3235 C   0  0  0  0  0  0  0  0  0  0  0  0
    2.4615    0.4631   -2.2519 C   0  0  0  0  0  0  0  0  0  0  0  0
    1.4096    0.0570   -1.3119 N   0  0  0  0  0  0  0  0  0  0  0  0
    0.0430    0.1393   -1.7896 C   0  0  0  0  0  0  0  0  0  0  0  0
   -0.4252   -0.8337   -2.4380 O   0  0  0  0  0  0  0  0  0  0  0  0
   -0.7710    1.4245   -1.7061 C   0  0  0  0  0  0  0  0  0  0  0  0
   -2.1424    1.1971   -2.1092 O   0  0  0  0  0  0  0  0  0  0  0  0
   -3.3141    1.6422   -1.4399 C   0  0  0  0  0  0  0  0  0  0  0  0
   -4.0676    2.6760   -2.0085 C   0  0  0  0  0  0  0  0  0  0  0  0
   -3.6323    3.2911   -3.1362 F   0  0  0  0  0  0  0  0  0  0  0  0
   -5.2791    3.0688   -1.4297 C   0  0  0  0  0  0  0  0  0  0  0  0
   -5.7585    2.4247   -0.2845 C   0  0  0  0  0  0  0  0  0  0  0  0
   -6.9381    2.8090    0.2625 F   0  0  0  0  0  0  0  0  0  0  0  0
   -5.0250    1.3887    0.2999 C   0  0  0  0  0  0  0  0  0  0  0  0
   -3.8029    0.9959   -0.2602 C   0  0  0  0  0  0  0  0  0  0  0  0
   -2.9529   -0.0671    0.3644 C   0  0  0  0  0  0  0  0  0  0  0  0
   -2.9136   -0.3633    1.8807 C   0  0  0  0  0  0  0  0  0  0  0  0
   -1.5959   -1.1612    2.2397 C   0  0  0  0  0  0  0  0  0  0  0  0
   -0.8300   -1.6229    0.9652 C   0  0  0  0  0  0  0  0  0  0  0  0
   -1.8140   -2.3673    0.0430 C   0  0  0  0  0  0  0  0  0  0  0  0
   -2.9388   -1.4021   -0.4327 C   0  0  0  0  0  0  0  0  0  0  0  0
    0.3915   -2.3017    1.2065 O   0  0  0  0  0  0  0  0  0  0  0  0
    1.3248   -2.0564    0.1372 C   0  0  0  0  0  0  0  0  0  0  0  0
    1.7963   -0.5462    0.0043 C   0  0  0  0  0  0  0  0  0  0  0  0
    5.2013    1.8449    3.5960 H   0  0  0  0  0  0  0  0  0  0  0  0
    3.5420    1.1241    3.6540 H   0  0  0  0  0  0  0  0  0  0  0  0
    4.0800    2.0482    2.1936 H   0  0  0  0  0  0  0  0  0  0  0  0
    2.9609   -1.0323    2.1903 H   0  0  0  0  0  0  0  0  0  0  0  0
    3.5246    0.7074    0.2958 H   0  0  0  0  0  0  0  0  0  0  0  0
    4.2351   -2.0570   -0.8444 H   0  0  0  0  0  0  0  0  0  0  0  0
    5.1707   -0.5406   -0.9063 H   0  0  0  0  0  0  0  0  0  0  0  0
    3.0705   -1.5454   -2.7452 H   0  0  0  0  0  0  0  0  0  0  0  0
    4.3364   -0.3067   -3.0228 H   0  0  0  0  0  0  0  0  0  0  0  0
    2.0460    0.6245   -3.2717 H   0  0  0  0  0  0  0  0  0  0  0  0
    2.9110    1.4228   -1.9176 H   0  0  0  0  0  0  0  0  0  0  0  0
   -0.7019    1.8680   -0.6913 H   0  0  0  0  0  0  0  0  0  0  0  0
   -0.3239    2.1615   -2.4047 H   0  0  0  0  0  0  0  0  0  0  0  0
   -5.8547    3.8688   -1.8774 H   0  0  0  0  0  0  0  0  0  0  0  0
   -5.4033    0.9024    1.1901 H   0  0  0  0  0  0  0  0  0  0  0  0
   -2.0344    0.4941    0.2703 H   0  0  0  0  0  0  0  0  0  0  0  0
   -3.8064   -0.9623    2.1630 H   0  0  0  0  0  0  0  0  0  0  0  0
   -2.9429    0.5883    2.4552 H   0  0  0  0  0  0  0  0  0  0  0  0
   -0.9251   -0.5097    2.8409 H   0  0  0  0  0  0  0  0  0  0  0  0
   -1.8521   -2.0458    2.8618 H   0  0  0  0  0  0  0  0  0  0  0  0
   -0.5593   -0.7090    0.4752 H   0  0  0  0  0  0  0  0  0  0  0  0
   -1.2967   -2.7921   -0.8407 H   0  0  0  0  0  0  0  0  0  0  0  0
   -2.2601   -3.2212    0.5984 H   0  0  0  0  0  0  0  0  0  0  0  0
   -2.8144   -1.2022   -1.5163 H   0  0  0  0  0  0  0  0  0  0  0  0
   -3.9242   -1.9026   -0.3139 H   0  0  0  0  0  0  0  0  0  0  0  0
    2.1979   -2.7164    0.3161 H   0  0  0  0  0  0  0  0  0  0  0  0
    0.9220   -2.4210   -0.8300 H   0  0  0  0  0  0  0  0  0  0  0  0
    1.3418    0.0703    0.8103 H   0  0  0  0  0  0  0  0  0  0  0  0
  1  2  1  0
  2  3  2  0
  2  4  2  0
  2  5  1  0
  5  6  1  0
  6  7  1  0
  7  8  1  0
  8  9  1  0
  9 10  1  0
 10 11  1  0
 11 12  2  0
 11 13  1  0
 13 14  1  0
 14 15  1  0
 15 16  2  0
 16 17  1  0
 16 18  1  0
 18 19  2  0
 19 20  1  0
 19 21  1  0
 21 22  2  0
 22 23  1  0
 23 24  1  0
 24 25  1  0
 25 26  1  0
 26 27  1  0
 27 28  1  0
 26 29  1  0
 29 30  1  0
 30 31  1  0
 31  6  1  0
 31 10  1  0
 22 15  1  0
 28 23  1  0
  1 32  1  0
  1 33  1  0
  1 34  1  0
  5 35  1  0
  6 36  1  0
  7 37  1  0
  7 38  1  0
  8 39  1  0
  8 40  1  0
  9 41  1  0
  9 42  1  0
 13 43  1  0
 13 44  1  0
 18 45  1  0
 21 46  1  0
 23 47  1  0
 24 48  1  0
 24 49  1  0
 25 50  1  0
 25 51  1  0
 26 52  1  0
 27 53  1  0
 27 54  1  0
 28 55  1  0
 28 56  1  0
 30 57  1  0
 30 58  1  0
 31 59  1  0
M  END
$$$$
