
     RDKit          3D

 85 88  0  0  0  0  0  0  0  0999 V2000
   -4.9910   -2.1313   -0.6238 C   0  0  0  0  0  0  0  0  0  0  0  0
   -4.2614   -1.1016    0.2608 C   0  0  0  0  0  0  0  0  0  0  0  0
   -5.0046   -0.9944    1.6032 C   0  0  0  0  0  0  0  0  0  0  0  0
   -2.7554   -1.4898    0.4522 C   0  0  2  0  0  0  0  0  0  0  0  0
   -2.0094   -0.5810    1.3555 N   0  0  0  0  0  0  0  0  0  0  0  0
   -2.0243    0.8316    0.9453 C   0  0  0  0  0  0  0  0  0  0  0  0
   -1.0437    1.6518    1.7945 C   0  0  0  0  0  0  0  0  0  0  0  0
   -0.5652    2.7827    1.0591 O   0  0  0  0  0  0  0  0  0  0  0  0
   -1.3837    3.7630    0.4701 C   0  0  0  0  0  0  0  0  0  0  0  0
   -2.6513    4.0673    1.0076 C   0  0  0  0  0  0  0  0  0  0  0  0
   -3.4745    5.0119    0.3947 C   0  0  0  0  0  0  0  0  0  0  0  0
   -3.0419    5.6800   -0.7479 C   0  0  0  0  0  0  0  0  0  0  0  0
   -1.7821    5.4086   -1.2833 C   0  0  0  0  0  0  0  0  0  0  0  0
   -0.9339    4.4526   -0.6871 C   0  0  0  0  0  0  0  0  0  0  0  0
    0.4533    4.2370   -1.2845 C   0  0  0  0  0  0  0  0  0  0  0  0
    1.5693    4.7269   -0.3557 C   0  0  0  0  0  0  0  0  0  0  0  0
    2.3788    3.5022    0.0411 C   0  0  0  0  0  0  0  0  0  0  0  0
    2.1351    2.4566   -1.0452 C   0  0  0  0  0  0  0  0  0  0  0  0
    0.7562    2.7714   -1.6324 C   0  0  0  0  0  0  0  0  0  0  0  0
    2.1995    1.0949   -0.4996 N   0  0  0  0  0  0  0  0  0  0  0  0
    2.0312   -0.0766   -1.3136 C   0  0  0  0  0  0  0  0  0  0  0  0
    1.9281    0.0400   -2.5658 O   0  0  0  0  0  0  0  0  0  0  0  0
    2.0094   -1.4632   -0.7040 C   0  0  1  0  0  0  0  0  0  0  0  0
    3.4273   -2.0222   -0.4540 C   0  0  0  0  0  0  0  0  0  0  0  0
    4.2359   -1.2220    0.5382 C   0  0  0  0  0  0  0  0  0  0  0  0
    5.0859   -0.1962    0.0937 C   0  0  0  0  0  0  0  0  0  0  0  0
    5.8371    0.5478    1.0119 C   0  0  0  0  0  0  0  0  0  0  0  0
    5.7508    0.2618    2.3769 C   0  0  0  0  0  0  0  0  0  0  0  0
    4.9080   -0.7583    2.8279 C   0  0  0  0  0  0  0  0  0  0  0  0
    4.1555   -1.4992    1.9134 C   0  0  0  0  0  0  0  0  0  0  0  0
    1.2027   -1.4770    0.5234 N   0  0  0  0  0  0  0  0  0  0  0  0
    0.3138   -2.5378    0.9176 C   0  0  0  0  0  0  0  0  0  0  0  0
    0.1172   -2.7228    2.1517 O   0  0  0  0  0  0  0  0  0  0  0  0
   -0.4222   -3.4362   -0.0616 C   0  0  2  0  0  0  0  0  0  0  0  0
    0.4610   -4.6513   -0.4762 C   0  0  0  0  0  0  0  0  0  0  0  0
   -0.3889   -5.7715   -1.1024 C   0  0  0  0  0  0  0  0  0  0  0  0
    1.0930   -5.1722    0.6682 O   0  0  0  0  0  0  0  0  0  0  0  0
   -1.0338   -2.6407   -1.1649 N   0  0  0  0  0  0  0  0  0  0  0  0
   -0.6896   -2.8023   -2.5904 C   0  0  0  0  0  0  0  0  0  0  0  0
   -2.0264   -1.6147   -0.8829 C   0  0  0  0  0  0  0  0  0  0  0  0
   -2.3052   -0.7747   -1.7852 O   0  0  0  0  0  0  0  0  0  0  0  0
   -4.5417   -2.1711   -1.6371 H   0  0  0  0  0  0  0  0  0  0  0  0
   -4.9359   -3.1452   -0.1724 H   0  0  0  0  0  0  0  0  0  0  0  0
   -6.0607   -1.8495   -0.7459 H   0  0  0  0  0  0  0  0  0  0  0  0
   -4.3358   -0.1181   -0.2527 H   0  0  0  0  0  0  0  0  0  0  0  0
   -4.9293   -1.9445    2.1798 H   0  0  0  0  0  0  0  0  0  0  0  0
   -6.0801   -0.7729    1.4267 H   0  0  0  0  0  0  0  0  0  0  0  0
   -4.5989   -0.1653    2.2190 H   0  0  0  0  0  0  0  0  0  0  0  0
   -2.7770   -2.4829    0.9387 H   0  0  0  0  0  0  0  0  0  0  0  0
   -2.3765   -0.6632    2.3329 H   0  0  0  0  0  0  0  0  0  0  0  0
   -3.0387    1.2627    1.0616 H   0  0  0  0  0  0  0  0  0  0  0  0
   -1.7244    0.9264   -0.1167 H   0  0  0  0  0  0  0  0  0  0  0  0
   -0.1708    1.0226    2.0649 H   0  0  0  0  0  0  0  0  0  0  0  0
   -1.5238    1.9754    2.7388 H   0  0  0  0  0  0  0  0  0  0  0  0
   -3.0056    3.5749    1.9022 H   0  0  0  0  0  0  0  0  0  0  0  0
   -4.4517    5.2314    0.8106 H   0  0  0  0  0  0  0  0  0  0  0  0
   -3.6817    6.4130   -1.2182 H   0  0  0  0  0  0  0  0  0  0  0  0
   -1.4640    5.9584   -2.1618 H   0  0  0  0  0  0  0  0  0  0  0  0
    0.5371    4.8155   -2.2345 H   0  0  0  0  0  0  0  0  0  0  0  0
    2.2225    5.4398   -0.9022 H   0  0  0  0  0  0  0  0  0  0  0  0
    1.1799    5.2489    0.5464 H   0  0  0  0  0  0  0  0  0  0  0  0
    2.0177    3.1431    1.0291 H   0  0  0  0  0  0  0  0  0  0  0  0
    3.4602    3.7474    0.1339 H   0  0  0  0  0  0  0  0  0  0  0  0
    2.9087    2.5766   -1.8385 H   0  0  0  0  0  0  0  0  0  0  0  0
   -0.0115    2.0749   -1.2354 H   0  0  0  0  0  0  0  0  0  0  0  0
    0.7727    2.6359   -2.7401 H   0  0  0  0  0  0  0  0  0  0  0  0
    2.4554    0.9701    0.5083 H   0  0  0  0  0  0  0  0  0  0  0  0
    1.5521   -2.1305   -1.4533 H   0  0  0  0  0  0  0  0  0  0  0  0
    3.9736   -2.0721   -1.4229 H   0  0  0  0  0  0  0  0  0  0  0  0
    3.3420   -3.0720   -0.0975 H   0  0  0  0  0  0  0  0  0  0  0  0
    5.1614    0.0336   -0.9587 H   0  0  0  0  0  0  0  0  0  0  0  0
    6.4876    1.3397    0.6616 H   0  0  0  0  0  0  0  0  0  0  0  0
    6.3365    0.8304    3.0873 H   0  0  0  0  0  0  0  0  0  0  0  0
    4.8390   -0.9768    3.8869 H   0  0  0  0  0  0  0  0  0  0  0  0
    3.5119   -2.2909    2.2749 H   0  0  0  0  0  0  0  0  0  0  0  0
    1.4840   -0.8360    1.2944 H   0  0  0  0  0  0  0  0  0  0  0  0
   -1.2552   -3.9083    0.5059 H   0  0  0  0  0  0  0  0  0  0  0  0
    1.2518   -4.3324   -1.1888 H   0  0  0  0  0  0  0  0  0  0  0  0
   -1.0642   -6.2155   -0.3383 H   0  0  0  0  0  0  0  0  0  0  0  0
   -1.0108   -5.4020   -1.9434 H   0  0  0  0  0  0  0  0  0  0  0  0
    0.2789   -6.5723   -1.4904 H   0  0  0  0  0  0  0  0  0  0  0  0
    1.8309   -5.7615    0.3516 H   0  0  0  0  0  0  0  0  0  0  0  0
   -0.3013   -1.8447   -2.9948 H   0  0  0  0  0  0  0  0  0  0  0  0
   -1.6013   -3.0793   -3.1636 H   0  0  0  0  0  0  0  0  0  0  0  0
    0.0762   -3.5646   -2.7950 H   0  0  0  0  0  0  0  0  0  0  0  0
  1  2  1  0
  2  3  1  0
  2  4  1  0
  4  5  1  0
  5  6  1  0
  6  7  1  0
  7  8  1  0
  8  9  1  0
  9 10  2  0
 10 11  1  0
 11 12  2  0
 12 13  1  0
 13 14  2  0
 14 15  1  0
 15 16  1  0
 16 17  1  0
 17 18  1  0
 18 19  1  0
 18 20  1  0
 20 21  1  0
 21 22  2  0
 21 23  1  0
 23 24  1  0
 24 25  1  0
 25 26  2  0
 26 27  1  0
 27 28  2  0
 28 29  1  0
 29 30  2  0
 23 31  1  0
 31 32  1  0
 32 33  2  0
 32 34  1  0
 34 35  1  0
 35 36  1  0
 35 37  1  0
 34 38  1  0
 38 39  1  0
 38 40  1  0
 40 41  2  0
 40  4  1  0
 14  9  1  0
 19 15  1  0
 30 25  1  0
  1 42  1  0
  1 43  1  0
  1 44  1  0
  2 45  1  0
  3 46  1  0
  3 47  1  0
  3 48  1  0
  4 49  1  1
  5 50  1  0
  6 51  1  0
  6 52  1  0
  7 53  1  0
  7 54  1  0
 10 55  1  0
 11 56  1  0
 12 57  1  0
 13 58  1  0
 15 59  1  0
 16 60  1  0
 16 61  1  0
 17 62  1  0
 17 63  1  0
 18 64  1  0
 19 65  1  0
 19 66  1  0
 20 67  1  0
 23 68  1  6
 24 69  1  0
 24 70  1  0
 26 71  1  0
 27 72  1  0
 28 73  1  0
 29 74  1  0
 30 75  1  0
 31 76  1  0
 34 77  1  1
 35 78  1  0
 36 79  1  0
 36 80  1  0
 36 81  1  0
 37 82  1  0
 39 83  1  0
 39 84  1  0
 39 85  1  0
M  END
$$$$
