
     RDKit          3D

 90 90  0  0  0  0  0  0  0  0999 V2000
    1.9432    6.3122   -1.5962 O   0  0  0  0  0  0  0  0  0  0  0  0
    2.1775    5.3274   -0.8461 C   0  0  0  0  0  0  0  0  0  0  0  0
    1.8468    5.4376    0.6218 C   0  0  0  0  0  0  0  0  0  0  0  0
    0.4185    4.9451    0.9208 C   0  0  0  0  0  0  0  0  0  0  0  0
   -0.6662    5.9365    0.5581 C   0  0  0  0  0  0  0  0  0  0  0  0
   -0.3593    7.0304    0.0107 O   0  0  0  0  0  0  0  0  0  0  0  0
   -2.0525    5.6796    0.8572 N   0  0  0  0  0  0  0  0  0  0  0  0
   -2.9531    6.6744    0.6539 O   0  0  0  0  0  0  0  0  0  0  0  0
   -2.5656    4.3576    1.2264 C   0  0  0  0  0  0  0  0  0  0  0  0
   -3.0920    3.6369   -0.0196 C   0  0  0  0  0  0  0  0  0  0  0  0
   -3.6478    2.2362    0.2831 C   0  0  0  0  0  0  0  0  0  0  0  0
   -4.9883    2.2871    1.0356 C   0  0  0  0  0  0  0  0  0  0  0  0
   -5.6051    0.8958    1.2060 C   0  0  0  0  0  0  0  0  0  0  0  0
   -6.0863    0.3751   -0.0766 N   0  0  0  0  0  0  0  0  0  0  0  0
   -5.4733   -0.6902   -0.8233 C   0  0  0  0  0  0  0  0  0  0  0  0
   -5.9622   -1.0068   -1.9416 O   0  0  0  0  0  0  0  0  0  0  0  0
   -4.2915   -1.4707   -0.3092 C   0  0  0  0  0  0  0  0  0  0  0  0
   -4.7106   -2.5494    0.7019 C   0  0  0  0  0  0  0  0  0  0  0  0
   -5.3875   -3.7113    0.0199 C   0  0  0  0  0  0  0  0  0  0  0  0
   -6.5989   -3.5838   -0.3031 O   0  0  0  0  0  0  0  0  0  0  0  0
   -4.7077   -4.9424   -0.3094 N   0  0  0  0  0  0  0  0  0  0  0  0
   -5.3776   -5.8621   -1.0482 O   0  0  0  0  0  0  0  0  0  0  0  0
   -3.3503   -5.2751    0.1311 C   0  0  0  0  0  0  0  0  0  0  0  0
   -2.3010   -4.5423   -0.7120 C   0  0  0  0  0  0  0  0  0  0  0  0
   -0.9193   -5.1968   -0.5907 C   0  0  0  0  0  0  0  0  0  0  0  0
    0.1417   -4.3536   -1.3064 C   0  0  0  0  0  0  0  0  0  0  0  0
    1.5006   -5.0561   -1.3238 C   0  0  0  0  0  0  0  0  0  0  0  0
    2.5107   -4.1631   -1.8903 N   0  0  0  0  0  0  0  0  0  0  0  0
    3.2045   -3.1713   -1.1171 C   0  0  0  0  0  0  0  0  0  0  0  0
    3.6778   -2.1620   -1.7088 O   0  0  0  0  0  0  0  0  0  0  0  0
    3.3608   -3.3199    0.3791 C   0  0  0  0  0  0  0  0  0  0  0  0
    4.3204   -2.2965    1.0115 C   0  0  0  0  0  0  0  0  0  0  0  0
    5.7300   -2.3875    0.4687 C   0  0  0  0  0  0  0  0  0  0  0  0
    6.1732   -3.5091    0.0989 O   0  0  0  0  0  0  0  0  0  0  0  0
    6.6047   -1.2436    0.4162 N   0  0  0  0  0  0  0  0  0  0  0  0
    7.7701   -1.3448   -0.2733 O   0  0  0  0  0  0  0  0  0  0  0  0
    6.2907    0.0328    1.0652 C   0  0  0  0  0  0  0  0  0  0  0  0
    5.6324    0.9942    0.0682 C   0  0  0  0  0  0  0  0  0  0  0  0
    5.2656    2.3160    0.7554 C   0  0  0  0  0  0  0  0  0  0  0  0
    4.6847    3.3512   -0.2198 C   0  0  0  0  0  0  0  0  0  0  0  0
    3.2558    3.0067   -0.6665 C   0  0  0  0  0  0  0  0  0  0  0  0
    2.6882    4.1177   -1.4307 N   0  0  0  0  0  0  0  0  0  0  0  0
    1.9681    6.4902    0.9566 H   0  0  0  0  0  0  0  0  0  0  0  0
    2.5648    4.8471    1.2241 H   0  0  0  0  0  0  0  0  0  0  0  0
    0.2375    3.9819    0.3925 H   0  0  0  0  0  0  0  0  0  0  0  0
    0.3505    4.7528    2.0120 H   0  0  0  0  0  0  0  0  0  0  0  0
   -3.0329    7.1306    1.5300 H   0  0  0  0  0  0  0  0  0  0  0  0
   -1.7880    3.7464    1.7216 H   0  0  0  0  0  0  0  0  0  0  0  0
   -3.3858    4.4952    1.9575 H   0  0  0  0  0  0  0  0  0  0  0  0
   -2.2584    3.5325   -0.7452 H   0  0  0  0  0  0  0  0  0  0  0  0
   -3.8776    4.2552   -0.5044 H   0  0  0  0  0  0  0  0  0  0  0  0
   -2.9042    1.6529    0.8687 H   0  0  0  0  0  0  0  0  0  0  0  0
   -3.7978    1.7148   -0.6883 H   0  0  0  0  0  0  0  0  0  0  0  0
   -5.7072    2.9390    0.4915 H   0  0  0  0  0  0  0  0  0  0  0  0
   -4.8304    2.7182    2.0476 H   0  0  0  0  0  0  0  0  0  0  0  0
   -6.4731    0.9802    1.8937 H   0  0  0  0  0  0  0  0  0  0  0  0
   -4.8845    0.2126    1.6957 H   0  0  0  0  0  0  0  0  0  0  0  0
   -6.8974    0.8692   -0.5150 H   0  0  0  0  0  0  0  0  0  0  0  0
   -3.5557   -0.7845    0.1585 H   0  0  0  0  0  0  0  0  0  0  0  0
   -3.7710   -1.9406   -1.1716 H   0  0  0  0  0  0  0  0  0  0  0  0
   -5.4090   -2.1159    1.4491 H   0  0  0  0  0  0  0  0  0  0  0  0
   -3.8212   -2.8819    1.2712 H   0  0  0  0  0  0  0  0  0  0  0  0
   -5.8344   -6.4437   -0.3877 H   0  0  0  0  0  0  0  0  0  0  0  0
   -3.2022   -6.3711    0.0147 H   0  0  0  0  0  0  0  0  0  0  0  0
   -3.2240   -5.0536    1.2112 H   0  0  0  0  0  0  0  0  0  0  0  0
   -2.6114   -4.5534   -1.7801 H   0  0  0  0  0  0  0  0  0  0  0  0
   -2.2254   -3.4889   -0.3753 H   0  0  0  0  0  0  0  0  0  0  0  0
   -0.6452   -5.2967    0.4827 H   0  0  0  0  0  0  0  0  0  0  0  0
   -0.9556   -6.2138   -1.0422 H   0  0  0  0  0  0  0  0  0  0  0  0
   -0.1764   -4.1636   -2.3556 H   0  0  0  0  0  0  0  0  0  0  0  0
    0.2396   -3.3755   -0.7850 H   0  0  0  0  0  0  0  0  0  0  0  0
    1.7851   -5.3766   -0.2998 H   0  0  0  0  0  0  0  0  0  0  0  0
    1.4361   -5.9730   -1.9496 H   0  0  0  0  0  0  0  0  0  0  0  0
    2.5416   -4.0794   -2.9319 H   0  0  0  0  0  0  0  0  0  0  0  0
    2.3621   -3.1952    0.8515 H   0  0  0  0  0  0  0  0  0  0  0  0
    3.7216   -4.3447    0.6102 H   0  0  0  0  0  0  0  0  0  0  0  0
    3.8975   -1.2845    0.8516 H   0  0  0  0  0  0  0  0  0  0  0  0
    4.3591   -2.4750    2.1062 H   0  0  0  0  0  0  0  0  0  0  0  0
    8.4320   -1.6680    0.3895 H   0  0  0  0  0  0  0  0  0  0  0  0
    7.2348    0.4877    1.4401 H   0  0  0  0  0  0  0  0  0  0  0  0
    5.6380   -0.1250    1.9526 H   0  0  0  0  0  0  0  0  0  0  0  0
    6.3401    1.1910   -0.7676 H   0  0  0  0  0  0  0  0  0  0  0  0
    4.7212    0.5214   -0.3519 H   0  0  0  0  0  0  0  0  0  0  0  0
    4.5431    2.1291    1.5797 H   0  0  0  0  0  0  0  0  0  0  0  0
    6.1865    2.7445    1.2089 H   0  0  0  0  0  0  0  0  0  0  0  0
    4.6811    4.3357    0.2919 H   0  0  0  0  0  0  0  0  0  0  0  0
    5.3406    3.4456   -1.1131 H   0  0  0  0  0  0  0  0  0  0  0  0
    2.6096    2.7672    0.2015 H   0  0  0  0  0  0  0  0  0  0  0  0
    3.2806    2.1078   -1.3141 H   0  0  0  0  0  0  0  0  0  0  0  0
    2.6956    4.0436   -2.4722 H   0  0  0  0  0  0  0  0  0  0  0  0
  1  2  2  0
  2  3  1  0
  3  4  1  0
  4  5  1  0
  5  6  2  0
  5  7  1  0
  7  8  1  0
  7  9  1  0
  9 10  1  0
 10 11  1  0
 11 12  1  0
 12 13  1  0
 13 14  1  0
 14 15  1  0
 15 16  2  0
 15 17  1  0
 17 18  1  0
 18 19  1  0
 19 20  2  0
 19 21  1  0
 21 22  1  0
 21 23  1  0
 23 24  1  0
 24 25  1  0
 25 26  1  0
 26 27  1  0
 27 28  1  0
 28 29  1  0
 29 30  2  0
 29 31  1  0
 31 32  1  0
 32 33  1  0
 33 34  2  0
 33 35  1  0
 35 36  1  0
 35 37  1  0
 37 38  1  0
 38 39  1  0
 39 40  1  0
 40 41  1  0
 41 42  1  0
 42  2  1  0
  3 43  1  0
  3 44  1  0
  4 45  1  0
  4 46  1  0
  8 47  1  0
  9 48  1  0
  9 49  1  0
 10 50  1  0
 10 51  1  0
 11 52  1  0
 11 53  1  0
 12 54  1  0
 12 55  1  0
 13 56  1  0
 13 57  1  0
 14 58  1  0
 17 59  1  0
 17 60  1  0
 18 61  1  0
 18 62  1  0
 22 63  1  0
 23 64  1  0
 23 65  1  0
 24 66  1  0
 24 67  1  0
 25 68  1  0
 25 69  1  0
 26 70  1  0
 26 71  1  0
 27 72  1  0
 27 73  1  0
 28 74  1  0
 31 75  1  0
 31 76  1  0
 32 77  1  0
 32 78  1  0
 36 79  1  0
 37 80  1  0
 37 81  1  0
 38 82  1  0
 38 83  1  0
 39 84  1  0
 39 85  1  0
 40 86  1  0
 40 87  1  0
 41 88  1  0
 41 89  1  0
 42 90  1  0
M  END
$$$$
