
     RDKit          3D

 66 68  0  0  0  0  0  0  0  0999 V2000
    7.5484    1.9421    0.1870 C   0  0  0  0  0  0  0  0  0  0  0  0
    6.2416    1.1584    0.1542 C   0  0  0  0  0  0  0  0  0  0  0  0
    6.1182    0.3316   -1.1291 C   0  0  0  0  0  0  0  0  0  0  0  0
    4.8344   -0.3604   -1.1538 N   0  0  0  0  0  0  0  0  0  0  0  0
    3.6527    0.1894   -1.4899 C   0  0  0  0  0  0  0  0  0  0  0  0
    2.6737   -0.7558   -1.2781 C   0  0  0  0  0  0  0  0  0  0  0  0
    1.2331   -0.5768   -1.4905 C   0  0  0  0  0  0  0  0  0  0  0  0
    0.8035   -0.5271   -2.6718 O   0  0  0  0  0  0  0  0  0  0  0  0
    0.3266   -0.3716   -0.3855 N   0  0  0  0  0  0  0  0  0  0  0  0
    0.6069   -0.9691    0.9388 C   0  0  0  0  0  0  0  0  0  0  0  0
    0.3472   -2.4948    1.0360 C   0  0  0  0  0  0  0  0  0  0  0  0
   -0.3918   -3.1634   -0.1371 C   0  0  0  0  0  0  0  0  0  0  0  0
   -1.6921   -2.5211   -0.4202 N   0  0  0  0  0  0  0  0  0  0  0  0
   -2.0911   -2.8046   -1.8135 C   0  0  0  0  0  0  0  0  0  0  0  0
   -2.7541   -2.9502    0.5201 C   0  0  0  0  0  0  0  0  0  0  0  0
   -3.7482   -1.8018    0.7671 C   0  0  0  0  0  0  0  0  0  0  0  0
   -3.2021   -0.7222    1.7332 C   0  0  0  0  0  0  0  0  0  0  0  0
   -3.2559    0.6264    1.1433 N   0  0  0  0  0  0  0  0  0  0  0  0
   -4.5191    1.1775    0.7133 C   0  0  0  0  0  0  0  0  0  0  0  0
   -5.5982    0.6381    1.0814 O   0  0  0  0  0  0  0  0  0  0  0  0
   -4.5838    2.3511   -0.2266 C   0  0  0  0  0  0  0  0  0  0  0  0
   -4.8050    1.8735   -1.6574 C   0  0  0  0  0  0  0  0  0  0  0  0
   -2.1501    1.5206    1.3718 C   0  0  0  0  0  0  0  0  0  0  0  0
   -2.2347    2.4489    2.4217 C   0  0  0  0  0  0  0  0  0  0  0  0
   -1.1969    3.3537    2.6555 C   0  0  0  0  0  0  0  0  0  0  0  0
   -1.2937    4.2461    3.6720 F   0  0  0  0  0  0  0  0  0  0  0  0
   -0.0632    3.3432    1.8404 C   0  0  0  0  0  0  0  0  0  0  0  0
    0.9450    4.2210    2.0693 F   0  0  0  0  0  0  0  0  0  0  0  0
    0.0341    2.4286    0.7888 C   0  0  0  0  0  0  0  0  0  0  0  0
   -0.9997    1.5078    0.5443 C   0  0  0  0  0  0  0  0  0  0  0  0
   -0.8371    0.5213   -0.5872 C   0  0  0  0  0  0  0  0  0  0  0  0
    3.3365   -1.8779   -0.8180 C   0  0  0  0  0  0  0  0  0  0  0  0
    4.6549   -1.6063   -0.7378 N   0  0  0  0  0  0  0  0  0  0  0  0
    7.6048    2.5300    1.1285 H   0  0  0  0  0  0  0  0  0  0  0  0
    7.6021    2.6415   -0.6758 H   0  0  0  0  0  0  0  0  0  0  0  0
    8.4160    1.2501    0.1491 H   0  0  0  0  0  0  0  0  0  0  0  0
    6.1991    0.4832    1.0376 H   0  0  0  0  0  0  0  0  0  0  0  0
    5.3916    1.8720    0.2211 H   0  0  0  0  0  0  0  0  0  0  0  0
    6.9432   -0.4141   -1.1792 H   0  0  0  0  0  0  0  0  0  0  0  0
    6.1983    0.9940   -2.0203 H   0  0  0  0  0  0  0  0  0  0  0  0
    3.5142    1.2072   -1.8318 H   0  0  0  0  0  0  0  0  0  0  0  0
    1.6581   -0.7521    1.2294 H   0  0  0  0  0  0  0  0  0  0  0  0
    0.0082   -0.4759    1.7274 H   0  0  0  0  0  0  0  0  0  0  0  0
    1.3232   -3.0111    1.1562 H   0  0  0  0  0  0  0  0  0  0  0  0
   -0.2030   -2.7006    1.9785 H   0  0  0  0  0  0  0  0  0  0  0  0
    0.2802   -3.1132   -1.0224 H   0  0  0  0  0  0  0  0  0  0  0  0
   -0.5328   -4.2442    0.0882 H   0  0  0  0  0  0  0  0  0  0  0  0
   -3.0963   -2.3847   -2.0357 H   0  0  0  0  0  0  0  0  0  0  0  0
   -2.1075   -3.9019   -2.0079 H   0  0  0  0  0  0  0  0  0  0  0  0
   -1.3792   -2.3217   -2.5167 H   0  0  0  0  0  0  0  0  0  0  0  0
   -2.3401   -3.2741    1.4991 H   0  0  0  0  0  0  0  0  0  0  0  0
   -3.3078   -3.8319    0.1232 H   0  0  0  0  0  0  0  0  0  0  0  0
   -4.6733   -2.2354    1.2070 H   0  0  0  0  0  0  0  0  0  0  0  0
   -4.0459   -1.3510   -0.2034 H   0  0  0  0  0  0  0  0  0  0  0  0
   -2.1645   -0.9622    2.0368 H   0  0  0  0  0  0  0  0  0  0  0  0
   -3.7984   -0.7302    2.6721 H   0  0  0  0  0  0  0  0  0  0  0  0
   -3.6559    2.9574   -0.1880 H   0  0  0  0  0  0  0  0  0  0  0  0
   -5.4270    3.0128    0.0698 H   0  0  0  0  0  0  0  0  0  0  0  0
   -3.9941    1.1756   -1.9686 H   0  0  0  0  0  0  0  0  0  0  0  0
   -4.8066    2.7455   -2.3455 H   0  0  0  0  0  0  0  0  0  0  0  0
   -5.7852    1.3542   -1.7392 H   0  0  0  0  0  0  0  0  0  0  0  0
   -3.1118    2.4682    3.0575 H   0  0  0  0  0  0  0  0  0  0  0  0
    0.9213    2.4302    0.1655 H   0  0  0  0  0  0  0  0  0  0  0  0
   -0.7150    1.1161   -1.5191 H   0  0  0  0  0  0  0  0  0  0  0  0
   -1.7530   -0.0767   -0.7403 H   0  0  0  0  0  0  0  0  0  0  0  0
    2.8975   -2.8330   -0.5663 H   0  0  0  0  0  0  0  0  0  0  0  0
  1  2  1  0
  2  3  1  0
  3  4  1  0
  4  5  1  0
  5  6  2  0
  6  7  1  0
  7  8  2  0
  7  9  1  0
  9 10  1  0
 10 11  1  0
 11 12  1  0
 12 13  1  0
 13 14  1  0
 13 15  1  0
 15 16  1  0
 16 17  1  0
 17 18  1  0
 18 19  1  0
 19 20  2  0
 19 21  1  0
 21 22  1  0
 18 23  1  0
 23 24  2  0
 24 25  1  0
 25 26  1  0
 25 27  2  0
 27 28  1  0
 27 29  1  0
 29 30  2  0
 30 31  1  0
  6 32  1  0
 32 33  2  0
 33  4  1  0
 31  9  1  0
 30 23  1  0
  1 34  1  0
  1 35  1  0
  1 36  1  0
  2 37  1  0
  2 38  1  0
  3 39  1  0
  3 40  1  0
  5 41  1  0
 10 42  1  0
 10 43  1  0
 11 44  1  0
 11 45  1  0
 12 46  1  0
 12 47  1  0
 14 48  1  0
 14 49  1  0
 14 50  1  0
 15 51  1  0
 15 52  1  0
 16 53  1  0
 16 54  1  0
 17 55  1  0
 17 56  1  0
 21 57  1  0
 21 58  1  0
 22 59  1  0
 22 60  1  0
 22 61  1  0
 24 62  1  0
 29 63  1  0
 31 64  1  0
 31 65  1  0
 32 66  1  0
M  END
$$$$
