
     RDKit          3D

 71 73  0  0  0  0  0  0  0  0999 V2000
   -5.7385   -3.3357    0.1220 C   0  0  0  0  0  0  0  0  0  0  0  0
   -4.4030   -2.8880    0.1743 O   0  0  0  0  0  0  0  0  0  0  0  0
   -4.1170   -2.1110   -0.9743 C   0  0  0  0  0  0  0  0  0  0  0  0
   -2.6546   -1.5654   -0.9111 C   0  0  0  0  0  0  0  0  0  0  0  0
   -1.7063   -2.8149   -0.7699 C   0  0  0  0  0  0  0  0  0  0  0  0
   -0.1903   -2.6732   -1.0624 C   0  0  0  0  0  0  0  0  0  0  0  0
    0.6371   -1.9845    0.0465 C   0  0  0  0  0  0  0  0  0  0  0  0
    1.1890   -0.6285   -0.4149 C   0  0  0  0  0  0  0  0  0  0  0  0
    1.8131    0.1013    0.7009 N   0  0  0  0  0  0  0  0  0  0  0  0
    3.0707   -0.3319    1.2658 C   0  0  0  0  0  0  0  0  0  0  0  0
    3.2823   -0.1755    2.5002 O   0  0  0  0  0  0  0  0  0  0  0  0
    4.1142   -1.0094    0.4088 C   0  0  0  0  0  0  0  0  0  0  0  0
    5.5362   -0.8498    0.9694 C   0  0  0  0  0  0  0  0  0  0  0  0
    6.5221   -1.5691    0.1315 N   0  0  0  0  0  0  0  0  0  0  0  0
    7.7457   -1.8343    0.9111 C   0  0  0  0  0  0  0  0  0  0  0  0
    6.8779   -0.7845   -1.0665 C   0  0  0  0  0  0  0  0  0  0  0  0
    1.1419    1.2955    1.2450 C   0  0  0  0  0  0  0  0  0  0  0  0
    1.0180    2.3989    0.1782 C   0  0  0  0  0  0  0  0  0  0  0  0
   -0.3514    2.6013   -0.1823 O   0  0  0  0  0  0  0  0  0  0  0  0
   -1.2547    3.4485    0.4878 C   0  0  0  0  0  0  0  0  0  0  0  0
   -0.8901    4.1668    1.6455 C   0  0  0  0  0  0  0  0  0  0  0  0
   -1.7794    5.0754    2.2242 C   0  0  0  0  0  0  0  0  0  0  0  0
   -3.0378    5.2799    1.6606 C   0  0  0  0  0  0  0  0  0  0  0  0
   -3.4266    4.5512    0.5354 C   0  0  0  0  0  0  0  0  0  0  0  0
   -2.5548    3.6129   -0.0371 C   0  0  0  0  0  0  0  0  0  0  0  0
   -3.0331    2.7818   -1.1610 C   0  0  0  0  0  0  0  0  0  0  0  0
   -3.5042    3.3521   -2.1840 O   0  0  0  0  0  0  0  0  0  0  0  0
   -3.0110    1.3400   -1.0850 N   0  0  0  0  0  0  0  0  0  0  0  0
   -3.1478    0.5498   -2.3159 C   0  0  0  0  0  0  0  0  0  0  0  0
   -2.3553   -0.7631   -2.2124 C   0  0  0  0  0  0  0  0  0  0  0  0
   -3.3020    0.6736    0.1931 C   0  0  0  0  0  0  0  0  0  0  0  0
   -2.5030   -0.6269    0.3196 C   0  0  0  0  0  0  0  0  0  0  0  0
   -5.9334   -3.9316   -0.7986 H   0  0  0  0  0  0  0  0  0  0  0  0
   -6.4487   -2.4818    0.1883 H   0  0  0  0  0  0  0  0  0  0  0  0
   -5.9239   -3.9953    0.9949 H   0  0  0  0  0  0  0  0  0  0  0  0
   -4.8452   -1.2773   -1.0630 H   0  0  0  0  0  0  0  0  0  0  0  0
   -4.2262   -2.7370   -1.8915 H   0  0  0  0  0  0  0  0  0  0  0  0
   -1.8239   -3.2566    0.2451 H   0  0  0  0  0  0  0  0  0  0  0  0
   -2.0688   -3.5967   -1.4747 H   0  0  0  0  0  0  0  0  0  0  0  0
   -0.0053   -2.2316   -2.0623 H   0  0  0  0  0  0  0  0  0  0  0  0
    0.2034   -3.7103   -1.1550 H   0  0  0  0  0  0  0  0  0  0  0  0
    1.4989   -2.6352    0.3050 H   0  0  0  0  0  0  0  0  0  0  0  0
    0.0507   -1.8757    0.9824 H   0  0  0  0  0  0  0  0  0  0  0  0
    0.3680   -0.0247   -0.8443 H   0  0  0  0  0  0  0  0  0  0  0  0
    1.9148   -0.7724   -1.2410 H   0  0  0  0  0  0  0  0  0  0  0  0
    3.8719   -2.0888    0.3240 H   0  0  0  0  0  0  0  0  0  0  0  0
    4.0761   -0.5590   -0.6005 H   0  0  0  0  0  0  0  0  0  0  0  0
    5.7930    0.2308    1.0576 H   0  0  0  0  0  0  0  0  0  0  0  0
    5.5340   -1.2747    1.9987 H   0  0  0  0  0  0  0  0  0  0  0  0
    8.4921   -2.3761    0.2894 H   0  0  0  0  0  0  0  0  0  0  0  0
    8.1988   -0.8860    1.2819 H   0  0  0  0  0  0  0  0  0  0  0  0
    7.5148   -2.4886    1.7803 H   0  0  0  0  0  0  0  0  0  0  0  0
    7.6322   -1.3300   -1.6722 H   0  0  0  0  0  0  0  0  0  0  0  0
    7.2926    0.2119   -0.7937 H   0  0  0  0  0  0  0  0  0  0  0  0
    5.9974   -0.6442   -1.7239 H   0  0  0  0  0  0  0  0  0  0  0  0
    1.7028    1.7067    2.1141 H   0  0  0  0  0  0  0  0  0  0  0  0
    0.1401    1.0076    1.6304 H   0  0  0  0  0  0  0  0  0  0  0  0
    1.5807    2.1183   -0.7369 H   0  0  0  0  0  0  0  0  0  0  0  0
    1.4826    3.3448    0.5251 H   0  0  0  0  0  0  0  0  0  0  0  0
    0.0767    4.0358    2.1090 H   0  0  0  0  0  0  0  0  0  0  0  0
   -1.4863    5.6291    3.1071 H   0  0  0  0  0  0  0  0  0  0  0  0
   -3.7203    5.9916    2.1055 H   0  0  0  0  0  0  0  0  0  0  0  0
   -4.4219    4.6930    0.1315 H   0  0  0  0  0  0  0  0  0  0  0  0
   -2.7498    1.1188   -3.1853 H   0  0  0  0  0  0  0  0  0  0  0  0
   -4.2219    0.3505   -2.5174 H   0  0  0  0  0  0  0  0  0  0  0  0
   -2.5635   -1.3903   -3.1071 H   0  0  0  0  0  0  0  0  0  0  0  0
   -1.2890   -0.4762   -2.2599 H   0  0  0  0  0  0  0  0  0  0  0  0
   -3.0324    1.3178    1.0546 H   0  0  0  0  0  0  0  0  0  0  0  0
   -4.3917    0.4784    0.2741 H   0  0  0  0  0  0  0  0  0  0  0  0
   -1.4517   -0.3284    0.4436 H   0  0  0  0  0  0  0  0  0  0  0  0
   -2.8048   -1.1503    1.2532 H   0  0  0  0  0  0  0  0  0  0  0  0
  1  2  1  0
  2  3  1  0
  3  4  1  0
  4  5  1  0
  5  6  1  0
  6  7  1  0
  7  8  1  0
  8  9  1  0
  9 10  1  0
 10 11  2  0
 10 12  1  0
 12 13  1  0
 13 14  1  0
 14 15  1  0
 14 16  1  0
  9 17  1  0
 17 18  1  0
 18 19  1  0
 19 20  1  0
 20 21  2  0
 21 22  1  0
 22 23  2  0
 23 24  1  0
 24 25  2  0
 25 26  1  0
 26 27  2  0
 26 28  1  0
 28 29  1  0
 29 30  1  0
 28 31  1  0
 31 32  1  0
 30  4  1  0
 32  4  1  0
 25 20  1  0
  1 33  1  0
  1 34  1  0
  1 35  1  0
  3 36  1  0
  3 37  1  0
  5 38  1  0
  5 39  1  0
  6 40  1  0
  6 41  1  0
  7 42  1  0
  7 43  1  0
  8 44  1  0
  8 45  1  0
 12 46  1  0
 12 47  1  0
 13 48  1  0
 13 49  1  0
 15 50  1  0
 15 51  1  0
 15 52  1  0
 16 53  1  0
 16 54  1  0
 16 55  1  0
 17 56  1  0
 17 57  1  0
 18 58  1  0
 18 59  1  0
 21 60  1  0
 22 61  1  0
 23 62  1  0
 24 63  1  0
 29 64  1  0
 29 65  1  0
 30 66  1  0
 30 67  1  0
 31 68  1  0
 31 69  1  0
 32 70  1  0
 32 71  1  0
M  END
$$$$
