
     RDKit          3D

 64 67  0  0  0  0  0  0  0  0999 V2000
   -3.5890    2.7038    2.5289 C   0  0  0  0  0  0  0  0  0  0  0  0
   -3.1490    1.2437    2.5752 C   0  0  0  0  0  0  0  0  0  0  0  0
   -1.9806    1.0051    1.6519 C   0  0  0  0  0  0  0  0  0  0  0  0
   -0.8180    1.2349    2.0857 O   0  0  0  0  0  0  0  0  0  0  0  0
   -2.1507    0.6182    0.2686 N   0  0  0  0  0  0  0  0  0  0  0  0
   -3.3271   -0.1626   -0.1770 C   0  0  0  0  0  0  0  0  0  0  0  0
   -3.5571   -1.4549    0.6612 C   0  0  0  0  0  0  0  0  0  0  0  0
   -3.1926   -2.7872   -0.0453 C   0  0  0  0  0  0  0  0  0  0  0  0
   -2.2533   -3.5922    0.7880 N   0  0  0  0  0  0  0  0  0  0  0  0
   -2.6567   -5.0119    0.8052 C   0  0  0  0  0  0  0  0  0  0  0  0
   -0.8403   -3.4664    0.3464 C   0  0  0  0  0  0  0  0  0  0  0  0
   -0.1824   -2.2343    0.9916 C   0  0  0  0  0  0  0  0  0  0  0  0
    1.1199   -1.7980    0.3054 C   0  0  0  0  0  0  0  0  0  0  0  0
    0.9692   -1.2731   -1.0720 N   0  0  0  0  0  0  0  0  0  0  0  0
    2.1551   -1.1912   -1.8795 C   0  0  0  0  0  0  0  0  0  0  0  0
    2.2049   -1.8202   -2.9741 O   0  0  0  0  0  0  0  0  0  0  0  0
    3.2850   -0.3353   -1.4664 C   0  0  0  0  0  0  0  0  0  0  0  0
    4.5517   -0.4566   -2.0624 C   0  0  0  0  0  0  0  0  0  0  0  0
    5.5616    0.3686   -1.6723 N   0  0  0  0  0  0  0  0  0  0  0  0
    5.3660    1.3205   -0.7208 C   0  0  0  0  0  0  0  0  0  0  0  0
    6.4052    2.1784   -0.3427 C   0  0  0  0  0  0  0  0  0  0  0  0
    6.1713    3.1716    0.6134 C   0  0  0  0  0  0  0  0  0  0  0  0
    4.9070    3.3034    1.2028 C   0  0  0  0  0  0  0  0  0  0  0  0
    3.8655    2.4450    0.8309 C   0  0  0  0  0  0  0  0  0  0  0  0
    4.0922    1.4543   -0.1307 C   0  0  0  0  0  0  0  0  0  0  0  0
    3.0898    0.6234   -0.5191 N   0  0  0  0  0  0  0  0  0  0  0  0
   -0.2987   -0.8091   -1.6642 C   0  0  0  0  0  0  0  0  0  0  0  0
   -0.4458    0.6888   -1.5891 C   0  0  0  0  0  0  0  0  0  0  0  0
    0.3355    1.4670   -2.4636 C   0  0  0  0  0  0  0  0  0  0  0  0
    0.2387    2.8587   -2.4626 C   0  0  0  0  0  0  0  0  0  0  0  0
    1.0137    3.5884   -3.3012 F   0  0  0  0  0  0  0  0  0  0  0  0
   -0.6497    3.4965   -1.5971 C   0  0  0  0  0  0  0  0  0  0  0  0
   -0.7396    4.8499   -1.5859 F   0  0  0  0  0  0  0  0  0  0  0  0
   -1.4343    2.7426   -0.7262 C   0  0  0  0  0  0  0  0  0  0  0  0
   -1.3548    1.3373   -0.7043 C   0  0  0  0  0  0  0  0  0  0  0  0
   -2.7467    3.3747    2.8066 H   0  0  0  0  0  0  0  0  0  0  0  0
   -3.9542    2.9634    1.5103 H   0  0  0  0  0  0  0  0  0  0  0  0
   -4.4176    2.8620    3.2522 H   0  0  0  0  0  0  0  0  0  0  0  0
   -2.8485    0.9874    3.6149 H   0  0  0  0  0  0  0  0  0  0  0  0
   -4.0178    0.6105    2.3150 H   0  0  0  0  0  0  0  0  0  0  0  0
   -4.2249    0.4881   -0.0891 H   0  0  0  0  0  0  0  0  0  0  0  0
   -3.2521   -0.4047   -1.2592 H   0  0  0  0  0  0  0  0  0  0  0  0
   -3.0511   -1.3995    1.6464 H   0  0  0  0  0  0  0  0  0  0  0  0
   -4.6381   -1.4944    0.9199 H   0  0  0  0  0  0  0  0  0  0  0  0
   -4.1541   -3.3329   -0.1996 H   0  0  0  0  0  0  0  0  0  0  0  0
   -2.8216   -2.6506   -1.0808 H   0  0  0  0  0  0  0  0  0  0  0  0
   -2.5892   -5.4546   -0.2130 H   0  0  0  0  0  0  0  0  0  0  0  0
   -3.6965   -5.1151    1.1854 H   0  0  0  0  0  0  0  0  0  0  0  0
   -2.0129   -5.5930    1.5011 H   0  0  0  0  0  0  0  0  0  0  0  0
   -0.2387   -4.3464    0.6723 H   0  0  0  0  0  0  0  0  0  0  0  0
   -0.7577   -3.4619   -0.7621 H   0  0  0  0  0  0  0  0  0  0  0  0
   -0.8643   -1.3799    1.0265 H   0  0  0  0  0  0  0  0  0  0  0  0
    0.0468   -2.4792    2.0514 H   0  0  0  0  0  0  0  0  0  0  0  0
    1.5859   -1.0102    0.9358 H   0  0  0  0  0  0  0  0  0  0  0  0
    1.8177   -2.6668    0.2989 H   0  0  0  0  0  0  0  0  0  0  0  0
    4.7396   -1.2038   -2.8246 H   0  0  0  0  0  0  0  0  0  0  0  0
    7.3856    2.0876   -0.7989 H   0  0  0  0  0  0  0  0  0  0  0  0
    6.9733    3.8366    0.9043 H   0  0  0  0  0  0  0  0  0  0  0  0
    4.7306    4.0778    1.9390 H   0  0  0  0  0  0  0  0  0  0  0  0
    2.8896    2.5545    1.2884 H   0  0  0  0  0  0  0  0  0  0  0  0
   -0.3521   -1.1260   -2.7274 H   0  0  0  0  0  0  0  0  0  0  0  0
   -1.1537   -1.2844   -1.1974 H   0  0  0  0  0  0  0  0  0  0  0  0
    1.0190    0.9927   -3.1572 H   0  0  0  0  0  0  0  0  0  0  0  0
   -2.1086    3.2607   -0.0577 H   0  0  0  0  0  0  0  0  0  0  0  0
  1  2  1  0
  2  3  1  0
  3  4  2  0
  3  5  1  0
  5  6  1  0
  6  7  1  0
  7  8  1  0
  8  9  1  0
  9 10  1  0
  9 11  1  0
 11 12  1  0
 12 13  1  0
 13 14  1  0
 14 15  1  0
 15 16  2  0
 15 17  1  0
 17 18  2  0
 18 19  1  0
 19 20  2  0
 20 21  1  0
 21 22  2  0
 22 23  1  0
 23 24  2  0
 24 25  1  0
 25 26  2  0
 14 27  1  0
 27 28  1  0
 28 29  2  0
 29 30  1  0
 30 31  1  0
 30 32  2  0
 32 33  1  0
 32 34  1  0
 34 35  2  0
 35  5  1  0
 26 17  1  0
 35 28  1  0
 25 20  1  0
  1 36  1  0
  1 37  1  0
  1 38  1  0
  2 39  1  0
  2 40  1  0
  6 41  1  0
  6 42  1  0
  7 43  1  0
  7 44  1  0
  8 45  1  0
  8 46  1  0
 10 47  1  0
 10 48  1  0
 10 49  1  0
 11 50  1  0
 11 51  1  0
 12 52  1  0
 12 53  1  0
 13 54  1  0
 13 55  1  0
 18 56  1  0
 21 57  1  0
 22 58  1  0
 23 59  1  0
 24 60  1  0
 27 61  1  0
 27 62  1  0
 29 63  1  0
 34 64  1  0
M  END
$$$$
