
     RDKit          3D

 79 82  0  0  0  0  0  0  0  0999 V2000
   -7.7799   -1.5924   -0.4207 C   0  0  0  0  0  0  0  0  0  0  0  0
   -8.0751   -0.5202    0.6382 C   0  0  0  0  0  0  0  0  0  0  0  0
   -9.5894   -0.3582    0.8224 C   0  0  0  0  0  0  0  0  0  0  0  0
   -7.4346    0.8320    0.2523 C   0  0  0  0  0  0  0  0  0  0  0  0
   -5.9604    0.7137    0.1557 N   0  0  0  0  0  0  0  0  0  0  0  0
   -5.3787    1.6603   -0.8330 C   0  0  0  0  0  0  0  0  0  0  0  0
   -4.3835    0.9225   -1.7361 C   0  0  0  0  0  0  0  0  0  0  0  0
   -3.9626    1.7482   -2.8063 O   0  0  0  0  0  0  0  0  0  0  0  0
   -2.8326    2.5287   -2.4497 C   0  0  0  0  0  0  0  0  0  0  0  0
   -1.5239    1.7530   -2.6441 C   0  0  0  0  0  0  0  0  0  0  0  0
   -1.0982    1.2022   -1.3975 O   0  0  0  0  0  0  0  0  0  0  0  0
    0.0924    0.4841   -1.2088 C   0  0  0  0  0  0  0  0  0  0  0  0
    0.8652    0.0367   -2.2952 C   0  0  0  0  0  0  0  0  0  0  0  0
    2.0548   -0.6611   -2.0791 C   0  0  0  0  0  0  0  0  0  0  0  0
    2.5054   -0.9216   -0.7746 C   0  0  0  0  0  0  0  0  0  0  0  0
    3.8042   -1.6066   -0.5707 C   0  0  0  0  0  0  0  0  0  0  0  0
    4.2246   -2.4055   -1.4528 O   0  0  0  0  0  0  0  0  0  0  0  0
    4.6127   -1.3384    0.5876 N   0  0  0  0  0  0  0  0  0  0  0  0
    6.0032   -1.7799    0.6911 C   0  0  0  0  0  0  0  0  0  0  0  0
    6.9189   -0.9666   -0.2555 C   0  0  0  0  0  0  0  0  0  0  0  0
    8.3725   -1.4811   -0.2239 C   0  0  0  0  0  0  0  0  0  0  0  0
    9.1188   -1.0237    1.0375 C   0  0  0  0  0  0  0  0  0  0  0  0
    9.0776    0.4466    1.1569 N   0  0  0  0  0  0  0  0  0  0  0  0
    9.8653    0.8782    2.3220 C   0  0  0  0  0  0  0  0  0  0  0  0
    7.6843    0.9135    1.2888 C   0  0  0  0  0  0  0  0  0  0  0  0
    6.8817    0.5509    0.0332 C   0  0  0  0  0  0  0  0  0  0  0  0
    1.7176   -0.5062    0.3122 C   0  0  0  0  0  0  0  0  0  0  0  0
    0.5206    0.2037    0.1057 C   0  0  0  0  0  0  0  0  0  0  0  0
   -0.2717    0.6910    1.2974 C   0  0  0  0  0  0  0  0  0  0  0  0
   -1.5975   -0.0158    1.4143 C   0  0  0  0  0  0  0  0  0  0  0  0
   -1.6475   -1.4134    1.5420 C   0  0  0  0  0  0  0  0  0  0  0  0
   -2.8773   -2.0682    1.6427 C   0  0  0  0  0  0  0  0  0  0  0  0
   -4.0660   -1.3356    1.6275 C   0  0  0  0  0  0  0  0  0  0  0  0
   -4.0331    0.0630    1.5293 C   0  0  0  0  0  0  0  0  0  0  0  0
   -2.7953    0.7188    1.4260 C   0  0  0  0  0  0  0  0  0  0  0  0
   -5.3198    0.8407    1.4889 C   0  0  0  0  0  0  0  0  0  0  0  0
   -8.2371   -2.5585   -0.1234 H   0  0  0  0  0  0  0  0  0  0  0  0
   -8.1843   -1.2936   -1.4107 H   0  0  0  0  0  0  0  0  0  0  0  0
   -6.6848   -1.7487   -0.5170 H   0  0  0  0  0  0  0  0  0  0  0  0
   -7.6613   -0.8710    1.6074 H   0  0  0  0  0  0  0  0  0  0  0  0
   -9.7980    0.3835    1.6216 H   0  0  0  0  0  0  0  0  0  0  0  0
  -10.0470   -1.3265    1.1222 H   0  0  0  0  0  0  0  0  0  0  0  0
  -10.0658   -0.0108   -0.1191 H   0  0  0  0  0  0  0  0  0  0  0  0
   -7.7154    1.6178    0.9880 H   0  0  0  0  0  0  0  0  0  0  0  0
   -7.8833    1.1318   -0.7194 H   0  0  0  0  0  0  0  0  0  0  0  0
   -6.1491    2.1125   -1.4957 H   0  0  0  0  0  0  0  0  0  0  0  0
   -4.8765    2.5204   -0.3392 H   0  0  0  0  0  0  0  0  0  0  0  0
   -4.8980    0.0411   -2.1727 H   0  0  0  0  0  0  0  0  0  0  0  0
   -3.5341    0.5186   -1.1510 H   0  0  0  0  0  0  0  0  0  0  0  0
   -2.8162    3.4069   -3.1295 H   0  0  0  0  0  0  0  0  0  0  0  0
   -2.8978    2.9462   -1.4192 H   0  0  0  0  0  0  0  0  0  0  0  0
   -0.7407    2.4518   -3.0085 H   0  0  0  0  0  0  0  0  0  0  0  0
   -1.6695    0.9461   -3.3939 H   0  0  0  0  0  0  0  0  0  0  0  0
    0.5591    0.2271   -3.3152 H   0  0  0  0  0  0  0  0  0  0  0  0
    2.6381   -0.9761   -2.9353 H   0  0  0  0  0  0  0  0  0  0  0  0
    4.2449   -0.7353    1.3577 H   0  0  0  0  0  0  0  0  0  0  0  0
    6.3379   -1.6702    1.7432 H   0  0  0  0  0  0  0  0  0  0  0  0
    6.0615   -2.8620    0.4428 H   0  0  0  0  0  0  0  0  0  0  0  0
    6.5435   -1.1174   -1.2915 H   0  0  0  0  0  0  0  0  0  0  0  0
    8.9128   -1.0883   -1.1142 H   0  0  0  0  0  0  0  0  0  0  0  0
    8.3936   -2.5913   -0.2897 H   0  0  0  0  0  0  0  0  0  0  0  0
   10.1746   -1.3619    0.9486 H   0  0  0  0  0  0  0  0  0  0  0  0
    8.6825   -1.5120    1.9376 H   0  0  0  0  0  0  0  0  0  0  0  0
    9.8473    1.9857    2.4085 H   0  0  0  0  0  0  0  0  0  0  0  0
    9.4695    0.4366    3.2623 H   0  0  0  0  0  0  0  0  0  0  0  0
   10.9277    0.5770    2.1962 H   0  0  0  0  0  0  0  0  0  0  0  0
    7.2018    0.4783    2.1917 H   0  0  0  0  0  0  0  0  0  0  0  0
    7.6629    2.0208    1.3973 H   0  0  0  0  0  0  0  0  0  0  0  0
    5.8346    0.9092    0.1392 H   0  0  0  0  0  0  0  0  0  0  0  0
    7.3234    1.0905   -0.8344 H   0  0  0  0  0  0  0  0  0  0  0  0
    2.0239   -0.7376    1.3248 H   0  0  0  0  0  0  0  0  0  0  0  0
    0.2916    0.5359    2.2424 H   0  0  0  0  0  0  0  0  0  0  0  0
   -0.4157    1.7893    1.1967 H   0  0  0  0  0  0  0  0  0  0  0  0
   -0.7345   -1.9953    1.5573 H   0  0  0  0  0  0  0  0  0  0  0  0
   -2.9091   -3.1472    1.7312 H   0  0  0  0  0  0  0  0  0  0  0  0
   -5.0127   -1.8573    1.6970 H   0  0  0  0  0  0  0  0  0  0  0  0
   -2.7671    1.7982    1.3313 H   0  0  0  0  0  0  0  0  0  0  0  0
   -5.9710    0.4363    2.2930 H   0  0  0  0  0  0  0  0  0  0  0  0
   -5.1547    1.9063    1.7645 H   0  0  0  0  0  0  0  0  0  0  0  0
  1  2  1  0
  2  3  1  0
  2  4  1  0
  4  5  1  0
  5  6  1  0
  6  7  1  0
  7  8  1  0
  8  9  1  0
  9 10  1  0
 10 11  1  0
 11 12  1  0
 12 13  2  0
 13 14  1  0
 14 15  2  0
 15 16  1  0
 16 17  2  0
 16 18  1  0
 18 19  1  0
 19 20  1  0
 20 21  1  0
 21 22  1  0
 22 23  1  0
 23 24  1  0
 23 25  1  0
 25 26  1  0
 15 27  1  0
 27 28  2  0
 28 29  1  0
 29 30  1  0
 30 31  1  0
 31 32  2  0
 32 33  1  0
 33 34  2  0
 34 35  1  0
 34 36  1  0
 36  5  1  0
 28 12  1  0
 35 30  2  0
 26 20  1  0
  1 37  1  0
  1 38  1  0
  1 39  1  0
  2 40  1  0
  3 41  1  0
  3 42  1  0
  3 43  1  0
  4 44  1  0
  4 45  1  0
  6 46  1  0
  6 47  1  0
  7 48  1  0
  7 49  1  0
  9 50  1  0
  9 51  1  0
 10 52  1  0
 10 53  1  0
 13 54  1  0
 14 55  1  0
 18 56  1  0
 19 57  1  0
 19 58  1  0
 20 59  1  0
 21 60  1  0
 21 61  1  0
 22 62  1  0
 22 63  1  0
 24 64  1  0
 24 65  1  0
 24 66  1  0
 25 67  1  0
 25 68  1  0
 26 69  1  0
 26 70  1  0
 27 71  1  0
 29 72  1  0
 29 73  1  0
 31 74  1  0
 32 75  1  0
 33 76  1  0
 35 77  1  0
 36 78  1  0
 36 79  1  0
M  END
$$$$
