
     RDKit          3D

 84 86  0  0  0  0  0  0  0  0999 V2000
   10.9100   -0.4247   -0.1967 C   0  0  0  0  0  0  0  0  0  0  0  0
    9.7909   -0.7559    0.5934 O   0  0  0  0  0  0  0  0  0  0  0  0
    8.8347    0.2897    0.5588 C   0  0  0  0  0  0  0  0  0  0  0  0
    7.6840   -0.0956   -0.3772 C   0  0  0  0  0  0  0  0  0  0  0  0
    6.6967    0.9996   -0.4732 N   0  0  0  0  0  0  0  0  0  0  0  0
    5.7684    1.0252    0.6907 C   0  0  0  0  0  0  0  0  0  0  0  0
    4.3792    0.4575    0.3647 C   0  0  0  0  0  0  0  0  0  0  0  0
    3.8034    1.1694   -0.7851 N   0  0  0  0  0  0  0  0  0  0  0  0
    2.3926    1.4391   -0.8519 C   0  0  0  0  0  0  0  0  0  0  0  0
    2.0015    2.5804   -1.2145 O   0  0  0  0  0  0  0  0  0  0  0  0
    1.3903    0.4130   -0.4866 C   0  0  0  0  0  0  0  0  0  0  0  0
    1.6677   -0.9413   -0.6744 C   0  0  0  0  0  0  0  0  0  0  0  0
    0.7253   -1.9074   -0.3414 C   0  0  0  0  0  0  0  0  0  0  0  0
   -0.5447   -1.5589    0.1562 C   0  0  0  0  0  0  0  0  0  0  0  0
   -0.8124   -0.1764    0.4161 C   0  0  0  0  0  0  0  0  0  0  0  0
    0.1495    0.7857    0.0459 C   0  0  0  0  0  0  0  0  0  0  0  0
   -2.0112    0.3349    1.2040 C   0  0  0  0  0  0  0  0  0  0  0  0
   -3.2785    0.5818    0.4454 N   0  0  0  0  0  0  0  0  0  0  0  0
   -3.8341    1.9498    0.6203 C   0  0  0  0  0  0  0  0  0  0  0  0
   -5.1251    1.8780    1.4576 C   0  0  0  0  0  0  0  0  0  0  0  0
   -5.6193    3.2314    2.0219 C   0  0  0  0  0  0  0  0  0  0  0  0
   -5.7163    4.3203    0.9441 C   0  0  0  0  0  0  0  0  0  0  0  0
   -4.7733    3.7036    3.2131 C   0  0  0  0  0  0  0  0  0  0  0  0
   -3.3468    0.1000   -0.9504 C   0  0  0  0  0  0  0  0  0  0  0  0
   -4.7944   -0.2482   -1.3664 C   0  0  0  0  0  0  0  0  0  0  0  0
   -5.4747   -1.2985   -0.4612 C   0  0  0  0  0  0  0  0  0  0  0  0
   -4.8428   -2.7060   -0.5821 C   0  0  0  0  0  0  0  0  0  0  0  0
   -4.5747   -3.4227    0.7624 C   0  0  0  0  0  0  0  0  0  0  0  0
   -3.6186   -2.7000    1.7350 C   0  0  0  0  0  0  0  0  0  0  0  0
   -2.1011   -2.9817    1.5807 C   0  0  0  0  0  0  0  0  0  0  0  0
   -1.5451   -2.6113    0.2672 N   0  0  0  0  0  0  0  0  0  0  0  0
   -1.6255   -3.5919   -0.8071 C   0  0  0  0  0  0  0  0  0  0  0  0
   -1.3823   -3.2184   -2.2426 C   0  0  0  0  0  0  0  0  0  0  0  0
   -1.8784   -4.7990   -0.5465 O   0  0  0  0  0  0  0  0  0  0  0  0
    4.7009    1.7506   -1.7862 C   0  0  0  0  0  0  0  0  0  0  0  0
    6.0238    0.9821   -1.7968 C   0  0  0  0  0  0  0  0  0  0  0  0
   11.4719    0.4256    0.2528 H   0  0  0  0  0  0  0  0  0  0  0  0
   10.6116   -0.1873   -1.2437 H   0  0  0  0  0  0  0  0  0  0  0  0
   11.5913   -1.3007   -0.2312 H   0  0  0  0  0  0  0  0  0  0  0  0
    8.4460    0.4219    1.5913 H   0  0  0  0  0  0  0  0  0  0  0  0
    9.2525    1.2814    0.2594 H   0  0  0  0  0  0  0  0  0  0  0  0
    7.2015   -1.0352   -0.0302 H   0  0  0  0  0  0  0  0  0  0  0  0
    8.1293   -0.3069   -1.3762 H   0  0  0  0  0  0  0  0  0  0  0  0
    6.1721    0.4754    1.5663 H   0  0  0  0  0  0  0  0  0  0  0  0
    5.6504    2.0818    1.0135 H   0  0  0  0  0  0  0  0  0  0  0  0
    3.7255    0.5727    1.2571 H   0  0  0  0  0  0  0  0  0  0  0  0
    4.4704   -0.6233    0.1285 H   0  0  0  0  0  0  0  0  0  0  0  0
    2.6039   -1.2577   -1.1158 H   0  0  0  0  0  0  0  0  0  0  0  0
    0.9807   -2.9482   -0.5116 H   0  0  0  0  0  0  0  0  0  0  0  0
   -0.0519    1.8366    0.2197 H   0  0  0  0  0  0  0  0  0  0  0  0
   -1.6866    1.2438    1.7550 H   0  0  0  0  0  0  0  0  0  0  0  0
   -2.2062   -0.3326    2.0540 H   0  0  0  0  0  0  0  0  0  0  0  0
   -3.1124    2.6451    1.0965 H   0  0  0  0  0  0  0  0  0  0  0  0
   -4.0755    2.4164   -0.3601 H   0  0  0  0  0  0  0  0  0  0  0  0
   -4.9825    1.1662    2.3016 H   0  0  0  0  0  0  0  0  0  0  0  0
   -5.9301    1.4569    0.8183 H   0  0  0  0  0  0  0  0  0  0  0  0
   -6.6507    3.0590    2.4059 H   0  0  0  0  0  0  0  0  0  0  0  0
   -4.7080    4.6404    0.6016 H   0  0  0  0  0  0  0  0  0  0  0  0
   -6.2903    3.9442    0.0711 H   0  0  0  0  0  0  0  0  0  0  0  0
   -6.2432    5.2110    1.3498 H   0  0  0  0  0  0  0  0  0  0  0  0
   -5.2273    4.6104    3.6634 H   0  0  0  0  0  0  0  0  0  0  0  0
   -4.7360    2.9139    3.9933 H   0  0  0  0  0  0  0  0  0  0  0  0
   -3.7339    3.9489    2.9023 H   0  0  0  0  0  0  0  0  0  0  0  0
   -2.9234    0.8570   -1.6475 H   0  0  0  0  0  0  0  0  0  0  0  0
   -2.7520   -0.8097   -1.0889 H   0  0  0  0  0  0  0  0  0  0  0  0
   -4.7845   -0.6231   -2.4142 H   0  0  0  0  0  0  0  0  0  0  0  0
   -5.4136    0.6738   -1.3744 H   0  0  0  0  0  0  0  0  0  0  0  0
   -5.5103   -0.9357    0.5824 H   0  0  0  0  0  0  0  0  0  0  0  0
   -6.5405   -1.3740   -0.7705 H   0  0  0  0  0  0  0  0  0  0  0  0
   -3.9333   -2.6802   -1.1973 H   0  0  0  0  0  0  0  0  0  0  0  0
   -5.5432   -3.3459   -1.1601 H   0  0  0  0  0  0  0  0  0  0  0  0
   -4.2058   -4.4516    0.5662 H   0  0  0  0  0  0  0  0  0  0  0  0
   -5.5564   -3.5386    1.2713 H   0  0  0  0  0  0  0  0  0  0  0  0
   -3.8342   -1.6260    1.7430 H   0  0  0  0  0  0  0  0  0  0  0  0
   -3.8883   -3.0410    2.7603 H   0  0  0  0  0  0  0  0  0  0  0  0
   -1.9087   -4.0569    1.7927 H   0  0  0  0  0  0  0  0  0  0  0  0
   -1.5550   -2.4428    2.3885 H   0  0  0  0  0  0  0  0  0  0  0  0
   -1.4249   -2.1237   -2.3949 H   0  0  0  0  0  0  0  0  0  0  0  0
   -0.3888   -3.5865   -2.5638 H   0  0  0  0  0  0  0  0  0  0  0  0
   -2.1581   -3.6878   -2.8854 H   0  0  0  0  0  0  0  0  0  0  0  0
    4.2372    1.6839   -2.7963 H   0  0  0  0  0  0  0  0  0  0  0  0
    4.8826    2.8223   -1.5444 H   0  0  0  0  0  0  0  0  0  0  0  0
    6.6956    1.4383   -2.5537 H   0  0  0  0  0  0  0  0  0  0  0  0
    5.8132   -0.0655   -2.1171 H   0  0  0  0  0  0  0  0  0  0  0  0
  1  2  1  0
  2  3  1  0
  3  4  1  0
  4  5  1  0
  5  6  1  0
  6  7  1  0
  7  8  1  0
  8  9  1  0
  9 10  2  0
  9 11  1  0
 11 12  2  0
 12 13  1  0
 13 14  2  0
 14 15  1  0
 15 16  2  0
 15 17  1  0
 17 18  1  0
 18 19  1  0
 19 20  1  0
 20 21  1  0
 21 22  1  0
 21 23  1  0
 18 24  1  0
 24 25  1  0
 25 26  1  0
 26 27  1  0
 27 28  1  0
 28 29  1  0
 29 30  1  0
 30 31  1  0
 31 32  1  0
 32 33  1  0
 32 34  2  0
  8 35  1  0
 35 36  1  0
 36  5  1  0
 16 11  1  0
 31 14  1  0
  1 37  1  0
  1 38  1  0
  1 39  1  0
  3 40  1  0
  3 41  1  0
  4 42  1  0
  4 43  1  0
  6 44  1  0
  6 45  1  0
  7 46  1  0
  7 47  1  0
 12 48  1  0
 13 49  1  0
 16 50  1  0
 17 51  1  0
 17 52  1  0
 19 53  1  0
 19 54  1  0
 20 55  1  0
 20 56  1  0
 21 57  1  0
 22 58  1  0
 22 59  1  0
 22 60  1  0
 23 61  1  0
 23 62  1  0
 23 63  1  0
 24 64  1  0
 24 65  1  0
 25 66  1  0
 25 67  1  0
 26 68  1  0
 26 69  1  0
 27 70  1  0
 27 71  1  0
 28 72  1  0
 28 73  1  0
 29 74  1  0
 29 75  1  0
 30 76  1  0
 30 77  1  0
 33 78  1  0
 33 79  1  0
 33 80  1  0
 35 81  1  0
 35 82  1  0
 36 83  1  0
 36 84  1  0
M  END
$$$$
