
     RDKit          3D

 75 77  0  0  0  0  0  0  0  0999 V2000
   -5.3212   -3.9575    0.0989 C   0  0  0  0  0  0  0  0  0  0  0  0
   -4.3350   -3.4155    1.1529 C   0  0  0  0  0  0  0  0  0  0  0  0
   -4.9356   -3.5284    2.5602 C   0  0  0  0  0  0  0  0  0  0  0  0
   -3.8183   -1.9713    0.8596 C   0  0  0  0  0  0  0  0  0  0  0  0
   -3.2699   -1.8841   -0.5031 N   0  0  0  0  0  0  0  0  0  0  0  0
   -1.9794   -2.3838   -0.8936 C   0  0  0  0  0  0  0  0  0  0  0  0
   -1.8484   -2.8751   -2.0498 O   0  0  0  0  0  0  0  0  0  0  0  0
   -0.7467   -2.2370   -0.0322 C   0  0  0  0  0  0  0  0  0  0  0  0
    0.1008   -1.0416   -0.4934 C   0  0  0  0  0  0  0  0  0  0  0  0
    1.4434   -1.0625    0.1879 C   0  0  0  0  0  0  0  0  0  0  0  0
    1.5583   -0.6135    1.3627 O   0  0  0  0  0  0  0  0  0  0  0  0
    2.5745   -1.6247   -0.4876 N   0  0  0  0  0  0  0  0  0  0  0  0
    3.9148   -1.6368    0.0929 C   0  0  0  0  0  0  0  0  0  0  0  0
    4.6386   -0.3099   -0.1738 C   0  0  0  0  0  0  0  0  0  0  0  0
    6.0889   -0.4666    0.1004 N   0  0  0  0  0  0  0  0  0  0  0  0
    6.7021    0.7133    0.7507 C   0  0  0  0  0  0  0  0  0  0  0  0
    6.9049    1.8818   -0.2270 C   0  0  0  0  0  0  0  0  0  0  0  0
    7.7519    1.4335   -1.4151 C   0  0  0  0  0  0  0  0  0  0  0  0
    7.1191    0.2173   -2.0919 C   0  0  0  0  0  0  0  0  0  0  0  0
    6.8622   -0.9164   -1.0813 C   0  0  0  0  0  0  0  0  0  0  0  0
   -0.5873    0.2284   -0.2307 N   0  0  0  0  0  0  0  0  0  0  0  0
   -0.1240    1.4622   -0.8016 C   0  0  0  0  0  0  0  0  0  0  0  0
    0.9236    1.4702   -1.5054 O   0  0  0  0  0  0  0  0  0  0  0  0
   -0.8179    2.7431   -0.5348 C   0  0  0  0  0  0  0  0  0  0  0  0
   -0.0420    3.8964   -0.3431 C   0  0  0  0  0  0  0  0  0  0  0  0
   -0.6459    5.1323   -0.1077 C   0  0  0  0  0  0  0  0  0  0  0  0
   -2.0343    5.2324   -0.0676 C   0  0  0  0  0  0  0  0  0  0  0  0
   -2.8264    4.1019   -0.2749 C   0  0  0  0  0  0  0  0  0  0  0  0
   -2.2300    2.8451   -0.5178 C   0  0  0  0  0  0  0  0  0  0  0  0
   -2.9996    1.7004   -0.7873 O   0  0  0  0  0  0  0  0  0  0  0  0
   -4.4290    1.6282   -0.7655 C   0  0  0  0  0  0  0  0  0  0  0  0
   -4.9551    1.6093    0.6692 C   0  0  0  0  0  0  0  0  0  0  0  0
   -4.4295    0.4546    1.4044 N   0  0  0  0  0  0  0  0  0  0  0  0
   -3.7037    0.6928    2.6601 C   0  0  0  0  0  0  0  0  0  0  0  0
   -4.8511   -0.8724    1.0457 C   0  0  0  0  0  0  0  0  0  0  0  0
   -6.0514   -1.0606    0.7060 O   0  0  0  0  0  0  0  0  0  0  0  0
   -5.5383   -5.0292    0.3050 H   0  0  0  0  0  0  0  0  0  0  0  0
   -4.8878   -3.8869   -0.9216 H   0  0  0  0  0  0  0  0  0  0  0  0
   -6.2875   -3.4119    0.1141 H   0  0  0  0  0  0  0  0  0  0  0  0
   -3.4449   -4.0855    1.1303 H   0  0  0  0  0  0  0  0  0  0  0  0
   -4.2372   -3.1061    3.3187 H   0  0  0  0  0  0  0  0  0  0  0  0
   -5.8906   -2.9777    2.6324 H   0  0  0  0  0  0  0  0  0  0  0  0
   -5.1181   -4.5966    2.8089 H   0  0  0  0  0  0  0  0  0  0  0  0
   -3.0070   -1.7759    1.5868 H   0  0  0  0  0  0  0  0  0  0  0  0
   -3.9416   -1.6807   -1.2742 H   0  0  0  0  0  0  0  0  0  0  0  0
   -0.9764   -2.1392    1.0459 H   0  0  0  0  0  0  0  0  0  0  0  0
   -0.1448   -3.1661   -0.1358 H   0  0  0  0  0  0  0  0  0  0  0  0
    0.2538   -1.1352   -1.5921 H   0  0  0  0  0  0  0  0  0  0  0  0
    2.4434   -2.0436   -1.4379 H   0  0  0  0  0  0  0  0  0  0  0  0
    4.4889   -2.4669   -0.3599 H   0  0  0  0  0  0  0  0  0  0  0  0
    3.8576   -1.8302    1.1824 H   0  0  0  0  0  0  0  0  0  0  0  0
    4.4566    0.0139   -1.2206 H   0  0  0  0  0  0  0  0  0  0  0  0
    4.1760    0.4642    0.4848 H   0  0  0  0  0  0  0  0  0  0  0  0
    7.6899    0.4193    1.1728 H   0  0  0  0  0  0  0  0  0  0  0  0
    6.0847    1.0445    1.6105 H   0  0  0  0  0  0  0  0  0  0  0  0
    5.9181    2.2562   -0.5900 H   0  0  0  0  0  0  0  0  0  0  0  0
    7.4223    2.7163    0.2976 H   0  0  0  0  0  0  0  0  0  0  0  0
    8.7760    1.1735   -1.0654 H   0  0  0  0  0  0  0  0  0  0  0  0
    7.8318    2.2660   -2.1507 H   0  0  0  0  0  0  0  0  0  0  0  0
    6.1713    0.5177   -2.5892 H   0  0  0  0  0  0  0  0  0  0  0  0
    7.8110   -0.1481   -2.8806 H   0  0  0  0  0  0  0  0  0  0  0  0
    7.8383   -1.3290   -0.7393 H   0  0  0  0  0  0  0  0  0  0  0  0
    6.3373   -1.7496   -1.5984 H   0  0  0  0  0  0  0  0  0  0  0  0
   -1.4170    0.2428    0.3989 H   0  0  0  0  0  0  0  0  0  0  0  0
    1.0413    3.8410   -0.3738 H   0  0  0  0  0  0  0  0  0  0  0  0
   -0.0260    6.0116    0.0337 H   0  0  0  0  0  0  0  0  0  0  0  0
   -2.4959    6.1951    0.1055 H   0  0  0  0  0  0  0  0  0  0  0  0
   -3.8986    4.2371   -0.2703 H   0  0  0  0  0  0  0  0  0  0  0  0
   -4.7478    0.6924   -1.2734 H   0  0  0  0  0  0  0  0  0  0  0  0
   -4.8699    2.4745   -1.3356 H   0  0  0  0  0  0  0  0  0  0  0  0
   -4.6603    2.5515    1.1744 H   0  0  0  0  0  0  0  0  0  0  0  0
   -6.0655    1.5735    0.6593 H   0  0  0  0  0  0  0  0  0  0  0  0
   -2.7668    1.2513    2.4417 H   0  0  0  0  0  0  0  0  0  0  0  0
   -4.3303    1.2877    3.3570 H   0  0  0  0  0  0  0  0  0  0  0  0
   -3.4471   -0.2571    3.1793 H   0  0  0  0  0  0  0  0  0  0  0  0
  1  2  1  0
  2  3  1  0
  2  4  1  0
  4  5  1  0
  5  6  1  0
  6  7  2  0
  6  8  1  0
  8  9  1  0
  9 10  1  0
 10 11  2  0
 10 12  1  0
 12 13  1  0
 13 14  1  0
 14 15  1  0
 15 16  1  0
 16 17  1  0
 17 18  1  0
 18 19  1  0
 19 20  1  0
  9 21  1  0
 21 22  1  0
 22 23  2  0
 22 24  1  0
 24 25  2  0
 25 26  1  0
 26 27  2  0
 27 28  1  0
 28 29  2  0
 29 30  1  0
 30 31  1  0
 31 32  1  0
 32 33  1  0
 33 34  1  0
 33 35  1  0
 35 36  2  0
 35  4  1  0
 20 15  1  0
 29 24  1  0
  1 37  1  0
  1 38  1  0
  1 39  1  0
  2 40  1  0
  3 41  1  0
  3 42  1  0
  3 43  1  0
  4 44  1  0
  5 45  1  0
  8 46  1  0
  8 47  1  0
  9 48  1  0
 12 49  1  0
 13 50  1  0
 13 51  1  0
 14 52  1  0
 14 53  1  0
 16 54  1  0
 16 55  1  0
 17 56  1  0
 17 57  1  0
 18 58  1  0
 18 59  1  0
 19 60  1  0
 19 61  1  0
 20 62  1  0
 20 63  1  0
 21 64  1  0
 25 65  1  0
 26 66  1  0
 27 67  1  0
 28 68  1  0
 31 69  1  0
 31 70  1  0
 32 71  1  0
 32 72  1  0
 34 73  1  0
 34 74  1  0
 34 75  1  0
M  END
$$$$
