
     RDKit          3D

 88 90  0  0  0  0  0  0  0  0999 V2000
   -2.4848   -3.9615   -3.4773 C   0  0  0  0  0  0  0  0  0  0  0  0
   -2.2554   -2.6163   -2.8491 C   0  0  0  0  0  0  0  0  0  0  0  0
   -2.3422   -1.5878   -3.5759 O   0  0  0  0  0  0  0  0  0  0  0  0
   -1.9033   -2.4719   -1.4559 N   0  0  0  0  0  0  0  0  0  0  0  0
   -2.1951   -3.5422   -0.4798 C   0  0  0  0  0  0  0  0  0  0  0  0
   -3.7096   -3.8759   -0.4095 C   0  0  0  0  0  0  0  0  0  0  0  0
   -4.3555   -3.5702    0.9602 C   0  0  0  0  0  0  0  0  0  0  0  0
   -5.8644   -3.2551    0.8936 C   0  0  0  0  0  0  0  0  0  0  0  0
   -6.2913   -2.0717   -0.0103 C   0  0  0  0  0  0  0  0  0  0  0  0
   -5.5490   -0.7341    0.2437 C   0  0  0  0  0  0  0  0  0  0  0  0
   -4.6910   -0.2947   -0.9764 C   0  0  0  0  0  0  0  0  0  0  0  0
   -3.4745    0.4849   -0.6503 N   0  0  0  0  0  0  0  0  0  0  0  0
   -3.6504    1.9446   -0.5052 C   0  0  0  0  0  0  0  0  0  0  0  0
   -4.5811    2.3420    0.6578 C   0  0  0  0  0  0  0  0  0  0  0  0
   -4.3915    3.8106    1.0954 C   0  0  0  0  0  0  0  0  0  0  0  0
   -4.7799    4.7917   -0.0216 C   0  0  0  0  0  0  0  0  0  0  0  0
   -5.2188    4.0960    2.3553 C   0  0  0  0  0  0  0  0  0  0  0  0
   -2.5302   -0.1360    0.2998 C   0  0  0  0  0  0  0  0  0  0  0  0
   -1.1868   -0.3433   -0.3429 C   0  0  0  0  0  0  0  0  0  0  0  0
   -0.1822    0.6150   -0.1248 C   0  0  0  0  0  0  0  0  0  0  0  0
    1.1053    0.4344   -0.6430 C   0  0  0  0  0  0  0  0  0  0  0  0
    2.1509    1.4371   -0.3662 C   0  0  0  0  0  0  0  0  0  0  0  0
    1.9615    2.6179   -0.7659 O   0  0  0  0  0  0  0  0  0  0  0  0
    3.3638    1.1081    0.3553 N   0  0  0  0  0  0  0  0  0  0  0  0
    3.4865   -0.1412    1.1249 C   0  0  0  0  0  0  0  0  0  0  0  0
    4.9407   -0.6632    1.1427 C   0  0  0  0  0  0  0  0  0  0  0  0
    5.9702    0.3969    0.9869 N   0  0  0  0  0  0  0  0  0  0  0  0
    7.2307   -0.0103    1.6479 C   0  0  0  0  0  0  0  0  0  0  0  0
    8.4408    0.8019    1.1502 C   0  0  0  0  0  0  0  0  0  0  0  0
    8.4004    1.0010   -0.3161 N   0  0  0  0  0  0  0  0  0  0  0  0
    8.8283   -0.2162   -1.0285 C   0  0  0  0  0  0  0  0  0  0  0  0
    9.2744    2.1249   -0.6931 C   0  0  0  0  0  0  0  0  0  0  0  0
    5.4922    1.7013    1.4789 C   0  0  0  0  0  0  0  0  0  0  0  0
    4.3464    2.1772    0.5852 C   0  0  0  0  0  0  0  0  0  0  0  0
    1.3831   -0.6866   -1.4337 C   0  0  0  0  0  0  0  0  0  0  0  0
    0.3896   -1.6346   -1.6768 C   0  0  0  0  0  0  0  0  0  0  0  0
   -0.8996   -1.4827   -1.1389 C   0  0  0  0  0  0  0  0  0  0  0  0
   -3.4567   -4.3826   -3.1524 H   0  0  0  0  0  0  0  0  0  0  0  0
   -1.6645   -4.6544   -3.1997 H   0  0  0  0  0  0  0  0  0  0  0  0
   -2.5047   -3.8678   -4.5831 H   0  0  0  0  0  0  0  0  0  0  0  0
   -1.8068   -3.2616    0.5247 H   0  0  0  0  0  0  0  0  0  0  0  0
   -1.6314   -4.4556   -0.7702 H   0  0  0  0  0  0  0  0  0  0  0  0
   -4.2539   -3.3615   -1.2184 H   0  0  0  0  0  0  0  0  0  0  0  0
   -3.8479   -4.9589   -0.6167 H   0  0  0  0  0  0  0  0  0  0  0  0
   -4.2216   -4.4656    1.6077 H   0  0  0  0  0  0  0  0  0  0  0  0
   -3.8429   -2.7601    1.5025 H   0  0  0  0  0  0  0  0  0  0  0  0
   -6.2154   -3.0467    1.9289 H   0  0  0  0  0  0  0  0  0  0  0  0
   -6.4010   -4.1677    0.5526 H   0  0  0  0  0  0  0  0  0  0  0  0
   -6.2432   -2.3714   -1.0788 H   0  0  0  0  0  0  0  0  0  0  0  0
   -7.3756   -1.9042    0.1772 H   0  0  0  0  0  0  0  0  0  0  0  0
   -6.3199    0.0442    0.4157 H   0  0  0  0  0  0  0  0  0  0  0  0
   -4.9735   -0.7766    1.1873 H   0  0  0  0  0  0  0  0  0  0  0  0
   -5.3330    0.2823   -1.6763 H   0  0  0  0  0  0  0  0  0  0  0  0
   -4.3644   -1.1746   -1.5552 H   0  0  0  0  0  0  0  0  0  0  0  0
   -4.0579    2.3526   -1.4552 H   0  0  0  0  0  0  0  0  0  0  0  0
   -2.6506    2.4143   -0.3699 H   0  0  0  0  0  0  0  0  0  0  0  0
   -4.3849    1.6861    1.5305 H   0  0  0  0  0  0  0  0  0  0  0  0
   -5.6375    2.1964    0.3484 H   0  0  0  0  0  0  0  0  0  0  0  0
   -3.3222    3.9760    1.3525 H   0  0  0  0  0  0  0  0  0  0  0  0
   -5.8127    4.5920   -0.3839 H   0  0  0  0  0  0  0  0  0  0  0  0
   -4.0770    4.7051   -0.8764 H   0  0  0  0  0  0  0  0  0  0  0  0
   -4.7315    5.8384    0.3486 H   0  0  0  0  0  0  0  0  0  0  0  0
   -5.0478    5.1387    2.6968 H   0  0  0  0  0  0  0  0  0  0  0  0
   -4.9149    3.4138    3.1786 H   0  0  0  0  0  0  0  0  0  0  0  0
   -6.3029    3.9553    2.1536 H   0  0  0  0  0  0  0  0  0  0  0  0
   -2.8791   -1.1142    0.6349 H   0  0  0  0  0  0  0  0  0  0  0  0
   -2.4263    0.4733    1.2250 H   0  0  0  0  0  0  0  0  0  0  0  0
   -0.3929    1.4902    0.4803 H   0  0  0  0  0  0  0  0  0  0  0  0
    3.1567    0.0570    2.1679 H   0  0  0  0  0  0  0  0  0  0  0  0
    2.8325   -0.9443    0.7327 H   0  0  0  0  0  0  0  0  0  0  0  0
    5.0767   -1.2276    2.0935 H   0  0  0  0  0  0  0  0  0  0  0  0
    5.0693   -1.3879    0.3105 H   0  0  0  0  0  0  0  0  0  0  0  0
    7.4402   -1.0839    1.4398 H   0  0  0  0  0  0  0  0  0  0  0  0
    7.1453    0.0900    2.7549 H   0  0  0  0  0  0  0  0  0  0  0  0
    8.4334    1.7824    1.6784 H   0  0  0  0  0  0  0  0  0  0  0  0
    9.3825    0.2931    1.4595 H   0  0  0  0  0  0  0  0  0  0  0  0
    9.8630   -0.5114   -0.7443 H   0  0  0  0  0  0  0  0  0  0  0  0
    8.7897   -0.0520   -2.1275 H   0  0  0  0  0  0  0  0  0  0  0  0
    8.1331   -1.0540   -0.8110 H   0  0  0  0  0  0  0  0  0  0  0  0
    8.8992    3.0688   -0.2396 H   0  0  0  0  0  0  0  0  0  0  0  0
    9.2656    2.2692   -1.7967 H   0  0  0  0  0  0  0  0  0  0  0  0
   10.3225    1.9522   -0.3596 H   0  0  0  0  0  0  0  0  0  0  0  0
    6.2930    2.4680    1.4305 H   0  0  0  0  0  0  0  0  0  0  0  0
    5.1553    1.6263    2.5379 H   0  0  0  0  0  0  0  0  0  0  0  0
    3.8541    3.0497    1.0666 H   0  0  0  0  0  0  0  0  0  0  0  0
    4.7634    2.5011   -0.3920 H   0  0  0  0  0  0  0  0  0  0  0  0
    2.3698   -0.8253   -1.8588 H   0  0  0  0  0  0  0  0  0  0  0  0
    0.6208   -2.4965   -2.2891 H   0  0  0  0  0  0  0  0  0  0  0  0
  1  2  1  0
  2  3  2  0
  2  4  1  0
  4  5  1  0
  5  6  1  0
  6  7  1  0
  7  8  1  0
  8  9  1  0
  9 10  1  0
 10 11  1  0
 11 12  1  0
 12 13  1  0
 13 14  1  0
 14 15  1  0
 15 16  1  0
 15 17  1  0
 12 18  1  0
 18 19  1  0
 19 20  2  0
 20 21  1  0
 21 22  1  0
 22 23  2  0
 22 24  1  0
 24 25  1  0
 25 26  1  0
 26 27  1  0
 27 28  1  0
 28 29  1  0
 29 30  1  0
 30 31  1  0
 30 32  1  0
 27 33  1  0
 33 34  1  0
 21 35  2  0
 35 36  1  0
 36 37  2  0
 37  4  1  0
 37 19  1  0
 34 24  1  0
  1 38  1  0
  1 39  1  0
  1 40  1  0
  5 41  1  0
  5 42  1  0
  6 43  1  0
  6 44  1  0
  7 45  1  0
  7 46  1  0
  8 47  1  0
  8 48  1  0
  9 49  1  0
  9 50  1  0
 10 51  1  0
 10 52  1  0
 11 53  1  0
 11 54  1  0
 13 55  1  0
 13 56  1  0
 14 57  1  0
 14 58  1  0
 15 59  1  0
 16 60  1  0
 16 61  1  0
 16 62  1  0
 17 63  1  0
 17 64  1  0
 17 65  1  0
 18 66  1  0
 18 67  1  0
 20 68  1  0
 25 69  1  0
 25 70  1  0
 26 71  1  0
 26 72  1  0
 28 73  1  0
 28 74  1  0
 29 75  1  0
 29 76  1  0
 31 77  1  0
 31 78  1  0
 31 79  1  0
 32 80  1  0
 32 81  1  0
 32 82  1  0
 33 83  1  0
 33 84  1  0
 34 85  1  0
 34 86  1  0
 35 87  1  0
 36 88  1  0
M  END
$$$$
