
     RDKit          3D

 71 73  0  0  0  0  0  0  0  0999 V2000
    7.7376    0.6148    1.5087 C   0  0  0  0  0  0  0  0  0  0  0  0
    7.8361   -0.0686    0.1448 C   0  0  0  0  0  0  0  0  0  0  0  0
    6.9833    0.6325   -0.9205 C   0  0  0  0  0  0  0  0  0  0  0  0
    5.5191    0.4665   -0.6534 C   0  0  0  0  0  0  0  0  0  0  0  0
    4.7550   -0.6417   -0.9466 C   0  0  0  0  0  0  0  0  0  0  0  0
    3.4994   -0.3023   -0.4822 C   0  0  0  0  0  0  0  0  0  0  0  0
    2.3073   -1.1780   -0.5209 C   0  0  0  0  0  0  0  0  0  0  0  0
    2.4909   -2.4095   -0.7277 O   0  0  0  0  0  0  0  0  0  0  0  0
    0.9561   -0.6773   -0.3486 N   0  0  0  0  0  0  0  0  0  0  0  0
    0.6191    0.7282   -0.6465 C   0  0  0  0  0  0  0  0  0  0  0  0
    0.6116    1.6072    0.6226 C   0  0  0  0  0  0  0  0  0  0  0  0
   -0.7757    1.7822    1.2690 C   0  0  0  0  0  0  0  0  0  0  0  0
   -1.7625    2.3655    0.3253 N   0  0  0  0  0  0  0  0  0  0  0  0
   -1.6763    3.8522    0.2615 C   0  0  0  0  0  0  0  0  0  0  0  0
   -2.4406    4.5718    1.3925 C   0  0  0  0  0  0  0  0  0  0  0  0
   -2.1265    4.3518   -1.1160 C   0  0  0  0  0  0  0  0  0  0  0  0
   -3.1377    1.8412    0.5422 C   0  0  0  0  0  0  0  0  0  0  0  0
   -3.3436    0.5108   -0.2125 C   0  0  0  0  0  0  0  0  0  0  0  0
   -3.4374   -0.7114    0.7324 C   0  0  0  0  0  0  0  0  0  0  0  0
   -3.0745   -2.0012    0.1047 N   0  0  0  0  0  0  0  0  0  0  0  0
   -3.2920   -3.2415    0.8143 C   0  0  0  0  0  0  0  0  0  0  0  0
   -2.8808   -4.3253    0.3114 O   0  0  0  0  0  0  0  0  0  0  0  0
   -4.0371   -3.2704    2.1308 C   0  0  0  0  0  0  0  0  0  0  0  0
   -4.0438   -4.6505    2.7877 C   0  0  0  0  0  0  0  0  0  0  0  0
   -2.4079   -2.0666   -1.1715 C   0  0  0  0  0  0  0  0  0  0  0  0
   -3.1755   -2.3312   -2.3147 C   0  0  0  0  0  0  0  0  0  0  0  0
   -2.5707   -2.4285   -3.5682 C   0  0  0  0  0  0  0  0  0  0  0  0
   -3.3253   -2.6832   -4.6655 F   0  0  0  0  0  0  0  0  0  0  0  0
   -1.1899   -2.2722   -3.6900 C   0  0  0  0  0  0  0  0  0  0  0  0
   -0.6000   -2.3793   -4.9061 F   0  0  0  0  0  0  0  0  0  0  0  0
   -0.4114   -2.0097   -2.5607 C   0  0  0  0  0  0  0  0  0  0  0  0
   -1.0059   -1.8805   -1.2901 C   0  0  0  0  0  0  0  0  0  0  0  0
   -0.1355   -1.6317   -0.0715 C   0  0  0  0  0  0  0  0  0  0  0  0
    3.5433    0.9280    0.0654 N   0  0  0  0  0  0  0  0  0  0  0  0
    4.7655    1.3578   -0.0562 O   0  0  0  0  0  0  0  0  0  0  0  0
    8.0409    1.6799    1.4307 H   0  0  0  0  0  0  0  0  0  0  0  0
    8.4127    0.1047    2.2274 H   0  0  0  0  0  0  0  0  0  0  0  0
    6.6996    0.5558    1.8995 H   0  0  0  0  0  0  0  0  0  0  0  0
    7.5291   -1.1340    0.2382 H   0  0  0  0  0  0  0  0  0  0  0  0
    8.8979   -0.0510   -0.1825 H   0  0  0  0  0  0  0  0  0  0  0  0
    7.2352    1.7142   -0.9590 H   0  0  0  0  0  0  0  0  0  0  0  0
    7.2180    0.1985   -1.9168 H   0  0  0  0  0  0  0  0  0  0  0  0
    5.0692   -1.5607   -1.4237 H   0  0  0  0  0  0  0  0  0  0  0  0
    1.3497    1.1405   -1.3757 H   0  0  0  0  0  0  0  0  0  0  0  0
   -0.3495    0.7903   -1.1762 H   0  0  0  0  0  0  0  0  0  0  0  0
    1.0236    2.6051    0.3656 H   0  0  0  0  0  0  0  0  0  0  0  0
    1.2924    1.1718    1.3854 H   0  0  0  0  0  0  0  0  0  0  0  0
   -0.6668    2.4178    2.1743 H   0  0  0  0  0  0  0  0  0  0  0  0
   -1.0981    0.7940    1.6387 H   0  0  0  0  0  0  0  0  0  0  0  0
   -0.6138    4.1648    0.3540 H   0  0  0  0  0  0  0  0  0  0  0  0
   -2.1832    5.6527    1.3878 H   0  0  0  0  0  0  0  0  0  0  0  0
   -3.5407    4.4872    1.2692 H   0  0  0  0  0  0  0  0  0  0  0  0
   -2.1591    4.1594    2.3835 H   0  0  0  0  0  0  0  0  0  0  0  0
   -1.9207    5.4398   -1.2116 H   0  0  0  0  0  0  0  0  0  0  0  0
   -1.5636    3.8172   -1.9111 H   0  0  0  0  0  0  0  0  0  0  0  0
   -3.2125    4.1873   -1.2746 H   0  0  0  0  0  0  0  0  0  0  0  0
   -3.3638    1.7455    1.6280 H   0  0  0  0  0  0  0  0  0  0  0  0
   -3.8936    2.5443    0.1364 H   0  0  0  0  0  0  0  0  0  0  0  0
   -4.2881    0.5590   -0.7982 H   0  0  0  0  0  0  0  0  0  0  0  0
   -2.5375    0.4086   -0.9591 H   0  0  0  0  0  0  0  0  0  0  0  0
   -4.4862   -0.7634    1.0960 H   0  0  0  0  0  0  0  0  0  0  0  0
   -2.8043   -0.5699    1.6288 H   0  0  0  0  0  0  0  0  0  0  0  0
   -5.0884   -2.9586    1.9558 H   0  0  0  0  0  0  0  0  0  0  0  0
   -3.5660   -2.5526    2.8353 H   0  0  0  0  0  0  0  0  0  0  0  0
   -4.5598   -5.3856    2.1321 H   0  0  0  0  0  0  0  0  0  0  0  0
   -3.0051   -4.9917    2.9817 H   0  0  0  0  0  0  0  0  0  0  0  0
   -4.5859   -4.5984    3.7554 H   0  0  0  0  0  0  0  0  0  0  0  0
   -4.2467   -2.4637   -2.2261 H   0  0  0  0  0  0  0  0  0  0  0  0
    0.6578   -1.9046   -2.6852 H   0  0  0  0  0  0  0  0  0  0  0  0
    0.2639   -2.6078    0.2786 H   0  0  0  0  0  0  0  0  0  0  0  0
   -0.7301   -1.2462    0.7736 H   0  0  0  0  0  0  0  0  0  0  0  0
  1  2  1  0
  2  3  1  0
  3  4  1  0
  4  5  2  0
  5  6  1  0
  6  7  1  0
  7  8  2  0
  7  9  1  0
  9 10  1  0
 10 11  1  0
 11 12  1  0
 12 13  1  0
 13 14  1  0
 14 15  1  0
 14 16  1  0
 13 17  1  0
 17 18  1  0
 18 19  1  0
 19 20  1  0
 20 21  1  0
 21 22  2  0
 21 23  1  0
 23 24  1  0
 20 25  1  0
 25 26  2  0
 26 27  1  0
 27 28  1  0
 27 29  2  0
 29 30  1  0
 29 31  1  0
 31 32  2  0
 32 33  1  0
  6 34  2  0
 34 35  1  0
 35  4  1  0
 33  9  1  0
 32 25  1  0
  1 36  1  0
  1 37  1  0
  1 38  1  0
  2 39  1  0
  2 40  1  0
  3 41  1  0
  3 42  1  0
  5 43  1  0
 10 44  1  0
 10 45  1  0
 11 46  1  0
 11 47  1  0
 12 48  1  0
 12 49  1  0
 14 50  1  0
 15 51  1  0
 15 52  1  0
 15 53  1  0
 16 54  1  0
 16 55  1  0
 16 56  1  0
 17 57  1  0
 17 58  1  0
 18 59  1  0
 18 60  1  0
 19 61  1  0
 19 62  1  0
 23 63  1  0
 23 64  1  0
 24 65  1  0
 24 66  1  0
 24 67  1  0
 26 68  1  0
 31 69  1  0
 33 70  1  0
 33 71  1  0
M  END
$$$$
