
     RDKit          3D

 63 64  0  0  0  0  0  0  0  0999 V2000
    5.7453   -2.2383   -2.0606 C   0  0  0  0  0  0  0  0  0  0  0  0
    4.4834   -1.5558   -2.3955 N   0  0  0  0  0  0  0  0  0  0  0  0
    3.7871   -2.3214   -3.4513 C   0  0  0  0  0  0  0  0  0  0  0  0
    3.6317   -1.3891   -1.1949 C   0  0  0  0  0  0  0  0  0  0  0  0
    3.9817   -0.0505   -0.5099 C   0  0  0  0  0  0  0  0  0  0  0  0
    3.2965    0.1278    0.8469 C   0  0  0  0  0  0  0  0  0  0  0  0
    1.8541    0.3481    0.7109 N   0  0  0  0  0  0  0  0  0  0  0  0
    1.0303    0.5791    1.8617 C   0  0  0  0  0  0  0  0  0  0  0  0
    1.5352    0.5476    3.0202 O   0  0  0  0  0  0  0  0  0  0  0  0
   -0.4393    0.8405    1.6966 C   0  0  0  0  0  0  0  0  0  0  0  0
   -0.7815    2.3309    1.9087 C   0  0  0  0  0  0  0  0  0  0  0  0
   -0.5241    3.1400    0.6674 C   0  0  0  0  0  0  0  0  0  0  0  0
    0.6752    3.2466    0.2480 O   0  0  0  0  0  0  0  0  0  0  0  0
   -1.5594    3.8707   -0.0234 N   0  0  0  0  0  0  0  0  0  0  0  0
   -2.8742    3.3456   -0.4598 C   0  0  0  0  0  0  0  0  0  0  0  0
   -3.9370    3.4701    0.6486 C   0  0  0  0  0  0  0  0  0  0  0  0
   -3.8411    4.7270    1.2721 O   0  0  0  0  0  0  0  0  0  0  0  0
   -2.7742    1.9622   -1.0745 C   0  0  0  0  0  0  0  0  0  0  0  0
   -1.6695    1.5928   -1.5552 O   0  0  0  0  0  0  0  0  0  0  0  0
   -3.9369    1.1657   -1.3491 N   0  0  0  0  0  0  0  0  0  0  0  0
   -4.6134    0.3526   -0.3367 C   0  0  0  0  0  0  0  0  0  0  0  0
   -3.6137   -0.4662    0.4732 C   0  0  0  0  0  0  0  0  0  0  0  0
   -2.8225   -1.2568   -0.4048 O   0  0  0  0  0  0  0  0  0  0  0  0
   -1.6275   -1.9557   -0.1276 C   0  0  0  0  0  0  0  0  0  0  0  0
   -1.0254   -2.5952   -1.2212 C   0  0  0  0  0  0  0  0  0  0  0  0
    0.1789   -3.2810   -1.0838 C   0  0  0  0  0  0  0  0  0  0  0  0
    0.7987   -3.3586    0.1599 C   0  0  0  0  0  0  0  0  0  0  0  0
    0.2023   -2.7730    1.2710 C   0  0  0  0  0  0  0  0  0  0  0  0
   -0.9980   -2.0530    1.1463 C   0  0  0  0  0  0  0  0  0  0  0  0
   -1.4896   -1.3820    2.3671 C   0  0  0  0  0  0  0  0  0  0  0  0
   -2.1289   -2.0552    3.2202 O   0  0  0  0  0  0  0  0  0  0  0  0
   -1.1862   -0.0021    2.6372 N   0  0  0  0  0  0  0  0  0  0  0  0
    5.5587   -3.2980   -1.7519 H   0  0  0  0  0  0  0  0  0  0  0  0
    6.2618   -1.7146   -1.2323 H   0  0  0  0  0  0  0  0  0  0  0  0
    6.4343   -2.2357   -2.9387 H   0  0  0  0  0  0  0  0  0  0  0  0
    3.4554   -3.3220   -3.0811 H   0  0  0  0  0  0  0  0  0  0  0  0
    4.4621   -2.4606   -4.3346 H   0  0  0  0  0  0  0  0  0  0  0  0
    2.8931   -1.7568   -3.8012 H   0  0  0  0  0  0  0  0  0  0  0  0
    2.5421   -1.3612   -1.4736 H   0  0  0  0  0  0  0  0  0  0  0  0
    3.7678   -2.2452   -0.4876 H   0  0  0  0  0  0  0  0  0  0  0  0
    3.6902    0.7840   -1.1780 H   0  0  0  0  0  0  0  0  0  0  0  0
    5.0837    0.0255   -0.3662 H   0  0  0  0  0  0  0  0  0  0  0  0
    3.7429    1.0047    1.3592 H   0  0  0  0  0  0  0  0  0  0  0  0
    3.4762   -0.7694    1.4751 H   0  0  0  0  0  0  0  0  0  0  0  0
    1.4127    0.4106   -0.2279 H   0  0  0  0  0  0  0  0  0  0  0  0
   -0.7343    0.5721    0.6680 H   0  0  0  0  0  0  0  0  0  0  0  0
   -0.1791    2.7374    2.7403 H   0  0  0  0  0  0  0  0  0  0  0  0
   -1.8294    2.4418    2.2212 H   0  0  0  0  0  0  0  0  0  0  0  0
   -1.2528    4.7790   -0.4486 H   0  0  0  0  0  0  0  0  0  0  0  0
   -3.2200    4.0029   -1.2892 H   0  0  0  0  0  0  0  0  0  0  0  0
   -3.8189    2.6774    1.4116 H   0  0  0  0  0  0  0  0  0  0  0  0
   -4.9515    3.3373    0.2067 H   0  0  0  0  0  0  0  0  0  0  0  0
   -4.4399    5.3549    0.7745 H   0  0  0  0  0  0  0  0  0  0  0  0
   -4.1421    0.9508   -2.3450 H   0  0  0  0  0  0  0  0  0  0  0  0
   -5.3167   -0.3427   -0.8367 H   0  0  0  0  0  0  0  0  0  0  0  0
   -5.2052    0.9998    0.3360 H   0  0  0  0  0  0  0  0  0  0  0  0
   -4.1509   -1.1206    1.1824 H   0  0  0  0  0  0  0  0  0  0  0  0
   -3.0102    0.2620    1.0209 H   0  0  0  0  0  0  0  0  0  0  0  0
   -1.4998   -2.5360   -2.1959 H   0  0  0  0  0  0  0  0  0  0  0  0
    0.6287   -3.7497   -1.9445 H   0  0  0  0  0  0  0  0  0  0  0  0
    1.7287   -3.8855    0.2686 H   0  0  0  0  0  0  0  0  0  0  0  0
    0.7042   -2.8431    2.2307 H   0  0  0  0  0  0  0  0  0  0  0  0
   -1.4499    0.3878    3.5731 H   0  0  0  0  0  0  0  0  0  0  0  0
  1  2  1  0
  2  3  1  0
  2  4  1  0
  4  5  1  0
  5  6  1  0
  6  7  1  0
  7  8  1  0
  8  9  2  0
  8 10  1  0
 10 11  1  0
 11 12  1  0
 12 13  2  0
 12 14  1  0
 14 15  1  0
 15 16  1  0
 16 17  1  0
 15 18  1  0
 18 19  2  0
 18 20  1  0
 20 21  1  0
 21 22  1  0
 22 23  1  0
 23 24  1  0
 24 25  2  0
 25 26  1  0
 26 27  2  0
 27 28  1  0
 28 29  2  0
 29 30  1  0
 30 31  2  0
 30 32  1  0
 32 10  1  0
 29 24  1  0
  1 33  1  0
  1 34  1  0
  1 35  1  0
  3 36  1  0
  3 37  1  0
  3 38  1  0
  4 39  1  0
  4 40  1  0
  5 41  1  0
  5 42  1  0
  6 43  1  0
  6 44  1  0
  7 45  1  0
 10 46  1  0
 11 47  1  0
 11 48  1  0
 14 49  1  0
 15 50  1  0
 16 51  1  0
 16 52  1  0
 17 53  1  0
 20 54  1  0
 21 55  1  0
 21 56  1  0
 22 57  1  0
 22 58  1  0
 25 59  1  0
 26 60  1  0
 27 61  1  0
 28 62  1  0
 32 63  1  0
M  END
$$$$
