
     RDKit          3D

 77 80  0  0  0  0  0  0  0  0999 V2000
    6.7729    4.6846   -0.5889 C   0  0  0  0  0  0  0  0  0  0  0  0
    6.2601    3.2924   -0.4199 C   0  0  0  0  0  0  0  0  0  0  0  0
    6.1453    2.7577    0.8227 N   0  0  0  0  0  0  0  0  0  0  0  0
    5.6497    1.5087    1.0052 C   0  0  0  0  0  0  0  0  0  0  0  0
    5.2180    0.7544   -0.0929 C   0  0  0  0  0  0  0  0  0  0  0  0
    4.7272   -0.6270    0.1194 C   0  0  0  0  0  0  0  0  0  0  0  0
    5.4235   -1.5684   -0.3504 O   0  0  0  0  0  0  0  0  0  0  0  0
    3.5346   -0.9249    0.8952 N   0  0  0  0  0  0  0  0  0  0  0  0
    2.6561    0.1620    1.3944 C   0  0  0  0  0  0  0  0  0  0  0  0
    1.9497    0.9431    0.2585 C   0  0  0  0  0  0  0  0  0  0  0  0
    0.5358    0.4173   -0.0444 C   0  0  0  0  0  0  0  0  0  0  0  0
   -0.5392    0.9115    0.9503 C   0  0  0  0  0  0  0  0  0  0  0  0
   -1.8649    0.0721    0.9401 C   0  0  0  0  0  0  0  0  0  0  0  0
   -2.8517    0.7233    1.9425 C   0  0  0  0  0  0  0  0  0  0  0  0
   -4.2374    0.0543    1.8949 C   0  0  0  0  0  0  0  0  0  0  0  0
   -4.8526    0.1298    0.5511 N   0  0  0  0  0  0  0  0  0  0  0  0
   -5.3610    1.4842    0.2326 C   0  0  0  0  0  0  0  0  0  0  0  0
   -6.4583    1.4595   -0.8101 C   0  0  0  0  0  0  0  0  0  0  0  0
   -7.3218    0.3560   -0.9523 C   0  0  0  0  0  0  0  0  0  0  0  0
   -8.3502    0.4047   -1.8972 C   0  0  0  0  0  0  0  0  0  0  0  0
   -8.5362    1.5208   -2.6510 N   0  0  0  0  0  0  0  0  0  0  0  0
   -7.7369    2.6124   -2.5188 C   0  0  0  0  0  0  0  0  0  0  0  0
   -6.6859    2.5996   -1.5974 C   0  0  0  0  0  0  0  0  0  0  0  0
   -3.9666   -0.4397   -0.4929 C   0  0  0  0  0  0  0  0  0  0  0  0
   -2.5290    0.1277   -0.4679 C   0  0  0  0  0  0  0  0  0  0  0  0
   -1.5612   -1.3633    1.3985 C   0  0  0  0  0  0  0  0  0  0  0  0
   -1.1533   -1.5616    2.5786 O   0  0  0  0  0  0  0  0  0  0  0  0
   -1.7528   -2.4751    0.5660 O   0  0  0  0  0  0  0  0  0  0  0  0
   -0.7301   -3.0376   -0.2650 C   0  0  0  0  0  0  0  0  0  0  0  0
    0.5616   -3.3926    0.5205 C   0  0  0  0  0  0  0  0  0  0  0  0
    0.4546   -4.6666    1.1170 O   0  0  0  0  0  0  0  0  0  0  0  0
    1.8424   -3.2753   -0.3531 C   0  0  0  0  0  0  0  0  0  0  0  0
    1.8220   -4.2732   -1.3463 O   0  0  0  0  0  0  0  0  0  0  0  0
    3.1370   -3.4096    0.4813 C   0  0  0  0  0  0  0  0  0  0  0  0
    3.4032   -2.2714    1.4989 C   0  0  0  0  0  0  0  0  0  0  0  0
    5.3741    1.3154   -1.3828 C   0  0  0  0  0  0  0  0  0  0  0  0
    4.9435    0.5965   -2.6342 C   0  0  0  0  0  0  0  0  0  0  0  0
    5.8714    2.5761   -1.5033 N   0  0  0  0  0  0  0  0  0  0  0  0
    7.4859    4.9293    0.2274 H   0  0  0  0  0  0  0  0  0  0  0  0
    7.2972    4.7869   -1.5652 H   0  0  0  0  0  0  0  0  0  0  0  0
    5.9222    5.3992   -0.5558 H   0  0  0  0  0  0  0  0  0  0  0  0
    5.6068    1.1018    2.0083 H   0  0  0  0  0  0  0  0  0  0  0  0
    1.9019   -0.2317    2.1079 H   0  0  0  0  0  0  0  0  0  0  0  0
    3.2559    0.8728    1.9973 H   0  0  0  0  0  0  0  0  0  0  0  0
    2.5466    0.8791   -0.6731 H   0  0  0  0  0  0  0  0  0  0  0  0
    1.8907    2.0211    0.5304 H   0  0  0  0  0  0  0  0  0  0  0  0
    0.2489    0.7389   -1.0676 H   0  0  0  0  0  0  0  0  0  0  0  0
    0.5766   -0.6741   -0.0410 H   0  0  0  0  0  0  0  0  0  0  0  0
   -0.7715    1.9719    0.7013 H   0  0  0  0  0  0  0  0  0  0  0  0
   -0.1261    0.9218    1.9832 H   0  0  0  0  0  0  0  0  0  0  0  0
   -2.9642    1.8086    1.7188 H   0  0  0  0  0  0  0  0  0  0  0  0
   -2.4573    0.6610    2.9818 H   0  0  0  0  0  0  0  0  0  0  0  0
   -4.1498   -1.0142    2.1978 H   0  0  0  0  0  0  0  0  0  0  0  0
   -4.8966    0.5228    2.6580 H   0  0  0  0  0  0  0  0  0  0  0  0
   -5.8008    1.9577    1.1380 H   0  0  0  0  0  0  0  0  0  0  0  0
   -4.5305    2.1423   -0.1052 H   0  0  0  0  0  0  0  0  0  0  0  0
   -7.2061   -0.5353   -0.3434 H   0  0  0  0  0  0  0  0  0  0  0  0
   -9.0110   -0.4421   -2.0197 H   0  0  0  0  0  0  0  0  0  0  0  0
   -7.9218    3.4934   -3.1221 H   0  0  0  0  0  0  0  0  0  0  0  0
   -6.0727    3.4878   -1.4700 H   0  0  0  0  0  0  0  0  0  0  0  0
   -4.3921   -0.2699   -1.5062 H   0  0  0  0  0  0  0  0  0  0  0  0
   -3.9266   -1.5419   -0.3661 H   0  0  0  0  0  0  0  0  0  0  0  0
   -1.9211   -0.4236   -1.2177 H   0  0  0  0  0  0  0  0  0  0  0  0
   -2.5680    1.1804   -0.8263 H   0  0  0  0  0  0  0  0  0  0  0  0
   -0.5141   -2.3297   -1.0869 H   0  0  0  0  0  0  0  0  0  0  0  0
   -1.1413   -3.9494   -0.7422 H   0  0  0  0  0  0  0  0  0  0  0  0
    0.6663   -2.6636    1.3414 H   0  0  0  0  0  0  0  0  0  0  0  0
    0.3622   -5.3438    0.3963 H   0  0  0  0  0  0  0  0  0  0  0  0
    1.8630   -2.2778   -0.8465 H   0  0  0  0  0  0  0  0  0  0  0  0
    2.3753   -3.9533   -2.1083 H   0  0  0  0  0  0  0  0  0  0  0  0
    3.9976   -3.5059   -0.2108 H   0  0  0  0  0  0  0  0  0  0  0  0
    3.1067   -4.3646    1.0437 H   0  0  0  0  0  0  0  0  0  0  0  0
    4.3455   -2.5105    2.0364 H   0  0  0  0  0  0  0  0  0  0  0  0
    2.6245   -2.2819    2.2890 H   0  0  0  0  0  0  0  0  0  0  0  0
    5.3180   -0.4482   -2.6500 H   0  0  0  0  0  0  0  0  0  0  0  0
    5.3520    1.1108   -3.5357 H   0  0  0  0  0  0  0  0  0  0  0  0
    3.8341    0.5958   -2.6994 H   0  0  0  0  0  0  0  0  0  0  0  0
  1  2  1  0
  2  3  2  0
  3  4  1  0
  4  5  2  0
  5  6  1  0
  6  7  2  0
  6  8  1  0
  8  9  1  0
  9 10  1  0
 10 11  1  0
 11 12  1  0
 12 13  1  0
 13 14  1  0
 14 15  1  0
 15 16  1  0
 16 17  1  0
 17 18  1  0
 18 19  2  0
 19 20  1  0
 20 21  2  0
 21 22  1  0
 22 23  2  0
 16 24  1  0
 24 25  1  0
 13 26  1  0
 26 27  2  0
 26 28  1  0
 28 29  1  0
 29 30  1  0
 30 31  1  0
 30 32  1  0
 32 33  1  0
 32 34  1  0
 34 35  1  0
  5 36  1  0
 36 37  1  0
 36 38  2  0
 38  2  1  0
 35  8  1  0
 25 13  1  0
 23 18  1  0
  1 39  1  0
  1 40  1  0
  1 41  1  0
  4 42  1  0
  9 43  1  0
  9 44  1  0
 10 45  1  0
 10 46  1  0
 11 47  1  0
 11 48  1  0
 12 49  1  0
 12 50  1  0
 14 51  1  0
 14 52  1  0
 15 53  1  0
 15 54  1  0
 17 55  1  0
 17 56  1  0
 19 57  1  0
 20 58  1  0
 22 59  1  0
 23 60  1  0
 24 61  1  0
 24 62  1  0
 25 63  1  0
 25 64  1  0
 29 65  1  0
 29 66  1  0
 30 67  1  0
 31 68  1  0
 32 69  1  0
 33 70  1  0
 34 71  1  0
 34 72  1  0
 35 73  1  0
 35 74  1  0
 37 75  1  0
 37 76  1  0
 37 77  1  0
M  END
$$$$
