
     RDKit          3D

 82 85  0  0  0  0  0  0  0  0999 V2000
   -0.8645    4.7533    0.7479 C   0  0  0  0  0  0  0  0  0  0  0  0
   -0.9313    3.2573    0.8058 C   0  0  0  0  0  0  0  0  0  0  0  0
   -0.3669    2.6683    1.7675 O   0  0  0  0  0  0  0  0  0  0  0  0
   -1.5746    2.4824   -0.2319 N   0  0  0  0  0  0  0  0  0  0  0  0
   -2.5283    3.1092   -1.1680 C   0  0  0  0  0  0  0  0  0  0  0  0
   -3.8057    3.7138   -0.5181 C   0  0  0  0  0  0  0  0  0  0  0  0
   -4.1321    3.2704    0.9295 C   0  0  0  0  0  0  0  0  0  0  0  0
   -5.6079    2.8924    1.1403 C   0  0  0  0  0  0  0  0  0  0  0  0
   -6.0105    1.5467    0.5059 C   0  0  0  0  0  0  0  0  0  0  0  0
   -5.2032    0.3459    1.0403 C   0  0  0  0  0  0  0  0  0  0  0  0
   -4.0975   -0.0839    0.0689 C   0  0  0  0  0  0  0  0  0  0  0  0
   -3.0920   -0.9014    0.7716 N   0  0  0  0  0  0  0  0  0  0  0  0
   -3.1269   -2.3589    0.4714 C   0  0  0  0  0  0  0  0  0  0  0  0
   -2.3448   -3.2149    1.4809 C   0  0  0  0  0  0  0  0  0  0  0  0
   -2.4579   -4.7164    1.1273 C   0  0  0  0  0  0  0  0  0  0  0  0
   -3.1772   -4.9484   -0.0716 O   0  0  0  0  0  0  0  0  0  0  0  0
   -2.5766   -4.2452   -1.1445 C   0  0  0  0  0  0  0  0  0  0  0  0
   -2.6906   -2.7129   -0.9651 C   0  0  0  0  0  0  0  0  0  0  0  0
   -1.8473   -0.2016    1.1829 C   0  0  0  0  0  0  0  0  0  0  0  0
   -0.8733    0.0875    0.0525 C   0  0  0  0  0  0  0  0  0  0  0  0
    0.1400   -0.8549   -0.2103 C   0  0  0  0  0  0  0  0  0  0  0  0
    1.0548   -0.6725   -1.2519 C   0  0  0  0  0  0  0  0  0  0  0  0
    2.0970   -1.6918   -1.4778 C   0  0  0  0  0  0  0  0  0  0  0  0
    1.7406   -2.8479   -1.8240 O   0  0  0  0  0  0  0  0  0  0  0  0
    3.4878   -1.4182   -1.2042 N   0  0  0  0  0  0  0  0  0  0  0  0
    4.0529   -0.0878   -1.4465 C   0  0  0  0  0  0  0  0  0  0  0  0
    5.5478   -0.0541   -1.1240 C   0  0  0  0  0  0  0  0  0  0  0  0
    5.7729   -0.6159    0.2256 N   0  0  0  0  0  0  0  0  0  0  0  0
    7.1715   -0.4351    0.7215 C   0  0  0  0  0  0  0  0  0  0  0  0
    7.6738    1.0206    0.5937 C   0  0  0  0  0  0  0  0  0  0  0  0
    7.2659   -0.8350    2.2079 C   0  0  0  0  0  0  0  0  0  0  0  0
    5.3579   -2.0500    0.3022 C   0  0  0  0  0  0  0  0  0  0  0  0
    4.3822   -2.5089   -0.8042 C   0  0  0  0  0  0  0  0  0  0  0  0
    0.9569    0.4609   -2.0605 C   0  0  0  0  0  0  0  0  0  0  0  0
    0.0245    1.4564   -1.7549 C   0  0  0  0  0  0  0  0  0  0  0  0
   -0.8651    1.3102   -0.6772 C   0  0  0  0  0  0  0  0  0  0  0  0
   -0.1666    5.1336    1.5204 H   0  0  0  0  0  0  0  0  0  0  0  0
   -1.8599    5.2006    0.9340 H   0  0  0  0  0  0  0  0  0  0  0  0
   -0.4875    5.0767   -0.2402 H   0  0  0  0  0  0  0  0  0  0  0  0
   -2.0051    3.9015   -1.7486 H   0  0  0  0  0  0  0  0  0  0  0  0
   -2.8553    2.3587   -1.9217 H   0  0  0  0  0  0  0  0  0  0  0  0
   -4.6656    3.4954   -1.1902 H   0  0  0  0  0  0  0  0  0  0  0  0
   -3.7185    4.8255   -0.5287 H   0  0  0  0  0  0  0  0  0  0  0  0
   -3.9046    4.1178    1.6127 H   0  0  0  0  0  0  0  0  0  0  0  0
   -3.5005    2.4437    1.2782 H   0  0  0  0  0  0  0  0  0  0  0  0
   -6.2620    3.6968    0.7340 H   0  0  0  0  0  0  0  0  0  0  0  0
   -5.8017    2.8391    2.2344 H   0  0  0  0  0  0  0  0  0  0  0  0
   -7.0830    1.3800    0.7447 H   0  0  0  0  0  0  0  0  0  0  0  0
   -5.9460    1.6071   -0.6019 H   0  0  0  0  0  0  0  0  0  0  0  0
   -4.7772    0.5755    2.0400 H   0  0  0  0  0  0  0  0  0  0  0  0
   -5.8885   -0.5185    1.1820 H   0  0  0  0  0  0  0  0  0  0  0  0
   -4.5837   -0.6438   -0.7607 H   0  0  0  0  0  0  0  0  0  0  0  0
   -3.6224    0.7914   -0.3994 H   0  0  0  0  0  0  0  0  0  0  0  0
   -4.1907   -2.6824    0.5622 H   0  0  0  0  0  0  0  0  0  0  0  0
   -2.7095   -3.0277    2.5099 H   0  0  0  0  0  0  0  0  0  0  0  0
   -1.2738   -2.9559    1.4445 H   0  0  0  0  0  0  0  0  0  0  0  0
   -2.9927   -5.2312    1.9546 H   0  0  0  0  0  0  0  0  0  0  0  0
   -1.4488   -5.1848    1.0637 H   0  0  0  0  0  0  0  0  0  0  0  0
   -3.0942   -4.5370   -2.0851 H   0  0  0  0  0  0  0  0  0  0  0  0
   -1.5067   -4.5439   -1.2622 H   0  0  0  0  0  0  0  0  0  0  0  0
   -3.4137   -2.3040   -1.7054 H   0  0  0  0  0  0  0  0  0  0  0  0
   -1.7078   -2.2665   -1.1967 H   0  0  0  0  0  0  0  0  0  0  0  0
   -1.3378   -0.7724    1.9839 H   0  0  0  0  0  0  0  0  0  0  0  0
   -2.1194    0.7442    1.6867 H   0  0  0  0  0  0  0  0  0  0  0  0
    0.2277   -1.7388    0.4010 H   0  0  0  0  0  0  0  0  0  0  0  0
    3.9106    0.1885   -2.5116 H   0  0  0  0  0  0  0  0  0  0  0  0
    3.5330    0.6539   -0.7982 H   0  0  0  0  0  0  0  0  0  0  0  0
    6.1309   -0.6190   -1.8843 H   0  0  0  0  0  0  0  0  0  0  0  0
    5.8407    1.0119   -1.1794 H   0  0  0  0  0  0  0  0  0  0  0  0
    7.8662   -1.0832    0.1406 H   0  0  0  0  0  0  0  0  0  0  0  0
    7.9196    1.2567   -0.4642 H   0  0  0  0  0  0  0  0  0  0  0  0
    6.9109    1.7358    0.9769 H   0  0  0  0  0  0  0  0  0  0  0  0
    8.6152    1.1682    1.1638 H   0  0  0  0  0  0  0  0  0  0  0  0
    8.2850   -0.6416    2.6018 H   0  0  0  0  0  0  0  0  0  0  0  0
    7.0723   -1.9179    2.3447 H   0  0  0  0  0  0  0  0  0  0  0  0
    6.5295   -0.2565    2.8075 H   0  0  0  0  0  0  0  0  0  0  0  0
    4.8629   -2.2052    1.2868 H   0  0  0  0  0  0  0  0  0  0  0  0
    6.2377   -2.7377    0.2625 H   0  0  0  0  0  0  0  0  0  0  0  0
    4.9558   -2.8443   -1.6977 H   0  0  0  0  0  0  0  0  0  0  0  0
    3.8072   -3.3815   -0.4227 H   0  0  0  0  0  0  0  0  0  0  0  0
    1.6307    0.6014   -2.8938 H   0  0  0  0  0  0  0  0  0  0  0  0
    0.0350    2.3702   -2.3351 H   0  0  0  0  0  0  0  0  0  0  0  0
  1  2  1  0
  2  3  2  0
  2  4  1  0
  4  5  1  0
  5  6  1  0
  6  7  1  0
  7  8  1  0
  8  9  1  0
  9 10  1  0
 10 11  1  0
 11 12  1  0
 12 13  1  0
 13 14  1  0
 14 15  1  0
 15 16  1  0
 16 17  1  0
 17 18  1  0
 12 19  1  0
 19 20  1  0
 20 21  2  0
 21 22  1  0
 22 23  1  0
 23 24  2  0
 23 25  1  0
 25 26  1  0
 26 27  1  0
 27 28  1  0
 28 29  1  0
 29 30  1  0
 29 31  1  0
 28 32  1  0
 32 33  1  0
 22 34  2  0
 34 35  1  0
 35 36  2  0
 36  4  1  0
 18 13  1  0
 36 20  1  0
 33 25  1  0
  1 37  1  0
  1 38  1  0
  1 39  1  0
  5 40  1  0
  5 41  1  0
  6 42  1  0
  6 43  1  0
  7 44  1  0
  7 45  1  0
  8 46  1  0
  8 47  1  0
  9 48  1  0
  9 49  1  0
 10 50  1  0
 10 51  1  0
 11 52  1  0
 11 53  1  0
 13 54  1  0
 14 55  1  0
 14 56  1  0
 15 57  1  0
 15 58  1  0
 17 59  1  0
 17 60  1  0
 18 61  1  0
 18 62  1  0
 19 63  1  0
 19 64  1  0
 21 65  1  0
 26 66  1  0
 26 67  1  0
 27 68  1  0
 27 69  1  0
 29 70  1  0
 30 71  1  0
 30 72  1  0
 30 73  1  0
 31 74  1  0
 31 75  1  0
 31 76  1  0
 32 77  1  0
 32 78  1  0
 33 79  1  0
 33 80  1  0
 34 81  1  0
 35 82  1  0
M  END
$$$$
