
     RDKit          3D

 63 65  0  0  0  0  0  0  0  0999 V2000
    5.8868    2.5432    0.6360 C   0  0  0  0  0  0  0  0  0  0  0  0
    5.1160    1.2899    0.6848 N   0  0  0  0  0  0  0  0  0  0  0  0
    4.0430    1.3963    1.6882 C   0  0  0  0  0  0  0  0  0  0  0  0
    3.3150    0.0575    1.8384 C   0  0  0  0  0  0  0  0  0  0  0  0
    2.7762   -0.5262    0.4998 C   0  0  0  0  0  0  0  0  0  0  0  0
    1.3792    0.0576    0.1034 C   0  0  0  0  0  0  0  0  0  0  0  0
    1.2421    1.4015   -0.6218 C   0  0  0  0  0  0  0  0  0  0  0  0
   -0.2502    1.7785   -0.7533 C   0  0  0  0  0  0  0  0  0  0  0  0
   -1.0326    0.9342   -1.7951 C   0  0  0  0  0  0  0  0  0  0  0  0
   -2.3980    0.6168   -1.3137 N   0  0  0  0  0  0  0  0  0  0  0  0
   -3.2845    1.7414   -1.0708 C   0  0  0  0  0  0  0  0  0  0  0  0
   -2.9568    2.8989   -1.4559 O   0  0  0  0  0  0  0  0  0  0  0  0
   -4.5501    1.6024   -0.3246 C   0  0  0  0  0  0  0  0  0  0  0  0
   -4.6728    2.1761    0.9494 C   0  0  0  0  0  0  0  0  0  0  0  0
   -5.8852    2.0928    1.6396 C   0  0  0  0  0  0  0  0  0  0  0  0
   -6.9702    1.4449    1.0390 C   0  0  0  0  0  0  0  0  0  0  0  0
   -6.8433    0.9177   -0.2102 N   0  0  0  0  0  0  0  0  0  0  0  0
   -5.6714    0.9860   -0.9016 C   0  0  0  0  0  0  0  0  0  0  0  0
   -2.9874   -0.7496   -1.3049 C   0  0  0  0  0  0  0  0  0  0  0  0
   -2.0227   -1.9621   -1.3196 C   0  0  0  0  0  0  0  0  0  0  0  0
   -1.3873   -2.2808    0.0590 C   0  0  0  0  0  0  0  0  0  0  0  0
   -2.3634   -2.6917    0.9888 O   0  0  0  0  0  0  0  0  0  0  0  0
   -0.2604   -3.3523   -0.0652 C   0  0  0  0  0  0  0  0  0  0  0  0
   -0.8059   -4.6034   -0.4001 O   0  0  0  0  0  0  0  0  0  0  0  0
    0.5512   -3.5075    1.2377 C   0  0  0  0  0  0  0  0  0  0  0  0
    1.3371   -2.3449    1.4948 O   0  0  0  0  0  0  0  0  0  0  0  0
    2.4851   -2.0064    0.7592 C   0  0  0  0  0  0  0  0  0  0  0  0
    3.2229   -2.9179    0.2923 O   0  0  0  0  0  0  0  0  0  0  0  0
    3.8372   -0.3677   -0.6358 C   0  0  0  0  0  0  0  0  0  0  0  0
    4.5431    0.9982   -0.6405 C   0  0  0  0  0  0  0  0  0  0  0  0
    5.2374    3.4046    0.3632 H   0  0  0  0  0  0  0  0  0  0  0  0
    6.7109    2.4601   -0.1059 H   0  0  0  0  0  0  0  0  0  0  0  0
    6.3565    2.7436    1.6247 H   0  0  0  0  0  0  0  0  0  0  0  0
    4.4824    1.6480    2.6806 H   0  0  0  0  0  0  0  0  0  0  0  0
    3.3340    2.2113    1.4390 H   0  0  0  0  0  0  0  0  0  0  0  0
    4.0492   -0.6555    2.2763 H   0  0  0  0  0  0  0  0  0  0  0  0
    2.4936    0.1672    2.5791 H   0  0  0  0  0  0  0  0  0  0  0  0
    0.9220   -0.6776   -0.5874 H   0  0  0  0  0  0  0  0  0  0  0  0
    0.7507    0.0997    1.0203 H   0  0  0  0  0  0  0  0  0  0  0  0
    1.6985    1.3517   -1.6331 H   0  0  0  0  0  0  0  0  0  0  0  0
    1.7329    2.2021   -0.0396 H   0  0  0  0  0  0  0  0  0  0  0  0
   -0.3143    2.8520   -1.0431 H   0  0  0  0  0  0  0  0  0  0  0  0
   -0.7346    1.6987    0.2471 H   0  0  0  0  0  0  0  0  0  0  0  0
   -0.4706    0.0387   -2.0852 H   0  0  0  0  0  0  0  0  0  0  0  0
   -1.1121    1.5200   -2.7384 H   0  0  0  0  0  0  0  0  0  0  0  0
   -3.8306    2.6905    1.4036 H   0  0  0  0  0  0  0  0  0  0  0  0
   -5.9853    2.5281    2.6281 H   0  0  0  0  0  0  0  0  0  0  0  0
   -7.9149    1.3732    1.5615 H   0  0  0  0  0  0  0  0  0  0  0  0
   -5.6200    0.5772   -1.9032 H   0  0  0  0  0  0  0  0  0  0  0  0
   -3.6403   -0.8653   -0.4119 H   0  0  0  0  0  0  0  0  0  0  0  0
   -3.6466   -0.8412   -2.1979 H   0  0  0  0  0  0  0  0  0  0  0  0
   -1.2601   -1.8854   -2.1167 H   0  0  0  0  0  0  0  0  0  0  0  0
   -2.6272   -2.8443   -1.6207 H   0  0  0  0  0  0  0  0  0  0  0  0
   -0.9533   -1.3433    0.4496 H   0  0  0  0  0  0  0  0  0  0  0  0
   -2.8592   -3.4565    0.5928 H   0  0  0  0  0  0  0  0  0  0  0  0
    0.4541   -3.0381   -0.8619 H   0  0  0  0  0  0  0  0  0  0  0  0
   -0.9513   -4.6012   -1.3845 H   0  0  0  0  0  0  0  0  0  0  0  0
   -0.1385   -3.6650    2.0929 H   0  0  0  0  0  0  0  0  0  0  0  0
    1.2114   -4.3993    1.1727 H   0  0  0  0  0  0  0  0  0  0  0  0
    4.6419   -1.1251   -0.5086 H   0  0  0  0  0  0  0  0  0  0  0  0
    3.3707   -0.5491   -1.6288 H   0  0  0  0  0  0  0  0  0  0  0  0
    3.8608    1.8095   -0.9654 H   0  0  0  0  0  0  0  0  0  0  0  0
    5.3590    0.9473   -1.3967 H   0  0  0  0  0  0  0  0  0  0  0  0
  1  2  1  0
  2  3  1  0
  3  4  1  0
  4  5  1  0
  5  6  1  0
  6  7  1  0
  7  8  1  0
  8  9  1  0
  9 10  1  0
 10 11  1  0
 11 12  2  0
 11 13  1  0
 13 14  2  0
 14 15  1  0
 15 16  2  0
 16 17  1  0
 17 18  2  0
 10 19  1  0
 19 20  1  0
 20 21  1  0
 21 22  1  0
 21 23  1  0
 23 24  1  0
 23 25  1  0
 25 26  1  0
 26 27  1  0
 27 28  2  0
  5 29  1  0
 29 30  1  0
 30  2  1  0
 27  5  1  0
 18 13  1  0
  1 31  1  0
  1 32  1  0
  1 33  1  0
  3 34  1  0
  3 35  1  0
  4 36  1  0
  4 37  1  0
  6 38  1  0
  6 39  1  0
  7 40  1  0
  7 41  1  0
  8 42  1  0
  8 43  1  0
  9 44  1  0
  9 45  1  0
 14 46  1  0
 15 47  1  0
 16 48  1  0
 18 49  1  0
 19 50  1  0
 19 51  1  0
 20 52  1  0
 20 53  1  0
 21 54  1  0
 22 55  1  0
 23 56  1  0
 24 57  1  0
 25 58  1  0
 25 59  1  0
 29 60  1  0
 29 61  1  0
 30 62  1  0
 30 63  1  0
M  END
$$$$
