
     RDKit          3D

 73 76  0  0  0  0  0  0  0  0999 V2000
    5.8857    2.7707    2.1780 C   0  0  0  0  0  0  0  0  0  0  0  0
    4.5280    2.2334    1.9860 N   0  0  0  0  0  0  0  0  0  0  0  0
    4.4811    0.7695    2.2539 C   0  0  0  0  0  0  0  0  0  0  0  0
    4.5693   -0.0696    0.9695 C   0  0  0  0  0  0  0  0  0  0  0  0
    3.4188    0.2659   -0.0049 C   0  0  0  0  0  0  0  0  0  0  0  0
    2.3276   -0.7014    0.1416 N   0  0  0  0  0  0  0  0  0  0  0  0
    2.1489   -1.7963   -0.7652 C   0  0  0  0  0  0  0  0  0  0  0  0
    3.1023   -2.1575   -1.5081 O   0  0  0  0  0  0  0  0  0  0  0  0
    0.8739   -2.5448   -0.8240 C   0  0  0  0  0  0  0  0  0  0  0  0
    0.9395   -3.9375   -0.6693 C   0  0  0  0  0  0  0  0  0  0  0  0
   -0.1948   -4.7270   -0.8316 C   0  0  0  0  0  0  0  0  0  0  0  0
   -1.4085   -4.1448   -1.1810 C   0  0  0  0  0  0  0  0  0  0  0  0
   -1.5130   -2.7502   -1.3409 C   0  0  0  0  0  0  0  0  0  0  0  0
   -0.3753   -1.9322   -1.1304 C   0  0  0  0  0  0  0  0  0  0  0  0
   -0.4975   -0.4460   -1.4176 C   0  0  0  0  0  0  0  0  0  0  0  0
   -1.5242    0.1917   -0.5603 N   0  0  0  0  0  0  0  0  0  0  0  0
   -2.1385    1.3775   -1.2161 C   0  0  0  0  0  0  0  0  0  0  0  0
   -1.2254    2.5889   -1.3130 C   0  0  0  0  0  0  0  0  0  0  0  0
   -0.1710    2.6348   -2.2465 C   0  0  0  0  0  0  0  0  0  0  0  0
    0.6749    3.7469   -2.3051 C   0  0  0  0  0  0  0  0  0  0  0  0
    0.4622    4.8349   -1.4523 C   0  0  0  0  0  0  0  0  0  0  0  0
   -0.6138    4.8235   -0.5587 C   0  0  0  0  0  0  0  0  0  0  0  0
   -1.4540    3.7091   -0.4887 C   0  0  0  0  0  0  0  0  0  0  0  0
   -1.0054    0.4674    0.7984 C   0  0  0  0  0  0  0  0  0  0  0  0
   -2.0967    0.8731    1.7630 C   0  0  0  0  0  0  0  0  0  0  0  0
   -2.1577    2.0770    2.1286 O   0  0  0  0  0  0  0  0  0  0  0  0
   -3.0209   -0.0664    2.3354 N   0  0  0  0  0  0  0  0  0  0  0  0
   -3.1604   -1.4605    1.9245 C   0  0  0  0  0  0  0  0  0  0  0  0
   -4.2265   -1.5856    0.8355 C   0  0  0  0  0  0  0  0  0  0  0  0
   -4.3731   -3.0475    0.3777 C   0  0  0  0  0  0  0  0  0  0  0  0
   -4.9008   -3.1728   -1.0607 C   0  0  0  0  0  0  0  0  0  0  0  0
   -3.9009   -2.8098   -2.1861 C   0  0  0  0  0  0  0  0  0  0  0  0
   -2.7211   -2.1403   -1.7288 O   0  0  0  0  0  0  0  0  0  0  0  0
    2.8794    1.6977    0.1941 C   0  0  0  0  0  0  0  0  0  0  0  0
    3.9978    2.6335    0.6598 C   0  0  0  0  0  0  0  0  0  0  0  0
    5.8997    3.8636    1.9814 H   0  0  0  0  0  0  0  0  0  0  0  0
    6.6139    2.2692    1.5027 H   0  0  0  0  0  0  0  0  0  0  0  0
    6.2085    2.6213    3.2320 H   0  0  0  0  0  0  0  0  0  0  0  0
    5.2890    0.4531    2.9524 H   0  0  0  0  0  0  0  0  0  0  0  0
    3.5242    0.5354    2.7706 H   0  0  0  0  0  0  0  0  0  0  0  0
    4.5633   -1.1518    1.2230 H   0  0  0  0  0  0  0  0  0  0  0  0
    5.5410    0.1438    0.4743 H   0  0  0  0  0  0  0  0  0  0  0  0
    3.8260    0.2124   -1.0392 H   0  0  0  0  0  0  0  0  0  0  0  0
    1.7393   -0.6694    1.0056 H   0  0  0  0  0  0  0  0  0  0  0  0
    1.8797   -4.4184   -0.4280 H   0  0  0  0  0  0  0  0  0  0  0  0
   -0.1281   -5.7999   -0.7053 H   0  0  0  0  0  0  0  0  0  0  0  0
   -2.2660   -4.7890   -1.3197 H   0  0  0  0  0  0  0  0  0  0  0  0
    0.4670    0.0885   -1.3270 H   0  0  0  0  0  0  0  0  0  0  0  0
   -0.7825   -0.3730   -2.4890 H   0  0  0  0  0  0  0  0  0  0  0  0
   -2.4946    1.1099   -2.2329 H   0  0  0  0  0  0  0  0  0  0  0  0
   -3.0659    1.6473   -0.6697 H   0  0  0  0  0  0  0  0  0  0  0  0
   -0.0047    1.8195   -2.9394 H   0  0  0  0  0  0  0  0  0  0  0  0
    1.4934    3.7693   -3.0143 H   0  0  0  0  0  0  0  0  0  0  0  0
    1.1172    5.6968   -1.5009 H   0  0  0  0  0  0  0  0  0  0  0  0
   -0.7979    5.6794    0.0812 H   0  0  0  0  0  0  0  0  0  0  0  0
   -2.2872    3.7271    0.1994 H   0  0  0  0  0  0  0  0  0  0  0  0
   -0.5144   -0.4349    1.2142 H   0  0  0  0  0  0  0  0  0  0  0  0
   -0.2245    1.2577    0.7627 H   0  0  0  0  0  0  0  0  0  0  0  0
   -3.6973    0.2892    3.0483 H   0  0  0  0  0  0  0  0  0  0  0  0
   -2.1933   -1.8658    1.5657 H   0  0  0  0  0  0  0  0  0  0  0  0
   -3.4648   -2.0661    2.8042 H   0  0  0  0  0  0  0  0  0  0  0  0
   -3.9519   -0.9248   -0.0085 H   0  0  0  0  0  0  0  0  0  0  0  0
   -5.2012   -1.2240    1.2288 H   0  0  0  0  0  0  0  0  0  0  0  0
   -5.0968   -3.5502    1.0586 H   0  0  0  0  0  0  0  0  0  0  0  0
   -3.4212   -3.6095    0.4826 H   0  0  0  0  0  0  0  0  0  0  0  0
   -5.8157   -2.5454   -1.1571 H   0  0  0  0  0  0  0  0  0  0  0  0
   -5.2230   -4.2270   -1.2165 H   0  0  0  0  0  0  0  0  0  0  0  0
   -4.4213   -2.1179   -2.8831 H   0  0  0  0  0  0  0  0  0  0  0  0
   -3.6369   -3.7010   -2.7981 H   0  0  0  0  0  0  0  0  0  0  0  0
    2.0762    1.7128    0.9609 H   0  0  0  0  0  0  0  0  0  0  0  0
    2.4483    2.0683   -0.7603 H   0  0  0  0  0  0  0  0  0  0  0  0
    3.5935    3.6666    0.7342 H   0  0  0  0  0  0  0  0  0  0  0  0
    4.7988    2.6315   -0.1147 H   0  0  0  0  0  0  0  0  0  0  0  0
  1  2  1  0
  2  3  1  0
  3  4  1  0
  4  5  1  0
  5  6  1  0
  6  7  1  0
  7  8  2  0
  7  9  1  0
  9 10  2  0
 10 11  1  0
 11 12  2  0
 12 13  1  0
 13 14  2  0
 14 15  1  0
 15 16  1  0
 16 17  1  0
 17 18  1  0
 18 19  2  0
 19 20  1  0
 20 21  2  0
 21 22  1  0
 22 23  2  0
 16 24  1  0
 24 25  1  0
 25 26  2  0
 25 27  1  0
 27 28  1  0
 28 29  1  0
 29 30  1  0
 30 31  1  0
 31 32  1  0
 32 33  1  0
  5 34  1  0
 34 35  1  0
 35  2  1  0
 14  9  1  0
 23 18  1  0
 33 13  1  0
  1 36  1  0
  1 37  1  0
  1 38  1  0
  3 39  1  0
  3 40  1  0
  4 41  1  0
  4 42  1  0
  5 43  1  0
  6 44  1  0
 10 45  1  0
 11 46  1  0
 12 47  1  0
 15 48  1  0
 15 49  1  0
 17 50  1  0
 17 51  1  0
 19 52  1  0
 20 53  1  0
 21 54  1  0
 22 55  1  0
 23 56  1  0
 24 57  1  0
 24 58  1  0
 27 59  1  0
 28 60  1  0
 28 61  1  0
 29 62  1  0
 29 63  1  0
 30 64  1  0
 30 65  1  0
 31 66  1  0
 31 67  1  0
 32 68  1  0
 32 69  1  0
 34 70  1  0
 34 71  1  0
 35 72  1  0
 35 73  1  0
M  END
$$$$
