
     RDKit          3D

 91 94  0  0  0  0  0  0  0  0999 V2000
    3.2790    3.7398    3.2275 C   0  0  0  0  0  0  0  0  0  0  0  0
    3.3343    3.5641    1.7061 C   0  0  0  0  0  0  0  0  0  0  0  0
    2.3434    2.5215    1.1256 C   0  0  2  0  0  0  0  0  0  0  0  0
    0.8699    2.7799    1.5295 C   0  0  0  0  0  0  0  0  0  0  0  0
    0.1993    3.9424    0.7710 C   0  0  0  0  0  0  0  0  0  0  0  0
   -0.4169    3.4860   -0.5342 C   0  0  0  0  0  0  0  0  0  0  0  0
    0.3815    3.4263   -1.6910 C   0  0  0  0  0  0  0  0  0  0  0  0
   -0.1536    2.9840   -2.9026 C   0  0  0  0  0  0  0  0  0  0  0  0
   -1.5010    2.6346   -2.9853 C   0  0  0  0  0  0  0  0  0  0  0  0
   -2.0245    2.2304   -4.1686 F   0  0  0  0  0  0  0  0  0  0  0  0
   -2.3161    2.7247   -1.8558 C   0  0  0  0  0  0  0  0  0  0  0  0
   -1.7834    3.1234   -0.6226 C   0  0  0  0  0  0  0  0  0  0  0  0
   -2.6363    3.2239    0.4833 O   0  0  0  0  0  0  0  0  0  0  0  0
   -2.7977    2.1828    1.4505 C   0  0  0  0  0  0  0  0  0  0  0  0
   -3.9707    1.2679    1.1008 C   0  0  0  0  0  0  0  0  0  0  0  0
   -3.6223    0.4172   -0.0500 N   0  0  0  0  0  0  0  0  0  0  0  0
   -3.6781   -1.0312    0.2386 C   0  0  1  0  0  0  0  0  0  0  0  0
   -5.1475   -1.5659    0.3014 C   0  0  0  0  0  0  0  0  0  0  0  0
   -5.2188   -2.9096    1.0424 C   0  0  0  0  0  0  0  0  0  0  0  0
   -5.8310   -1.6943   -1.0736 C   0  0  0  0  0  0  0  0  0  0  0  0
   -2.8338   -1.7680   -0.7775 C   0  0  0  0  0  0  0  0  0  0  0  0
   -2.8663   -1.4136   -1.9876 O   0  0  0  0  0  0  0  0  0  0  0  0
   -2.0368   -2.9087   -0.3994 N   0  0  0  0  0  0  0  0  0  0  0  0
   -2.2447   -4.1296   -1.1873 C   0  0  0  0  0  0  0  0  0  0  0  0
   -0.7449   -2.7519    0.3182 C   0  0  0  0  0  0  0  0  0  0  0  0
   -0.5680   -3.7769    1.4760 C   0  0  0  0  0  0  0  0  0  0  0  0
   -1.8280   -3.9387    2.3383 C   0  0  0  0  0  0  0  0  0  0  0  0
   -0.1934   -5.0239    0.9489 O   0  0  0  0  0  0  0  0  0  0  0  0
   -0.4937   -1.3311    0.7881 C   0  0  0  0  0  0  0  0  0  0  0  0
   -0.7591   -0.9850    1.9703 O   0  0  0  0  0  0  0  0  0  0  0  0
   -0.0227   -0.3417   -0.1312 N   0  0  0  0  0  0  0  0  0  0  0  0
    1.3981   -0.0615   -0.3684 C   0  0  2  0  0  0  0  0  0  0  0  0
    1.9842   -1.0641   -1.3801 C   0  0  0  0  0  0  0  0  0  0  0  0
    3.2436   -0.5238   -1.9973 C   0  0  0  0  0  0  0  0  0  0  0  0
    3.3112    0.3985   -3.0379 C   0  0  0  0  0  0  0  0  0  0  0  0
    4.5916    0.7731   -3.2557 N   0  0  0  0  0  0  0  0  0  0  0  0
    5.3320    0.1078   -2.3519 C   0  0  0  0  0  0  0  0  0  0  0  0
    6.7106    0.1937   -2.1643 C   0  0  0  0  0  0  0  0  0  0  0  0
    7.2816   -0.5696   -1.1300 C   0  0  0  0  0  0  0  0  0  0  0  0
    6.4714   -1.3908   -0.3149 C   0  0  0  0  0  0  0  0  0  0  0  0
    5.0832   -1.4592   -0.5281 C   0  0  0  0  0  0  0  0  0  0  0  0
    4.5447   -0.6914   -1.5618 C   0  0  0  0  0  0  0  0  0  0  0  0
    2.1904   -0.0477    0.9309 C   0  0  0  0  0  0  0  0  0  0  0  0
    2.3873   -1.1377    1.5318 O   0  0  0  0  0  0  0  0  0  0  0  0
    2.7381    1.1557    1.5039 N   0  0  0  0  0  0  0  0  0  0  0  0
    3.2884    2.7626    3.7515 H   0  0  0  0  0  0  0  0  0  0  0  0
    2.3740    4.3091    3.5229 H   0  0  0  0  0  0  0  0  0  0  0  0
    4.1645    4.3220    3.5620 H   0  0  0  0  0  0  0  0  0  0  0  0
    3.1593    4.5529    1.2313 H   0  0  0  0  0  0  0  0  0  0  0  0
    4.3662    3.2576    1.4265 H   0  0  0  0  0  0  0  0  0  0  0  0
    2.4527    2.6123    0.0290 H   0  0  0  0  0  0  0  0  0  0  0  0
    0.2854    1.8599    1.3582 H   0  0  0  0  0  0  0  0  0  0  0  0
    0.7929    2.9588    2.6206 H   0  0  0  0  0  0  0  0  0  0  0  0
   -0.5887    4.3822    1.4195 H   0  0  0  0  0  0  0  0  0  0  0  0
    0.9228    4.7627    0.5833 H   0  0  0  0  0  0  0  0  0  0  0  0
    1.4194    3.7302   -1.6616 H   0  0  0  0  0  0  0  0  0  0  0  0
    0.4741    2.9295   -3.7826 H   0  0  0  0  0  0  0  0  0  0  0  0
   -3.3697    2.4997   -1.9434 H   0  0  0  0  0  0  0  0  0  0  0  0
   -1.8777    1.5805    1.5540 H   0  0  0  0  0  0  0  0  0  0  0  0
   -3.0013    2.6564    2.4332 H   0  0  0  0  0  0  0  0  0  0  0  0
   -4.2246    0.6687    2.0054 H   0  0  0  0  0  0  0  0  0  0  0  0
   -4.8627    1.8904    0.8652 H   0  0  0  0  0  0  0  0  0  0  0  0
   -4.2539    0.6482   -0.8496 H   0  0  0  0  0  0  0  0  0  0  0  0
   -3.2114   -1.2081    1.2304 H   0  0  0  0  0  0  0  0  0  0  0  0
   -5.7520   -0.8473    0.8969 H   0  0  0  0  0  0  0  0  0  0  0  0
   -6.2776   -3.2282    1.1583 H   0  0  0  0  0  0  0  0  0  0  0  0
   -4.6741   -3.6989    0.4828 H   0  0  0  0  0  0  0  0  0  0  0  0
   -4.7810   -2.8152    2.0604 H   0  0  0  0  0  0  0  0  0  0  0  0
   -5.8094   -0.7349   -1.6284 H   0  0  0  0  0  0  0  0  0  0  0  0
   -6.8975   -1.9762   -0.9383 H   0  0  0  0  0  0  0  0  0  0  0  0
   -5.3437   -2.4791   -1.6893 H   0  0  0  0  0  0  0  0  0  0  0  0
   -2.1575   -5.0315   -0.5511 H   0  0  0  0  0  0  0  0  0  0  0  0
   -3.2625   -4.1463   -1.6338 H   0  0  0  0  0  0  0  0  0  0  0  0
   -1.4967   -4.1804   -2.0070 H   0  0  0  0  0  0  0  0  0  0  0  0
    0.0637   -2.9622   -0.4133 H   0  0  0  0  0  0  0  0  0  0  0  0
    0.2554   -3.4159    2.1356 H   0  0  0  0  0  0  0  0  0  0  0  0
   -2.6375   -4.4353    1.7651 H   0  0  0  0  0  0  0  0  0  0  0  0
   -1.5969   -4.5712    3.2204 H   0  0  0  0  0  0  0  0  0  0  0  0
   -2.1919   -2.9581    2.7039 H   0  0  0  0  0  0  0  0  0  0  0  0
    0.2054   -5.5503    1.6913 H   0  0  0  0  0  0  0  0  0  0  0  0
   -0.7245    0.3308   -0.5093 H   0  0  0  0  0  0  0  0  0  0  0  0
    1.4473    0.9301   -0.8532 H   0  0  0  0  0  0  0  0  0  0  0  0
    1.2461   -1.2375   -2.1944 H   0  0  0  0  0  0  0  0  0  0  0  0
    2.1862   -2.0468   -0.9039 H   0  0  0  0  0  0  0  0  0  0  0  0
    2.4650    0.7936   -3.5848 H   0  0  0  0  0  0  0  0  0  0  0  0
    4.9290    1.4601   -3.9659 H   0  0  0  0  0  0  0  0  0  0  0  0
    7.3221    0.8310   -2.7898 H   0  0  0  0  0  0  0  0  0  0  0  0
    8.3488   -0.5267   -0.9569 H   0  0  0  0  0  0  0  0  0  0  0  0
    6.9230   -1.9725    0.4781 H   0  0  0  0  0  0  0  0  0  0  0  0
    4.4615   -2.0917    0.0908 H   0  0  0  0  0  0  0  0  0  0  0  0
    3.4533    1.0234    2.2539 H   0  0  0  0  0  0  0  0  0  0  0  0
  1  2  1  0
  2  3  1  0
  3  4  1  0
  4  5  1  0
  5  6  1  0
  6  7  2  0
  7  8  1  0
  8  9  2  0
  9 10  1  0
  9 11  1  0
 11 12  2  0
 12 13  1  0
 13 14  1  0
 14 15  1  0
 15 16  1  0
 16 17  1  0
 17 18  1  0
 18 19  1  0
 18 20  1  0
 17 21  1  0
 21 22  2  0
 21 23  1  0
 23 24  1  0
 23 25  1  0
 25 26  1  0
 26 27  1  0
 26 28  1  0
 25 29  1  0
 29 30  2  0
 29 31  1  0
 31 32  1  0
 32 33  1  0
 33 34  1  0
 34 35  2  0
 35 36  1  0
 36 37  1  0
 37 38  2  0
 38 39  1  0
 39 40  2  0
 40 41  1  0
 41 42  2  0
 32 43  1  0
 43 44  2  0
 43 45  1  0
 45  3  1  0
 12  6  1  0
 42 34  1  0
 42 37  1  0
  1 46  1  0
  1 47  1  0
  1 48  1  0
  2 49  1  0
  2 50  1  0
  3 51  1  6
  4 52  1  0
  4 53  1  0
  5 54  1  0
  5 55  1  0
  7 56  1  0
  8 57  1  0
 11 58  1  0
 14 59  1  0
 14 60  1  0
 15 61  1  0
 15 62  1  0
 16 63  1  0
 17 64  1  1
 18 65  1  0
 19 66  1  0
 19 67  1  0
 19 68  1  0
 20 69  1  0
 20 70  1  0
 20 71  1  0
 24 72  1  0
 24 73  1  0
 24 74  1  0
 25 75  1  0
 26 76  1  0
 27 77  1  0
 27 78  1  0
 27 79  1  0
 28 80  1  0
 31 81  1  0
 32 82  1  6
 33 83  1  0
 33 84  1  0
 35 85  1  0
 36 86  1  0
 38 87  1  0
 39 88  1  0
 40 89  1  0
 41 90  1  0
 45 91  1  0
M  END
$$$$
