
     RDKit          3D

 68 70  0  0  0  0  0  0  0  0999 V2000
   -4.0127    2.4323   -2.3644 C   0  0  0  0  0  0  0  0  0  0  0  0
   -3.8783    3.3377   -1.2907 O   0  0  0  0  0  0  0  0  0  0  0  0
   -2.8206    2.9362   -0.4403 C   0  0  0  0  0  0  0  0  0  0  0  0
   -3.3277    2.0357    0.6560 C   0  0  0  0  0  0  0  0  0  0  0  0
   -4.4384    2.3039    1.1882 O   0  0  0  0  0  0  0  0  0  0  0  0
   -2.5215    0.9409    1.1558 N   0  0  0  0  0  0  0  0  0  0  0  0
   -3.0718   -0.0476    2.1044 C   0  0  0  0  0  0  0  0  0  0  0  0
   -4.4950   -0.5775    1.7785 C   0  0  0  0  0  0  0  0  0  0  0  0
   -4.7943   -0.9152    0.2973 C   0  0  0  0  0  0  0  0  0  0  0  0
   -4.7473   -2.4179   -0.0443 C   0  0  0  0  0  0  0  0  0  0  0  0
   -3.3641   -3.0749    0.1185 C   0  0  0  0  0  0  0  0  0  0  0  0
   -2.5146   -3.1462   -1.1653 C   0  0  0  0  0  0  0  0  0  0  0  0
   -2.2491   -1.8114   -1.8895 C   0  0  0  0  0  0  0  0  0  0  0  0
   -1.8734   -0.7051   -0.9976 N   0  0  0  0  0  0  0  0  0  0  0  0
   -0.6148   -0.9392   -0.2847 C   0  0  0  0  0  0  0  0  0  0  0  0
   -0.1828    0.2858    0.4985 C   0  0  0  0  0  0  0  0  0  0  0  0
    1.1985    0.5399    0.5963 C   0  0  0  0  0  0  0  0  0  0  0  0
    1.7003    1.6264    1.3391 C   0  0  0  0  0  0  0  0  0  0  0  0
    3.1266    1.8864    1.4173 N   0  0  0  0  0  0  0  0  0  0  0  0
    3.6183    3.2580    1.5969 C   0  0  0  0  0  0  0  0  0  0  0  0
    4.1125    0.8051    1.2714 C   0  0  0  0  0  0  0  0  0  0  0  0
    4.6641    0.7647   -0.1587 C   0  0  0  0  0  0  0  0  0  0  0  0
    5.5296   -0.4495   -0.3575 C   0  0  0  0  0  0  0  0  0  0  0  0
    6.9017   -0.3998   -0.0598 C   0  0  0  0  0  0  0  0  0  0  0  0
    7.6977   -1.5390   -0.2166 C   0  0  0  0  0  0  0  0  0  0  0  0
    7.1285   -2.7357   -0.6608 C   0  0  0  0  0  0  0  0  0  0  0  0
    5.7612   -2.7966   -0.9444 C   0  0  0  0  0  0  0  0  0  0  0  0
    4.9615   -1.6599   -0.7889 C   0  0  0  0  0  0  0  0  0  0  0  0
    0.7855    2.4578    2.0053 C   0  0  0  0  0  0  0  0  0  0  0  0
   -0.5836    2.2106    1.9359 C   0  0  0  0  0  0  0  0  0  0  0  0
   -1.0894    1.1342    1.1915 C   0  0  0  0  0  0  0  0  0  0  0  0
   -4.8918    2.7319   -2.9712 H   0  0  0  0  0  0  0  0  0  0  0  0
   -4.1904    1.3961   -2.0044 H   0  0  0  0  0  0  0  0  0  0  0  0
   -3.1188    2.4650   -3.0263 H   0  0  0  0  0  0  0  0  0  0  0  0
   -2.4051    3.8466    0.0393 H   0  0  0  0  0  0  0  0  0  0  0  0
   -1.9743    2.4669   -0.9924 H   0  0  0  0  0  0  0  0  0  0  0  0
   -3.1036    0.4174    3.1137 H   0  0  0  0  0  0  0  0  0  0  0  0
   -2.3728   -0.9018    2.1972 H   0  0  0  0  0  0  0  0  0  0  0  0
   -5.2338    0.1769    2.1224 H   0  0  0  0  0  0  0  0  0  0  0  0
   -4.6882   -1.4686    2.4143 H   0  0  0  0  0  0  0  0  0  0  0  0
   -4.1759   -0.3309   -0.3971 H   0  0  0  0  0  0  0  0  0  0  0  0
   -5.8343   -0.5823    0.0879 H   0  0  0  0  0  0  0  0  0  0  0  0
   -5.1144   -2.5674   -1.0831 H   0  0  0  0  0  0  0  0  0  0  0  0
   -5.4694   -2.9425    0.6195 H   0  0  0  0  0  0  0  0  0  0  0  0
   -2.7915   -2.6149    0.9369 H   0  0  0  0  0  0  0  0  0  0  0  0
   -3.5303   -4.1253    0.4437 H   0  0  0  0  0  0  0  0  0  0  0  0
   -1.5392   -3.6149   -0.9115 H   0  0  0  0  0  0  0  0  0  0  0  0
   -3.0134   -3.8341   -1.8825 H   0  0  0  0  0  0  0  0  0  0  0  0
   -3.1742   -1.5217   -2.4348 H   0  0  0  0  0  0  0  0  0  0  0  0
   -1.4607   -1.9666   -2.6605 H   0  0  0  0  0  0  0  0  0  0  0  0
   -1.7421    0.1356   -1.6083 H   0  0  0  0  0  0  0  0  0  0  0  0
    0.1754   -1.2255   -1.0161 H   0  0  0  0  0  0  0  0  0  0  0  0
   -0.7242   -1.7734    0.4364 H   0  0  0  0  0  0  0  0  0  0  0  0
    1.8819   -0.1147    0.0746 H   0  0  0  0  0  0  0  0  0  0  0  0
    4.7157    3.3185    1.4347 H   0  0  0  0  0  0  0  0  0  0  0  0
    3.4104    3.6031    2.6307 H   0  0  0  0  0  0  0  0  0  0  0  0
    3.1254    3.9347    0.8672 H   0  0  0  0  0  0  0  0  0  0  0  0
    4.9514    0.9667    1.9838 H   0  0  0  0  0  0  0  0  0  0  0  0
    3.6591   -0.1723    1.5461 H   0  0  0  0  0  0  0  0  0  0  0  0
    3.8301    0.7556   -0.8928 H   0  0  0  0  0  0  0  0  0  0  0  0
    5.2552    1.6850   -0.3570 H   0  0  0  0  0  0  0  0  0  0  0  0
    7.3532    0.5190    0.2934 H   0  0  0  0  0  0  0  0  0  0  0  0
    8.7552   -1.4948    0.0095 H   0  0  0  0  0  0  0  0  0  0  0  0
    7.7458   -3.6168   -0.7808 H   0  0  0  0  0  0  0  0  0  0  0  0
    5.3200   -3.7255   -1.2818 H   0  0  0  0  0  0  0  0  0  0  0  0
    3.9017   -1.7226   -1.0034 H   0  0  0  0  0  0  0  0  0  0  0  0
    1.1236    3.2952    2.5992 H   0  0  0  0  0  0  0  0  0  0  0  0
   -1.2623    2.8624    2.4719 H   0  0  0  0  0  0  0  0  0  0  0  0
  1  2  1  0
  2  3  1  0
  3  4  1  0
  4  5  2  0
  4  6  1  0
  6  7  1  0
  7  8  1  0
  8  9  1  0
  9 10  1  0
 10 11  1  0
 11 12  1  0
 12 13  1  0
 13 14  1  0
 14 15  1  0
 15 16  1  0
 16 17  2  0
 17 18  1  0
 18 19  1  0
 19 20  1  0
 19 21  1  0
 21 22  1  0
 22 23  1  0
 23 24  2  0
 24 25  1  0
 25 26  2  0
 26 27  1  0
 27 28  2  0
 18 29  2  0
 29 30  1  0
 30 31  2  0
 31  6  1  0
 31 16  1  0
 28 23  1  0
  1 32  1  0
  1 33  1  0
  1 34  1  0
  3 35  1  0
  3 36  1  0
  7 37  1  0
  7 38  1  0
  8 39  1  0
  8 40  1  0
  9 41  1  0
  9 42  1  0
 10 43  1  0
 10 44  1  0
 11 45  1  0
 11 46  1  0
 12 47  1  0
 12 48  1  0
 13 49  1  0
 13 50  1  0
 14 51  1  0
 15 52  1  0
 15 53  1  0
 17 54  1  0
 20 55  1  0
 20 56  1  0
 20 57  1  0
 21 58  1  0
 21 59  1  0
 22 60  1  0
 22 61  1  0
 24 62  1  0
 25 63  1  0
 26 64  1  0
 27 65  1  0
 28 66  1  0
 29 67  1  0
 30 68  1  0
M  END
$$$$
