
     RDKit          3D

 44 48  0  0  0  0  0  0  0  0999 V2000
   -2.7395    2.0028   -1.4943 C   0  0  0  0  0  0  0  0  0  0  0  0
   -1.7421    1.2496   -0.6086 C   0  0  1  0  0  0  0  0  0  0  0  0
   -1.1283    2.1718    0.3525 N   0  0  0  0  0  0  0  0  0  0  0  0
    0.2955    2.3221    0.4649 C   0  0  0  0  0  0  0  0  0  0  0  0
    1.1204    1.2631    0.2004 N   0  0  0  0  0  0  0  0  0  0  0  0
    2.4635    1.4403    0.2710 C   0  0  0  0  0  0  0  0  0  0  0  0
    3.4680    0.5344    0.0195 C   0  0  0  0  0  0  0  0  0  0  0  0
    4.6325    1.2861    0.1551 C   0  0  0  0  0  0  0  0  0  0  0  0
    4.3205    2.5638    0.4899 N   0  0  0  0  0  0  0  0  0  0  0  0
    3.0008    2.6295    0.5539 N   0  0  0  0  0  0  0  0  0  0  0  0
    2.2472    3.7160    0.8463 C   0  0  0  0  0  0  0  0  0  0  0  0
    0.8517    3.5744    0.8200 C   0  0  0  0  0  0  0  0  0  0  0  0
    0.0568    4.6410    1.0857 F   0  0  0  0  0  0  0  0  0  0  0  0
    3.3430   -0.9020   -0.2644 C   0  0  0  0  0  0  0  0  0  0  0  0
    4.2249   -1.4904   -0.9456 O   0  0  0  0  0  0  0  0  0  0  0  0
    2.2274   -1.6296    0.2582 N   0  0  0  0  0  0  0  0  0  0  0  0
    1.7212   -2.8576   -0.3620 C   0  0  1  0  0  0  0  0  0  0  0  0
    0.3509   -3.2394    0.1965 C   0  0  0  0  0  0  0  0  0  0  0  0
   -0.3011   -2.7733   -1.1041 C   0  0  2  0  0  0  0  0  0  0  0  0
    1.0795   -2.5766   -1.7199 C   0  0  0  0  0  0  0  0  0  0  0  0
   -0.9387   -1.5034   -0.9673 O   0  0  0  0  0  0  0  0  0  0  0  0
   -2.0125   -1.2392   -0.1118 C   0  0  0  0  0  0  0  0  0  0  0  0
   -2.6528   -2.2603    0.5240 N   0  0  0  0  0  0  0  0  0  0  0  0
   -3.6751   -2.0402    1.3904 C   0  0  0  0  0  0  0  0  0  0  0  0
   -4.0935   -0.7377    1.6592 C   0  0  0  0  0  0  0  0  0  0  0  0
   -5.1071   -0.5111    2.5307 F   0  0  0  0  0  0  0  0  0  0  0  0
   -3.4614    0.3302    1.0213 C   0  0  0  0  0  0  0  0  0  0  0  0
   -2.4152    0.0942    0.1124 C   0  0  0  0  0  0  0  0  0  0  0  0
   -3.5386    2.4772   -0.8864 H   0  0  0  0  0  0  0  0  0  0  0  0
   -3.2059    1.3053   -2.2227 H   0  0  0  0  0  0  0  0  0  0  0  0
   -2.2109    2.7992   -2.0603 H   0  0  0  0  0  0  0  0  0  0  0  0
   -0.9581    0.8693   -1.2982 H   0  0  0  0  0  0  0  0  0  0  0  0
   -1.7477    2.8168    0.8943 H   0  0  0  0  0  0  0  0  0  0  0  0
    5.6440    0.9194    0.0416 H   0  0  0  0  0  0  0  0  0  0  0  0
    2.7087    4.6666    1.0820 H   0  0  0  0  0  0  0  0  0  0  0  0
    1.7286   -1.2215    1.0810 H   0  0  0  0  0  0  0  0  0  0  0  0
    2.4625   -3.6864   -0.3616 H   0  0  0  0  0  0  0  0  0  0  0  0
    0.0318   -2.6729    1.0977 H   0  0  0  0  0  0  0  0  0  0  0  0
    0.2554   -4.3395    0.3274 H   0  0  0  0  0  0  0  0  0  0  0  0
   -0.9323   -3.5355   -1.6109 H   0  0  0  0  0  0  0  0  0  0  0  0
    1.2559   -1.5475   -2.1058 H   0  0  0  0  0  0  0  0  0  0  0  0
    1.3181   -3.3704   -2.4610 H   0  0  0  0  0  0  0  0  0  0  0  0
   -4.1577   -2.8780    1.8758 H   0  0  0  0  0  0  0  0  0  0  0  0
   -3.7903    1.3394    1.2333 H   0  0  0  0  0  0  0  0  0  0  0  0
  1  2  1  0
  2  3  1  0
  3  4  1  0
  4  5  2  0
  5  6  1  0
  6  7  2  0
  7  8  1  0
  8  9  2  0
  9 10  1  0
 10 11  1  0
 11 12  2  0
 12 13  1  0
  7 14  1  0
 14 15  2  0
 14 16  1  0
 16 17  1  0
 17 18  1  0
 18 19  1  0
 19 20  1  0
 19 21  1  0
 21 22  1  0
 22 23  2  0
 23 24  1  0
 24 25  2  0
 25 26  1  0
 25 27  1  0
 27 28  2  0
 28  2  1  0
 12  4  1  0
 20 17  1  0
 28 22  1  0
 10  6  1  0
  1 29  1  0
  1 30  1  0
  1 31  1  0
  2 32  1  6
  3 33  1  0
  8 34  1  0
 11 35  1  0
 16 36  1  0
 17 37  1  6
 18 38  1  0
 18 39  1  0
 19 40  1  6
 20 41  1  0
 20 42  1  0
 24 43  1  0
 27 44  1  0
M  END
$$$$
