
     RDKit          3D

 85 87  0  0  0  0  0  0  0  0999 V2000
    2.0807   -2.6651    1.5481 C   0  0  0  0  0  0  0  0  0  0  0  0
    1.0110   -3.0861    0.5356 C   0  0  0  0  0  0  0  0  0  0  0  0
    1.4771   -4.3462   -0.2153 C   0  0  0  0  0  0  0  0  0  0  0  0
    0.6213   -1.8987   -0.3963 C   0  0  1  0  0  0  0  0  0  0  0  0
    1.6921   -1.6020   -1.3578 N   0  0  0  0  0  0  0  0  0  0  0  0
    2.2585   -0.2934   -1.5225 C   0  0  0  0  0  0  0  0  0  0  0  0
    2.3744    0.1782   -2.6846 O   0  0  0  0  0  0  0  0  0  0  0  0
    2.7913    0.4980   -0.3511 C   0  0  1  0  0  0  0  0  0  0  0  0
    4.3349    0.6127   -0.4383 C   0  0  0  0  0  0  0  0  0  0  0  0
    5.0096   -0.6944   -0.1082 C   0  0  0  0  0  0  0  0  0  0  0  0
    5.2424   -1.6502   -1.1109 C   0  0  0  0  0  0  0  0  0  0  0  0
    5.8172   -2.8838   -0.7883 C   0  0  0  0  0  0  0  0  0  0  0  0
    6.1620   -3.1712    0.5356 C   0  0  0  0  0  0  0  0  0  0  0  0
    5.9394   -2.2235    1.5384 C   0  0  0  0  0  0  0  0  0  0  0  0
    6.2747   -2.5037    2.8210 F   0  0  0  0  0  0  0  0  0  0  0  0
    5.3625   -0.9900    1.2200 C   0  0  0  0  0  0  0  0  0  0  0  0
    2.1533    1.8277   -0.3520 N   0  0  0  0  0  0  0  0  0  0  0  0
    2.0858    2.4129    0.9955 C   0  0  0  0  0  0  0  0  0  0  0  0
    1.3439    3.7460    0.9541 C   0  0  0  0  0  0  0  0  0  0  0  0
    0.0646    3.5450    0.3620 O   0  0  0  0  0  0  0  0  0  0  0  0
   -0.8173    4.5684   -0.0095 C   0  0  0  0  0  0  0  0  0  0  0  0
   -0.6593    5.8854    0.4616 C   0  0  0  0  0  0  0  0  0  0  0  0
   -1.5257    6.8951    0.0378 C   0  0  0  0  0  0  0  0  0  0  0  0
   -2.5514    6.6061   -0.8613 C   0  0  0  0  0  0  0  0  0  0  0  0
   -2.7232    5.3021   -1.3300 C   0  0  0  0  0  0  0  0  0  0  0  0
   -1.8772    4.2671   -0.8928 C   0  0  0  0  0  0  0  0  0  0  0  0
   -2.0669    2.8609   -1.4316 C   0  0  0  0  0  0  0  0  0  0  0  0
   -3.1991    2.0526   -0.7496 C   0  0  2  0  0  0  0  0  0  0  0  0
   -4.5876    2.6407   -1.0411 C   0  0  0  0  0  0  0  0  0  0  0  0
   -3.0087    1.8769    0.7741 C   0  0  0  0  0  0  0  0  0  0  0  0
   -1.8130    1.0995    1.1039 N   0  0  0  0  0  0  0  0  0  0  0  0
   -1.8267   -0.3273    1.2754 C   0  0  0  0  0  0  0  0  0  0  0  0
   -1.1233   -0.8353    2.1925 O   0  0  0  0  0  0  0  0  0  0  0  0
   -2.5822   -1.2278    0.3256 C   0  0  2  0  0  0  0  0  0  0  0  0
   -2.9454   -2.5961    0.9414 C   0  0  0  0  0  0  0  0  0  0  0  0
   -3.5619   -3.4906   -0.0666 N   0  0  0  0  0  0  0  0  0  0  0  0
   -4.9966   -3.2008   -0.2330 C   0  0  0  0  0  0  0  0  0  0  0  0
   -3.3883   -4.8979    0.3264 C   0  0  0  0  0  0  0  0  0  0  0  0
   -1.8583   -1.3786   -0.9461 N   0  0  0  0  0  0  0  0  0  0  0  0
   -0.6702   -2.1660   -1.1474 C   0  0  0  0  0  0  0  0  0  0  0  0
   -0.6776   -3.0275   -2.0666 O   0  0  0  0  0  0  0  0  0  0  0  0
    1.7490   -1.7718    2.1186 H   0  0  0  0  0  0  0  0  0  0  0  0
    2.2633   -3.4842    2.2747 H   0  0  0  0  0  0  0  0  0  0  0  0
    3.0297   -2.4389    1.0263 H   0  0  0  0  0  0  0  0  0  0  0  0
    0.1231   -3.3742    1.1293 H   0  0  0  0  0  0  0  0  0  0  0  0
    2.4010   -4.1473   -0.8001 H   0  0  0  0  0  0  0  0  0  0  0  0
    1.7005   -5.1572    0.5106 H   0  0  0  0  0  0  0  0  0  0  0  0
    0.6857   -4.7251   -0.8905 H   0  0  0  0  0  0  0  0  0  0  0  0
    0.4611   -1.0037    0.2336 H   0  0  0  0  0  0  0  0  0  0  0  0
    1.8563   -2.2822   -2.1344 H   0  0  0  0  0  0  0  0  0  0  0  0
    2.5366   -0.0385    0.5861 H   0  0  0  0  0  0  0  0  0  0  0  0
    4.6994    1.3894    0.2667 H   0  0  0  0  0  0  0  0  0  0  0  0
    4.6424    0.9534   -1.4519 H   0  0  0  0  0  0  0  0  0  0  0  0
    4.9733   -1.4420   -2.1385 H   0  0  0  0  0  0  0  0  0  0  0  0
    5.9926   -3.6193   -1.5630 H   0  0  0  0  0  0  0  0  0  0  0  0
    6.6034   -4.1271    0.7833 H   0  0  0  0  0  0  0  0  0  0  0  0
    5.1789   -0.2703    2.0074 H   0  0  0  0  0  0  0  0  0  0  0  0
    2.6839    2.4764   -0.9816 H   0  0  0  0  0  0  0  0  0  0  0  0
    3.1047    2.5799    1.4053 H   0  0  0  0  0  0  0  0  0  0  0  0
    1.5344    1.7308    1.6786 H   0  0  0  0  0  0  0  0  0  0  0  0
    1.2240    4.1343    1.9891 H   0  0  0  0  0  0  0  0  0  0  0  0
    1.9280    4.4763    0.3503 H   0  0  0  0  0  0  0  0  0  0  0  0
    0.1327    6.1373    1.1520 H   0  0  0  0  0  0  0  0  0  0  0  0
   -1.3944    7.9062    0.4019 H   0  0  0  0  0  0  0  0  0  0  0  0
   -3.2100    7.3944   -1.2022 H   0  0  0  0  0  0  0  0  0  0  0  0
   -3.5079    5.1031   -2.0481 H   0  0  0  0  0  0  0  0  0  0  0  0
   -2.2774    2.9224   -2.5227 H   0  0  0  0  0  0  0  0  0  0  0  0
   -1.1204    2.2821   -1.3570 H   0  0  0  0  0  0  0  0  0  0  0  0
   -3.1890    1.0542   -1.2253 H   0  0  0  0  0  0  0  0  0  0  0  0
   -4.7258    2.7974   -2.1322 H   0  0  0  0  0  0  0  0  0  0  0  0
   -5.3731    1.9360   -0.6958 H   0  0  0  0  0  0  0  0  0  0  0  0
   -4.7361    3.6026   -0.5083 H   0  0  0  0  0  0  0  0  0  0  0  0
   -2.9367    2.8768    1.2536 H   0  0  0  0  0  0  0  0  0  0  0  0
   -3.9004    1.3797    1.2159 H   0  0  0  0  0  0  0  0  0  0  0  0
   -1.0317    1.6117    1.5685 H   0  0  0  0  0  0  0  0  0  0  0  0
   -3.5491   -0.7310    0.1166 H   0  0  0  0  0  0  0  0  0  0  0  0
   -3.6252   -2.4432    1.8112 H   0  0  0  0  0  0  0  0  0  0  0  0
   -2.0242   -3.0570    1.3487 H   0  0  0  0  0  0  0  0  0  0  0  0
   -5.1448   -2.1681   -0.6060 H   0  0  0  0  0  0  0  0  0  0  0  0
   -5.5508   -3.3295    0.7236 H   0  0  0  0  0  0  0  0  0  0  0  0
   -5.4382   -3.8789   -0.9949 H   0  0  0  0  0  0  0  0  0  0  0  0
   -2.3069   -5.1508    0.3673 H   0  0  0  0  0  0  0  0  0  0  0  0
   -3.8451   -5.0960    1.3215 H   0  0  0  0  0  0  0  0  0  0  0  0
   -3.8495   -5.5723   -0.4279 H   0  0  0  0  0  0  0  0  0  0  0  0
   -2.4042   -1.1548   -1.8083 H   0  0  0  0  0  0  0  0  0  0  0  0
  1  2  1  0
  2  3  1  0
  2  4  1  0
  4  5  1  0
  5  6  1  0
  6  7  2  0
  6  8  1  0
  8  9  1  0
  9 10  1  0
 10 11  2  0
 11 12  1  0
 12 13  2  0
 13 14  1  0
 14 15  1  0
 14 16  2  0
  8 17  1  0
 17 18  1  0
 18 19  1  0
 19 20  1  0
 20 21  1  0
 21 22  2  0
 22 23  1  0
 23 24  2  0
 24 25  1  0
 25 26  2  0
 26 27  1  0
 27 28  1  0
 28 29  1  0
 28 30  1  0
 30 31  1  0
 31 32  1  0
 32 33  2  0
 32 34  1  0
 34 35  1  0
 35 36  1  0
 36 37  1  0
 36 38  1  0
 34 39  1  0
 39 40  1  0
 40 41  2  0
 40  4  1  0
 16 10  1  0
 26 21  1  0
  1 42  1  0
  1 43  1  0
  1 44  1  0
  2 45  1  0
  3 46  1  0
  3 47  1  0
  3 48  1  0
  4 49  1  1
  5 50  1  0
  8 51  1  1
  9 52  1  0
  9 53  1  0
 11 54  1  0
 12 55  1  0
 13 56  1  0
 16 57  1  0
 17 58  1  0
 18 59  1  0
 18 60  1  0
 19 61  1  0
 19 62  1  0
 22 63  1  0
 23 64  1  0
 24 65  1  0
 25 66  1  0
 27 67  1  0
 27 68  1  0
 28 69  1  6
 29 70  1  0
 29 71  1  0
 29 72  1  0
 30 73  1  0
 30 74  1  0
 31 75  1  0
 34 76  1  6
 35 77  1  0
 35 78  1  0
 37 79  1  0
 37 80  1  0
 37 81  1  0
 38 82  1  0
 38 83  1  0
 38 84  1  0
 39 85  1  0
M  END
$$$$
