
     RDKit          3D

 73 75  0  0  0  0  0  0  0  0999 V2000
   -6.8349   -0.0761   -2.0945 C   0  0  0  0  0  0  0  0  0  0  0  0
   -5.3876   -0.3067   -2.5136 C   0  0  0  0  0  0  0  0  0  0  0  0
   -4.6980   -1.2130   -1.5279 C   0  0  0  0  0  0  0  0  0  0  0  0
   -4.9729   -2.4447   -1.5594 O   0  0  0  0  0  0  0  0  0  0  0  0
   -3.8008   -0.7165   -0.5145 N   0  0  0  0  0  0  0  0  0  0  0  0
   -3.0500    0.5374   -0.6894 C   0  0  0  0  0  0  0  0  0  0  0  0
   -3.7683    1.7457   -0.0758 C   0  0  0  0  0  0  0  0  0  0  0  0
   -3.5487    1.9393    1.4422 C   0  0  0  0  0  0  0  0  0  0  0  0
   -2.1416    2.1445    1.8627 N   0  0  0  0  0  0  0  0  0  0  0  0
   -1.4218    3.2518    1.2147 C   0  0  0  0  0  0  0  0  0  0  0  0
   -1.3759    0.9450    2.2976 C   0  0  0  0  0  0  0  0  0  0  0  0
   -0.0757    0.6519    1.4999 C   0  0  0  0  0  0  0  0  0  0  0  0
    0.1869   -0.8587    1.3055 C   0  0  0  0  0  0  0  0  0  0  0  0
   -0.4015   -1.3412    0.0402 N   0  0  0  0  0  0  0  0  0  0  0  0
    0.2280   -0.9832   -1.2125 C   0  0  0  0  0  0  0  0  0  0  0  0
   -0.4604   -0.9102   -2.2663 O   0  0  0  0  0  0  0  0  0  0  0  0
    1.6774   -0.7585   -1.3042 C   0  0  0  0  0  0  0  0  0  0  0  0
    2.1954    0.5432   -1.2745 C   0  0  0  0  0  0  0  0  0  0  0  0
    3.5770    0.7483   -1.3119 C   0  0  0  0  0  0  0  0  0  0  0  0
    4.4554   -0.3486   -1.4314 C   0  0  0  0  0  0  0  0  0  0  0  0
    5.8485   -0.1891   -1.4890 O   0  0  0  0  0  0  0  0  0  0  0  0
    6.5236    1.0468   -1.2388 C   0  0  0  0  0  0  0  0  0  0  0  0
    8.0438    0.8463   -1.3233 C   0  0  0  0  0  0  0  0  0  0  0  0
    8.5255   -0.1528   -0.2623 C   0  0  0  0  0  0  0  0  0  0  0  0
    8.7703    2.1893   -1.1602 C   0  0  0  0  0  0  0  0  0  0  0  0
    3.9286   -1.6459   -1.4954 C   0  0  0  0  0  0  0  0  0  0  0  0
    2.5484   -1.8531   -1.4092 C   0  0  0  0  0  0  0  0  0  0  0  0
   -1.4003   -2.4252    0.0157 C   0  0  0  0  0  0  0  0  0  0  0  0
   -2.5246   -2.2368    1.0107 C   0  0  0  0  0  0  0  0  0  0  0  0
   -2.4644   -2.9324    2.2360 C   0  0  0  0  0  0  0  0  0  0  0  0
   -3.5258   -2.8726    3.1413 C   0  0  0  0  0  0  0  0  0  0  0  0
   -3.4476   -3.5445    4.3174 F   0  0  0  0  0  0  0  0  0  0  0  0
   -4.6707   -2.1355    2.8296 C   0  0  0  0  0  0  0  0  0  0  0  0
   -5.7140   -2.1000    3.6954 F   0  0  0  0  0  0  0  0  0  0  0  0
   -4.7456   -1.4378    1.6214 C   0  0  0  0  0  0  0  0  0  0  0  0
   -3.6747   -1.4566    0.7145 C   0  0  0  0  0  0  0  0  0  0  0  0
   -6.8793    0.3717   -1.0786 H   0  0  0  0  0  0  0  0  0  0  0  0
   -7.3287    0.6192   -2.8101 H   0  0  0  0  0  0  0  0  0  0  0  0
   -7.3942   -1.0337   -2.0998 H   0  0  0  0  0  0  0  0  0  0  0  0
   -5.3738   -0.7805   -3.5178 H   0  0  0  0  0  0  0  0  0  0  0  0
   -4.8938    0.6773   -2.6014 H   0  0  0  0  0  0  0  0  0  0  0  0
   -2.8513    0.7195   -1.7622 H   0  0  0  0  0  0  0  0  0  0  0  0
   -2.0606    0.4482   -0.2454 H   0  0  0  0  0  0  0  0  0  0  0  0
   -4.8598    1.6541   -0.2585 H   0  0  0  0  0  0  0  0  0  0  0  0
   -3.4392    2.6669   -0.6021 H   0  0  0  0  0  0  0  0  0  0  0  0
   -4.0075    1.1063    2.0092 H   0  0  0  0  0  0  0  0  0  0  0  0
   -4.1253    2.8390    1.7493 H   0  0  0  0  0  0  0  0  0  0  0  0
   -1.2448    3.0412    0.1402 H   0  0  0  0  0  0  0  0  0  0  0  0
   -0.4486    3.4242    1.7221 H   0  0  0  0  0  0  0  0  0  0  0  0
   -2.0118    4.1881    1.3103 H   0  0  0  0  0  0  0  0  0  0  0  0
   -2.0335    0.0557    2.3102 H   0  0  0  0  0  0  0  0  0  0  0  0
   -1.0947    1.0890    3.3655 H   0  0  0  0  0  0  0  0  0  0  0  0
    0.7807    1.0918    2.0561 H   0  0  0  0  0  0  0  0  0  0  0  0
   -0.0781    1.1425    0.5092 H   0  0  0  0  0  0  0  0  0  0  0  0
    1.2825   -1.0386    1.2952 H   0  0  0  0  0  0  0  0  0  0  0  0
   -0.1887   -1.4332    2.1764 H   0  0  0  0  0  0  0  0  0  0  0  0
    1.5349    1.3995   -1.1944 H   0  0  0  0  0  0  0  0  0  0  0  0
    3.9501    1.7618   -1.2578 H   0  0  0  0  0  0  0  0  0  0  0  0
    6.2494    1.4280   -0.2285 H   0  0  0  0  0  0  0  0  0  0  0  0
    6.2138    1.7957   -2.0008 H   0  0  0  0  0  0  0  0  0  0  0  0
    8.2924    0.4358   -2.3271 H   0  0  0  0  0  0  0  0  0  0  0  0
    8.2871    0.2165    0.7595 H   0  0  0  0  0  0  0  0  0  0  0  0
    9.6248   -0.2966   -0.3420 H   0  0  0  0  0  0  0  0  0  0  0  0
    8.0405   -1.1401   -0.4105 H   0  0  0  0  0  0  0  0  0  0  0  0
    9.8666    2.0454   -1.2510 H   0  0  0  0  0  0  0  0  0  0  0  0
    8.5498    2.6394   -0.1678 H   0  0  0  0  0  0  0  0  0  0  0  0
    8.4497    2.8972   -1.9562 H   0  0  0  0  0  0  0  0  0  0  0  0
    4.5901   -2.4992   -1.5942 H   0  0  0  0  0  0  0  0  0  0  0  0
    2.1556   -2.8642   -1.4322 H   0  0  0  0  0  0  0  0  0  0  0  0
   -0.8788   -3.3900    0.2025 H   0  0  0  0  0  0  0  0  0  0  0  0
   -1.8478   -2.5278   -0.9977 H   0  0  0  0  0  0  0  0  0  0  0  0
   -1.5954   -3.5361    2.4829 H   0  0  0  0  0  0  0  0  0  0  0  0
   -5.6354   -0.8640    1.3927 H   0  0  0  0  0  0  0  0  0  0  0  0
  1  2  1  0
  2  3  1  0
  3  4  2  0
  3  5  1  0
  5  6  1  0
  6  7  1  0
  7  8  1  0
  8  9  1  0
  9 10  1  0
  9 11  1  0
 11 12  1  0
 12 13  1  0
 13 14  1  0
 14 15  1  0
 15 16  2  0
 15 17  1  0
 17 18  2  0
 18 19  1  0
 19 20  2  0
 20 21  1  0
 21 22  1  0
 22 23  1  0
 23 24  1  0
 23 25  1  0
 20 26  1  0
 26 27  2  0
 14 28  1  0
 28 29  1  0
 29 30  2  0
 30 31  1  0
 31 32  1  0
 31 33  2  0
 33 34  1  0
 33 35  1  0
 35 36  2  0
 36  5  1  0
 27 17  1  0
 36 29  1  0
  1 37  1  0
  1 38  1  0
  1 39  1  0
  2 40  1  0
  2 41  1  0
  6 42  1  0
  6 43  1  0
  7 44  1  0
  7 45  1  0
  8 46  1  0
  8 47  1  0
 10 48  1  0
 10 49  1  0
 10 50  1  0
 11 51  1  0
 11 52  1  0
 12 53  1  0
 12 54  1  0
 13 55  1  0
 13 56  1  0
 18 57  1  0
 19 58  1  0
 22 59  1  0
 22 60  1  0
 23 61  1  0
 24 62  1  0
 24 63  1  0
 24 64  1  0
 25 65  1  0
 25 66  1  0
 25 67  1  0
 26 68  1  0
 27 69  1  0
 28 70  1  0
 28 71  1  0
 30 72  1  0
 35 73  1  0
M  END
$$$$
