
     RDKit          3D

 62 65  0  0  0  0  0  0  0  0999 V2000
    3.0331   -2.9976   -2.6708 F   0  0  0  0  0  0  0  0  0  0  0  0
    3.7232   -2.4823   -1.6214 C   0  0  0  0  0  0  0  0  0  0  0  0
    4.7659   -3.2274   -1.0608 C   0  0  0  0  0  0  0  0  0  0  0  0
    5.4851   -2.7229    0.0261 C   0  0  0  0  0  0  0  0  0  0  0  0
    5.1646   -1.4704    0.5568 C   0  0  0  0  0  0  0  0  0  0  0  0
    4.1271   -0.7183   -0.0028 C   0  0  0  0  0  0  0  0  0  0  0  0
    3.3985   -1.2159   -1.0969 C   0  0  0  0  0  0  0  0  0  0  0  0
    2.2699   -0.3990   -1.6775 C   0  0  0  0  0  0  0  0  0  0  0  0
    1.1597   -0.2327   -0.7134 N   0  0  0  0  0  0  0  0  0  0  0  0
    0.5287   -1.5085   -0.2741 C   0  0  0  0  0  0  0  0  0  0  0  0
   -0.3448   -2.2084   -1.3429 C   0  0  0  0  0  0  0  0  0  0  0  0
   -1.7102   -1.7885   -1.2491 O   0  0  0  0  0  0  0  0  0  0  0  0
   -2.6057   -2.1195   -0.2161 C   0  0  0  0  0  0  0  0  0  0  0  0
   -2.4344   -3.2851    0.5586 C   0  0  0  0  0  0  0  0  0  0  0  0
   -3.3731   -3.6355    1.5308 C   0  0  0  0  0  0  0  0  0  0  0  0
   -4.4970   -2.8376    1.7369 C   0  0  0  0  0  0  0  0  0  0  0  0
   -4.6711   -1.6683    0.9948 C   0  0  0  0  0  0  0  0  0  0  0  0
   -3.7207   -1.2813    0.0338 C   0  0  0  0  0  0  0  0  0  0  0  0
   -3.8896    0.0565   -0.6625 C   0  0  0  0  0  0  0  0  0  0  0  0
   -3.7097    1.2410    0.3103 C   0  0  0  0  0  0  0  0  0  0  0  0
   -2.2594    1.4039    0.8053 C   0  0  0  0  0  0  0  0  0  0  0  0
   -1.4319    2.3992   -0.0477 C   0  0  0  0  0  0  0  0  0  0  0  0
    0.0896    2.0303   -0.1866 C   0  0  0  0  0  0  0  0  0  0  0  0
    0.7271    1.7406    1.2076 C   0  0  0  0  0  0  0  0  0  0  0  0
    0.6906    2.9706    2.1401 C   0  0  0  0  0  0  0  0  0  0  0  0
    0.9188    4.2561    1.4510 N   0  0  0  0  0  0  0  0  0  0  0  0
    1.6362    4.1097    0.1806 C   0  0  0  0  0  0  0  0  0  0  0  0
    0.8565    3.2402   -0.8285 C   0  0  0  0  0  0  0  0  0  0  0  0
    0.1833    0.7941   -1.1571 C   0  0  0  0  0  0  0  0  0  0  0  0
    5.0179   -4.1986   -1.4706 H   0  0  0  0  0  0  0  0  0  0  0  0
    6.2916   -3.3029    0.4549 H   0  0  0  0  0  0  0  0  0  0  0  0
    5.7224   -1.0811    1.3982 H   0  0  0  0  0  0  0  0  0  0  0  0
    3.8897    0.2515    0.4169 H   0  0  0  0  0  0  0  0  0  0  0  0
    2.6931    0.6010   -1.9244 H   0  0  0  0  0  0  0  0  0  0  0  0
    1.9056   -0.8239   -2.6366 H   0  0  0  0  0  0  0  0  0  0  0  0
    1.3110   -2.2209    0.0630 H   0  0  0  0  0  0  0  0  0  0  0  0
   -0.0795   -1.3166    0.6338 H   0  0  0  0  0  0  0  0  0  0  0  0
    0.0202   -1.9786   -2.3621 H   0  0  0  0  0  0  0  0  0  0  0  0
   -0.2706   -3.3095   -1.2399 H   0  0  0  0  0  0  0  0  0  0  0  0
   -1.5885   -3.9390    0.4107 H   0  0  0  0  0  0  0  0  0  0  0  0
   -3.2323   -4.5347    2.1194 H   0  0  0  0  0  0  0  0  0  0  0  0
   -5.2305   -3.1206    2.4795 H   0  0  0  0  0  0  0  0  0  0  0  0
   -5.5425   -1.0526    1.1816 H   0  0  0  0  0  0  0  0  0  0  0  0
   -3.1952    0.1692   -1.5204 H   0  0  0  0  0  0  0  0  0  0  0  0
   -4.9160    0.1023   -1.0849 H   0  0  0  0  0  0  0  0  0  0  0  0
   -4.3732    1.0947    1.1897 H   0  0  0  0  0  0  0  0  0  0  0  0
   -4.0556    2.1762   -0.1781 H   0  0  0  0  0  0  0  0  0  0  0  0
   -1.7769    0.4078    0.8566 H   0  0  0  0  0  0  0  0  0  0  0  0
   -2.2870    1.7851    1.8499 H   0  0  0  0  0  0  0  0  0  0  0  0
   -1.5605    3.4099    0.3893 H   0  0  0  0  0  0  0  0  0  0  0  0
   -1.8657    2.4676   -1.0711 H   0  0  0  0  0  0  0  0  0  0  0  0
    0.2486    0.8815    1.7191 H   0  0  0  0  0  0  0  0  0  0  0  0
    1.7938    1.4592    1.0698 H   0  0  0  0  0  0  0  0  0  0  0  0
    1.4665    2.8445    2.9261 H   0  0  0  0  0  0  0  0  0  0  0  0
   -0.2891    3.0027    2.6645 H   0  0  0  0  0  0  0  0  0  0  0  0
    0.0080    4.7395    1.2747 H   0  0  0  0  0  0  0  0  0  0  0  0
    1.8103    5.1155   -0.2594 H   0  0  0  0  0  0  0  0  0  0  0  0
    2.6374    3.6634    0.3730 H   0  0  0  0  0  0  0  0  0  0  0  0
    1.6072    2.8910   -1.5699 H   0  0  0  0  0  0  0  0  0  0  0  0
    0.1522    3.8882   -1.3956 H   0  0  0  0  0  0  0  0  0  0  0  0
    0.3918    1.1319   -2.1975 H   0  0  0  0  0  0  0  0  0  0  0  0
   -0.8150    0.3533   -1.2849 H   0  0  0  0  0  0  0  0  0  0  0  0
  1  2  1  0
  2  3  2  0
  3  4  1  0
  4  5  2  0
  5  6  1  0
  6  7  2  0
  7  8  1  0
  8  9  1  0
  9 10  1  0
 10 11  1  0
 11 12  1  0
 12 13  1  0
 13 14  2  0
 14 15  1  0
 15 16  2  0
 16 17  1  0
 17 18  2  0
 18 19  1  0
 19 20  1  0
 20 21  1  0
 21 22  1  0
 22 23  1  0
 23 24  1  0
 24 25  1  0
 25 26  1  0
 26 27  1  0
 27 28  1  0
 23 29  1  0
  7  2  1  0
 29  9  1  0
 18 13  1  0
 28 23  1  0
  3 30  1  0
  4 31  1  0
  5 32  1  0
  6 33  1  0
  8 34  1  0
  8 35  1  0
 10 36  1  0
 10 37  1  0
 11 38  1  0
 11 39  1  0
 14 40  1  0
 15 41  1  0
 16 42  1  0
 17 43  1  0
 19 44  1  0
 19 45  1  0
 20 46  1  0
 20 47  1  0
 21 48  1  0
 21 49  1  0
 22 50  1  0
 22 51  1  0
 24 52  1  0
 24 53  1  0
 25 54  1  0
 25 55  1  0
 26 56  1  0
 27 57  1  0
 27 58  1  0
 28 59  1  0
 28 60  1  0
 29 61  1  0
 29 62  1  0
M  END
$$$$
