
     RDKit          3D

 69 71  0  0  0  0  0  0  0  0999 V2000
   -0.9053   -5.0542    0.8974 C   0  0  0  0  0  0  0  0  0  0  0  0
   -0.7562   -3.5714    1.1076 C   0  0  0  0  0  0  0  0  0  0  0  0
   -0.4946   -3.1573    2.2727 O   0  0  0  0  0  0  0  0  0  0  0  0
   -0.8120   -2.6247    0.0125 N   0  0  0  0  0  0  0  0  0  0  0  0
   -1.5404   -2.9079   -1.2431 C   0  0  0  0  0  0  0  0  0  0  0  0
   -2.9917   -3.4091   -1.0630 C   0  0  0  0  0  0  0  0  0  0  0  0
   -4.0374   -2.2762   -1.0325 C   0  0  0  0  0  0  0  0  0  0  0  0
   -4.3010   -1.7812    0.4002 C   0  0  0  0  0  0  0  0  0  0  0  0
   -4.8414   -0.3329    0.4388 C   0  0  0  0  0  0  0  0  0  0  0  0
   -3.8151    0.6440    1.0265 C   0  0  0  0  0  0  0  0  0  0  0  0
   -2.6348    0.8990    0.0594 C   0  0  0  0  0  0  0  0  0  0  0  0
   -1.3657    1.2794    0.7269 N   0  0  0  0  0  4  0  0  0  0  0  0
   -1.5002    2.3842    1.7142 C   0  0  0  0  0  0  0  0  0  0  0  0
   -2.1176    3.6899    1.1459 C   0  0  0  0  0  0  0  0  0  0  0  0
   -2.2787    4.7057    2.2918 C   0  0  0  0  0  0  0  0  0  0  0  0
   -1.2745    4.3040    0.0205 C   0  0  0  0  0  0  0  0  0  0  0  0
   -0.7185    0.0847    1.3591 C   0  0  0  0  0  0  0  0  0  0  0  0
    0.3995   -0.4809    0.5028 C   0  0  0  0  0  0  0  0  0  0  0  0
    1.5636    0.2939    0.3540 C   0  0  0  0  0  0  0  0  0  0  0  0
    2.6763   -0.1990   -0.3453 C   0  0  0  0  0  0  0  0  0  0  0  0
    3.8899    0.6340   -0.4931 C   0  0  0  0  0  0  0  0  0  0  0  0
    3.7970    1.8887   -0.4499 O   0  0  0  0  0  0  0  0  0  0  0  0
    5.1777    0.0225   -0.6619 N   0  0  0  0  0  0  0  0  0  0  0  0
    6.2828    0.7000   -1.2831 C   0  0  0  0  0  0  0  0  0  0  0  0
    6.0908    1.5385   -2.3943 C   0  0  0  0  0  0  0  0  0  0  0  0
    7.1961    2.1130   -3.0205 C   0  0  0  0  0  0  0  0  0  0  0  0
    8.4502    1.8471   -2.5642 N   0  0  0  0  0  0  0  0  0  0  0  0
    8.6668    1.0443   -1.4890 C   0  0  0  0  0  0  0  0  0  0  0  0
    7.5872    0.4536   -0.8310 C   0  0  0  0  0  0  0  0  0  0  0  0
    2.6153   -1.4813   -0.9161 C   0  0  0  0  0  0  0  0  0  0  0  0
    1.4601   -2.2472   -0.7989 C   0  0  0  0  0  0  0  0  0  0  0  0
    0.3400   -1.7628   -0.1044 C   0  0  0  0  0  0  0  0  0  0  0  0
   -0.7641   -5.3367   -0.1670 H   0  0  0  0  0  0  0  0  0  0  0  0
   -1.9032   -5.3843    1.2456 H   0  0  0  0  0  0  0  0  0  0  0  0
   -0.1390   -5.5908    1.4895 H   0  0  0  0  0  0  0  0  0  0  0  0
   -1.5426   -1.9924   -1.8865 H   0  0  0  0  0  0  0  0  0  0  0  0
   -0.9775   -3.6767   -1.8164 H   0  0  0  0  0  0  0  0  0  0  0  0
   -3.2309   -4.0742   -1.9278 H   0  0  0  0  0  0  0  0  0  0  0  0
   -3.1002   -4.0449   -0.1611 H   0  0  0  0  0  0  0  0  0  0  0  0
   -4.9958   -2.6543   -1.4533 H   0  0  0  0  0  0  0  0  0  0  0  0
   -3.7232   -1.4468   -1.7038 H   0  0  0  0  0  0  0  0  0  0  0  0
   -3.3706   -1.8724    1.0036 H   0  0  0  0  0  0  0  0  0  0  0  0
   -5.0466   -2.4591    0.8771 H   0  0  0  0  0  0  0  0  0  0  0  0
   -5.1686    0.0224   -0.5643 H   0  0  0  0  0  0  0  0  0  0  0  0
   -5.7437   -0.3180    1.0954 H   0  0  0  0  0  0  0  0  0  0  0  0
   -4.3340    1.6040    1.2353 H   0  0  0  0  0  0  0  0  0  0  0  0
   -3.4689    0.2556    2.0038 H   0  0  0  0  0  0  0  0  0  0  0  0
   -2.9321    1.6862   -0.6653 H   0  0  0  0  0  0  0  0  0  0  0  0
   -2.4400    0.0023   -0.5685 H   0  0  0  0  0  0  0  0  0  0  0  0
   -0.7370    1.6317   -0.0337 H   0  0  0  0  0  0  0  0  0  0  0  0
   -0.4834    2.6404    2.1055 H   0  0  0  0  0  0  0  0  0  0  0  0
   -2.0924    2.0469    2.5950 H   0  0  0  0  0  0  0  0  0  0  0  0
   -3.1403    3.4908    0.7498 H   0  0  0  0  0  0  0  0  0  0  0  0
   -1.3119    4.9131    2.7974 H   0  0  0  0  0  0  0  0  0  0  0  0
   -2.9871    4.3087    3.0394 H   0  0  0  0  0  0  0  0  0  0  0  0
   -2.6950    5.6625    1.9146 H   0  0  0  0  0  0  0  0  0  0  0  0
   -1.6951    5.2870   -0.2718 H   0  0  0  0  0  0  0  0  0  0  0  0
   -1.2742    3.6646   -0.8865 H   0  0  0  0  0  0  0  0  0  0  0  0
   -0.2282    4.4519    0.3658 H   0  0  0  0  0  0  0  0  0  0  0  0
   -0.2664    0.3400    2.3472 H   0  0  0  0  0  0  0  0  0  0  0  0
   -1.4588   -0.7050    1.6065 H   0  0  0  0  0  0  0  0  0  0  0  0
    1.6063    1.2755    0.8148 H   0  0  0  0  0  0  0  0  0  0  0  0
    5.3341   -0.9295   -0.2551 H   0  0  0  0  0  0  0  0  0  0  0  0
    5.1086    1.6860   -2.8112 H   0  0  0  0  0  0  0  0  0  0  0  0
    7.0607    2.7369   -3.8947 H   0  0  0  0  0  0  0  0  0  0  0  0
    9.6752    0.8607   -1.1462 H   0  0  0  0  0  0  0  0  0  0  0  0
    7.7682   -0.2072    0.0100 H   0  0  0  0  0  0  0  0  0  0  0  0
    3.4524   -1.8805   -1.4735 H   0  0  0  0  0  0  0  0  0  0  0  0
    1.4369   -3.2344   -1.2493 H   0  0  0  0  0  0  0  0  0  0  0  0
  1  2  1  0
  2  3  2  0
  2  4  1  0
  4  5  1  0
  5  6  1  0
  6  7  1  0
  7  8  1  0
  8  9  1  0
  9 10  1  0
 10 11  1  0
 11 12  1  0
 12 13  1  0
 13 14  1  0
 14 15  1  0
 14 16  1  0
 12 17  1  0
 17 18  1  0
 18 19  2  0
 19 20  1  0
 20 21  1  0
 21 22  2  0
 21 23  1  0
 23 24  1  0
 24 25  2  0
 25 26  1  0
 26 27  2  0
 27 28  1  0
 28 29  2  0
 20 30  2  0
 30 31  1  0
 31 32  2  0
 32  4  1  0
 32 18  1  0
 29 24  1  0
  1 33  1  0
  1 34  1  0
  1 35  1  0
  5 36  1  0
  5 37  1  0
  6 38  1  0
  6 39  1  0
  7 40  1  0
  7 41  1  0
  8 42  1  0
  8 43  1  0
  9 44  1  0
  9 45  1  0
 10 46  1  0
 10 47  1  0
 11 48  1  0
 11 49  1  0
 12 50  1  0
 13 51  1  0
 13 52  1  0
 14 53  1  0
 15 54  1  0
 15 55  1  0
 15 56  1  0
 16 57  1  0
 16 58  1  0
 16 59  1  0
 17 60  1  0
 17 61  1  0
 19 62  1  0
 23 63  1  0
 25 64  1  0
 26 65  1  0
 28 66  1  0
 29 67  1  0
 30 68  1  0
 31 69  1  0
M  CHG  1  12   1
M  END
$$$$
