
     RDKit          3D

 86 90  0  0  0  0  0  0  0  0999 V2000
   -1.3985   -1.9034    3.5598 C   0  0  0  0  0  0  0  0  0  0  0  0
   -2.2448   -0.7007    3.8562 C   0  0  0  0  0  0  0  0  0  0  0  0
   -2.6517   -0.5236    5.0409 O   0  0  0  0  0  0  0  0  0  0  0  0
   -2.5279    0.2875    2.8326 N   0  0  0  0  0  0  0  0  0  0  0  0
   -3.3947    1.4457    3.1367 C   0  0  0  0  0  0  0  0  0  0  0  0
   -4.7948    1.0522    3.6907 C   0  0  0  0  0  0  0  0  0  0  0  0
   -5.9642    1.3431    2.7284 C   0  0  0  0  0  0  0  0  0  0  0  0
   -6.4578    0.0741    2.0013 C   0  0  0  0  0  0  0  0  0  0  0  0
   -6.9674    0.3519    0.5681 C   0  0  0  0  0  0  0  0  0  0  0  0
   -5.9818   -0.1421   -0.5060 C   0  0  0  0  0  0  0  0  0  0  0  0
   -4.7345    0.7633   -0.6284 C   0  0  0  0  0  0  0  0  0  0  0  0
   -3.5325    0.0050   -1.0312 N   0  0  0  0  0  0  0  0  0  0  0  0
   -3.5315   -0.4483   -2.4547 C   0  0  0  0  0  0  0  0  0  0  0  0
   -3.2084   -1.9378   -2.6841 C   0  0  0  0  0  0  0  0  0  0  0  0
   -3.2473   -2.2752   -4.1957 C   0  0  0  0  0  0  0  0  0  0  0  0
   -3.0783   -1.1476   -5.0487 O   0  0  0  0  0  0  0  0  0  0  0  0
   -2.0826   -0.2740   -4.5481 C   0  0  0  0  0  0  0  0  0  0  0  0
   -2.5870    0.4512   -3.2885 C   0  0  0  0  0  0  0  0  0  0  0  0
   -2.9253   -0.8065    0.0629 C   0  0  0  0  0  0  0  0  0  0  0  0
   -1.6560   -0.1459    0.5295 C   0  0  0  0  0  0  0  0  0  0  0  0
   -0.5658   -0.1140   -0.3569 C   0  0  0  0  0  0  0  0  0  0  0  0
    0.6068    0.5682   -0.0286 C   0  0  0  0  0  0  0  0  0  0  0  0
    1.7224    0.5957   -0.9908 C   0  0  0  0  0  0  0  0  0  0  0  0
    1.5077    1.0820   -2.1314 O   0  0  0  0  0  0  0  0  0  0  0  0
    3.0273    0.0578   -0.6742 N   0  0  0  0  0  0  0  0  0  0  0  0
    3.2340   -0.8557    0.4545 C   0  0  0  0  0  0  0  0  0  0  0  0
    4.5929   -0.5953    1.1335 C   0  0  0  0  0  0  0  0  0  0  0  0
    5.6388   -0.0762    0.2153 N   0  0  0  0  0  0  0  0  0  0  0  0
    6.9805   -0.5014    0.6687 C   0  0  0  0  0  0  0  0  0  0  0  0
    8.0670    0.2862   -0.0224 C   0  0  0  0  0  0  0  0  0  0  0  0
    9.0818   -0.3780   -0.7413 C   0  0  0  0  0  0  0  0  0  0  0  0
   10.0802    0.3514   -1.3900 C   0  0  0  0  0  0  0  0  0  0  0  0
   10.0896    1.7462   -1.3138 C   0  0  0  0  0  0  0  0  0  0  0  0
   11.0624    2.4512   -1.9440 F   0  0  0  0  0  0  0  0  0  0  0  0
    9.0954    2.4154   -0.5893 C   0  0  0  0  0  0  0  0  0  0  0  0
    8.0838    1.6886    0.0521 C   0  0  0  0  0  0  0  0  0  0  0  0
    5.3922   -0.4632   -1.1875 C   0  0  0  0  0  0  0  0  0  0  0  0
    4.1034    0.2044   -1.6660 C   0  0  0  0  0  0  0  0  0  0  0  0
    0.7000    1.2334    1.1994 C   0  0  0  0  0  0  0  0  0  0  0  0
   -0.3567    1.1704    2.1109 C   0  0  0  0  0  0  0  0  0  0  0  0
   -1.5331    0.4635    1.8015 C   0  0  0  0  0  0  0  0  0  0  0  0
   -0.3320   -1.5945    3.4868 H   0  0  0  0  0  0  0  0  0  0  0  0
   -1.7229   -2.3762    2.6050 H   0  0  0  0  0  0  0  0  0  0  0  0
   -1.4950   -2.6531    4.3723 H   0  0  0  0  0  0  0  0  0  0  0  0
   -3.4839    2.0907    2.2385 H   0  0  0  0  0  0  0  0  0  0  0  0
   -2.8727    2.0721    3.8928 H   0  0  0  0  0  0  0  0  0  0  0  0
   -4.9739    1.6504    4.6151 H   0  0  0  0  0  0  0  0  0  0  0  0
   -4.8311   -0.0098    4.0219 H   0  0  0  0  0  0  0  0  0  0  0  0
   -6.8190    1.7459    3.3174 H   0  0  0  0  0  0  0  0  0  0  0  0
   -5.6999    2.1549    2.0168 H   0  0  0  0  0  0  0  0  0  0  0  0
   -7.2918   -0.3679    2.5955 H   0  0  0  0  0  0  0  0  0  0  0  0
   -5.6623   -0.7035    1.9813 H   0  0  0  0  0  0  0  0  0  0  0  0
   -7.2067    1.4281    0.4028 H   0  0  0  0  0  0  0  0  0  0  0  0
   -7.9208   -0.1956    0.4245 H   0  0  0  0  0  0  0  0  0  0  0  0
   -5.7001   -1.1963   -0.2909 H   0  0  0  0  0  0  0  0  0  0  0  0
   -6.5075   -0.1610   -1.4841 H   0  0  0  0  0  0  0  0  0  0  0  0
   -4.9341    1.5704   -1.3636 H   0  0  0  0  0  0  0  0  0  0  0  0
   -4.5193    1.2737    0.3224 H   0  0  0  0  0  0  0  0  0  0  0  0
   -4.5489   -0.3132   -2.8872 H   0  0  0  0  0  0  0  0  0  0  0  0
   -3.9402   -2.5753   -2.1387 H   0  0  0  0  0  0  0  0  0  0  0  0
   -2.1847   -2.1636   -2.3199 H   0  0  0  0  0  0  0  0  0  0  0  0
   -4.2343   -2.7287   -4.4259 H   0  0  0  0  0  0  0  0  0  0  0  0
   -2.4794   -3.0437   -4.4328 H   0  0  0  0  0  0  0  0  0  0  0  0
   -1.1407   -0.8282   -4.3281 H   0  0  0  0  0  0  0  0  0  0  0  0
   -1.8347    0.4776   -5.3283 H   0  0  0  0  0  0  0  0  0  0  0  0
   -3.1418    1.3677   -3.5850 H   0  0  0  0  0  0  0  0  0  0  0  0
   -1.7160    0.7851   -2.6892 H   0  0  0  0  0  0  0  0  0  0  0  0
   -2.7003   -1.8465   -0.2259 H   0  0  0  0  0  0  0  0  0  0  0  0
   -3.6222   -0.9258    0.9163 H   0  0  0  0  0  0  0  0  0  0  0  0
   -0.6296   -0.6406   -1.3005 H   0  0  0  0  0  0  0  0  0  0  0  0
    2.4285   -0.7784    1.2136 H   0  0  0  0  0  0  0  0  0  0  0  0
    3.2084   -1.8990    0.0759 H   0  0  0  0  0  0  0  0  0  0  0  0
    4.4409    0.1558    1.9285 H   0  0  0  0  0  0  0  0  0  0  0  0
    4.9071   -1.5381    1.6293 H   0  0  0  0  0  0  0  0  0  0  0  0
    7.0832   -0.3136    1.7618 H   0  0  0  0  0  0  0  0  0  0  0  0
    7.1111   -1.5989    0.5108 H   0  0  0  0  0  0  0  0  0  0  0  0
    9.0913   -1.4627   -0.8064 H   0  0  0  0  0  0  0  0  0  0  0  0
   10.8493   -0.1657   -1.9515 H   0  0  0  0  0  0  0  0  0  0  0  0
    9.1096    3.4956   -0.5254 H   0  0  0  0  0  0  0  0  0  0  0  0
    7.3150    2.2214    0.6024 H   0  0  0  0  0  0  0  0  0  0  0  0
    6.2173   -0.1234   -1.8502 H   0  0  0  0  0  0  0  0  0  0  0  0
    5.3103   -1.5695   -1.2868 H   0  0  0  0  0  0  0  0  0  0  0  0
    4.3043    1.2842   -1.8270 H   0  0  0  0  0  0  0  0  0  0  0  0
    3.7855   -0.2412   -2.6384 H   0  0  0  0  0  0  0  0  0  0  0  0
    1.5971    1.7840    1.4600 H   0  0  0  0  0  0  0  0  0  0  0  0
   -0.2571    1.6571    3.0728 H   0  0  0  0  0  0  0  0  0  0  0  0
  1  2  1  0
  2  3  2  0
  2  4  1  0
  4  5  1  0
  5  6  1  0
  6  7  1  0
  7  8  1  0
  8  9  1  0
  9 10  1  0
 10 11  1  0
 11 12  1  0
 12 13  1  0
 13 14  1  0
 14 15  1  0
 15 16  1  0
 16 17  1  0
 17 18  1  0
 12 19  1  0
 19 20  1  0
 20 21  2  0
 21 22  1  0
 22 23  1  0
 23 24  2  0
 23 25  1  0
 25 26  1  0
 26 27  1  0
 27 28  1  0
 28 29  1  0
 29 30  1  0
 30 31  2  0
 31 32  1  0
 32 33  2  0
 33 34  1  0
 33 35  1  0
 35 36  2  0
 28 37  1  0
 37 38  1  0
 22 39  2  0
 39 40  1  0
 40 41  2  0
 41  4  1  0
 18 13  1  0
 41 20  1  0
 38 25  1  0
 36 30  1  0
  1 42  1  0
  1 43  1  0
  1 44  1  0
  5 45  1  0
  5 46  1  0
  6 47  1  0
  6 48  1  0
  7 49  1  0
  7 50  1  0
  8 51  1  0
  8 52  1  0
  9 53  1  0
  9 54  1  0
 10 55  1  0
 10 56  1  0
 11 57  1  0
 11 58  1  0
 13 59  1  0
 14 60  1  0
 14 61  1  0
 15 62  1  0
 15 63  1  0
 17 64  1  0
 17 65  1  0
 18 66  1  0
 18 67  1  0
 19 68  1  0
 19 69  1  0
 21 70  1  0
 26 71  1  0
 26 72  1  0
 27 73  1  0
 27 74  1  0
 29 75  1  0
 29 76  1  0
 31 77  1  0
 32 78  1  0
 35 79  1  0
 36 80  1  0
 37 81  1  0
 37 82  1  0
 38 83  1  0
 38 84  1  0
 39 85  1  0
 40 86  1  0
M  END
$$$$
