
     RDKit          3D

 56 59  0  0  0  0  0  0  0  0999 V2000
    6.1324    0.5899   -0.8167 C   0  0  0  0  0  0  0  0  0  0  0  0
    5.6851   -0.9158    0.0265 S   0  0  0  0  0  6  0  0  0  0  0  0
    6.2975   -2.0727   -0.7114 O   0  0  0  0  0  0  0  0  0  0  0  0
    6.2357   -0.8902    1.4252 O   0  0  0  0  0  0  0  0  0  0  0  0
    3.9582   -1.1402    0.0716 N   0  0  0  0  0  0  0  0  0  0  0  0
    3.2620    0.0436    0.6010 C   0  0  0  0  0  0  0  0  0  0  0  0
    3.4904    0.2572    2.1001 C   0  0  0  0  0  0  0  0  0  0  0  0
    2.2484    1.0039    2.5830 C   0  0  0  0  0  0  0  0  0  0  0  0
    1.2470    0.8129    1.5453 N   0  0  0  0  0  0  0  0  0  0  0  0
   -0.0036    1.5268    1.5569 C   0  0  0  0  0  0  0  0  0  0  0  0
   -0.6230    1.6612    2.6458 O   0  0  0  0  0  0  0  0  0  0  0  0
   -0.5501    2.1923    0.3198 C   0  0  0  0  0  0  0  0  0  0  0  0
   -1.6449    1.4546   -0.2301 O   0  0  0  0  0  0  0  0  0  0  0  0
   -2.9429    1.3593    0.2980 C   0  0  0  0  0  0  0  0  0  0  0  0
   -3.3853    2.2673    1.2844 C   0  0  0  0  0  0  0  0  0  0  0  0
   -4.6775    2.1921    1.7995 C   0  0  0  0  0  0  0  0  0  0  0  0
   -5.5526    1.2130    1.3452 C   0  0  0  0  0  0  0  0  0  0  0  0
   -5.1389    0.3038    0.3741 C   0  0  0  0  0  0  0  0  0  0  0  0
   -3.8399    0.3557   -0.1757 C   0  0  0  0  0  0  0  0  0  0  0  0
   -3.4881   -0.7467   -1.1898 C   0  0  0  0  0  0  0  0  0  0  0  0
   -2.4405   -0.3759   -2.2767 C   0  0  0  0  0  0  0  0  0  0  0  0
   -0.9713   -0.7435   -1.9581 C   0  0  0  0  0  0  0  0  0  0  0  0
   -0.7984   -1.4730   -0.6184 C   0  0  0  0  0  0  0  0  0  0  0  0
   -1.7839   -2.6337   -0.5667 C   0  0  0  0  0  0  0  0  0  0  0  0
   -3.2308   -2.1165   -0.4859 C   0  0  0  0  0  0  0  0  0  0  0  0
    0.5318   -1.9577   -0.5138 O   0  0  0  0  0  0  0  0  0  0  0  0
    1.1586   -1.4873    0.6676 C   0  0  0  0  0  0  0  0  0  0  0  0
    1.7291   -0.0489    0.4707 C   0  0  0  0  0  0  0  0  0  0  0  0
    7.2164    0.5731   -1.0528 H   0  0  0  0  0  0  0  0  0  0  0  0
    5.5536    0.6736   -1.7601 H   0  0  0  0  0  0  0  0  0  0  0  0
    5.9190    1.4645   -0.1673 H   0  0  0  0  0  0  0  0  0  0  0  0
    3.6545   -1.2722   -0.9217 H   0  0  0  0  0  0  0  0  0  0  0  0
    3.5854    0.9585    0.0556 H   0  0  0  0  0  0  0  0  0  0  0  0
    4.4094    0.8522    2.2899 H   0  0  0  0  0  0  0  0  0  0  0  0
    3.5636   -0.7229    2.6211 H   0  0  0  0  0  0  0  0  0  0  0  0
    1.8870    0.5920    3.5502 H   0  0  0  0  0  0  0  0  0  0  0  0
    2.4715    2.0879    2.6927 H   0  0  0  0  0  0  0  0  0  0  0  0
    0.2457    2.2650   -0.4480 H   0  0  0  0  0  0  0  0  0  0  0  0
   -0.8453    3.2393    0.5372 H   0  0  0  0  0  0  0  0  0  0  0  0
   -2.7429    3.0497    1.6592 H   0  0  0  0  0  0  0  0  0  0  0  0
   -5.0017    2.8981    2.5536 H   0  0  0  0  0  0  0  0  0  0  0  0
   -6.5545    1.1536    1.7507 H   0  0  0  0  0  0  0  0  0  0  0  0
   -5.8391   -0.4584    0.0534 H   0  0  0  0  0  0  0  0  0  0  0  0
   -4.4237   -0.8921   -1.7793 H   0  0  0  0  0  0  0  0  0  0  0  0
   -2.7175   -0.9145   -3.2111 H   0  0  0  0  0  0  0  0  0  0  0  0
   -2.5194    0.7038   -2.5289 H   0  0  0  0  0  0  0  0  0  0  0  0
   -0.5771   -1.3923   -2.7727 H   0  0  0  0  0  0  0  0  0  0  0  0
   -0.3472    0.1734   -1.9734 H   0  0  0  0  0  0  0  0  0  0  0  0
   -1.0740   -0.7853    0.2086 H   0  0  0  0  0  0  0  0  0  0  0  0
   -1.5704   -3.2667    0.3227 H   0  0  0  0  0  0  0  0  0  0  0  0
   -1.6616   -3.2733   -1.4693 H   0  0  0  0  0  0  0  0  0  0  0  0
   -3.8951   -2.8899   -0.9305 H   0  0  0  0  0  0  0  0  0  0  0  0
   -3.5165   -2.0527    0.5879 H   0  0  0  0  0  0  0  0  0  0  0  0
    1.9559   -2.2092    0.9342 H   0  0  0  0  0  0  0  0  0  0  0  0
    0.4765   -1.5413    1.5493 H   0  0  0  0  0  0  0  0  0  0  0  0
    1.4427    0.3546   -0.5206 H   0  0  0  0  0  0  0  0  0  0  0  0
  1  2  1  0
  2  3  2  0
  2  4  2  0
  2  5  1  0
  5  6  1  0
  6  7  1  0
  7  8  1  0
  8  9  1  0
  9 10  1  0
 10 11  2  0
 10 12  1  0
 12 13  1  0
 13 14  1  0
 14 15  2  0
 15 16  1  0
 16 17  2  0
 17 18  1  0
 18 19  2  0
 19 20  1  0
 20 21  1  0
 21 22  1  0
 22 23  1  0
 23 24  1  0
 24 25  1  0
 23 26  1  0
 26 27  1  0
 27 28  1  0
 28  6  1  0
 28  9  1  0
 19 14  1  0
 25 20  1  0
  1 29  1  0
  1 30  1  0
  1 31  1  0
  5 32  1  0
  6 33  1  0
  7 34  1  0
  7 35  1  0
  8 36  1  0
  8 37  1  0
 12 38  1  0
 12 39  1  0
 15 40  1  0
 16 41  1  0
 17 42  1  0
 18 43  1  0
 20 44  1  0
 21 45  1  0
 21 46  1  0
 22 47  1  0
 22 48  1  0
 23 49  1  0
 24 50  1  0
 24 51  1  0
 25 52  1  0
 25 53  1  0
 27 54  1  0
 27 55  1  0
 28 56  1  0
M  END
$$$$
