
     RDKit          3D

 80 83  0  0  0  0  0  0  0  0999 V2000
    7.3748    1.6727   -2.8493 C   0  0  0  0  0  0  0  0  0  0  0  0
    6.0521    2.1829   -2.2852 C   0  0  0  0  0  0  0  0  0  0  0  0
    5.5224    1.2624   -1.3301 O   0  0  0  0  0  0  0  0  0  0  0  0
    6.0023    1.0606   -0.0219 C   0  0  0  0  0  0  0  0  0  0  0  0
    6.9935    1.8884    0.5444 C   0  0  0  0  0  0  0  0  0  0  0  0
    7.4496    1.6619    1.8453 C   0  0  0  0  0  0  0  0  0  0  0  0
    6.9323    0.6072    2.5972 C   0  0  0  0  0  0  0  0  0  0  0  0
    5.9486   -0.2190    2.0535 C   0  0  0  0  0  0  0  0  0  0  0  0
    5.4643    0.0053    0.7511 C   0  0  0  0  0  0  0  0  0  0  0  0
    4.3911   -0.9085    0.2001 C   0  0  0  0  0  0  0  0  0  0  0  0
    3.2565   -1.0093    1.1411 N   0  0  0  0  0  0  0  0  0  0  0  0
    2.4629   -2.2321    0.8679 C   0  0  0  0  0  0  0  0  0  0  0  0
    1.0671   -2.1407    1.4916 C   0  0  0  0  0  0  0  0  0  0  0  0
    0.2188   -1.0127    0.8156 C   0  0  0  0  0  0  0  0  0  0  0  0
   -0.5336   -1.5364   -0.4610 C   0  0  0  0  0  0  0  0  0  0  0  0
   -1.2982   -2.8764   -0.3185 C   0  0  0  0  0  0  0  0  0  0  0  0
   -2.4480   -3.0096   -1.3500 C   0  0  0  0  0  0  0  0  0  0  0  0
   -3.8408   -3.1042   -0.6878 C   0  0  0  0  0  0  0  0  0  0  0  0
   -4.8823   -2.3146   -1.4437 C   0  0  0  0  0  0  0  0  0  0  0  0
   -5.7947   -2.9669   -2.2884 C   0  0  0  0  0  0  0  0  0  0  0  0
   -6.7862   -2.2368   -2.9518 C   0  0  0  0  0  0  0  0  0  0  0  0
   -6.8754   -0.8534   -2.7744 C   0  0  0  0  0  0  0  0  0  0  0  0
   -5.9632   -0.1927   -1.9470 C   0  0  0  0  0  0  0  0  0  0  0  0
   -4.9585   -0.9157   -1.2923 C   0  0  0  0  0  0  0  0  0  0  0  0
   -4.0171   -0.2495   -0.5091 O   0  0  0  0  0  0  0  0  0  0  0  0
   -4.3277    0.2624    0.7809 C   0  0  0  0  0  0  0  0  0  0  0  0
   -3.0345    0.6947    1.4898 C   0  0  0  0  0  0  0  0  0  0  0  0
   -2.2855    1.8322    0.7312 C   0  0  0  0  0  0  0  0  0  0  0  0
   -2.9955    3.2071    0.5737 C   0  0  0  0  0  0  0  0  0  0  0  0
   -3.7754    3.6484    1.8205 C   0  0  0  0  0  0  0  0  0  0  0  0
   -3.8495    3.3159   -0.7005 C   0  0  0  0  0  0  0  0  0  0  0  0
   -2.1821   -0.4980    1.6435 N   0  0  0  0  0  0  0  0  0  0  0  0
   -0.7642   -0.4438    1.8449 C   0  0  0  0  0  0  0  0  0  0  0  0
   -0.3246    0.1033    2.8927 O   0  0  0  0  0  0  0  0  0  0  0  0
    1.1643    0.1521    0.3513 C   0  0  0  0  0  0  0  0  0  0  0  0
    2.4494    0.2404    1.1903 C   0  0  0  0  0  0  0  0  0  0  0  0
    7.7627    2.3923   -3.6017 H   0  0  0  0  0  0  0  0  0  0  0  0
    7.2235    0.6881   -3.3406 H   0  0  0  0  0  0  0  0  0  0  0  0
    8.1299    1.5587   -2.0440 H   0  0  0  0  0  0  0  0  0  0  0  0
    5.3284    2.2728   -3.1247 H   0  0  0  0  0  0  0  0  0  0  0  0
    6.1673    3.1946   -1.8425 H   0  0  0  0  0  0  0  0  0  0  0  0
    7.4188    2.7150   -0.0077 H   0  0  0  0  0  0  0  0  0  0  0  0
    8.2069    2.3071    2.2714 H   0  0  0  0  0  0  0  0  0  0  0  0
    7.2875    0.4343    3.6068 H   0  0  0  0  0  0  0  0  0  0  0  0
    5.5576   -1.0342    2.6509 H   0  0  0  0  0  0  0  0  0  0  0  0
    4.0256   -0.5757   -0.7970 H   0  0  0  0  0  0  0  0  0  0  0  0
    4.8613   -1.9079    0.0567 H   0  0  0  0  0  0  0  0  0  0  0  0
    2.9921   -3.1079    1.3032 H   0  0  0  0  0  0  0  0  0  0  0  0
    2.3589   -2.4112   -0.2272 H   0  0  0  0  0  0  0  0  0  0  0  0
    0.5778   -3.1333    1.4462 H   0  0  0  0  0  0  0  0  0  0  0  0
    1.2056   -1.9325    2.5766 H   0  0  0  0  0  0  0  0  0  0  0  0
    0.1863   -1.6796   -1.2984 H   0  0  0  0  0  0  0  0  0  0  0  0
   -1.2289   -0.7372   -0.7998 H   0  0  0  0  0  0  0  0  0  0  0  0
   -1.6628   -3.0196    0.7187 H   0  0  0  0  0  0  0  0  0  0  0  0
   -0.5763   -3.7051   -0.4994 H   0  0  0  0  0  0  0  0  0  0  0  0
   -2.4176   -2.1731   -2.0840 H   0  0  0  0  0  0  0  0  0  0  0  0
   -2.2871   -3.9299   -1.9542 H   0  0  0  0  0  0  0  0  0  0  0  0
   -4.1377   -4.1736   -0.6195 H   0  0  0  0  0  0  0  0  0  0  0  0
   -3.8268   -2.7317    0.3570 H   0  0  0  0  0  0  0  0  0  0  0  0
   -5.7421   -4.0403   -2.4282 H   0  0  0  0  0  0  0  0  0  0  0  0
   -7.4882   -2.7447   -3.6021 H   0  0  0  0  0  0  0  0  0  0  0  0
   -7.6475   -0.2920   -3.2848 H   0  0  0  0  0  0  0  0  0  0  0  0
   -6.0264    0.8805   -1.8268 H   0  0  0  0  0  0  0  0  0  0  0  0
   -4.8146   -0.5351    1.3834 H   0  0  0  0  0  0  0  0  0  0  0  0
   -5.0615    1.0836    0.7144 H   0  0  0  0  0  0  0  0  0  0  0  0
   -3.2986    1.0515    2.5090 H   0  0  0  0  0  0  0  0  0  0  0  0
   -1.3574    2.0455    1.3021 H   0  0  0  0  0  0  0  0  0  0  0  0
   -1.9569    1.4650   -0.2644 H   0  0  0  0  0  0  0  0  0  0  0  0
   -2.1804    3.9548    0.4413 H   0  0  0  0  0  0  0  0  0  0  0  0
   -4.0764    4.7117    1.7209 H   0  0  0  0  0  0  0  0  0  0  0  0
   -4.6920    3.0417    1.9565 H   0  0  0  0  0  0  0  0  0  0  0  0
   -3.1377    3.5542    2.7245 H   0  0  0  0  0  0  0  0  0  0  0  0
   -4.8048    2.7644   -0.6176 H   0  0  0  0  0  0  0  0  0  0  0  0
   -4.0981    4.3823   -0.8911 H   0  0  0  0  0  0  0  0  0  0  0  0
   -3.2863    2.9381   -1.5818 H   0  0  0  0  0  0  0  0  0  0  0  0
   -2.6441   -1.3707    1.9834 H   0  0  0  0  0  0  0  0  0  0  0  0
    1.4881    0.0192   -0.7050 H   0  0  0  0  0  0  0  0  0  0  0  0
    0.6405    1.1328    0.3810 H   0  0  0  0  0  0  0  0  0  0  0  0
    3.0339    1.1236    0.8498 H   0  0  0  0  0  0  0  0  0  0  0  0
    2.1846    0.4455    2.2493 H   0  0  0  0  0  0  0  0  0  0  0  0
  1  2  1  0
  2  3  1  0
  3  4  1  0
  4  5  2  0
  5  6  1  0
  6  7  2  0
  7  8  1  0
  8  9  2  0
  9 10  1  0
 10 11  1  0
 11 12  1  0
 12 13  1  0
 13 14  1  0
 14 15  1  0
 15 16  1  0
 16 17  1  0
 17 18  1  0
 18 19  1  0
 19 20  2  0
 20 21  1  0
 21 22  2  0
 22 23  1  0
 23 24  2  0
 24 25  1  0
 25 26  1  0
 26 27  1  0
 27 28  1  0
 28 29  1  0
 29 30  1  0
 29 31  1  0
 27 32  1  0
 32 33  1  0
 33 34  2  0
 14 35  1  0
 35 36  1  0
  9  4  1  0
 36 11  1  0
 33 14  1  0
 24 19  1  0
  1 37  1  0
  1 38  1  0
  1 39  1  0
  2 40  1  0
  2 41  1  0
  5 42  1  0
  6 43  1  0
  7 44  1  0
  8 45  1  0
 10 46  1  0
 10 47  1  0
 12 48  1  0
 12 49  1  0
 13 50  1  0
 13 51  1  0
 15 52  1  0
 15 53  1  0
 16 54  1  0
 16 55  1  0
 17 56  1  0
 17 57  1  0
 18 58  1  0
 18 59  1  0
 20 60  1  0
 21 61  1  0
 22 62  1  0
 23 63  1  0
 26 64  1  0
 26 65  1  0
 27 66  1  0
 28 67  1  0
 28 68  1  0
 29 69  1  0
 30 70  1  0
 30 71  1  0
 30 72  1  0
 31 73  1  0
 31 74  1  0
 31 75  1  0
 32 76  1  0
 35 77  1  0
 35 78  1  0
 36 79  1  0
 36 80  1  0
M  END
$$$$
