
     RDKit          3D

 75 77  0  0  0  0  0  0  0  0999 V2000
    4.7550    4.2091   -1.8774 C   0  0  0  0  0  0  0  0  0  0  0  0
    4.7270    3.1419   -0.8631 N   0  0  0  0  0  0  0  0  0  0  0  0
    5.3859    3.6107    0.3664 C   0  0  0  0  0  0  0  0  0  0  0  0
    3.3330    2.7200   -0.5906 C   0  0  0  0  0  0  0  0  0  0  0  0
    3.2743    1.2410   -0.1893 C   0  0  0  0  0  0  0  0  0  0  0  0
    3.7737    0.3243   -1.3176 C   0  0  0  0  0  0  0  0  0  0  0  0
    3.7498   -1.1561   -0.9187 C   0  0  0  0  0  0  0  0  0  0  0  0
    2.3777   -1.6505   -0.8146 N   0  0  0  0  0  0  0  0  0  0  0  0
    1.6588   -1.6839    0.4238 C   0  0  0  0  0  0  0  0  0  0  0  0
    2.2418   -1.3827    1.5016 O   0  0  0  0  0  0  0  0  0  0  0  0
    0.2120   -2.1016    0.4561 C   0  0  0  0  0  0  0  0  0  0  0  0
   -0.6862   -0.9691    0.9901 C   0  0  0  0  0  0  0  0  0  0  0  0
   -1.0309    0.0710   -0.0531 C   0  0  0  0  0  0  0  0  0  0  0  0
   -0.2412    0.2622   -1.0174 O   0  0  0  0  0  0  0  0  0  0  0  0
   -2.2379    0.8583    0.0064 N   0  0  0  0  0  0  0  0  0  0  0  0
   -3.0458    1.1415    1.2040 C   0  0  0  0  0  0  0  0  0  0  0  0
   -2.2364    1.9385    2.2490 C   0  0  0  0  0  0  0  0  0  0  0  0
   -1.7756    3.2596    1.6888 C   0  0  0  0  0  0  0  0  0  0  0  0
   -0.4754    3.4006    1.1721 C   0  0  0  0  0  0  0  0  0  0  0  0
   -0.0730    4.6148    0.6051 C   0  0  0  0  0  0  0  0  0  0  0  0
   -0.9629    5.6898    0.5468 C   0  0  0  0  0  0  0  0  0  0  0  0
   -2.2586    5.5556    1.0524 C   0  0  0  0  0  0  0  0  0  0  0  0
   -2.6663    4.3453    1.6194 C   0  0  0  0  0  0  0  0  0  0  0  0
   -3.6574   -0.1243    1.7517 C   0  0  0  0  0  0  0  0  0  0  0  0
   -3.4926   -0.4495    2.9601 O   0  0  0  0  0  0  0  0  0  0  0  0
   -4.4008   -0.9780    0.8715 N   0  0  0  0  0  0  0  0  0  0  0  0
   -4.6592   -2.3918    1.1546 C   0  0  0  0  0  0  0  0  0  0  0  0
   -4.1998   -3.2612   -0.0201 C   0  0  0  0  0  0  0  0  0  0  0  0
   -2.8109   -3.5760    0.1016 O   0  0  0  0  0  0  0  0  0  0  0  0
   -2.0918   -4.3458   -0.8325 C   0  0  0  0  0  0  0  0  0  0  0  0
   -2.6237   -4.6542   -2.1032 C   0  0  0  0  0  0  0  0  0  0  0  0
   -1.8963   -5.4268   -3.0093 C   0  0  0  0  0  0  0  0  0  0  0  0
   -0.6336   -5.9081   -2.6637 C   0  0  0  0  0  0  0  0  0  0  0  0
   -0.0989   -5.6251   -1.4059 C   0  0  0  0  0  0  0  0  0  0  0  0
   -0.8119   -4.8365   -0.4893 C   0  0  0  0  0  0  0  0  0  0  0  0
   -0.2312   -4.5958    0.8464 C   0  0  0  0  0  0  0  0  0  0  0  0
    0.0180   -5.5857    1.5846 O   0  0  0  0  0  0  0  0  0  0  0  0
    0.0737   -3.2770    1.3224 N   0  0  0  0  0  0  0  0  0  0  0  0
    4.1370    5.0775   -1.5616 H   0  0  0  0  0  0  0  0  0  0  0  0
    5.7985    4.5480   -2.0551 H   0  0  0  0  0  0  0  0  0  0  0  0
    4.3727    3.8200   -2.8448 H   0  0  0  0  0  0  0  0  0  0  0  0
    6.4340    3.9058    0.1487 H   0  0  0  0  0  0  0  0  0  0  0  0
    4.8560    4.4863    0.8016 H   0  0  0  0  0  0  0  0  0  0  0  0
    5.4279    2.7972    1.1207 H   0  0  0  0  0  0  0  0  0  0  0  0
    2.8768    3.3324    0.2197 H   0  0  0  0  0  0  0  0  0  0  0  0
    2.6860    2.8508   -1.4874 H   0  0  0  0  0  0  0  0  0  0  0  0
    3.8706    1.0715    0.7350 H   0  0  0  0  0  0  0  0  0  0  0  0
    2.2154    0.9976    0.0438 H   0  0  0  0  0  0  0  0  0  0  0  0
    4.8224    0.5965   -1.5695 H   0  0  0  0  0  0  0  0  0  0  0  0
    3.1508    0.4722   -2.2279 H   0  0  0  0  0  0  0  0  0  0  0  0
    4.3050   -1.3137    0.0314 H   0  0  0  0  0  0  0  0  0  0  0  0
    4.2783   -1.7401   -1.7019 H   0  0  0  0  0  0  0  0  0  0  0  0
    1.8578   -1.8181   -1.7077 H   0  0  0  0  0  0  0  0  0  0  0  0
   -0.1155   -2.3501   -0.5760 H   0  0  0  0  0  0  0  0  0  0  0  0
   -0.2131   -0.4812    1.8679 H   0  0  0  0  0  0  0  0  0  0  0  0
   -1.6156   -1.4539    1.3333 H   0  0  0  0  0  0  0  0  0  0  0  0
   -2.5050    1.3739   -0.8640 H   0  0  0  0  0  0  0  0  0  0  0  0
   -3.9017    1.7837    0.8972 H   0  0  0  0  0  0  0  0  0  0  0  0
   -1.3679    1.3487    2.6064 H   0  0  0  0  0  0  0  0  0  0  0  0
   -2.8762    2.1368    3.1377 H   0  0  0  0  0  0  0  0  0  0  0  0
    0.2211    2.5697    1.1972 H   0  0  0  0  0  0  0  0  0  0  0  0
    0.9263    4.7247    0.2083 H   0  0  0  0  0  0  0  0  0  0  0  0
   -0.6503    6.6270    0.1075 H   0  0  0  0  0  0  0  0  0  0  0  0
   -2.9501    6.3868    0.9979 H   0  0  0  0  0  0  0  0  0  0  0  0
   -3.6778    4.2488    1.9965 H   0  0  0  0  0  0  0  0  0  0  0  0
   -4.7870   -0.5709   -0.0128 H   0  0  0  0  0  0  0  0  0  0  0  0
   -4.1515   -2.7209    2.0861 H   0  0  0  0  0  0  0  0  0  0  0  0
   -5.7542   -2.5221    1.2964 H   0  0  0  0  0  0  0  0  0  0  0  0
   -4.7817   -4.2103   -0.0201 H   0  0  0  0  0  0  0  0  0  0  0  0
   -4.3922   -2.7245   -0.9757 H   0  0  0  0  0  0  0  0  0  0  0  0
   -3.5987   -4.3049   -2.4055 H   0  0  0  0  0  0  0  0  0  0  0  0
   -2.3119   -5.6539   -3.9835 H   0  0  0  0  0  0  0  0  0  0  0  0
   -0.0716   -6.5077   -3.3700 H   0  0  0  0  0  0  0  0  0  0  0  0
    0.8786   -6.0152   -1.1479 H   0  0  0  0  0  0  0  0  0  0  0  0
    0.3243   -3.1732    2.3324 H   0  0  0  0  0  0  0  0  0  0  0  0
  1  2  1  0
  2  3  1  0
  2  4  1  0
  4  5  1  0
  5  6  1  0
  6  7  1  0
  7  8  1  0
  8  9  1  0
  9 10  2  0
  9 11  1  0
 11 12  1  0
 12 13  1  0
 13 14  2  0
 13 15  1  0
 15 16  1  0
 16 17  1  0
 17 18  1  0
 18 19  2  0
 19 20  1  0
 20 21  2  0
 21 22  1  0
 22 23  2  0
 16 24  1  0
 24 25  2  0
 24 26  1  0
 26 27  1  0
 27 28  1  0
 28 29  1  0
 29 30  1  0
 30 31  2  0
 31 32  1  0
 32 33  2  0
 33 34  1  0
 34 35  2  0
 35 36  1  0
 36 37  2  0
 36 38  1  0
 38 11  1  0
 23 18  1  0
 35 30  1  0
  1 39  1  0
  1 40  1  0
  1 41  1  0
  3 42  1  0
  3 43  1  0
  3 44  1  0
  4 45  1  0
  4 46  1  0
  5 47  1  0
  5 48  1  0
  6 49  1  0
  6 50  1  0
  7 51  1  0
  7 52  1  0
  8 53  1  0
 11 54  1  0
 12 55  1  0
 12 56  1  0
 15 57  1  0
 16 58  1  0
 17 59  1  0
 17 60  1  0
 19 61  1  0
 20 62  1  0
 21 63  1  0
 22 64  1  0
 23 65  1  0
 26 66  1  0
 27 67  1  0
 27 68  1  0
 28 69  1  0
 28 70  1  0
 31 71  1  0
 32 72  1  0
 33 73  1  0
 34 74  1  0
 38 75  1  0
M  END
$$$$
