
     RDKit          3D

 75 77  0  0  0  0  0  0  0  0999 V2000
    3.2401   -1.2457   -3.5585 C   0  0  0  0  0  0  0  0  0  0  0  0
    3.5353   -1.7357   -2.1327 C   0  0  0  0  0  0  0  0  0  0  0  0
    4.5612   -0.8279   -1.4403 C   0  0  0  0  0  0  0  0  0  0  0  0
    2.2578   -1.9296   -1.2810 C   0  0  0  0  0  0  0  0  0  0  0  0
    1.5531   -0.6410   -0.9025 C   0  0  0  0  0  0  0  0  0  0  0  0
    1.2711    0.1798   -1.8142 O   0  0  0  0  0  0  0  0  0  0  0  0
    1.2050   -0.3155    0.4652 N   0  0  0  0  0  0  0  0  0  0  0  0
    1.0742   -1.4041    1.4569 C   0  0  0  0  0  0  0  0  0  0  0  0
    0.0850   -1.0960    2.6041 C   0  0  0  0  0  0  0  0  0  0  0  0
   -1.1943   -1.9600    2.5667 C   0  0  0  0  0  0  0  0  0  0  0  0
   -1.9541   -1.7864    1.3005 N   0  0  0  0  0  0  0  0  0  0  0  0
   -2.7080   -3.0198    0.9616 C   0  0  0  0  0  0  0  0  0  0  0  0
   -1.8158   -4.0790    0.2704 C   0  0  0  0  0  0  0  0  0  0  0  0
   -2.5582   -5.4187    0.1832 C   0  0  0  0  0  0  0  0  0  0  0  0
   -1.3924   -3.6284   -1.1322 C   0  0  0  0  0  0  0  0  0  0  0  0
   -2.8845   -0.6306    1.3990 C   0  0  0  0  0  0  0  0  0  0  0  0
   -3.0857    0.0851    0.0399 C   0  0  0  0  0  0  0  0  0  0  0  0
   -1.8129    0.2619   -0.8224 C   0  0  0  0  0  0  0  0  0  0  0  0
   -1.1735    1.5859   -0.6755 N   0  0  0  0  0  0  0  0  0  0  0  0
   -0.8976    2.3853   -1.8466 C   0  0  0  0  0  0  0  0  0  0  0  0
   -0.7458    1.8331   -2.9695 O   0  0  0  0  0  0  0  0  0  0  0  0
   -0.7538    3.8481   -1.7621 C   0  0  0  0  0  0  0  0  0  0  0  0
    0.3495    4.5636   -2.1736 C   0  0  0  0  0  0  0  0  0  0  0  0
    0.0253    5.8798   -1.9055 C   0  0  0  0  0  0  0  0  0  0  0  0
   -1.2133    5.9445   -1.3769 N   0  0  0  0  0  0  0  0  0  0  0  0
   -1.6847    4.7103   -1.3010 N   0  0  0  0  0  0  0  0  0  0  0  0
   -3.0243    4.3987   -0.8110 C   0  0  0  0  0  0  0  0  0  0  0  0
   -0.7293    2.0553    0.6452 C   0  0  0  0  0  0  0  0  0  0  0  0
    0.7784    2.1417    0.7938 C   0  0  0  0  0  0  0  0  0  0  0  0
    1.3359    3.4162    1.0166 C   0  0  0  0  0  0  0  0  0  0  0  0
    2.6858    3.5647    1.3359 C   0  0  0  0  0  0  0  0  0  0  0  0
    3.1992    4.8019    1.5450 F   0  0  0  0  0  0  0  0  0  0  0  0
    3.5007    2.4429    1.4587 C   0  0  0  0  0  0  0  0  0  0  0  0
    2.9760    1.1714    1.2345 C   0  0  0  0  0  0  0  0  0  0  0  0
    1.6250    0.9979    0.8873 C   0  0  0  0  0  0  0  0  0  0  0  0
    2.4074   -1.8295   -4.0086 H   0  0  0  0  0  0  0  0  0  0  0  0
    2.9805   -0.1663   -3.5739 H   0  0  0  0  0  0  0  0  0  0  0  0
    4.1392   -1.3859   -4.1957 H   0  0  0  0  0  0  0  0  0  0  0  0
    4.0038   -2.7404   -2.2332 H   0  0  0  0  0  0  0  0  0  0  0  0
    5.5058   -0.8056   -2.0245 H   0  0  0  0  0  0  0  0  0  0  0  0
    4.1785    0.2116   -1.3545 H   0  0  0  0  0  0  0  0  0  0  0  0
    4.7899   -1.2145   -0.4248 H   0  0  0  0  0  0  0  0  0  0  0  0
    1.5435   -2.5775   -1.8317 H   0  0  0  0  0  0  0  0  0  0  0  0
    2.5644   -2.4894   -0.3745 H   0  0  0  0  0  0  0  0  0  0  0  0
    2.0771   -1.6141    1.8892 H   0  0  0  0  0  0  0  0  0  0  0  0
    0.7466   -2.3377    0.9524 H   0  0  0  0  0  0  0  0  0  0  0  0
   -0.1624   -0.0264    2.6707 H   0  0  0  0  0  0  0  0  0  0  0  0
    0.5979   -1.3225    3.5642 H   0  0  0  0  0  0  0  0  0  0  0  0
   -1.8288   -1.7164    3.4500 H   0  0  0  0  0  0  0  0  0  0  0  0
   -0.8807   -3.0159    2.7148 H   0  0  0  0  0  0  0  0  0  0  0  0
   -3.1704   -3.4489    1.8810 H   0  0  0  0  0  0  0  0  0  0  0  0
   -3.5496   -2.7901    0.2680 H   0  0  0  0  0  0  0  0  0  0  0  0
   -0.8951   -4.2517    0.8649 H   0  0  0  0  0  0  0  0  0  0  0  0
   -1.9130   -6.1866   -0.2952 H   0  0  0  0  0  0  0  0  0  0  0  0
   -3.4912   -5.3118   -0.4111 H   0  0  0  0  0  0  0  0  0  0  0  0
   -2.8192   -5.7803    1.2010 H   0  0  0  0  0  0  0  0  0  0  0  0
   -0.7540   -4.4057   -1.6063 H   0  0  0  0  0  0  0  0  0  0  0  0
   -2.2802   -3.4493   -1.7776 H   0  0  0  0  0  0  0  0  0  0  0  0
   -0.7947   -2.7007   -1.0727 H   0  0  0  0  0  0  0  0  0  0  0  0
   -3.8814   -0.9544    1.7780 H   0  0  0  0  0  0  0  0  0  0  0  0
   -2.5540    0.1016    2.1603 H   0  0  0  0  0  0  0  0  0  0  0  0
   -3.5637    1.0732    0.2120 H   0  0  0  0  0  0  0  0  0  0  0  0
   -3.8151   -0.5144   -0.5468 H   0  0  0  0  0  0  0  0  0  0  0  0
   -2.1126    0.1031   -1.8813 H   0  0  0  0  0  0  0  0  0  0  0  0
   -1.0808   -0.5249   -0.6063 H   0  0  0  0  0  0  0  0  0  0  0  0
    1.2691    4.1821   -2.5992 H   0  0  0  0  0  0  0  0  0  0  0  0
    0.6555    6.7397   -2.0855 H   0  0  0  0  0  0  0  0  0  0  0  0
   -3.7509    5.1324   -1.2194 H   0  0  0  0  0  0  0  0  0  0  0  0
   -3.3395    3.3835   -1.1310 H   0  0  0  0  0  0  0  0  0  0  0  0
   -3.0419    4.4589    0.2969 H   0  0  0  0  0  0  0  0  0  0  0  0
   -1.1050    1.4150    1.4377 H   0  0  0  0  0  0  0  0  0  0  0  0
   -1.2036    3.0340    0.8589 H   0  0  0  0  0  0  0  0  0  0  0  0
    0.7178    4.3043    0.9639 H   0  0  0  0  0  0  0  0  0  0  0  0
    4.5471    2.5581    1.7103 H   0  0  0  0  0  0  0  0  0  0  0  0
    3.6338    0.3136    1.2960 H   0  0  0  0  0  0  0  0  0  0  0  0
  1  2  1  0
  2  3  1  0
  2  4  1  0
  4  5  1  0
  5  6  2  0
  5  7  1  0
  7  8  1  0
  8  9  1  0
  9 10  1  0
 10 11  1  0
 11 12  1  0
 12 13  1  0
 13 14  1  0
 13 15  1  0
 11 16  1  0
 16 17  1  0
 17 18  1  0
 18 19  1  0
 19 20  1  0
 20 21  2  0
 20 22  1  0
 22 23  2  0
 23 24  1  0
 24 25  2  0
 25 26  1  0
 26 27  1  0
 19 28  1  0
 28 29  1  0
 29 30  2  0
 30 31  1  0
 31 32  1  0
 31 33  2  0
 33 34  1  0
 34 35  2  0
 35  7  1  0
 26 22  1  0
 35 29  1  0
  1 36  1  0
  1 37  1  0
  1 38  1  0
  2 39  1  0
  3 40  1  0
  3 41  1  0
  3 42  1  0
  4 43  1  0
  4 44  1  0
  8 45  1  0
  8 46  1  0
  9 47  1  0
  9 48  1  0
 10 49  1  0
 10 50  1  0
 12 51  1  0
 12 52  1  0
 13 53  1  0
 14 54  1  0
 14 55  1  0
 14 56  1  0
 15 57  1  0
 15 58  1  0
 15 59  1  0
 16 60  1  0
 16 61  1  0
 17 62  1  0
 17 63  1  0
 18 64  1  0
 18 65  1  0
 23 66  1  0
 24 67  1  0
 27 68  1  0
 27 69  1  0
 27 70  1  0
 28 71  1  0
 28 72  1  0
 30 73  1  0
 33 74  1  0
 34 75  1  0
M  END
$$$$
