
     RDKit          3D

 63 65  0  0  0  0  0  0  0  0999 V2000
   -2.9566    2.5866    3.7390 C   0  0  0  0  0  0  0  0  0  0  0  0
   -1.9430    1.4877    3.4340 C   0  0  0  0  0  0  0  0  0  0  0  0
   -1.3396    1.6758    2.0654 C   0  0  0  0  0  0  0  0  0  0  0  0
   -0.2821    2.3600    1.9744 O   0  0  0  0  0  0  0  0  0  0  0  0
   -1.9562    1.1478    0.8637 N   0  0  0  0  0  0  0  0  0  0  0  0
   -3.1649    0.3017    0.9034 C   0  0  0  0  0  0  0  0  0  0  0  0
   -2.8089   -1.1641    1.2210 C   0  0  0  0  0  0  0  0  0  0  0  0
   -2.7116   -2.0182   -0.0486 C   0  0  0  0  0  0  0  0  0  0  0  0
   -2.0621   -3.3100    0.2520 N   0  0  0  0  0  0  0  0  0  0  0  0
   -2.7431   -4.4546   -0.3805 C   0  0  0  0  0  0  0  0  0  0  0  0
   -0.5878   -3.3309    0.0712 C   0  0  0  0  0  0  0  0  0  0  0  0
   -0.0853   -3.1927   -1.3952 C   0  0  0  0  0  0  0  0  0  0  0  0
    0.3519   -1.7776   -1.8529 C   0  0  0  0  0  0  0  0  0  0  0  0
    1.2075   -1.0556   -0.8865 N   0  0  0  0  0  0  0  0  0  0  0  0
    2.5650   -1.5072   -0.6741 C   0  0  0  0  0  0  0  0  0  0  0  0
    2.8246   -2.7408   -0.7324 O   0  0  0  0  0  0  0  0  0  0  0  0
    3.6747   -0.5638   -0.4010 C   0  0  0  0  0  0  0  0  0  0  0  0
    4.8350   -1.0090    0.2535 C   0  0  0  0  0  0  0  0  0  0  0  0
    5.8854   -0.1174    0.4763 C   0  0  0  0  0  0  0  0  0  0  0  0
    5.7727    1.2077    0.0534 C   0  0  0  0  0  0  0  0  0  0  0  0
    4.6051    1.6268   -0.5875 C   0  0  0  0  0  0  0  0  0  0  0  0
    4.4953    2.9574   -0.9986 O   0  0  0  0  0  0  0  0  0  0  0  0
    3.3297    3.4872   -1.6199 C   0  0  0  0  0  0  0  0  0  0  0  0
    3.5975    0.7345   -0.8100 N   0  0  0  0  0  0  0  0  0  0  0  0
    0.6447    0.0336   -0.0578 C   0  0  0  0  0  0  0  0  0  0  0  0
   -0.1519    1.0368   -0.8642 C   0  0  0  0  0  0  0  0  0  0  0  0
    0.3831    1.5285   -2.0676 C   0  0  0  0  0  0  0  0  0  0  0  0
   -0.3259    2.4513   -2.8385 C   0  0  0  0  0  0  0  0  0  0  0  0
    0.2092    2.9133   -3.9980 F   0  0  0  0  0  0  0  0  0  0  0  0
   -1.5777    2.9010   -2.4146 C   0  0  0  0  0  0  0  0  0  0  0  0
   -2.2709    3.7953   -3.1629 F   0  0  0  0  0  0  0  0  0  0  0  0
   -2.1163    2.4380   -1.2114 C   0  0  0  0  0  0  0  0  0  0  0  0
   -1.4108    1.5183   -0.4192 C   0  0  0  0  0  0  0  0  0  0  0  0
   -3.7698    2.6030    2.9770 H   0  0  0  0  0  0  0  0  0  0  0  0
   -3.4090    2.4075    4.7384 H   0  0  0  0  0  0  0  0  0  0  0  0
   -2.4556    3.5789    3.7459 H   0  0  0  0  0  0  0  0  0  0  0  0
   -1.1358    1.5342    4.1969 H   0  0  0  0  0  0  0  0  0  0  0  0
   -2.4183    0.4947    3.5340 H   0  0  0  0  0  0  0  0  0  0  0  0
   -3.7191    0.3672   -0.0640 H   0  0  0  0  0  0  0  0  0  0  0  0
   -3.8751    0.6840    1.6665 H   0  0  0  0  0  0  0  0  0  0  0  0
   -3.5998   -1.6019    1.8695 H   0  0  0  0  0  0  0  0  0  0  0  0
   -1.8632   -1.2149    1.7989 H   0  0  0  0  0  0  0  0  0  0  0  0
   -3.7483   -2.1692   -0.4293 H   0  0  0  0  0  0  0  0  0  0  0  0
   -2.1766   -1.4622   -0.8334 H   0  0  0  0  0  0  0  0  0  0  0  0
   -2.8576   -4.3068   -1.4783 H   0  0  0  0  0  0  0  0  0  0  0  0
   -2.1843   -5.3976   -0.1921 H   0  0  0  0  0  0  0  0  0  0  0  0
   -3.7548   -4.5744    0.0614 H   0  0  0  0  0  0  0  0  0  0  0  0
   -0.1149   -2.5910    0.7362 H   0  0  0  0  0  0  0  0  0  0  0  0
   -0.2100   -4.2995    0.4644 H   0  0  0  0  0  0  0  0  0  0  0  0
    0.7808   -3.8757   -1.5330 H   0  0  0  0  0  0  0  0  0  0  0  0
   -0.8453   -3.5650   -2.1109 H   0  0  0  0  0  0  0  0  0  0  0  0
   -0.5354   -1.1781   -2.1293 H   0  0  0  0  0  0  0  0  0  0  0  0
    0.9125   -1.8802   -2.8080 H   0  0  0  0  0  0  0  0  0  0  0  0
    4.9264   -2.0363    0.5895 H   0  0  0  0  0  0  0  0  0  0  0  0
    6.7893   -0.4540    0.9712 H   0  0  0  0  0  0  0  0  0  0  0  0
    6.5802    1.9083    0.2305 H   0  0  0  0  0  0  0  0  0  0  0  0
    2.4518    3.3850   -0.9442 H   0  0  0  0  0  0  0  0  0  0  0  0
    3.4924    4.5645   -1.8309 H   0  0  0  0  0  0  0  0  0  0  0  0
    3.1304    2.9647   -2.5827 H   0  0  0  0  0  0  0  0  0  0  0  0
    1.4383    0.5844    0.4841 H   0  0  0  0  0  0  0  0  0  0  0  0
    0.0152   -0.4121    0.7267 H   0  0  0  0  0  0  0  0  0  0  0  0
    1.3461    1.1830   -2.4171 H   0  0  0  0  0  0  0  0  0  0  0  0
   -3.0772    2.8120   -0.8812 H   0  0  0  0  0  0  0  0  0  0  0  0
  1  2  1  0
  2  3  1  0
  3  4  2  0
  3  5  1  0
  5  6  1  0
  6  7  1  0
  7  8  1  0
  8  9  1  0
  9 10  1  0
  9 11  1  0
 11 12  1  0
 12 13  1  0
 13 14  1  0
 14 15  1  0
 15 16  2  0
 15 17  1  0
 17 18  2  0
 18 19  1  0
 19 20  2  0
 20 21  1  0
 21 22  1  0
 22 23  1  0
 21 24  2  0
 14 25  1  0
 25 26  1  0
 26 27  2  0
 27 28  1  0
 28 29  1  0
 28 30  2  0
 30 31  1  0
 30 32  1  0
 32 33  2  0
 33  5  1  0
 24 17  1  0
 33 26  1  0
  1 34  1  0
  1 35  1  0
  1 36  1  0
  2 37  1  0
  2 38  1  0
  6 39  1  0
  6 40  1  0
  7 41  1  0
  7 42  1  0
  8 43  1  0
  8 44  1  0
 10 45  1  0
 10 46  1  0
 10 47  1  0
 11 48  1  0
 11 49  1  0
 12 50  1  0
 12 51  1  0
 13 52  1  0
 13 53  1  0
 18 54  1  0
 19 55  1  0
 20 56  1  0
 23 57  1  0
 23 58  1  0
 23 59  1  0
 25 60  1  0
 25 61  1  0
 27 62  1  0
 32 63  1  0
M  END
$$$$
