
     RDKit          3D

 85 87  0  0  0  0  0  0  0  0999 V2000
   -5.8295   -1.2055   -0.2927 C   0  0  0  0  0  0  0  0  0  0  0  0
   -4.6343   -1.9104    0.3682 C   0  0  0  0  0  0  0  0  0  0  0  0
   -4.4504   -3.3012   -0.2464 C   0  0  0  0  0  0  0  0  0  0  0  0
   -3.3583   -1.0089    0.3560 C   0  0  2  0  0  0  0  0  0  0  0  0
   -2.9167   -0.5806   -0.9919 N   0  0  0  0  0  0  0  0  0  0  0  0
   -3.1291    0.8580   -1.2294 C   0  0  0  0  0  0  0  0  0  0  0  0
   -2.0745    1.6973   -0.5054 C   0  0  0  0  0  0  0  0  0  0  0  0
   -2.4076    3.0748   -0.6156 O   0  0  0  0  0  0  0  0  0  0  0  0
   -2.0593    4.0857    0.2997 C   0  0  0  0  0  0  0  0  0  0  0  0
   -3.0260    5.0790    0.5072 C   0  0  0  0  0  0  0  0  0  0  0  0
   -2.7907    6.1414    1.3801 C   0  0  0  0  0  0  0  0  0  0  0  0
   -1.5715    6.2412    2.0457 C   0  0  0  0  0  0  0  0  0  0  0  0
   -0.5854    5.2761    1.8444 C   0  0  0  0  0  0  0  0  0  0  0  0
   -0.8054    4.1796    0.9852 C   0  0  0  0  0  0  0  0  0  0  0  0
    0.3514    3.2162    0.7837 C   0  0  0  0  0  0  0  0  0  0  0  0
    1.1610    3.5105   -0.5026 C   0  0  2  0  0  0  0  0  0  0  0  0
    0.2827    3.7394   -1.5783 O   0  0  0  0  0  0  0  0  0  0  0  0
    2.0942    2.3280   -0.8539 C   0  0  1  0  0  0  0  0  0  0  0  0
    2.9892    2.6503   -2.0534 C   0  0  0  0  0  0  0  0  0  0  0  0
    2.9338    1.9792    0.2958 N   0  0  0  0  0  0  0  0  0  0  0  0
    2.7995    0.7529    1.0284 C   0  0  0  0  0  0  0  0  0  0  0  0
    2.9817    0.7674    2.2743 O   0  0  0  0  0  0  0  0  0  0  0  0
    2.4451   -0.5448    0.3386 C   0  0  1  0  0  0  0  0  0  0  0  0
    3.2966   -1.7265    0.8461 C   0  0  0  0  0  0  0  0  0  0  0  0
    4.7730   -1.5151    0.6231 C   0  0  0  0  0  0  0  0  0  0  0  0
    5.3262   -1.6817   -0.6574 C   0  0  0  0  0  0  0  0  0  0  0  0
    6.6996   -1.5092   -0.8561 C   0  0  0  0  0  0  0  0  0  0  0  0
    7.5291   -1.1654    0.2177 C   0  0  0  0  0  0  0  0  0  0  0  0
    6.9840   -0.9833    1.4919 C   0  0  0  0  0  0  0  0  0  0  0  0
    7.7856   -0.6453    2.5322 F   0  0  0  0  0  0  0  0  0  0  0  0
    5.6096   -1.1566    1.6946 C   0  0  0  0  0  0  0  0  0  0  0  0
    1.0312   -0.8491    0.5670 N   0  0  0  0  0  0  0  0  0  0  0  0
    0.2211   -1.3685   -0.4915 C   0  0  0  0  0  0  0  0  0  0  0  0
    0.0903   -0.7007   -1.5510 O   0  0  0  0  0  0  0  0  0  0  0  0
   -0.4171   -2.7375   -0.3522 C   0  0  2  0  0  0  0  0  0  0  0  0
   -0.9362   -3.3061   -1.7072 C   0  0  0  0  0  0  0  0  0  0  0  0
   -1.3258   -4.7872   -1.6240 C   0  0  0  0  0  0  0  0  0  0  0  0
    0.0279   -3.1446   -2.7191 O   0  0  0  0  0  0  0  0  0  0  0  0
   -1.4587   -2.7669    0.7059 N   0  0  0  0  0  0  0  0  0  0  0  0
   -1.3536   -3.8444    1.7025 C   0  0  0  0  0  0  0  0  0  0  0  0
   -2.1894   -1.5915    1.1306 C   0  0  0  0  0  0  0  0  0  0  0  0
   -1.8905   -1.0634    2.2378 O   0  0  0  0  0  0  0  0  0  0  0  0
   -6.7572   -1.7951   -0.1341 H   0  0  0  0  0  0  0  0  0  0  0  0
   -5.9836   -0.2014    0.1499 H   0  0  0  0  0  0  0  0  0  0  0  0
   -5.6769   -1.1005   -1.3827 H   0  0  0  0  0  0  0  0  0  0  0  0
   -4.9154   -2.0643    1.4345 H   0  0  0  0  0  0  0  0  0  0  0  0
   -4.0902   -3.2434   -1.2950 H   0  0  0  0  0  0  0  0  0  0  0  0
   -5.4154   -3.8516   -0.2375 H   0  0  0  0  0  0  0  0  0  0  0  0
   -3.7552   -3.9037    0.3645 H   0  0  0  0  0  0  0  0  0  0  0  0
   -3.6715   -0.1181    0.9518 H   0  0  0  0  0  0  0  0  0  0  0  0
   -3.4249   -1.1046   -1.7408 H   0  0  0  0  0  0  0  0  0  0  0  0
   -3.0475    1.0657   -2.3177 H   0  0  0  0  0  0  0  0  0  0  0  0
   -4.1490    1.1697   -0.9157 H   0  0  0  0  0  0  0  0  0  0  0  0
   -2.0501    1.4105    0.5662 H   0  0  0  0  0  0  0  0  0  0  0  0
   -1.0929    1.5183   -0.9861 H   0  0  0  0  0  0  0  0  0  0  0  0
   -3.9777    5.0190   -0.0087 H   0  0  0  0  0  0  0  0  0  0  0  0
   -3.5525    6.8950    1.5292 H   0  0  0  0  0  0  0  0  0  0  0  0
   -1.3799    7.0782    2.7038 H   0  0  0  0  0  0  0  0  0  0  0  0
    0.3615    5.3927    2.3594 H   0  0  0  0  0  0  0  0  0  0  0  0
    1.0464    3.2947    1.6526 H   0  0  0  0  0  0  0  0  0  0  0  0
    0.0249    2.1646    0.8346 H   0  0  0  0  0  0  0  0  0  0  0  0
    1.7820    4.4176   -0.3044 H   0  0  0  0  0  0  0  0  0  0  0  0
    0.6618    4.4804   -2.1194 H   0  0  0  0  0  0  0  0  0  0  0  0
    1.4547    1.4720   -1.1399 H   0  0  0  0  0  0  0  0  0  0  0  0
    2.3750    2.8261   -2.9603 H   0  0  0  0  0  0  0  0  0  0  0  0
    3.6070    3.5507   -1.8548 H   0  0  0  0  0  0  0  0  0  0  0  0
    3.6679    1.7955   -2.2560 H   0  0  0  0  0  0  0  0  0  0  0  0
    3.5376    2.7300    0.7026 H   0  0  0  0  0  0  0  0  0  0  0  0
    2.6414   -0.4372   -0.7511 H   0  0  0  0  0  0  0  0  0  0  0  0
    2.9889   -2.6487    0.3068 H   0  0  0  0  0  0  0  0  0  0  0  0
    3.0902   -1.9084    1.9256 H   0  0  0  0  0  0  0  0  0  0  0  0
    4.6946   -1.9566   -1.4970 H   0  0  0  0  0  0  0  0  0  0  0  0
    7.1235   -1.6396   -1.8424 H   0  0  0  0  0  0  0  0  0  0  0  0
    8.5949   -1.0323    0.0599 H   0  0  0  0  0  0  0  0  0  0  0  0
    5.2030   -1.0176    2.6881 H   0  0  0  0  0  0  0  0  0  0  0  0
    0.7324   -1.0328    1.5507 H   0  0  0  0  0  0  0  0  0  0  0  0
    0.4193   -3.4065   -0.0440 H   0  0  0  0  0  0  0  0  0  0  0  0
   -1.8347   -2.7452   -2.0192 H   0  0  0  0  0  0  0  0  0  0  0  0
   -0.4740   -5.3936   -1.2547 H   0  0  0  0  0  0  0  0  0  0  0  0
   -1.6124   -5.1588   -2.6308 H   0  0  0  0  0  0  0  0  0  0  0  0
   -2.1923   -4.9390   -0.9579 H   0  0  0  0  0  0  0  0  0  0  0  0
    0.8251   -3.6823   -2.4653 H   0  0  0  0  0  0  0  0  0  0  0  0
   -1.2574   -4.8271    1.2064 H   0  0  0  0  0  0  0  0  0  0  0  0
   -2.2597   -3.8755    2.3505 H   0  0  0  0  0  0  0  0  0  0  0  0
   -0.4645   -3.6796    2.3496 H   0  0  0  0  0  0  0  0  0  0  0  0
  1  2  1  0
  2  3  1  0
  2  4  1  0
  4  5  1  0
  5  6  1  0
  6  7  1  0
  7  8  1  0
  8  9  1  0
  9 10  2  0
 10 11  1  0
 11 12  2  0
 12 13  1  0
 13 14  2  0
 14 15  1  0
 15 16  1  0
 16 17  1  0
 16 18  1  0
 18 19  1  0
 18 20  1  0
 20 21  1  0
 21 22  2  0
 21 23  1  0
 23 24  1  0
 24 25  1  0
 25 26  2  0
 26 27  1  0
 27 28  2  0
 28 29  1  0
 29 30  1  0
 29 31  2  0
 23 32  1  0
 32 33  1  0
 33 34  2  0
 33 35  1  0
 35 36  1  0
 36 37  1  0
 36 38  1  0
 35 39  1  0
 39 40  1  0
 39 41  1  0
 41 42  2  0
 41  4  1  0
 14  9  1  0
 31 25  1  0
  1 43  1  0
  1 44  1  0
  1 45  1  0
  2 46  1  0
  3 47  1  0
  3 48  1  0
  3 49  1  0
  4 50  1  1
  5 51  1  0
  6 52  1  0
  6 53  1  0
  7 54  1  0
  7 55  1  0
 10 56  1  0
 11 57  1  0
 12 58  1  0
 13 59  1  0
 15 60  1  0
 15 61  1  0
 16 62  1  1
 17 63  1  0
 18 64  1  6
 19 65  1  0
 19 66  1  0
 19 67  1  0
 20 68  1  0
 23 69  1  6
 24 70  1  0
 24 71  1  0
 26 72  1  0
 27 73  1  0
 28 74  1  0
 31 75  1  0
 32 76  1  0
 35 77  1  1
 36 78  1  0
 37 79  1  0
 37 80  1  0
 37 81  1  0
 38 82  1  0
 40 83  1  0
 40 84  1  0
 40 85  1  0
M  END
$$$$
