
     RDKit          3D

 64 66  0  0  0  0  0  0  0  0999 V2000
   -4.8350   -3.4398    2.4861 C   0  0  0  0  0  0  0  0  0  0  0  0
   -3.7624   -2.3620    2.3427 C   0  0  0  0  0  0  0  0  0  0  0  0
   -2.6173   -2.7979    1.4608 C   0  0  0  0  0  0  0  0  0  0  0  0
   -2.3428   -4.0251    1.3680 O   0  0  0  0  0  0  0  0  0  0  0  0
   -1.7908   -1.8390    0.7660 N   0  0  0  0  0  0  0  0  0  0  0  0
   -1.7595   -0.4179    1.1444 C   0  0  0  0  0  0  0  0  0  0  0  0
   -2.4463    0.4568    0.0871 C   0  0  0  0  0  0  0  0  0  0  0  0
   -2.1243    1.9492    0.2625 C   0  0  0  0  0  0  0  0  0  0  0  0
   -0.7593    2.2472   -0.2471 N   0  0  0  0  0  0  0  0  0  0  0  0
   -0.6797    3.3284   -1.2658 C   0  0  0  0  0  0  0  0  0  0  0  0
   -1.2153    2.8278   -2.6116 C   0  0  0  0  0  0  0  0  0  0  0  0
   -1.3745    4.6384   -0.8408 C   0  0  0  0  0  0  0  0  0  0  0  0
    0.2633    2.3780    0.8208 C   0  0  0  0  0  0  0  0  0  0  0  0
    1.6256    1.8005    0.3870 C   0  0  0  0  0  0  0  0  0  0  0  0
    1.5712    0.4052   -0.2946 C   0  0  0  0  0  0  0  0  0  0  0  0
    2.0330   -0.6945    0.5855 N   0  0  0  0  0  0  0  0  0  0  0  0
    3.3117   -0.6097    1.2528 C   0  0  0  0  0  0  0  0  0  0  0  0
    3.4408   -1.0885    2.4133 O   0  0  0  0  0  0  0  0  0  0  0  0
    4.4834    0.0160    0.6093 C   0  0  0  0  0  0  0  0  0  0  0  0
    4.7954   -0.2275   -0.7333 C   0  0  0  0  0  0  0  0  0  0  0  0
    5.8942    0.3484   -1.2901 N   0  0  0  0  0  0  0  0  0  0  0  0
    6.6927    1.1751   -0.5660 C   0  0  0  0  0  0  0  0  0  0  0  0
    6.4126    1.4225    0.7400 N   0  0  0  0  0  0  0  0  0  0  0  0
    5.3335    0.8549    1.3398 C   0  0  0  0  0  0  0  0  0  0  0  0
    1.2168   -1.9038    0.8307 C   0  0  0  0  0  0  0  0  0  0  0  0
    0.3916   -2.3076   -0.3723 C   0  0  0  0  0  0  0  0  0  0  0  0
    1.0712   -2.7399   -1.5252 C   0  0  0  0  0  0  0  0  0  0  0  0
    0.3656   -3.1399   -2.6613 C   0  0  0  0  0  0  0  0  0  0  0  0
    1.0395   -3.5468   -3.7654 F   0  0  0  0  0  0  0  0  0  0  0  0
   -1.0293   -3.1161   -2.6614 C   0  0  0  0  0  0  0  0  0  0  0  0
   -1.7160   -3.5056   -3.7639 F   0  0  0  0  0  0  0  0  0  0  0  0
   -1.7214   -2.6978   -1.5240 C   0  0  0  0  0  0  0  0  0  0  0  0
   -1.0277   -2.2802   -0.3753 C   0  0  0  0  0  0  0  0  0  0  0  0
   -5.2379   -3.7142    1.4871 H   0  0  0  0  0  0  0  0  0  0  0  0
   -5.6657   -3.0557    3.1140 H   0  0  0  0  0  0  0  0  0  0  0  0
   -4.4134   -4.3416    2.9776 H   0  0  0  0  0  0  0  0  0  0  0  0
   -4.2452   -1.4618    1.9056 H   0  0  0  0  0  0  0  0  0  0  0  0
   -3.3667   -2.1034    3.3480 H   0  0  0  0  0  0  0  0  0  0  0  0
   -2.2351   -0.2436    2.1299 H   0  0  0  0  0  0  0  0  0  0  0  0
   -0.7150   -0.1113    1.2593 H   0  0  0  0  0  0  0  0  0  0  0  0
   -3.5454    0.3037    0.1641 H   0  0  0  0  0  0  0  0  0  0  0  0
   -2.1362    0.1504   -0.9345 H   0  0  0  0  0  0  0  0  0  0  0  0
   -2.2508    2.2589    1.3237 H   0  0  0  0  0  0  0  0  0  0  0  0
   -2.9014    2.4979   -0.3053 H   0  0  0  0  0  0  0  0  0  0  0  0
    0.3876    3.5817   -1.4458 H   0  0  0  0  0  0  0  0  0  0  0  0
   -1.0522    3.5946   -3.3988 H   0  0  0  0  0  0  0  0  0  0  0  0
   -0.6797    1.9005   -2.9072 H   0  0  0  0  0  0  0  0  0  0  0  0
   -2.2997    2.6044   -2.5576 H   0  0  0  0  0  0  0  0  0  0  0  0
   -1.0267    5.4699   -1.4915 H   0  0  0  0  0  0  0  0  0  0  0  0
   -1.1300    4.9013    0.2077 H   0  0  0  0  0  0  0  0  0  0  0  0
   -2.4770    4.5779   -0.9441 H   0  0  0  0  0  0  0  0  0  0  0  0
   -0.0447    1.8754    1.7593 H   0  0  0  0  0  0  0  0  0  0  0  0
    0.4044    3.4435    1.1026 H   0  0  0  0  0  0  0  0  0  0  0  0
    2.2900    1.7887    1.2752 H   0  0  0  0  0  0  0  0  0  0  0  0
    2.0952    2.5135   -0.3253 H   0  0  0  0  0  0  0  0  0  0  0  0
    2.2175    0.4316   -1.1970 H   0  0  0  0  0  0  0  0  0  0  0  0
    0.5568    0.2051   -0.6869 H   0  0  0  0  0  0  0  0  0  0  0  0
    4.1866   -0.8952   -1.3292 H   0  0  0  0  0  0  0  0  0  0  0  0
    7.5496    1.6377   -1.0315 H   0  0  0  0  0  0  0  0  0  0  0  0
    5.1308    1.0709    2.3815 H   0  0  0  0  0  0  0  0  0  0  0  0
    0.6180   -1.7863    1.7553 H   0  0  0  0  0  0  0  0  0  0  0  0
    1.8944   -2.7610    1.0435 H   0  0  0  0  0  0  0  0  0  0  0  0
    2.1552   -2.7631   -1.5413 H   0  0  0  0  0  0  0  0  0  0  0  0
   -2.8038   -2.6797   -1.5371 H   0  0  0  0  0  0  0  0  0  0  0  0
  1  2  1  0
  2  3  1  0
  3  4  2  0
  3  5  1  0
  5  6  1  0
  6  7  1  0
  7  8  1  0
  8  9  1  0
  9 10  1  0
 10 11  1  0
 10 12  1  0
  9 13  1  0
 13 14  1  0
 14 15  1  0
 15 16  1  0
 16 17  1  0
 17 18  2  0
 17 19  1  0
 19 20  2  0
 20 21  1  0
 21 22  2  0
 22 23  1  0
 23 24  2  0
 16 25  1  0
 25 26  1  0
 26 27  2  0
 27 28  1  0
 28 29  1  0
 28 30  2  0
 30 31  1  0
 30 32  1  0
 32 33  2  0
 33  5  1  0
 24 19  1  0
 33 26  1  0
  1 34  1  0
  1 35  1  0
  1 36  1  0
  2 37  1  0
  2 38  1  0
  6 39  1  0
  6 40  1  0
  7 41  1  0
  7 42  1  0
  8 43  1  0
  8 44  1  0
 10 45  1  0
 11 46  1  0
 11 47  1  0
 11 48  1  0
 12 49  1  0
 12 50  1  0
 12 51  1  0
 13 52  1  0
 13 53  1  0
 14 54  1  0
 14 55  1  0
 15 56  1  0
 15 57  1  0
 20 58  1  0
 22 59  1  0
 24 60  1  0
 25 61  1  0
 25 62  1  0
 27 63  1  0
 32 64  1  0
M  END
$$$$
