
     RDKit          3D

 73 75  0  0  0  0  0  0  0  0999 V2000
   -3.6778    4.7603    0.3813 C   0  0  0  0  0  0  0  0  0  0  0  0
   -3.4955    3.3476   -0.1898 C   0  0  0  0  0  0  0  0  0  0  0  0
   -4.7910    2.9011   -0.8872 C   0  0  0  0  0  0  0  0  0  0  0  0
   -3.0798    2.3705    0.9385 C   0  0  0  0  0  0  0  0  0  0  0  0
   -2.5265    1.0215    0.4226 C   0  0  0  0  0  0  0  0  0  0  0  0
   -1.2528    1.2116   -0.2769 N   0  0  0  0  0  0  0  0  0  0  0  0
   -0.6839    0.1709   -1.0832 C   0  0  0  0  0  0  0  0  0  0  0  0
   -1.3416   -0.2447   -2.0749 O   0  0  0  0  0  0  0  0  0  0  0  0
    0.6794   -0.4528   -0.7661 C   0  0  0  0  0  0  0  0  0  0  0  0
    0.4718   -1.9822   -0.4967 C   0  0  0  0  0  0  0  0  0  0  0  0
    0.1407   -2.8773   -1.7249 C   0  0  0  0  0  0  0  0  0  0  0  0
   -1.2610   -3.5192   -1.7190 C   0  0  0  0  0  0  0  0  0  0  0  0
   -1.5423   -4.4373   -0.5132 C   0  0  0  0  0  0  0  0  0  0  0  0
   -1.9971   -3.7083    0.6129 O   0  0  0  0  0  0  0  0  0  0  0  0
   -3.3866   -3.4204    0.5492 C   0  0  0  0  0  0  0  0  0  0  0  0
   -3.6083   -1.8968    0.5423 C   0  0  0  0  0  0  0  0  0  0  0  0
   -5.0963   -1.5626    0.6768 C   0  0  0  0  0  0  0  0  0  0  0  0
   -2.8562   -1.2594    1.6289 N   0  0  0  0  0  0  0  0  0  0  0  0
   -2.3152    0.0751    1.5886 C   0  0  0  0  0  0  0  0  0  0  0  0
   -1.6126    0.4660    2.5604 O   0  0  0  0  0  0  0  0  0  0  0  0
    1.6585   -0.2268   -1.9657 C   0  0  0  0  0  0  0  0  0  0  0  0
    2.5117    1.0374   -1.7836 C   0  0  0  0  0  0  0  0  0  0  0  0
    3.3859    0.9656   -0.5831 N   0  0  0  0  0  0  0  0  0  0  0  0
    4.7614    0.5516   -0.9342 C   0  0  0  0  0  0  0  0  0  0  0  0
    5.7025    0.7913    0.2185 C   0  0  0  0  0  0  0  0  0  0  0  0
    6.0087    2.1050    0.6114 C   0  0  0  0  0  0  0  0  0  0  0  0
    6.8522    2.3350    1.7026 C   0  0  0  0  0  0  0  0  0  0  0  0
    7.3939    1.2576    2.4096 C   0  0  0  0  0  0  0  0  0  0  0  0
    8.2122    1.4843    3.4669 F   0  0  0  0  0  0  0  0  0  0  0  0
    7.0928   -0.0537    2.0247 C   0  0  0  0  0  0  0  0  0  0  0  0
    7.6179   -1.0997    2.7104 F   0  0  0  0  0  0  0  0  0  0  0  0
    6.2464   -0.2875    0.9356 C   0  0  0  0  0  0  0  0  0  0  0  0
    2.8306    0.1248    0.5100 C   0  0  0  0  0  0  0  0  0  0  0  0
    1.2974    0.1743    0.5350 C   0  0  0  0  0  0  0  0  0  0  0  0
   -2.7293    5.1150    0.8376 H   0  0  0  0  0  0  0  0  0  0  0  0
   -3.9508    5.4721   -0.4269 H   0  0  0  0  0  0  0  0  0  0  0  0
   -4.4760    4.7692    1.1549 H   0  0  0  0  0  0  0  0  0  0  0  0
   -2.6887    3.3998   -0.9525 H   0  0  0  0  0  0  0  0  0  0  0  0
   -5.1099    3.6641   -1.6288 H   0  0  0  0  0  0  0  0  0  0  0  0
   -5.6084    2.7610   -0.1481 H   0  0  0  0  0  0  0  0  0  0  0  0
   -4.6382    1.9534   -1.4415 H   0  0  0  0  0  0  0  0  0  0  0  0
   -2.2973    2.8498    1.5689 H   0  0  0  0  0  0  0  0  0  0  0  0
   -3.9582    2.1831    1.5969 H   0  0  0  0  0  0  0  0  0  0  0  0
   -3.2669    0.6132   -0.2856 H   0  0  0  0  0  0  0  0  0  0  0  0
   -0.7609    2.1331   -0.2322 H   0  0  0  0  0  0  0  0  0  0  0  0
   -0.2987   -2.0840    0.2891 H   0  0  0  0  0  0  0  0  0  0  0  0
    1.3988   -2.3945   -0.0427 H   0  0  0  0  0  0  0  0  0  0  0  0
    0.8919   -3.6951   -1.7839 H   0  0  0  0  0  0  0  0  0  0  0  0
    0.2410   -2.3138   -2.6729 H   0  0  0  0  0  0  0  0  0  0  0  0
   -1.3365   -4.1431   -2.6371 H   0  0  0  0  0  0  0  0  0  0  0  0
   -2.0397   -2.7422   -1.8218 H   0  0  0  0  0  0  0  0  0  0  0  0
   -0.6046   -4.9620   -0.2309 H   0  0  0  0  0  0  0  0  0  0  0  0
   -2.2536   -5.2466   -0.7982 H   0  0  0  0  0  0  0  0  0  0  0  0
   -3.8672   -3.8608    1.4502 H   0  0  0  0  0  0  0  0  0  0  0  0
   -3.9065   -3.8562   -0.3377 H   0  0  0  0  0  0  0  0  0  0  0  0
   -3.2499   -1.5263   -0.4344 H   0  0  0  0  0  0  0  0  0  0  0  0
   -5.6676   -2.0123   -0.1626 H   0  0  0  0  0  0  0  0  0  0  0  0
   -5.2468   -0.4625    0.6511 H   0  0  0  0  0  0  0  0  0  0  0  0
   -5.4955   -1.9522    1.6386 H   0  0  0  0  0  0  0  0  0  0  0  0
   -2.7518   -1.7876    2.5256 H   0  0  0  0  0  0  0  0  0  0  0  0
    2.3559   -1.0882   -2.0650 H   0  0  0  0  0  0  0  0  0  0  0  0
    1.1097   -0.1467   -2.9294 H   0  0  0  0  0  0  0  0  0  0  0  0
    1.8361    1.9136   -1.6778 H   0  0  0  0  0  0  0  0  0  0  0  0
    3.0947    1.2169   -2.7144 H   0  0  0  0  0  0  0  0  0  0  0  0
    5.1382    1.1540   -1.7902 H   0  0  0  0  0  0  0  0  0  0  0  0
    4.7791   -0.5144   -1.2560 H   0  0  0  0  0  0  0  0  0  0  0  0
    5.5904    2.9475    0.0743 H   0  0  0  0  0  0  0  0  0  0  0  0
    7.0819    3.3491    2.0024 H   0  0  0  0  0  0  0  0  0  0  0  0
    6.0131   -1.3073    0.6532 H   0  0  0  0  0  0  0  0  0  0  0  0
    3.1624   -0.9336    0.4167 H   0  0  0  0  0  0  0  0  0  0  0  0
    3.2085    0.5062    1.4835 H   0  0  0  0  0  0  0  0  0  0  0  0
    1.0389    1.2444    0.6517 H   0  0  0  0  0  0  0  0  0  0  0  0
    0.9225   -0.3386    1.4480 H   0  0  0  0  0  0  0  0  0  0  0  0
  1  2  1  0
  2  3  1  0
  2  4  1  0
  4  5  1  0
  5  6  1  0
  6  7  1  0
  7  8  2  0
  7  9  1  0
  9 10  1  0
 10 11  1  0
 11 12  1  0
 12 13  1  0
 13 14  1  0
 14 15  1  0
 15 16  1  0
 16 17  1  0
 16 18  1  0
 18 19  1  0
 19 20  2  0
  9 21  1  0
 21 22  1  0
 22 23  1  0
 23 24  1  0
 24 25  1  0
 25 26  2  0
 26 27  1  0
 27 28  2  0
 28 29  1  0
 28 30  1  0
 30 31  1  0
 30 32  2  0
 23 33  1  0
 33 34  1  0
 19  5  1  0
 32 25  1  0
 34  9  1  0
  1 35  1  0
  1 36  1  0
  1 37  1  0
  2 38  1  0
  3 39  1  0
  3 40  1  0
  3 41  1  0
  4 42  1  0
  4 43  1  0
  5 44  1  0
  6 45  1  0
 10 46  1  0
 10 47  1  0
 11 48  1  0
 11 49  1  0
 12 50  1  0
 12 51  1  0
 13 52  1  0
 13 53  1  0
 15 54  1  0
 15 55  1  0
 16 56  1  0
 17 57  1  0
 17 58  1  0
 17 59  1  0
 18 60  1  0
 21 61  1  0
 21 62  1  0
 22 63  1  0
 22 64  1  0
 24 65  1  0
 24 66  1  0
 26 67  1  0
 27 68  1  0
 32 69  1  0
 33 70  1  0
 33 71  1  0
 34 72  1  0
 34 73  1  0
M  END
$$$$
