
     RDKit          3D

 67 69  0  0  0  0  0  0  0  0999 V2000
    7.2652    0.3949   -0.4476 C   0  0  0  0  0  0  0  0  0  0  0  0
    6.0255    1.1485   -0.6920 N   0  0  0  0  0  0  0  0  0  0  0  0
    5.0725    0.3279   -1.4775 C   0  0  0  0  0  0  0  0  0  0  0  0
    3.6391    0.8559   -1.3487 C   0  0  0  0  0  0  0  0  0  0  0  0
    3.1174    0.7472    0.1214 C   0  0  0  0  0  0  0  0  0  0  0  0
    2.1119    1.9119    0.4094 C   0  0  0  0  0  0  0  0  0  0  0  0
    0.9265    1.9850   -0.5871 C   0  0  0  0  0  0  0  0  0  0  0  0
   -0.4083    2.3930    0.0707 C   0  0  0  0  0  0  0  0  0  0  0  0
   -1.0373    1.2960    0.9584 C   0  0  0  0  0  0  0  0  0  0  0  0
   -1.9929    0.4536    0.2150 N   0  0  0  0  0  0  0  0  0  0  0  0
   -3.3715    0.8790    0.1090 C   0  0  0  0  0  0  0  0  0  0  0  0
   -3.6599    2.0945    0.2869 O   0  0  0  0  0  0  0  0  0  0  0  0
   -4.4701   -0.0849   -0.2673 C   0  0  0  0  0  0  0  0  0  0  0  0
   -5.8020    0.3315    0.3024 C   0  0  0  0  0  0  0  0  0  0  0  0
   -6.6744    1.1378   -0.4490 C   0  0  0  0  0  0  0  0  0  0  0  0
   -7.9020    1.5375    0.0885 C   0  0  0  0  0  0  0  0  0  0  0  0
   -8.2640    1.1434    1.3814 C   0  0  0  0  0  0  0  0  0  0  0  0
   -9.8047    1.6448    2.0527 Cl  0  0  0  0  0  0  0  0  0  0  0  0
   -7.3941    0.3533    2.1401 C   0  0  0  0  0  0  0  0  0  0  0  0
   -6.1651   -0.0479    1.6064 C   0  0  0  0  0  0  0  0  0  0  0  0
   -1.5201   -0.7772   -0.4428 C   0  0  0  0  0  0  0  0  0  0  0  0
   -1.2958   -1.9173    0.5647 C   0  0  0  0  0  0  0  0  0  0  0  0
   -0.7206   -3.2110   -0.0857 C   0  0  0  0  0  0  0  0  0  0  0  0
   -1.3215   -4.3310    0.5195 O   0  0  0  0  0  0  0  0  0  0  0  0
    0.8390   -3.3372    0.0051 C   0  0  0  0  0  0  0  0  0  0  0  0
    1.2232   -4.6846   -0.1280 O   0  0  0  0  0  0  0  0  0  0  0  0
    1.5973   -2.4830   -1.0520 C   0  0  0  0  0  0  0  0  0  0  0  0
    2.6402   -1.6751   -0.4973 O   0  0  0  0  0  0  0  0  0  0  0  0
    2.4201   -0.5867    0.3573 C   0  0  0  0  0  0  0  0  0  0  0  0
    1.7468   -0.7486    1.4095 O   0  0  0  0  0  0  0  0  0  0  0  0
    4.3110    0.8371    1.1235 C   0  0  0  0  0  0  0  0  0  0  0  0
    5.4633    1.6912    0.5722 C   0  0  0  0  0  0  0  0  0  0  0  0
    8.0358    1.0633   -0.0088 H   0  0  0  0  0  0  0  0  0  0  0  0
    7.6749    0.0040   -1.4040 H   0  0  0  0  0  0  0  0  0  0  0  0
    7.0834   -0.4571    0.2434 H   0  0  0  0  0  0  0  0  0  0  0  0
    5.3686    0.3630   -2.5479 H   0  0  0  0  0  0  0  0  0  0  0  0
    5.0941   -0.7383   -1.1558 H   0  0  0  0  0  0  0  0  0  0  0  0
    3.6464    1.9178   -1.6806 H   0  0  0  0  0  0  0  0  0  0  0  0
    2.9762    0.3119   -2.0568 H   0  0  0  0  0  0  0  0  0  0  0  0
    2.6513    2.8836    0.3744 H   0  0  0  0  0  0  0  0  0  0  0  0
    1.7395    1.8262    1.4534 H   0  0  0  0  0  0  0  0  0  0  0  0
    1.1734    2.7441   -1.3620 H   0  0  0  0  0  0  0  0  0  0  0  0
    0.8060    1.0377   -1.1388 H   0  0  0  0  0  0  0  0  0  0  0  0
   -1.1273    2.6819   -0.7258 H   0  0  0  0  0  0  0  0  0  0  0  0
   -0.2338    3.3020    0.6873 H   0  0  0  0  0  0  0  0  0  0  0  0
   -0.2584    0.6726    1.4290 H   0  0  0  0  0  0  0  0  0  0  0  0
   -1.5650    1.7831    1.8074 H   0  0  0  0  0  0  0  0  0  0  0  0
   -4.2288   -1.1020    0.1053 H   0  0  0  0  0  0  0  0  0  0  0  0
   -4.5324   -0.1443   -1.3748 H   0  0  0  0  0  0  0  0  0  0  0  0
   -6.4046    1.4572   -1.4493 H   0  0  0  0  0  0  0  0  0  0  0  0
   -8.5705    2.1543   -0.4993 H   0  0  0  0  0  0  0  0  0  0  0  0
   -7.6695    0.0507    3.1429 H   0  0  0  0  0  0  0  0  0  0  0  0
   -5.4993   -0.6562    2.2069 H   0  0  0  0  0  0  0  0  0  0  0  0
   -2.2324   -1.1066   -1.2284 H   0  0  0  0  0  0  0  0  0  0  0  0
   -0.5898   -0.5552   -0.9711 H   0  0  0  0  0  0  0  0  0  0  0  0
   -2.2805   -2.1478    1.0220 H   0  0  0  0  0  0  0  0  0  0  0  0
   -0.6456   -1.5873    1.3970 H   0  0  0  0  0  0  0  0  0  0  0  0
   -1.0122   -3.2432   -1.1590 H   0  0  0  0  0  0  0  0  0  0  0  0
   -1.0552   -4.3288    1.4767 H   0  0  0  0  0  0  0  0  0  0  0  0
    1.1492   -3.0401    1.0254 H   0  0  0  0  0  0  0  0  0  0  0  0
    0.8751   -5.0099   -1.0000 H   0  0  0  0  0  0  0  0  0  0  0  0
    2.0709   -3.1558   -1.7981 H   0  0  0  0  0  0  0  0  0  0  0  0
    0.9249   -1.8500   -1.6550 H   0  0  0  0  0  0  0  0  0  0  0  0
    3.9807    1.2509    2.1018 H   0  0  0  0  0  0  0  0  0  0  0  0
    4.7238   -0.1753    1.3355 H   0  0  0  0  0  0  0  0  0  0  0  0
    6.2444    1.7938    1.3591 H   0  0  0  0  0  0  0  0  0  0  0  0
    5.0922    2.7201    0.3786 H   0  0  0  0  0  0  0  0  0  0  0  0
  1  2  1  0
  2  3  1  0
  3  4  1  0
  4  5  1  0
  5  6  1  0
  6  7  1  0
  7  8  1  0
  8  9  1  0
  9 10  1  0
 10 11  1  0
 11 12  2  0
 11 13  1  0
 13 14  1  0
 14 15  2  0
 15 16  1  0
 16 17  2  0
 17 18  1  0
 17 19  1  0
 19 20  2  0
 10 21  1  0
 21 22  1  0
 22 23  1  0
 23 24  1  0
 23 25  1  0
 25 26  1  0
 25 27  1  0
 27 28  1  0
 28 29  1  0
 29 30  2  0
  5 31  1  0
 31 32  1  0
 32  2  1  0
 29  5  1  0
 20 14  1  0
  1 33  1  0
  1 34  1  0
  1 35  1  0
  3 36  1  0
  3 37  1  0
  4 38  1  0
  4 39  1  0
  6 40  1  0
  6 41  1  0
  7 42  1  0
  7 43  1  0
  8 44  1  0
  8 45  1  0
  9 46  1  0
  9 47  1  0
 13 48  1  0
 13 49  1  0
 15 50  1  0
 16 51  1  0
 19 52  1  0
 20 53  1  0
 21 54  1  0
 21 55  1  0
 22 56  1  0
 22 57  1  0
 23 58  1  0
 24 59  1  0
 25 60  1  0
 26 61  1  0
 27 62  1  0
 27 63  1  0
 31 64  1  0
 31 65  1  0
 32 66  1  0
 32 67  1  0
M  END
$$$$
