
     RDKit          3D

 76 78  0  0  0  0  0  0  0  0999 V2000
    8.0719    0.3201    0.0224 C   0  0  0  0  0  0  0  0  0  0  0  0
    6.5669    0.1481    0.2363 C   0  0  0  0  0  0  0  0  0  0  0  0
    5.7637    0.2626   -1.0805 C   0  0  0  0  0  0  0  0  0  0  0  0
    5.6408    1.7219   -1.5746 C   0  0  0  0  0  0  0  0  0  0  0  0
    4.8539    1.8204   -2.8835 C   0  0  0  0  0  0  0  0  0  0  0  0
    4.4396   -0.3619   -0.9362 N   0  0  0  0  0  0  0  0  0  0  0  0
    3.4564    0.0212    0.0468 C   0  0  0  0  0  0  0  0  0  0  0  0
    3.6669    1.0209    0.7860 O   0  0  0  0  0  0  0  0  0  0  0  0
    2.1826   -0.7303    0.1957 C   0  0  0  0  0  0  0  0  0  0  0  0
    2.0623   -2.0542   -0.2546 C   0  0  0  0  0  0  0  0  0  0  0  0
    0.8534   -2.7364   -0.1379 C   0  0  0  0  0  0  0  0  0  0  0  0
   -0.2640   -2.1272    0.4483 C   0  0  0  0  0  0  0  0  0  0  0  0
   -0.1498   -0.8039    0.9535 C   0  0  0  0  0  0  0  0  0  0  0  0
    1.0753   -0.1232    0.8140 C   0  0  0  0  0  0  0  0  0  0  0  0
   -1.3026   -0.0682    1.6161 C   0  0  0  0  0  0  0  0  0  0  0  0
   -2.1451    0.7826    0.7230 N   0  0  0  0  0  0  0  0  0  0  0  0
   -2.8369    1.9249    1.3894 C   0  0  0  0  0  0  0  0  0  0  0  0
   -1.8899    3.0263    1.9196 C   0  0  0  0  0  0  0  0  0  0  0  0
   -2.7034    4.1735    2.5688 C   0  0  0  0  0  0  0  0  0  0  0  0
   -4.0885    3.8806    2.6850 O   0  0  0  0  0  0  0  0  0  0  0  0
   -4.2701    2.6522    3.3657 C   0  0  0  0  0  0  0  0  0  0  0  0
   -3.7876    1.4595    2.5134 C   0  0  0  0  0  0  0  0  0  0  0  0
   -1.6602    1.1055   -0.6441 C   0  0  0  0  0  0  0  0  0  0  0  0
   -2.8525    1.1831   -1.6286 C   0  0  0  0  0  0  0  0  0  0  0  0
   -2.5650    0.5723   -3.0117 C   0  0  0  0  0  0  0  0  0  0  0  0
   -2.3040   -0.9504   -3.0238 C   0  0  0  0  0  0  0  0  0  0  0  0
   -3.4681   -1.8164   -2.4852 C   0  0  0  0  0  0  0  0  0  0  0  0
   -3.3257   -2.1917   -0.9952 C   0  0  0  0  0  0  0  0  0  0  0  0
   -2.1931   -3.1990   -0.7295 C   0  0  0  0  0  0  0  0  0  0  0  0
   -1.4897   -2.8838    0.5283 N   0  0  0  0  0  0  0  0  0  0  0  0
   -1.9142   -3.4294    1.7984 C   0  0  0  0  0  0  0  0  0  0  0  0
   -3.1479   -4.2750    1.9259 C   0  0  0  0  0  0  0  0  0  0  0  0
   -1.2391   -3.1951    2.8367 O   0  0  0  0  0  0  0  0  0  0  0  0
    8.3054    1.3388   -0.3527 H   0  0  0  0  0  0  0  0  0  0  0  0
    8.4468   -0.4374   -0.7001 H   0  0  0  0  0  0  0  0  0  0  0  0
    8.5982    0.1797    0.9905 H   0  0  0  0  0  0  0  0  0  0  0  0
    6.4014   -0.8609    0.6728 H   0  0  0  0  0  0  0  0  0  0  0  0
    6.2210    0.9028    0.9753 H   0  0  0  0  0  0  0  0  0  0  0  0
    6.3169   -0.3055   -1.8638 H   0  0  0  0  0  0  0  0  0  0  0  0
    5.1519    2.3593   -0.8064 H   0  0  0  0  0  0  0  0  0  0  0  0
    6.6522    2.1377   -1.7627 H   0  0  0  0  0  0  0  0  0  0  0  0
    5.2862    1.1416   -3.6514 H   0  0  0  0  0  0  0  0  0  0  0  0
    3.7900    1.5536   -2.7160 H   0  0  0  0  0  0  0  0  0  0  0  0
    4.8980    2.8637   -3.2663 H   0  0  0  0  0  0  0  0  0  0  0  0
    4.1832   -1.0748   -1.6542 H   0  0  0  0  0  0  0  0  0  0  0  0
    2.9038   -2.5815   -0.6816 H   0  0  0  0  0  0  0  0  0  0  0  0
    0.7881   -3.7555   -0.4994 H   0  0  0  0  0  0  0  0  0  0  0  0
    1.1528    0.8980    1.1701 H   0  0  0  0  0  0  0  0  0  0  0  0
   -1.9686   -0.8053    2.1003 H   0  0  0  0  0  0  0  0  0  0  0  0
   -0.8840    0.5177    2.4571 H   0  0  0  0  0  0  0  0  0  0  0  0
   -3.4903    2.4185    0.6371 H   0  0  0  0  0  0  0  0  0  0  0  0
   -1.2036    2.6258    2.6906 H   0  0  0  0  0  0  0  0  0  0  0  0
   -1.2626    3.4377    1.1011 H   0  0  0  0  0  0  0  0  0  0  0  0
   -2.2819    4.4360    3.5666 H   0  0  0  0  0  0  0  0  0  0  0  0
   -2.6016    5.0805    1.9349 H   0  0  0  0  0  0  0  0  0  0  0  0
   -3.7433    2.6636    4.3504 H   0  0  0  0  0  0  0  0  0  0  0  0
   -5.3524    2.5262    3.5869 H   0  0  0  0  0  0  0  0  0  0  0  0
   -4.6600    0.9437    2.0552 H   0  0  0  0  0  0  0  0  0  0  0  0
   -3.2892    0.7397    3.1939 H   0  0  0  0  0  0  0  0  0  0  0  0
   -0.9465    0.3537   -1.0155 H   0  0  0  0  0  0  0  0  0  0  0  0
   -1.0972    2.0621   -0.6545 H   0  0  0  0  0  0  0  0  0  0  0  0
   -3.7615    0.7063   -1.2029 H   0  0  0  0  0  0  0  0  0  0  0  0
   -3.1153    2.2545   -1.7744 H   0  0  0  0  0  0  0  0  0  0  0  0
   -3.4297    0.7901   -3.6767 H   0  0  0  0  0  0  0  0  0  0  0  0
   -1.6855    1.0878   -3.4536 H   0  0  0  0  0  0  0  0  0  0  0  0
   -2.1397   -1.2357   -4.0869 H   0  0  0  0  0  0  0  0  0  0  0  0
   -1.3490   -1.1857   -2.5102 H   0  0  0  0  0  0  0  0  0  0  0  0
   -3.5156   -2.7598   -3.0757 H   0  0  0  0  0  0  0  0  0  0  0  0
   -4.4392   -1.2949   -2.6502 H   0  0  0  0  0  0  0  0  0  0  0  0
   -4.2846   -2.6406   -0.6537 H   0  0  0  0  0  0  0  0  0  0  0  0
   -3.1778   -1.2836   -0.3880 H   0  0  0  0  0  0  0  0  0  0  0  0
   -2.6074   -4.2260   -0.7048 H   0  0  0  0  0  0  0  0  0  0  0  0
   -1.4692   -3.2142   -1.5711 H   0  0  0  0  0  0  0  0  0  0  0  0
   -3.0253   -5.2135    1.3446 H   0  0  0  0  0  0  0  0  0  0  0  0
   -4.0370   -3.7154    1.5679 H   0  0  0  0  0  0  0  0  0  0  0  0
   -3.3136   -4.5584    2.9898 H   0  0  0  0  0  0  0  0  0  0  0  0
  1  2  1  0
  2  3  1  0
  3  4  1  0
  4  5  1  0
  3  6  1  0
  6  7  1  0
  7  8  2  0
  7  9  1  0
  9 10  2  0
 10 11  1  0
 11 12  2  0
 12 13  1  0
 13 14  2  0
 13 15  1  0
 15 16  1  0
 16 17  1  0
 17 18  1  0
 18 19  1  0
 19 20  1  0
 20 21  1  0
 21 22  1  0
 16 23  1  0
 23 24  1  0
 24 25  1  0
 25 26  1  0
 26 27  1  0
 27 28  1  0
 28 29  1  0
 29 30  1  0
 30 31  1  0
 31 32  1  0
 31 33  2  0
 14  9  1  0
 22 17  1  0
 30 12  1  0
  1 34  1  0
  1 35  1  0
  1 36  1  0
  2 37  1  0
  2 38  1  0
  3 39  1  0
  4 40  1  0
  4 41  1  0
  5 42  1  0
  5 43  1  0
  5 44  1  0
  6 45  1  0
 10 46  1  0
 11 47  1  0
 14 48  1  0
 15 49  1  0
 15 50  1  0
 17 51  1  0
 18 52  1  0
 18 53  1  0
 19 54  1  0
 19 55  1  0
 21 56  1  0
 21 57  1  0
 22 58  1  0
 22 59  1  0
 23 60  1  0
 23 61  1  0
 24 62  1  0
 24 63  1  0
 25 64  1  0
 25 65  1  0
 26 66  1  0
 26 67  1  0
 27 68  1  0
 27 69  1  0
 28 70  1  0
 28 71  1  0
 29 72  1  0
 29 73  1  0
 32 74  1  0
 32 75  1  0
 32 76  1  0
M  END
$$$$
