
     RDKit          3D

 84 87  0  0  0  0  0  0  0  0999 V2000
   -5.4586    2.2026    3.6127 C   0  0  0  0  0  0  0  0  0  0  0  0
   -4.1466    1.8329    2.9839 C   0  0  0  0  0  0  0  0  0  0  0  0
   -3.2754    2.7355    2.8534 O   0  0  0  0  0  0  0  0  0  0  0  0
   -3.8724    0.4937    2.5092 N   0  0  0  0  0  0  0  0  0  0  0  0
   -4.8301   -0.6039    2.7615 C   0  0  0  0  0  0  0  0  0  0  0  0
   -4.6961   -1.7651    1.7495 C   0  0  0  0  0  0  0  0  0  0  0  0
   -6.0547   -2.3131    1.2590 C   0  0  0  0  0  0  0  0  0  0  0  0
   -6.4083   -1.9023   -0.1867 C   0  0  0  0  0  0  0  0  0  0  0  0
   -7.0411   -0.5056   -0.3389 C   0  0  0  0  0  0  0  0  0  0  0  0
   -6.0594    0.6819   -0.3400 C   0  0  0  0  0  0  0  0  0  0  0  0
   -5.0082    0.6628   -1.4733 C   0  0  0  0  0  0  0  0  0  0  0  0
   -3.6831    0.1840   -0.9967 N   0  0  0  0  0  0  0  0  0  0  0  0
   -2.8328   -0.3900   -2.0848 C   0  0  0  0  0  0  0  0  0  0  0  0
   -3.2586   -1.8245   -2.4156 C   0  0  0  0  0  0  0  0  0  0  0  0
   -2.7736    0.4728   -3.3650 C   0  0  0  0  0  0  0  0  0  0  0  0
   -2.9600    1.2342   -0.2280 C   0  0  0  0  0  0  0  0  0  0  0  0
   -2.0461    0.6199    0.8188 C   0  0  0  0  0  0  0  0  0  0  0  0
   -0.6828    0.4432    0.5163 C   0  0  0  0  0  0  0  0  0  0  0  0
    0.1912   -0.1719    1.4297 C   0  0  0  0  0  0  0  0  0  0  0  0
    1.6309   -0.3452    1.1124 C   0  0  0  0  0  0  0  0  0  0  0  0
    2.2868   -1.2547    1.6908 O   0  0  0  0  0  0  0  0  0  0  0  0
    2.2906    0.5258    0.1775 N   0  0  0  0  0  0  0  0  0  0  0  0
    3.6781    0.3322   -0.2572 C   0  0  0  0  0  0  0  0  0  0  0  0
    4.5794    1.3595    0.4368 C   0  0  0  0  0  0  0  0  0  0  0  0
    6.0467    1.2045   -0.0100 C   0  0  0  0  0  0  0  0  0  0  0  0
    6.2151    0.9011   -1.4574 N   0  0  0  0  0  0  0  0  0  0  0  0
    6.7153   -0.4681   -1.7046 C   0  0  0  0  0  0  0  0  0  0  0  0
    8.1954   -0.5301   -1.4330 C   0  0  0  0  0  0  0  0  0  0  0  0
    9.0867    0.1872   -2.2483 C   0  0  0  0  0  0  0  0  0  0  0  0
   10.4610    0.1528   -1.9916 C   0  0  0  0  0  0  0  0  0  0  0  0
   10.9545   -0.5967   -0.9207 C   0  0  0  0  0  0  0  0  0  0  0  0
   10.0744   -1.3125   -0.1044 C   0  0  0  0  0  0  0  0  0  0  0  0
    8.6987   -1.2806   -0.3573 C   0  0  0  0  0  0  0  0  0  0  0  0
    5.0209    1.2161   -2.2679 C   0  0  0  0  0  0  0  0  0  0  0  0
    3.7727    0.4448   -1.7968 C   0  0  0  0  0  0  0  0  0  0  0  0
   -0.3195   -0.6361    2.6514 C   0  0  0  0  0  0  0  0  0  0  0  0
   -1.6615   -0.4443    2.9777 C   0  0  0  0  0  0  0  0  0  0  0  0
   -2.5273    0.1997    2.0845 C   0  0  0  0  0  0  0  0  0  0  0  0
   -5.4000    3.2184    4.0612 H   0  0  0  0  0  0  0  0  0  0  0  0
   -5.7101    1.4886    4.4241 H   0  0  0  0  0  0  0  0  0  0  0  0
   -6.2588    2.1984    2.8433 H   0  0  0  0  0  0  0  0  0  0  0  0
   -5.8662   -0.2086    2.7246 H   0  0  0  0  0  0  0  0  0  0  0  0
   -4.6757   -0.9907    3.7927 H   0  0  0  0  0  0  0  0  0  0  0  0
   -4.1377   -2.5860    2.2512 H   0  0  0  0  0  0  0  0  0  0  0  0
   -4.0767   -1.4827    0.8802 H   0  0  0  0  0  0  0  0  0  0  0  0
   -5.9864   -3.4237    1.2711 H   0  0  0  0  0  0  0  0  0  0  0  0
   -6.8856   -2.0610    1.9530 H   0  0  0  0  0  0  0  0  0  0  0  0
   -5.5358   -2.0158   -0.8527 H   0  0  0  0  0  0  0  0  0  0  0  0
   -7.1591   -2.6353   -0.5544 H   0  0  0  0  0  0  0  0  0  0  0  0
   -7.7923   -0.3518    0.4671 H   0  0  0  0  0  0  0  0  0  0  0  0
   -7.6035   -0.4828   -1.2989 H   0  0  0  0  0  0  0  0  0  0  0  0
   -5.5867    0.7779    0.6450 H   0  0  0  0  0  0  0  0  0  0  0  0
   -6.6712    1.6025   -0.4624 H   0  0  0  0  0  0  0  0  0  0  0  0
   -4.9064    1.6899   -1.8930 H   0  0  0  0  0  0  0  0  0  0  0  0
   -5.3961    0.0311   -2.2994 H   0  0  0  0  0  0  0  0  0  0  0  0
   -1.7884   -0.4871   -1.7241 H   0  0  0  0  0  0  0  0  0  0  0  0
   -4.2585   -1.8525   -2.8950 H   0  0  0  0  0  0  0  0  0  0  0  0
   -2.5281   -2.2863   -3.1140 H   0  0  0  0  0  0  0  0  0  0  0  0
   -3.2768   -2.4362   -1.4893 H   0  0  0  0  0  0  0  0  0  0  0  0
   -2.4856    1.5178   -3.1328 H   0  0  0  0  0  0  0  0  0  0  0  0
   -3.7461    0.4773   -3.8993 H   0  0  0  0  0  0  0  0  0  0  0  0
   -2.0101    0.0597   -4.0589 H   0  0  0  0  0  0  0  0  0  0  0  0
   -2.3721    1.8925   -0.9037 H   0  0  0  0  0  0  0  0  0  0  0  0
   -3.6642    1.9261    0.2774 H   0  0  0  0  0  0  0  0  0  0  0  0
   -0.3115    0.7720   -0.4459 H   0  0  0  0  0  0  0  0  0  0  0  0
    1.8205    1.4182   -0.0964 H   0  0  0  0  0  0  0  0  0  0  0  0
    4.0305   -0.6821    0.0336 H   0  0  0  0  0  0  0  0  0  0  0  0
    4.2264    2.3874    0.1987 H   0  0  0  0  0  0  0  0  0  0  0  0
    4.5130    1.2324    1.5391 H   0  0  0  0  0  0  0  0  0  0  0  0
    6.5802    2.1532    0.2107 H   0  0  0  0  0  0  0  0  0  0  0  0
    6.5257    0.4298    0.6282 H   0  0  0  0  0  0  0  0  0  0  0  0
    6.1591   -1.2109   -1.0897 H   0  0  0  0  0  0  0  0  0  0  0  0
    6.5647   -0.7616   -2.7679 H   0  0  0  0  0  0  0  0  0  0  0  0
    8.7161    0.7762   -3.0783 H   0  0  0  0  0  0  0  0  0  0  0  0
   11.1433    0.7081   -2.6224 H   0  0  0  0  0  0  0  0  0  0  0  0
   12.0186   -0.6211   -0.7229 H   0  0  0  0  0  0  0  0  0  0  0  0
   10.4578   -1.8903    0.7267 H   0  0  0  0  0  0  0  0  0  0  0  0
    8.0290   -1.8356    0.2879 H   0  0  0  0  0  0  0  0  0  0  0  0
    5.2116    1.0039   -3.3425 H   0  0  0  0  0  0  0  0  0  0  0  0
    4.8213    2.3091   -2.2060 H   0  0  0  0  0  0  0  0  0  0  0  0
    3.7878   -0.5781   -2.2346 H   0  0  0  0  0  0  0  0  0  0  0  0
    2.8779    0.9572   -2.2136 H   0  0  0  0  0  0  0  0  0  0  0  0
    0.3284   -1.1199    3.3718 H   0  0  0  0  0  0  0  0  0  0  0  0
   -2.0243   -0.7703    3.9448 H   0  0  0  0  0  0  0  0  0  0  0  0
  1  2  1  0
  2  3  2  0
  2  4  1  0
  4  5  1  0
  5  6  1  0
  6  7  1  0
  7  8  1  0
  8  9  1  0
  9 10  1  0
 10 11  1  0
 11 12  1  0
 12 13  1  0
 13 14  1  0
 13 15  1  0
 12 16  1  0
 16 17  1  0
 17 18  2  0
 18 19  1  0
 19 20  1  0
 20 21  2  0
 20 22  1  0
 22 23  1  0
 23 24  1  0
 24 25  1  0
 25 26  1  0
 26 27  1  0
 27 28  1  0
 28 29  2  0
 29 30  1  0
 30 31  2  0
 31 32  1  0
 32 33  2  0
 26 34  1  0
 34 35  1  0
 19 36  2  0
 36 37  1  0
 37 38  2  0
 38  4  1  0
 38 17  1  0
 35 23  1  0
 33 28  1  0
  1 39  1  0
  1 40  1  0
  1 41  1  0
  5 42  1  0
  5 43  1  0
  6 44  1  0
  6 45  1  0
  7 46  1  0
  7 47  1  0
  8 48  1  0
  8 49  1  0
  9 50  1  0
  9 51  1  0
 10 52  1  0
 10 53  1  0
 11 54  1  0
 11 55  1  0
 13 56  1  0
 14 57  1  0
 14 58  1  0
 14 59  1  0
 15 60  1  0
 15 61  1  0
 15 62  1  0
 16 63  1  0
 16 64  1  0
 18 65  1  0
 22 66  1  0
 23 67  1  0
 24 68  1  0
 24 69  1  0
 25 70  1  0
 25 71  1  0
 27 72  1  0
 27 73  1  0
 29 74  1  0
 30 75  1  0
 31 76  1  0
 32 77  1  0
 33 78  1  0
 34 79  1  0
 34 80  1  0
 35 81  1  0
 35 82  1  0
 36 83  1  0
 37 84  1  0
M  END
$$$$
