
     RDKit          3D

 88 91  0  0  0  0  0  0  0  0999 V2000
    7.9705    0.6934   -0.9887 C   0  0  0  0  0  0  0  0  0  0  0  0
    8.0150   -0.5865   -0.1586 C   0  0  0  0  0  0  0  0  0  0  0  0
    7.3321   -0.4350    1.2133 C   0  0  0  0  0  0  0  0  0  0  0  0
    5.8948   -0.1295    1.0895 N   0  0  0  0  0  0  0  0  0  0  0  0
    5.3821    1.1113    1.6972 C   0  0  0  0  0  0  0  0  0  0  0  0
    5.3146    2.2328    0.6469 C   0  0  0  0  0  0  0  0  0  0  0  0
    4.9391    3.5901    1.2239 C   0  0  0  0  0  0  0  0  0  0  0  0
    6.3649    3.3303    0.7602 C   0  0  0  0  0  0  0  0  0  0  0  0
    4.9973   -1.1148    0.5203 C   0  0  0  0  0  0  0  0  0  0  0  0
    5.4098   -2.2919    0.3340 O   0  0  0  0  0  0  0  0  0  0  0  0
    3.5733   -0.7661    0.1534 C   0  0  0  0  0  0  0  0  0  0  0  0
    2.8920   -1.8986   -0.5195 N   0  0  0  0  0  0  0  0  0  0  0  0
    2.3434   -2.8957    0.4289 C   0  0  0  0  0  0  0  0  0  0  0  0
    1.0642   -2.4189    1.1505 C   0  0  0  0  0  0  0  0  0  0  0  0
   -0.0437   -1.8963    0.1883 C   0  0  0  0  0  0  0  0  0  0  0  0
   -0.6704   -3.1108   -0.5842 C   0  0  0  0  0  0  0  0  0  0  0  0
   -1.8272   -2.7314   -1.4793 C   0  0  0  0  0  0  0  0  0  0  0  0
   -1.6595   -2.2331   -2.7097 C   0  0  0  0  0  0  0  0  0  0  0  0
   -2.8143   -1.6516   -3.4606 C   0  0  0  0  0  0  0  0  0  0  0  0
   -3.4330   -0.6473   -2.6492 O   0  0  0  0  0  0  0  0  0  0  0  0
   -4.8090   -0.4061   -2.5200 C   0  0  0  0  0  0  0  0  0  0  0  0
   -5.7814   -1.3816   -2.8294 C   0  0  0  0  0  0  0  0  0  0  0  0
   -7.1419   -1.0959   -2.6854 C   0  0  0  0  0  0  0  0  0  0  0  0
   -7.5518    0.1585   -2.2413 C   0  0  0  0  0  0  0  0  0  0  0  0
   -9.2619    0.5213   -2.0919 Cl  0  0  0  0  0  0  0  0  0  0  0  0
   -6.5995    1.1259   -1.9197 C   0  0  0  0  0  0  0  0  0  0  0  0
   -5.2307    0.8450   -2.0288 C   0  0  0  0  0  0  0  0  0  0  0  0
   -4.2695    1.9304   -1.7522 C   0  0  0  0  0  0  0  0  0  0  0  0
   -3.9756    2.7272   -2.6878 O   0  0  0  0  0  0  0  0  0  0  0  0
   -3.8139    2.2118   -0.4210 N   0  0  0  0  0  0  0  0  0  0  0  0
   -3.2927    1.1749    0.4808 C   0  0  0  0  0  0  0  0  0  0  0  0
   -3.7051    1.4665    1.9437 C   0  0  0  0  0  0  0  0  0  0  0  0
   -5.1906    1.1792    2.2736 C   0  0  0  0  0  0  0  0  0  0  0  0
   -5.3888    1.1231    3.8000 C   0  0  0  0  0  0  0  0  0  0  0  0
   -6.1288    2.2405    1.6813 C   0  0  0  0  0  0  0  0  0  0  0  0
   -1.7752    1.1457    0.3964 C   0  0  0  0  0  0  0  0  0  0  0  0
   -1.1641    1.9798   -0.3272 O   0  0  0  0  0  0  0  0  0  0  0  0
   -1.0110    0.2254    1.1892 N   0  0  0  0  0  0  0  0  0  0  0  0
   -1.1729   -1.2226    1.0622 C   0  0  0  0  0  0  0  0  0  0  0  0
    0.6271   -0.8798   -0.7910 C   0  0  0  0  0  0  0  0  0  0  0  0
    1.8656   -1.4622   -1.4904 C   0  0  0  0  0  0  0  0  0  0  0  0
    8.4036    1.5361   -0.4130 H   0  0  0  0  0  0  0  0  0  0  0  0
    6.9304    0.9334   -1.2761 H   0  0  0  0  0  0  0  0  0  0  0  0
    8.5708    0.5464   -1.9148 H   0  0  0  0  0  0  0  0  0  0  0  0
    7.5549   -1.4170   -0.7356 H   0  0  0  0  0  0  0  0  0  0  0  0
    9.0785   -0.8577    0.0074 H   0  0  0  0  0  0  0  0  0  0  0  0
    7.4573   -1.3759    1.7921 H   0  0  0  0  0  0  0  0  0  0  0  0
    7.8607    0.3614    1.7837 H   0  0  0  0  0  0  0  0  0  0  0  0
    6.0179    1.4029    2.5669 H   0  0  0  0  0  0  0  0  0  0  0  0
    4.3701    0.9439    2.1295 H   0  0  0  0  0  0  0  0  0  0  0  0
    4.8911    2.0505   -0.3620 H   0  0  0  0  0  0  0  0  0  0  0  0
    4.8284    3.6393    2.3296 H   0  0  0  0  0  0  0  0  0  0  0  0
    4.3637    4.2516    0.5367 H   0  0  0  0  0  0  0  0  0  0  0  0
    7.0936    3.2220    1.5849 H   0  0  0  0  0  0  0  0  0  0  0  0
    6.6184    3.8100   -0.2090 H   0  0  0  0  0  0  0  0  0  0  0  0
    3.0218   -0.4602    1.0635 H   0  0  0  0  0  0  0  0  0  0  0  0
    3.6157    0.1165   -0.5220 H   0  0  0  0  0  0  0  0  0  0  0  0
    2.1357   -3.8379   -0.1221 H   0  0  0  0  0  0  0  0  0  0  0  0
    3.1058   -3.1547    1.1967 H   0  0  0  0  0  0  0  0  0  0  0  0
    1.3352   -1.6188    1.8746 H   0  0  0  0  0  0  0  0  0  0  0  0
    0.6776   -3.2681    1.7610 H   0  0  0  0  0  0  0  0  0  0  0  0
    0.0775   -3.6706   -1.1820 H   0  0  0  0  0  0  0  0  0  0  0  0
   -1.0517   -3.8392    0.1630 H   0  0  0  0  0  0  0  0  0  0  0  0
   -2.8287   -2.8057   -1.0707 H   0  0  0  0  0  0  0  0  0  0  0  0
   -0.6665   -2.1814   -3.1500 H   0  0  0  0  0  0  0  0  0  0  0  0
   -2.4605   -1.1860   -4.4019 H   0  0  0  0  0  0  0  0  0  0  0  0
   -3.4926   -2.4779   -3.7393 H   0  0  0  0  0  0  0  0  0  0  0  0
   -5.5141   -2.3726   -3.1536 H   0  0  0  0  0  0  0  0  0  0  0  0
   -7.8773   -1.8497   -2.9220 H   0  0  0  0  0  0  0  0  0  0  0  0
   -6.9327    2.1061   -1.6043 H   0  0  0  0  0  0  0  0  0  0  0  0
   -3.5606    3.2032   -0.2045 H   0  0  0  0  0  0  0  0  0  0  0  0
   -3.6912    0.1860    0.1818 H   0  0  0  0  0  0  0  0  0  0  0  0
   -3.4492    2.5158    2.2142 H   0  0  0  0  0  0  0  0  0  0  0  0
   -3.0901    0.8176    2.6048 H   0  0  0  0  0  0  0  0  0  0  0  0
   -5.4759    0.1824    1.8640 H   0  0  0  0  0  0  0  0  0  0  0  0
   -6.4426    0.8728    4.0439 H   0  0  0  0  0  0  0  0  0  0  0  0
   -4.7388    0.3370    4.2474 H   0  0  0  0  0  0  0  0  0  0  0  0
   -5.1333    2.1046    4.2594 H   0  0  0  0  0  0  0  0  0  0  0  0
   -5.7808    3.2744    1.9207 H   0  0  0  0  0  0  0  0  0  0  0  0
   -7.1673    2.1113    2.0720 H   0  0  0  0  0  0  0  0  0  0  0  0
   -6.1754    2.1190    0.5836 H   0  0  0  0  0  0  0  0  0  0  0  0
   -0.1444    0.5812    1.6527 H   0  0  0  0  0  0  0  0  0  0  0  0
   -1.1859   -1.6642    2.0842 H   0  0  0  0  0  0  0  0  0  0  0  0
   -2.1851   -1.4366    0.6804 H   0  0  0  0  0  0  0  0  0  0  0  0
   -0.0923   -0.5073   -1.5439 H   0  0  0  0  0  0  0  0  0  0  0  0
    0.9795    0.0213   -0.2465 H   0  0  0  0  0  0  0  0  0  0  0  0
    2.2891   -0.7028   -2.1852 H   0  0  0  0  0  0  0  0  0  0  0  0
    1.5868   -2.3205   -2.1381 H   0  0  0  0  0  0  0  0  0  0  0  0
  1  2  1  0
  2  3  1  0
  3  4  1  0
  4  5  1  0
  5  6  1  0
  6  7  1  0
  7  8  1  0
  4  9  1  0
  9 10  2  0
  9 11  1  0
 11 12  1  0
 12 13  1  0
 13 14  1  0
 14 15  1  0
 15 16  1  0
 16 17  1  0
 17 18  2  0
 18 19  1  0
 19 20  1  0
 20 21  1  0
 21 22  2  0
 22 23  1  0
 23 24  2  0
 24 25  1  0
 24 26  1  0
 26 27  2  0
 27 28  1  0
 28 29  2  0
 28 30  1  0
 30 31  1  0
 31 32  1  0
 32 33  1  0
 33 34  1  0
 33 35  1  0
 31 36  1  0
 36 37  2  0
 36 38  1  0
 38 39  1  0
 15 40  1  0
 40 41  1  0
  8  6  1  0
 41 12  1  0
 39 15  1  0
 27 21  1  0
  1 42  1  0
  1 43  1  0
  1 44  1  0
  2 45  1  0
  2 46  1  0
  3 47  1  0
  3 48  1  0
  5 49  1  0
  5 50  1  0
  6 51  1  0
  7 52  1  0
  7 53  1  0
  8 54  1  0
  8 55  1  0
 11 56  1  0
 11 57  1  0
 13 58  1  0
 13 59  1  0
 14 60  1  0
 14 61  1  0
 16 62  1  0
 16 63  1  0
 17 64  1  0
 18 65  1  0
 19 66  1  0
 19 67  1  0
 22 68  1  0
 23 69  1  0
 26 70  1  0
 30 71  1  0
 31 72  1  0
 32 73  1  0
 32 74  1  0
 33 75  1  0
 34 76  1  0
 34 77  1  0
 34 78  1  0
 35 79  1  0
 35 80  1  0
 35 81  1  0
 38 82  1  0
 39 83  1  0
 39 84  1  0
 40 85  1  0
 40 86  1  0
 41 87  1  0
 41 88  1  0
M  END
$$$$
