
     RDKit          3D

 79 81  0  0  0  0  0  0  0  0999 V2000
    8.8679    1.2421    2.1594 C   0  0  0  0  0  0  0  0  0  0  0  0
    8.0778    0.8047    1.0745 O   0  0  0  0  0  0  0  0  0  0  0  0
    7.9354   -0.6070    1.0956 C   0  0  0  0  0  0  0  0  0  0  0  0
    8.9711   -1.2353    0.1574 C   0  0  0  0  0  0  0  0  0  0  0  0
    6.5837   -0.9480    0.6468 N   0  0  0  0  0  0  0  0  0  0  0  0
    5.4259   -0.6409    1.4352 C   0  0  0  0  0  0  0  0  0  0  0  0
    5.5464   -0.0836    2.5620 O   0  0  0  0  0  0  0  0  0  0  0  0
    4.0644   -0.9809    0.9168 C   0  0  0  0  0  0  0  0  0  0  0  0
    3.7627   -0.1250   -0.2537 N   0  0  0  0  0  0  0  0  0  0  0  0
    3.0822    1.1367    0.1051 C   0  0  0  0  0  0  0  0  0  0  0  0
    1.5782    0.9478    0.4093 C   0  0  0  0  0  0  0  0  0  0  0  0
    0.8155    0.1580   -0.6962 C   0  0  0  0  0  0  0  0  0  0  0  0
    0.6878    1.0230   -2.0038 C   0  0  0  0  0  0  0  0  0  0  0  0
   -0.3019    2.1547   -1.8710 C   0  0  0  0  0  0  0  0  0  0  0  0
   -1.5076    2.0848   -2.4493 C   0  0  0  0  0  0  0  0  0  0  0  0
   -2.6337    2.9442   -1.9795 C   0  0  0  0  0  0  0  0  0  0  0  0
   -3.2238    2.3025   -0.8533 O   0  0  0  0  0  0  0  0  0  0  0  0
   -4.4480    2.6554   -0.2755 C   0  0  0  0  0  0  0  0  0  0  0  0
   -5.1210    3.8329   -0.6506 C   0  0  0  0  0  0  0  0  0  0  0  0
   -6.3369    4.1762   -0.0537 C   0  0  0  0  0  0  0  0  0  0  0  0
   -6.8952    3.3509    0.9222 C   0  0  0  0  0  0  0  0  0  0  0  0
   -8.4219    3.7785    1.6725 Cl  0  0  0  0  0  0  0  0  0  0  0  0
   -6.2257    2.1918    1.3191 C   0  0  0  0  0  0  0  0  0  0  0  0
   -5.0006    1.8303    0.7288 C   0  0  0  0  0  0  0  0  0  0  0  0
   -4.2977    0.6303    1.2523 C   0  0  0  0  0  0  0  0  0  0  0  0
   -4.3162    0.4181    2.4963 O   0  0  0  0  0  0  0  0  0  0  0  0
   -3.6351   -0.3076    0.3846 N   0  0  0  0  0  0  0  0  0  0  0  0
   -3.2207   -1.6324    0.8700 C   0  0  0  0  0  0  0  0  0  0  0  0
   -3.1998   -2.6992   -0.2577 C   0  0  0  0  0  0  0  0  0  0  0  0
   -4.5866   -3.2272   -0.7110 C   0  0  0  0  0  0  0  0  0  0  0  0
   -5.4499   -2.1492   -1.3820 C   0  0  0  0  0  0  0  0  0  0  0  0
   -5.3601   -3.9283    0.4176 C   0  0  0  0  0  0  0  0  0  0  0  0
   -1.8819   -1.5604    1.5806 C   0  0  0  0  0  0  0  0  0  0  0  0
   -1.8184   -1.9743    2.7681 O   0  0  0  0  0  0  0  0  0  0  0  0
   -0.6669   -1.1185    0.9521 N   0  0  0  0  0  0  0  0  0  0  0  0
   -0.6288   -0.2185   -0.2049 C   0  0  0  0  0  0  0  0  0  0  0  0
    1.6099   -1.1376   -1.0295 C   0  0  0  0  0  0  0  0  0  0  0  0
    3.0854   -0.8452   -1.3511 C   0  0  0  0  0  0  0  0  0  0  0  0
    9.8458    0.7113    2.2037 H   0  0  0  0  0  0  0  0  0  0  0  0
    9.0897    2.3193    2.0265 H   0  0  0  0  0  0  0  0  0  0  0  0
    8.3153    1.1198    3.1191 H   0  0  0  0  0  0  0  0  0  0  0  0
    8.0804   -1.0531    2.1111 H   0  0  0  0  0  0  0  0  0  0  0  0
    8.8441   -0.8455   -0.8761 H   0  0  0  0  0  0  0  0  0  0  0  0
    8.8468   -2.3413    0.1395 H   0  0  0  0  0  0  0  0  0  0  0  0
   10.0020   -0.9982    0.5056 H   0  0  0  0  0  0  0  0  0  0  0  0
    6.4396   -1.4149   -0.2795 H   0  0  0  0  0  0  0  0  0  0  0  0
    3.3090   -0.8695    1.7230 H   0  0  0  0  0  0  0  0  0  0  0  0
    4.0726   -2.0610    0.6484 H   0  0  0  0  0  0  0  0  0  0  0  0
    3.5780    1.6001    0.9868 H   0  0  0  0  0  0  0  0  0  0  0  0
    3.2151    1.8652   -0.7207 H   0  0  0  0  0  0  0  0  0  0  0  0
    1.1162    1.9452    0.5507 H   0  0  0  0  0  0  0  0  0  0  0  0
    1.4872    0.4431    1.3869 H   0  0  0  0  0  0  0  0  0  0  0  0
    0.3904    0.3693   -2.8538 H   0  0  0  0  0  0  0  0  0  0  0  0
    1.6589    1.4672   -2.2987 H   0  0  0  0  0  0  0  0  0  0  0  0
   -0.0914    2.9543   -1.1678 H   0  0  0  0  0  0  0  0  0  0  0  0
   -1.7503    1.2519   -3.1050 H   0  0  0  0  0  0  0  0  0  0  0  0
   -3.3744    3.0459   -2.8068 H   0  0  0  0  0  0  0  0  0  0  0  0
   -2.2739    3.9591   -1.6877 H   0  0  0  0  0  0  0  0  0  0  0  0
   -4.7096    4.5046   -1.3900 H   0  0  0  0  0  0  0  0  0  0  0  0
   -6.8503    5.0819   -0.3580 H   0  0  0  0  0  0  0  0  0  0  0  0
   -6.6670    1.5658    2.0854 H   0  0  0  0  0  0  0  0  0  0  0  0
   -3.5475   -0.0938   -0.6329 H   0  0  0  0  0  0  0  0  0  0  0  0
   -3.9598   -1.9694    1.6231 H   0  0  0  0  0  0  0  0  0  0  0  0
   -2.6658   -2.3090   -1.1485 H   0  0  0  0  0  0  0  0  0  0  0  0
   -2.6124   -3.5783    0.0976 H   0  0  0  0  0  0  0  0  0  0  0  0
   -4.3845   -4.0061   -1.4819 H   0  0  0  0  0  0  0  0  0  0  0  0
   -4.8853   -1.6545   -2.2000 H   0  0  0  0  0  0  0  0  0  0  0  0
   -5.7803   -1.3851   -0.6471 H   0  0  0  0  0  0  0  0  0  0  0  0
   -6.3566   -2.6097   -1.8231 H   0  0  0  0  0  0  0  0  0  0  0  0
   -5.7736   -3.1956    1.1449 H   0  0  0  0  0  0  0  0  0  0  0  0
   -4.6991   -4.6423    0.9555 H   0  0  0  0  0  0  0  0  0  0  0  0
   -6.2087   -4.5058   -0.0104 H   0  0  0  0  0  0  0  0  0  0  0  0
    0.2132   -1.3546    1.4580 H   0  0  0  0  0  0  0  0  0  0  0  0
   -1.1755    0.7054    0.0788 H   0  0  0  0  0  0  0  0  0  0  0  0
   -1.1651   -0.6908   -1.0491 H   0  0  0  0  0  0  0  0  0  0  0  0
    1.1468   -1.6598   -1.8936 H   0  0  0  0  0  0  0  0  0  0  0  0
    1.5872   -1.8588   -0.1874 H   0  0  0  0  0  0  0  0  0  0  0  0
    3.6111   -1.8008   -1.5642 H   0  0  0  0  0  0  0  0  0  0  0  0
    3.1662   -0.2552   -2.2890 H   0  0  0  0  0  0  0  0  0  0  0  0
  1  2  1  0
  2  3  1  0
  3  4  1  0
  3  5  1  0
  5  6  1  0
  6  7  2  0
  6  8  1  0
  8  9  1  0
  9 10  1  0
 10 11  1  0
 11 12  1  0
 12 13  1  0
 13 14  1  0
 14 15  2  0
 15 16  1  0
 16 17  1  0
 17 18  1  0
 18 19  2  0
 19 20  1  0
 20 21  2  0
 21 22  1  0
 21 23  1  0
 23 24  2  0
 24 25  1  0
 25 26  2  0
 25 27  1  0
 27 28  1  0
 28 29  1  0
 29 30  1  0
 30 31  1  0
 30 32  1  0
 28 33  1  0
 33 34  2  0
 33 35  1  0
 35 36  1  0
 12 37  1  0
 37 38  1  0
 38  9  1  0
 36 12  1  0
 24 18  1  0
  1 39  1  0
  1 40  1  0
  1 41  1  0
  3 42  1  0
  4 43  1  0
  4 44  1  0
  4 45  1  0
  5 46  1  0
  8 47  1  0
  8 48  1  0
 10 49  1  0
 10 50  1  0
 11 51  1  0
 11 52  1  0
 13 53  1  0
 13 54  1  0
 14 55  1  0
 15 56  1  0
 16 57  1  0
 16 58  1  0
 19 59  1  0
 20 60  1  0
 23 61  1  0
 27 62  1  0
 28 63  1  0
 29 64  1  0
 29 65  1  0
 30 66  1  0
 31 67  1  0
 31 68  1  0
 31 69  1  0
 32 70  1  0
 32 71  1  0
 32 72  1  0
 35 73  1  0
 36 74  1  0
 36 75  1  0
 37 76  1  0
 37 77  1  0
 38 78  1  0
 38 79  1  0
M  END
$$$$
