
     RDKit          3D

 77 79  0  0  0  0  0  0  0  0999 V2000
   -1.0621   -2.9425    2.7686 C   0  0  0  0  0  0  0  0  0  0  0  0
   -0.8902   -3.7157    1.4986 C   0  0  0  0  0  0  0  0  0  0  0  0
   -0.8946   -4.9755    1.5425 O   0  0  0  0  0  0  0  0  0  0  0  0
   -0.6761   -3.0320    0.2488 N   0  0  0  0  0  0  0  0  0  0  0  0
   -0.9764   -3.7033   -1.0365 C   0  0  0  0  0  0  0  0  0  0  0  0
   -2.3710   -4.3893   -1.1140 C   0  0  0  0  0  0  0  0  0  0  0  0
   -3.5851   -3.5618   -0.6374 C   0  0  0  0  0  0  0  0  0  0  0  0
   -4.0862   -2.4994   -1.6530 C   0  0  0  0  0  0  0  0  0  0  0  0
   -4.7989   -1.3245   -0.9322 C   0  0  0  0  0  0  0  0  0  0  0  0
   -4.7716    0.0367   -1.6674 C   0  0  0  0  0  0  0  0  0  0  0  0
   -3.4161    0.7812   -1.9136 C   0  0  0  0  0  0  0  0  0  0  0  0
   -2.3824    0.7468   -0.8396 N   0  0  0  0  0  0  0  0  0  0  0  0
   -2.9049    1.1527    0.4891 C   0  0  0  0  0  0  0  0  0  0  0  0
   -1.9417    2.1373    1.1669 C   0  0  0  0  0  0  0  0  0  0  0  0
   -2.5632    2.8270    2.4041 C   0  0  0  0  0  0  0  0  0  0  0  0
   -3.5152    3.9664    2.0026 C   0  0  0  0  0  0  0  0  0  0  0  0
   -1.4577    3.3781    3.3140 C   0  0  0  0  0  0  0  0  0  0  0  0
   -1.6889   -0.5557   -0.8481 C   0  0  0  0  0  0  0  0  0  0  0  0
   -0.3195   -0.6023   -0.2434 C   0  0  0  0  0  0  0  0  0  0  0  0
    0.5532    0.4930   -0.3337 C   0  0  0  0  0  0  0  0  0  0  0  0
    1.8649    0.4046    0.1562 C   0  0  0  0  0  0  0  0  0  0  0  0
    2.7546    1.5866    0.1121 C   0  0  0  0  0  0  0  0  0  0  0  0
    2.2535    2.7377    0.2344 O   0  0  0  0  0  0  0  0  0  0  0  0
    4.1788    1.4499   -0.0537 N   0  0  0  0  0  0  0  0  0  0  0  0
    5.0752    2.3526    0.6741 C   0  0  0  0  0  0  0  0  0  0  0  0
    6.5384    1.9985    0.4025 C   0  0  0  0  0  0  0  0  0  0  0  0
    6.7938    1.9535   -1.0516 N   0  0  0  0  0  0  0  0  0  0  0  0
    8.1976    1.6007   -1.3109 C   0  0  0  0  0  0  0  0  0  0  0  0
    5.8641    1.0757   -1.8156 C   0  0  0  0  0  0  0  0  0  0  0  0
    4.7435    0.4507   -0.9671 C   0  0  0  0  0  0  0  0  0  0  0  0
    2.3087   -0.8046    0.7120 C   0  0  0  0  0  0  0  0  0  0  0  0
    1.4696   -1.9198    0.7440 C   0  0  0  0  0  0  0  0  0  0  0  0
    0.1592   -1.8433    0.2490 C   0  0  0  0  0  0  0  0  0  0  0  0
   -0.0670   -2.7089    3.2007 H   0  0  0  0  0  0  0  0  0  0  0  0
   -1.6490   -3.5357    3.5020 H   0  0  0  0  0  0  0  0  0  0  0  0
   -1.6060   -1.9958    2.5644 H   0  0  0  0  0  0  0  0  0  0  0  0
   -0.2004   -4.4787   -1.2133 H   0  0  0  0  0  0  0  0  0  0  0  0
   -0.8820   -2.9950   -1.8819 H   0  0  0  0  0  0  0  0  0  0  0  0
   -2.5470   -4.7149   -2.1625 H   0  0  0  0  0  0  0  0  0  0  0  0
   -2.3369   -5.3214   -0.5117 H   0  0  0  0  0  0  0  0  0  0  0  0
   -4.4267   -4.2649   -0.4539 H   0  0  0  0  0  0  0  0  0  0  0  0
   -3.3542   -3.1251    0.3551 H   0  0  0  0  0  0  0  0  0  0  0  0
   -3.2612   -2.1415   -2.2928 H   0  0  0  0  0  0  0  0  0  0  0  0
   -4.8031   -2.9804   -2.3540 H   0  0  0  0  0  0  0  0  0  0  0  0
   -4.4414   -1.1822    0.1042 H   0  0  0  0  0  0  0  0  0  0  0  0
   -5.8647   -1.6156   -0.8101 H   0  0  0  0  0  0  0  0  0  0  0  0
   -5.4377    0.7223   -1.1018 H   0  0  0  0  0  0  0  0  0  0  0  0
   -5.2630   -0.1023   -2.6552 H   0  0  0  0  0  0  0  0  0  0  0  0
   -3.6561    1.8481   -2.1163 H   0  0  0  0  0  0  0  0  0  0  0  0
   -2.9854    0.4195   -2.8729 H   0  0  0  0  0  0  0  0  0  0  0  0
   -3.8916    1.6477    0.3868 H   0  0  0  0  0  0  0  0  0  0  0  0
   -3.0482    0.2806    1.1639 H   0  0  0  0  0  0  0  0  0  0  0  0
   -1.0513    1.5626    1.4934 H   0  0  0  0  0  0  0  0  0  0  0  0
   -1.6010    2.9027    0.4341 H   0  0  0  0  0  0  0  0  0  0  0  0
   -3.1380    2.0773    2.9922 H   0  0  0  0  0  0  0  0  0  0  0  0
   -3.9203    4.4626    2.9112 H   0  0  0  0  0  0  0  0  0  0  0  0
   -2.9793    4.7288    1.3928 H   0  0  0  0  0  0  0  0  0  0  0  0
   -4.3783    3.5829    1.4201 H   0  0  0  0  0  0  0  0  0  0  0  0
   -1.9011    3.8661    4.2078 H   0  0  0  0  0  0  0  0  0  0  0  0
   -0.8375    4.1218    2.7696 H   0  0  0  0  0  0  0  0  0  0  0  0
   -0.8015    2.5533    3.6665 H   0  0  0  0  0  0  0  0  0  0  0  0
   -2.2920   -1.2763   -0.2957 H   0  0  0  0  0  0  0  0  0  0  0  0
   -1.5311   -0.8858   -1.8944 H   0  0  0  0  0  0  0  0  0  0  0  0
    0.2123    1.4147   -0.7884 H   0  0  0  0  0  0  0  0  0  0  0  0
    4.8865    3.3999    0.3558 H   0  0  0  0  0  0  0  0  0  0  0  0
    4.8789    2.2740    1.7657 H   0  0  0  0  0  0  0  0  0  0  0  0
    7.1804    2.7753    0.8737 H   0  0  0  0  0  0  0  0  0  0  0  0
    6.7779    1.0186    0.8757 H   0  0  0  0  0  0  0  0  0  0  0  0
    8.4301    0.5822   -0.9243 H   0  0  0  0  0  0  0  0  0  0  0  0
    8.8750    2.3369   -0.8253 H   0  0  0  0  0  0  0  0  0  0  0  0
    8.4047    1.6313   -2.4029 H   0  0  0  0  0  0  0  0  0  0  0  0
    5.3901    1.6942   -2.6071 H   0  0  0  0  0  0  0  0  0  0  0  0
    6.3971    0.2482   -2.3380 H   0  0  0  0  0  0  0  0  0  0  0  0
    3.9597    0.0488   -1.6467 H   0  0  0  0  0  0  0  0  0  0  0  0
    5.1573   -0.3953   -0.3794 H   0  0  0  0  0  0  0  0  0  0  0  0
    3.3058   -0.8875    1.1239 H   0  0  0  0  0  0  0  0  0  0  0  0
    1.8435   -2.8534    1.1450 H   0  0  0  0  0  0  0  0  0  0  0  0
  1  2  1  0
  2  3  2  0
  2  4  1  0
  4  5  1  0
  5  6  1  0
  6  7  1  0
  7  8  1  0
  8  9  1  0
  9 10  1  0
 10 11  1  0
 11 12  1  0
 12 13  1  0
 13 14  1  0
 14 15  1  0
 15 16  1  0
 15 17  1  0
 12 18  1  0
 18 19  1  0
 19 20  2  0
 20 21  1  0
 21 22  1  0
 22 23  2  0
 22 24  1  0
 24 25  1  0
 25 26  1  0
 26 27  1  0
 27 28  1  0
 27 29  1  0
 29 30  1  0
 21 31  2  0
 31 32  1  0
 32 33  2  0
 33  4  1  0
 33 19  1  0
 30 24  1  0
  1 34  1  0
  1 35  1  0
  1 36  1  0
  5 37  1  0
  5 38  1  0
  6 39  1  0
  6 40  1  0
  7 41  1  0
  7 42  1  0
  8 43  1  0
  8 44  1  0
  9 45  1  0
  9 46  1  0
 10 47  1  0
 10 48  1  0
 11 49  1  0
 11 50  1  0
 13 51  1  0
 13 52  1  0
 14 53  1  0
 14 54  1  0
 15 55  1  0
 16 56  1  0
 16 57  1  0
 16 58  1  0
 17 59  1  0
 17 60  1  0
 17 61  1  0
 18 62  1  0
 18 63  1  0
 20 64  1  0
 25 65  1  0
 25 66  1  0
 26 67  1  0
 26 68  1  0
 28 69  1  0
 28 70  1  0
 28 71  1  0
 29 72  1  0
 29 73  1  0
 30 74  1  0
 30 75  1  0
 31 76  1  0
 32 77  1  0
M  END
$$$$
