
     RDKit          3D

 82 85  0  0  0  0  0  0  0  0999 V2000
   -7.6630    1.7644   -0.3257 C   0  0  0  0  0  0  0  0  0  0  0  0
   -6.5618    1.2894   -1.1763 N   0  0  0  0  0  0  0  0  0  0  0  0
   -6.2380   -0.1458   -1.1728 C   0  0  0  0  0  0  0  0  0  0  0  0
   -5.5042   -0.5390    0.1090 C   0  0  0  0  0  0  0  0  0  0  0  0
   -5.2389   -1.9389    0.0799 O   0  0  0  0  0  0  0  0  0  0  0  0
   -4.8363   -2.7450    1.1669 C   0  0  0  0  0  0  0  0  0  0  0  0
   -5.0640   -4.1249    1.0400 C   0  0  0  0  0  0  0  0  0  0  0  0
   -4.7530   -5.0021    2.0828 C   0  0  0  0  0  0  0  0  0  0  0  0
   -4.1937   -4.5211    3.2583 C   0  0  0  0  0  0  0  0  0  0  0  0
   -3.9291   -3.1603    3.3967 C   0  0  0  0  0  0  0  0  0  0  0  0
   -4.2330   -2.2575    2.3618 C   0  0  0  0  0  0  0  0  0  0  0  0
   -3.7781   -0.8638    2.5220 C   0  0  0  0  0  0  0  0  0  0  0  0
   -4.4022   -0.1048    3.3110 O   0  0  0  0  0  0  0  0  0  0  0  0
   -2.6328   -0.3589    1.8137 N   0  0  0  0  0  0  0  0  0  0  0  0
   -1.6737   -1.1964    1.0766 C   0  0  0  0  0  0  0  0  0  0  0  0
   -0.2720   -1.0611    1.6278 C   0  0  0  0  0  0  0  0  0  0  0  0
    0.4397   -2.0987    1.7053 O   0  0  0  0  0  0  0  0  0  0  0  0
    0.2673    0.2015    2.0479 N   0  0  0  0  0  0  0  0  0  0  0  0
    1.5929    0.3173    2.6581 C   0  0  0  0  0  0  0  0  0  0  0  0
    2.6672    0.2613    1.6102 C   0  0  0  0  0  0  0  0  0  0  0  0
    3.4577   -0.8876    1.4514 C   0  0  0  0  0  0  0  0  0  0  0  0
    4.4757   -0.9164    0.4913 C   0  0  0  0  0  0  0  0  0  0  0  0
    4.7329    0.2110   -0.3065 C   0  0  0  0  0  0  0  0  0  0  0  0
    5.8703    0.1999   -1.2966 C   0  0  0  0  0  0  0  0  0  0  0  0
    7.1241   -0.2148   -0.6278 N   0  0  0  0  0  0  0  0  0  0  0  0
    7.6444    0.8035    0.3335 C   0  0  0  0  0  0  0  0  0  0  0  0
    8.9651    1.4683   -0.1020 C   0  0  0  0  0  0  0  0  0  0  0  0
    8.9477    1.7522   -1.6030 C   0  0  0  0  0  0  0  0  0  0  0  0
    8.7331    0.4668   -2.4273 C   0  0  0  0  0  0  0  0  0  0  0  0
    8.1396   -0.6856   -1.5971 C   0  0  0  0  0  0  0  0  0  0  0  0
    3.9196    1.3452   -0.1659 C   0  0  0  0  0  0  0  0  0  0  0  0
    2.8930    1.3682    0.7818 C   0  0  0  0  0  0  0  0  0  0  0  0
   -1.7406   -0.9259   -0.4460 C   0  0  0  0  0  0  0  0  0  0  0  0
   -1.3565    0.5108   -0.8712 C   0  0  0  0  0  0  0  0  0  0  0  0
   -2.2673    1.0242   -1.9565 C   0  0  0  0  0  0  0  0  0  0  0  0
   -2.0416    0.6725   -3.1502 O   0  0  0  0  0  0  0  0  0  0  0  0
   -3.3829    1.8950   -1.6704 N   0  0  0  0  0  0  0  0  0  0  0  0
   -3.2639    2.8810   -0.5931 C   0  0  0  0  0  0  0  0  0  0  0  0
   -4.5003    1.9727   -2.6315 C   0  0  0  0  0  0  0  0  0  0  0  0
   -5.8285    2.2644   -1.9568 C   0  0  0  0  0  0  0  0  0  0  0  0
   -6.2963    3.4305   -2.0686 O   0  0  0  0  0  0  0  0  0  0  0  0
   -8.4319    2.2688   -0.9511 H   0  0  0  0  0  0  0  0  0  0  0  0
   -7.2693    2.4831    0.4262 H   0  0  0  0  0  0  0  0  0  0  0  0
   -8.1591    0.9266    0.2178 H   0  0  0  0  0  0  0  0  0  0  0  0
   -7.1760   -0.7343   -1.2440 H   0  0  0  0  0  0  0  0  0  0  0  0
   -5.6322   -0.4352   -2.0531 H   0  0  0  0  0  0  0  0  0  0  0  0
   -4.5574    0.0348    0.1517 H   0  0  0  0  0  0  0  0  0  0  0  0
   -6.1393   -0.2939    0.9921 H   0  0  0  0  0  0  0  0  0  0  0  0
   -5.5145   -4.5151    0.1361 H   0  0  0  0  0  0  0  0  0  0  0  0
   -4.9416   -6.0626    1.9742 H   0  0  0  0  0  0  0  0  0  0  0  0
   -3.9495   -5.2064    4.0593 H   0  0  0  0  0  0  0  0  0  0  0  0
   -3.4590   -2.8117    4.3099 H   0  0  0  0  0  0  0  0  0  0  0  0
   -2.4711    0.6660    1.8619 H   0  0  0  0  0  0  0  0  0  0  0  0
   -1.9509   -2.2655    1.2063 H   0  0  0  0  0  0  0  0  0  0  0  0
   -0.3033    1.0723    1.9871 H   0  0  0  0  0  0  0  0  0  0  0  0
    1.7335   -0.4756    3.4314 H   0  0  0  0  0  0  0  0  0  0  0  0
    1.6631    1.2907    3.1959 H   0  0  0  0  0  0  0  0  0  0  0  0
    3.2936   -1.7620    2.0705 H   0  0  0  0  0  0  0  0  0  0  0  0
    5.0672   -1.8138    0.3741 H   0  0  0  0  0  0  0  0  0  0  0  0
    5.5958   -0.5271   -2.0954 H   0  0  0  0  0  0  0  0  0  0  0  0
    5.9956    1.2008   -1.7748 H   0  0  0  0  0  0  0  0  0  0  0  0
    7.8131    0.3018    1.3093 H   0  0  0  0  0  0  0  0  0  0  0  0
    6.8983    1.6124    0.5216 H   0  0  0  0  0  0  0  0  0  0  0  0
    9.1075    2.4226    0.4580 H   0  0  0  0  0  0  0  0  0  0  0  0
    9.8186    0.7955    0.1417 H   0  0  0  0  0  0  0  0  0  0  0  0
    9.9116    2.2205   -1.8937 H   0  0  0  0  0  0  0  0  0  0  0  0
    8.1300    2.4770   -1.8244 H   0  0  0  0  0  0  0  0  0  0  0  0
    8.0573    0.6838   -3.2848 H   0  0  0  0  0  0  0  0  0  0  0  0
    9.7039    0.1304   -2.8545 H   0  0  0  0  0  0  0  0  0  0  0  0
    7.7077   -1.4556   -2.2746 H   0  0  0  0  0  0  0  0  0  0  0  0
    8.9507   -1.1976   -1.0396 H   0  0  0  0  0  0  0  0  0  0  0  0
    4.0850    2.2119   -0.7865 H   0  0  0  0  0  0  0  0  0  0  0  0
    2.2798    2.2504    0.8744 H   0  0  0  0  0  0  0  0  0  0  0  0
   -2.7718   -1.1686   -0.7810 H   0  0  0  0  0  0  0  0  0  0  0  0
   -1.0800   -1.6511   -0.9804 H   0  0  0  0  0  0  0  0  0  0  0  0
   -1.3750    1.2078   -0.0184 H   0  0  0  0  0  0  0  0  0  0  0  0
   -0.3083    0.5116   -1.2428 H   0  0  0  0  0  0  0  0  0  0  0  0
   -3.4265    2.3838    0.3847 H   0  0  0  0  0  0  0  0  0  0  0  0
   -4.0065    3.6961   -0.7037 H   0  0  0  0  0  0  0  0  0  0  0  0
   -2.2574    3.3542   -0.6184 H   0  0  0  0  0  0  0  0  0  0  0  0
   -4.5726    1.0398   -3.2300 H   0  0  0  0  0  0  0  0  0  0  0  0
   -4.2781    2.7821   -3.3611 H   0  0  0  0  0  0  0  0  0  0  0  0
  1  2  1  0
  2  3  1  0
  3  4  1  0
  4  5  1  0
  5  6  1  0
  6  7  2  0
  7  8  1  0
  8  9  2  0
  9 10  1  0
 10 11  2  0
 11 12  1  0
 12 13  2  0
 12 14  1  0
 14 15  1  0
 15 16  1  0
 16 17  2  0
 16 18  1  0
 18 19  1  0
 19 20  1  0
 20 21  2  0
 21 22  1  0
 22 23  2  0
 23 24  1  0
 24 25  1  0
 25 26  1  0
 26 27  1  0
 27 28  1  0
 28 29  1  0
 29 30  1  0
 23 31  1  0
 31 32  2  0
 15 33  1  0
 33 34  1  0
 34 35  1  0
 35 36  2  0
 35 37  1  0
 37 38  1  0
 37 39  1  0
 39 40  1  0
 40 41  2  0
 40  2  1  0
 11  6  1  0
 32 20  1  0
 30 25  1  0
  1 42  1  0
  1 43  1  0
  1 44  1  0
  3 45  1  0
  3 46  1  0
  4 47  1  0
  4 48  1  0
  7 49  1  0
  8 50  1  0
  9 51  1  0
 10 52  1  0
 14 53  1  0
 15 54  1  0
 18 55  1  0
 19 56  1  0
 19 57  1  0
 21 58  1  0
 22 59  1  0
 24 60  1  0
 24 61  1  0
 26 62  1  0
 26 63  1  0
 27 64  1  0
 27 65  1  0
 28 66  1  0
 28 67  1  0
 29 68  1  0
 29 69  1  0
 30 70  1  0
 30 71  1  0
 31 72  1  0
 32 73  1  0
 33 74  1  0
 33 75  1  0
 34 76  1  0
 34 77  1  0
 38 78  1  0
 38 79  1  0
 38 80  1  0
 39 81  1  0
 39 82  1  0
M  END
$$$$
