
     RDKit          3D

 79 82  0  0  0  0  0  0  0  0999 V2000
   -6.2690   -1.3105    2.2033 C   0  0  0  0  0  0  0  0  0  0  0  0
   -6.7385   -1.4403    0.7771 C   0  0  0  0  0  0  0  0  0  0  0  0
   -8.0999   -1.6869    0.5249 C   0  0  0  0  0  0  0  0  0  0  0  0
   -8.5692   -1.8042   -0.7845 C   0  0  0  0  0  0  0  0  0  0  0  0
   -7.6881   -1.6772   -1.8580 C   0  0  0  0  0  0  0  0  0  0  0  0
   -6.3318   -1.4404   -1.6271 C   0  0  0  0  0  0  0  0  0  0  0  0
   -5.8365   -1.3342   -0.3147 C   0  0  0  0  0  0  0  0  0  0  0  0
   -4.3629   -1.0477   -0.1089 C   0  0  0  0  0  0  0  0  0  0  0  0
   -4.0932    0.4219    0.1317 C   0  0  0  0  0  0  0  0  0  0  0  0
   -4.9868    1.2549   -0.1915 O   0  0  0  0  0  0  0  0  0  0  0  0
   -2.8399    0.9026    0.6903 N   0  0  0  0  0  0  0  0  0  0  0  0
   -1.9876   -0.0048    1.5003 C   0  0  0  0  0  0  0  0  0  0  0  0
   -1.1378   -0.9737    0.6444 C   0  0  0  0  0  0  0  0  0  0  0  0
   -0.0265   -1.6808    1.4379 C   0  0  0  0  0  0  0  0  0  0  0  0
    1.2261   -0.8392    1.7979 C   0  0  0  0  0  0  0  0  0  0  0  0
    1.9981   -0.0487    0.6651 C   0  0  0  0  0  0  0  0  0  0  0  0
    3.3969    0.3637    1.2433 C   0  0  0  0  0  0  0  0  0  0  0  0
    4.4859    0.4078    0.1595 C   0  0  0  0  0  0  0  0  0  0  0  0
    4.6843   -0.9097   -0.5038 N   0  0  0  0  0  0  0  0  0  0  0  0
    5.8375   -1.6465    0.0517 C   0  0  0  0  0  0  0  0  0  0  0  0
    7.1299   -1.0443   -0.4350 C   0  0  0  0  0  0  0  0  0  0  0  0
    8.0220   -0.4396    0.4630 C   0  0  0  0  0  0  0  0  0  0  0  0
    9.2070    0.1228   -0.0177 C   0  0  0  0  0  0  0  0  0  0  0  0
    9.4908    0.0831   -1.3467 N   0  0  0  0  0  0  0  0  0  0  0  0
    8.6444   -0.4968   -2.2392 C   0  0  0  0  0  0  0  0  0  0  0  0
    7.4485   -1.0711   -1.8006 C   0  0  0  0  0  0  0  0  0  0  0  0
    3.4727   -1.7655   -0.5150 C   0  0  0  0  0  0  0  0  0  0  0  0
    2.1968   -0.9235   -0.6166 C   0  0  0  0  0  0  0  0  0  0  0  0
    1.2705    1.2479    0.3178 C   0  0  0  0  0  0  0  0  0  0  0  0
    0.5392    1.7875    1.1859 O   0  0  0  0  0  0  0  0  0  0  0  0
    1.6254    2.0096   -0.8042 O   0  0  0  0  0  0  0  0  0  0  0  0
    0.8335    2.1667   -1.9908 C   0  0  0  0  0  0  0  0  0  0  0  0
   -0.6971    2.1698   -1.7644 C   0  0  0  0  0  0  0  0  0  0  0  0
   -1.3425    2.0143   -3.0045 O   0  0  0  0  0  0  0  0  0  0  0  0
   -1.2490    3.4390   -1.0826 C   0  0  0  0  0  0  0  0  0  0  0  0
   -0.3660    3.9359   -0.1112 O   0  0  0  0  0  0  0  0  0  0  0  0
   -2.6512    3.1734   -0.4728 C   0  0  0  0  0  0  0  0  0  0  0  0
   -2.6741    2.3687    0.8604 C   0  0  0  0  0  0  0  0  0  0  0  0
   -5.6085   -2.1646    2.4633 H   0  0  0  0  0  0  0  0  0  0  0  0
   -7.1208   -1.3047    2.9154 H   0  0  0  0  0  0  0  0  0  0  0  0
   -5.7124   -0.3602    2.3385 H   0  0  0  0  0  0  0  0  0  0  0  0
   -8.8030   -1.7850    1.3432 H   0  0  0  0  0  0  0  0  0  0  0  0
   -9.6199   -1.9890   -0.9670 H   0  0  0  0  0  0  0  0  0  0  0  0
   -8.0577   -1.7600   -2.8720 H   0  0  0  0  0  0  0  0  0  0  0  0
   -5.6664   -1.3387   -2.4759 H   0  0  0  0  0  0  0  0  0  0  0  0
   -4.0084   -1.6620    0.7404 H   0  0  0  0  0  0  0  0  0  0  0  0
   -3.7858   -1.3640   -1.0040 H   0  0  0  0  0  0  0  0  0  0  0  0
   -1.3250    0.5745    2.1707 H   0  0  0  0  0  0  0  0  0  0  0  0
   -2.6263   -0.5917    2.1946 H   0  0  0  0  0  0  0  0  0  0  0  0
   -0.6922   -0.4966   -0.2324 H   0  0  0  0  0  0  0  0  0  0  0  0
   -1.7931   -1.7688    0.2416 H   0  0  0  0  0  0  0  0  0  0  0  0
    0.2976   -2.5806    0.8725 H   0  0  0  0  0  0  0  0  0  0  0  0
   -0.4631   -2.0750    2.3819 H   0  0  0  0  0  0  0  0  0  0  0  0
    0.9667   -0.1520    2.6318 H   0  0  0  0  0  0  0  0  0  0  0  0
    1.9259   -1.5724    2.2541 H   0  0  0  0  0  0  0  0  0  0  0  0
    3.7485   -0.3536    2.0166 H   0  0  0  0  0  0  0  0  0  0  0  0
    3.3474    1.3519    1.7533 H   0  0  0  0  0  0  0  0  0  0  0  0
    5.4273    0.7882    0.6134 H   0  0  0  0  0  0  0  0  0  0  0  0
    4.2006    1.1524   -0.6134 H   0  0  0  0  0  0  0  0  0  0  0  0
    5.8214   -2.7069   -0.2877 H   0  0  0  0  0  0  0  0  0  0  0  0
    5.7906   -1.6638    1.1646 H   0  0  0  0  0  0  0  0  0  0  0  0
    7.8013   -0.3992    1.5222 H   0  0  0  0  0  0  0  0  0  0  0  0
    9.9013    0.5919    0.6664 H   0  0  0  0  0  0  0  0  0  0  0  0
    8.8989   -0.5108   -3.2904 H   0  0  0  0  0  0  0  0  0  0  0  0
    6.7760   -1.5289   -2.5160 H   0  0  0  0  0  0  0  0  0  0  0  0
    3.4150   -2.3989    0.3999 H   0  0  0  0  0  0  0  0  0  0  0  0
    3.5228   -2.4449   -1.3934 H   0  0  0  0  0  0  0  0  0  0  0  0
    1.3326   -1.5803   -0.8283 H   0  0  0  0  0  0  0  0  0  0  0  0
    2.3087   -0.2896   -1.5203 H   0  0  0  0  0  0  0  0  0  0  0  0
    1.0862    1.3356   -2.6824 H   0  0  0  0  0  0  0  0  0  0  0  0
    1.1352    3.1085   -2.4968 H   0  0  0  0  0  0  0  0  0  0  0  0
   -0.9585    1.3176   -1.1325 H   0  0  0  0  0  0  0  0  0  0  0  0
   -1.2659    1.0559   -3.2565 H   0  0  0  0  0  0  0  0  0  0  0  0
   -1.3625    4.2141   -1.8771 H   0  0  0  0  0  0  0  0  0  0  0  0
   -0.6791    4.8485    0.1234 H   0  0  0  0  0  0  0  0  0  0  0  0
   -3.2961    2.6989   -1.2401 H   0  0  0  0  0  0  0  0  0  0  0  0
   -3.1077    4.1666   -0.2675 H   0  0  0  0  0  0  0  0  0  0  0  0
   -3.5318    2.7384    1.4653 H   0  0  0  0  0  0  0  0  0  0  0  0
   -1.7820    2.6149    1.4674 H   0  0  0  0  0  0  0  0  0  0  0  0
  1  2  1  0
  2  3  2  0
  3  4  1  0
  4  5  2  0
  5  6  1  0
  6  7  2  0
  7  8  1  0
  8  9  1  0
  9 10  2  0
  9 11  1  0
 11 12  1  0
 12 13  1  0
 13 14  1  0
 14 15  1  0
 15 16  1  0
 16 17  1  0
 17 18  1  0
 18 19  1  0
 19 20  1  0
 20 21  1  0
 21 22  2  0
 22 23  1  0
 23 24  2  0
 24 25  1  0
 25 26  2  0
 19 27  1  0
 27 28  1  0
 16 29  1  0
 29 30  2  0
 29 31  1  0
 31 32  1  0
 32 33  1  0
 33 34  1  0
 33 35  1  0
 35 36  1  0
 35 37  1  0
 37 38  1  0
  7  2  1  0
 38 11  1  0
 28 16  1  0
 26 21  1  0
  1 39  1  0
  1 40  1  0
  1 41  1  0
  3 42  1  0
  4 43  1  0
  5 44  1  0
  6 45  1  0
  8 46  1  0
  8 47  1  0
 12 48  1  0
 12 49  1  0
 13 50  1  0
 13 51  1  0
 14 52  1  0
 14 53  1  0
 15 54  1  0
 15 55  1  0
 17 56  1  0
 17 57  1  0
 18 58  1  0
 18 59  1  0
 20 60  1  0
 20 61  1  0
 22 62  1  0
 23 63  1  0
 25 64  1  0
 26 65  1  0
 27 66  1  0
 27 67  1  0
 28 68  1  0
 28 69  1  0
 32 70  1  0
 32 71  1  0
 33 72  1  0
 34 73  1  0
 35 74  1  0
 36 75  1  0
 37 76  1  0
 37 77  1  0
 38 78  1  0
 38 79  1  0
M  END
$$$$
