
     RDKit          3D

 73 75  0  0  0  0  0  0  0  0999 V2000
    8.2260    3.4847    1.2795 C   0  0  0  0  0  0  0  0  0  0  0  0
    6.9303    2.9037    1.3869 O   0  0  0  0  0  0  0  0  0  0  0  0
    6.5155    1.7589    0.6901 C   0  0  0  0  0  0  0  0  0  0  0  0
    7.3619    1.0676   -0.1969 C   0  0  0  0  0  0  0  0  0  0  0  0
    6.8966   -0.0616   -0.8747 C   0  0  0  0  0  0  0  0  0  0  0  0
    5.5922   -0.5173   -0.6707 C   0  0  0  0  0  0  0  0  0  0  0  0
    4.7408    0.1495    0.2283 C   0  0  0  0  0  0  0  0  0  0  0  0
    3.3840   -0.2804    0.4368 N   0  0  0  0  0  0  0  0  0  0  0  0
    2.9426   -1.6411    0.2925 C   0  0  0  0  0  0  0  0  0  0  0  0
    3.7660   -2.5847    0.4450 O   0  0  0  0  0  0  0  0  0  0  0  0
    1.5187   -1.9500    0.0157 C   0  0  0  0  0  0  0  0  0  0  0  0
    1.0105   -3.2337    0.2653 C   0  0  0  0  0  0  0  0  0  0  0  0
   -0.3214   -3.5344   -0.0187 C   0  0  0  0  0  0  0  0  0  0  0  0
   -1.1792   -2.5583   -0.5404 C   0  0  0  0  0  0  0  0  0  0  0  0
   -0.6915   -1.2471   -0.7691 C   0  0  0  0  0  0  0  0  0  0  0  0
    0.6637   -0.9722   -0.5192 C   0  0  0  0  0  0  0  0  0  0  0  0
   -1.5836   -0.1236   -1.2521 C   0  0  0  0  0  0  0  0  0  0  0  0
   -1.8819    0.8067   -0.1322 N   0  0  0  0  0  0  0  0  0  0  0  0
   -0.9354    1.9241    0.1278 C   0  0  0  0  0  0  0  0  0  0  0  0
   -0.4813    2.7481   -1.1081 C   0  0  0  0  0  0  0  0  0  0  0  0
    0.4513    3.8801   -0.6557 C   0  0  0  0  0  0  0  0  0  0  0  0
   -1.6601    3.3346   -1.8952 C   0  0  0  0  0  0  0  0  0  0  0  0
   -3.3081    1.1343    0.0919 C   0  0  0  0  0  0  0  0  0  0  0  0
   -3.6066    1.1921    1.6076 C   0  0  0  0  0  0  0  0  0  0  0  0
   -5.0356    0.7744    1.9956 C   0  0  0  0  0  0  0  0  0  0  0  0
   -5.4673   -0.6599    1.6159 C   0  0  0  0  0  0  0  0  0  0  0  0
   -4.5827   -1.8042    2.1689 C   0  0  0  0  0  0  0  0  0  0  0  0
   -3.3479   -2.1801    1.3218 C   0  0  0  0  0  0  0  0  0  0  0  0
   -3.6910   -2.7090   -0.0844 C   0  0  0  0  0  0  0  0  0  0  0  0
   -2.5094   -2.9509   -0.9345 N   0  0  0  0  0  0  0  0  0  0  0  0
   -2.7096   -3.5364   -2.2401 C   0  0  0  0  0  0  0  0  0  0  0  0
   -1.5685   -3.7323   -3.1945 C   0  0  0  0  0  0  0  0  0  0  0  0
   -3.8638   -3.8968   -2.5989 O   0  0  0  0  0  0  0  0  0  0  0  0
    5.2090    1.2958    0.8897 C   0  0  0  0  0  0  0  0  0  0  0  0
    8.4153    3.8043    0.2329 H   0  0  0  0  0  0  0  0  0  0  0  0
    8.9990    2.7564    1.6032 H   0  0  0  0  0  0  0  0  0  0  0  0
    8.2795    4.3752    1.9383 H   0  0  0  0  0  0  0  0  0  0  0  0
    8.3756    1.3989   -0.3753 H   0  0  0  0  0  0  0  0  0  0  0  0
    7.5468   -0.5806   -1.5673 H   0  0  0  0  0  0  0  0  0  0  0  0
    5.2455   -1.3734   -1.2335 H   0  0  0  0  0  0  0  0  0  0  0  0
    2.6997    0.4201    0.8019 H   0  0  0  0  0  0  0  0  0  0  0  0
    1.6460   -4.0111    0.6710 H   0  0  0  0  0  0  0  0  0  0  0  0
   -0.6876   -4.5391    0.1511 H   0  0  0  0  0  0  0  0  0  0  0  0
    1.0557    0.0043   -0.7667 H   0  0  0  0  0  0  0  0  0  0  0  0
   -1.1025    0.3837   -2.1069 H   0  0  0  0  0  0  0  0  0  0  0  0
   -2.5103   -0.5429   -1.6926 H   0  0  0  0  0  0  0  0  0  0  0  0
   -0.0371    1.5059    0.6270 H   0  0  0  0  0  0  0  0  0  0  0  0
   -1.3699    2.6241    0.8746 H   0  0  0  0  0  0  0  0  0  0  0  0
    0.1229    2.1127   -1.7877 H   0  0  0  0  0  0  0  0  0  0  0  0
   -0.0815    4.5847    0.0190 H   0  0  0  0  0  0  0  0  0  0  0  0
    1.3287    3.4618   -0.1166 H   0  0  0  0  0  0  0  0  0  0  0  0
    0.8280    4.4443   -1.5357 H   0  0  0  0  0  0  0  0  0  0  0  0
   -2.2878    3.9760   -1.2398 H   0  0  0  0  0  0  0  0  0  0  0  0
   -1.2868    3.9512   -2.7405 H   0  0  0  0  0  0  0  0  0  0  0  0
   -2.2847    2.5259   -2.3272 H   0  0  0  0  0  0  0  0  0  0  0  0
   -3.5717    2.1074   -0.3695 H   0  0  0  0  0  0  0  0  0  0  0  0
   -3.9607    0.3853   -0.3911 H   0  0  0  0  0  0  0  0  0  0  0  0
   -3.4627    2.2408    1.9473 H   0  0  0  0  0  0  0  0  0  0  0  0
   -2.8778    0.5978    2.1948 H   0  0  0  0  0  0  0  0  0  0  0  0
   -5.1410    0.8918    3.0965 H   0  0  0  0  0  0  0  0  0  0  0  0
   -5.7487    1.4876    1.5273 H   0  0  0  0  0  0  0  0  0  0  0  0
   -5.6395   -0.7414    0.5285 H   0  0  0  0  0  0  0  0  0  0  0  0
   -6.4786   -0.7997    2.0572 H   0  0  0  0  0  0  0  0  0  0  0  0
   -5.2133   -2.7150    2.2674 H   0  0  0  0  0  0  0  0  0  0  0  0
   -4.2469   -1.5403    3.1952 H   0  0  0  0  0  0  0  0  0  0  0  0
   -2.7938   -2.9776    1.8633 H   0  0  0  0  0  0  0  0  0  0  0  0
   -2.6621   -1.3258    1.2490 H   0  0  0  0  0  0  0  0  0  0  0  0
   -4.3430   -1.9967   -0.6221 H   0  0  0  0  0  0  0  0  0  0  0  0
   -4.2568   -3.6593    0.0312 H   0  0  0  0  0  0  0  0  0  0  0  0
   -0.8469   -4.4611   -2.7714 H   0  0  0  0  0  0  0  0  0  0  0  0
   -1.0555   -2.7646   -3.3730 H   0  0  0  0  0  0  0  0  0  0  0  0
   -1.9360   -4.1211   -4.1679 H   0  0  0  0  0  0  0  0  0  0  0  0
    4.5561    1.8290    1.5701 H   0  0  0  0  0  0  0  0  0  0  0  0
  1  2  1  0
  2  3  1  0
  3  4  2  0
  4  5  1  0
  5  6  2  0
  6  7  1  0
  7  8  1  0
  8  9  1  0
  9 10  2  0
  9 11  1  0
 11 12  2  0
 12 13  1  0
 13 14  2  0
 14 15  1  0
 15 16  2  0
 15 17  1  0
 17 18  1  0
 18 19  1  0
 19 20  1  0
 20 21  1  0
 20 22  1  0
 18 23  1  0
 23 24  1  0
 24 25  1  0
 25 26  1  0
 26 27  1  0
 27 28  1  0
 28 29  1  0
 29 30  1  0
 30 31  1  0
 31 32  1  0
 31 33  2  0
  7 34  2  0
 34  3  1  0
 16 11  1  0
 30 14  1  0
  1 35  1  0
  1 36  1  0
  1 37  1  0
  4 38  1  0
  5 39  1  0
  6 40  1  0
  8 41  1  0
 12 42  1  0
 13 43  1  0
 16 44  1  0
 17 45  1  0
 17 46  1  0
 19 47  1  0
 19 48  1  0
 20 49  1  0
 21 50  1  0
 21 51  1  0
 21 52  1  0
 22 53  1  0
 22 54  1  0
 22 55  1  0
 23 56  1  0
 23 57  1  0
 24 58  1  0
 24 59  1  0
 25 60  1  0
 25 61  1  0
 26 62  1  0
 26 63  1  0
 27 64  1  0
 27 65  1  0
 28 66  1  0
 28 67  1  0
 29 68  1  0
 29 69  1  0
 32 70  1  0
 32 71  1  0
 32 72  1  0
 34 73  1  0
M  END
$$$$
