
     RDKit          3D

 74 77  0  0  0  0  0  0  0  0999 V2000
    9.7232   -1.2323   -1.2619 C   0  0  0  0  0  0  0  0  0  0  0  0
    8.3859   -0.7397   -0.9640 N   0  0  0  0  0  0  0  0  0  0  0  0
    7.3015   -1.5004   -0.7316 C   0  0  0  0  0  0  0  0  0  0  0  0
    6.2487   -0.6636   -0.4143 C   0  0  0  0  0  0  0  0  0  0  0  0
    4.8893   -1.1033   -0.0392 C   0  0  0  0  0  0  0  0  0  0  0  0
    4.7659   -2.2099    0.5491 O   0  0  0  0  0  0  0  0  0  0  0  0
    3.6980   -0.3816   -0.4213 N   0  0  0  0  0  0  0  0  0  0  0  0
    2.7439   -1.1543   -1.2548 C   0  0  0  0  0  0  0  0  0  0  0  0
    1.4747   -0.4178   -1.7396 C   0  0  0  0  0  0  0  0  0  0  0  0
    0.3770   -0.4036   -0.6642 C   0  0  0  0  0  0  0  0  0  0  0  0
   -0.8606    0.3994   -1.1059 C   0  0  0  0  0  0  0  0  0  0  0  0
   -1.8982    0.6959    0.0340 C   0  0  0  0  0  0  0  0  0  0  0  0
   -3.1560    1.3776   -0.5769 C   0  0  0  0  0  0  0  0  0  0  0  0
   -4.0438    0.4190   -1.3977 C   0  0  0  0  0  0  0  0  0  0  0  0
   -4.4007   -0.8171   -0.6673 N   0  0  0  0  0  0  0  0  0  0  0  0
   -5.4521   -0.6125    0.3538 C   0  0  0  0  0  0  0  0  0  0  0  0
   -6.7998   -0.4984   -0.3075 C   0  0  0  0  0  0  0  0  0  0  0  0
   -7.3650   -1.6173   -0.9419 C   0  0  0  0  0  0  0  0  0  0  0  0
   -8.6056   -1.5130   -1.5786 C   0  0  0  0  0  0  0  0  0  0  0  0
   -9.2870   -0.2927   -1.5898 C   0  0  0  0  0  0  0  0  0  0  0  0
   -8.7298    0.8251   -0.9639 C   0  0  0  0  0  0  0  0  0  0  0  0
   -7.4887    0.7258   -0.3258 C   0  0  0  0  0  0  0  0  0  0  0  0
   -3.2083   -1.5037   -0.1345 C   0  0  0  0  0  0  0  0  0  0  0  0
   -2.3658   -0.5904    0.7686 C   0  0  0  0  0  0  0  0  0  0  0  0
   -1.2824    1.6867    1.0206 C   0  0  0  0  0  0  0  0  0  0  0  0
   -1.0180    2.8570    0.6298 O   0  0  0  0  0  0  0  0  0  0  0  0
   -1.0437    1.3669    2.3659 O   0  0  0  0  0  0  0  0  0  0  0  0
    0.1489    0.7177    2.8157 C   0  0  0  0  0  0  0  0  0  0  0  0
    1.4134    1.5313    2.4478 C   0  0  0  0  0  0  0  0  0  0  0  0
    1.5271    2.6045    3.3486 O   0  0  0  0  0  0  0  0  0  0  0  0
    2.7299    0.6919    2.4576 C   0  0  0  0  0  0  0  0  0  0  0  0
    2.5059   -0.6580    2.1352 O   0  0  0  0  0  0  0  0  0  0  0  0
    3.7935    1.2697    1.4929 C   0  0  0  0  0  0  0  0  0  0  0  0
    3.5147    1.0297   -0.0145 C   0  0  0  0  0  0  0  0  0  0  0  0
    6.7888    0.6155   -0.4445 C   0  0  0  0  0  0  0  0  0  0  0  0
    8.0931    0.5376   -0.7736 N   0  0  0  0  0  0  0  0  0  0  0  0
   10.2155   -1.5587   -0.3213 H   0  0  0  0  0  0  0  0  0  0  0  0
   10.3294   -0.4291   -1.7329 H   0  0  0  0  0  0  0  0  0  0  0  0
    9.6641   -2.0925   -1.9635 H   0  0  0  0  0  0  0  0  0  0  0  0
    7.2804   -2.5831   -0.7806 H   0  0  0  0  0  0  0  0  0  0  0  0
    2.4369   -2.0720   -0.7018 H   0  0  0  0  0  0  0  0  0  0  0  0
    3.2857   -1.5037   -2.1634 H   0  0  0  0  0  0  0  0  0  0  0  0
    1.7169    0.5996   -2.1100 H   0  0  0  0  0  0  0  0  0  0  0  0
    1.0730   -0.9730   -2.6163 H   0  0  0  0  0  0  0  0  0  0  0  0
    0.7906    0.0251    0.2545 H   0  0  0  0  0  0  0  0  0  0  0  0
    0.0795   -1.4526   -0.4512 H   0  0  0  0  0  0  0  0  0  0  0  0
   -0.5229    1.3672   -1.5397 H   0  0  0  0  0  0  0  0  0  0  0  0
   -1.3358   -0.1595   -1.9377 H   0  0  0  0  0  0  0  0  0  0  0  0
   -3.7724    1.8273    0.2327 H   0  0  0  0  0  0  0  0  0  0  0  0
   -2.8506    2.2211   -1.2357 H   0  0  0  0  0  0  0  0  0  0  0  0
   -3.5298    0.1435   -2.3422 H   0  0  0  0  0  0  0  0  0  0  0  0
   -4.9614    0.9620   -1.7123 H   0  0  0  0  0  0  0  0  0  0  0  0
   -5.4993   -1.4808    1.0478 H   0  0  0  0  0  0  0  0  0  0  0  0
   -5.2414    0.2770    0.9851 H   0  0  0  0  0  0  0  0  0  0  0  0
   -6.8431   -2.5667   -0.9452 H   0  0  0  0  0  0  0  0  0  0  0  0
   -9.0363   -2.3777   -2.0660 H   0  0  0  0  0  0  0  0  0  0  0  0
  -10.2457   -0.2131   -2.0867 H   0  0  0  0  0  0  0  0  0  0  0  0
   -9.2574    1.7694   -0.9740 H   0  0  0  0  0  0  0  0  0  0  0  0
   -7.0646    1.6027    0.1470 H   0  0  0  0  0  0  0  0  0  0  0  0
   -3.5074   -2.4108    0.4358 H   0  0  0  0  0  0  0  0  0  0  0  0
   -2.5910   -1.8745   -0.9794 H   0  0  0  0  0  0  0  0  0  0  0  0
   -2.9763   -0.3136    1.6557 H   0  0  0  0  0  0  0  0  0  0  0  0
   -1.5081   -1.1744    1.1533 H   0  0  0  0  0  0  0  0  0  0  0  0
    0.0973    0.5975    3.9191 H   0  0  0  0  0  0  0  0  0  0  0  0
    0.1685   -0.3031    2.3944 H   0  0  0  0  0  0  0  0  0  0  0  0
    1.2603    1.9423    1.4305 H   0  0  0  0  0  0  0  0  0  0  0  0
    2.0367    3.3224    2.8889 H   0  0  0  0  0  0  0  0  0  0  0  0
    3.1625    0.7559    3.4855 H   0  0  0  0  0  0  0  0  0  0  0  0
    2.3613   -1.1468    2.9876 H   0  0  0  0  0  0  0  0  0  0  0  0
    4.7836    0.8478    1.7629 H   0  0  0  0  0  0  0  0  0  0  0  0
    3.8783    2.3644    1.6608 H   0  0  0  0  0  0  0  0  0  0  0  0
    4.1867    1.6646   -0.6207 H   0  0  0  0  0  0  0  0  0  0  0  0
    2.5131    1.4100   -0.2577 H   0  0  0  0  0  0  0  0  0  0  0  0
    6.3056    1.5437   -0.1819 H   0  0  0  0  0  0  0  0  0  0  0  0
  1  2  1  0
  2  3  1  0
  3  4  2  0
  4  5  1  0
  5  6  2  0
  5  7  1  0
  7  8  1  0
  8  9  1  0
  9 10  1  0
 10 11  1  0
 11 12  1  0
 12 13  1  0
 13 14  1  0
 14 15  1  0
 15 16  1  0
 16 17  1  0
 17 18  2  0
 18 19  1  0
 19 20  2  0
 20 21  1  0
 21 22  2  0
 15 23  1  0
 23 24  1  0
 12 25  1  0
 25 26  2  0
 25 27  1  0
 27 28  1  0
 28 29  1  0
 29 30  1  0
 29 31  1  0
 31 32  1  0
 31 33  1  0
 33 34  1  0
  4 35  1  0
 35 36  2  0
 36  2  1  0
 34  7  1  0
 24 12  1  0
 22 17  1  0
  1 37  1  0
  1 38  1  0
  1 39  1  0
  3 40  1  0
  8 41  1  0
  8 42  1  0
  9 43  1  0
  9 44  1  0
 10 45  1  0
 10 46  1  0
 11 47  1  0
 11 48  1  0
 13 49  1  0
 13 50  1  0
 14 51  1  0
 14 52  1  0
 16 53  1  0
 16 54  1  0
 18 55  1  0
 19 56  1  0
 20 57  1  0
 21 58  1  0
 22 59  1  0
 23 60  1  0
 23 61  1  0
 24 62  1  0
 24 63  1  0
 28 64  1  0
 28 65  1  0
 29 66  1  0
 30 67  1  0
 31 68  1  0
 32 69  1  0
 33 70  1  0
 33 71  1  0
 34 72  1  0
 34 73  1  0
 35 74  1  0
M  END
$$$$
