
     RDKit          3D

 78 81  0  0  0  0  0  0  0  0999 V2000
   -0.9334    4.9125   -0.3935 C   0  0  0  0  0  0  0  0  0  0  0  0
   -1.0994    3.5766   -1.0528 C   0  0  0  0  0  0  0  0  0  0  0  0
   -1.2074    3.5312   -2.3089 O   0  0  0  0  0  0  0  0  0  0  0  0
   -1.0896    2.3463   -0.2999 N   0  0  0  0  0  0  0  0  0  0  0  0
   -1.5965    2.2630    1.0790 C   0  0  0  0  0  0  0  0  0  0  0  0
   -2.9323    2.9988    1.3198 C   0  0  0  0  0  0  0  0  0  0  0  0
   -3.9510    2.9091    0.1559 C   0  0  0  0  0  0  0  0  0  0  0  0
   -5.3888    2.6017    0.6313 C   0  0  0  0  0  0  0  0  0  0  0  0
   -5.8856    1.1920    0.2602 C   0  0  0  0  0  0  0  0  0  0  0  0
   -4.9057    0.0538    0.6333 C   0  0  0  0  0  0  0  0  0  0  0  0
   -4.1194   -0.5118   -0.5794 C   0  0  0  0  0  0  0  0  0  0  0  0
   -2.6495   -0.5744   -0.3108 N   0  0  0  0  0  0  0  0  0  0  0  0
   -2.2283   -1.9132    0.2422 C   0  0  0  0  0  0  0  0  0  0  0  0
   -3.1573   -2.4312    1.3787 C   0  0  0  0  0  0  0  0  0  0  0  0
   -2.6499   -3.7556    1.9992 C   0  0  0  0  0  0  0  0  0  0  0  0
   -1.2849   -4.0248    1.7368 O   0  0  0  0  0  0  0  0  0  0  0  0
   -0.5221   -2.8574    1.9401 C   0  0  0  0  0  0  0  0  0  0  0  0
   -0.7728   -1.8668    0.7948 C   0  0  0  0  0  0  0  0  0  0  0  0
   -1.9299   -0.2296   -1.5758 C   0  0  0  0  0  0  0  0  0  0  0  0
   -0.4848    0.1781   -1.3808 C   0  0  0  0  0  0  0  0  0  0  0  0
    0.5256   -0.6168   -1.9574 C   0  0  0  0  0  0  0  0  0  0  0  0
    1.8816   -0.3126   -1.7682 C   0  0  0  0  0  0  0  0  0  0  0  0
    2.9322   -1.1725   -2.3541 C   0  0  0  0  0  0  0  0  0  0  0  0
    2.7115   -1.7727   -3.4406 O   0  0  0  0  0  0  0  0  0  0  0  0
    4.2093   -1.3193   -1.7116 N   0  0  0  0  0  0  0  0  0  0  0  0
    5.4287   -1.2898   -2.5290 C   0  0  0  0  0  0  0  0  0  0  0  0
    6.6882   -1.4095   -1.6629 C   0  0  0  0  0  0  0  0  0  0  0  0
    6.5690   -0.5073   -0.4293 C   0  0  0  0  0  0  0  0  0  0  0  0
    5.3392   -0.8604    0.4558 C   0  0  0  0  0  0  0  0  0  0  0  0
    5.7587   -1.5796    1.7495 C   0  0  0  0  0  0  0  0  0  0  0  0
    6.4945   -0.7116    2.5724 O   0  0  0  0  0  0  0  0  0  0  0  0
    4.2810   -1.7024   -0.2953 C   0  0  0  0  0  0  0  0  0  0  0  0
    2.2311    0.8278   -1.0350 C   0  0  0  0  0  0  0  0  0  0  0  0
    1.2420    1.6667   -0.5259 C   0  0  0  0  0  0  0  0  0  0  0  0
   -0.1167    1.3702   -0.7099 C   0  0  0  0  0  0  0  0  0  0  0  0
   -1.9181    5.4173   -0.3144 H   0  0  0  0  0  0  0  0  0  0  0  0
   -0.4841    4.8042    0.6140 H   0  0  0  0  0  0  0  0  0  0  0  0
   -0.2584    5.5488   -1.0041 H   0  0  0  0  0  0  0  0  0  0  0  0
   -0.8291    2.6664    1.7741 H   0  0  0  0  0  0  0  0  0  0  0  0
   -1.7418    1.1996    1.3541 H   0  0  0  0  0  0  0  0  0  0  0  0
   -3.3575    2.5840    2.2587 H   0  0  0  0  0  0  0  0  0  0  0  0
   -2.7307    4.0679    1.5407 H   0  0  0  0  0  0  0  0  0  0  0  0
   -3.9588    3.8882   -0.3693 H   0  0  0  0  0  0  0  0  0  0  0  0
   -3.6330    2.1759   -0.6080 H   0  0  0  0  0  0  0  0  0  0  0  0
   -6.0807    3.3327    0.1589 H   0  0  0  0  0  0  0  0  0  0  0  0
   -5.5007    2.7513    1.7272 H   0  0  0  0  0  0  0  0  0  0  0  0
   -6.1548    1.1651   -0.8174 H   0  0  0  0  0  0  0  0  0  0  0  0
   -6.8394    1.0262    0.8081 H   0  0  0  0  0  0  0  0  0  0  0  0
   -5.5066   -0.7689    1.0758 H   0  0  0  0  0  0  0  0  0  0  0  0
   -4.2121    0.3917    1.4320 H   0  0  0  0  0  0  0  0  0  0  0  0
   -4.3530    0.1064   -1.4719 H   0  0  0  0  0  0  0  0  0  0  0  0
   -4.5183   -1.5081   -0.8701 H   0  0  0  0  0  0  0  0  0  0  0  0
   -2.2655   -2.6754   -0.5696 H   0  0  0  0  0  0  0  0  0  0  0  0
   -4.1829   -2.6305    1.0114 H   0  0  0  0  0  0  0  0  0  0  0  0
   -3.2134   -1.6617    2.1794 H   0  0  0  0  0  0  0  0  0  0  0  0
   -2.8294   -3.7529    3.0978 H   0  0  0  0  0  0  0  0  0  0  0  0
   -3.2428   -4.5981    1.5805 H   0  0  0  0  0  0  0  0  0  0  0  0
   -0.7494   -2.3871    2.9265 H   0  0  0  0  0  0  0  0  0  0  0  0
    0.5544   -3.1317    1.9610 H   0  0  0  0  0  0  0  0  0  0  0  0
   -0.0760   -2.1476   -0.0172 H   0  0  0  0  0  0  0  0  0  0  0  0
   -0.5188   -0.8491    1.1580 H   0  0  0  0  0  0  0  0  0  0  0  0
   -2.3961    0.6459   -2.0774 H   0  0  0  0  0  0  0  0  0  0  0  0
   -2.0165   -1.0701   -2.3004 H   0  0  0  0  0  0  0  0  0  0  0  0
    0.2556   -1.5042   -2.5180 H   0  0  0  0  0  0  0  0  0  0  0  0
    5.4654   -0.3276   -3.0842 H   0  0  0  0  0  0  0  0  0  0  0  0
    5.4091   -2.1196   -3.2677 H   0  0  0  0  0  0  0  0  0  0  0  0
    7.5797   -1.1124   -2.2583 H   0  0  0  0  0  0  0  0  0  0  0  0
    6.8251   -2.4652   -1.3413 H   0  0  0  0  0  0  0  0  0  0  0  0
    7.5173   -0.5652    0.1476 H   0  0  0  0  0  0  0  0  0  0  0  0
    6.4736    0.5459   -0.7755 H   0  0  0  0  0  0  0  0  0  0  0  0
    4.8518    0.0956    0.7529 H   0  0  0  0  0  0  0  0  0  0  0  0
    4.8511   -1.8934    2.3092 H   0  0  0  0  0  0  0  0  0  0  0  0
    6.3360   -2.5025    1.5038 H   0  0  0  0  0  0  0  0  0  0  0  0
    7.4252   -1.0534    2.6036 H   0  0  0  0  0  0  0  0  0  0  0  0
    4.5383   -2.7835   -0.2422 H   0  0  0  0  0  0  0  0  0  0  0  0
    3.2950   -1.5810    0.2048 H   0  0  0  0  0  0  0  0  0  0  0  0
    3.2708    1.0950   -0.8933 H   0  0  0  0  0  0  0  0  0  0  0  0
    1.5322    2.5723   -0.0075 H   0  0  0  0  0  0  0  0  0  0  0  0
  1  2  1  0
  2  3  2  0
  2  4  1  0
  4  5  1  0
  5  6  1  0
  6  7  1  0
  7  8  1  0
  8  9  1  0
  9 10  1  0
 10 11  1  0
 11 12  1  0
 12 13  1  0
 13 14  1  0
 14 15  1  0
 15 16  1  0
 16 17  1  0
 17 18  1  0
 12 19  1  0
 19 20  1  0
 20 21  2  0
 21 22  1  0
 22 23  1  0
 23 24  2  0
 23 25  1  0
 25 26  1  0
 26 27  1  0
 27 28  1  0
 28 29  1  0
 29 30  1  0
 30 31  1  0
 29 32  1  0
 22 33  2  0
 33 34  1  0
 34 35  2  0
 35  4  1  0
 18 13  1  0
 35 20  1  0
 32 25  1  0
  1 36  1  0
  1 37  1  0
  1 38  1  0
  5 39  1  0
  5 40  1  0
  6 41  1  0
  6 42  1  0
  7 43  1  0
  7 44  1  0
  8 45  1  0
  8 46  1  0
  9 47  1  0
  9 48  1  0
 10 49  1  0
 10 50  1  0
 11 51  1  0
 11 52  1  0
 13 53  1  0
 14 54  1  0
 14 55  1  0
 15 56  1  0
 15 57  1  0
 17 58  1  0
 17 59  1  0
 18 60  1  0
 18 61  1  0
 19 62  1  0
 19 63  1  0
 21 64  1  0
 26 65  1  0
 26 66  1  0
 27 67  1  0
 27 68  1  0
 28 69  1  0
 28 70  1  0
 29 71  1  0
 30 72  1  0
 30 73  1  0
 31 74  1  0
 32 75  1  0
 32 76  1  0
 33 77  1  0
 34 78  1  0
M  END
$$$$
