
     RDKit          3D

 69 71  0  0  0  0  0  0  0  0999 V2000
   -5.3848   -3.7022    0.0463 C   0  0  0  0  0  0  0  0  0  0  0  0
   -4.0666   -3.2427   -0.5933 C   0  0  0  0  0  0  0  0  0  0  0  0
   -4.3281   -2.7977   -2.0402 C   0  0  0  0  0  0  0  0  0  0  0  0
   -3.4264   -2.1204    0.2645 C   0  0  0  0  0  0  0  0  0  0  0  0
   -1.9294   -1.8605   -0.0417 C   0  0  0  0  0  0  0  0  0  0  0  0
   -1.2820   -1.1738    1.0800 N   0  0  0  0  0  0  0  0  0  0  0  0
    0.1186   -1.3391    1.3512 C   0  0  0  0  0  0  0  0  0  0  0  0
    0.5577   -2.5068    1.5396 O   0  0  0  0  0  0  0  0  0  0  0  0
    1.0954   -0.1566    1.2757 C   0  0  0  0  0  0  0  0  0  0  0  0
    0.3184    1.1664    1.6066 C   0  0  0  0  0  0  0  0  0  0  0  0
    1.0318    2.5027    1.2979 C   0  0  0  0  0  0  0  0  0  0  0  0
    0.0947    3.7165    1.4691 C   0  0  0  0  0  0  0  0  0  0  0  0
   -0.7829    3.9983    0.2350 C   0  0  0  0  0  0  0  0  0  0  0  0
   -1.8869    3.1106    0.1930 O   0  0  0  0  0  0  0  0  0  0  0  0
   -1.8657    2.3162   -0.9793 C   0  0  0  0  0  0  0  0  0  0  0  0
   -2.8580    1.1501   -0.8169 C   0  0  0  0  0  0  0  0  0  0  0  0
   -4.2910    1.6037   -1.1083 C   0  0  0  0  0  0  0  0  0  0  0  0
   -2.4930    0.0530   -1.7171 N   0  0  0  0  0  0  0  0  0  0  0  0
   -1.7013   -1.0853   -1.3258 C   0  0  0  0  0  0  0  0  0  0  0  0
   -0.8095   -1.4952   -2.1175 O   0  0  0  0  0  0  0  0  0  0  0  0
    2.2373   -0.3525    2.3238 C   0  0  0  0  0  0  0  0  0  0  0  0
    3.3822   -1.2428    1.7980 C   0  0  0  0  0  0  0  0  0  0  0  0
    3.9946   -0.7508    0.5330 N   0  0  0  0  0  0  0  0  0  0  0  0
    5.3685   -0.2525    0.7573 C   0  0  0  0  0  0  0  0  0  0  0  0
    6.0863   -0.0362   -0.5412 C   0  0  0  0  0  0  0  0  0  0  0  0
    6.3588    1.1919   -1.1321 C   0  0  0  0  0  0  0  0  0  0  0  0
    6.9554    1.1142   -2.3520 N   0  0  0  0  0  0  0  0  0  0  0  0
    7.1528   -0.1642   -2.7462 C   0  0  0  0  0  0  0  0  0  0  0  0
    6.5848   -1.2511   -1.5938 S   0  0  0  0  0  0  0  0  0  0  0  0
    3.1695    0.2455   -0.1886 C   0  0  0  0  0  0  0  0  0  0  0  0
    1.6834   -0.1411   -0.1700 C   0  0  0  0  0  0  0  0  0  0  0  0
   -5.8407   -4.5172   -0.5561 H   0  0  0  0  0  0  0  0  0  0  0  0
   -6.1065   -2.8572    0.1130 H   0  0  0  0  0  0  0  0  0  0  0  0
   -5.1996   -4.1003    1.0679 H   0  0  0  0  0  0  0  0  0  0  0  0
   -3.3853   -4.1224   -0.6140 H   0  0  0  0  0  0  0  0  0  0  0  0
   -4.9211   -1.8560   -2.0620 H   0  0  0  0  0  0  0  0  0  0  0  0
   -4.8892   -3.5861   -2.5878 H   0  0  0  0  0  0  0  0  0  0  0  0
   -3.3746   -2.6463   -2.5866 H   0  0  0  0  0  0  0  0  0  0  0  0
   -3.4888   -2.4308    1.3314 H   0  0  0  0  0  0  0  0  0  0  0  0
   -4.0244   -1.1914    0.1799 H   0  0  0  0  0  0  0  0  0  0  0  0
   -1.4469   -2.8595   -0.1505 H   0  0  0  0  0  0  0  0  0  0  0  0
   -1.8517   -0.6083    1.7484 H   0  0  0  0  0  0  0  0  0  0  0  0
    0.0287    1.1565    2.6809 H   0  0  0  0  0  0  0  0  0  0  0  0
   -0.6173    1.1748    1.0365 H   0  0  0  0  0  0  0  0  0  0  0  0
    1.4316    2.5202    0.2653 H   0  0  0  0  0  0  0  0  0  0  0  0
    1.8873    2.6278    1.9934 H   0  0  0  0  0  0  0  0  0  0  0  0
   -0.5434    3.5951    2.3705 H   0  0  0  0  0  0  0  0  0  0  0  0
    0.7282    4.6130    1.6413 H   0  0  0  0  0  0  0  0  0  0  0  0
   -0.1578    4.0157   -0.6907 H   0  0  0  0  0  0  0  0  0  0  0  0
   -1.1904    5.0259    0.3404 H   0  0  0  0  0  0  0  0  0  0  0  0
   -2.1326    2.9343   -1.8669 H   0  0  0  0  0  0  0  0  0  0  0  0
   -0.8515    1.8878   -1.1546 H   0  0  0  0  0  0  0  0  0  0  0  0
   -2.8308    0.8034    0.2342 H   0  0  0  0  0  0  0  0  0  0  0  0
   -4.3853    1.9545   -2.1584 H   0  0  0  0  0  0  0  0  0  0  0  0
   -4.5792    2.4297   -0.4230 H   0  0  0  0  0  0  0  0  0  0  0  0
   -4.9947    0.7583   -0.9549 H   0  0  0  0  0  0  0  0  0  0  0  0
   -2.5595    0.2463   -2.7434 H   0  0  0  0  0  0  0  0  0  0  0  0
    1.8315   -0.7870    3.2640 H   0  0  0  0  0  0  0  0  0  0  0  0
    2.6908    0.6192    2.6073 H   0  0  0  0  0  0  0  0  0  0  0  0
    3.0050   -2.2690    1.6178 H   0  0  0  0  0  0  0  0  0  0  0  0
    4.1332   -1.3493    2.6129 H   0  0  0  0  0  0  0  0  0  0  0  0
    5.3554    0.6865    1.3540 H   0  0  0  0  0  0  0  0  0  0  0  0
    5.9575   -1.0045    1.3255 H   0  0  0  0  0  0  0  0  0  0  0  0
    6.1038    2.1395   -0.6788 H   0  0  0  0  0  0  0  0  0  0  0  0
    7.6099   -0.4335   -3.6894 H   0  0  0  0  0  0  0  0  0  0  0  0
    3.4937    0.2890   -1.2505 H   0  0  0  0  0  0  0  0  0  0  0  0
    3.3111    1.2581    0.2454 H   0  0  0  0  0  0  0  0  0  0  0  0
    1.1054    0.5348   -0.8341 H   0  0  0  0  0  0  0  0  0  0  0  0
    1.6139   -1.1490   -0.6393 H   0  0  0  0  0  0  0  0  0  0  0  0
  1  2  1  0
  2  3  1  0
  2  4  1  0
  4  5  1  0
  5  6  1  0
  6  7  1  0
  7  8  2  0
  7  9  1  0
  9 10  1  0
 10 11  1  0
 11 12  1  0
 12 13  1  0
 13 14  1  0
 14 15  1  0
 15 16  1  0
 16 17  1  0
 16 18  1  0
 18 19  1  0
 19 20  2  0
  9 21  1  0
 21 22  1  0
 22 23  1  0
 23 24  1  0
 24 25  1  0
 25 26  2  0
 26 27  1  0
 27 28  2  0
 28 29  1  0
 23 30  1  0
 30 31  1  0
 19  5  1  0
 29 25  1  0
 31  9  1  0
  1 32  1  0
  1 33  1  0
  1 34  1  0
  2 35  1  0
  3 36  1  0
  3 37  1  0
  3 38  1  0
  4 39  1  0
  4 40  1  0
  5 41  1  0
  6 42  1  0
 10 43  1  0
 10 44  1  0
 11 45  1  0
 11 46  1  0
 12 47  1  0
 12 48  1  0
 13 49  1  0
 13 50  1  0
 15 51  1  0
 15 52  1  0
 16 53  1  0
 17 54  1  0
 17 55  1  0
 17 56  1  0
 18 57  1  0
 21 58  1  0
 21 59  1  0
 22 60  1  0
 22 61  1  0
 24 62  1  0
 24 63  1  0
 26 64  1  0
 28 65  1  0
 30 66  1  0
 30 67  1  0
 31 68  1  0
 31 69  1  0
M  END
$$$$
