
     RDKit          3D

 79 82  0  0  0  0  0  0  0  0999 V2000
   -1.5561    2.0267   -3.0429 O   0  0  0  0  0  0  0  0  0  0  0  0
   -2.1843    1.3357   -2.1963 C   0  0  0  0  0  0  0  0  0  0  0  0
   -1.4569    0.7927   -0.9955 C   0  0  0  0  0  0  0  0  0  0  0  0
   -0.2422   -0.0755   -1.3759 C   0  0  0  0  0  0  0  0  0  0  0  0
    0.6608   -0.2442   -0.1715 C   0  0  0  0  0  0  0  0  0  0  0  0
    0.1750   -0.6203    0.9312 O   0  0  0  0  0  0  0  0  0  0  0  0
    2.0646    0.0302   -0.2788 N   0  0  0  0  0  0  0  0  0  0  0  0
    2.9552   -0.0752    0.8762 C   0  0  0  0  0  0  0  0  0  0  0  0
    4.3409    0.4832    0.5407 C   0  0  0  0  0  0  0  0  0  0  0  0
    5.3023    0.3475    1.7297 C   0  0  0  0  0  0  0  0  0  0  0  0
    6.6292    1.0733    1.4694 C   0  0  0  0  0  0  0  0  0  0  0  0
    7.2853    0.5784    0.2421 N   0  0  0  0  0  0  0  0  0  0  0  0
    8.3814    1.4579   -0.1741 C   0  0  0  0  0  0  0  0  0  0  0  0
    9.3588    0.5995   -0.9629 C   0  0  0  0  0  0  0  0  0  0  0  0
    9.0281   -0.8372   -0.5920 C   0  0  0  0  0  0  0  0  0  0  0  0
    7.8953   -0.7440    0.4182 C   0  0  0  0  0  0  0  0  0  0  0  0
   -0.6893   -1.3660   -1.9314 N   0  0  0  0  0  0  0  0  0  0  0  0
   -0.1390   -2.6321   -1.5381 C   0  0  0  0  0  0  0  0  0  0  0  0
    0.7610   -3.1580   -2.2428 O   0  0  0  0  0  0  0  0  0  0  0  0
   -0.5728   -3.2810   -0.2789 C   0  0  0  0  0  0  0  0  0  0  0  0
    0.3707   -3.9706    0.5015 C   0  0  0  0  0  0  0  0  0  0  0  0
    0.0108   -4.4955    1.7446 C   0  0  0  0  0  0  0  0  0  0  0  0
   -1.2904   -4.3340    2.2230 C   0  0  0  0  0  0  0  0  0  0  0  0
   -2.2457   -3.6713    1.4488 C   0  0  0  0  0  0  0  0  0  0  0  0
   -1.9033   -3.1615    0.1803 C   0  0  0  0  0  0  0  0  0  0  0  0
   -2.8585   -2.5679   -0.6599 O   0  0  0  0  0  0  0  0  0  0  0  0
   -4.1576   -2.1366   -0.2615 C   0  0  0  0  0  0  0  0  0  0  0  0
   -4.9147   -1.6463   -1.4950 C   0  0  0  0  0  0  0  0  0  0  0  0
   -5.8879   -0.6156   -1.1370 N   0  0  0  0  0  0  0  0  0  0  0  0
   -5.8899    0.7054   -1.7044 C   0  0  0  0  0  0  0  0  0  0  0  0
   -6.9652    1.1595   -2.1807 O   0  0  0  0  0  0  0  0  0  0  0  0
   -4.6810    1.6181   -1.6354 C   0  0  0  0  0  0  0  0  0  0  0  0
   -4.3138    1.9301   -0.1664 C   0  0  0  0  0  0  0  0  0  0  0  0
   -5.4268    2.6566    0.5479 C   0  0  0  0  0  0  0  0  0  0  0  0
   -6.3529    1.9479    1.3328 C   0  0  0  0  0  0  0  0  0  0  0  0
   -7.3878    2.6257    1.9852 C   0  0  0  0  0  0  0  0  0  0  0  0
   -7.5107    4.0118    1.8542 C   0  0  0  0  0  0  0  0  0  0  0  0
   -6.6009    4.7222    1.0667 C   0  0  0  0  0  0  0  0  0  0  0  0
   -5.5651    4.0483    0.4116 C   0  0  0  0  0  0  0  0  0  0  0  0
   -3.5719    1.0510   -2.4190 N   0  0  0  0  0  0  0  0  0  0  0  0
   -1.1233    1.6581   -0.3832 H   0  0  0  0  0  0  0  0  0  0  0  0
   -2.1414    0.1741   -0.3808 H   0  0  0  0  0  0  0  0  0  0  0  0
    0.3375    0.4528   -2.1641 H   0  0  0  0  0  0  0  0  0  0  0  0
    2.4440    0.3549   -1.1971 H   0  0  0  0  0  0  0  0  0  0  0  0
    3.0394   -1.1431    1.1741 H   0  0  0  0  0  0  0  0  0  0  0  0
    2.5274    0.5024    1.7241 H   0  0  0  0  0  0  0  0  0  0  0  0
    4.7533   -0.0638   -0.3346 H   0  0  0  0  0  0  0  0  0  0  0  0
    4.2390    1.5550    0.2637 H   0  0  0  0  0  0  0  0  0  0  0  0
    5.4941   -0.7271    1.9405 H   0  0  0  0  0  0  0  0  0  0  0  0
    4.8337    0.7915    2.6355 H   0  0  0  0  0  0  0  0  0  0  0  0
    6.4079    2.1591    1.3636 H   0  0  0  0  0  0  0  0  0  0  0  0
    7.2923    0.9589    2.3560 H   0  0  0  0  0  0  0  0  0  0  0  0
    8.9101    1.8971    0.7053 H   0  0  0  0  0  0  0  0  0  0  0  0
    7.9861    2.2820   -0.8074 H   0  0  0  0  0  0  0  0  0  0  0  0
    9.2133    0.7568   -2.0542 H   0  0  0  0  0  0  0  0  0  0  0  0
   10.4088    0.8510   -0.6957 H   0  0  0  0  0  0  0  0  0  0  0  0
    8.6887   -1.3945   -1.4929 H   0  0  0  0  0  0  0  0  0  0  0  0
    9.9098   -1.3535   -0.1537 H   0  0  0  0  0  0  0  0  0  0  0  0
    7.1405   -1.5398    0.2331 H   0  0  0  0  0  0  0  0  0  0  0  0
    8.3153   -0.8681    1.4434 H   0  0  0  0  0  0  0  0  0  0  0  0
   -1.2046   -1.3400   -2.8393 H   0  0  0  0  0  0  0  0  0  0  0  0
    1.3952   -4.0688    0.1668 H   0  0  0  0  0  0  0  0  0  0  0  0
    0.7469   -5.0123    2.3475 H   0  0  0  0  0  0  0  0  0  0  0  0
   -1.5620   -4.7294    3.1943 H   0  0  0  0  0  0  0  0  0  0  0  0
   -3.2495   -3.5781    1.8403 H   0  0  0  0  0  0  0  0  0  0  0  0
   -4.7245   -2.9684    0.2030 H   0  0  0  0  0  0  0  0  0  0  0  0
   -4.0460   -1.3180    0.4769 H   0  0  0  0  0  0  0  0  0  0  0  0
   -4.1986   -1.2759   -2.2541 H   0  0  0  0  0  0  0  0  0  0  0  0
   -5.4489   -2.5022   -1.9610 H   0  0  0  0  0  0  0  0  0  0  0  0
   -6.7400   -0.9248   -0.6182 H   0  0  0  0  0  0  0  0  0  0  0  0
   -4.9516    2.5854   -2.1167 H   0  0  0  0  0  0  0  0  0  0  0  0
   -3.4095    2.5745   -0.1349 H   0  0  0  0  0  0  0  0  0  0  0  0
   -4.0761    0.9967    0.3808 H   0  0  0  0  0  0  0  0  0  0  0  0
   -6.2736    0.8731    1.4406 H   0  0  0  0  0  0  0  0  0  0  0  0
   -8.0952    2.0764    2.5914 H   0  0  0  0  0  0  0  0  0  0  0  0
   -8.3145    4.5335    2.3567 H   0  0  0  0  0  0  0  0  0  0  0  0
   -6.6969    5.7960    0.9627 H   0  0  0  0  0  0  0  0  0  0  0  0
   -4.8688    4.6104   -0.1967 H   0  0  0  0  0  0  0  0  0  0  0  0
   -3.8128    0.7991   -3.4050 H   0  0  0  0  0  0  0  0  0  0  0  0
  1  2  2  0
  2  3  1  0
  3  4  1  0
  4  5  1  0
  5  6  2  0
  5  7  1  0
  7  8  1  0
  8  9  1  0
  9 10  1  0
 10 11  1  0
 11 12  1  0
 12 13  1  0
 13 14  1  0
 14 15  1  0
 15 16  1  0
  4 17  1  0
 17 18  1  0
 18 19  2  0
 18 20  1  0
 20 21  2  0
 21 22  1  0
 22 23  2  0
 23 24  1  0
 24 25  2  0
 25 26  1  0
 26 27  1  0
 27 28  1  0
 28 29  1  0
 29 30  1  0
 30 31  2  0
 30 32  1  0
 32 33  1  0
 33 34  1  0
 34 35  2  0
 35 36  1  0
 36 37  2  0
 37 38  1  0
 38 39  2  0
 32 40  1  0
 40  2  1  0
 16 12  1  0
 25 20  1  0
 39 34  1  0
  3 41  1  0
  3 42  1  0
  4 43  1  0
  7 44  1  0
  8 45  1  0
  8 46  1  0
  9 47  1  0
  9 48  1  0
 10 49  1  0
 10 50  1  0
 11 51  1  0
 11 52  1  0
 13 53  1  0
 13 54  1  0
 14 55  1  0
 14 56  1  0
 15 57  1  0
 15 58  1  0
 16 59  1  0
 16 60  1  0
 17 61  1  0
 21 62  1  0
 22 63  1  0
 23 64  1  0
 24 65  1  0
 27 66  1  0
 27 67  1  0
 28 68  1  0
 28 69  1  0
 29 70  1  0
 32 71  1  0
 33 72  1  0
 33 73  1  0
 35 74  1  0
 36 75  1  0
 37 76  1  0
 38 77  1  0
 39 78  1  0
 40 79  1  0
M  END
$$$$
