
     RDKit          3D

 71 72  0  0  0  0  0  0  0  0999 V2000
   -6.4595   -3.6669    0.0568 C   0  0  0  0  0  0  0  0  0  0  0  0
   -5.5933   -2.4064    0.0510 C   0  0  0  0  0  0  0  0  0  0  0  0
   -4.1830   -2.6343    0.6591 C   0  0  0  0  0  0  0  0  0  0  0  0
   -3.3404   -3.5309   -0.2683 C   0  0  0  0  0  0  0  0  0  0  0  0
   -3.4641   -1.2752    0.9234 C   0  0  0  0  0  0  0  0  0  0  0  0
   -2.1092   -1.4989    1.4502 N   0  0  0  0  0  0  0  0  0  0  0  0
   -0.9117   -1.5069    0.6507 C   0  0  0  0  0  0  0  0  0  0  0  0
   -0.0251   -2.3683    0.8970 O   0  0  0  0  0  0  0  0  0  0  0  0
   -0.6423   -0.4820   -0.4251 C   0  0  0  0  0  0  0  0  0  0  0  0
    0.4579    0.5291   -0.0352 C   0  0  0  0  0  0  0  0  0  0  0  0
    1.8284   -0.0975   -0.0890 C   0  0  0  0  0  0  0  0  0  0  0  0
    2.3575   -0.5569    0.9611 O   0  0  0  0  0  0  0  0  0  0  0  0
    2.5128   -0.2047   -1.3458 N   0  0  0  0  0  0  0  0  0  0  0  0
    3.8629   -0.7517   -1.4613 C   0  0  0  0  0  0  0  0  0  0  0  0
    4.8921    0.2597   -0.9416 C   0  0  0  0  0  0  0  0  0  0  0  0
    6.3329   -0.2510   -1.0961 C   0  0  0  0  0  0  0  0  0  0  0  0
    6.5382   -1.5452   -0.4075 N   0  0  0  0  0  0  0  0  0  0  0  0
    7.7402   -2.2095   -0.9375 C   0  0  0  0  0  0  0  0  0  0  0  0
    6.6852   -1.3556    1.0463 C   0  0  0  0  0  0  0  0  0  0  0  0
    0.2025    1.1006    1.2962 N   0  0  0  0  0  0  0  0  0  0  0  0
   -0.0336    2.4950    1.5549 C   0  0  0  0  0  0  0  0  0  0  0  0
   -0.1337    2.8883    2.7472 O   0  0  0  0  0  0  0  0  0  0  0  0
   -0.1076    3.4915    0.4733 C   0  0  0  0  0  0  0  0  0  0  0  0
    1.0040    4.3337    0.3053 C   0  0  0  0  0  0  0  0  0  0  0  0
    1.0541    5.2434   -0.7517 C   0  0  0  0  0  0  0  0  0  0  0  0
   -0.0047    5.3226   -1.6549 C   0  0  0  0  0  0  0  0  0  0  0  0
   -1.1208    4.4992   -1.4972 C   0  0  0  0  0  0  0  0  0  0  0  0
   -1.2040    3.5914   -0.4310 C   0  0  0  0  0  0  0  0  0  0  0  0
   -2.3877    2.8341   -0.3465 O   0  0  0  0  0  0  0  0  0  0  0  0
   -2.9222    2.2233    0.8250 C   0  0  0  0  0  0  0  0  0  0  0  0
   -4.3324    1.7185    0.5339 C   0  0  0  0  0  0  0  0  0  0  0  0
   -4.7981    0.8475    1.6136 N   0  0  0  0  0  0  0  0  0  0  0  0
   -4.2413   -0.4423    1.9297 C   0  0  0  0  0  0  0  0  0  0  0  0
   -4.4545   -0.9233    3.0767 O   0  0  0  0  0  0  0  0  0  0  0  0
   -7.5004   -3.3984   -0.2214 H   0  0  0  0  0  0  0  0  0  0  0  0
   -6.4739   -4.1263    1.0682 H   0  0  0  0  0  0  0  0  0  0  0  0
   -6.0937   -4.4063   -0.6836 H   0  0  0  0  0  0  0  0  0  0  0  0
   -5.5047   -2.0235   -0.9895 H   0  0  0  0  0  0  0  0  0  0  0  0
   -6.1434   -1.6413    0.6375 H   0  0  0  0  0  0  0  0  0  0  0  0
   -4.2936   -3.1660    1.6307 H   0  0  0  0  0  0  0  0  0  0  0  0
   -2.3700   -3.7838    0.2065 H   0  0  0  0  0  0  0  0  0  0  0  0
   -3.8472   -4.4964   -0.4632 H   0  0  0  0  0  0  0  0  0  0  0  0
   -3.1482   -3.0218   -1.2375 H   0  0  0  0  0  0  0  0  0  0  0  0
   -3.4158   -0.7493   -0.0440 H   0  0  0  0  0  0  0  0  0  0  0  0
   -2.0405   -1.9555    2.3888 H   0  0  0  0  0  0  0  0  0  0  0  0
   -1.5521    0.0889   -0.6794 H   0  0  0  0  0  0  0  0  0  0  0  0
   -0.3478   -1.0143   -1.3552 H   0  0  0  0  0  0  0  0  0  0  0  0
    0.4449    1.3309   -0.8020 H   0  0  0  0  0  0  0  0  0  0  0  0
    2.0191    0.0891   -2.2182 H   0  0  0  0  0  0  0  0  0  0  0  0
    3.9282   -1.7055   -0.8947 H   0  0  0  0  0  0  0  0  0  0  0  0
    4.0746   -0.9719   -2.5303 H   0  0  0  0  0  0  0  0  0  0  0  0
    4.6848    0.5079    0.1195 H   0  0  0  0  0  0  0  0  0  0  0  0
    4.7901    1.2034   -1.5209 H   0  0  0  0  0  0  0  0  0  0  0  0
    6.5264   -0.3586   -2.1882 H   0  0  0  0  0  0  0  0  0  0  0  0
    7.0414    0.5210   -0.7187 H   0  0  0  0  0  0  0  0  0  0  0  0
    8.6417   -1.5655   -0.8180 H   0  0  0  0  0  0  0  0  0  0  0  0
    7.5993   -2.4460   -2.0147 H   0  0  0  0  0  0  0  0  0  0  0  0
    7.9125   -3.1765   -0.4138 H   0  0  0  0  0  0  0  0  0  0  0  0
    7.5277   -0.6680    1.2844 H   0  0  0  0  0  0  0  0  0  0  0  0
    5.7477   -0.9532    1.4825 H   0  0  0  0  0  0  0  0  0  0  0  0
    6.8682   -2.3321    1.5452 H   0  0  0  0  0  0  0  0  0  0  0  0
    0.2285    0.4635    2.1231 H   0  0  0  0  0  0  0  0  0  0  0  0
    1.8473    4.2669    0.9833 H   0  0  0  0  0  0  0  0  0  0  0  0
    1.9202    5.8810   -0.8773 H   0  0  0  0  0  0  0  0  0  0  0  0
    0.0381    6.0238   -2.4786 H   0  0  0  0  0  0  0  0  0  0  0  0
   -1.9400    4.5776   -2.2018 H   0  0  0  0  0  0  0  0  0  0  0  0
   -2.9550    2.9598    1.6578 H   0  0  0  0  0  0  0  0  0  0  0  0
   -2.3013    1.3626    1.1204 H   0  0  0  0  0  0  0  0  0  0  0  0
   -4.3739    1.1857   -0.4386 H   0  0  0  0  0  0  0  0  0  0  0  0
   -5.0116    2.5940    0.4496 H   0  0  0  0  0  0  0  0  0  0  0  0
   -5.5273    1.2332    2.2571 H   0  0  0  0  0  0  0  0  0  0  0  0
  1  2  1  0
  2  3  1  0
  3  4  1  0
  3  5  1  0
  5  6  1  0
  6  7  1  0
  7  8  2  0
  7  9  1  0
  9 10  1  0
 10 11  1  0
 11 12  2  0
 11 13  1  0
 13 14  1  0
 14 15  1  0
 15 16  1  0
 16 17  1  0
 17 18  1  0
 17 19  1  0
 10 20  1  0
 20 21  1  0
 21 22  2  0
 21 23  1  0
 23 24  2  0
 24 25  1  0
 25 26  2  0
 26 27  1  0
 27 28  2  0
 28 29  1  0
 29 30  1  0
 30 31  1  0
 31 32  1  0
 32 33  1  0
 33 34  2  0
 33  5  1  0
 28 23  1  0
  1 35  1  0
  1 36  1  0
  1 37  1  0
  2 38  1  0
  2 39  1  0
  3 40  1  0
  4 41  1  0
  4 42  1  0
  4 43  1  0
  5 44  1  0
  6 45  1  0
  9 46  1  0
  9 47  1  0
 10 48  1  0
 13 49  1  0
 14 50  1  0
 14 51  1  0
 15 52  1  0
 15 53  1  0
 16 54  1  0
 16 55  1  0
 18 56  1  0
 18 57  1  0
 18 58  1  0
 19 59  1  0
 19 60  1  0
 19 61  1  0
 20 62  1  0
 24 63  1  0
 25 64  1  0
 26 65  1  0
 27 66  1  0
 30 67  1  0
 30 68  1  0
 31 69  1  0
 31 70  1  0
 32 71  1  0
M  END
$$$$
