
     RDKit          3D

 99104  0  0  0  0  0  0  0  0999 V2000
   -6.0074   -3.6161    1.5640 C   0  0  0  0  0  0  0  0  0  0  0  0
   -4.4988   -3.3871    1.6721 C   0  0  0  0  0  0  0  0  0  0  0  0
   -3.9565   -2.2851    0.7231 C   0  0  2  0  0  0  0  0  0  0  0  0
   -4.3396   -2.6036   -0.7398 C   0  0  0  0  0  0  0  0  0  0  0  0
   -2.4076   -2.0990    0.8669 C   0  0  2  0  0  0  0  0  0  0  0  0
   -1.9639   -2.2722    2.2625 N   0  0  0  0  0  0  0  0  0  0  0  0
   -1.4934   -3.4937    2.8688 C   0  0  0  0  0  0  0  0  0  0  0  0
   -1.7499   -3.6862    4.0865 O   0  0  0  0  0  0  0  0  0  0  0  0
   -0.6660   -4.4962    2.1567 C   0  0  0  0  0  0  0  0  0  0  0  0
   -0.1819   -5.6484    2.7794 C   0  0  0  0  0  0  0  0  0  0  0  0
    0.8292   -6.4381    1.6906 S   0  0  0  0  0  0  0  0  0  0  0  0
    0.5933   -5.3082    0.4703 C   0  0  0  0  0  0  0  0  0  0  0  0
   -0.2238   -4.3188    0.8862 N   0  0  0  0  0  0  0  0  0  0  0  0
    1.3272   -5.2827   -0.8429 C   0  0  1  0  0  0  0  0  0  0  0  0
    1.1298   -6.6037   -1.5966 C   0  0  0  0  0  0  0  0  0  0  0  0
    0.8591   -4.1684   -1.6785 N   0  0  0  0  0  0  0  0  0  0  0  0
    1.4244   -2.8431   -1.7130 C   0  0  0  0  0  0  0  0  0  0  0  0
    1.0365   -2.0554   -2.6114 O   0  0  0  0  0  0  0  0  0  0  0  0
    2.4368   -2.3509   -0.7024 C   0  0  1  0  0  0  0  0  0  0  0  0
    3.1516   -1.1913   -1.2331 N   0  0  0  0  0  0  0  0  0  0  0  0
    2.8920   -0.1612   -0.4968 C   0  0  0  0  0  0  0  0  0  0  0  0
    2.0491   -0.4328    0.5629 O   0  0  0  0  0  0  0  0  0  0  0  0
    1.7521   -1.8157    0.5835 C   0  0  2  0  0  0  0  0  0  0  0  0
    2.3434   -2.4301    1.8529 C   0  0  0  0  0  0  0  0  0  0  0  0
    3.4809    1.2087   -0.7039 C   0  0  2  0  0  0  0  0  0  0  0  0
    4.1137    1.4190   -2.1126 C   0  0  0  0  0  0  0  0  0  0  0  0
    4.8143    2.7891   -2.2015 C   0  0  0  0  0  0  0  0  0  0  0  0
    3.0422    1.3451   -3.2166 C   0  0  0  0  0  0  0  0  0  0  0  0
    4.4598    1.4495    0.3678 N   0  0  0  0  0  0  0  0  0  0  0  0
    4.1013    1.5812    1.7583 C   0  0  0  0  0  0  0  0  0  0  0  0
    4.9250    1.1953    2.6326 O   0  0  0  0  0  0  0  0  0  0  0  0
    2.8046    2.1383    2.1989 C   0  0  0  0  0  0  0  0  0  0  0  0
    2.2308    1.8714    3.4367 C   0  0  0  0  0  0  0  0  0  0  0  0
    0.7538    2.6753    3.5065 S   0  0  0  0  0  0  0  0  0  0  0  0
    0.9033    3.3320    1.9684 C   0  0  0  0  0  0  0  0  0  0  0  0
    2.0728    2.9696    1.4113 N   0  0  0  0  0  0  0  0  0  0  0  0
   -0.0879    4.2485    1.3061 C   0  0  1  0  0  0  0  0  0  0  0  0
    0.2551    4.5300   -0.1714 C   0  0  0  0  0  0  0  0  0  0  0  0
   -0.6663    5.5535   -0.7775 C   0  0  0  0  0  0  0  0  0  0  0  0
   -0.3535    6.9195   -0.6858 C   0  0  0  0  0  0  0  0  0  0  0  0
   -1.2042    7.8756   -1.2461 C   0  0  0  0  0  0  0  0  0  0  0  0
   -2.3768    7.4762   -1.8927 C   0  0  0  0  0  0  0  0  0  0  0  0
   -2.6975    6.1210   -1.9840 C   0  0  0  0  0  0  0  0  0  0  0  0
   -1.8458    5.1610   -1.4301 C   0  0  0  0  0  0  0  0  0  0  0  0
   -1.4630    3.7472    1.4550 N   0  0  0  0  0  0  0  0  0  0  0  0
   -2.0085    2.4862    1.0139 C   0  0  0  0  0  0  0  0  0  0  0  0
   -3.2355    2.2692    1.2214 O   0  0  0  0  0  0  0  0  0  0  0  0
   -1.1899    1.3830    0.3697 C   0  0  1  0  0  0  0  0  0  0  0  0
   -1.3995    0.1505    1.1242 N   0  0  0  0  0  0  0  0  0  0  0  0
   -1.9849   -0.7279    0.3765 C   0  0  0  0  0  0  0  0  0  0  0  0
   -2.1959   -0.2829   -0.9124 O   0  0  0  0  0  0  0  0  0  0  0  0
   -1.7065    1.0365   -1.0557 C   0  0  2  0  0  0  0  0  0  0  0  0
   -0.6077    1.0587   -2.1234 C   0  0  0  0  0  0  0  0  0  0  0  0
   -6.2690   -4.1220    0.6085 H   0  0  0  0  0  0  0  0  0  0  0  0
   -6.5532   -2.6526    1.6352 H   0  0  0  0  0  0  0  0  0  0  0  0
   -6.3378   -4.2730    2.3930 H   0  0  0  0  0  0  0  0  0  0  0  0
   -3.9760   -4.3471    1.4827 H   0  0  0  0  0  0  0  0  0  0  0  0
   -4.3024   -3.0888    2.7227 H   0  0  0  0  0  0  0  0  0  0  0  0
   -4.4546   -1.3289    1.0028 H   0  0  0  0  0  0  0  0  0  0  0  0
   -5.4420   -2.5901   -0.8718 H   0  0  0  0  0  0  0  0  0  0  0  0
   -3.9401   -1.8469   -1.4400 H   0  0  0  0  0  0  0  0  0  0  0  0
   -3.9468   -3.5995   -1.0344 H   0  0  0  0  0  0  0  0  0  0  0  0
   -1.9142   -2.8344    0.2157 H   0  0  0  0  0  0  0  0  0  0  0  0
   -2.2771   -1.5339    2.9357 H   0  0  0  0  0  0  0  0  0  0  0  0
   -0.3672   -5.9578    3.8000 H   0  0  0  0  0  0  0  0  0  0  0  0
    2.4109   -5.1815   -0.6400 H   0  0  0  0  0  0  0  0  0  0  0  0
    1.6358   -6.5535   -2.5859 H   0  0  0  0  0  0  0  0  0  0  0  0
    1.5721   -7.4476   -1.0235 H   0  0  0  0  0  0  0  0  0  0  0  0
    0.0455   -6.8021   -1.7587 H   0  0  0  0  0  0  0  0  0  0  0  0
    0.0156   -4.3353   -2.2731 H   0  0  0  0  0  0  0  0  0  0  0  0
    3.1843   -3.1409   -0.4794 H   0  0  0  0  0  0  0  0  0  0  0  0
    0.6533   -1.9406    0.5727 H   0  0  0  0  0  0  0  0  0  0  0  0
    3.4287   -2.1996    1.9300 H   0  0  0  0  0  0  0  0  0  0  0  0
    2.2237   -3.5341    1.8425 H   0  0  0  0  0  0  0  0  0  0  0  0
    1.8249   -2.0275    2.7495 H   0  0  0  0  0  0  0  0  0  0  0  0
    2.6548    1.9366   -0.6318 H   0  0  0  0  0  0  0  0  0  0  0  0
    4.8767    0.6291   -2.2964 H   0  0  0  0  0  0  0  0  0  0  0  0
    5.6725    2.8418   -1.4980 H   0  0  0  0  0  0  0  0  0  0  0  0
    4.0973    3.6118   -1.9610 H   0  0  0  0  0  0  0  0  0  0  0  0
    5.2168    2.9504   -3.2275 H   0  0  0  0  0  0  0  0  0  0  0  0
    2.5250    0.3657   -3.2178 H   0  0  0  0  0  0  0  0  0  0  0  0
    3.5085    1.4860   -4.2152 H   0  0  0  0  0  0  0  0  0  0  0  0
    2.2830    2.1439   -3.0631 H   0  0  0  0  0  0  0  0  0  0  0  0
    5.4604    1.2055    0.1685 H   0  0  0  0  0  0  0  0  0  0  0  0
    2.6412    1.2442    4.2158 H   0  0  0  0  0  0  0  0  0  0  0  0
   -0.0099    5.2193    1.8502 H   0  0  0  0  0  0  0  0  0  0  0  0
    0.2353    3.5990   -0.7644 H   0  0  0  0  0  0  0  0  0  0  0  0
    1.2965    4.9105   -0.2408 H   0  0  0  0  0  0  0  0  0  0  0  0
    0.5541    7.2421   -0.1917 H   0  0  0  0  0  0  0  0  0  0  0  0
   -0.9580    8.9259   -1.1730 H   0  0  0  0  0  0  0  0  0  0  0  0
   -3.0364    8.2195   -2.3202 H   0  0  0  0  0  0  0  0  0  0  0  0
   -3.6034    5.8101   -2.4879 H   0  0  0  0  0  0  0  0  0  0  0  0
   -2.1051    4.1166   -1.5197 H   0  0  0  0  0  0  0  0  0  0  0  0
   -2.1270    4.3823    1.9555 H   0  0  0  0  0  0  0  0  0  0  0  0
   -0.1094    1.6187    0.3597 H   0  0  0  0  0  0  0  0  0  0  0  0
   -2.5374    1.6976   -1.3761 H   0  0  0  0  0  0  0  0  0  0  0  0
    0.2820    0.4901   -1.7827 H   0  0  0  0  0  0  0  0  0  0  0  0
   -0.3135    2.0982   -2.3524 H   0  0  0  0  0  0  0  0  0  0  0  0
   -0.9888    0.6008   -3.0598 H   0  0  0  0  0  0  0  0  0  0  0  0
  1  2  1  0
  2  3  1  0
  3  4  1  0
  3  5  1  0
  5  6  1  0
  6  7  1  0
  7  8  2  0
  7  9  1  0
  9 10  2  0
 10 11  1  0
 11 12  1  0
 12 13  2  0
 12 14  1  0
 14 15  1  0
 14 16  1  0
 16 17  1  0
 17 18  2  0
 17 19  1  0
 19 20  1  0
 20 21  2  0
 21 22  1  0
 22 23  1  0
 23 24  1  0
 21 25  1  0
 25 26  1  0
 26 27  1  0
 26 28  1  0
 25 29  1  0
 29 30  1  0
 30 31  2  0
 30 32  1  0
 32 33  2  0
 33 34  1  0
 34 35  1  0
 35 36  2  0
 35 37  1  0
 37 38  1  0
 38 39  1  0
 39 40  2  0
 40 41  1  0
 41 42  2  0
 42 43  1  0
 43 44  2  0
 37 45  1  0
 45 46  1  0
 46 47  2  0
 46 48  1  0
 48 49  1  0
 49 50  2  0
 50 51  1  0
 51 52  1  0
 52 53  1  0
 50  5  1  0
 13  9  1  0
 23 19  1  0
 36 32  1  0
 44 39  1  0
 52 48  1  0
  1 54  1  0
  1 55  1  0
  1 56  1  0
  2 57  1  0
  2 58  1  0
  3 59  1  1
  4 60  1  0
  4 61  1  0
  4 62  1  0
  5 63  1  6
  6 64  1  0
 10 65  1  0
 14 66  1  1
 15 67  1  0
 15 68  1  0
 15 69  1  0
 16 70  1  0
 19 71  1  1
 23 72  1  6
 24 73  1  0
 24 74  1  0
 24 75  1  0
 25 76  1  1
 26 77  1  0
 27 78  1  0
 27 79  1  0
 27 80  1  0
 28 81  1  0
 28 82  1  0
 28 83  1  0
 29 84  1  0
 33 85  1  0
 37 86  1  1
 38 87  1  0
 38 88  1  0
 40 89  1  0
 41 90  1  0
 42 91  1  0
 43 92  1  0
 44 93  1  0
 45 94  1  0
 48 95  1  6
 52 96  1  6
 53 97  1  0
 53 98  1  0
 53 99  1  0
M  END
$$$$
