
     RDKit          3D

104107  0  0  0  0  0  0  0  0999 V2000
    0.9198   -6.9425   -2.1456 C   0  0  0  0  0  0  0  0  0  0  0  0
    0.1738   -5.7669   -1.8478 O   0  0  0  0  0  0  0  0  0  0  0  0
    0.7080   -4.6250   -1.2335 C   0  0  0  0  0  0  0  0  0  0  0  0
    2.0643   -4.5265   -0.8795 C   0  0  0  0  0  0  0  0  0  0  0  0
    2.5458   -3.3650   -0.2776 C   0  0  0  0  0  0  0  0  0  0  0  0
    1.6836   -2.2990   -0.0106 C   0  0  0  0  0  0  0  0  0  0  0  0
    0.3152   -2.3779   -0.3355 C   0  0  0  0  0  0  0  0  0  0  0  0
   -0.6732   -1.2345   -0.0829 C   0  0  0  0  0  0  0  0  0  0  0  0
   -1.9001   -1.6307    0.8523 C   0  0  0  0  0  0  0  0  0  0  0  0
   -1.6381   -1.8911    2.3849 C   0  0  0  0  0  0  0  0  0  0  0  0
   -0.4497   -2.8401    2.6373 C   0  0  0  0  0  0  0  0  0  0  0  0
   -2.8747   -2.5022    3.0850 C   0  0  0  0  0  0  0  0  0  0  0  0
   -3.1354   -0.7022    0.6363 C   0  0  0  0  0  0  0  0  0  0  0  0
   -3.5727   -0.5884   -0.7708 N   0  0  0  0  0  0  0  0  0  0  0  0
   -4.3032   -1.6526   -1.4344 C   0  0  0  0  0  0  0  0  0  0  0  0
   -4.7596   -2.8939   -0.7205 C   0  0  0  0  0  0  0  0  0  0  0  0
   -4.5569   -1.5578   -2.6669 O   0  0  0  0  0  0  0  0  0  0  0  0
   -3.3161    0.6648   -1.5106 C   0  0  0  0  0  0  0  0  0  0  0  0
   -4.5642    1.5867   -1.5864 C   0  0  0  0  0  0  0  0  0  0  0  0
   -4.5370    2.2668   -2.8335 O   0  0  0  0  0  0  0  0  0  0  0  0
   -5.8244    2.3217   -3.4090 C   0  0  0  0  0  0  0  0  0  0  0  0
   -4.6583    2.6295   -0.4264 C   0  0  0  0  0  0  0  0  0  0  0  0
   -4.6051    1.9767    0.8143 O   0  0  0  0  0  0  0  0  0  0  0  0
   -3.5844    3.7638   -0.4991 C   0  0  0  0  0  0  0  0  0  0  0  0
   -3.8372    4.6093   -1.5955 O   0  0  0  0  0  0  0  0  0  0  0  0
   -3.5053    4.6133    0.7959 C   0  0  0  0  0  0  0  0  0  0  0  0
   -3.0683    3.8657    1.9200 O   0  0  0  0  0  0  0  0  0  0  0  0
   -1.6570    3.7137    1.9638 C   0  0  0  0  0  0  0  0  0  0  0  0
   -1.3118    2.2352    1.7817 C   0  0  0  0  0  0  0  0  0  0  0  0
    0.1776    1.9361    1.9151 C   0  0  0  0  0  0  0  0  0  0  0  0
    0.5780    0.5277    1.4078 C   0  0  0  0  0  0  0  0  0  0  0  0
   -0.0089    0.1087    0.1015 N   0  0  0  0  0  0  0  0  0  0  0  0
    0.3736    0.8125   -1.1279 C   0  0  0  0  0  0  0  0  0  0  0  0
   -0.1604    0.4923   -2.2241 O   0  0  0  0  0  0  0  0  0  0  0  0
    1.3993    1.9198   -1.1962 C   0  0  0  0  0  0  0  0  0  0  0  0
    2.6896    1.5068   -0.6111 N   0  0  0  0  0  0  0  0  0  0  0  0
    3.4172    0.5917   -1.5163 C   0  0  0  0  0  0  0  0  0  0  0  0
    4.6750    0.0582   -0.8237 C   0  0  0  0  0  0  0  0  0  0  0  0
    5.5817    1.2226   -0.3920 C   0  0  0  0  0  0  0  0  0  0  0  0
    6.8013    0.7131    0.3541 C   0  0  0  0  0  0  0  0  0  0  0  0
    6.6862    0.0842    1.6094 C   0  0  0  0  0  0  0  0  0  0  0  0
    7.8345   -0.3652    2.2652 C   0  0  0  0  0  0  0  0  0  0  0  0
    9.0545   -0.2098    1.6890 N   0  0  0  0  0  0  0  0  0  0  0  0
    9.1978    0.3726    0.4690 C   0  0  0  0  0  0  0  0  0  0  0  0
    8.0772    0.8433   -0.2195 C   0  0  0  0  0  0  0  0  0  0  0  0
    4.7935    2.2497    0.4399 C   0  0  0  0  0  0  0  0  0  0  0  0
    3.5220    2.6827   -0.2991 C   0  0  0  0  0  0  0  0  0  0  0  0
   -0.1494   -3.5507   -0.9691 C   0  0  0  0  0  0  0  0  0  0  0  0
    0.2486   -7.6832   -2.6249 H   0  0  0  0  0  0  0  0  0  0  0  0
    1.7439   -6.7006   -2.8489 H   0  0  0  0  0  0  0  0  0  0  0  0
    1.3277   -7.3818   -1.2104 H   0  0  0  0  0  0  0  0  0  0  0  0
    2.7530   -5.3395   -1.0655 H   0  0  0  0  0  0  0  0  0  0  0  0
    3.5941   -3.2887   -0.0161 H   0  0  0  0  0  0  0  0  0  0  0  0
    2.1010   -1.4305    0.4577 H   0  0  0  0  0  0  0  0  0  0  0  0
   -1.1837   -1.1930   -1.0648 H   0  0  0  0  0  0  0  0  0  0  0  0
   -2.2352   -2.6165    0.4808 H   0  0  0  0  0  0  0  0  0  0  0  0
   -1.4602   -0.9299    2.9058 H   0  0  0  0  0  0  0  0  0  0  0  0
   -0.5847   -3.7912    2.0815 H   0  0  0  0  0  0  0  0  0  0  0  0
   -0.3513   -3.0728    3.7188 H   0  0  0  0  0  0  0  0  0  0  0  0
    0.5091   -2.3844    2.3453 H   0  0  0  0  0  0  0  0  0  0  0  0
   -3.6594   -1.7363    3.2509 H   0  0  0  0  0  0  0  0  0  0  0  0
   -3.2955   -3.3443    2.4930 H   0  0  0  0  0  0  0  0  0  0  0  0
   -2.6158   -2.8821    4.0963 H   0  0  0  0  0  0  0  0  0  0  0  0
   -2.8956    0.2773    1.0480 H   0  0  0  0  0  0  0  0  0  0  0  0
   -4.0058   -1.0318    1.2271 H   0  0  0  0  0  0  0  0  0  0  0  0
   -5.1744   -2.6561    0.2810 H   0  0  0  0  0  0  0  0  0  0  0  0
   -3.9206   -3.6149   -0.6336 H   0  0  0  0  0  0  0  0  0  0  0  0
   -5.5689   -3.3846   -1.3025 H   0  0  0  0  0  0  0  0  0  0  0  0
   -2.4561    1.1925   -1.0796 H   0  0  0  0  0  0  0  0  0  0  0  0
   -2.9828    0.4074   -2.5407 H   0  0  0  0  0  0  0  0  0  0  0  0
   -5.4534    0.9165   -1.4943 H   0  0  0  0  0  0  0  0  0  0  0  0
   -6.1689    1.3048   -3.7008 H   0  0  0  0  0  0  0  0  0  0  0  0
   -5.7754    2.9394   -4.3275 H   0  0  0  0  0  0  0  0  0  0  0  0
   -6.5599    2.7971   -2.7232 H   0  0  0  0  0  0  0  0  0  0  0  0
   -5.6533    3.1266   -0.5049 H   0  0  0  0  0  0  0  0  0  0  0  0
   -5.4519    1.4695    0.9137 H   0  0  0  0  0  0  0  0  0  0  0  0
   -2.5828    3.3332   -0.6717 H   0  0  0  0  0  0  0  0  0  0  0  0
   -4.7177    5.0433   -1.4467 H   0  0  0  0  0  0  0  0  0  0  0  0
   -2.8735    5.5167    0.6333 H   0  0  0  0  0  0  0  0  0  0  0  0
   -4.5232    4.9982    1.0234 H   0  0  0  0  0  0  0  0  0  0  0  0
   -1.1071    4.3197    1.2055 H   0  0  0  0  0  0  0  0  0  0  0  0
   -1.3096    4.0424    2.9675 H   0  0  0  0  0  0  0  0  0  0  0  0
   -1.6171    1.9653    0.7664 H   0  0  0  0  0  0  0  0  0  0  0  0
   -1.8724    1.6337    2.5298 H   0  0  0  0  0  0  0  0  0  0  0  0
    0.7743    2.7158    1.4097 H   0  0  0  0  0  0  0  0  0  0  0  0
    0.4555    2.0104    2.9896 H   0  0  0  0  0  0  0  0  0  0  0  0
    0.3613   -0.1966    2.1925 H   0  0  0  0  0  0  0  0  0  0  0  0
    1.6809    0.5100    1.3564 H   0  0  0  0  0  0  0  0  0  0  0  0
    1.5468    2.2282   -2.2579 H   0  0  0  0  0  0  0  0  0  0  0  0
    0.9813    2.8175   -0.7032 H   0  0  0  0  0  0  0  0  0  0  0  0
    2.7815   -0.2782   -1.7854 H   0  0  0  0  0  0  0  0  0  0  0  0
    3.6991    1.1104   -2.4615 H   0  0  0  0  0  0  0  0  0  0  0  0
    5.2250   -0.6081   -1.5247 H   0  0  0  0  0  0  0  0  0  0  0  0
    4.3738   -0.5427    0.0606 H   0  0  0  0  0  0  0  0  0  0  0  0
    5.9160    1.7425   -1.3173 H   0  0  0  0  0  0  0  0  0  0  0  0
    5.7214   -0.0600    2.0779 H   0  0  0  0  0  0  0  0  0  0  0  0
    7.7548   -0.8439    3.2331 H   0  0  0  0  0  0  0  0  0  0  0  0
   10.1845    0.4789    0.0370 H   0  0  0  0  0  0  0  0  0  0  0  0
    8.2078    1.3069   -1.1895 H   0  0  0  0  0  0  0  0  0  0  0  0
    4.4991    1.8176    1.4195 H   0  0  0  0  0  0  0  0  0  0  0  0
    5.4280    3.1407    0.6289 H   0  0  0  0  0  0  0  0  0  0  0  0
    2.9662    3.3758    0.3686 H   0  0  0  0  0  0  0  0  0  0  0  0
    3.7887    3.2394   -1.2278 H   0  0  0  0  0  0  0  0  0  0  0  0
   -1.1855   -3.6331   -1.2752 H   0  0  0  0  0  0  0  0  0  0  0  0
  1  2  1  0
  2  3  1  0
  3  4  2  0
  4  5  1  0
  5  6  2  0
  6  7  1  0
  7  8  1  0
  8  9  1  0
  9 10  1  0
 10 11  1  0
 10 12  1  0
  9 13  1  0
 13 14  1  0
 14 15  1  0
 15 16  1  0
 15 17  2  0
 14 18  1  0
 18 19  1  0
 19 20  1  0
 20 21  1  0
 19 22  1  0
 22 23  1  0
 22 24  1  0
 24 25  1  0
 24 26  1  0
 26 27  1  0
 27 28  1  0
 28 29  1  0
 29 30  1  0
 30 31  1  0
 31 32  1  0
 32 33  1  0
 33 34  2  0
 33 35  1  0
 35 36  1  0
 36 37  1  0
 37 38  1  0
 38 39  1  0
 39 40  1  0
 40 41  2  0
 41 42  1  0
 42 43  2  0
 43 44  1  0
 44 45  2  0
 39 46  1  0
 46 47  1  0
  7 48  2  0
 48  3  1  0
 32  8  1  0
 47 36  1  0
 45 40  1  0
  1 49  1  0
  1 50  1  0
  1 51  1  0
  4 52  1  0
  5 53  1  0
  6 54  1  0
  8 55  1  0
  9 56  1  0
 10 57  1  0
 11 58  1  0
 11 59  1  0
 11 60  1  0
 12 61  1  0
 12 62  1  0
 12 63  1  0
 13 64  1  0
 13 65  1  0
 16 66  1  0
 16 67  1  0
 16 68  1  0
 18 69  1  0
 18 70  1  0
 19 71  1  0
 21 72  1  0
 21 73  1  0
 21 74  1  0
 22 75  1  0
 23 76  1  0
 24 77  1  0
 25 78  1  0
 26 79  1  0
 26 80  1  0
 28 81  1  0
 28 82  1  0
 29 83  1  0
 29 84  1  0
 30 85  1  0
 30 86  1  0
 31 87  1  0
 31 88  1  0
 35 89  1  0
 35 90  1  0
 37 91  1  0
 37 92  1  0
 38 93  1  0
 38 94  1  0
 39 95  1  0
 41 96  1  0
 42 97  1  0
 44 98  1  0
 45 99  1  0
 46100  1  0
 46101  1  0
 47102  1  0
 47103  1  0
 48104  1  0
M  END
$$$$
