
     RDKit          3D

 77 80  0  0  0  0  0  0  0  0999 V2000
    9.6572   -0.0061    0.8346 C   0  0  0  0  0  0  0  0  0  0  0  0
    8.6169   -0.5325   -0.0955 C   0  0  0  0  0  0  0  0  0  0  0  0
    8.9228   -1.3945   -0.9613 O   0  0  0  0  0  0  0  0  0  0  0  0
    7.2731   -0.0696    0.0010 N   0  0  0  0  0  0  0  0  0  0  0  0
    6.5118    0.9196    0.7842 C   0  0  0  0  0  0  0  0  0  0  0  0
    5.1760    0.6196    0.1608 C   0  0  0  0  0  0  0  0  0  0  0  0
    4.1337   -0.0173    1.0596 C   0  0  0  0  0  0  0  0  0  0  0  0
    4.4369   -0.3398    2.2411 O   0  0  0  0  0  0  0  0  0  0  0  0
    2.8019   -0.2873    0.5717 N   0  0  0  0  0  0  0  0  0  0  0  0
    1.7445   -0.7218    1.4965 C   0  0  0  0  0  0  0  0  0  0  0  0
    0.4224   -0.0551    1.1035 C   0  0  0  0  0  0  0  0  0  0  0  0
   -0.0454   -0.3908   -0.3561 C   0  0  0  0  0  0  0  0  0  0  0  0
   -1.1386   -1.5177   -0.2720 C   0  0  0  0  0  0  0  0  0  0  0  0
   -1.3852   -2.3289   -1.5629 C   0  0  0  0  0  0  0  0  0  0  0  0
   -2.6317   -3.2279   -1.4718 C   0  0  0  0  0  0  0  0  0  0  0  0
   -3.9701   -2.5311   -1.8073 C   0  0  0  0  0  0  0  0  0  0  0  0
   -4.5701   -1.7265   -0.6702 C   0  0  0  0  0  0  0  0  0  0  0  0
   -4.9119   -2.4029    0.5189 C   0  0  0  0  0  0  0  0  0  0  0  0
   -5.6642   -1.7707    1.5130 C   0  0  0  0  0  0  0  0  0  0  0  0
   -6.1249   -0.4691    1.3218 C   0  0  0  0  0  0  0  0  0  0  0  0
   -5.8070    0.2144    0.1480 C   0  0  0  0  0  0  0  0  0  0  0  0
   -5.0079   -0.3838   -0.8368 C   0  0  0  0  0  0  0  0  0  0  0  0
   -4.7344    0.3696   -1.9832 O   0  0  0  0  0  0  0  0  0  0  0  0
   -3.4266    0.7787   -2.3792 C   0  0  0  0  0  0  0  0  0  0  0  0
   -2.8506    1.8875   -1.4770 C   0  0  0  0  0  0  0  0  0  0  0  0
   -1.8967    1.4088   -0.4338 N   0  0  0  0  0  0  0  0  0  0  0  0
   -1.6470    2.5301    0.5307 C   0  0  0  0  0  0  0  0  0  0  0  0
   -2.0902    2.1977    1.9781 C   0  0  0  0  0  0  0  0  0  0  0  0
   -3.4447    1.4886    2.0307 C   0  0  0  0  0  0  0  0  0  0  0  0
   -2.1283    3.4704    2.8331 C   0  0  0  0  0  0  0  0  0  0  0  0
   -0.6248    0.8993   -1.0484 C   0  0  0  0  0  0  0  0  0  0  0  0
    1.1788   -0.8986   -1.1960 C   0  0  0  0  0  0  0  0  0  0  0  0
    2.4880   -0.1706   -0.8609 C   0  0  0  0  0  0  0  0  0  0  0  0
    5.9740   -0.3800   -0.6214 C   0  0  0  0  0  0  0  0  0  0  0  0
   10.6515   -0.4293    0.5869 H   0  0  0  0  0  0  0  0  0  0  0  0
    9.3941   -0.2841    1.8767 H   0  0  0  0  0  0  0  0  0  0  0  0
    9.7085    1.0990    0.7526 H   0  0  0  0  0  0  0  0  0  0  0  0
    6.8588    1.9519    0.5504 H   0  0  0  0  0  0  0  0  0  0  0  0
    6.5952    0.7036    1.8710 H   0  0  0  0  0  0  0  0  0  0  0  0
    4.7926    1.4594   -0.4584 H   0  0  0  0  0  0  0  0  0  0  0  0
    1.6454   -1.8278    1.4594 H   0  0  0  0  0  0  0  0  0  0  0  0
    1.9816   -0.4295    2.5433 H   0  0  0  0  0  0  0  0  0  0  0  0
   -0.3463   -0.3527    1.8479 H   0  0  0  0  0  0  0  0  0  0  0  0
    0.5982    1.0324    1.2151 H   0  0  0  0  0  0  0  0  0  0  0  0
   -0.8385   -2.2565    0.5043 H   0  0  0  0  0  0  0  0  0  0  0  0
   -2.0901   -1.0818    0.0900 H   0  0  0  0  0  0  0  0  0  0  0  0
   -0.5189   -3.0075   -1.7175 H   0  0  0  0  0  0  0  0  0  0  0  0
   -1.4174   -1.6948   -2.4654 H   0  0  0  0  0  0  0  0  0  0  0  0
   -2.6671   -3.7284   -0.4818 H   0  0  0  0  0  0  0  0  0  0  0  0
   -2.5020   -4.0389   -2.2206 H   0  0  0  0  0  0  0  0  0  0  0  0
   -4.7079   -3.3276   -2.0515 H   0  0  0  0  0  0  0  0  0  0  0  0
   -3.8752   -1.9452   -2.7390 H   0  0  0  0  0  0  0  0  0  0  0  0
   -4.6375   -3.4401    0.6620 H   0  0  0  0  0  0  0  0  0  0  0  0
   -5.9201   -2.3071    2.4184 H   0  0  0  0  0  0  0  0  0  0  0  0
   -6.7302    0.0112    2.0831 H   0  0  0  0  0  0  0  0  0  0  0  0
   -6.1649    1.2280    0.0108 H   0  0  0  0  0  0  0  0  0  0  0  0
   -2.7669   -0.0797   -2.4482 H   0  0  0  0  0  0  0  0  0  0  0  0
   -3.5107    1.1838   -3.4086 H   0  0  0  0  0  0  0  0  0  0  0  0
   -3.7179    2.3988   -1.0026 H   0  0  0  0  0  0  0  0  0  0  0  0
   -2.3434    2.6435   -2.1210 H   0  0  0  0  0  0  0  0  0  0  0  0
   -2.1697    3.4660    0.2206 H   0  0  0  0  0  0  0  0  0  0  0  0
   -0.5803    2.8386    0.5665 H   0  0  0  0  0  0  0  0  0  0  0  0
   -1.3439    1.5309    2.4508 H   0  0  0  0  0  0  0  0  0  0  0  0
   -4.2292    2.0985    1.5232 H   0  0  0  0  0  0  0  0  0  0  0  0
   -3.3615    0.4992    1.5359 H   0  0  0  0  0  0  0  0  0  0  0  0
   -3.7503    1.3143    3.0827 H   0  0  0  0  0  0  0  0  0  0  0  0
   -2.3763    3.2169    3.8863 H   0  0  0  0  0  0  0  0  0  0  0  0
   -2.8915    4.1808    2.4492 H   0  0  0  0  0  0  0  0  0  0  0  0
   -1.1336    3.9682    2.8199 H   0  0  0  0  0  0  0  0  0  0  0  0
   -0.7702    0.6652   -2.1214 H   0  0  0  0  0  0  0  0  0  0  0  0
    0.1541    1.6921   -1.0900 H   0  0  0  0  0  0  0  0  0  0  0  0
    1.3613   -1.9738   -0.9884 H   0  0  0  0  0  0  0  0  0  0  0  0
    0.9867   -0.8141   -2.2858 H   0  0  0  0  0  0  0  0  0  0  0  0
    3.2939   -0.6395   -1.4631 H   0  0  0  0  0  0  0  0  0  0  0  0
    2.4140    0.9001   -1.1386 H   0  0  0  0  0  0  0  0  0  0  0  0
    5.9948   -0.1453   -1.7088 H   0  0  0  0  0  0  0  0  0  0  0  0
    5.6931   -1.4401   -0.4277 H   0  0  0  0  0  0  0  0  0  0  0  0
  1  2  1  0
  2  3  2  0
  2  4  1  0
  4  5  1  0
  5  6  1  0
  6  7  1  0
  7  8  2  0
  7  9  1  0
  9 10  1  0
 10 11  1  0
 11 12  1  0
 12 13  1  0
 13 14  1  0
 14 15  1  0
 15 16  1  0
 16 17  1  0
 17 18  2  0
 18 19  1  0
 19 20  2  0
 20 21  1  0
 21 22  2  0
 22 23  1  0
 23 24  1  0
 24 25  1  0
 25 26  1  0
 26 27  1  0
 27 28  1  0
 28 29  1  0
 28 30  1  0
 26 31  1  0
 12 32  1  0
 32 33  1  0
  6 34  1  0
 34  4  1  0
 33  9  1  0
 31 12  1  0
 22 17  1  0
  1 35  1  0
  1 36  1  0
  1 37  1  0
  5 38  1  0
  5 39  1  0
  6 40  1  0
 10 41  1  0
 10 42  1  0
 11 43  1  0
 11 44  1  0
 13 45  1  0
 13 46  1  0
 14 47  1  0
 14 48  1  0
 15 49  1  0
 15 50  1  0
 16 51  1  0
 16 52  1  0
 18 53  1  0
 19 54  1  0
 20 55  1  0
 21 56  1  0
 24 57  1  0
 24 58  1  0
 25 59  1  0
 25 60  1  0
 27 61  1  0
 27 62  1  0
 28 63  1  0
 29 64  1  0
 29 65  1  0
 29 66  1  0
 30 67  1  0
 30 68  1  0
 30 69  1  0
 31 70  1  0
 31 71  1  0
 32 72  1  0
 32 73  1  0
 33 74  1  0
 33 75  1  0
 34 76  1  0
 34 77  1  0
M  END
$$$$
