
     RDKit          3D

 70 72  0  0  0  0  0  0  0  0999 V2000
    1.9577   -4.5168    0.4511 C   0  0  0  0  0  0  0  0  0  0  0  0
    1.0609   -3.3932    0.8668 C   0  0  0  0  0  0  0  0  0  0  0  0
    0.8846   -3.1885    2.0969 O   0  0  0  0  0  0  0  0  0  0  0  0
    0.4723   -2.4958   -0.0940 N   0  0  0  0  0  0  0  0  0  0  0  0
   -0.0936   -2.9864   -1.3632 C   0  0  0  0  0  0  0  0  0  0  0  0
   -0.9864   -4.2333   -1.2034 C   0  0  0  0  0  0  0  0  0  0  0  0
   -2.0974   -4.0737   -0.1574 C   0  0  0  0  0  0  0  0  0  0  0  0
   -3.2257   -3.1436   -0.6293 C   0  0  0  0  0  0  0  0  0  0  0  0
   -4.2393   -2.8373    0.4844 C   0  0  0  0  0  0  0  0  0  0  0  0
   -3.6866   -1.9920    1.6497 C   0  0  0  0  0  0  0  0  0  0  0  0
   -3.3821   -0.5345    1.2708 C   0  0  0  0  0  0  0  0  0  0  0  0
   -2.1152   -0.3943    0.5076 N   0  0  0  0  0  0  0  0  0  0  0  0
   -2.1958    0.7207   -0.4737 C   0  0  0  0  0  0  0  0  0  0  0  0
   -2.4573    2.1067    0.1675 C   0  0  0  0  0  0  0  0  0  0  0  0
   -2.5642    3.2340   -0.8858 C   0  0  0  0  0  0  0  0  0  0  0  0
   -3.2171    4.4780   -0.2656 C   0  0  0  0  0  0  0  0  0  0  0  0
   -1.1900    3.6047   -1.4655 C   0  0  0  0  0  0  0  0  0  0  0  0
   -0.9369   -0.3219    1.4112 C   0  0  0  0  0  0  0  0  0  0  0  0
    0.3780   -0.1238    0.6733 C   0  0  0  0  0  0  0  0  0  0  0  0
    0.9985    1.1415    0.7178 C   0  0  0  0  0  0  0  0  0  0  0  0
    2.1857    1.3955    0.0117 C   0  0  0  0  0  0  0  0  0  0  0  0
    2.8172    2.7307    0.0765 C   0  0  0  0  0  0  0  0  0  0  0  0
    2.0950    3.7593    0.1631 O   0  0  0  0  0  0  0  0  0  0  0  0
    4.2403    2.8785    0.0800 N   0  0  0  0  0  0  0  0  0  0  0  0
    5.4375    2.0437    0.2940 C   0  0  0  0  0  0  0  0  0  0  0  0
    6.4104    3.1775    0.3498 C   0  0  0  0  0  0  0  0  0  0  0  0
    7.2741    3.2008   -0.7529 O   0  0  0  0  0  0  0  0  0  0  0  0
    5.1901    4.0065    0.1253 C   0  0  0  0  0  0  0  0  0  0  0  0
    2.7466    0.3767   -0.7659 C   0  0  0  0  0  0  0  0  0  0  0  0
    2.1596   -0.8860   -0.8017 C   0  0  0  0  0  0  0  0  0  0  0  0
    0.9869   -1.1555   -0.0816 C   0  0  0  0  0  0  0  0  0  0  0  0
    2.9611   -4.3699    0.9051 H   0  0  0  0  0  0  0  0  0  0  0  0
    2.0772   -4.5545   -0.6526 H   0  0  0  0  0  0  0  0  0  0  0  0
    1.5368   -5.4811    0.8093 H   0  0  0  0  0  0  0  0  0  0  0  0
    0.7302   -3.2292   -2.0661 H   0  0  0  0  0  0  0  0  0  0  0  0
   -0.6840   -2.1776   -1.8444 H   0  0  0  0  0  0  0  0  0  0  0  0
   -0.3581   -5.1032   -0.9211 H   0  0  0  0  0  0  0  0  0  0  0  0
   -1.4351   -4.4801   -2.1900 H   0  0  0  0  0  0  0  0  0  0  0  0
   -1.6525   -3.7212    0.7906 H   0  0  0  0  0  0  0  0  0  0  0  0
   -2.5331   -5.0767    0.0472 H   0  0  0  0  0  0  0  0  0  0  0  0
   -2.8318   -2.2004   -1.0488 H   0  0  0  0  0  0  0  0  0  0  0  0
   -3.7652   -3.6508   -1.4585 H   0  0  0  0  0  0  0  0  0  0  0  0
   -4.6261   -3.7955    0.8908 H   0  0  0  0  0  0  0  0  0  0  0  0
   -5.1079   -2.3103    0.0360 H   0  0  0  0  0  0  0  0  0  0  0  0
   -4.4792   -1.9656    2.4295 H   0  0  0  0  0  0  0  0  0  0  0  0
   -2.8144   -2.4702    2.1345 H   0  0  0  0  0  0  0  0  0  0  0  0
   -4.2497   -0.1582    0.6821 H   0  0  0  0  0  0  0  0  0  0  0  0
   -3.3508    0.0766    2.2015 H   0  0  0  0  0  0  0  0  0  0  0  0
   -1.2750    0.7442   -1.0894 H   0  0  0  0  0  0  0  0  0  0  0  0
   -3.0130    0.5001   -1.1967 H   0  0  0  0  0  0  0  0  0  0  0  0
   -1.6652    2.3603    0.8983 H   0  0  0  0  0  0  0  0  0  0  0  0
   -3.4135    2.0645    0.7299 H   0  0  0  0  0  0  0  0  0  0  0  0
   -3.2158    2.8917   -1.7201 H   0  0  0  0  0  0  0  0  0  0  0  0
   -2.5995    4.8685    0.5719 H   0  0  0  0  0  0  0  0  0  0  0  0
   -4.2297    4.2319    0.1222 H   0  0  0  0  0  0  0  0  0  0  0  0
   -3.3300    5.2745   -1.0323 H   0  0  0  0  0  0  0  0  0  0  0  0
   -1.2915    4.4523   -2.1788 H   0  0  0  0  0  0  0  0  0  0  0  0
   -0.7484    2.7518   -2.0228 H   0  0  0  0  0  0  0  0  0  0  0  0
   -0.4939    3.9068   -0.6553 H   0  0  0  0  0  0  0  0  0  0  0  0
   -1.0738    0.4865    2.1622 H   0  0  0  0  0  0  0  0  0  0  0  0
   -0.8630   -1.2599    1.9942 H   0  0  0  0  0  0  0  0  0  0  0  0
    0.5667    1.9313    1.3186 H   0  0  0  0  0  0  0  0  0  0  0  0
    5.6173    1.3619   -0.5663 H   0  0  0  0  0  0  0  0  0  0  0  0
    5.3699    1.4968    1.2613 H   0  0  0  0  0  0  0  0  0  0  0  0
    6.9021    3.3328    1.3366 H   0  0  0  0  0  0  0  0  0  0  0  0
    8.0093    2.5744   -0.5296 H   0  0  0  0  0  0  0  0  0  0  0  0
    4.9705    4.6745    0.9871 H   0  0  0  0  0  0  0  0  0  0  0  0
    5.1952    4.5552   -0.8421 H   0  0  0  0  0  0  0  0  0  0  0  0
    3.6283    0.5567   -1.3641 H   0  0  0  0  0  0  0  0  0  0  0  0
    2.6279   -1.6672   -1.3872 H   0  0  0  0  0  0  0  0  0  0  0  0
  1  2  1  0
  2  3  2  0
  2  4  1  0
  4  5  1  0
  5  6  1  0
  6  7  1  0
  7  8  1  0
  8  9  1  0
  9 10  1  0
 10 11  1  0
 11 12  1  0
 12 13  1  0
 13 14  1  0
 14 15  1  0
 15 16  1  0
 15 17  1  0
 12 18  1  0
 18 19  1  0
 19 20  2  0
 20 21  1  0
 21 22  1  0
 22 23  2  0
 22 24  1  0
 24 25  1  0
 25 26  1  0
 26 27  1  0
 26 28  1  0
 21 29  2  0
 29 30  1  0
 30 31  2  0
 31  4  1  0
 31 19  1  0
 28 24  1  0
  1 32  1  0
  1 33  1  0
  1 34  1  0
  5 35  1  0
  5 36  1  0
  6 37  1  0
  6 38  1  0
  7 39  1  0
  7 40  1  0
  8 41  1  0
  8 42  1  0
  9 43  1  0
  9 44  1  0
 10 45  1  0
 10 46  1  0
 11 47  1  0
 11 48  1  0
 13 49  1  0
 13 50  1  0
 14 51  1  0
 14 52  1  0
 15 53  1  0
 16 54  1  0
 16 55  1  0
 16 56  1  0
 17 57  1  0
 17 58  1  0
 17 59  1  0
 18 60  1  0
 18 61  1  0
 20 62  1  0
 25 63  1  0
 25 64  1  0
 26 65  1  0
 27 66  1  0
 28 67  1  0
 28 68  1  0
 29 69  1  0
 30 70  1  0
M  END
$$$$
