
     RDKit          3D

 84 87  0  0  0  0  0  0  0  0999 V2000
   -8.3150   -0.7372   -0.5816 C   0  0  0  0  0  0  0  0  0  0  0  0
   -7.1939   -1.2913   -1.4542 C   0  0  0  0  0  0  0  0  0  0  0  0
   -6.1470   -1.9232   -0.5993 N   0  0  0  0  0  0  0  0  0  0  0  0
   -6.0889   -3.3892   -0.8443 C   0  0  0  0  0  0  0  0  0  0  0  0
   -7.3460   -4.0966   -0.3311 C   0  0  0  0  0  0  0  0  0  0  0  0
   -4.8276   -1.2388   -0.7730 C   0  0  0  0  0  0  0  0  0  0  0  0
   -3.6715   -1.9169    0.0164 C   0  0  0  0  0  0  0  0  0  0  0  0
   -2.4972   -1.0432    0.1095 N   0  0  0  0  0  0  0  0  0  0  0  0
   -1.8024   -0.8016    1.3472 C   0  0  0  0  0  0  0  0  0  0  0  0
   -2.2619   -1.2803    2.4196 O   0  0  0  0  0  0  0  0  0  0  0  0
   -0.5697    0.0283    1.4010 C   0  0  0  0  0  0  0  0  0  0  0  0
   -0.1875    0.6207    2.6105 C   0  0  0  0  0  0  0  0  0  0  0  0
    0.9503    1.4199    2.6788 C   0  0  0  0  0  0  0  0  0  0  0  0
    1.7613    1.6334    1.5586 C   0  0  0  0  0  0  0  0  0  0  0  0
    1.4197    1.0007    0.3254 C   0  0  0  0  0  0  0  0  0  0  0  0
    0.2401    0.2252    0.2703 C   0  0  0  0  0  0  0  0  0  0  0  0
    2.2022    1.1546   -0.9682 C   0  0  0  0  0  0  0  0  0  0  0  0
    3.2036    0.0347   -1.2009 C   0  0  0  0  0  0  0  0  0  0  0  0
    2.8131   -1.3155   -1.0954 C   0  0  0  0  0  0  0  0  0  0  0  0
    3.7144   -2.3432   -1.3697 C   0  0  0  0  0  0  0  0  0  0  0  0
    5.0171   -2.0477   -1.7632 C   0  0  0  0  0  0  0  0  0  0  0  0
    5.4309   -0.7145   -1.8914 C   0  0  0  0  0  0  0  0  0  0  0  0
    4.5144    0.3242   -1.6321 C   0  0  0  0  0  0  0  0  0  0  0  0
    6.8521   -0.4080   -2.2879 C   0  0  0  0  0  0  0  0  0  0  0  0
    7.5540    0.3709   -1.2427 N   0  0  0  0  0  0  0  0  0  0  0  0
    8.7797    0.9585   -1.8086 C   0  0  0  0  0  0  0  0  0  0  0  0
    7.8793   -0.4347   -0.0345 C   0  0  0  0  0  0  0  0  0  0  0  0
    6.7421   -0.4001    1.0043 C   0  0  0  0  0  0  0  0  0  0  0  0
    6.2773    1.0352    1.3247 C   0  0  0  0  0  0  0  0  0  0  0  0
    4.8037    1.0977    1.7764 C   0  0  0  0  0  0  0  0  0  0  0  0
    4.1752    2.4269    1.3423 C   0  0  0  0  0  0  0  0  0  0  0  0
    2.8131    2.5479    1.7476 O   0  0  0  0  0  0  0  0  0  0  0  0
   -4.9412    0.2131   -0.3263 C   0  0  0  0  0  0  0  0  0  0  0  0
   -4.6302    1.2565   -1.2150 C   0  0  0  0  0  0  0  0  0  0  0  0
   -4.7093    2.5884   -0.7979 C   0  0  0  0  0  0  0  0  0  0  0  0
   -5.1080    2.8977    0.5107 C   0  0  0  0  0  0  0  0  0  0  0  0
   -5.1523    4.3244    0.9728 C   0  0  0  0  0  0  0  0  0  0  0  0
   -5.3958    1.8583    1.4071 C   0  0  0  0  0  0  0  0  0  0  0  0
   -5.3176    0.5265    0.9915 C   0  0  0  0  0  0  0  0  0  0  0  0
   -7.9346    0.0882    0.0554 H   0  0  0  0  0  0  0  0  0  0  0  0
   -8.7331   -1.5335    0.0684 H   0  0  0  0  0  0  0  0  0  0  0  0
   -9.1265   -0.3365   -1.2260 H   0  0  0  0  0  0  0  0  0  0  0  0
   -7.6339   -2.0008   -2.1901 H   0  0  0  0  0  0  0  0  0  0  0  0
   -6.7973   -0.4580   -2.0751 H   0  0  0  0  0  0  0  0  0  0  0  0
   -5.9336   -3.6082   -1.9244 H   0  0  0  0  0  0  0  0  0  0  0  0
   -5.2603   -3.8609   -0.2832 H   0  0  0  0  0  0  0  0  0  0  0  0
   -8.2423   -3.8241   -0.9250 H   0  0  0  0  0  0  0  0  0  0  0  0
   -7.2093   -5.1973   -0.4087 H   0  0  0  0  0  0  0  0  0  0  0  0
   -7.5200   -3.8382    0.7352 H   0  0  0  0  0  0  0  0  0  0  0  0
   -4.5439   -1.2770   -1.8512 H   0  0  0  0  0  0  0  0  0  0  0  0
   -4.0350   -2.2027    1.0261 H   0  0  0  0  0  0  0  0  0  0  0  0
   -3.3481   -2.8384   -0.5112 H   0  0  0  0  0  0  0  0  0  0  0  0
   -2.1695   -0.5933   -0.7744 H   0  0  0  0  0  0  0  0  0  0  0  0
   -0.7877    0.4907    3.5035 H   0  0  0  0  0  0  0  0  0  0  0  0
    1.1995    1.8975    3.6187 H   0  0  0  0  0  0  0  0  0  0  0  0
   -0.0293   -0.2396   -0.6675 H   0  0  0  0  0  0  0  0  0  0  0  0
    2.6588    2.1578   -1.0330 H   0  0  0  0  0  0  0  0  0  0  0  0
    1.4941    1.1427   -1.8254 H   0  0  0  0  0  0  0  0  0  0  0  0
    1.8114   -1.5914   -0.8091 H   0  0  0  0  0  0  0  0  0  0  0  0
    3.4006   -3.3748   -1.2758 H   0  0  0  0  0  0  0  0  0  0  0  0
    5.7043   -2.8613   -1.9595 H   0  0  0  0  0  0  0  0  0  0  0  0
    4.8302    1.3533   -1.7534 H   0  0  0  0  0  0  0  0  0  0  0  0
    7.4176   -1.3381   -2.5255 H   0  0  0  0  0  0  0  0  0  0  0  0
    6.7964    0.1775   -3.2336 H   0  0  0  0  0  0  0  0  0  0  0  0
    9.2858    1.5965   -1.0523 H   0  0  0  0  0  0  0  0  0  0  0  0
    9.4827    0.1649   -2.1474 H   0  0  0  0  0  0  0  0  0  0  0  0
    8.5320    1.6195   -2.6655 H   0  0  0  0  0  0  0  0  0  0  0  0
    8.1085   -1.4910   -0.3005 H   0  0  0  0  0  0  0  0  0  0  0  0
    8.7847   -0.0370    0.4786 H   0  0  0  0  0  0  0  0  0  0  0  0
    7.0962   -0.8804    1.9424 H   0  0  0  0  0  0  0  0  0  0  0  0
    5.9034   -1.0267    0.6457 H   0  0  0  0  0  0  0  0  0  0  0  0
    6.9280    1.4634    2.1182 H   0  0  0  0  0  0  0  0  0  0  0  0
    6.4087    1.6860    0.4352 H   0  0  0  0  0  0  0  0  0  0  0  0
    4.2115    0.2700    1.3372 H   0  0  0  0  0  0  0  0  0  0  0  0
    4.7491    0.9987    2.8817 H   0  0  0  0  0  0  0  0  0  0  0  0
    4.2782    2.5854    0.2570 H   0  0  0  0  0  0  0  0  0  0  0  0
    4.7402    3.2530    1.8239 H   0  0  0  0  0  0  0  0  0  0  0  0
   -4.3220    1.0402   -2.2304 H   0  0  0  0  0  0  0  0  0  0  0  0
   -4.4580    3.3777   -1.4957 H   0  0  0  0  0  0  0  0  0  0  0  0
   -5.9655    4.4673    1.7163 H   0  0  0  0  0  0  0  0  0  0  0  0
   -4.1815    4.5903    1.4403 H   0  0  0  0  0  0  0  0  0  0  0  0
   -5.3428    5.0105    0.1200 H   0  0  0  0  0  0  0  0  0  0  0  0
   -5.6808    2.0791    2.4280 H   0  0  0  0  0  0  0  0  0  0  0  0
   -5.5478   -0.2626    1.6963 H   0  0  0  0  0  0  0  0  0  0  0  0
  1  2  1  0
  2  3  1  0
  3  4  1  0
  4  5  1  0
  3  6  1  0
  6  7  1  0
  7  8  1  0
  8  9  1  0
  9 10  2  0
  9 11  1  0
 11 12  2  0
 12 13  1  0
 13 14  2  0
 14 15  1  0
 15 16  2  0
 15 17  1  0
 17 18  1  0
 18 19  2  0
 19 20  1  0
 20 21  2  0
 21 22  1  0
 22 23  2  0
 22 24  1  0
 24 25  1  0
 25 26  1  0
 25 27  1  0
 27 28  1  0
 28 29  1  0
 29 30  1  0
 30 31  1  0
 31 32  1  0
  6 33  1  0
 33 34  2  0
 34 35  1  0
 35 36  2  0
 36 37  1  0
 36 38  1  0
 38 39  2  0
 16 11  1  0
 23 18  1  0
 39 33  1  0
 32 14  1  0
  1 40  1  0
  1 41  1  0
  1 42  1  0
  2 43  1  0
  2 44  1  0
  4 45  1  0
  4 46  1  0
  5 47  1  0
  5 48  1  0
  5 49  1  0
  6 50  1  0
  7 51  1  0
  7 52  1  0
  8 53  1  0
 12 54  1  0
 13 55  1  0
 16 56  1  0
 17 57  1  0
 17 58  1  0
 19 59  1  0
 20 60  1  0
 21 61  1  0
 23 62  1  0
 24 63  1  0
 24 64  1  0
 26 65  1  0
 26 66  1  0
 26 67  1  0
 27 68  1  0
 27 69  1  0
 28 70  1  0
 28 71  1  0
 29 72  1  0
 29 73  1  0
 30 74  1  0
 30 75  1  0
 31 76  1  0
 31 77  1  0
 34 78  1  0
 35 79  1  0
 37 80  1  0
 37 81  1  0
 37 82  1  0
 38 83  1  0
 39 84  1  0
M  END
$$$$
