
     RDKit          3D

 59 61  0  0  0  0  0  0  0  0999 V2000
    4.9066   -2.3481    2.2159 C   0  0  0  0  0  0  0  0  0  0  0  0
    4.2383   -1.1966    1.4686 C   0  0  0  0  0  0  0  0  0  0  0  0
    2.8861   -1.5726    0.9105 C   0  0  0  0  0  0  0  0  0  0  0  0
    2.2271   -2.4895    1.4729 O   0  0  0  0  0  0  0  0  0  0  0  0
    2.3031   -0.8761   -0.2147 N   0  0  0  0  0  0  0  0  0  0  0  0
    2.9051    0.3339   -0.8048 C   0  0  0  0  0  0  0  0  0  0  0  0
    2.9429    1.5018    0.2079 C   0  0  0  0  0  0  0  0  0  0  0  0
    2.5559    2.8683   -0.3926 C   0  0  0  0  0  0  0  0  0  0  0  0
    1.2885    2.8135   -1.1532 N   0  0  0  0  0  0  0  0  0  0  0  0
    1.1658    3.9935   -2.0282 C   0  0  0  0  0  0  0  0  0  0  0  0
    0.0920    2.6691   -0.2908 C   0  0  0  0  0  0  0  0  0  0  0  0
   -0.8909    1.7060   -0.9715 C   0  0  0  0  0  0  0  0  0  0  0  0
   -2.0305    1.2171   -0.0532 C   0  0  0  0  0  0  0  0  0  0  0  0
   -1.7032    0.1194    0.8880 N   0  0  0  0  0  0  0  0  0  0  0  0
   -2.7204   -0.3076    1.8229 C   0  0  0  0  0  0  0  0  0  0  0  0
   -2.3944   -0.6610    2.9913 O   0  0  0  0  0  0  0  0  0  0  0  0
   -4.1307   -0.4553    1.4148 C   0  0  0  0  0  0  0  0  0  0  0  0
   -4.6887   -1.7369    1.3096 C   0  0  0  0  0  0  0  0  0  0  0  0
   -6.0284   -1.8865    0.9386 C   0  0  0  0  0  0  0  0  0  0  0  0
   -6.8010   -0.7478    0.6837 C   0  0  0  0  0  0  0  0  0  0  0  0
   -6.2530    0.4909    0.8123 N   0  0  0  0  0  0  0  0  0  0  0  0
   -4.9518    0.6621    1.1778 C   0  0  0  0  0  0  0  0  0  0  0  0
   -0.4030   -0.5842    0.9226 C   0  0  0  0  0  0  0  0  0  0  0  0
   -0.1354   -1.3785   -0.3380 C   0  0  0  0  0  0  0  0  0  0  0  0
   -1.1872   -2.0618   -0.9758 C   0  0  0  0  0  0  0  0  0  0  0  0
   -0.9594   -2.7721   -2.1574 C   0  0  0  0  0  0  0  0  0  0  0  0
   -1.9866   -3.4118   -2.7690 F   0  0  0  0  0  0  0  0  0  0  0  0
    0.3222   -2.8208   -2.7091 C   0  0  0  0  0  0  0  0  0  0  0  0
    0.5418   -3.5026   -3.8609 F   0  0  0  0  0  0  0  0  0  0  0  0
    1.3840   -2.1813   -2.0677 C   0  0  0  0  0  0  0  0  0  0  0  0
    1.1721   -1.4723   -0.8769 C   0  0  0  0  0  0  0  0  0  0  0  0
    5.9123   -2.0305    2.5592 H   0  0  0  0  0  0  0  0  0  0  0  0
    5.0193   -3.2275    1.5435 H   0  0  0  0  0  0  0  0  0  0  0  0
    4.3071   -2.6376    3.1060 H   0  0  0  0  0  0  0  0  0  0  0  0
    4.1156   -0.3410    2.1647 H   0  0  0  0  0  0  0  0  0  0  0  0
    4.9145   -0.8933    0.6463 H   0  0  0  0  0  0  0  0  0  0  0  0
    2.3383    0.6221   -1.7156 H   0  0  0  0  0  0  0  0  0  0  0  0
    3.9311    0.1085   -1.1627 H   0  0  0  0  0  0  0  0  0  0  0  0
    2.3054    1.2891    1.0868 H   0  0  0  0  0  0  0  0  0  0  0  0
    3.9764    1.5882    0.6080 H   0  0  0  0  0  0  0  0  0  0  0  0
    3.3896    3.1743   -1.0652 H   0  0  0  0  0  0  0  0  0  0  0  0
    2.4899    3.6247    0.4222 H   0  0  0  0  0  0  0  0  0  0  0  0
    1.1995    4.9365   -1.4346 H   0  0  0  0  0  0  0  0  0  0  0  0
    0.2110    3.9555   -2.5984 H   0  0  0  0  0  0  0  0  0  0  0  0
    1.9893    4.0034   -2.7770 H   0  0  0  0  0  0  0  0  0  0  0  0
    0.3498    2.2958    0.7173 H   0  0  0  0  0  0  0  0  0  0  0  0
   -0.4091    3.6485   -0.1134 H   0  0  0  0  0  0  0  0  0  0  0  0
   -0.3550    0.8640   -1.4427 H   0  0  0  0  0  0  0  0  0  0  0  0
   -1.3584    2.2567   -1.8163 H   0  0  0  0  0  0  0  0  0  0  0  0
   -2.8574    0.8741   -0.7133 H   0  0  0  0  0  0  0  0  0  0  0  0
   -2.4047    2.0912    0.5235 H   0  0  0  0  0  0  0  0  0  0  0  0
   -4.0866   -2.6160    1.5105 H   0  0  0  0  0  0  0  0  0  0  0  0
   -6.4658   -2.8741    0.8536 H   0  0  0  0  0  0  0  0  0  0  0  0
   -7.8390   -0.8486    0.3904 H   0  0  0  0  0  0  0  0  0  0  0  0
   -4.5679    1.6681    1.2942 H   0  0  0  0  0  0  0  0  0  0  0  0
    0.3961    0.1438    1.1224 H   0  0  0  0  0  0  0  0  0  0  0  0
   -0.3599   -1.3026    1.7694 H   0  0  0  0  0  0  0  0  0  0  0  0
   -2.1888   -2.0376   -0.5657 H   0  0  0  0  0  0  0  0  0  0  0  0
    2.3808   -2.2479   -2.4865 H   0  0  0  0  0  0  0  0  0  0  0  0
  1  2  1  0
  2  3  1  0
  3  4  2  0
  3  5  1  0
  5  6  1  0
  6  7  1  0
  7  8  1  0
  8  9  1  0
  9 10  1  0
  9 11  1  0
 11 12  1  0
 12 13  1  0
 13 14  1  0
 14 15  1  0
 15 16  2  0
 15 17  1  0
 17 18  2  0
 18 19  1  0
 19 20  2  0
 20 21  1  0
 21 22  2  0
 14 23  1  0
 23 24  1  0
 24 25  2  0
 25 26  1  0
 26 27  1  0
 26 28  2  0
 28 29  1  0
 28 30  1  0
 30 31  2  0
 31  5  1  0
 22 17  1  0
 31 24  1  0
  1 32  1  0
  1 33  1  0
  1 34  1  0
  2 35  1  0
  2 36  1  0
  6 37  1  0
  6 38  1  0
  7 39  1  0
  7 40  1  0
  8 41  1  0
  8 42  1  0
 10 43  1  0
 10 44  1  0
 10 45  1  0
 11 46  1  0
 11 47  1  0
 12 48  1  0
 12 49  1  0
 13 50  1  0
 13 51  1  0
 18 52  1  0
 19 53  1  0
 20 54  1  0
 22 55  1  0
 23 56  1  0
 23 57  1  0
 25 58  1  0
 30 59  1  0
M  END
$$$$
