
     RDKit          3D

 79 84  0  0  0  0  0  0  0  0999 V2000
    3.2209    2.0808   -2.9821 O   0  0  0  0  0  0  0  0  0  0  0  0
    2.9163    1.5036   -1.8993 C   0  0  0  0  0  0  0  0  0  0  0  0
    1.7626    0.5672   -1.8673 C   0  0  0  0  0  0  0  0  0  0  0  0
    1.6396   -0.3964   -0.8524 C   0  0  0  0  0  0  0  0  0  0  0  0
    0.6339   -1.3648   -0.9039 C   0  0  0  0  0  0  0  0  0  0  0  0
   -0.2924   -1.3679   -1.9604 C   0  0  0  0  0  0  0  0  0  0  0  0
   -0.2165   -0.3632   -2.9530 C   0  0  0  0  0  0  0  0  0  0  0  0
    0.8185    0.5825   -2.9030 C   0  0  0  0  0  0  0  0  0  0  0  0
   -1.2046   -0.3192   -4.0994 C   0  0  0  0  0  0  0  0  0  0  0  0
   -2.6430   -0.1857   -3.6576 C   0  0  0  0  0  0  0  0  0  0  0  0
   -3.6646   -0.6910   -4.4760 C   0  0  0  0  0  0  0  0  0  0  0  0
   -5.0030   -0.5807   -4.0914 C   0  0  0  0  0  0  0  0  0  0  0  0
   -5.3297    0.0295   -2.8803 C   0  0  0  0  0  0  0  0  0  0  0  0
   -4.3186    0.5400   -2.0551 C   0  0  0  0  0  0  0  0  0  0  0  0
   -2.9848    0.4744   -2.4650 C   0  0  0  0  0  0  0  0  0  0  0  0
   -4.6423    1.0753   -0.6953 C   0  0  0  0  0  0  0  0  0  0  0  0
   -4.1248    0.1855    0.3762 N   0  0  0  0  0  0  0  0  0  0  0  0
   -4.3364    0.8616    1.6819 C   0  0  0  0  0  0  0  0  0  0  0  0
   -3.7087    0.1455    2.8810 C   0  0  0  0  0  0  0  0  0  0  0  0
   -2.8093    1.3439    3.1487 C   0  0  0  0  0  0  0  0  0  0  0  0
   -3.3760    2.0355    1.9191 C   0  0  0  0  0  0  0  0  0  0  0  0
   -4.8250   -1.1333    0.3453 C   0  0  0  0  0  0  0  0  0  0  0  0
   -3.9779   -2.2270   -0.3394 C   0  0  0  0  0  0  0  0  0  0  0  0
   -2.6538   -2.4806    0.3945 C   0  0  0  0  0  0  0  0  0  0  0  0
   -1.9222   -3.7390   -0.0920 C   0  0  0  0  0  0  0  0  0  0  0  0
   -1.2432   -3.6488   -1.4840 C   0  0  0  0  0  0  0  0  0  0  0  0
   -1.2856   -2.3456   -2.0719 O   0  0  0  0  0  0  0  0  0  0  0  0
    3.7507    1.7022   -0.7504 N   0  0  0  0  0  0  0  0  0  0  0  0
    5.1859    1.4268   -0.8727 C   0  0  0  0  0  0  0  0  0  0  0  0
    5.9600    1.9666    0.3269 C   0  0  0  0  0  0  0  0  0  0  0  0
    5.2801    1.5859    1.5673 N   0  0  0  0  0  0  0  0  0  0  0  0
    6.0187    1.0589    2.6801 C   0  0  0  0  0  0  0  0  0  0  0  0
    6.9219   -0.0016    2.4999 C   0  0  0  0  0  0  0  0  0  0  0  0
    7.6112   -0.5105    3.6015 C   0  0  0  0  0  0  0  0  0  0  0  0
    7.4038    0.0449    4.8629 C   0  0  0  0  0  0  0  0  0  0  0  0
    6.4926    1.0919    5.0095 C   0  0  0  0  0  0  0  0  0  0  0  0
    5.8262    1.5691    3.9265 N   0  0  0  0  0  0  0  0  0  0  0  0
    3.8376    1.8321    1.7181 C   0  0  0  0  0  0  0  0  0  0  0  0
    3.2065    2.3856    0.4318 C   0  0  0  0  0  0  0  0  0  0  0  0
    2.3522   -0.4307   -0.0418 H   0  0  0  0  0  0  0  0  0  0  0  0
    0.5848   -2.1039   -0.1200 H   0  0  0  0  0  0  0  0  0  0  0  0
    0.8963    1.3210   -3.6908 H   0  0  0  0  0  0  0  0  0  0  0  0
   -1.0759   -1.2367   -4.7028 H   0  0  0  0  0  0  0  0  0  0  0  0
   -0.9794    0.5397   -4.7592 H   0  0  0  0  0  0  0  0  0  0  0  0
   -3.4254   -1.1632   -5.4197 H   0  0  0  0  0  0  0  0  0  0  0  0
   -5.7852   -0.9683   -4.7319 H   0  0  0  0  0  0  0  0  0  0  0  0
   -6.3698    0.0898   -2.5797 H   0  0  0  0  0  0  0  0  0  0  0  0
   -2.2172    0.8990   -1.8300 H   0  0  0  0  0  0  0  0  0  0  0  0
   -5.7431    1.2285   -0.5776 H   0  0  0  0  0  0  0  0  0  0  0  0
   -4.1764    2.0830   -0.6242 H   0  0  0  0  0  0  0  0  0  0  0  0
   -5.4016    1.1286    1.8667 H   0  0  0  0  0  0  0  0  0  0  0  0
   -3.1160   -0.7490    2.6211 H   0  0  0  0  0  0  0  0  0  0  0  0
   -4.4367   -0.0340    3.6987 H   0  0  0  0  0  0  0  0  0  0  0  0
   -3.0754    1.8704    4.0883 H   0  0  0  0  0  0  0  0  0  0  0  0
   -1.7283    1.1083    3.0582 H   0  0  0  0  0  0  0  0  0  0  0  0
   -3.9140    2.9770    2.1704 H   0  0  0  0  0  0  0  0  0  0  0  0
   -2.5971    2.1483    1.1343 H   0  0  0  0  0  0  0  0  0  0  0  0
   -5.8040   -1.0704   -0.1800 H   0  0  0  0  0  0  0  0  0  0  0  0
   -5.0711   -1.4990    1.3666 H   0  0  0  0  0  0  0  0  0  0  0  0
   -4.5721   -3.1692   -0.3463 H   0  0  0  0  0  0  0  0  0  0  0  0
   -3.7783   -1.9636   -1.3961 H   0  0  0  0  0  0  0  0  0  0  0  0
   -1.9944   -1.5872    0.3208 H   0  0  0  0  0  0  0  0  0  0  0  0
   -2.8763   -2.6464    1.4713 H   0  0  0  0  0  0  0  0  0  0  0  0
   -2.6267   -4.6063   -0.0966 H   0  0  0  0  0  0  0  0  0  0  0  0
   -1.1352   -3.9872    0.6744 H   0  0  0  0  0  0  0  0  0  0  0  0
   -1.7782   -4.3452   -2.1865 H   0  0  0  0  0  0  0  0  0  0  0  0
   -0.1885   -4.0155   -1.4249 H   0  0  0  0  0  0  0  0  0  0  0  0
    5.3356    0.3278   -0.9372 H   0  0  0  0  0  0  0  0  0  0  0  0
    5.5989    1.8918   -1.7950 H   0  0  0  0  0  0  0  0  0  0  0  0
    6.0097    3.0779    0.2643 H   0  0  0  0  0  0  0  0  0  0  0  0
    7.0012    1.5862    0.2987 H   0  0  0  0  0  0  0  0  0  0  0  0
    7.0669   -0.4380    1.5250 H   0  0  0  0  0  0  0  0  0  0  0  0
    8.2998   -1.3396    3.4750 H   0  0  0  0  0  0  0  0  0  0  0  0
    7.9250   -0.3457    5.7263 H   0  0  0  0  0  0  0  0  0  0  0  0
    6.3350    1.5320    5.9776 H   0  0  0  0  0  0  0  0  0  0  0  0
    3.6685    2.5538    2.5461 H   0  0  0  0  0  0  0  0  0  0  0  0
    3.3404    0.8740    1.9788 H   0  0  0  0  0  0  0  0  0  0  0  0
    2.1034    2.2566    0.4831 H   0  0  0  0  0  0  0  0  0  0  0  0
    3.4241    3.4716    0.3498 H   0  0  0  0  0  0  0  0  0  0  0  0
  1  2  2  0
  2  3  1  0
  3  4  2  0
  4  5  1  0
  5  6  2  0
  6  7  1  0
  7  8  2  0
  7  9  1  0
  9 10  1  0
 10 11  2  0
 11 12  1  0
 12 13  2  0
 13 14  1  0
 14 15  2  0
 14 16  1  0
 16 17  1  0
 17 18  1  0
 18 19  1  0
 19 20  1  0
 20 21  1  0
 17 22  1  0
 22 23  1  0
 23 24  1  0
 24 25  1  0
 25 26  1  0
 26 27  1  0
  2 28  1  0
 28 29  1  0
 29 30  1  0
 30 31  1  0
 31 32  1  0
 32 33  2  0
 33 34  1  0
 34 35  2  0
 35 36  1  0
 36 37  2  0
 31 38  1  0
 38 39  1  0
  8  3  1  0
 15 10  1  0
 21 18  1  0
 39 28  1  0
 27  6  1  0
 37 32  1  0
  4 40  1  0
  5 41  1  0
  8 42  1  0
  9 43  1  0
  9 44  1  0
 11 45  1  0
 12 46  1  0
 13 47  1  0
 15 48  1  0
 16 49  1  0
 16 50  1  0
 18 51  1  0
 19 52  1  0
 19 53  1  0
 20 54  1  0
 20 55  1  0
 21 56  1  0
 21 57  1  0
 22 58  1  0
 22 59  1  0
 23 60  1  0
 23 61  1  0
 24 62  1  0
 24 63  1  0
 25 64  1  0
 25 65  1  0
 26 66  1  0
 26 67  1  0
 29 68  1  0
 29 69  1  0
 30 70  1  0
 30 71  1  0
 33 72  1  0
 34 73  1  0
 35 74  1  0
 36 75  1  0
 38 76  1  0
 38 77  1  0
 39 78  1  0
 39 79  1  0
M  END
$$$$
