
     RDKit          3D

 76 78  0  0  0  0  0  0  0  0999 V2000
    8.4810   -0.8370    0.1897 C   0  0  0  0  0  0  0  0  0  0  0  0
    6.9853   -0.6383   -0.0168 C   0  0  0  0  0  0  0  0  0  0  0  0
    6.7517    0.3598   -1.0876 N   0  0  0  0  0  0  0  0  0  0  0  0
    5.6013    0.0134   -1.9470 C   0  0  0  0  0  0  0  0  0  0  0  0
    4.2491    0.1778   -1.2192 C   0  0  0  0  0  0  0  0  0  0  0  0
    4.3931    0.8963    0.0621 N   0  0  0  0  0  0  0  0  0  0  0  0
    3.0709    1.2213    0.6413 C   0  0  0  0  0  0  0  0  0  0  0  0
    2.5087    0.0354    1.3892 C   0  0  0  0  0  0  0  0  0  0  0  0
    3.2987   -0.8658    1.7669 O   0  0  0  0  0  0  0  0  0  0  0  0
    1.1097   -0.0481    1.7507 N   0  0  0  0  0  0  0  0  0  0  0  0
    0.6688   -1.0462    2.7450 C   0  0  0  0  0  0  0  0  0  0  0  0
    0.1168   -2.3140    2.0640 C   0  0  0  0  0  0  0  0  0  0  0  0
   -1.4102   -2.2615    1.9094 C   0  0  0  0  0  0  0  0  0  0  0  0
   -1.9493   -3.4659    1.1321 C   0  0  0  0  0  0  0  0  0  0  0  0
   -3.4088   -3.3857    1.0790 N   0  0  0  0  0  0  0  0  0  0  0  0
   -4.0907   -2.8068   -0.0469 C   0  0  0  0  0  0  0  0  0  0  0  0
   -3.6336   -2.9424   -1.2163 O   0  0  0  0  0  0  0  0  0  0  0  0
   -5.3183   -2.0257    0.1690 C   0  0  0  0  0  0  0  0  0  0  0  0
   -6.4710   -2.6644    0.6541 C   0  0  0  0  0  0  0  0  0  0  0  0
   -7.6238   -1.9206    0.9268 C   0  0  0  0  0  0  0  0  0  0  0  0
   -9.0587   -2.7212    1.5385 Cl  0  0  0  0  0  0  0  0  0  0  0  0
   -7.6247   -0.5351    0.7346 C   0  0  0  0  0  0  0  0  0  0  0  0
   -6.4783    0.1101    0.2626 C   0  0  0  0  0  0  0  0  0  0  0  0
   -5.3129   -0.6288   -0.0119 C   0  0  0  0  0  0  0  0  0  0  0  0
   -4.1385    0.0023   -0.4407 O   0  0  0  0  0  0  0  0  0  0  0  0
   -3.6309    1.1951    0.1526 C   0  0  0  0  0  0  0  0  0  0  0  0
   -2.3551    1.6769   -0.5722 C   0  0  0  0  0  0  0  0  0  0  0  0
   -2.6295    2.5389   -1.8400 C   0  0  0  0  0  0  0  0  0  0  0  0
   -3.0722    3.9648   -1.4738 C   0  0  0  0  0  0  0  0  0  0  0  0
   -3.6329    1.9051   -2.8173 C   0  0  0  0  0  0  0  0  0  0  0  0
   -1.4948    0.5363   -0.9152 N   0  0  0  0  0  0  0  0  0  0  0  0
   -0.2356    0.2575   -0.2841 C   0  0  0  0  0  0  0  0  0  0  0  0
    0.6014   -0.4657   -0.8934 O   0  0  0  0  0  0  0  0  0  0  0  0
    0.0985    0.7908    1.0876 C   0  0  0  0  0  0  0  0  0  0  0  0
    5.2078    2.1103   -0.1211 C   0  0  0  0  0  0  0  0  0  0  0  0
    6.6412    1.7422   -0.5683 C   0  0  0  0  0  0  0  0  0  0  0  0
    8.9580    0.1092    0.5243 H   0  0  0  0  0  0  0  0  0  0  0  0
    8.6539   -1.6132    0.9653 H   0  0  0  0  0  0  0  0  0  0  0  0
    8.9536   -1.1690   -0.7626 H   0  0  0  0  0  0  0  0  0  0  0  0
    6.5451   -1.6259   -0.2821 H   0  0  0  0  0  0  0  0  0  0  0  0
    6.5223   -0.3282    0.9481 H   0  0  0  0  0  0  0  0  0  0  0  0
    5.6165    0.6761   -2.8401 H   0  0  0  0  0  0  0  0  0  0  0  0
    5.7086   -1.0209   -2.3373 H   0  0  0  0  0  0  0  0  0  0  0  0
    3.8200   -0.8268   -1.0312 H   0  0  0  0  0  0  0  0  0  0  0  0
    3.5524    0.7140   -1.8991 H   0  0  0  0  0  0  0  0  0  0  0  0
    2.3747    1.5611   -0.1542 H   0  0  0  0  0  0  0  0  0  0  0  0
    3.1568    2.0499    1.3828 H   0  0  0  0  0  0  0  0  0  0  0  0
    1.5177   -1.3368    3.4022 H   0  0  0  0  0  0  0  0  0  0  0  0
   -0.0863   -0.5969    3.4284 H   0  0  0  0  0  0  0  0  0  0  0  0
    0.3663   -3.1912    2.6945 H   0  0  0  0  0  0  0  0  0  0  0  0
    0.6074   -2.4590    1.0762 H   0  0  0  0  0  0  0  0  0  0  0  0
   -1.7141   -1.3411    1.3754 H   0  0  0  0  0  0  0  0  0  0  0  0
   -1.8792   -2.2374    2.9162 H   0  0  0  0  0  0  0  0  0  0  0  0
   -1.5140   -3.4778    0.1083 H   0  0  0  0  0  0  0  0  0  0  0  0
   -1.6554   -4.4115    1.6429 H   0  0  0  0  0  0  0  0  0  0  0  0
   -3.9306   -3.4611    1.9791 H   0  0  0  0  0  0  0  0  0  0  0  0
   -6.4733   -3.7375    0.8209 H   0  0  0  0  0  0  0  0  0  0  0  0
   -8.5146    0.0442    0.9518 H   0  0  0  0  0  0  0  0  0  0  0  0
   -6.5070    1.1805    0.1086 H   0  0  0  0  0  0  0  0  0  0  0  0
   -4.3988    1.9928    0.1526 H   0  0  0  0  0  0  0  0  0  0  0  0
   -3.3852    0.9767    1.2141 H   0  0  0  0  0  0  0  0  0  0  0  0
   -1.8122    2.3331    0.1439 H   0  0  0  0  0  0  0  0  0  0  0  0
   -1.6617    2.6445   -2.3801 H   0  0  0  0  0  0  0  0  0  0  0  0
   -2.3454    4.4298   -0.7755 H   0  0  0  0  0  0  0  0  0  0  0  0
   -3.1260    4.5921   -2.3912 H   0  0  0  0  0  0  0  0  0  0  0  0
   -4.0733    3.9585   -0.9984 H   0  0  0  0  0  0  0  0  0  0  0  0
   -3.6666    2.5013   -3.7550 H   0  0  0  0  0  0  0  0  0  0  0  0
   -4.6537    1.8878   -2.3800 H   0  0  0  0  0  0  0  0  0  0  0  0
   -3.3338    0.8687   -3.0878 H   0  0  0  0  0  0  0  0  0  0  0  0
   -1.7851   -0.0982   -1.6897 H   0  0  0  0  0  0  0  0  0  0  0  0
   -0.8254    0.8160    1.7026 H   0  0  0  0  0  0  0  0  0  0  0  0
    0.4444    1.8409    1.0159 H   0  0  0  0  0  0  0  0  0  0  0  0
    5.2840    2.6712    0.8407 H   0  0  0  0  0  0  0  0  0  0  0  0
    4.7371    2.7829   -0.8744 H   0  0  0  0  0  0  0  0  0  0  0  0
    7.3468    1.8938    0.2778 H   0  0  0  0  0  0  0  0  0  0  0  0
    6.9619    2.4469   -1.3621 H   0  0  0  0  0  0  0  0  0  0  0  0
  1  2  1  0
  2  3  1  0
  3  4  1  0
  4  5  1  0
  5  6  1  0
  6  7  1  0
  7  8  1  0
  8  9  2  0
  8 10  1  0
 10 11  1  0
 11 12  1  0
 12 13  1  0
 13 14  1  0
 14 15  1  0
 15 16  1  0
 16 17  2  0
 16 18  1  0
 18 19  2  0
 19 20  1  0
 20 21  1  0
 20 22  2  0
 22 23  1  0
 23 24  2  0
 24 25  1  0
 25 26  1  0
 26 27  1  0
 27 28  1  0
 28 29  1  0
 28 30  1  0
 27 31  1  0
 31 32  1  0
 32 33  2  0
 32 34  1  0
  6 35  1  0
 35 36  1  0
 36  3  1  0
 34 10  1  0
 24 18  1  0
  1 37  1  0
  1 38  1  0
  1 39  1  0
  2 40  1  0
  2 41  1  0
  4 42  1  0
  4 43  1  0
  5 44  1  0
  5 45  1  0
  7 46  1  0
  7 47  1  0
 11 48  1  0
 11 49  1  0
 12 50  1  0
 12 51  1  0
 13 52  1  0
 13 53  1  0
 14 54  1  0
 14 55  1  0
 15 56  1  0
 19 57  1  0
 22 58  1  0
 23 59  1  0
 26 60  1  0
 26 61  1  0
 27 62  1  0
 28 63  1  0
 29 64  1  0
 29 65  1  0
 29 66  1  0
 30 67  1  0
 30 68  1  0
 30 69  1  0
 31 70  1  0
 34 71  1  0
 34 72  1  0
 35 73  1  0
 35 74  1  0
 36 75  1  0
 36 76  1  0
M  END
$$$$
