
     RDKit          3D

 77 81  0  0  0  0  0  0  0  0999 V2000
    9.7009   -1.1337    1.4943 C   0  0  0  0  0  0  0  0  0  0  0  0
    8.8186   -0.4318    0.5169 C   0  0  0  0  0  0  0  0  0  0  0  0
    8.1836    0.7770    0.7281 C   0  0  0  0  0  0  0  0  0  0  0  0
    7.4431    0.9740   -0.4202 C   0  0  0  0  0  0  0  0  0  0  0  0
    6.5307    2.1331   -0.6734 C   0  0  0  0  0  0  0  0  0  0  0  0
    7.6275   -0.0833   -1.2432 N   0  0  0  0  0  0  0  0  0  0  0  0
    7.0135   -0.3187   -2.5511 C   0  0  0  0  0  0  0  0  0  0  0  0
    5.8671   -1.3303   -2.4433 C   0  0  0  0  0  0  0  0  0  0  0  0
    4.7404   -0.7817   -1.6895 N   0  0  0  0  0  0  0  0  0  0  0  0
    3.7824    0.1058   -2.2881 C   0  0  0  0  0  0  0  0  0  0  0  0
    4.0869    0.7460   -3.3305 O   0  0  0  0  0  0  0  0  0  0  0  0
    2.4396    0.2884   -1.6915 C   0  0  0  0  0  0  0  0  0  0  0  0
    1.7462    1.4944   -1.8756 C   0  0  0  0  0  0  0  0  0  0  0  0
    0.4658    1.6617   -1.3466 C   0  0  0  0  0  0  0  0  0  0  0  0
   -0.1510    0.6239   -0.6397 C   0  0  0  0  0  0  0  0  0  0  0  0
    0.5287   -0.5985   -0.4447 C   0  0  0  0  0  0  0  0  0  0  0  0
    1.8254   -0.7502   -0.9720 C   0  0  0  0  0  0  0  0  0  0  0  0
   -0.0411   -1.7004    0.4237 C   0  0  0  0  0  0  0  0  0  0  0  0
   -1.4725   -2.0437    0.0983 C   0  0  0  0  0  0  0  0  0  0  0  0
   -1.8116   -2.5807   -1.1521 C   0  0  0  0  0  0  0  0  0  0  0  0
   -3.1429   -2.8888   -1.4455 C   0  0  0  0  0  0  0  0  0  0  0  0
   -4.1435   -2.6658   -0.4957 C   0  0  0  0  0  0  0  0  0  0  0  0
   -3.8178   -2.1392    0.7633 C   0  0  0  0  0  0  0  0  0  0  0  0
   -2.4787   -1.8385    1.0551 C   0  0  0  0  0  0  0  0  0  0  0  0
   -4.8933   -1.8300    1.7716 C   0  0  0  0  0  0  0  0  0  0  0  0
   -5.3869   -0.4495    1.5535 N   0  0  0  0  0  0  0  0  0  0  0  0
   -6.6487   -0.4272    0.7837 C   0  0  0  0  0  0  0  0  0  0  0  0
   -6.7604    0.8923    0.0060 C   0  0  0  0  0  0  0  0  0  0  0  0
   -7.5539    0.8290   -1.2890 C   0  0  0  0  0  0  0  0  0  0  0  0
   -6.0365    0.9149   -1.3342 C   0  0  0  0  0  0  0  0  0  0  0  0
   -5.4964    0.3205    2.8157 C   0  0  0  0  0  0  0  0  0  0  0  0
   -4.1582    0.9953    3.1727 C   0  0  0  0  0  0  0  0  0  0  0  0
   -3.8463    2.2419    2.3174 C   0  0  0  0  0  0  0  0  0  0  0  0
   -3.2727    1.9192    0.9258 C   0  0  0  0  0  0  0  0  0  0  0  0
   -1.7762    1.5943    0.9505 C   0  0  0  0  0  0  0  0  0  0  0  0
   -1.4578    0.7975   -0.1846 O   0  0  0  0  0  0  0  0  0  0  0  0
    8.4562   -0.9443   -0.6747 N   0  0  0  0  0  0  0  0  0  0  0  0
    9.0765   -1.6497    2.2527 H   0  0  0  0  0  0  0  0  0  0  0  0
   10.3624   -0.4004    2.0025 H   0  0  0  0  0  0  0  0  0  0  0  0
   10.3318   -1.8831    0.9696 H   0  0  0  0  0  0  0  0  0  0  0  0
    8.2446    1.4154    1.6014 H   0  0  0  0  0  0  0  0  0  0  0  0
    5.4752    1.8073   -0.5748 H   0  0  0  0  0  0  0  0  0  0  0  0
    6.7053    2.5439   -1.6895 H   0  0  0  0  0  0  0  0  0  0  0  0
    6.7236    2.9406    0.0650 H   0  0  0  0  0  0  0  0  0  0  0  0
    7.7833   -0.7334   -3.2362 H   0  0  0  0  0  0  0  0  0  0  0  0
    6.6604    0.6306   -3.0022 H   0  0  0  0  0  0  0  0  0  0  0  0
    5.5265   -1.6253   -3.4606 H   0  0  0  0  0  0  0  0  0  0  0  0
    6.2340   -2.2504   -1.9365 H   0  0  0  0  0  0  0  0  0  0  0  0
    4.5815   -1.1304   -0.7172 H   0  0  0  0  0  0  0  0  0  0  0  0
    2.2002    2.3108   -2.4251 H   0  0  0  0  0  0  0  0  0  0  0  0
   -0.0593    2.5947   -1.5050 H   0  0  0  0  0  0  0  0  0  0  0  0
    2.3468   -1.6888   -0.8337 H   0  0  0  0  0  0  0  0  0  0  0  0
    0.0555   -1.3758    1.4832 H   0  0  0  0  0  0  0  0  0  0  0  0
    0.5589   -2.6320    0.3234 H   0  0  0  0  0  0  0  0  0  0  0  0
   -1.0473   -2.7568   -1.8981 H   0  0  0  0  0  0  0  0  0  0  0  0
   -3.4015   -3.3006   -2.4129 H   0  0  0  0  0  0  0  0  0  0  0  0
   -5.1686   -2.9096   -0.7425 H   0  0  0  0  0  0  0  0  0  0  0  0
   -2.2184   -1.4403    2.0253 H   0  0  0  0  0  0  0  0  0  0  0  0
   -4.4620   -1.9605    2.7911 H   0  0  0  0  0  0  0  0  0  0  0  0
   -5.7143   -2.5798    1.7046 H   0  0  0  0  0  0  0  0  0  0  0  0
   -7.5259   -0.5302    1.4608 H   0  0  0  0  0  0  0  0  0  0  0  0
   -6.6938   -1.2823    0.0742 H   0  0  0  0  0  0  0  0  0  0  0  0
   -6.8028    1.8647    0.5404 H   0  0  0  0  0  0  0  0  0  0  0  0
   -8.0674    1.7764   -1.5584 H   0  0  0  0  0  0  0  0  0  0  0  0
   -7.9598   -0.1652   -1.5702 H   0  0  0  0  0  0  0  0  0  0  0  0
   -5.6374    1.9119   -1.6172 H   0  0  0  0  0  0  0  0  0  0  0  0
   -5.5338   -0.0303   -1.6318 H   0  0  0  0  0  0  0  0  0  0  0  0
   -6.2754    1.1120    2.7476 H   0  0  0  0  0  0  0  0  0  0  0  0
   -5.8154   -0.3403    3.6536 H   0  0  0  0  0  0  0  0  0  0  0  0
   -3.3331    0.2649    3.1157 H   0  0  0  0  0  0  0  0  0  0  0  0
   -4.2174    1.3180    4.2317 H   0  0  0  0  0  0  0  0  0  0  0  0
   -3.1271    2.8912    2.8642 H   0  0  0  0  0  0  0  0  0  0  0  0
   -4.7754    2.8423    2.1923 H   0  0  0  0  0  0  0  0  0  0  0  0
   -3.8258    1.0866    0.4554 H   0  0  0  0  0  0  0  0  0  0  0  0
   -3.4221    2.8018    0.2663 H   0  0  0  0  0  0  0  0  0  0  0  0
   -1.4965    1.0326    1.8649 H   0  0  0  0  0  0  0  0  0  0  0  0
   -1.1966    2.5435    0.9346 H   0  0  0  0  0  0  0  0  0  0  0  0
  1  2  1  0
  2  3  1  0
  3  4  2  0
  4  5  1  0
  4  6  1  0
  6  7  1  0
  7  8  1  0
  8  9  1  0
  9 10  1  0
 10 11  2  0
 10 12  1  0
 12 13  2  0
 13 14  1  0
 14 15  2  0
 15 16  1  0
 16 17  2  0
 16 18  1  0
 18 19  1  0
 19 20  2  0
 20 21  1  0
 21 22  2  0
 22 23  1  0
 23 24  2  0
 23 25  1  0
 25 26  1  0
 26 27  1  0
 27 28  1  0
 28 29  1  0
 29 30  1  0
 26 31  1  0
 31 32  1  0
 32 33  1  0
 33 34  1  0
 34 35  1  0
 35 36  1  0
  6 37  1  0
 37  2  2  0
 17 12  1  0
 24 19  1  0
 30 28  1  0
 36 15  1  0
  1 38  1  0
  1 39  1  0
  1 40  1  0
  3 41  1  0
  5 42  1  0
  5 43  1  0
  5 44  1  0
  7 45  1  0
  7 46  1  0
  8 47  1  0
  8 48  1  0
  9 49  1  0
 13 50  1  0
 14 51  1  0
 17 52  1  0
 18 53  1  0
 18 54  1  0
 20 55  1  0
 21 56  1  0
 22 57  1  0
 24 58  1  0
 25 59  1  0
 25 60  1  0
 27 61  1  0
 27 62  1  0
 28 63  1  0
 29 64  1  0
 29 65  1  0
 30 66  1  0
 30 67  1  0
 31 68  1  0
 31 69  1  0
 32 70  1  0
 32 71  1  0
 33 72  1  0
 33 73  1  0
 34 74  1  0
 34 75  1  0
 35 76  1  0
 35 77  1  0
M  END
$$$$
