
     RDKit          3D

 72 74  0  0  0  0  0  0  0  0999 V2000
    8.2427    2.1210   -0.0071 C   0  0  0  0  0  0  0  0  0  0  0  0
    7.7056    1.6364    1.2747 N   0  0  0  0  0  0  0  0  0  0  0  0
    7.0129    2.7117    2.0040 C   0  0  0  0  0  0  0  0  0  0  0  0
    6.8844    0.4115    1.1348 C   0  0  0  0  0  0  0  0  0  0  0  0
    5.6300    0.5789    0.2515 C   0  0  0  0  0  0  0  0  0  0  0  0
    4.8953   -0.6831    0.1569 N   0  0  0  0  0  0  0  0  0  0  0  0
    3.7824   -0.8411   -0.7336 C   0  0  0  0  0  0  0  0  0  0  0  0
    3.3953    0.1309   -1.4393 O   0  0  0  0  0  0  0  0  0  0  0  0
    3.1388   -2.1912   -0.8894 C   0  0  0  0  0  0  0  0  0  0  0  0
    1.6853   -2.0820   -1.2759 C   0  0  0  0  0  0  0  0  0  0  0  0
    1.3033   -2.1740   -2.6134 C   0  0  0  0  0  0  0  0  0  0  0  0
   -0.0377   -2.0608   -2.9680 C   0  0  0  0  0  0  0  0  0  0  0  0
   -1.0398   -1.8412   -2.0113 C   0  0  0  0  0  0  0  0  0  0  0  0
   -0.6550   -1.7175   -0.6330 C   0  0  0  0  0  0  0  0  0  0  0  0
    0.7114   -1.8458   -0.3007 C   0  0  0  0  0  0  0  0  0  0  0  0
   -1.5991   -1.4754    0.5308 C   0  0  0  0  0  0  0  0  0  0  0  0
   -2.0895   -0.0773    0.5973 N   0  0  0  0  0  0  0  0  0  0  0  0
   -0.9936    0.8575    0.9510 C   0  0  0  0  0  0  0  0  0  0  0  0
   -1.3829    2.2770    0.6337 C   0  0  0  0  0  0  0  0  0  0  0  0
   -1.6279    3.2018    1.6631 C   0  0  0  0  0  0  0  0  0  0  0  0
   -2.0189    4.5091    1.3559 C   0  0  0  0  0  0  0  0  0  0  0  0
   -2.1662    4.9011    0.0234 C   0  0  0  0  0  0  0  0  0  0  0  0
   -1.9232    3.9871   -1.0056 C   0  0  0  0  0  0  0  0  0  0  0  0
   -1.5330    2.6783   -0.7035 C   0  0  0  0  0  0  0  0  0  0  0  0
   -3.2366    0.0417    1.5434 C   0  0  0  0  0  0  0  0  0  0  0  0
   -4.4289    0.6203    0.8273 C   0  0  0  0  0  0  0  0  0  0  0  0
   -4.4230    1.8475    0.5415 O   0  0  0  0  0  0  0  0  0  0  0  0
   -5.5356   -0.1830    0.3832 N   0  0  0  0  0  0  0  0  0  0  0  0
   -6.0682   -1.3386    1.1091 C   0  0  0  0  0  0  0  0  0  0  0  0
   -5.4563   -2.6698    0.6411 C   0  0  0  0  0  0  0  0  0  0  0  0
   -5.5591   -2.9181   -0.8833 C   0  0  0  0  0  0  0  0  0  0  0  0
   -4.1905   -3.0182   -1.5890 C   0  0  0  0  0  0  0  0  0  0  0  0
   -3.6133   -1.6406   -1.9304 C   0  0  0  0  0  0  0  0  0  0  0  0
   -2.3404   -1.7500   -2.5572 O   0  0  0  0  0  0  0  0  0  0  0  0
    9.0526    2.8605    0.1825 H   0  0  0  0  0  0  0  0  0  0  0  0
    8.6786    1.2836   -0.5916 H   0  0  0  0  0  0  0  0  0  0  0  0
    7.4551    2.6158   -0.6164 H   0  0  0  0  0  0  0  0  0  0  0  0
    7.7415    3.5082    2.2698 H   0  0  0  0  0  0  0  0  0  0  0  0
    6.5819    2.3248    2.9539 H   0  0  0  0  0  0  0  0  0  0  0  0
    6.2021    3.1663    1.3935 H   0  0  0  0  0  0  0  0  0  0  0  0
    7.5177   -0.3980    0.7084 H   0  0  0  0  0  0  0  0  0  0  0  0
    6.5727    0.0637    2.1450 H   0  0  0  0  0  0  0  0  0  0  0  0
    4.9566    1.3501    0.6779 H   0  0  0  0  0  0  0  0  0  0  0  0
    5.9304    0.8881   -0.7705 H   0  0  0  0  0  0  0  0  0  0  0  0
    5.2113   -1.5114    0.7131 H   0  0  0  0  0  0  0  0  0  0  0  0
    3.7015   -2.7659   -1.6568 H   0  0  0  0  0  0  0  0  0  0  0  0
    3.2219   -2.7570    0.0640 H   0  0  0  0  0  0  0  0  0  0  0  0
    2.0451   -2.3344   -3.3864 H   0  0  0  0  0  0  0  0  0  0  0  0
   -0.3072   -2.1422   -4.0137 H   0  0  0  0  0  0  0  0  0  0  0  0
    1.0281   -1.7537    0.7317 H   0  0  0  0  0  0  0  0  0  0  0  0
   -1.1185   -1.7451    1.4997 H   0  0  0  0  0  0  0  0  0  0  0  0
   -2.4255   -2.1903    0.4323 H   0  0  0  0  0  0  0  0  0  0  0  0
   -0.0809    0.6444    0.3566 H   0  0  0  0  0  0  0  0  0  0  0  0
   -0.7039    0.7424    2.0209 H   0  0  0  0  0  0  0  0  0  0  0  0
   -1.5226    2.9110    2.7010 H   0  0  0  0  0  0  0  0  0  0  0  0
   -2.2103    5.2175    2.1515 H   0  0  0  0  0  0  0  0  0  0  0  0
   -2.4687    5.9143   -0.2111 H   0  0  0  0  0  0  0  0  0  0  0  0
   -2.0385    4.2920   -2.0376 H   0  0  0  0  0  0  0  0  0  0  0  0
   -1.3532    1.9757   -1.5088 H   0  0  0  0  0  0  0  0  0  0  0  0
   -3.0015    0.7055    2.4047 H   0  0  0  0  0  0  0  0  0  0  0  0
   -3.5046   -0.9252    2.0140 H   0  0  0  0  0  0  0  0  0  0  0  0
   -6.1588    0.2398   -0.3414 H   0  0  0  0  0  0  0  0  0  0  0  0
   -5.9131   -1.2086    2.2017 H   0  0  0  0  0  0  0  0  0  0  0  0
   -7.1671   -1.3856    0.9440 H   0  0  0  0  0  0  0  0  0  0  0  0
   -6.0119   -3.4808    1.1620 H   0  0  0  0  0  0  0  0  0  0  0  0
   -4.4206   -2.7615    1.0050 H   0  0  0  0  0  0  0  0  0  0  0  0
   -6.0829   -3.8868   -1.0356 H   0  0  0  0  0  0  0  0  0  0  0  0
   -6.1931   -2.1519   -1.3790 H   0  0  0  0  0  0  0  0  0  0  0  0
   -3.4762   -3.6136   -0.9837 H   0  0  0  0  0  0  0  0  0  0  0  0
   -4.3289   -3.5734   -2.5429 H   0  0  0  0  0  0  0  0  0  0  0  0
   -4.2985   -1.1581   -2.6592 H   0  0  0  0  0  0  0  0  0  0  0  0
   -3.5795   -0.9641   -1.0805 H   0  0  0  0  0  0  0  0  0  0  0  0
  1  2  1  0
  2  3  1  0
  2  4  1  0
  4  5  1  0
  5  6  1  0
  6  7  1  0
  7  8  2  0
  7  9  1  0
  9 10  1  0
 10 11  2  0
 11 12  1  0
 12 13  2  0
 13 14  1  0
 14 15  2  0
 14 16  1  0
 16 17  1  0
 17 18  1  0
 18 19  1  0
 19 20  2  0
 20 21  1  0
 21 22  2  0
 22 23  1  0
 23 24  2  0
 17 25  1  0
 25 26  1  0
 26 27  2  0
 26 28  1  0
 28 29  1  0
 29 30  1  0
 30 31  1  0
 31 32  1  0
 32 33  1  0
 33 34  1  0
 15 10  1  0
 24 19  1  0
 34 13  1  0
  1 35  1  0
  1 36  1  0
  1 37  1  0
  3 38  1  0
  3 39  1  0
  3 40  1  0
  4 41  1  0
  4 42  1  0
  5 43  1  0
  5 44  1  0
  6 45  1  0
  9 46  1  0
  9 47  1  0
 11 48  1  0
 12 49  1  0
 15 50  1  0
 16 51  1  0
 16 52  1  0
 18 53  1  0
 18 54  1  0
 20 55  1  0
 21 56  1  0
 22 57  1  0
 23 58  1  0
 24 59  1  0
 25 60  1  0
 25 61  1  0
 28 62  1  0
 29 63  1  0
 29 64  1  0
 30 65  1  0
 30 66  1  0
 31 67  1  0
 31 68  1  0
 32 69  1  0
 32 70  1  0
 33 71  1  0
 33 72  1  0
M  END
$$$$
