
     RDKit          3D

 79 82  0  0  0  0  0  0  0  0999 V2000
   -1.5122   -0.2529    3.2957 C   0  0  0  0  0  0  0  0  0  0  0  0
   -1.6496   -1.5841    2.6225 C   0  0  0  0  0  0  0  0  0  0  0  0
   -1.7861   -2.5977    3.3583 O   0  0  0  0  0  0  0  0  0  0  0  0
   -1.6379   -1.7278    1.1752 N   0  0  0  0  0  0  0  0  0  0  0  0
   -2.1066   -3.0130    0.6135 C   0  0  0  0  0  0  0  0  0  0  0  0
   -3.6511   -3.1392    0.5184 C   0  0  0  0  0  0  0  0  0  0  0  0
   -4.4370   -2.2725    1.5175 C   0  0  0  0  0  0  0  0  0  0  0  0
   -5.9591   -2.3193    1.3215 C   0  0  0  0  0  0  0  0  0  0  0  0
   -6.4788   -1.7139    0.0019 C   0  0  0  0  0  0  0  0  0  0  0  0
   -5.9775   -0.2760   -0.2940 C   0  0  0  0  0  0  0  0  0  0  0  0
   -4.8463   -0.2236   -1.3470 C   0  0  0  0  0  0  0  0  0  0  0  0
   -3.5652    0.3091   -0.7858 N   0  0  0  0  0  0  0  0  0  0  0  0
   -3.5021    1.7944   -0.9899 C   0  0  0  0  0  0  0  0  0  0  0  0
   -3.1217    2.6136    0.2743 C   0  0  0  0  0  0  0  0  0  0  0  0
   -3.7781    2.0964    1.5570 C   0  0  0  0  0  0  0  0  0  0  0  0
   -1.6113    2.7958    0.4535 C   0  0  0  0  0  0  0  0  0  0  0  0
   -2.4420   -0.3855   -1.4745 C   0  0  0  0  0  0  0  0  0  0  0  0
   -1.0964   -0.2277   -0.7988 C   0  0  0  0  0  0  0  0  0  0  0  0
   -0.1272    0.5424   -1.4749 C   0  0  0  0  0  0  0  0  0  0  0  0
    1.1849    0.6547   -0.9961 C   0  0  0  0  0  0  0  0  0  0  0  0
    2.1867    1.4617   -1.7332 C   0  0  0  0  0  0  0  0  0  0  0  0
    1.7976    2.4056   -2.4744 O   0  0  0  0  0  0  0  0  0  0  0  0
    3.5966    1.1926   -1.6131 N   0  0  0  0  0  0  0  0  0  0  0  0
    4.5596    2.2917   -1.7082 C   0  0  0  0  0  0  0  0  0  0  0  0
    5.7405    2.0371   -0.7688 C   0  0  0  0  0  0  0  0  0  0  0  0
    6.2467    0.6602   -0.9056 N   0  0  0  0  0  0  0  0  0  0  0  0
    7.6349    0.3841   -0.6130 C   0  0  0  0  0  0  0  0  0  0  0  0
    8.0264   -0.8682   -0.2423 N   0  0  0  0  0  0  0  0  0  0  0  0
    9.3228   -1.1432    0.0578 C   0  0  0  0  0  0  0  0  0  0  0  0
   10.2812   -0.1342   -0.0118 C   0  0  0  0  0  0  0  0  0  0  0  0
    9.8733    1.1417   -0.3961 C   0  0  0  0  0  0  0  0  0  0  0  0
    8.5668    1.3763   -0.6868 N   0  0  0  0  0  0  0  0  0  0  0  0
    5.2721   -0.4421   -0.8851 C   0  0  0  0  0  0  0  0  0  0  0  0
    4.1113   -0.1598   -1.8381 C   0  0  0  0  0  0  0  0  0  0  0  0
    1.5317    0.0053    0.1919 C   0  0  0  0  0  0  0  0  0  0  0  0
    0.5977   -0.7713    0.8705 C   0  0  0  0  0  0  0  0  0  0  0  0
   -0.7251   -0.9028    0.4049 C   0  0  0  0  0  0  0  0  0  0  0  0
   -2.4700    0.0084    3.7924 H   0  0  0  0  0  0  0  0  0  0  0  0
   -1.2546    0.5473    2.5810 H   0  0  0  0  0  0  0  0  0  0  0  0
   -0.7111   -0.3061    4.0618 H   0  0  0  0  0  0  0  0  0  0  0  0
   -1.7138   -3.8516    1.2279 H   0  0  0  0  0  0  0  0  0  0  0  0
   -1.6706   -3.1790   -0.3974 H   0  0  0  0  0  0  0  0  0  0  0  0
   -3.9253   -4.2037    0.6817 H   0  0  0  0  0  0  0  0  0  0  0  0
   -3.9692   -2.9084   -0.5122 H   0  0  0  0  0  0  0  0  0  0  0  0
   -4.2263   -2.6413    2.5433 H   0  0  0  0  0  0  0  0  0  0  0  0
   -4.1026   -1.2203    1.4638 H   0  0  0  0  0  0  0  0  0  0  0  0
   -6.3039   -3.3734    1.3942 H   0  0  0  0  0  0  0  0  0  0  0  0
   -6.4278   -1.7673    2.1649 H   0  0  0  0  0  0  0  0  0  0  0  0
   -7.5875   -1.6748    0.0871 H   0  0  0  0  0  0  0  0  0  0  0  0
   -6.2816   -2.4116   -0.8398 H   0  0  0  0  0  0  0  0  0  0  0  0
   -6.8348    0.3089   -0.6939 H   0  0  0  0  0  0  0  0  0  0  0  0
   -5.6886    0.2329    0.6445 H   0  0  0  0  0  0  0  0  0  0  0  0
   -5.1844    0.3753   -2.2228 H   0  0  0  0  0  0  0  0  0  0  0  0
   -4.7268   -1.2253   -1.8061 H   0  0  0  0  0  0  0  0  0  0  0  0
   -4.4935    2.2024   -1.2940 H   0  0  0  0  0  0  0  0  0  0  0  0
   -2.8263    2.0702   -1.8303 H   0  0  0  0  0  0  0  0  0  0  0  0
   -3.5196    3.6406    0.1157 H   0  0  0  0  0  0  0  0  0  0  0  0
   -4.8806    2.1909    1.4795 H   0  0  0  0  0  0  0  0  0  0  0  0
   -3.4499    2.6981    2.4302 H   0  0  0  0  0  0  0  0  0  0  0  0
   -3.5092    1.0397    1.7370 H   0  0  0  0  0  0  0  0  0  0  0  0
   -1.1277    1.8604    0.7726 H   0  0  0  0  0  0  0  0  0  0  0  0
   -1.1464    3.1488   -0.4915 H   0  0  0  0  0  0  0  0  0  0  0  0
   -1.4156    3.5603    1.2354 H   0  0  0  0  0  0  0  0  0  0  0  0
   -2.3952   -0.0643   -2.5406 H   0  0  0  0  0  0  0  0  0  0  0  0
   -2.6158   -1.4706   -1.5472 H   0  0  0  0  0  0  0  0  0  0  0  0
   -0.3923    1.0440   -2.3985 H   0  0  0  0  0  0  0  0  0  0  0  0
    4.9229    2.3743   -2.7557 H   0  0  0  0  0  0  0  0  0  0  0  0
    4.0845    3.2565   -1.4253 H   0  0  0  0  0  0  0  0  0  0  0  0
    6.5316    2.7794   -1.0075 H   0  0  0  0  0  0  0  0  0  0  0  0
    5.4172    2.2006    0.2831 H   0  0  0  0  0  0  0  0  0  0  0  0
    9.6067   -2.1446    0.3546 H   0  0  0  0  0  0  0  0  0  0  0  0
   11.3177   -0.3377    0.2262 H   0  0  0  0  0  0  0  0  0  0  0  0
   10.5939    1.9472   -0.4602 H   0  0  0  0  0  0  0  0  0  0  0  0
    5.7460   -1.3985   -1.2011 H   0  0  0  0  0  0  0  0  0  0  0  0
    4.8850   -0.5675    0.1496 H   0  0  0  0  0  0  0  0  0  0  0  0
    4.4663   -0.2436   -2.8881 H   0  0  0  0  0  0  0  0  0  0  0  0
    3.3219   -0.9275   -1.6889 H   0  0  0  0  0  0  0  0  0  0  0  0
    2.5277    0.1039    0.6053 H   0  0  0  0  0  0  0  0  0  0  0  0
    0.9101   -1.2807    1.7724 H   0  0  0  0  0  0  0  0  0  0  0  0
  1  2  1  0
  2  3  2  0
  2  4  1  0
  4  5  1  0
  5  6  1  0
  6  7  1  0
  7  8  1  0
  8  9  1  0
  9 10  1  0
 10 11  1  0
 11 12  1  0
 12 13  1  0
 13 14  1  0
 14 15  1  0
 14 16  1  0
 12 17  1  0
 17 18  1  0
 18 19  2  0
 19 20  1  0
 20 21  1  0
 21 22  2  0
 21 23  1  0
 23 24  1  0
 24 25  1  0
 25 26  1  0
 26 27  1  0
 27 28  2  0
 28 29  1  0
 29 30  2  0
 30 31  1  0
 31 32  2  0
 26 33  1  0
 33 34  1  0
 20 35  2  0
 35 36  1  0
 36 37  2  0
 37  4  1  0
 37 18  1  0
 34 23  1  0
 32 27  1  0
  1 38  1  0
  1 39  1  0
  1 40  1  0
  5 41  1  0
  5 42  1  0
  6 43  1  0
  6 44  1  0
  7 45  1  0
  7 46  1  0
  8 47  1  0
  8 48  1  0
  9 49  1  0
  9 50  1  0
 10 51  1  0
 10 52  1  0
 11 53  1  0
 11 54  1  0
 13 55  1  0
 13 56  1  0
 14 57  1  0
 15 58  1  0
 15 59  1  0
 15 60  1  0
 16 61  1  0
 16 62  1  0
 16 63  1  0
 17 64  1  0
 17 65  1  0
 19 66  1  0
 24 67  1  0
 24 68  1  0
 25 69  1  0
 25 70  1  0
 29 71  1  0
 30 72  1  0
 31 73  1  0
 33 74  1  0
 33 75  1  0
 34 76  1  0
 34 77  1  0
 35 78  1  0
 36 79  1  0
M  END
$$$$
