
     RDKit          3D

 69 72  0  0  0  0  0  0  0  0999 V2000
   -7.8122    1.1342    0.7958 C   0  0  0  0  0  0  0  0  0  0  0  0
   -6.6414    0.4441    0.2339 N   0  0  0  0  0  0  0  0  0  0  0  0
   -5.5763    0.3543    1.2486 C   0  0  0  0  0  0  0  0  0  0  0  0
   -4.3964   -0.4494    0.6914 C   0  0  0  0  0  0  0  0  0  0  0  0
   -3.7941    0.1911   -0.5970 C   0  0  0  0  0  0  0  0  0  0  0  0
   -3.0777    1.5649   -0.3167 C   0  0  0  0  0  0  0  0  0  0  0  0
   -1.8984    1.5718    0.6904 C   0  0  0  0  0  0  0  0  0  0  0  0
   -0.5415    1.2384    0.0529 C   0  0  0  0  0  0  0  0  0  0  0  0
    0.6000    1.3594    1.0765 C   0  0  0  0  0  0  0  0  0  0  0  0
    1.8765    0.8353    0.5345 N   0  0  0  0  0  0  0  0  0  0  0  0
    2.9613    1.7695    0.2701 C   0  0  0  0  0  0  0  0  0  0  0  0
    2.7900    3.0108    0.4356 O   0  0  0  0  0  0  0  0  0  0  0  0
    4.2976    1.3197   -0.1618 C   0  0  0  0  0  0  0  0  0  0  0  0
    4.4940    0.7586   -1.4333 C   0  0  0  0  0  0  0  0  0  0  0  0
    5.7164    0.2845   -1.7929 N   0  0  0  0  0  0  0  0  0  0  0  0
    6.7868    0.3646   -0.9579 C   0  0  0  0  0  0  0  0  0  0  0  0
    8.0242   -0.1590   -1.3489 C   0  0  0  0  0  0  0  0  0  0  0  0
    9.1199   -0.0855   -0.4813 C   0  0  0  0  0  0  0  0  0  0  0  0
    8.9842    0.5160    0.7775 C   0  0  0  0  0  0  0  0  0  0  0  0
    7.7526    1.0412    1.1780 C   0  0  0  0  0  0  0  0  0  0  0  0
    6.6472    0.9636    0.3177 C   0  0  0  0  0  0  0  0  0  0  0  0
    5.3903    1.4445    0.7058 C   0  0  0  0  0  0  0  0  0  0  0  0
    1.9695   -0.5594    0.0357 C   0  0  0  0  0  0  0  0  0  0  0  0
    1.2912   -1.6161    0.9461 C   0  0  0  0  0  0  0  0  0  0  0  0
    0.8919   -2.9131    0.1893 C   0  0  0  0  0  0  0  0  0  0  0  0
    1.9796   -3.3722   -0.5722 O   0  0  0  0  0  0  0  0  0  0  0  0
   -0.3428   -2.7343   -0.7391 C   0  0  0  0  0  0  0  0  0  0  0  0
   -0.4740   -3.8398   -1.5979 O   0  0  0  0  0  0  0  0  0  0  0  0
   -1.6636   -2.5259    0.0376 C   0  0  0  0  0  0  0  0  0  0  0  0
   -2.7088   -2.1006   -0.8329 O   0  0  0  0  0  0  0  0  0  0  0  0
   -2.8229   -0.7740   -1.2652 C   0  0  0  0  0  0  0  0  0  0  0  0
   -2.1881   -0.4117   -2.2917 O   0  0  0  0  0  0  0  0  0  0  0  0
   -4.9635    0.4161   -1.5983 C   0  0  0  0  0  0  0  0  0  0  0  0
   -6.1631    1.1509   -0.9712 C   0  0  0  0  0  0  0  0  0  0  0  0
   -8.2251    0.5493    1.6473 H   0  0  0  0  0  0  0  0  0  0  0  0
   -7.5465    2.1612    1.1399 H   0  0  0  0  0  0  0  0  0  0  0  0
   -8.6157    1.2115    0.0313 H   0  0  0  0  0  0  0  0  0  0  0  0
   -5.9579   -0.1846    2.1431 H   0  0  0  0  0  0  0  0  0  0  0  0
   -5.2494    1.3632    1.5824 H   0  0  0  0  0  0  0  0  0  0  0  0
   -4.7853   -1.4642    0.4538 H   0  0  0  0  0  0  0  0  0  0  0  0
   -3.6376   -0.5858    1.4838 H   0  0  0  0  0  0  0  0  0  0  0  0
   -3.8187    2.2949    0.0699 H   0  0  0  0  0  0  0  0  0  0  0  0
   -2.7341    2.0082   -1.2799 H   0  0  0  0  0  0  0  0  0  0  0  0
   -1.8219    2.5969    1.1147 H   0  0  0  0  0  0  0  0  0  0  0  0
   -2.0875    0.9008    1.5509 H   0  0  0  0  0  0  0  0  0  0  0  0
   -0.5756    0.2083   -0.3414 H   0  0  0  0  0  0  0  0  0  0  0  0
   -0.3382    1.9282   -0.7948 H   0  0  0  0  0  0  0  0  0  0  0  0
    0.3429    0.8431    2.0219 H   0  0  0  0  0  0  0  0  0  0  0  0
    0.6877    2.4259    1.3614 H   0  0  0  0  0  0  0  0  0  0  0  0
    3.6640    0.6761   -2.1243 H   0  0  0  0  0  0  0  0  0  0  0  0
    8.1396   -0.6166   -2.3237 H   0  0  0  0  0  0  0  0  0  0  0  0
   10.0726   -0.5001   -0.7785 H   0  0  0  0  0  0  0  0  0  0  0  0
    9.8321    0.5602    1.4490 H   0  0  0  0  0  0  0  0  0  0  0  0
    7.6640    1.5079    2.1554 H   0  0  0  0  0  0  0  0  0  0  0  0
    5.2514    1.8919    1.6847 H   0  0  0  0  0  0  0  0  0  0  0  0
    1.5643   -0.5827   -0.9962 H   0  0  0  0  0  0  0  0  0  0  0  0
    3.0252   -0.8785   -0.0408 H   0  0  0  0  0  0  0  0  0  0  0  0
    2.0212   -1.8855    1.7427 H   0  0  0  0  0  0  0  0  0  0  0  0
    0.4140   -1.2268    1.4746 H   0  0  0  0  0  0  0  0  0  0  0  0
    0.6328   -3.6892    0.9477 H   0  0  0  0  0  0  0  0  0  0  0  0
    2.6432   -3.7370    0.0719 H   0  0  0  0  0  0  0  0  0  0  0  0
   -0.1715   -1.8554   -1.3847 H   0  0  0  0  0  0  0  0  0  0  0  0
   -0.5611   -4.6515   -1.0346 H   0  0  0  0  0  0  0  0  0  0  0  0
   -1.5610   -1.7852    0.8530 H   0  0  0  0  0  0  0  0  0  0  0  0
   -1.9658   -3.4845    0.5123 H   0  0  0  0  0  0  0  0  0  0  0  0
   -5.3248   -0.5671   -1.9755 H   0  0  0  0  0  0  0  0  0  0  0  0
   -4.6114    0.9913   -2.4814 H   0  0  0  0  0  0  0  0  0  0  0  0
   -5.9016    2.2050   -0.7393 H   0  0  0  0  0  0  0  0  0  0  0  0
   -6.9730    1.1783   -1.7312 H   0  0  0  0  0  0  0  0  0  0  0  0
  1  2  1  0
  2  3  1  0
  3  4  1  0
  4  5  1  0
  5  6  1  0
  6  7  1  0
  7  8  1  0
  8  9  1  0
  9 10  1  0
 10 11  1  0
 11 12  2  0
 11 13  1  0
 13 14  2  0
 14 15  1  0
 15 16  2  0
 16 17  1  0
 17 18  2  0
 18 19  1  0
 19 20  2  0
 20 21  1  0
 21 22  2  0
 10 23  1  0
 23 24  1  0
 24 25  1  0
 25 26  1  0
 25 27  1  0
 27 28  1  0
 27 29  1  0
 29 30  1  0
 30 31  1  0
 31 32  2  0
  5 33  1  0
 33 34  1  0
 34  2  1  0
 31  5  1  0
 22 13  1  0
 21 16  1  0
  1 35  1  0
  1 36  1  0
  1 37  1  0
  3 38  1  0
  3 39  1  0
  4 40  1  0
  4 41  1  0
  6 42  1  0
  6 43  1  0
  7 44  1  0
  7 45  1  0
  8 46  1  0
  8 47  1  0
  9 48  1  0
  9 49  1  0
 14 50  1  0
 17 51  1  0
 18 52  1  0
 19 53  1  0
 20 54  1  0
 22 55  1  0
 23 56  1  0
 23 57  1  0
 24 58  1  0
 24 59  1  0
 25 60  1  0
 26 61  1  0
 27 62  1  0
 28 63  1  0
 29 64  1  0
 29 65  1  0
 33 66  1  0
 33 67  1  0
 34 68  1  0
 34 69  1  0
M  END
$$$$
