
     RDKit          3D

 82 85  0  0  0  0  0  0  0  0999 V2000
    7.9574   -1.4797    1.4368 C   0  0  0  0  0  0  0  0  0  0  0  0
    7.8877   -0.3848    0.3607 C   0  0  0  0  0  0  0  0  0  0  0  0
    7.0068   -0.6944   -0.7908 N   0  0  0  0  0  0  0  0  0  0  0  0
    7.4468   -1.8438   -1.6003 C   0  0  0  0  0  0  0  0  0  0  0  0
    6.3218   -2.8643   -1.5990 C   0  0  0  0  0  0  0  0  0  0  0  0
    5.0817   -2.0556   -1.3037 C   0  0  0  0  0  0  0  0  0  0  0  0
    5.5822   -0.8844   -0.4570 C   0  0  0  0  0  0  0  0  0  0  0  0
    4.8037    0.4123   -0.7322 C   0  0  0  0  0  0  0  0  0  0  0  0
    3.3905    0.2691   -0.3797 N   0  0  0  0  0  0  0  0  0  0  0  0
    2.4630    1.3514   -0.5264 C   0  0  0  0  0  0  0  0  0  0  0  0
    2.8589    2.4739   -0.9450 O   0  0  0  0  0  0  0  0  0  0  0  0
    1.0268    1.1536   -0.1234 C   0  0  0  0  0  0  0  0  0  0  0  0
    0.9105    1.2047    1.4147 C   0  0  0  0  0  0  0  0  0  0  0  0
   -0.5048    1.2618    1.9323 C   0  0  0  0  0  0  0  0  0  0  0  0
   -1.0115    2.3912    2.1757 O   0  0  0  0  0  0  0  0  0  0  0  0
   -1.2636    0.0823    2.2441 N   0  0  0  0  0  0  0  0  0  0  0  0
   -1.2613   -1.1393    1.4367 C   0  0  0  0  0  0  0  0  0  0  0  0
   -0.3503   -2.1975    2.0720 C   0  0  0  0  0  0  0  0  0  0  0  0
   -2.6694   -1.6596    1.2952 C   0  0  0  0  0  0  0  0  0  0  0  0
   -3.2092   -2.2695    2.2582 O   0  0  0  0  0  0  0  0  0  0  0  0
   -3.4025   -1.4951    0.0685 N   0  0  0  0  0  0  0  0  0  0  0  0
   -3.7194   -2.7064   -0.6906 C   0  0  0  0  0  0  0  0  0  0  0  0
   -3.9272   -0.1827   -0.3676 C   0  0  0  0  0  0  0  0  0  0  0  0
   -4.6026    0.5932    0.7880 C   0  0  0  0  0  0  0  0  0  0  0  0
   -5.6563   -0.2063    1.5191 C   0  0  0  0  0  0  0  0  0  0  0  0
   -6.7492   -0.7605    0.8263 C   0  0  0  0  0  0  0  0  0  0  0  0
   -7.7419   -1.4564    1.5201 C   0  0  0  0  0  0  0  0  0  0  0  0
   -7.6617   -1.5899    2.9095 C   0  0  0  0  0  0  0  0  0  0  0  0
   -6.5876   -1.0314    3.6078 C   0  0  0  0  0  0  0  0  0  0  0  0
   -5.5944   -0.3335    2.9188 C   0  0  0  0  0  0  0  0  0  0  0  0
   -2.8263    0.6592   -1.0284 C   0  0  0  0  0  0  0  0  0  0  0  0
   -3.4080    1.8280   -1.6032 O   0  0  0  0  0  0  0  0  0  0  0  0
   -2.7647    2.8379   -2.3450 C   0  0  0  0  0  0  0  0  0  0  0  0
   -3.6020    3.8364   -2.8638 C   0  0  0  0  0  0  0  0  0  0  0  0
   -3.0881    4.8710   -3.6485 C   0  0  0  0  0  0  0  0  0  0  0  0
   -1.7214    4.9245   -3.9300 C   0  0  0  0  0  0  0  0  0  0  0  0
   -0.8632    3.9542   -3.4093 C   0  0  0  0  0  0  0  0  0  0  0  0
   -1.3629    2.9112   -2.6096 C   0  0  0  0  0  0  0  0  0  0  0  0
   -0.3867    1.9548   -2.0710 C   0  0  0  0  0  0  0  0  0  0  0  0
   -0.0017    0.9942   -2.7919 O   0  0  0  0  0  0  0  0  0  0  0  0
    0.1684    2.1552   -0.7637 N   0  0  0  0  0  0  0  0  0  0  0  0
    8.1017   -2.4869    1.0017 H   0  0  0  0  0  0  0  0  0  0  0  0
    8.8208   -1.2700    2.1045 H   0  0  0  0  0  0  0  0  0  0  0  0
    7.0504   -1.4836    2.0722 H   0  0  0  0  0  0  0  0  0  0  0  0
    7.5517    0.5586    0.8341 H   0  0  0  0  0  0  0  0  0  0  0  0
    8.9159   -0.1972   -0.0196 H   0  0  0  0  0  0  0  0  0  0  0  0
    8.3950   -2.3002   -1.2425 H   0  0  0  0  0  0  0  0  0  0  0  0
    7.6171   -1.4904   -2.6432 H   0  0  0  0  0  0  0  0  0  0  0  0
    6.2435   -3.3901   -2.5753 H   0  0  0  0  0  0  0  0  0  0  0  0
    6.4904   -3.6058   -0.7881 H   0  0  0  0  0  0  0  0  0  0  0  0
    4.6433   -1.6991   -2.2616 H   0  0  0  0  0  0  0  0  0  0  0  0
    4.3276   -2.6657   -0.7583 H   0  0  0  0  0  0  0  0  0  0  0  0
    5.4378   -1.1502    0.6091 H   0  0  0  0  0  0  0  0  0  0  0  0
    4.8945    0.6878   -1.8047 H   0  0  0  0  0  0  0  0  0  0  0  0
    5.2416    1.2299   -0.1234 H   0  0  0  0  0  0  0  0  0  0  0  0
    3.0393   -0.6314    0.0200 H   0  0  0  0  0  0  0  0  0  0  0  0
    0.7327    0.1442   -0.4726 H   0  0  0  0  0  0  0  0  0  0  0  0
    1.4297    0.3322    1.8600 H   0  0  0  0  0  0  0  0  0  0  0  0
    1.4455    2.1066    1.7865 H   0  0  0  0  0  0  0  0  0  0  0  0
   -1.9518    0.1503    3.0263 H   0  0  0  0  0  0  0  0  0  0  0  0
   -0.8851   -0.9321    0.4208 H   0  0  0  0  0  0  0  0  0  0  0  0
    0.7058   -1.8574    2.0636 H   0  0  0  0  0  0  0  0  0  0  0  0
   -0.4078   -3.1448    1.4923 H   0  0  0  0  0  0  0  0  0  0  0  0
   -0.6488   -2.3960    3.1260 H   0  0  0  0  0  0  0  0  0  0  0  0
   -4.2144   -2.4692   -1.6567 H   0  0  0  0  0  0  0  0  0  0  0  0
   -2.7816   -3.2589   -0.9186 H   0  0  0  0  0  0  0  0  0  0  0  0
   -4.3917   -3.3601   -0.0947 H   0  0  0  0  0  0  0  0  0  0  0  0
   -4.7007   -0.3411   -1.1474 H   0  0  0  0  0  0  0  0  0  0  0  0
   -3.8247    0.9450    1.4975 H   0  0  0  0  0  0  0  0  0  0  0  0
   -5.0914    1.5042    0.3801 H   0  0  0  0  0  0  0  0  0  0  0  0
   -6.8404   -0.6442   -0.2453 H   0  0  0  0  0  0  0  0  0  0  0  0
   -8.5806   -1.8781    0.9824 H   0  0  0  0  0  0  0  0  0  0  0  0
   -8.4346   -2.1186    3.4483 H   0  0  0  0  0  0  0  0  0  0  0  0
   -6.5311   -1.1276    4.6847 H   0  0  0  0  0  0  0  0  0  0  0  0
   -4.7756    0.1067    3.4763 H   0  0  0  0  0  0  0  0  0  0  0  0
   -2.0906    0.9600   -0.2625 H   0  0  0  0  0  0  0  0  0  0  0  0
   -2.3364    0.0578   -1.8254 H   0  0  0  0  0  0  0  0  0  0  0  0
   -4.6702    3.7993   -2.6657 H   0  0  0  0  0  0  0  0  0  0  0  0
   -3.7527    5.6265   -4.0463 H   0  0  0  0  0  0  0  0  0  0  0  0
   -1.3299    5.7218   -4.5490 H   0  0  0  0  0  0  0  0  0  0  0  0
    0.1960    4.0172   -3.6322 H   0  0  0  0  0  0  0  0  0  0  0  0
   -0.0089    3.0656   -0.2767 H   0  0  0  0  0  0  0  0  0  0  0  0
  1  2  1  0
  2  3  1  0
  3  4  1  0
  4  5  1  0
  5  6  1  0
  6  7  1  0
  7  8  1  0
  8  9  1  0
  9 10  1  0
 10 11  2  0
 10 12  1  0
 12 13  1  0
 13 14  1  0
 14 15  2  0
 14 16  1  0
 16 17  1  0
 17 18  1  0
 17 19  1  0
 19 20  2  0
 19 21  1  0
 21 22  1  0
 21 23  1  0
 23 24  1  0
 24 25  1  0
 25 26  2  0
 26 27  1  0
 27 28  2  0
 28 29  1  0
 29 30  2  0
 23 31  1  0
 31 32  1  0
 32 33  1  0
 33 34  2  0
 34 35  1  0
 35 36  2  0
 36 37  1  0
 37 38  2  0
 38 39  1  0
 39 40  2  0
 39 41  1  0
  7  3  1  0
 41 12  1  0
 30 25  1  0
 38 33  1  0
  1 42  1  0
  1 43  1  0
  1 44  1  0
  2 45  1  0
  2 46  1  0
  4 47  1  0
  4 48  1  0
  5 49  1  0
  5 50  1  0
  6 51  1  0
  6 52  1  0
  7 53  1  0
  8 54  1  0
  8 55  1  0
  9 56  1  0
 12 57  1  0
 13 58  1  0
 13 59  1  0
 16 60  1  0
 17 61  1  0
 18 62  1  0
 18 63  1  0
 18 64  1  0
 22 65  1  0
 22 66  1  0
 22 67  1  0
 23 68  1  0
 24 69  1  0
 24 70  1  0
 26 71  1  0
 27 72  1  0
 28 73  1  0
 29 74  1  0
 30 75  1  0
 31 76  1  0
 31 77  1  0
 34 78  1  0
 35 79  1  0
 36 80  1  0
 37 81  1  0
 41 82  1  0
M  END
$$$$
