
     RDKit          3D

 67 70  0  0  0  0  0  0  0  0999 V2000
   -5.1837    1.1158   -2.9653 C   0  0  0  0  0  0  0  0  0  0  0  0
   -5.2996    1.2541   -1.5047 N   0  0  0  0  0  0  0  0  0  0  0  0
   -5.3840   -0.0587   -0.8303 C   0  0  0  0  0  0  0  0  0  0  0  0
   -4.0097   -0.7333   -0.6315 C   0  0  0  0  0  0  0  0  0  0  0  0
   -2.8764    0.2069   -0.0765 C   0  0  0  0  0  0  0  0  0  0  0  0
   -1.7588    0.3720   -1.1782 C   0  0  0  0  0  0  0  0  0  0  0  0
   -0.6308    1.4194   -0.9698 C   0  0  0  0  0  0  0  0  0  0  0  0
    0.4258    1.0876    0.0991 C   0  0  0  0  0  0  0  0  0  0  0  0
    1.3990   -0.0280   -0.3368 C   0  0  0  0  0  0  0  0  0  0  0  0
    2.1230   -0.6145    0.8072 N   0  0  0  0  0  0  0  0  0  0  0  0
    3.5624   -0.5446    0.8657 C   0  0  0  0  0  0  0  0  0  0  0  0
    4.2265   -1.5599    1.2105 O   0  0  0  0  0  0  0  0  0  0  0  0
    4.2797    0.7007    0.5354 C   0  0  0  0  0  0  0  0  0  0  0  0
    3.7968    1.9482    1.0088 C   0  0  0  0  0  0  0  0  0  0  0  0
    4.4646    3.1444    0.6874 C   0  0  0  0  0  0  0  0  0  0  0  0
    5.6104    3.0508   -0.0959 C   0  0  0  0  0  0  0  0  0  0  0  0
    6.3983    4.0364   -0.5403 N   0  0  0  0  0  0  0  0  0  0  0  0
    7.3576    3.3941   -1.2500 C   0  0  0  0  0  0  0  0  0  0  0  0
    7.2047    2.0436   -1.2703 N   0  0  0  0  0  0  0  0  0  0  0  0
    6.0956    1.8566   -0.5336 C   0  0  0  0  0  0  0  0  0  0  0  0
    5.4641    0.6525   -0.2347 C   0  0  0  0  0  0  0  0  0  0  0  0
    1.4049   -1.4628    1.7711 C   0  0  0  0  0  0  0  0  0  0  0  0
    1.3944   -2.9453    1.3419 C   0  0  0  0  0  0  0  0  0  0  0  0
    0.2115   -3.7647    1.9409 C   0  0  0  0  0  0  0  0  0  0  0  0
   -0.2424   -3.2153    3.1533 O   0  0  0  0  0  0  0  0  0  0  0  0
   -0.9893   -3.9590    0.9701 C   0  0  0  0  0  0  0  0  0  0  0  0
   -0.6163   -4.8167   -0.0787 O   0  0  0  0  0  0  0  0  0  0  0  0
   -1.5278   -2.6570    0.3607 C   0  0  0  0  0  0  0  0  0  0  0  0
   -1.9517   -1.7586    1.3822 O   0  0  0  0  0  0  0  0  0  0  0  0
   -2.3151   -0.4064    1.2232 C   0  0  0  0  0  0  0  0  0  0  0  0
   -2.2239    0.3211    2.2493 O   0  0  0  0  0  0  0  0  0  0  0  0
   -3.5153    1.5936    0.2547 C   0  0  0  0  0  0  0  0  0  0  0  0
   -4.2891    2.1825   -0.9381 C   0  0  0  0  0  0  0  0  0  0  0  0
   -6.0709    0.5818   -3.3680 H   0  0  0  0  0  0  0  0  0  0  0  0
   -5.1601    2.1167   -3.4455 H   0  0  0  0  0  0  0  0  0  0  0  0
   -4.2697    0.5545   -3.2477 H   0  0  0  0  0  0  0  0  0  0  0  0
   -6.0543   -0.7456   -1.3924 H   0  0  0  0  0  0  0  0  0  0  0  0
   -5.8652    0.0812    0.1618 H   0  0  0  0  0  0  0  0  0  0  0  0
   -3.7085   -1.1995   -1.5940 H   0  0  0  0  0  0  0  0  0  0  0  0
   -4.1984   -1.5822    0.0616 H   0  0  0  0  0  0  0  0  0  0  0  0
   -1.3159   -0.5974   -1.4492 H   0  0  0  0  0  0  0  0  0  0  0  0
   -2.2601    0.6721   -2.1204 H   0  0  0  0  0  0  0  0  0  0  0  0
   -1.0635    2.4167   -0.7588 H   0  0  0  0  0  0  0  0  0  0  0  0
   -0.0999    1.5419   -1.9401 H   0  0  0  0  0  0  0  0  0  0  0  0
   -0.0606    0.8726    1.0617 H   0  0  0  0  0  0  0  0  0  0  0  0
    1.0208    2.0087    0.2700 H   0  0  0  0  0  0  0  0  0  0  0  0
    0.8732   -0.8347   -0.8771 H   0  0  0  0  0  0  0  0  0  0  0  0
    2.1124    0.3993   -1.0749 H   0  0  0  0  0  0  0  0  0  0  0  0
    2.9188    1.9891    1.6398 H   0  0  0  0  0  0  0  0  0  0  0  0
    4.1034    4.0995    1.0429 H   0  0  0  0  0  0  0  0  0  0  0  0
    6.2958    5.0649   -0.3883 H   0  0  0  0  0  0  0  0  0  0  0  0
    8.1638    3.9066   -1.7574 H   0  0  0  0  0  0  0  0  0  0  0  0
    5.8608   -0.2837   -0.6066 H   0  0  0  0  0  0  0  0  0  0  0  0
    1.8762   -1.3692    2.7747 H   0  0  0  0  0  0  0  0  0  0  0  0
    0.3740   -1.0964    1.8921 H   0  0  0  0  0  0  0  0  0  0  0  0
    2.3466   -3.4033    1.6867 H   0  0  0  0  0  0  0  0  0  0  0  0
    1.3997   -3.0316    0.2345 H   0  0  0  0  0  0  0  0  0  0  0  0
    0.5993   -4.7892    2.1542 H   0  0  0  0  0  0  0  0  0  0  0  0
    0.4660   -3.3836    3.8288 H   0  0  0  0  0  0  0  0  0  0  0  0
   -1.8275   -4.4271    1.5386 H   0  0  0  0  0  0  0  0  0  0  0  0
   -0.6033   -5.7391    0.2892 H   0  0  0  0  0  0  0  0  0  0  0  0
   -2.3712   -2.9019   -0.3139 H   0  0  0  0  0  0  0  0  0  0  0  0
   -0.7207   -2.2100   -0.2304 H   0  0  0  0  0  0  0  0  0  0  0  0
   -2.7585    2.3243    0.6066 H   0  0  0  0  0  0  0  0  0  0  0  0
   -4.2283    1.4862    1.1031 H   0  0  0  0  0  0  0  0  0  0  0  0
   -4.8189    3.0946   -0.5890 H   0  0  0  0  0  0  0  0  0  0  0  0
   -3.5610    2.5286   -1.7060 H   0  0  0  0  0  0  0  0  0  0  0  0
  1  2  1  0
  2  3  1  0
  3  4  1  0
  4  5  1  0
  5  6  1  0
  6  7  1  0
  7  8  1  0
  8  9  1  0
  9 10  1  0
 10 11  1  0
 11 12  2  0
 11 13  1  0
 13 14  2  0
 14 15  1  0
 15 16  2  0
 16 17  1  0
 17 18  1  0
 18 19  2  0
 19 20  1  0
 20 21  2  0
 10 22  1  0
 22 23  1  0
 23 24  1  0
 24 25  1  0
 24 26  1  0
 26 27  1  0
 26 28  1  0
 28 29  1  0
 29 30  1  0
 30 31  2  0
  5 32  1  0
 32 33  1  0
 33  2  1  0
 30  5  1  0
 21 13  1  0
 20 16  1  0
  1 34  1  0
  1 35  1  0
  1 36  1  0
  3 37  1  0
  3 38  1  0
  4 39  1  0
  4 40  1  0
  6 41  1  0
  6 42  1  0
  7 43  1  0
  7 44  1  0
  8 45  1  0
  8 46  1  0
  9 47  1  0
  9 48  1  0
 14 49  1  0
 15 50  1  0
 17 51  1  0
 18 52  1  0
 21 53  1  0
 22 54  1  0
 22 55  1  0
 23 56  1  0
 23 57  1  0
 24 58  1  0
 25 59  1  0
 26 60  1  0
 27 61  1  0
 28 62  1  0
 28 63  1  0
 32 64  1  0
 32 65  1  0
 33 66  1  0
 33 67  1  0
M  END
$$$$
