
     RDKit          3D

 90 93  0  0  0  0  0  0  0  0999 V2000
   -8.2138    0.8332    3.1866 C   0  0  0  0  0  0  0  0  0  0  0  0
   -7.0052   -0.0816    3.4653 C   0  0  0  0  0  0  0  0  0  0  0  0
   -5.6898    0.5047    3.1227 N   0  0  0  0  0  0  0  0  0  0  0  0
   -5.3548    1.7192    3.8783 C   0  0  0  0  0  0  0  0  0  0  0  0
   -5.2370    2.8569    2.8807 C   0  0  0  0  0  0  0  0  0  0  0  0
   -4.8552    2.1771    1.5885 C   0  0  0  0  0  0  0  0  0  0  0  0
   -5.5000    0.7923    1.6875 C   0  0  0  0  0  0  0  0  0  0  0  0
   -4.6347   -0.3080    1.0480 C   0  0  0  0  0  0  0  0  0  0  0  0
   -4.6041   -0.1662   -0.4182 N   0  0  0  0  0  0  0  0  0  0  0  0
   -5.7253   -0.6895   -1.2124 C   0  0  0  0  0  0  0  0  0  0  0  0
   -5.2488   -1.7849   -2.1317 C   0  0  0  0  0  0  0  0  0  0  0  0
   -5.3586   -1.6511   -3.5260 C   0  0  0  0  0  0  0  0  0  0  0  0
   -4.9108   -2.6851   -4.3489 C   0  0  0  0  0  0  0  0  0  0  0  0
   -4.3632   -3.8051   -3.8047 N   0  0  0  0  0  0  0  0  0  0  0  0
   -4.2355   -3.9569   -2.4591 C   0  0  0  0  0  0  0  0  0  0  0  0
   -4.6761   -2.9511   -1.5974 C   0  0  0  0  0  0  0  0  0  0  0  0
   -3.5523    0.5625   -1.0852 C   0  0  0  0  0  0  0  0  0  0  0  0
   -3.8225    1.2205   -2.1284 O   0  0  0  0  0  0  0  0  0  0  0  0
   -2.1347    0.5271   -0.5698 C   0  0  0  0  0  0  0  0  0  0  0  0
   -1.1317    1.2077   -1.5145 C   0  0  0  0  0  0  0  0  0  0  0  0
    0.2527    1.1539   -0.9209 C   0  0  0  0  0  0  0  0  0  0  0  0
    0.6074    2.0503    0.0939 C   0  0  0  0  0  0  0  0  0  0  0  0
    1.8598    1.9638    0.6973 C   0  0  0  0  0  0  0  0  0  0  0  0
    2.7769    0.9812    0.3102 C   0  0  0  0  0  0  0  0  0  0  0  0
    2.4490    0.0899   -0.7431 C   0  0  0  0  0  0  0  0  0  0  0  0
    1.1701    0.1718   -1.3281 C   0  0  0  0  0  0  0  0  0  0  0  0
    3.3870   -0.9961   -1.2227 C   0  0  0  0  0  0  0  0  0  0  0  0
    4.7781   -0.5203   -1.4467 N   0  0  0  0  0  0  0  0  0  0  0  0
    4.9751    0.3794   -2.6260 C   0  0  0  0  0  0  0  0  0  0  0  0
    4.2526   -0.0761   -3.9105 C   0  0  0  0  0  0  0  0  0  0  0  0
    4.6180    1.8282   -2.2893 C   0  0  0  0  0  0  0  0  0  0  0  0
    5.7049   -1.6795   -1.4985 C   0  0  0  0  0  0  0  0  0  0  0  0
    7.0924   -1.3123   -1.0527 C   0  0  0  0  0  0  0  0  0  0  0  0
    8.0776   -1.9442   -1.5301 O   0  0  0  0  0  0  0  0  0  0  0  0
    7.2983   -0.3435   -0.0187 N   0  0  0  0  0  0  0  0  0  0  0  0
    8.1103   -0.6504    1.1583 C   0  0  0  0  0  0  0  0  0  0  0  0
    7.3138   -1.5114    2.1534 C   0  0  0  0  0  0  0  0  0  0  0  0
    6.5207   -0.7067    3.2058 C   0  0  0  0  0  0  0  0  0  0  0  0
    5.6284    0.4156    2.6494 C   0  0  0  0  0  0  0  0  0  0  0  0
    4.4599   -0.0897    1.7962 C   0  0  0  0  0  0  0  0  0  0  0  0
    4.0158    0.9684    0.9533 O   0  0  0  0  0  0  0  0  0  0  0  0
   -8.0687    1.8629    3.5759 H   0  0  0  0  0  0  0  0  0  0  0  0
   -9.1044    0.4069    3.6904 H   0  0  0  0  0  0  0  0  0  0  0  0
   -8.4438    0.8772    2.1006 H   0  0  0  0  0  0  0  0  0  0  0  0
   -7.0038   -0.3519    4.5460 H   0  0  0  0  0  0  0  0  0  0  0  0
   -7.1373   -1.0305    2.9011 H   0  0  0  0  0  0  0  0  0  0  0  0
   -6.0834    1.9611    4.6868 H   0  0  0  0  0  0  0  0  0  0  0  0
   -4.3676    1.5632    4.3664 H   0  0  0  0  0  0  0  0  0  0  0  0
   -6.2192    3.3675    2.7684 H   0  0  0  0  0  0  0  0  0  0  0  0
   -4.4748    3.6006    3.1979 H   0  0  0  0  0  0  0  0  0  0  0  0
   -3.7479    2.1083    1.5466 H   0  0  0  0  0  0  0  0  0  0  0  0
   -5.2268    2.7461    0.7072 H   0  0  0  0  0  0  0  0  0  0  0  0
   -6.4670    0.8312    1.1446 H   0  0  0  0  0  0  0  0  0  0  0  0
   -3.6149   -0.3093    1.4870 H   0  0  0  0  0  0  0  0  0  0  0  0
   -5.0701   -1.2962    1.3087 H   0  0  0  0  0  0  0  0  0  0  0  0
   -6.1950    0.1417   -1.7825 H   0  0  0  0  0  0  0  0  0  0  0  0
   -6.5189   -1.1046   -0.5518 H   0  0  0  0  0  0  0  0  0  0  0  0
   -5.7893   -0.7593   -3.9687 H   0  0  0  0  0  0  0  0  0  0  0  0
   -4.9928   -2.5962   -5.4252 H   0  0  0  0  0  0  0  0  0  0  0  0
   -3.7919   -4.8616   -2.0556 H   0  0  0  0  0  0  0  0  0  0  0  0
   -4.5638   -3.0706   -0.5289 H   0  0  0  0  0  0  0  0  0  0  0  0
   -2.0866    1.0281    0.4217 H   0  0  0  0  0  0  0  0  0  0  0  0
   -1.8385   -0.5357   -0.4318 H   0  0  0  0  0  0  0  0  0  0  0  0
   -1.1465    0.7018   -2.5065 H   0  0  0  0  0  0  0  0  0  0  0  0
   -1.4248    2.2692   -1.6701 H   0  0  0  0  0  0  0  0  0  0  0  0
   -0.0958    2.8052    0.4279 H   0  0  0  0  0  0  0  0  0  0  0  0
    2.1161    2.6551    1.4893 H   0  0  0  0  0  0  0  0  0  0  0  0
    0.8839   -0.5289   -2.1028 H   0  0  0  0  0  0  0  0  0  0  0  0
    3.3585   -1.7766   -0.4296 H   0  0  0  0  0  0  0  0  0  0  0  0
    2.9977   -1.5090   -2.1311 H   0  0  0  0  0  0  0  0  0  0  0  0
    6.0603    0.4093   -2.8783 H   0  0  0  0  0  0  0  0  0  0  0  0
    4.6106    0.5258   -4.7747 H   0  0  0  0  0  0  0  0  0  0  0  0
    3.1515    0.0617   -3.8294 H   0  0  0  0  0  0  0  0  0  0  0  0
    4.4623   -1.1410   -4.1331 H   0  0  0  0  0  0  0  0  0  0  0  0
    5.0477    2.5047   -3.0567 H   0  0  0  0  0  0  0  0  0  0  0  0
    5.0438    2.1148   -1.3079 H   0  0  0  0  0  0  0  0  0  0  0  0
    3.5192    1.9849   -2.2781 H   0  0  0  0  0  0  0  0  0  0  0  0
    5.7369   -2.1192   -2.5199 H   0  0  0  0  0  0  0  0  0  0  0  0
    5.3773   -2.4908   -0.8099 H   0  0  0  0  0  0  0  0  0  0  0  0
    6.8775    0.6084   -0.1194 H   0  0  0  0  0  0  0  0  0  0  0  0
    8.4514    0.2957    1.6367 H   0  0  0  0  0  0  0  0  0  0  0  0
    9.0214   -1.2003    0.8388 H   0  0  0  0  0  0  0  0  0  0  0  0
    8.0304   -2.1512    2.7073 H   0  0  0  0  0  0  0  0  0  0  0  0
    6.6377   -2.2054    1.6101 H   0  0  0  0  0  0  0  0  0  0  0  0
    5.8923   -1.4091    3.7934 H   0  0  0  0  0  0  0  0  0  0  0  0
    7.2440   -0.2400    3.9120 H   0  0  0  0  0  0  0  0  0  0  0  0
    5.2075    0.9816    3.5081 H   0  0  0  0  0  0  0  0  0  0  0  0
    6.2433    1.1398    2.0775 H   0  0  0  0  0  0  0  0  0  0  0  0
    3.6341   -0.4184    2.4632 H   0  0  0  0  0  0  0  0  0  0  0  0
    4.7734   -0.9411    1.1756 H   0  0  0  0  0  0  0  0  0  0  0  0
  1  2  1  0
  2  3  1  0
  3  4  1  0
  4  5  1  0
  5  6  1  0
  6  7  1  0
  7  8  1  0
  8  9  1  0
  9 10  1  0
 10 11  1  0
 11 12  2  0
 12 13  1  0
 13 14  2  0
 14 15  1  0
 15 16  2  0
  9 17  1  0
 17 18  2  0
 17 19  1  0
 19 20  1  0
 20 21  1  0
 21 22  2  0
 22 23  1  0
 23 24  2  0
 24 25  1  0
 25 26  2  0
 25 27  1  0
 27 28  1  0
 28 29  1  0
 29 30  1  0
 29 31  1  0
 28 32  1  0
 32 33  1  0
 33 34  2  0
 33 35  1  0
 35 36  1  0
 36 37  1  0
 37 38  1  0
 38 39  1  0
 39 40  1  0
 40 41  1  0
  7  3  1  0
 16 11  1  0
 26 21  1  0
 41 24  1  0
  1 42  1  0
  1 43  1  0
  1 44  1  0
  2 45  1  0
  2 46  1  0
  4 47  1  0
  4 48  1  0
  5 49  1  0
  5 50  1  0
  6 51  1  0
  6 52  1  0
  7 53  1  0
  8 54  1  0
  8 55  1  0
 10 56  1  0
 10 57  1  0
 12 58  1  0
 13 59  1  0
 15 60  1  0
 16 61  1  0
 19 62  1  0
 19 63  1  0
 20 64  1  0
 20 65  1  0
 22 66  1  0
 23 67  1  0
 26 68  1  0
 27 69  1  0
 27 70  1  0
 29 71  1  0
 30 72  1  0
 30 73  1  0
 30 74  1  0
 31 75  1  0
 31 76  1  0
 31 77  1  0
 32 78  1  0
 32 79  1  0
 35 80  1  0
 36 81  1  0
 36 82  1  0
 37 83  1  0
 37 84  1  0
 38 85  1  0
 38 86  1  0
 39 87  1  0
 39 88  1  0
 40 89  1  0
 40 90  1  0
M  END
$$$$
