
     RDKit          3D

 81 84  0  0  0  0  0  0  0  0999 V2000
   -5.2032    4.9700   -0.2015 C   0  0  0  0  0  0  0  0  0  0  0  0
   -3.7647    5.0512    0.3154 C   0  0  0  0  0  0  0  0  0  0  0  0
   -2.8481    3.9712   -0.2822 C   0  0  0  0  0  0  0  0  0  0  0  0
   -3.1383    2.5660    0.2798 C   0  0  0  0  0  0  0  0  0  0  0  0
   -2.3051    1.5463   -0.3811 N   0  0  0  0  0  0  0  0  0  0  0  0
   -2.6319    1.0612   -1.7399 C   0  0  0  0  0  0  0  0  0  0  0  0
   -3.9197    0.2121   -1.7953 C   0  0  0  0  0  0  0  0  0  0  0  0
   -3.6803   -1.1301   -1.3596 O   0  0  0  0  0  0  0  0  0  0  0  0
   -4.6997   -2.0753   -1.1142 C   0  0  0  0  0  0  0  0  0  0  0  0
   -6.0275   -1.8386   -1.5251 C   0  0  0  0  0  0  0  0  0  0  0  0
   -7.0321   -2.7649   -1.2454 C   0  0  0  0  0  0  0  0  0  0  0  0
   -6.7331   -3.9444   -0.5613 C   0  0  0  0  0  0  0  0  0  0  0  0
   -5.4209   -4.2006   -0.1553 C   0  0  0  0  0  0  0  0  0  0  0  0
   -4.3864   -3.2929   -0.4554 C   0  0  0  0  0  0  0  0  0  0  0  0
   -2.9730   -3.6393   -0.0384 C   0  0  0  0  0  0  0  0  0  0  0  0
   -2.6429   -3.1634    1.3976 C   0  0  0  0  0  0  0  0  0  0  0  0
   -1.3872   -2.2728    1.4855 C   0  0  0  0  0  0  0  0  0  0  0  0
   -1.5607   -0.9698    0.6828 C   0  0  0  0  0  0  0  0  0  0  0  0
   -0.5741    0.1859    0.9980 C   0  0  0  0  0  0  0  0  0  0  0  0
    0.8717   -0.2873    0.6757 C   0  0  0  0  0  0  0  0  0  0  0  0
    1.8747    0.6222    1.2405 N   0  0  0  0  0  0  0  0  0  0  0  0
    3.2020    0.7057    0.6698 C   0  0  0  0  0  0  0  0  0  0  0  0
    3.9667    1.6444    1.0273 O   0  0  0  0  0  0  0  0  0  0  0  0
    3.6708   -0.2835   -0.3885 C   0  0  0  0  0  0  0  0  0  0  0  0
    5.1370   -0.4894   -0.4577 N   0  0  0  0  0  0  0  0  0  0  0  0
    5.7359   -0.9991    0.7975 C   0  0  0  0  0  0  0  0  0  0  0  0
    7.2805   -1.0013    0.7529 C   0  0  0  0  0  0  0  0  0  0  0  0
    7.7957   -1.0574   -0.6962 C   0  0  0  0  0  0  0  0  0  0  0  0
    9.3275   -1.1301   -0.7369 C   0  0  0  0  0  0  0  0  0  0  0  0
    7.2686    0.1449   -1.5223 C   0  0  0  0  0  0  0  0  0  0  0  0
    5.8864    0.6325   -1.0482 C   0  0  0  0  0  0  0  0  0  0  0  0
    1.6539    1.0831    2.6129 C   0  0  0  0  0  0  0  0  0  0  0  0
    0.1967    1.5111    2.8028 C   0  0  0  0  0  0  0  0  0  0  0  0
   -0.7130    0.5097    2.3801 O   0  0  0  0  0  0  0  0  0  0  0  0
   -0.9582    1.3752    0.0995 C   0  0  0  0  0  0  0  0  0  0  0  0
   -0.0848    2.2298   -0.2240 O   0  0  0  0  0  0  0  0  0  0  0  0
   -5.7268    4.0858    0.2235 H   0  0  0  0  0  0  0  0  0  0  0  0
   -5.2175    4.9045   -1.3111 H   0  0  0  0  0  0  0  0  0  0  0  0
   -5.7614    5.8818    0.1041 H   0  0  0  0  0  0  0  0  0  0  0  0
   -3.3557    6.0463    0.0372 H   0  0  0  0  0  0  0  0  0  0  0  0
   -3.7647    4.9896    1.4250 H   0  0  0  0  0  0  0  0  0  0  0  0
   -1.7948    4.2390   -0.0392 H   0  0  0  0  0  0  0  0  0  0  0  0
   -2.9490    3.9775   -1.3880 H   0  0  0  0  0  0  0  0  0  0  0  0
   -4.2090    2.3173    0.1570 H   0  0  0  0  0  0  0  0  0  0  0  0
   -2.9350    2.5593    1.3760 H   0  0  0  0  0  0  0  0  0  0  0  0
   -2.7420    1.9285   -2.4226 H   0  0  0  0  0  0  0  0  0  0  0  0
   -1.7904    0.4520   -2.1477 H   0  0  0  0  0  0  0  0  0  0  0  0
   -4.2728    0.1796   -2.8492 H   0  0  0  0  0  0  0  0  0  0  0  0
   -4.7203    0.6663   -1.1753 H   0  0  0  0  0  0  0  0  0  0  0  0
   -6.2975   -0.9306   -2.0462 H   0  0  0  0  0  0  0  0  0  0  0  0
   -8.0519   -2.5760   -1.5634 H   0  0  0  0  0  0  0  0  0  0  0  0
   -7.5144   -4.6693   -0.3584 H   0  0  0  0  0  0  0  0  0  0  0  0
   -5.2093   -5.1289    0.3643 H   0  0  0  0  0  0  0  0  0  0  0  0
   -2.8500   -4.7460   -0.0690 H   0  0  0  0  0  0  0  0  0  0  0  0
   -2.2498   -3.2590   -0.7906 H   0  0  0  0  0  0  0  0  0  0  0  0
   -3.5058   -2.6381    1.8585 H   0  0  0  0  0  0  0  0  0  0  0  0
   -2.4598   -4.0581    2.0272 H   0  0  0  0  0  0  0  0  0  0  0  0
   -0.5206   -2.8518    1.1006 H   0  0  0  0  0  0  0  0  0  0  0  0
   -1.2015   -2.0334    2.5542 H   0  0  0  0  0  0  0  0  0  0  0  0
   -2.5968   -0.6153    0.8795 H   0  0  0  0  0  0  0  0  0  0  0  0
   -1.4448   -1.2081   -0.3946 H   0  0  0  0  0  0  0  0  0  0  0  0
    0.9790   -0.3588   -0.4314 H   0  0  0  0  0  0  0  0  0  0  0  0
    1.0644   -1.2936    1.0999 H   0  0  0  0  0  0  0  0  0  0  0  0
    3.2037   -1.2756   -0.1963 H   0  0  0  0  0  0  0  0  0  0  0  0
    3.2926    0.0528   -1.3791 H   0  0  0  0  0  0  0  0  0  0  0  0
    5.4085   -0.4004    1.6731 H   0  0  0  0  0  0  0  0  0  0  0  0
    5.3826   -2.0432    0.9560 H   0  0  0  0  0  0  0  0  0  0  0  0
    7.6644   -0.0764    1.2411 H   0  0  0  0  0  0  0  0  0  0  0  0
    7.6624   -1.8738    1.3320 H   0  0  0  0  0  0  0  0  0  0  0  0
    7.4035   -1.9923   -1.1595 H   0  0  0  0  0  0  0  0  0  0  0  0
    9.7712   -0.2290   -0.2653 H   0  0  0  0  0  0  0  0  0  0  0  0
    9.6790   -1.1966   -1.7892 H   0  0  0  0  0  0  0  0  0  0  0  0
    9.6797   -2.0292   -0.1866 H   0  0  0  0  0  0  0  0  0  0  0  0
    7.1979   -0.1650   -2.5899 H   0  0  0  0  0  0  0  0  0  0  0  0
    7.9782    1.0001   -1.4798 H   0  0  0  0  0  0  0  0  0  0  0  0
    5.3372    1.0634   -1.9170 H   0  0  0  0  0  0  0  0  0  0  0  0
    6.0316    1.4448   -0.3056 H   0  0  0  0  0  0  0  0  0  0  0  0
    2.3075    1.9455    2.8599 H   0  0  0  0  0  0  0  0  0  0  0  0
    1.8902    0.2575    3.3186 H   0  0  0  0  0  0  0  0  0  0  0  0
   -0.0052    2.4823    2.2977 H   0  0  0  0  0  0  0  0  0  0  0  0
    0.0297    1.6921    3.8876 H   0  0  0  0  0  0  0  0  0  0  0  0
  1  2  1  0
  2  3  1  0
  3  4  1  0
  4  5  1  0
  5  6  1  0
  6  7  1  0
  7  8  1  0
  8  9  1  0
  9 10  2  0
 10 11  1  0
 11 12  2  0
 12 13  1  0
 13 14  2  0
 14 15  1  0
 15 16  1  0
 16 17  1  0
 17 18  1  0
 18 19  1  0
 19 20  1  0
 20 21  1  0
 21 22  1  0
 22 23  2  0
 22 24  1  0
 24 25  1  0
 25 26  1  0
 26 27  1  0
 27 28  1  0
 28 29  1  0
 28 30  1  0
 30 31  1  0
 21 32  1  0
 32 33  1  0
 33 34  1  0
 19 35  1  0
 35 36  2  0
 35  5  1  0
 14  9  1  0
 34 19  1  0
 31 25  1  0
  1 37  1  0
  1 38  1  0
  1 39  1  0
  2 40  1  0
  2 41  1  0
  3 42  1  0
  3 43  1  0
  4 44  1  0
  4 45  1  0
  6 46  1  0
  6 47  1  0
  7 48  1  0
  7 49  1  0
 10 50  1  0
 11 51  1  0
 12 52  1  0
 13 53  1  0
 15 54  1  0
 15 55  1  0
 16 56  1  0
 16 57  1  0
 17 58  1  0
 17 59  1  0
 18 60  1  0
 18 61  1  0
 20 62  1  0
 20 63  1  0
 24 64  1  0
 24 65  1  0
 26 66  1  0
 26 67  1  0
 27 68  1  0
 27 69  1  0
 28 70  1  0
 29 71  1  0
 29 72  1  0
 29 73  1  0
 30 74  1  0
 30 75  1  0
 31 76  1  0
 31 77  1  0
 32 78  1  0
 32 79  1  0
 33 80  1  0
 33 81  1  0
M  END
$$$$
