
     RDKit          3D

110114  0  0  0  0  0  0  0  0999 V2000
   -3.9815    3.3445   -3.1373 C   0  0  0  0  0  0  0  0  0  0  0  0
   -2.7824    3.6484   -2.2210 C   0  0  0  0  0  0  0  0  0  0  0  0
   -2.5694    5.1716   -2.1821 C   0  0  0  0  0  0  0  0  0  0  0  0
   -2.9887    3.0494   -0.7955 C   0  0  0  0  0  0  0  0  0  0  0  0
   -1.9324    3.4887    0.1254 N   0  0  0  0  0  0  0  0  0  0  0  0
   -0.5603    3.0925    0.0047 C   0  0  0  0  0  0  0  0  0  0  0  0
    0.3102    3.9651   -0.2387 O   0  0  0  0  0  0  0  0  0  0  0  0
   -0.1546    1.6514    0.1650 C   0  0  0  0  0  0  0  0  0  0  0  0
    1.1812    1.5178    0.9042 C   0  0  0  0  0  0  0  0  0  0  0  0
    1.5247    0.0360    1.1535 C   0  0  0  0  0  0  0  0  0  0  0  0
    2.9650   -0.0748    1.5961 C   0  0  0  0  0  0  0  0  0  0  0  0
    3.2129    0.0878    2.8246 O   0  0  0  0  0  0  0  0  0  0  0  0
    4.0583   -0.2815    0.6664 N   0  0  0  0  0  0  0  0  0  0  0  0
    3.8999    0.0116   -0.7780 C   0  0  0  0  0  0  0  0  0  0  0  0
    4.1981   -1.2326   -1.6289 C   0  0  0  0  0  0  0  0  0  0  0  0
    5.6973   -1.3808   -1.9594 C   0  0  0  0  0  0  0  0  0  0  0  0
    6.5519   -0.7868   -0.9144 N   0  0  0  0  0  0  0  0  0  0  0  0
    7.9796   -0.7918   -1.2893 C   0  0  0  0  0  0  0  0  0  0  0  0
    8.6934    0.3259   -0.5795 C   0  0  0  0  0  0  0  0  0  0  0  0
    9.8486    0.0820    0.1844 C   0  0  0  0  0  0  0  0  0  0  0  0
   10.4803    1.1280    0.8608 C   0  0  0  0  0  0  0  0  0  0  0  0
    9.9750    2.4285    0.7693 C   0  0  0  0  0  0  0  0  0  0  0  0
    8.8517    2.6917   -0.0153 C   0  0  0  0  0  0  0  0  0  0  0  0
    8.3650    3.9556   -0.1121 F   0  0  0  0  0  0  0  0  0  0  0  0
    8.2079    1.6416   -0.6822 C   0  0  0  0  0  0  0  0  0  0  0  0
    6.3030   -1.3833    0.4148 C   0  0  0  0  0  0  0  0  0  0  0  0
    5.4140   -0.4400    1.2314 C   0  0  0  0  0  0  0  0  0  0  0  0
    0.6367   -0.5260    2.1812 N   0  0  0  0  0  0  0  0  0  0  0  0
    0.4694   -1.9389    2.3651 C   0  0  0  0  0  0  0  0  0  0  0  0
    0.0276   -2.3767    3.4634 O   0  0  0  0  0  0  0  0  0  0  0  0
    0.8531   -2.8909    1.3098 C   0  0  0  0  0  0  0  0  0  0  0  0
    2.1264   -3.4779    1.3943 C   0  0  0  0  0  0  0  0  0  0  0  0
    2.6215   -4.2532    0.3457 C   0  0  0  0  0  0  0  0  0  0  0  0
    1.8533   -4.4416   -0.8030 C   0  0  0  0  0  0  0  0  0  0  0  0
    0.5838   -3.8732   -0.8987 C   0  0  0  0  0  0  0  0  0  0  0  0
    0.0542   -3.1183    0.1565 C   0  0  0  0  0  0  0  0  0  0  0  0
   -1.2583   -2.6303   -0.0102 O   0  0  0  0  0  0  0  0  0  0  0  0
   -2.2145   -2.4074    1.0295 C   0  0  0  0  0  0  0  0  0  0  0  0
   -3.5981   -2.9399    0.6109 C   0  0  0  0  0  0  0  0  0  0  0  0
   -3.5651   -4.4551    0.3747 C   0  0  0  0  0  0  0  0  0  0  0  0
   -3.5185   -4.6460   -1.1362 C   0  0  0  0  0  0  0  0  0  0  0  0
   -4.0365   -3.3463   -1.7341 C   0  0  0  0  0  0  0  0  0  0  0  0
   -4.0277   -2.3625   -0.6585 N   0  0  0  0  0  0  0  0  0  0  0  0
   -4.6054   -1.0538   -0.8459 C   0  0  0  0  0  0  0  0  0  0  0  0
   -4.9745   -0.7184   -2.0023 O   0  0  0  0  0  0  0  0  0  0  0  0
   -4.7629   -0.0563    0.2871 C   0  0  0  0  0  0  0  0  0  0  0  0
   -6.0729    0.7480    0.1365 C   0  0  0  0  0  0  0  0  0  0  0  0
   -6.3643    1.5933    1.3883 C   0  0  0  0  0  0  0  0  0  0  0  0
   -7.6184    2.4689    1.2394 C   0  0  0  0  0  0  0  0  0  0  0  0
   -8.9170    1.6547    1.2433 C   0  0  0  0  0  0  0  0  0  0  0  0
  -10.0623    2.5560    1.2900 N   0  0  0  0  0  0  0  0  0  0  0  0
   -3.6207    0.8627    0.3524 N   0  0  0  0  0  0  0  0  0  0  0  0
   -3.0917    1.5396   -0.7930 C   0  0  0  0  0  0  0  0  0  0  0  0
   -2.6239    0.8634   -1.7475 O   0  0  0  0  0  0  0  0  0  0  0  0
   -4.9141    3.7756   -2.7164 H   0  0  0  0  0  0  0  0  0  0  0  0
   -3.8129    3.7731   -4.1491 H   0  0  0  0  0  0  0  0  0  0  0  0
   -4.1280    2.2541   -3.2631 H   0  0  0  0  0  0  0  0  0  0  0  0
   -1.8765    3.1941   -2.6775 H   0  0  0  0  0  0  0  0  0  0  0  0
   -1.6446    5.4255   -1.6255 H   0  0  0  0  0  0  0  0  0  0  0  0
   -2.4586    5.5691   -3.2150 H   0  0  0  0  0  0  0  0  0  0  0  0
   -3.4344    5.6769   -1.7027 H   0  0  0  0  0  0  0  0  0  0  0  0
   -3.9602    3.4307   -0.4066 H   0  0  0  0  0  0  0  0  0  0  0  0
   -2.1221    4.3555    0.6761 H   0  0  0  0  0  0  0  0  0  0  0  0
   -0.9325    1.1135    0.7447 H   0  0  0  0  0  0  0  0  0  0  0  0
   -0.0758    1.1860   -0.8403 H   0  0  0  0  0  0  0  0  0  0  0  0
    1.9739    1.9978    0.2914 H   0  0  0  0  0  0  0  0  0  0  0  0
    1.1270    2.0675    1.8729 H   0  0  0  0  0  0  0  0  0  0  0  0
    1.3722   -0.5357    0.2149 H   0  0  0  0  0  0  0  0  0  0  0  0
    4.5607    0.8574   -1.0706 H   0  0  0  0  0  0  0  0  0  0  0  0
    2.8841    0.3572   -1.0339 H   0  0  0  0  0  0  0  0  0  0  0  0
    3.8327   -2.1370   -1.1001 H   0  0  0  0  0  0  0  0  0  0  0  0
    3.6308   -1.1698   -2.5845 H   0  0  0  0  0  0  0  0  0  0  0  0
    5.9503   -2.4578   -2.1117 H   0  0  0  0  0  0  0  0  0  0  0  0
    5.8780   -0.8433   -2.9173 H   0  0  0  0  0  0  0  0  0  0  0  0
    8.1032   -0.6098   -2.3802 H   0  0  0  0  0  0  0  0  0  0  0  0
    8.4404   -1.7795   -1.0654 H   0  0  0  0  0  0  0  0  0  0  0  0
   10.2482   -0.9196    0.2714 H   0  0  0  0  0  0  0  0  0  0  0  0
   11.3629    0.9286    1.4550 H   0  0  0  0  0  0  0  0  0  0  0  0
   10.4730    3.2413    1.2847 H   0  0  0  0  0  0  0  0  0  0  0  0
    7.3359    1.8540   -1.2853 H   0  0  0  0  0  0  0  0  0  0  0  0
    7.2499   -1.5226    0.9817 H   0  0  0  0  0  0  0  0  0  0  0  0
    5.8317   -2.3924    0.3497 H   0  0  0  0  0  0  0  0  0  0  0  0
    5.9006    0.5602    1.2992 H   0  0  0  0  0  0  0  0  0  0  0  0
    5.3677   -0.8624    2.2616 H   0  0  0  0  0  0  0  0  0  0  0  0
    0.2350    0.1072    2.9124 H   0  0  0  0  0  0  0  0  0  0  0  0
    2.7522   -3.2956    2.2576 H   0  0  0  0  0  0  0  0  0  0  0  0
    3.6088   -4.6865    0.4168 H   0  0  0  0  0  0  0  0  0  0  0  0
    2.2528   -5.0245   -1.6246 H   0  0  0  0  0  0  0  0  0  0  0  0
   -0.0078   -4.0480   -1.7895 H   0  0  0  0  0  0  0  0  0  0  0  0
   -1.9250   -2.9436    1.9534 H   0  0  0  0  0  0  0  0  0  0  0  0
   -2.2626   -1.3223    1.2614 H   0  0  0  0  0  0  0  0  0  0  0  0
   -4.3429   -2.7329    1.4079 H   0  0  0  0  0  0  0  0  0  0  0  0
   -2.7013   -4.9577    0.8598 H   0  0  0  0  0  0  0  0  0  0  0  0
   -4.5016   -4.9103    0.7739 H   0  0  0  0  0  0  0  0  0  0  0  0
   -2.4656   -4.8153   -1.4567 H   0  0  0  0  0  0  0  0  0  0  0  0
   -4.1461   -5.5153   -1.4484 H   0  0  0  0  0  0  0  0  0  0  0  0
   -5.0782   -3.4856   -2.1052 H   0  0  0  0  0  0  0  0  0  0  0  0
   -3.3785   -3.0179   -2.5691 H   0  0  0  0  0  0  0  0  0  0  0  0
   -4.8318   -0.6050    1.2504 H   0  0  0  0  0  0  0  0  0  0  0  0
   -6.0048    1.4124   -0.7545 H   0  0  0  0  0  0  0  0  0  0  0  0
   -6.9076    0.0302   -0.0237 H   0  0  0  0  0  0  0  0  0  0  0  0
   -6.4735    0.9296    2.2736 H   0  0  0  0  0  0  0  0  0  0  0  0
   -5.5064    2.2792    1.5759 H   0  0  0  0  0  0  0  0  0  0  0  0
   -7.6407    3.1779    2.0984 H   0  0  0  0  0  0  0  0  0  0  0  0
   -7.5528    3.0694    0.3062 H   0  0  0  0  0  0  0  0  0  0  0  0
   -8.9777    1.0435    0.3173 H   0  0  0  0  0  0  0  0  0  0  0  0
   -8.9349    0.9745    2.1233 H   0  0  0  0  0  0  0  0  0  0  0  0
  -10.9290    1.9794    1.1932 H   0  0  0  0  0  0  0  0  0  0  0  0
  -10.1033    2.9922    2.2396 H   0  0  0  0  0  0  0  0  0  0  0  0
   -3.3821    1.2566    1.2947 H   0  0  0  0  0  0  0  0  0  0  0  0
  1  2  1  0
  2  3  1  0
  2  4  1  0
  4  5  1  0
  5  6  1  0
  6  7  2  0
  6  8  1  0
  8  9  1  0
  9 10  1  0
 10 11  1  0
 11 12  2  0
 11 13  1  0
 13 14  1  0
 14 15  1  0
 15 16  1  0
 16 17  1  0
 17 18  1  0
 18 19  1  0
 19 20  2  0
 20 21  1  0
 21 22  2  0
 22 23  1  0
 23 24  1  0
 23 25  2  0
 17 26  1  0
 26 27  1  0
 10 28  1  0
 28 29  1  0
 29 30  2  0
 29 31  1  0
 31 32  2  0
 32 33  1  0
 33 34  2  0
 34 35  1  0
 35 36  2  0
 36 37  1  0
 37 38  1  0
 38 39  1  0
 39 40  1  0
 40 41  1  0
 41 42  1  0
 42 43  1  0
 43 44  1  0
 44 45  2  0
 44 46  1  0
 46 47  1  0
 47 48  1  0
 48 49  1  0
 49 50  1  0
 50 51  1  0
 46 52  1  0
 52 53  1  0
 53 54  2  0
 53  4  1  0
 27 13  1  0
 36 31  1  0
 43 39  1  0
 25 19  1  0
  1 55  1  0
  1 56  1  0
  1 57  1  0
  2 58  1  0
  3 59  1  0
  3 60  1  0
  3 61  1  0
  4 62  1  0
  5 63  1  0
  8 64  1  0
  8 65  1  0
  9 66  1  0
  9 67  1  0
 10 68  1  0
 14 69  1  0
 14 70  1  0
 15 71  1  0
 15 72  1  0
 16 73  1  0
 16 74  1  0
 18 75  1  0
 18 76  1  0
 20 77  1  0
 21 78  1  0
 22 79  1  0
 25 80  1  0
 26 81  1  0
 26 82  1  0
 27 83  1  0
 27 84  1  0
 28 85  1  0
 32 86  1  0
 33 87  1  0
 34 88  1  0
 35 89  1  0
 38 90  1  0
 38 91  1  0
 39 92  1  0
 40 93  1  0
 40 94  1  0
 41 95  1  0
 41 96  1  0
 42 97  1  0
 42 98  1  0
 46 99  1  0
 47100  1  0
 47101  1  0
 48102  1  0
 48103  1  0
 49104  1  0
 49105  1  0
 50106  1  0
 50107  1  0
 51108  1  0
 51109  1  0
 52110  1  0
M  END
$$$$
