
     RDKit          3D

 79 82  0  0  0  0  0  0  0  0999 V2000
    9.8303    1.5658   -1.5432 C   0  0  0  0  0  0  0  0  0  0  0  0
    8.4114    1.6625   -1.0671 C   0  0  0  0  0  0  0  0  0  0  0  0
    7.3690    1.1139   -1.8307 C   0  0  0  0  0  0  0  0  0  0  0  0
    6.0503    1.1770   -1.3686 C   0  0  0  0  0  0  0  0  0  0  0  0
    5.7583    1.7844   -0.1362 C   0  0  0  0  0  0  0  0  0  0  0  0
    4.3381    1.8329    0.3689 C   0  0  0  0  0  0  0  0  0  0  0  0
    3.9446    0.5667    1.0916 C   0  0  0  0  0  0  0  0  0  0  0  0
    4.8488   -0.1751    1.5676 O   0  0  0  0  0  0  0  0  0  0  0  0
    2.5550    0.2153    1.2994 N   0  0  0  0  0  0  0  0  0  0  0  0
    1.4791    1.2086    1.1102 C   0  0  0  0  0  0  0  0  0  0  0  0
    0.9357    1.1569   -0.3327 C   0  0  0  0  0  0  0  0  0  0  0  0
   -0.6016    1.1183   -0.4668 C   0  0  0  0  0  0  0  0  0  0  0  0
   -1.3127    0.0898    0.4510 C   0  0  0  0  0  0  0  0  0  0  0  0
   -2.5215   -0.6725   -0.1822 C   0  0  0  0  0  0  0  0  0  0  0  0
   -3.5434    0.2708   -0.8743 C   0  0  0  0  0  0  0  0  0  0  0  0
   -4.3204    1.1308    0.1355 C   0  0  0  0  0  0  0  0  0  0  0  0
   -5.0177    0.3252    1.1622 N   0  0  0  0  0  0  0  0  0  0  0  0
   -6.2247   -0.3689    0.6599 C   0  0  0  0  0  0  0  0  0  0  0  0
   -7.3115    0.6198    0.3215 C   0  0  0  0  0  0  0  0  0  0  0  0
   -7.8774    0.6484   -0.9627 C   0  0  0  0  0  0  0  0  0  0  0  0
   -8.8734    1.5856   -1.2523 C   0  0  0  0  0  0  0  0  0  0  0  0
   -9.2919    2.4578   -0.2966 N   0  0  0  0  0  0  0  0  0  0  0  0
   -8.7661    2.4471    0.9567 C   0  0  0  0  0  0  0  0  0  0  0  0
   -7.7704    1.5250    1.2907 C   0  0  0  0  0  0  0  0  0  0  0  0
   -4.0943   -0.5841    1.8712 C   0  0  0  0  0  0  0  0  0  0  0  0
   -3.2763   -1.4758    0.9158 C   0  0  0  0  0  0  0  0  0  0  0  0
   -1.9480   -1.6645   -1.1798 C   0  0  0  0  0  0  0  0  0  0  0  0
   -1.8081   -1.3446   -2.3937 O   0  0  0  0  0  0  0  0  0  0  0  0
   -1.4503   -2.8917   -0.7164 O   0  0  0  0  0  0  0  0  0  0  0  0
   -0.3646   -3.5772   -1.3396 C   0  0  0  0  0  0  0  0  0  0  0  0
    0.9681   -2.8740   -1.0005 C   0  0  0  0  0  0  0  0  0  0  0  0
    1.9448   -3.2281   -1.9482 O   0  0  0  0  0  0  0  0  0  0  0  0
    1.4937   -3.2283    0.4151 C   0  0  0  0  0  0  0  0  0  0  0  0
    0.4397   -3.2722    1.3450 O   0  0  0  0  0  0  0  0  0  0  0  0
    2.6313   -2.2643    0.8749 C   0  0  0  0  0  0  0  0  0  0  0  0
    2.2175   -1.1152    1.8404 C   0  0  0  0  0  0  0  0  0  0  0  0
    6.8063    2.3012    0.6424 C   0  0  0  0  0  0  0  0  0  0  0  0
    8.1242    2.2392    0.1799 C   0  0  0  0  0  0  0  0  0  0  0  0
    9.8732    1.5718   -2.6532 H   0  0  0  0  0  0  0  0  0  0  0  0
   10.2837    0.6244   -1.1668 H   0  0  0  0  0  0  0  0  0  0  0  0
   10.4264    2.4288   -1.1744 H   0  0  0  0  0  0  0  0  0  0  0  0
    7.5760    0.6358   -2.7813 H   0  0  0  0  0  0  0  0  0  0  0  0
    5.2547    0.7497   -1.9683 H   0  0  0  0  0  0  0  0  0  0  0  0
    3.6602    1.9952   -0.4940 H   0  0  0  0  0  0  0  0  0  0  0  0
    4.2102    2.6957    1.0570 H   0  0  0  0  0  0  0  0  0  0  0  0
    1.8518    2.2307    1.3329 H   0  0  0  0  0  0  0  0  0  0  0  0
    0.6814    1.0459    1.8620 H   0  0  0  0  0  0  0  0  0  0  0  0
    1.3713    0.2963   -0.8732 H   0  0  0  0  0  0  0  0  0  0  0  0
    1.2961    2.0542   -0.8795 H   0  0  0  0  0  0  0  0  0  0  0  0
   -0.8140    0.9051   -1.5330 H   0  0  0  0  0  0  0  0  0  0  0  0
   -1.0089    2.1297   -0.2525 H   0  0  0  0  0  0  0  0  0  0  0  0
   -1.6271    0.6306    1.3662 H   0  0  0  0  0  0  0  0  0  0  0  0
   -0.5842   -0.6757    0.7856 H   0  0  0  0  0  0  0  0  0  0  0  0
   -4.2635   -0.3305   -1.4697 H   0  0  0  0  0  0  0  0  0  0  0  0
   -3.0500    0.9449   -1.6036 H   0  0  0  0  0  0  0  0  0  0  0  0
   -3.6187    1.8295    0.6393 H   0  0  0  0  0  0  0  0  0  0  0  0
   -5.0419    1.7721   -0.4147 H   0  0  0  0  0  0  0  0  0  0  0  0
   -6.6347   -1.0378    1.4484 H   0  0  0  0  0  0  0  0  0  0  0  0
   -5.9861   -1.0149   -0.2106 H   0  0  0  0  0  0  0  0  0  0  0  0
   -7.5452   -0.0387   -1.7345 H   0  0  0  0  0  0  0  0  0  0  0  0
   -9.3122    1.6194   -2.2403 H   0  0  0  0  0  0  0  0  0  0  0  0
   -9.1203    3.1553    1.6949 H   0  0  0  0  0  0  0  0  0  0  0  0
   -7.3549    1.5215    2.2919 H   0  0  0  0  0  0  0  0  0  0  0  0
   -4.6584   -1.2330    2.5763 H   0  0  0  0  0  0  0  0  0  0  0  0
   -3.4162    0.0143    2.5132 H   0  0  0  0  0  0  0  0  0  0  0  0
   -3.9690   -2.2025    0.4356 H   0  0  0  0  0  0  0  0  0  0  0  0
   -2.5554   -2.0710    1.5211 H   0  0  0  0  0  0  0  0  0  0  0  0
   -0.5283   -3.6026   -2.4385 H   0  0  0  0  0  0  0  0  0  0  0  0
   -0.3428   -4.6277   -0.9847 H   0  0  0  0  0  0  0  0  0  0  0  0
    0.7985   -1.7833   -1.0533 H   0  0  0  0  0  0  0  0  0  0  0  0
    1.6934   -2.7881   -2.8025 H   0  0  0  0  0  0  0  0  0  0  0  0
    1.9289   -4.2531    0.3375 H   0  0  0  0  0  0  0  0  0  0  0  0
    0.7839   -3.7491    2.1471 H   0  0  0  0  0  0  0  0  0  0  0  0
    3.3961   -2.8787    1.4028 H   0  0  0  0  0  0  0  0  0  0  0  0
    3.1565   -1.8508   -0.0154 H   0  0  0  0  0  0  0  0  0  0  0  0
    1.1458   -1.1608    2.1047 H   0  0  0  0  0  0  0  0  0  0  0  0
    2.7481   -1.2480    2.8096 H   0  0  0  0  0  0  0  0  0  0  0  0
    6.6024    2.7501    1.6078 H   0  0  0  0  0  0  0  0  0  0  0  0
    8.9214    2.6384    0.7954 H   0  0  0  0  0  0  0  0  0  0  0  0
  1  2  1  0
  2  3  2  0
  3  4  1  0
  4  5  2  0
  5  6  1  0
  6  7  1  0
  7  8  2  0
  7  9  1  0
  9 10  1  0
 10 11  1  0
 11 12  1  0
 12 13  1  0
 13 14  1  0
 14 15  1  0
 15 16  1  0
 16 17  1  0
 17 18  1  0
 18 19  1  0
 19 20  2  0
 20 21  1  0
 21 22  2  0
 22 23  1  0
 23 24  2  0
 17 25  1  0
 25 26  1  0
 14 27  1  0
 27 28  2  0
 27 29  1  0
 29 30  1  0
 30 31  1  0
 31 32  1  0
 31 33  1  0
 33 34  1  0
 33 35  1  0
 35 36  1  0
  5 37  1  0
 37 38  2  0
 38  2  1  0
 36  9  1  0
 26 14  1  0
 24 19  1  0
  1 39  1  0
  1 40  1  0
  1 41  1  0
  3 42  1  0
  4 43  1  0
  6 44  1  0
  6 45  1  0
 10 46  1  0
 10 47  1  0
 11 48  1  0
 11 49  1  0
 12 50  1  0
 12 51  1  0
 13 52  1  0
 13 53  1  0
 15 54  1  0
 15 55  1  0
 16 56  1  0
 16 57  1  0
 18 58  1  0
 18 59  1  0
 20 60  1  0
 21 61  1  0
 23 62  1  0
 24 63  1  0
 25 64  1  0
 25 65  1  0
 26 66  1  0
 26 67  1  0
 30 68  1  0
 30 69  1  0
 31 70  1  0
 32 71  1  0
 33 72  1  0
 34 73  1  0
 35 74  1  0
 35 75  1  0
 36 76  1  0
 36 77  1  0
 37 78  1  0
 38 79  1  0
M  END
$$$$
