
     RDKit          3D

 74 76  0  0  0  0  0  0  0  0999 V2000
   -2.4873   -2.7240   -2.8810 C   0  0  0  0  0  0  0  0  0  0  0  0
   -1.4427   -1.8697   -2.2284 C   0  0  0  0  0  0  0  0  0  0  0  0
   -1.1015   -0.8043   -2.8121 O   0  0  0  0  0  0  0  0  0  0  0  0
   -0.8568   -2.2010   -0.9455 N   0  0  0  0  0  0  0  0  0  0  0  0
   -1.2081   -3.4313   -0.2156 C   0  0  0  0  0  0  0  0  0  0  0  0
   -2.6811   -3.4032    0.2253 C   0  0  0  0  0  0  0  0  0  0  0  0
   -2.9009   -3.9153    1.6566 C   0  0  0  0  0  0  0  0  0  0  0  0
   -4.2041   -3.3729    2.2730 C   0  0  0  0  0  0  0  0  0  0  0  0
   -4.0441   -1.9616    2.8802 C   0  0  0  0  0  0  0  0  0  0  0  0
   -4.3861   -0.8045    1.9087 C   0  0  0  0  0  0  0  0  0  0  0  0
   -3.3053    0.2914    1.8631 C   0  0  0  0  0  0  0  0  0  0  0  0
   -2.2484    0.0003    0.8450 N   0  0  0  0  0  0  0  0  0  0  0  0
   -2.0471    1.1710   -0.0447 C   0  0  0  0  0  0  0  0  0  0  0  0
   -3.1902    1.2634   -1.0733 C   0  0  0  0  0  0  0  0  0  0  0  0
   -2.8815    2.2400   -2.2298 C   0  0  0  0  0  0  0  0  0  0  0  0
   -2.7990    3.6937   -1.7395 C   0  0  0  0  0  0  0  0  0  0  0  0
   -3.9506    2.1161   -3.3216 C   0  0  0  0  0  0  0  0  0  0  0  0
   -0.9955   -0.4397    1.5179 C   0  0  0  0  0  0  0  0  0  0  0  0
    0.2276   -0.5731    0.6149 C   0  0  0  0  0  0  0  0  0  0  0  0
    1.3630    0.2034    0.9241 C   0  0  0  0  0  0  0  0  0  0  0  0
    2.5382    0.1251    0.1587 C   0  0  0  0  0  0  0  0  0  0  0  0
    3.6911    1.0002    0.4881 C   0  0  0  0  0  0  0  0  0  0  0  0
    3.4700    2.1120    1.0436 O   0  0  0  0  0  0  0  0  0  0  0  0
    5.0414    0.6154    0.1646 N   0  0  0  0  0  0  0  0  0  0  0  0
    6.1856    1.4507    0.4079 C   0  0  0  0  0  0  0  0  0  0  0  0
    7.2150    1.5086   -0.5397 C   0  0  0  0  0  0  0  0  0  0  0  0
    8.3293    2.3194   -0.3174 C   0  0  0  0  0  0  0  0  0  0  0  0
    8.4145    3.0601    0.8676 C   0  0  0  0  0  0  0  0  0  0  0  0
    9.6053    3.9248    1.1373 C   0  0  0  0  0  0  0  0  0  0  0  0
    7.4260    2.9597    1.7970 N   0  0  0  0  0  0  0  0  0  0  0  0
    6.3288    2.1809    1.5997 C   0  0  0  0  0  0  0  0  0  0  0  0
    2.5763   -0.7493   -0.9364 C   0  0  0  0  0  0  0  0  0  0  0  0
    1.4637   -1.5231   -1.2587 C   0  0  0  0  0  0  0  0  0  0  0  0
    0.2833   -1.4421   -0.5054 C   0  0  0  0  0  0  0  0  0  0  0  0
   -2.5718   -2.4656   -3.9575 H   0  0  0  0  0  0  0  0  0  0  0  0
   -3.4721   -2.5422   -2.4039 H   0  0  0  0  0  0  0  0  0  0  0  0
   -2.2214   -3.7973   -2.8107 H   0  0  0  0  0  0  0  0  0  0  0  0
   -0.5349   -3.5481    0.6618 H   0  0  0  0  0  0  0  0  0  0  0  0
   -1.0200   -4.3166   -0.8590 H   0  0  0  0  0  0  0  0  0  0  0  0
   -3.2910   -4.0221   -0.4671 H   0  0  0  0  0  0  0  0  0  0  0  0
   -3.0473   -2.3714    0.1299 H   0  0  0  0  0  0  0  0  0  0  0  0
   -2.9530   -5.0255    1.6205 H   0  0  0  0  0  0  0  0  0  0  0  0
   -2.0479   -3.6593    2.3205 H   0  0  0  0  0  0  0  0  0  0  0  0
   -5.0361   -3.4039    1.5350 H   0  0  0  0  0  0  0  0  0  0  0  0
   -4.4905   -4.0626    3.0979 H   0  0  0  0  0  0  0  0  0  0  0  0
   -3.0323   -1.8458    3.3214 H   0  0  0  0  0  0  0  0  0  0  0  0
   -4.7387   -1.8894    3.7461 H   0  0  0  0  0  0  0  0  0  0  0  0
   -5.3258   -0.3336    2.2743 H   0  0  0  0  0  0  0  0  0  0  0  0
   -4.6337   -1.1455    0.8841 H   0  0  0  0  0  0  0  0  0  0  0  0
   -2.8902    0.4513    2.8837 H   0  0  0  0  0  0  0  0  0  0  0  0
   -3.8330    1.2473    1.6474 H   0  0  0  0  0  0  0  0  0  0  0  0
   -1.9715    2.1064    0.5518 H   0  0  0  0  0  0  0  0  0  0  0  0
   -1.1068    1.0838   -0.6245 H   0  0  0  0  0  0  0  0  0  0  0  0
   -4.1342    1.5707   -0.5750 H   0  0  0  0  0  0  0  0  0  0  0  0
   -3.3583    0.2486   -1.4956 H   0  0  0  0  0  0  0  0  0  0  0  0
   -1.9052    1.9676   -2.6874 H   0  0  0  0  0  0  0  0  0  0  0  0
   -3.7370    3.9876   -1.2213 H   0  0  0  0  0  0  0  0  0  0  0  0
   -2.6327    4.3794   -2.5982 H   0  0  0  0  0  0  0  0  0  0  0  0
   -1.9446    3.8225   -1.0432 H   0  0  0  0  0  0  0  0  0  0  0  0
   -4.9533    2.3766   -2.9187 H   0  0  0  0  0  0  0  0  0  0  0  0
   -3.7164    2.7955   -4.1687 H   0  0  0  0  0  0  0  0  0  0  0  0
   -3.9810    1.0764   -3.7143 H   0  0  0  0  0  0  0  0  0  0  0  0
   -0.7533    0.2570    2.3520 H   0  0  0  0  0  0  0  0  0  0  0  0
   -1.1650   -1.4299    1.9848 H   0  0  0  0  0  0  0  0  0  0  0  0
    1.3338    0.8771    1.7720 H   0  0  0  0  0  0  0  0  0  0  0  0
    5.2091   -0.2750   -0.3525 H   0  0  0  0  0  0  0  0  0  0  0  0
    7.1440    0.9361   -1.4565 H   0  0  0  0  0  0  0  0  0  0  0  0
    9.1175    2.3685   -1.0587 H   0  0  0  0  0  0  0  0  0  0  0  0
    9.4182    4.5804    2.0141 H   0  0  0  0  0  0  0  0  0  0  0  0
   10.4897    3.2862    1.3472 H   0  0  0  0  0  0  0  0  0  0  0  0
    9.8155    4.5681    0.2563 H   0  0  0  0  0  0  0  0  0  0  0  0
    5.5859    2.1157    2.3824 H   0  0  0  0  0  0  0  0  0  0  0  0
    3.4461   -0.8115   -1.5757 H   0  0  0  0  0  0  0  0  0  0  0  0
    1.5102   -2.1787   -2.1190 H   0  0  0  0  0  0  0  0  0  0  0  0
  1  2  1  0
  2  3  2  0
  2  4  1  0
  4  5  1  0
  5  6  1  0
  6  7  1  0
  7  8  1  0
  8  9  1  0
  9 10  1  0
 10 11  1  0
 11 12  1  0
 12 13  1  0
 13 14  1  0
 14 15  1  0
 15 16  1  0
 15 17  1  0
 12 18  1  0
 18 19  1  0
 19 20  2  0
 20 21  1  0
 21 22  1  0
 22 23  2  0
 22 24  1  0
 24 25  1  0
 25 26  2  0
 26 27  1  0
 27 28  2  0
 28 29  1  0
 28 30  1  0
 30 31  2  0
 21 32  2  0
 32 33  1  0
 33 34  2  0
 34  4  1  0
 34 19  1  0
 31 25  1  0
  1 35  1  0
  1 36  1  0
  1 37  1  0
  5 38  1  0
  5 39  1  0
  6 40  1  0
  6 41  1  0
  7 42  1  0
  7 43  1  0
  8 44  1  0
  8 45  1  0
  9 46  1  0
  9 47  1  0
 10 48  1  0
 10 49  1  0
 11 50  1  0
 11 51  1  0
 13 52  1  0
 13 53  1  0
 14 54  1  0
 14 55  1  0
 15 56  1  0
 16 57  1  0
 16 58  1  0
 16 59  1  0
 17 60  1  0
 17 61  1  0
 17 62  1  0
 18 63  1  0
 18 64  1  0
 20 65  1  0
 24 66  1  0
 26 67  1  0
 27 68  1  0
 29 69  1  0
 29 70  1  0
 29 71  1  0
 31 72  1  0
 32 73  1  0
 33 74  1  0
M  END
$$$$
