
     RDKit          3D

 81 84  0  0  0  0  0  0  0  0999 V2000
   -4.1186    0.2055   -1.5410 O   0  0  0  0  0  0  0  0  0  0  0  0
   -3.9825    0.3972   -0.3007 C   0  0  0  0  0  0  0  0  0  0  0  0
   -5.1325    0.0749    0.6306 C   0  0  0  0  0  0  0  0  0  0  0  0
   -6.3720   -0.4990   -0.0792 C   0  0  0  0  0  0  0  0  0  0  0  0
   -6.9242    0.4513   -1.0676 N   0  0  0  0  0  0  0  0  0  0  0  0
   -7.5471    1.6247   -0.4451 C   0  0  0  0  0  0  0  0  0  0  0  0
   -8.6110    2.1233   -1.4111 C   0  0  0  0  0  0  0  0  0  0  0  0
   -8.8800    0.9599   -2.3524 C   0  0  0  0  0  0  0  0  0  0  0  0
   -7.9862   -0.1679   -1.8647 C   0  0  0  0  0  0  0  0  0  0  0  0
   -2.7316    0.9295    0.1999 N   0  0  0  0  0  0  0  0  0  0  0  0
   -1.6739    1.3102   -0.7532 C   0  0  0  0  0  0  0  0  0  0  0  0
   -1.0050    0.0581   -1.3559 C   0  0  0  0  0  0  0  0  0  0  0  0
    0.4576    0.3246   -1.7669 C   0  0  0  0  0  0  0  0  0  0  0  0
    1.2791   -0.9830   -1.8980 C   0  0  0  0  0  0  0  0  0  0  0  0
    2.6854   -0.9223   -1.2321 C   0  0  0  0  0  0  0  0  0  0  0  0
    3.4158   -2.2638   -1.5047 C   0  0  0  0  0  0  0  0  0  0  0  0
    4.8515   -2.2870   -0.9339 C   0  0  0  0  0  0  0  0  0  0  0  0
    5.3402   -0.9342   -0.5886 N   0  0  0  0  0  0  0  0  0  0  0  0
    6.7797   -0.9743   -0.2674 C   0  0  0  0  0  0  0  0  0  0  0  0
    7.1620    0.2210    0.5602 C   0  0  0  0  0  0  0  0  0  0  0  0
    8.1043    1.1512    0.0953 C   0  0  0  0  0  0  0  0  0  0  0  0
    8.4288    2.2543    0.8893 C   0  0  0  0  0  0  0  0  0  0  0  0
    7.8075    2.4240    2.1287 C   0  0  0  0  0  0  0  0  0  0  0  0
    6.8739    1.4795    2.5598 C   0  0  0  0  0  0  0  0  0  0  0  0
    6.5752    0.4094    1.7752 N   0  0  0  0  0  0  0  0  0  0  0  0
    5.0618    0.0122   -1.6887 C   0  0  0  0  0  0  0  0  0  0  0  0
    3.5421    0.2197   -1.8676 C   0  0  0  0  0  0  0  0  0  0  0  0
    2.5092   -0.7380    0.2752 C   0  0  0  0  0  0  0  0  0  0  0  0
    2.6458    0.4009    0.8016 O   0  0  0  0  0  0  0  0  0  0  0  0
    2.1511   -1.8348    1.0690 O   0  0  0  0  0  0  0  0  0  0  0  0
    1.7493   -1.7377    2.4382 C   0  0  0  0  0  0  0  0  0  0  0  0
    0.2110   -1.6778    2.5644 C   0  0  0  0  0  0  0  0  0  0  0  0
   -0.3680   -2.6408    1.7208 O   0  0  0  0  0  0  0  0  0  0  0  0
   -0.3478   -0.2714    2.2283 C   0  0  0  0  0  0  0  0  0  0  0  0
    0.1594    0.6885    3.1257 O   0  0  0  0  0  0  0  0  0  0  0  0
   -1.8999   -0.2434    2.2322 C   0  0  0  0  0  0  0  0  0  0  0  0
   -2.4713    1.0629    1.6470 C   0  0  0  0  0  0  0  0  0  0  0  0
   -4.7900   -0.6696    1.3793 H   0  0  0  0  0  0  0  0  0  0  0  0
   -5.4248    0.9930    1.1795 H   0  0  0  0  0  0  0  0  0  0  0  0
   -6.0758   -1.4424   -0.5905 H   0  0  0  0  0  0  0  0  0  0  0  0
   -7.1360   -0.7691    0.6850 H   0  0  0  0  0  0  0  0  0  0  0  0
   -8.0322    1.3645    0.5263 H   0  0  0  0  0  0  0  0  0  0  0  0
   -6.7840    2.4159   -0.2747 H   0  0  0  0  0  0  0  0  0  0  0  0
   -8.2258    2.9963   -1.9861 H   0  0  0  0  0  0  0  0  0  0  0  0
   -9.5324    2.4241   -0.8644 H   0  0  0  0  0  0  0  0  0  0  0  0
   -8.6036    1.2395   -3.3929 H   0  0  0  0  0  0  0  0  0  0  0  0
   -9.9503    0.6592   -2.3288 H   0  0  0  0  0  0  0  0  0  0  0  0
   -7.5471   -0.7212   -2.7243 H   0  0  0  0  0  0  0  0  0  0  0  0
   -8.5945   -0.8729   -1.2532 H   0  0  0  0  0  0  0  0  0  0  0  0
   -0.9174    1.9392   -0.2374 H   0  0  0  0  0  0  0  0  0  0  0  0
   -2.1032    1.9415   -1.5642 H   0  0  0  0  0  0  0  0  0  0  0  0
   -1.5797   -0.2804   -2.2472 H   0  0  0  0  0  0  0  0  0  0  0  0
   -1.0447   -0.7649   -0.6102 H   0  0  0  0  0  0  0  0  0  0  0  0
    0.4628    0.8637   -2.7436 H   0  0  0  0  0  0  0  0  0  0  0  0
    0.9325    1.0028   -1.0281 H   0  0  0  0  0  0  0  0  0  0  0  0
    1.3884   -1.2148   -2.9814 H   0  0  0  0  0  0  0  0  0  0  0  0
    0.7232   -1.8456   -1.4630 H   0  0  0  0  0  0  0  0  0  0  0  0
    2.8376   -3.1198   -1.0906 H   0  0  0  0  0  0  0  0  0  0  0  0
    3.4782   -2.4222   -2.6052 H   0  0  0  0  0  0  0  0  0  0  0  0
    5.5270   -2.7744   -1.6711 H   0  0  0  0  0  0  0  0  0  0  0  0
    4.8537   -2.9127   -0.0141 H   0  0  0  0  0  0  0  0  0  0  0  0
    7.3917   -1.0393   -1.1949 H   0  0  0  0  0  0  0  0  0  0  0  0
    7.0176   -1.8758    0.3384 H   0  0  0  0  0  0  0  0  0  0  0  0
    8.5757    1.0316   -0.8716 H   0  0  0  0  0  0  0  0  0  0  0  0
    9.1552    2.9783    0.5433 H   0  0  0  0  0  0  0  0  0  0  0  0
    8.0490    3.2763    2.7468 H   0  0  0  0  0  0  0  0  0  0  0  0
    6.3864    1.5966    3.5194 H   0  0  0  0  0  0  0  0  0  0  0  0
    5.5001   -0.3662   -2.6430 H   0  0  0  0  0  0  0  0  0  0  0  0
    5.5264    1.0014   -1.4775 H   0  0  0  0  0  0  0  0  0  0  0  0
    3.3387    0.2781   -2.9612 H   0  0  0  0  0  0  0  0  0  0  0  0
    3.2525    1.2112   -1.4565 H   0  0  0  0  0  0  0  0  0  0  0  0
    2.1045   -2.6468    2.9645 H   0  0  0  0  0  0  0  0  0  0  0  0
    2.2292   -0.8715    2.9409 H   0  0  0  0  0  0  0  0  0  0  0  0
   -0.0609   -1.9083    3.6205 H   0  0  0  0  0  0  0  0  0  0  0  0
   -0.1646   -3.5276    2.1174 H   0  0  0  0  0  0  0  0  0  0  0  0
    0.0083    0.0051    1.2205 H   0  0  0  0  0  0  0  0  0  0  0  0
   -0.1589    0.4407    4.0350 H   0  0  0  0  0  0  0  0  0  0  0  0
   -2.2604   -0.3600    3.2788 H   0  0  0  0  0  0  0  0  0  0  0  0
   -2.3079   -1.1044    1.6579 H   0  0  0  0  0  0  0  0  0  0  0  0
   -1.7800    1.9108    1.8442 H   0  0  0  0  0  0  0  0  0  0  0  0
   -3.4038    1.3326    2.1859 H   0  0  0  0  0  0  0  0  0  0  0  0
  1  2  2  0
  2  3  1  0
  3  4  1  0
  4  5  1  0
  5  6  1  0
  6  7  1  0
  7  8  1  0
  8  9  1  0
  2 10  1  0
 10 11  1  0
 11 12  1  0
 12 13  1  0
 13 14  1  0
 14 15  1  0
 15 16  1  0
 16 17  1  0
 17 18  1  0
 18 19  1  0
 19 20  1  0
 20 21  2  0
 21 22  1  0
 22 23  2  0
 23 24  1  0
 24 25  2  0
 18 26  1  0
 26 27  1  0
 15 28  1  0
 28 29  2  0
 28 30  1  0
 30 31  1  0
 31 32  1  0
 32 33  1  0
 32 34  1  0
 34 35  1  0
 34 36  1  0
 36 37  1  0
  9  5  1  0
 37 10  1  0
 27 15  1  0
 25 20  1  0
  3 38  1  0
  3 39  1  0
  4 40  1  0
  4 41  1  0
  6 42  1  0
  6 43  1  0
  7 44  1  0
  7 45  1  0
  8 46  1  0
  8 47  1  0
  9 48  1  0
  9 49  1  0
 11 50  1  0
 11 51  1  0
 12 52  1  0
 12 53  1  0
 13 54  1  0
 13 55  1  0
 14 56  1  0
 14 57  1  0
 16 58  1  0
 16 59  1  0
 17 60  1  0
 17 61  1  0
 19 62  1  0
 19 63  1  0
 21 64  1  0
 22 65  1  0
 23 66  1  0
 24 67  1  0
 26 68  1  0
 26 69  1  0
 27 70  1  0
 27 71  1  0
 31 72  1  0
 31 73  1  0
 32 74  1  0
 33 75  1  0
 34 76  1  0
 35 77  1  0
 36 78  1  0
 36 79  1  0
 37 80  1  0
 37 81  1  0
M  END
$$$$
