
     RDKit          3D

 82 85  0  0  0  0  0  0  0  0999 V2000
    8.3323    1.7436   -2.0563 C   0  0  0  0  0  0  0  0  0  0  0  0
    7.8950    0.9160   -0.9166 N   0  0  0  0  0  0  0  0  0  0  0  0
    9.0462    0.6153   -0.0486 C   0  0  0  0  0  0  0  0  0  0  0  0
    6.8254    1.5924   -0.1491 C   0  0  0  0  0  0  0  0  0  0  0  0
    5.4392    1.2635   -0.7213 C   0  0  0  0  0  0  0  0  0  0  0  0
    5.1626   -0.2457   -0.7121 C   0  0  0  0  0  0  0  0  0  0  0  0
    3.7505   -0.5066   -0.9767 N   0  0  0  0  0  0  0  0  0  0  0  0
    2.7396   -0.3102    0.0229 C   0  0  0  0  0  0  0  0  0  0  0  0
    3.0629    0.0445    1.1901 O   0  0  0  0  0  0  0  0  0  0  0  0
    1.2855   -0.5251   -0.2989 C   0  0  0  0  0  0  0  0  0  0  0  0
    0.9565   -2.0099   -0.5548 C   0  0  0  0  0  0  0  0  0  0  0  0
    1.2214   -2.9189    0.6584 C   0  0  0  0  0  0  0  0  0  0  0  0
    0.3816   -2.5975    1.8730 C   0  0  0  0  0  0  0  0  0  0  0  0
    0.8075   -2.9393    3.0072 O   0  0  0  0  0  0  0  0  0  0  0  0
   -0.8747   -1.9084    1.7836 N   0  0  0  0  0  0  0  0  0  0  0  0
   -2.1219   -2.4824    1.2597 C   0  0  0  0  0  0  0  0  0  0  0  0
   -2.0965   -3.8882    0.6510 C   0  0  0  0  0  0  0  0  0  0  0  0
   -2.5724   -3.6909    2.0804 C   0  0  0  0  0  0  0  0  0  0  0  0
   -3.2563   -1.5031    1.0449 C   0  0  0  0  0  0  0  0  0  0  0  0
   -3.6980   -0.8795    2.0450 O   0  0  0  0  0  0  0  0  0  0  0  0
   -3.7779   -1.1965   -0.2651 N   0  0  0  0  0  0  0  0  0  0  0  0
   -4.4262   -2.2467   -1.0505 C   0  0  0  0  0  0  0  0  0  0  0  0
   -3.6962    0.1642   -0.8409 C   0  0  0  0  0  0  0  0  0  0  0  0
   -4.6530    1.1536   -0.1419 C   0  0  0  0  0  0  0  0  0  0  0  0
   -6.0941    0.7860   -0.3792 C   0  0  0  0  0  0  0  0  0  0  0  0
   -6.7455    1.2137   -1.5534 C   0  0  0  0  0  0  0  0  0  0  0  0
   -8.0723    0.8503   -1.7895 C   0  0  0  0  0  0  0  0  0  0  0  0
   -8.7560    0.0493   -0.8690 C   0  0  0  0  0  0  0  0  0  0  0  0
   -8.1114   -0.3935    0.2873 C   0  0  0  0  0  0  0  0  0  0  0  0
   -6.7856   -0.0232    0.5402 C   0  0  0  0  0  0  0  0  0  0  0  0
   -2.2525    0.6898   -0.8595 C   0  0  0  0  0  0  0  0  0  0  0  0
   -1.8192    1.0330    0.4556 O   0  0  0  0  0  0  0  0  0  0  0  0
   -0.7982    1.9459    0.7836 C   0  0  0  0  0  0  0  0  0  0  0  0
   -0.8556    2.5159    2.0626 C   0  0  0  0  0  0  0  0  0  0  0  0
    0.0777    3.4739    2.4643 C   0  0  0  0  0  0  0  0  0  0  0  0
    1.0914    3.8724    1.5923 C   0  0  0  0  0  0  0  0  0  0  0  0
    1.1837    3.2995    0.3233 C   0  0  0  0  0  0  0  0  0  0  0  0
    0.2668    2.3153   -0.0879 C   0  0  0  0  0  0  0  0  0  0  0  0
    0.5175    1.6571   -1.3851 C   0  0  0  0  0  0  0  0  0  0  0  0
    0.4208    2.3372   -2.4434 O   0  0  0  0  0  0  0  0  0  0  0  0
    0.9173    0.2801   -1.4676 N   0  0  0  0  0  0  0  0  0  0  0  0
    8.7252    2.7253   -1.7200 H   0  0  0  0  0  0  0  0  0  0  0  0
    9.1312    1.2250   -2.6249 H   0  0  0  0  0  0  0  0  0  0  0  0
    7.4885    1.9003   -2.7564 H   0  0  0  0  0  0  0  0  0  0  0  0
    9.8449    0.1037   -0.6283 H   0  0  0  0  0  0  0  0  0  0  0  0
    9.4580    1.5400    0.4099 H   0  0  0  0  0  0  0  0  0  0  0  0
    8.7405   -0.0828    0.7609 H   0  0  0  0  0  0  0  0  0  0  0  0
    6.9703    2.6973   -0.1370 H   0  0  0  0  0  0  0  0  0  0  0  0
    6.8272    1.2677    0.9183 H   0  0  0  0  0  0  0  0  0  0  0  0
    4.6763    1.7864   -0.1042 H   0  0  0  0  0  0  0  0  0  0  0  0
    5.3487    1.6443   -1.7606 H   0  0  0  0  0  0  0  0  0  0  0  0
    5.7777   -0.7391   -1.4964 H   0  0  0  0  0  0  0  0  0  0  0  0
    5.4449   -0.6897    0.2646 H   0  0  0  0  0  0  0  0  0  0  0  0
    3.4789   -0.8809   -1.9131 H   0  0  0  0  0  0  0  0  0  0  0  0
    0.6863   -0.2050    0.5730 H   0  0  0  0  0  0  0  0  0  0  0  0
    1.5650   -2.3808   -1.4096 H   0  0  0  0  0  0  0  0  0  0  0  0
   -0.1127   -2.1020   -0.8556 H   0  0  0  0  0  0  0  0  0  0  0  0
    1.0473   -3.9748    0.3604 H   0  0  0  0  0  0  0  0  0  0  0  0
    2.2949   -2.8470    0.9366 H   0  0  0  0  0  0  0  0  0  0  0  0
   -0.9737   -1.0690    2.3982 H   0  0  0  0  0  0  0  0  0  0  0  0
   -2.9171   -4.1924   -0.0240 H   0  0  0  0  0  0  0  0  0  0  0  0
   -1.1305   -4.4317    0.6113 H   0  0  0  0  0  0  0  0  0  0  0  0
   -3.6678   -3.8381    2.1930 H   0  0  0  0  0  0  0  0  0  0  0  0
   -1.8539   -4.0716    2.8378 H   0  0  0  0  0  0  0  0  0  0  0  0
   -5.3015   -1.8360   -1.5983 H   0  0  0  0  0  0  0  0  0  0  0  0
   -3.7035   -2.6634   -1.7807 H   0  0  0  0  0  0  0  0  0  0  0  0
   -4.8151   -3.0445   -0.3925 H   0  0  0  0  0  0  0  0  0  0  0  0
   -4.0020    0.1188   -1.9129 H   0  0  0  0  0  0  0  0  0  0  0  0
   -4.4701    2.1737   -0.5448 H   0  0  0  0  0  0  0  0  0  0  0  0
   -4.4473    1.2165    0.9464 H   0  0  0  0  0  0  0  0  0  0  0  0
   -6.2195    1.8245   -2.2754 H   0  0  0  0  0  0  0  0  0  0  0  0
   -8.5749    1.1864   -2.6889 H   0  0  0  0  0  0  0  0  0  0  0  0
   -9.7817   -0.2366   -1.0601 H   0  0  0  0  0  0  0  0  0  0  0  0
   -8.6351   -1.0226    0.9972 H   0  0  0  0  0  0  0  0  0  0  0  0
   -6.3021   -0.3791    1.4377 H   0  0  0  0  0  0  0  0  0  0  0  0
   -1.5991   -0.0996   -1.2826 H   0  0  0  0  0  0  0  0  0  0  0  0
   -2.2173    1.5916   -1.5143 H   0  0  0  0  0  0  0  0  0  0  0  0
   -1.6409    2.2232    2.7477 H   0  0  0  0  0  0  0  0  0  0  0  0
    0.0176    3.9085    3.4548 H   0  0  0  0  0  0  0  0  0  0  0  0
    1.8145    4.6161    1.9040 H   0  0  0  0  0  0  0  0  0  0  0  0
    1.9985    3.5948   -0.3278 H   0  0  0  0  0  0  0  0  0  0  0  0
    1.1116   -0.1045   -2.4203 H   0  0  0  0  0  0  0  0  0  0  0  0
  1  2  1  0
  2  3  1  0
  2  4  1  0
  4  5  1  0
  5  6  1  0
  6  7  1  0
  7  8  1  0
  8  9  2  0
  8 10  1  0
 10 11  1  0
 11 12  1  0
 12 13  1  0
 13 14  2  0
 13 15  1  0
 15 16  1  0
 16 17  1  0
 17 18  1  0
 16 19  1  0
 19 20  2  0
 19 21  1  0
 21 22  1  0
 21 23  1  0
 23 24  1  0
 24 25  1  0
 25 26  2  0
 26 27  1  0
 27 28  2  0
 28 29  1  0
 29 30  2  0
 23 31  1  0
 31 32  1  0
 32 33  1  0
 33 34  2  0
 34 35  1  0
 35 36  2  0
 36 37  1  0
 37 38  2  0
 38 39  1  0
 39 40  2  0
 39 41  1  0
 41 10  1  0
 18 16  1  0
 30 25  1  0
 38 33  1  0
  1 42  1  0
  1 43  1  0
  1 44  1  0
  3 45  1  0
  3 46  1  0
  3 47  1  0
  4 48  1  0
  4 49  1  0
  5 50  1  0
  5 51  1  0
  6 52  1  0
  6 53  1  0
  7 54  1  0
 10 55  1  0
 11 56  1  0
 11 57  1  0
 12 58  1  0
 12 59  1  0
 15 60  1  0
 17 61  1  0
 17 62  1  0
 18 63  1  0
 18 64  1  0
 22 65  1  0
 22 66  1  0
 22 67  1  0
 23 68  1  0
 24 69  1  0
 24 70  1  0
 26 71  1  0
 27 72  1  0
 28 73  1  0
 29 74  1  0
 30 75  1  0
 31 76  1  0
 31 77  1  0
 34 78  1  0
 35 79  1  0
 36 80  1  0
 37 81  1  0
 41 82  1  0
M  END
$$$$
