
     RDKit          3D

 72 75  0  0  0  0  0  0  0  0999 V2000
   -6.6941    1.9747    1.7803 C   0  0  0  0  0  0  0  0  0  0  0  0
   -5.6431    0.9412    1.7411 N   0  0  0  0  0  0  0  0  0  0  0  0
   -6.0494   -0.2410    2.5348 C   0  0  0  0  0  0  0  0  0  0  0  0
   -5.4587   -1.5390    1.9544 C   0  0  0  0  0  0  0  0  0  0  0  0
   -6.1310   -1.9951    0.6369 C   0  0  0  0  0  0  0  0  0  0  0  0
   -5.4902   -1.3923   -0.6249 C   0  0  0  0  0  0  0  0  0  0  0  0
   -4.1712   -2.0801   -1.0057 C   0  0  0  0  0  0  0  0  0  0  0  0
   -3.3858   -1.1883   -1.7967 O   0  0  0  0  0  0  0  0  0  0  0  0
   -1.9846   -1.1491   -1.7628 C   0  0  0  0  0  0  0  0  0  0  0  0
   -1.2324   -2.2955   -1.4733 C   0  0  0  0  0  0  0  0  0  0  0  0
    0.1552   -2.2179   -1.3442 C   0  0  0  0  0  0  0  0  0  0  0  0
    0.8235   -0.9937   -1.5183 C   0  0  0  0  0  0  0  0  0  0  0  0
    2.2908   -0.8818   -1.3189 C   0  0  0  0  0  0  0  0  0  0  0  0
    2.8011    0.2561   -1.1298 O   0  0  0  0  0  0  0  0  0  0  0  0
    3.1412   -2.0410   -1.3249 N   0  0  0  0  0  0  0  0  0  0  0  0
    4.4562   -2.0414   -0.6884 C   0  0  0  0  0  0  0  0  0  0  0  0
    5.5145   -1.4572   -1.6254 C   0  0  0  0  0  0  0  0  0  0  0  0
    6.8043   -1.4145   -0.9456 N   0  0  0  0  0  0  0  0  0  0  0  0
    7.6950   -2.4215   -0.8806 C   0  0  0  0  0  0  0  0  0  0  0  0
    8.7185   -2.0462   -0.0368 C   0  0  0  0  0  0  0  0  0  0  0  0
    8.3596   -0.7812    0.3826 C   0  0  0  0  0  0  0  0  0  0  0  0
    9.0973    0.0179    1.3093 N   0  0  0  0  0  0  0  0  0  0  0  0
    8.4873    1.5277    1.9000 S   0  0  0  0  0  6  0  0  0  0  0  0
    8.3094    2.6878    0.5615 C   0  0  0  0  0  0  0  0  0  0  0  0
    7.1593    1.3078    2.5718 O   0  0  0  0  0  0  0  0  0  0  0  0
    9.4542    2.0904    2.9033 O   0  0  0  0  0  0  0  0  0  0  0  0
    7.1887   -0.4147   -0.1686 N   0  0  0  0  0  0  0  0  0  0  0  0
    0.0695    0.1494   -1.8356 C   0  0  0  0  0  0  0  0  0  0  0  0
   -1.3255    0.0769   -1.9800 C   0  0  0  0  0  0  0  0  0  0  0  0
   -2.1078    1.3265   -2.3177 C   0  0  0  0  0  0  0  0  0  0  0  0
   -2.5587    2.1140   -1.1033 C   0  0  0  0  0  0  0  0  0  0  0  0
   -2.6282    3.5174   -1.1829 C   0  0  0  0  0  0  0  0  0  0  0  0
   -3.1856    4.2618   -0.1395 C   0  0  0  0  0  0  0  0  0  0  0  0
   -3.7107    3.6172    0.9824 C   0  0  0  0  0  0  0  0  0  0  0  0
   -3.6665    2.2173    1.0750 C   0  0  0  0  0  0  0  0  0  0  0  0
   -3.0776    1.4763    0.0399 C   0  0  0  0  0  0  0  0  0  0  0  0
   -4.3491    1.4945    2.2072 C   0  0  0  0  0  0  0  0  0  0  0  0
   -7.6403    1.5793    1.3484 H   0  0  0  0  0  0  0  0  0  0  0  0
   -6.8881    2.3107    2.8235 H   0  0  0  0  0  0  0  0  0  0  0  0
   -6.4055    2.8477    1.1602 H   0  0  0  0  0  0  0  0  0  0  0  0
   -5.7255   -0.1313    3.5959 H   0  0  0  0  0  0  0  0  0  0  0  0
   -7.1571   -0.3532    2.5673 H   0  0  0  0  0  0  0  0  0  0  0  0
   -5.6175   -2.3342    2.7125 H   0  0  0  0  0  0  0  0  0  0  0  0
   -4.3622   -1.4375    1.8349 H   0  0  0  0  0  0  0  0  0  0  0  0
   -6.0860   -3.1042    0.5686 H   0  0  0  0  0  0  0  0  0  0  0  0
   -7.2095   -1.7228    0.6513 H   0  0  0  0  0  0  0  0  0  0  0  0
   -6.1982   -1.5007   -1.4774 H   0  0  0  0  0  0  0  0  0  0  0  0
   -5.3294   -0.3052   -0.4807 H   0  0  0  0  0  0  0  0  0  0  0  0
   -3.6081   -2.3624   -0.0917 H   0  0  0  0  0  0  0  0  0  0  0  0
   -4.3786   -3.0093   -1.5834 H   0  0  0  0  0  0  0  0  0  0  0  0
   -1.7183   -3.2517   -1.3282 H   0  0  0  0  0  0  0  0  0  0  0  0
    0.6874   -3.1197   -1.0746 H   0  0  0  0  0  0  0  0  0  0  0  0
    2.8046   -2.9377   -1.7356 H   0  0  0  0  0  0  0  0  0  0  0  0
    4.7352   -3.0881   -0.4360 H   0  0  0  0  0  0  0  0  0  0  0  0
    4.4171   -1.4623    0.2614 H   0  0  0  0  0  0  0  0  0  0  0  0
    5.5934   -2.0817   -2.5419 H   0  0  0  0  0  0  0  0  0  0  0  0
    5.2286   -0.4310   -1.9358 H   0  0  0  0  0  0  0  0  0  0  0  0
    7.5952   -3.3711   -1.3885 H   0  0  0  0  0  0  0  0  0  0  0  0
    9.5851   -2.6216    0.2542 H   0  0  0  0  0  0  0  0  0  0  0  0
    9.9976   -0.3420    1.6920 H   0  0  0  0  0  0  0  0  0  0  0  0
    8.0338    3.6823    0.9683 H   0  0  0  0  0  0  0  0  0  0  0  0
    9.2716    2.7699    0.0124 H   0  0  0  0  0  0  0  0  0  0  0  0
    7.5146    2.3404   -0.1314 H   0  0  0  0  0  0  0  0  0  0  0  0
    0.5640    1.1032   -1.9763 H   0  0  0  0  0  0  0  0  0  0  0  0
   -3.0031    1.0656   -2.9231 H   0  0  0  0  0  0  0  0  0  0  0  0
   -1.4806    1.9716   -2.9735 H   0  0  0  0  0  0  0  0  0  0  0  0
   -2.2680    4.0347   -2.0639 H   0  0  0  0  0  0  0  0  0  0  0  0
   -3.2422    5.3399   -0.2165 H   0  0  0  0  0  0  0  0  0  0  0  0
   -4.1775    4.2078    1.7634 H   0  0  0  0  0  0  0  0  0  0  0  0
   -3.0532    0.4020    0.1318 H   0  0  0  0  0  0  0  0  0  0  0  0
   -3.6685    0.6840    2.5489 H   0  0  0  0  0  0  0  0  0  0  0  0
   -4.4866    2.1649    3.0868 H   0  0  0  0  0  0  0  0  0  0  0  0
  1  2  1  0
  2  3  1  0
  3  4  1  0
  4  5  1  0
  5  6  1  0
  6  7  1  0
  7  8  1  0
  8  9  1  0
  9 10  2  0
 10 11  1  0
 11 12  2  0
 12 13  1  0
 13 14  2  0
 13 15  1  0
 15 16  1  0
 16 17  1  0
 17 18  1  0
 18 19  1  0
 19 20  2  0
 20 21  1  0
 21 22  1  0
 22 23  1  0
 23 24  1  0
 23 25  2  0
 23 26  2  0
 21 27  2  0
 12 28  1  0
 28 29  2  0
 29 30  1  0
 30 31  1  0
 31 32  1  0
 32 33  2  0
 33 34  1  0
 34 35  2  0
 35 36  1  0
 35 37  1  0
 37  2  1  0
 29  9  1  0
 36 31  2  0
 27 18  1  0
  1 38  1  0
  1 39  1  0
  1 40  1  0
  3 41  1  0
  3 42  1  0
  4 43  1  0
  4 44  1  0
  5 45  1  0
  5 46  1  0
  6 47  1  0
  6 48  1  0
  7 49  1  0
  7 50  1  0
 10 51  1  0
 11 52  1  0
 15 53  1  0
 16 54  1  0
 16 55  1  0
 17 56  1  0
 17 57  1  0
 19 58  1  0
 20 59  1  0
 22 60  1  0
 24 61  1  0
 24 62  1  0
 24 63  1  0
 28 64  1  0
 30 65  1  0
 30 66  1  0
 32 67  1  0
 33 68  1  0
 34 69  1  0
 36 70  1  0
 37 71  1  0
 37 72  1  0
M  END
$$$$
