
     RDKit          3D

 75 77  0  0  0  0  0  0  0  0999 V2000
   -3.4653    4.4421   -2.1189 C   0  0  0  0  0  0  0  0  0  0  0  0
   -2.3131    3.6789   -1.5391 C   0  0  0  0  0  0  0  0  0  0  0  0
   -1.1648    3.8430   -2.0599 O   0  0  0  0  0  0  0  0  0  0  0  0
   -2.4844    2.7460   -0.4457 N   0  0  0  0  0  0  0  0  0  0  0  0
   -3.8215    2.5469    0.1529 C   0  0  0  0  0  0  0  0  0  0  0  0
   -3.8516    1.4806    1.2657 C   0  0  0  0  0  0  0  0  0  0  0  0
   -5.2728    1.0027    1.6356 C   0  0  0  0  0  0  0  0  0  0  0  0
   -6.0627    0.2719    0.5157 C   0  0  0  0  0  0  0  0  0  0  0  0
   -5.7889   -1.2434    0.3521 C   0  0  0  0  0  0  0  0  0  0  0  0
   -4.3236   -1.6586    0.1543 C   0  0  0  0  0  0  0  0  0  0  0  0
   -3.6289   -1.0154   -1.0661 C   0  0  0  0  0  0  0  0  0  0  0  0
   -2.1564   -1.0232   -0.8748 N   0  0  0  0  0  0  0  0  0  0  0  0
   -1.5627   -2.3917   -1.0202 C   0  0  0  0  0  0  0  0  0  0  0  0
   -0.5643   -2.5699   -2.1795 C   0  0  0  0  0  0  0  0  0  0  0  0
   -0.9424   -2.8140    0.3144 C   0  0  0  0  0  0  0  0  0  0  0  0
   -1.4552    0.1499   -1.4775 C   0  0  0  0  0  0  0  0  0  0  0  0
   -0.7391    0.9635   -0.4125 C   0  0  0  0  0  0  0  0  0  0  0  0
    0.5486    0.5676    0.0123 C   0  0  0  0  0  0  0  0  0  0  0  0
    1.2647    1.3315    0.9541 C   0  0  0  0  0  0  0  0  0  0  0  0
    2.6831    1.0351    1.2800 C   0  0  0  0  0  0  0  0  0  0  0  0
    3.4938    2.0047    1.3497 O   0  0  0  0  0  0  0  0  0  0  0  0
    3.1610   -0.2987    1.5532 N   0  0  0  0  0  0  0  0  0  0  0  0
    2.2499   -1.3598    1.9890 C   0  0  0  0  0  0  0  0  0  0  0  0
    4.6007   -0.5899    1.4516 C   0  0  0  0  0  0  0  0  0  0  0  0
    5.0226   -0.6892   -0.0169 C   0  0  0  0  0  0  0  0  0  0  0  0
    6.4968   -0.9846   -0.1182 C   0  0  0  0  0  0  0  0  0  0  0  0
    6.9618   -2.3086   -0.0526 C   0  0  0  0  0  0  0  0  0  0  0  0
    8.3342   -2.5794   -0.0875 C   0  0  0  0  0  0  0  0  0  0  0  0
    9.2535   -1.5288   -0.1977 C   0  0  0  0  0  0  0  0  0  0  0  0
    8.8004   -0.2114   -0.2626 C   0  0  0  0  0  0  0  0  0  0  0  0
    7.4267    0.0626   -0.2146 C   0  0  0  0  0  0  0  0  0  0  0  0
    0.6645    2.4726    1.5036 C   0  0  0  0  0  0  0  0  0  0  0  0
   -0.6023    2.8779    1.0935 C   0  0  0  0  0  0  0  0  0  0  0  0
   -1.2969    2.1565    0.1163 C   0  0  0  0  0  0  0  0  0  0  0  0
   -4.1355    3.7483   -2.6745 H   0  0  0  0  0  0  0  0  0  0  0  0
   -4.0344    4.9498   -1.3193 H   0  0  0  0  0  0  0  0  0  0  0  0
   -3.0984    5.2195   -2.8247 H   0  0  0  0  0  0  0  0  0  0  0  0
   -4.5095    2.2696   -0.6710 H   0  0  0  0  0  0  0  0  0  0  0  0
   -4.1865    3.5117    0.5805 H   0  0  0  0  0  0  0  0  0  0  0  0
   -3.2158    0.6301    0.9971 H   0  0  0  0  0  0  0  0  0  0  0  0
   -3.3931    1.9216    2.1756 H   0  0  0  0  0  0  0  0  0  0  0  0
   -5.2053    0.3333    2.5206 H   0  0  0  0  0  0  0  0  0  0  0  0
   -5.8574    1.8974    1.9532 H   0  0  0  0  0  0  0  0  0  0  0  0
   -7.1388    0.3581    0.7806 H   0  0  0  0  0  0  0  0  0  0  0  0
   -5.9908    0.7763   -0.4638 H   0  0  0  0  0  0  0  0  0  0  0  0
   -6.1831   -1.7737    1.2512 H   0  0  0  0  0  0  0  0  0  0  0  0
   -6.3774   -1.6088   -0.5253 H   0  0  0  0  0  0  0  0  0  0  0  0
   -4.3080   -2.7620    0.0227 H   0  0  0  0  0  0  0  0  0  0  0  0
   -3.7636   -1.4612    1.0911 H   0  0  0  0  0  0  0  0  0  0  0  0
   -4.0020    0.0172   -1.1908 H   0  0  0  0  0  0  0  0  0  0  0  0
   -3.9091   -1.5532   -1.9977 H   0  0  0  0  0  0  0  0  0  0  0  0
   -2.3606   -3.1473   -1.2246 H   0  0  0  0  0  0  0  0  0  0  0  0
   -0.3371   -3.6478   -2.3228 H   0  0  0  0  0  0  0  0  0  0  0  0
   -1.0060   -2.2000   -3.1299 H   0  0  0  0  0  0  0  0  0  0  0  0
    0.3953   -2.0513   -1.9760 H   0  0  0  0  0  0  0  0  0  0  0  0
   -0.3914   -3.7756    0.2073 H   0  0  0  0  0  0  0  0  0  0  0  0
   -1.7357   -2.9494    1.0809 H   0  0  0  0  0  0  0  0  0  0  0  0
   -0.2481   -2.0328    0.6756 H   0  0  0  0  0  0  0  0  0  0  0  0
   -2.1559    0.8034   -2.0386 H   0  0  0  0  0  0  0  0  0  0  0  0
   -0.7231   -0.1195   -2.2568 H   0  0  0  0  0  0  0  0  0  0  0  0
    1.0233   -0.2938   -0.4427 H   0  0  0  0  0  0  0  0  0  0  0  0
    2.7591   -2.0620    2.6868 H   0  0  0  0  0  0  0  0  0  0  0  0
    1.3702   -0.9373    2.5171 H   0  0  0  0  0  0  0  0  0  0  0  0
    1.9359   -1.9469    1.1002 H   0  0  0  0  0  0  0  0  0  0  0  0
    5.1828    0.1994    1.9680 H   0  0  0  0  0  0  0  0  0  0  0  0
    4.8501   -1.5466    1.9608 H   0  0  0  0  0  0  0  0  0  0  0  0
    4.7898    0.2627   -0.5432 H   0  0  0  0  0  0  0  0  0  0  0  0
    4.4414   -1.4943   -0.5174 H   0  0  0  0  0  0  0  0  0  0  0  0
    6.2641   -3.1282    0.0303 H   0  0  0  0  0  0  0  0  0  0  0  0
    8.6912   -3.6021   -0.0256 H   0  0  0  0  0  0  0  0  0  0  0  0
   10.3147   -1.7387   -0.2353 H   0  0  0  0  0  0  0  0  0  0  0  0
    9.5129    0.6006   -0.3497 H   0  0  0  0  0  0  0  0  0  0  0  0
    7.0969    1.0936   -0.2427 H   0  0  0  0  0  0  0  0  0  0  0  0
    1.1928    3.0766    2.2297 H   0  0  0  0  0  0  0  0  0  0  0  0
   -1.0192    3.7956    1.4920 H   0  0  0  0  0  0  0  0  0  0  0  0
  1  2  1  0
  2  3  2  0
  2  4  1  0
  4  5  1  0
  5  6  1  0
  6  7  1  0
  7  8  1  0
  8  9  1  0
  9 10  1  0
 10 11  1  0
 11 12  1  0
 12 13  1  0
 13 14  1  0
 13 15  1  0
 12 16  1  0
 16 17  1  0
 17 18  2  0
 18 19  1  0
 19 20  1  0
 20 21  2  0
 20 22  1  0
 22 23  1  0
 22 24  1  0
 24 25  1  0
 25 26  1  0
 26 27  2  0
 27 28  1  0
 28 29  2  0
 29 30  1  0
 30 31  2  0
 19 32  2  0
 32 33  1  0
 33 34  2  0
 34  4  1  0
 34 17  1  0
 31 26  1  0
  1 35  1  0
  1 36  1  0
  1 37  1  0
  5 38  1  0
  5 39  1  0
  6 40  1  0
  6 41  1  0
  7 42  1  0
  7 43  1  0
  8 44  1  0
  8 45  1  0
  9 46  1  0
  9 47  1  0
 10 48  1  0
 10 49  1  0
 11 50  1  0
 11 51  1  0
 13 52  1  0
 14 53  1  0
 14 54  1  0
 14 55  1  0
 15 56  1  0
 15 57  1  0
 15 58  1  0
 16 59  1  0
 16 60  1  0
 18 61  1  0
 23 62  1  0
 23 63  1  0
 23 64  1  0
 24 65  1  0
 24 66  1  0
 25 67  1  0
 25 68  1  0
 27 69  1  0
 28 70  1  0
 29 71  1  0
 30 72  1  0
 31 73  1  0
 32 74  1  0
 33 75  1  0
M  END
$$$$
