
     RDKit          3D

 73 76  0  0  0  0  0  0  0  0999 V2000
   -8.0358    1.6409   -0.4557 C   0  0  0  0  0  0  0  0  0  0  0  0
   -6.7704    0.9312   -0.2110 N   0  0  0  0  0  0  0  0  0  0  0  0
   -6.5188    0.7886    1.2474 C   0  0  0  0  0  0  0  0  0  0  0  0
   -5.0595    1.1304    1.6021 C   0  0  0  0  0  0  0  0  0  0  0  0
   -4.5867    2.4373    0.9405 C   0  0  0  0  0  0  0  0  0  0  0  0
   -3.3249    3.0226    1.5902 C   0  0  0  0  0  0  0  0  0  0  0  0
   -2.1172    2.0780    1.6019 C   0  0  0  0  0  0  0  0  0  0  0  0
   -1.8491    1.5743    0.2911 O   0  0  0  0  0  0  0  0  0  0  0  0
   -0.7116    0.8210   -0.0589 C   0  0  0  0  0  0  0  0  0  0  0  0
    0.4221    0.7524    0.7752 C   0  0  0  0  0  0  0  0  0  0  0  0
    1.5548    0.0360    0.3827 C   0  0  0  0  0  0  0  0  0  0  0  0
    1.5742   -0.6450   -0.8429 C   0  0  0  0  0  0  0  0  0  0  0  0
    2.7676   -1.4079   -1.2679 C   0  0  0  0  0  0  0  0  0  0  0  0
    2.6247   -2.4319   -1.9912 O   0  0  0  0  0  0  0  0  0  0  0  0
    4.0848   -0.9752   -0.8968 N   0  0  0  0  0  0  0  0  0  0  0  0
    5.2592   -1.8131   -1.1536 C   0  0  0  0  0  0  0  0  0  0  0  0
    6.5956   -1.0991   -0.7791 C   0  0  0  0  0  0  0  0  0  0  0  0
    6.8319    0.0275   -1.8204 C   0  0  0  0  0  0  0  0  0  0  0  0
    7.7423   -2.1218   -0.8987 C   0  0  0  0  0  0  0  0  0  0  0  0
    6.5903   -0.5541    0.6670 C   0  0  0  0  0  0  0  0  0  0  0  0
    7.3667    0.5726    1.0295 C   0  0  0  0  0  0  0  0  0  0  0  0
    7.3940    1.0344    2.3490 C   0  0  0  0  0  0  0  0  0  0  0  0
    6.6696    0.3722    3.3396 C   0  0  0  0  0  0  0  0  0  0  0  0
    5.9286   -0.7651    3.0159 C   0  0  0  0  0  0  0  0  0  0  0  0
    5.2422   -1.4241    3.9829 F   0  0  0  0  0  0  0  0  0  0  0  0
    5.9008   -1.2340    1.6990 C   0  0  0  0  0  0  0  0  0  0  0  0
    0.4350   -0.6152   -1.6593 C   0  0  0  0  0  0  0  0  0  0  0  0
   -0.7027    0.1183   -1.2835 C   0  0  0  0  0  0  0  0  0  0  0  0
   -1.9280    0.0822   -2.1668 C   0  0  0  0  0  0  0  0  0  0  0  0
   -3.0405   -0.7294   -1.5446 C   0  0  0  0  0  0  0  0  0  0  0  0
   -2.7875   -1.9884   -0.9674 C   0  0  0  0  0  0  0  0  0  0  0  0
   -3.8225   -2.7109   -0.3700 C   0  0  0  0  0  0  0  0  0  0  0  0
   -5.1211   -2.1947   -0.3538 C   0  0  0  0  0  0  0  0  0  0  0  0
   -5.3961   -0.9577   -0.9576 C   0  0  0  0  0  0  0  0  0  0  0  0
   -4.3567   -0.2424   -1.5728 C   0  0  0  0  0  0  0  0  0  0  0  0
   -6.7804   -0.3696   -0.9117 C   0  0  0  0  0  0  0  0  0  0  0  0
   -8.1947    1.7861   -1.5471 H   0  0  0  0  0  0  0  0  0  0  0  0
   -8.8961    1.0756   -0.0299 H   0  0  0  0  0  0  0  0  0  0  0  0
   -8.0005    2.6554    0.0011 H   0  0  0  0  0  0  0  0  0  0  0  0
   -7.1686    1.4696    1.8454 H   0  0  0  0  0  0  0  0  0  0  0  0
   -6.7465   -0.2393    1.6065 H   0  0  0  0  0  0  0  0  0  0  0  0
   -4.9878    1.2243    2.7087 H   0  0  0  0  0  0  0  0  0  0  0  0
   -4.3903    0.2962    1.2947 H   0  0  0  0  0  0  0  0  0  0  0  0
   -5.3934    3.2002    1.0180 H   0  0  0  0  0  0  0  0  0  0  0  0
   -4.3921    2.2644   -0.1384 H   0  0  0  0  0  0  0  0  0  0  0  0
   -3.0462    3.9491    1.0442 H   0  0  0  0  0  0  0  0  0  0  0  0
   -3.5584    3.3165    2.6367 H   0  0  0  0  0  0  0  0  0  0  0  0
   -1.2498    2.6670    1.9656 H   0  0  0  0  0  0  0  0  0  0  0  0
   -2.2936    1.2354    2.3043 H   0  0  0  0  0  0  0  0  0  0  0  0
    0.4462    1.2557    1.7302 H   0  0  0  0  0  0  0  0  0  0  0  0
    2.4079   -0.0029    1.0486 H   0  0  0  0  0  0  0  0  0  0  0  0
    4.2023   -0.0283   -0.4722 H   0  0  0  0  0  0  0  0  0  0  0  0
    5.2756   -2.0911   -2.2308 H   0  0  0  0  0  0  0  0  0  0  0  0
    5.1511   -2.7702   -0.6005 H   0  0  0  0  0  0  0  0  0  0  0  0
    7.8810    0.3925   -1.7972 H   0  0  0  0  0  0  0  0  0  0  0  0
    6.6563   -0.3386   -2.8556 H   0  0  0  0  0  0  0  0  0  0  0  0
    6.1492    0.8854   -1.6363 H   0  0  0  0  0  0  0  0  0  0  0  0
    8.7184   -1.6444   -0.6694 H   0  0  0  0  0  0  0  0  0  0  0  0
    7.7932   -2.5364   -1.9284 H   0  0  0  0  0  0  0  0  0  0  0  0
    7.5938   -2.9641   -0.1882 H   0  0  0  0  0  0  0  0  0  0  0  0
    7.9645    1.1012    0.3039 H   0  0  0  0  0  0  0  0  0  0  0  0
    7.9869    1.9033    2.6052 H   0  0  0  0  0  0  0  0  0  0  0  0
    6.6925    0.7336    4.3600 H   0  0  0  0  0  0  0  0  0  0  0  0
    5.3362   -2.1322    1.4976 H   0  0  0  0  0  0  0  0  0  0  0  0
    0.4342   -1.1566   -2.5977 H   0  0  0  0  0  0  0  0  0  0  0  0
   -2.2593    1.1286   -2.3455 H   0  0  0  0  0  0  0  0  0  0  0  0
   -1.6902   -0.3520   -3.1635 H   0  0  0  0  0  0  0  0  0  0  0  0
   -1.7865   -2.4037   -0.9650 H   0  0  0  0  0  0  0  0  0  0  0  0
   -3.6162   -3.6677    0.0923 H   0  0  0  0  0  0  0  0  0  0  0  0
   -5.9066   -2.7572    0.1348 H   0  0  0  0  0  0  0  0  0  0  0  0
   -4.5731    0.7080   -2.0486 H   0  0  0  0  0  0  0  0  0  0  0  0
   -7.5063   -1.0671   -0.4375 H   0  0  0  0  0  0  0  0  0  0  0  0
   -7.1077   -0.2366   -1.9669 H   0  0  0  0  0  0  0  0  0  0  0  0
  1  2  1  0
  2  3  1  0
  3  4  1  0
  4  5  1  0
  5  6  1  0
  6  7  1  0
  7  8  1  0
  8  9  1  0
  9 10  2  0
 10 11  1  0
 11 12  2  0
 12 13  1  0
 13 14  2  0
 13 15  1  0
 15 16  1  0
 16 17  1  0
 17 18  1  0
 17 19  1  0
 17 20  1  0
 20 21  2  0
 21 22  1  0
 22 23  2  0
 23 24  1  0
 24 25  1  0
 24 26  2  0
 12 27  1  0
 27 28  2  0
 28 29  1  0
 29 30  1  0
 30 31  1  0
 31 32  2  0
 32 33  1  0
 33 34  2  0
 34 35  1  0
 34 36  1  0
 36  2  1  0
 28  9  1  0
 35 30  2  0
 26 20  1  0
  1 37  1  0
  1 38  1  0
  1 39  1  0
  3 40  1  0
  3 41  1  0
  4 42  1  0
  4 43  1  0
  5 44  1  0
  5 45  1  0
  6 46  1  0
  6 47  1  0
  7 48  1  0
  7 49  1  0
 10 50  1  0
 11 51  1  0
 15 52  1  0
 16 53  1  0
 16 54  1  0
 18 55  1  0
 18 56  1  0
 18 57  1  0
 19 58  1  0
 19 59  1  0
 19 60  1  0
 21 61  1  0
 22 62  1  0
 23 63  1  0
 26 64  1  0
 27 65  1  0
 29 66  1  0
 29 67  1  0
 31 68  1  0
 32 69  1  0
 33 70  1  0
 35 71  1  0
 36 72  1  0
 36 73  1  0
M  END
$$$$
