
     RDKit          3D

 67 70  0  0  0  0  0  0  0  0999 V2000
    8.6434    1.4511    0.5758 C   0  0  0  0  0  0  0  0  0  0  0  0
    7.1530    1.4572    0.5379 C   0  0  0  0  0  0  0  0  0  0  0  0
    6.4082    0.3385    0.4036 N   0  0  0  0  0  0  0  0  0  0  0  0
    5.0753    0.6079    0.4675 C   0  0  0  0  0  0  0  0  0  0  0  0
    4.0446   -0.4706    0.3192 C   0  0  0  0  0  0  0  0  0  0  0  0
    3.3711   -0.4074   -1.0270 C   0  0  0  0  0  0  0  0  0  0  0  0
    4.0515   -0.1116   -2.0482 O   0  0  0  0  0  0  0  0  0  0  0  0
    1.9680   -0.7068   -1.1718 N   0  0  0  0  0  0  0  0  0  0  0  0
    1.3260   -1.7122   -0.3009 C   0  0  0  0  0  0  0  0  0  0  0  0
    0.4998   -2.7498   -1.0997 C   0  0  0  0  0  0  0  0  0  0  0  0
   -1.0179   -2.5422   -0.9449 C   0  0  0  0  0  0  0  0  0  0  0  0
   -1.5478   -3.0318    0.4222 C   0  0  0  0  0  0  0  0  0  0  0  0
   -2.8587   -2.3761    1.0041 C   0  0  0  0  0  0  0  0  0  0  0  0
   -3.3827   -3.3367    2.1186 C   0  0  0  0  0  0  0  0  0  0  0  0
   -3.7258   -4.5986    1.6010 O   0  0  0  0  0  0  0  0  0  0  0  0
   -2.5637   -1.0226    1.6988 C   0  0  0  0  0  0  0  0  0  0  0  0
   -2.3948    0.1546    0.7419 C   0  0  0  0  0  0  0  0  0  0  0  0
   -3.5538    0.3190   -0.1660 N   0  0  0  0  0  0  0  0  0  0  0  0
   -3.8872   -0.9188   -0.9132 C   0  0  0  0  0  0  0  0  0  0  0  0
   -4.0013   -2.1745   -0.0305 C   0  0  0  0  0  0  0  0  0  0  0  0
   -3.3824    1.4315   -1.1428 C   0  0  0  0  0  0  0  0  0  0  0  0
   -2.6647    2.6460   -0.5855 C   0  0  0  0  0  0  0  0  0  0  0  0
   -3.3754    3.5868    0.1776 C   0  0  0  0  0  0  0  0  0  0  0  0
   -2.7100    4.6652    0.7656 C   0  0  0  0  0  0  0  0  0  0  0  0
   -1.3306    4.8104    0.6048 C   0  0  0  0  0  0  0  0  0  0  0  0
   -0.6083    3.8744   -0.1394 C   0  0  0  0  0  0  0  0  0  0  0  0
   -1.2651    2.7834   -0.7373 C   0  0  0  0  0  0  0  0  0  0  0  0
   -0.5584    1.8134   -1.4677 O   0  0  0  0  0  0  0  0  0  0  0  0
    0.8144    1.4884   -1.2588 C   0  0  0  0  0  0  0  0  0  0  0  0
    1.1533    0.1893   -2.0075 C   0  0  0  0  0  0  0  0  0  0  0  0
    4.7497    1.9500    0.6603 C   0  0  0  0  0  0  0  0  0  0  0  0
    6.1880    2.8170    0.7649 S   0  0  0  0  0  0  0  0  0  0  0  0
    9.0372    0.7307   -0.1718 H   0  0  0  0  0  0  0  0  0  0  0  0
    8.9859    1.1513    1.5894 H   0  0  0  0  0  0  0  0  0  0  0  0
    9.0361    2.4636    0.3417 H   0  0  0  0  0  0  0  0  0  0  0  0
    4.5203   -1.4673    0.4410 H   0  0  0  0  0  0  0  0  0  0  0  0
    3.2905   -0.3443    1.1263 H   0  0  0  0  0  0  0  0  0  0  0  0
    0.7101   -1.1899    0.4616 H   0  0  0  0  0  0  0  0  0  0  0  0
    2.0975   -2.2804    0.2587 H   0  0  0  0  0  0  0  0  0  0  0  0
    0.7573   -3.7779   -0.7618 H   0  0  0  0  0  0  0  0  0  0  0  0
    0.7702   -2.7020   -2.1778 H   0  0  0  0  0  0  0  0  0  0  0  0
   -1.2145   -1.4852   -1.1154 H   0  0  0  0  0  0  0  0  0  0  0  0
   -1.5438   -3.1009   -1.7495 H   0  0  0  0  0  0  0  0  0  0  0  0
   -1.6981   -4.1267    0.3048 H   0  0  0  0  0  0  0  0  0  0  0  0
   -0.7476   -2.9389    1.1879 H   0  0  0  0  0  0  0  0  0  0  0  0
   -4.2600   -2.8954    2.6526 H   0  0  0  0  0  0  0  0  0  0  0  0
   -2.5921   -3.4830    2.8882 H   0  0  0  0  0  0  0  0  0  0  0  0
   -4.6790   -4.5510    1.3275 H   0  0  0  0  0  0  0  0  0  0  0  0
   -3.3988   -0.7587    2.3845 H   0  0  0  0  0  0  0  0  0  0  0  0
   -1.6524   -1.1037    2.3287 H   0  0  0  0  0  0  0  0  0  0  0  0
   -2.3189    1.0519    1.3940 H   0  0  0  0  0  0  0  0  0  0  0  0
   -1.4364    0.0970    0.2016 H   0  0  0  0  0  0  0  0  0  0  0  0
   -4.8786   -0.7730   -1.3982 H   0  0  0  0  0  0  0  0  0  0  0  0
   -3.1890   -1.1034   -1.7518 H   0  0  0  0  0  0  0  0  0  0  0  0
   -4.9710   -2.0910    0.5086 H   0  0  0  0  0  0  0  0  0  0  0  0
   -4.0755   -3.0697   -0.6857 H   0  0  0  0  0  0  0  0  0  0  0  0
   -2.8475    1.0903   -2.0573 H   0  0  0  0  0  0  0  0  0  0  0  0
   -4.3899    1.7489   -1.4841 H   0  0  0  0  0  0  0  0  0  0  0  0
   -4.4433    3.4783    0.3265 H   0  0  0  0  0  0  0  0  0  0  0  0
   -3.2650    5.3890    1.3500 H   0  0  0  0  0  0  0  0  0  0  0  0
   -0.8213    5.6500    1.0594 H   0  0  0  0  0  0  0  0  0  0  0  0
    0.4591    4.0054   -0.2498 H   0  0  0  0  0  0  0  0  0  0  0  0
    1.4581    2.3135   -1.6403 H   0  0  0  0  0  0  0  0  0  0  0  0
    1.0107    1.3763   -0.1669 H   0  0  0  0  0  0  0  0  0  0  0  0
    0.2263   -0.3199   -2.3321 H   0  0  0  0  0  0  0  0  0  0  0  0
    1.6945    0.4319   -2.9479 H   0  0  0  0  0  0  0  0  0  0  0  0
    3.7511    2.3600    0.7349 H   0  0  0  0  0  0  0  0  0  0  0  0
  1  2  1  0
  2  3  2  0
  3  4  1  0
  4  5  1  0
  5  6  1  0
  6  7  2  0
  6  8  1  0
  8  9  1  0
  9 10  1  0
 10 11  1  0
 11 12  1  0
 12 13  1  0
 13 14  1  0
 14 15  1  0
 13 16  1  0
 16 17  1  0
 17 18  1  0
 18 19  1  0
 19 20  1  0
 18 21  1  0
 21 22  1  0
 22 23  2  0
 23 24  1  0
 24 25  2  0
 25 26  1  0
 26 27  2  0
 27 28  1  0
 28 29  1  0
 29 30  1  0
  4 31  2  0
 31 32  1  0
 32  2  1  0
 30  8  1  0
 20 13  1  0
 27 22  1  0
  1 33  1  0
  1 34  1  0
  1 35  1  0
  5 36  1  0
  5 37  1  0
  9 38  1  0
  9 39  1  0
 10 40  1  0
 10 41  1  0
 11 42  1  0
 11 43  1  0
 12 44  1  0
 12 45  1  0
 14 46  1  0
 14 47  1  0
 15 48  1  0
 16 49  1  0
 16 50  1  0
 17 51  1  0
 17 52  1  0
 19 53  1  0
 19 54  1  0
 20 55  1  0
 20 56  1  0
 21 57  1  0
 21 58  1  0
 23 59  1  0
 24 60  1  0
 25 61  1  0
 26 62  1  0
 29 63  1  0
 29 64  1  0
 30 65  1  0
 30 66  1  0
 31 67  1  0
M  END
$$$$
