
     RDKit          3D

 82 86  0  0  0  0  0  0  0  0999 V2000
    8.9865   -1.5007    1.3454 C   0  0  0  0  0  0  0  0  0  0  0  0
    7.5602   -1.2527    1.0728 N   0  0  0  0  0  0  0  0  0  0  0  0
    7.3927   -0.4400   -0.1595 C   0  0  0  0  0  0  0  0  0  0  0  0
    6.4587    0.7452    0.1134 C   0  0  0  0  0  0  0  0  0  0  0  0
    6.1746    1.5305   -1.1758 C   0  0  0  0  0  0  0  0  0  0  0  0
    5.1964    2.6972   -0.9435 C   0  0  0  0  0  0  0  0  0  0  0  0
    3.7471    2.3555   -1.3055 C   0  0  0  0  0  0  0  0  0  0  0  0
    3.2546    1.2861   -0.4949 O   0  0  0  0  0  0  0  0  0  0  0  0
    1.8987    1.1086   -0.1795 C   0  0  0  0  0  0  0  0  0  0  0  0
    1.1019    2.1937    0.2228 C   0  0  0  0  0  0  0  0  0  0  0  0
   -0.2386    2.0058    0.5622 C   0  0  0  0  0  0  0  0  0  0  0  0
   -0.8187    0.7293    0.4998 C   0  0  0  0  0  0  0  0  0  0  0  0
   -2.2392    0.5087    0.8680 C   0  0  0  0  0  0  0  0  0  0  0  0
   -2.6129   -0.6475    1.2090 O   0  0  0  0  0  0  0  0  0  0  0  0
   -3.2011    1.5787    0.8128 N   0  0  0  0  0  0  0  0  0  0  0  0
   -4.6120    1.3807    1.1445 C   0  0  0  0  0  0  0  0  0  0  0  0
   -5.4743    1.2168   -0.1285 C   0  0  0  0  0  0  0  0  0  0  0  0
   -6.9576    1.2454    0.2520 C   0  0  0  0  0  0  0  0  0  0  0  0
   -7.4809    0.4005    1.2538 C   0  0  0  0  0  0  0  0  0  0  0  0
   -8.8408    0.4384    1.5749 C   0  0  0  0  0  0  0  0  0  0  0  0
   -9.6962    1.3126    0.9018 C   0  0  0  0  0  0  0  0  0  0  0  0
   -9.1941    2.1482   -0.0978 C   0  0  0  0  0  0  0  0  0  0  0  0
   -7.8347    2.1155   -0.4236 C   0  0  0  0  0  0  0  0  0  0  0  0
   -5.0449   -0.0047   -0.8834 N   0  0  0  0  0  0  0  0  0  0  0  0
   -4.1147    0.3336   -1.9857 C   0  0  0  0  0  0  0  0  0  0  0  0
   -3.3395   -0.9169   -2.4373 C   0  0  0  0  0  0  0  0  0  0  0  0
   -4.1314   -2.2110   -2.1908 C   0  0  0  0  0  0  0  0  0  0  0  0
   -5.6337   -1.9717   -2.3582 C   0  0  0  0  0  0  0  0  0  0  0  0
   -6.1412   -0.8645   -1.4045 C   0  0  0  0  0  0  0  0  0  0  0  0
   -0.0186   -0.3598    0.1159 C   0  0  0  0  0  0  0  0  0  0  0  0
    1.3341   -0.1827   -0.2213 C   0  0  0  0  0  0  0  0  0  0  0  0
    2.1736   -1.3877   -0.5787 C   0  0  0  0  0  0  0  0  0  0  0  0
    3.1172   -1.7579    0.5406 C   0  0  0  0  0  0  0  0  0  0  0  0
    2.6626   -1.8468    1.8688 C   0  0  0  0  0  0  0  0  0  0  0  0
    3.5564   -2.1340    2.9018 C   0  0  0  0  0  0  0  0  0  0  0  0
    4.9059   -2.3526    2.6206 C   0  0  0  0  0  0  0  0  0  0  0  0
    5.3653   -2.3294    1.2947 C   0  0  0  0  0  0  0  0  0  0  0  0
    4.4611   -2.0490    0.2570 C   0  0  0  0  0  0  0  0  0  0  0  0
    6.8275   -2.5386    1.0014 C   0  0  0  0  0  0  0  0  0  0  0  0
    9.5341   -0.5372    1.4320 H   0  0  0  0  0  0  0  0  0  0  0  0
    9.1076   -2.0241    2.3180 H   0  0  0  0  0  0  0  0  0  0  0  0
    9.4450   -2.1135    0.5377 H   0  0  0  0  0  0  0  0  0  0  0  0
    8.3620   -0.0240   -0.5194 H   0  0  0  0  0  0  0  0  0  0  0  0
    6.9958   -1.0416   -1.0068 H   0  0  0  0  0  0  0  0  0  0  0  0
    6.9395    1.4181    0.8574 H   0  0  0  0  0  0  0  0  0  0  0  0
    5.5047    0.3892    0.5496 H   0  0  0  0  0  0  0  0  0  0  0  0
    5.7834    0.8484   -1.9628 H   0  0  0  0  0  0  0  0  0  0  0  0
    7.1377    1.9447   -1.5485 H   0  0  0  0  0  0  0  0  0  0  0  0
    5.2430    3.0559    0.1082 H   0  0  0  0  0  0  0  0  0  0  0  0
    5.5084    3.5487   -1.5871 H   0  0  0  0  0  0  0  0  0  0  0  0
    3.6797    2.0589   -2.3759 H   0  0  0  0  0  0  0  0  0  0  0  0
    3.1407    3.2761   -1.1812 H   0  0  0  0  0  0  0  0  0  0  0  0
    1.5230    3.1835    0.3263 H   0  0  0  0  0  0  0  0  0  0  0  0
   -0.8041    2.8607    0.9066 H   0  0  0  0  0  0  0  0  0  0  0  0
   -2.9393    2.4901    0.3764 H   0  0  0  0  0  0  0  0  0  0  0  0
   -4.7260    0.5023    1.8139 H   0  0  0  0  0  0  0  0  0  0  0  0
   -4.9621    2.2708    1.7124 H   0  0  0  0  0  0  0  0  0  0  0  0
   -5.2860    2.1277   -0.7441 H   0  0  0  0  0  0  0  0  0  0  0  0
   -6.8453   -0.3033    1.7745 H   0  0  0  0  0  0  0  0  0  0  0  0
   -9.2319   -0.2151    2.3444 H   0  0  0  0  0  0  0  0  0  0  0  0
  -10.7491    1.3380    1.1503 H   0  0  0  0  0  0  0  0  0  0  0  0
   -9.8605    2.8194   -0.6235 H   0  0  0  0  0  0  0  0  0  0  0  0
   -7.4691    2.7679   -1.2070 H   0  0  0  0  0  0  0  0  0  0  0  0
   -4.6826    0.7533   -2.8478 H   0  0  0  0  0  0  0  0  0  0  0  0
   -3.3766    1.1046   -1.6843 H   0  0  0  0  0  0  0  0  0  0  0  0
   -2.3742   -0.9801   -1.8870 H   0  0  0  0  0  0  0  0  0  0  0  0
   -3.1029   -0.8226   -3.5216 H   0  0  0  0  0  0  0  0  0  0  0  0
   -3.7939   -2.9978   -2.8987 H   0  0  0  0  0  0  0  0  0  0  0  0
   -3.9362   -2.5751   -1.1572 H   0  0  0  0  0  0  0  0  0  0  0  0
   -5.8339   -1.6731   -3.4123 H   0  0  0  0  0  0  0  0  0  0  0  0
   -6.1838   -2.9197   -2.1682 H   0  0  0  0  0  0  0  0  0  0  0  0
   -6.6401   -1.3681   -0.5519 H   0  0  0  0  0  0  0  0  0  0  0  0
   -6.8963   -0.2519   -1.9458 H   0  0  0  0  0  0  0  0  0  0  0  0
   -0.4466   -1.3549    0.0845 H   0  0  0  0  0  0  0  0  0  0  0  0
    2.7367   -1.1598   -1.5106 H   0  0  0  0  0  0  0  0  0  0  0  0
    1.5323   -2.2671   -0.8051 H   0  0  0  0  0  0  0  0  0  0  0  0
    1.6218   -1.6727    2.1092 H   0  0  0  0  0  0  0  0  0  0  0  0
    3.2037   -2.1744    3.9246 H   0  0  0  0  0  0  0  0  0  0  0  0
    5.5911   -2.5515    3.4350 H   0  0  0  0  0  0  0  0  0  0  0  0
    4.8110   -2.0207   -0.7670 H   0  0  0  0  0  0  0  0  0  0  0  0
    6.9671   -3.0343    0.0138 H   0  0  0  0  0  0  0  0  0  0  0  0
    7.2224   -3.2587    1.7540 H   0  0  0  0  0  0  0  0  0  0  0  0
  1  2  1  0
  2  3  1  0
  3  4  1  0
  4  5  1  0
  5  6  1  0
  6  7  1  0
  7  8  1  0
  8  9  1  0
  9 10  2  0
 10 11  1  0
 11 12  2  0
 12 13  1  0
 13 14  2  0
 13 15  1  0
 15 16  1  0
 16 17  1  0
 17 18  1  0
 18 19  2  0
 19 20  1  0
 20 21  2  0
 21 22  1  0
 22 23  2  0
 17 24  1  0
 24 25  1  0
 25 26  1  0
 26 27  1  0
 27 28  1  0
 28 29  1  0
 12 30  1  0
 30 31  2  0
 31 32  1  0
 32 33  1  0
 33 34  1  0
 34 35  2  0
 35 36  1  0
 36 37  2  0
 37 38  1  0
 37 39  1  0
 39  2  1  0
 31  9  1  0
 38 33  2  0
 23 18  1  0
 29 24  1  0
  1 40  1  0
  1 41  1  0
  1 42  1  0
  3 43  1  0
  3 44  1  0
  4 45  1  0
  4 46  1  0
  5 47  1  0
  5 48  1  0
  6 49  1  0
  6 50  1  0
  7 51  1  0
  7 52  1  0
 10 53  1  0
 11 54  1  0
 15 55  1  0
 16 56  1  0
 16 57  1  0
 17 58  1  0
 19 59  1  0
 20 60  1  0
 21 61  1  0
 22 62  1  0
 23 63  1  0
 25 64  1  0
 25 65  1  0
 26 66  1  0
 26 67  1  0
 27 68  1  0
 27 69  1  0
 28 70  1  0
 28 71  1  0
 29 72  1  0
 29 73  1  0
 30 74  1  0
 32 75  1  0
 32 76  1  0
 34 77  1  0
 35 78  1  0
 36 79  1  0
 38 80  1  0
 39 81  1  0
 39 82  1  0
M  END
$$$$
