
     RDKit          3D

 82 85  0  0  0  0  0  0  0  0999 V2000
   -8.1344    0.8629    2.6380 C   0  0  0  0  0  0  0  0  0  0  0  0
   -8.0689    0.6256    1.1229 C   0  0  0  0  0  0  0  0  0  0  0  0
   -9.3531    1.1298    0.4511 C   0  0  0  0  0  0  0  0  0  0  0  0
   -6.8165    1.3128    0.5352 C   0  0  0  0  0  0  0  0  0  0  0  0
   -6.6273    1.0187   -0.9040 N   0  0  0  0  0  0  0  0  0  0  0  0
   -6.4490   -0.4035   -1.2964 C   0  0  0  0  0  0  0  0  0  0  0  0
   -5.4441   -1.2003   -0.4393 C   0  0  0  0  0  0  0  0  0  0  0  0
   -5.4535   -2.5645   -0.8209 O   0  0  0  0  0  0  0  0  0  0  0  0
   -4.4733   -2.8384   -1.8054 C   0  0  0  0  0  0  0  0  0  0  0  0
   -3.0910   -3.0550   -1.1773 C   0  0  0  0  0  0  0  0  0  0  0  0
   -2.2952   -1.8913   -1.3890 O   0  0  0  0  0  0  0  0  0  0  0  0
   -0.9707   -1.7288   -0.9622 C   0  0  0  0  0  0  0  0  0  0  0  0
   -0.3236   -2.6839   -0.1569 C   0  0  0  0  0  0  0  0  0  0  0  0
    1.0036   -2.4968    0.2392 C   0  0  0  0  0  0  0  0  0  0  0  0
    1.7144   -1.3597   -0.1699 C   0  0  0  0  0  0  0  0  0  0  0  0
    3.1353   -1.1885    0.2158 C   0  0  0  0  0  0  0  0  0  0  0  0
    3.5614   -1.7287    1.2709 O   0  0  0  0  0  0  0  0  0  0  0  0
    4.0368   -0.4379   -0.6122 N   0  0  0  0  0  0  0  0  0  0  0  0
    5.4027   -0.1134   -0.2079 C   0  0  0  0  0  0  0  0  0  0  0  0
    6.3153   -1.3410   -0.3526 C   0  0  0  0  0  0  0  0  0  0  0  0
    8.0566   -0.9075   -0.4638 S   0  0  0  0  0  6  0  0  0  0  0  0
    8.7160   -1.9543   -1.3204 O   0  0  0  0  0  0  0  0  0  0  0  0
    8.2170    0.4247   -1.1472 O   0  0  0  0  0  0  0  0  0  0  0  0
    8.8678   -0.8980    1.0926 N   0  0  0  0  0  0  0  0  0  0  0  0
    8.1139   -0.1773    2.1336 C   0  0  0  0  0  0  0  0  0  0  0  0
    8.1310    1.3489    1.9286 C   0  0  0  0  0  0  0  0  0  0  0  0
    9.5015    1.8786    1.4720 C   0  0  0  0  0  0  0  0  0  0  0  0
   10.6117    0.8525    1.6879 C   0  0  0  0  0  0  0  0  0  0  0  0
   10.2852   -0.4681    0.9661 C   0  0  0  0  0  0  0  0  0  0  0  0
    1.0576   -0.3929   -0.9491 C   0  0  0  0  0  0  0  0  0  0  0  0
   -0.2742   -0.5734   -1.3583 C   0  0  0  0  0  0  0  0  0  0  0  0
   -0.9449    0.4700   -2.2225 C   0  0  0  0  0  0  0  0  0  0  0  0
   -1.9864    1.2374   -1.4472 C   0  0  0  0  0  0  0  0  0  0  0  0
   -1.6153    1.9861   -0.3224 C   0  0  0  0  0  0  0  0  0  0  0  0
   -2.5736    2.7046    0.3944 C   0  0  0  0  0  0  0  0  0  0  0  0
   -3.9103    2.6882   -0.0102 C   0  0  0  0  0  0  0  0  0  0  0  0
   -4.3040    1.9482   -1.1368 C   0  0  0  0  0  0  0  0  0  0  0  0
   -3.3320    1.2325   -1.8579 C   0  0  0  0  0  0  0  0  0  0  0  0
   -5.7438    1.9778   -1.6086 C   0  0  0  0  0  0  0  0  0  0  0  0
   -9.0224    0.3527    3.0683 H   0  0  0  0  0  0  0  0  0  0  0  0
   -8.1930    1.9505    2.8661 H   0  0  0  0  0  0  0  0  0  0  0  0
   -7.2305    0.4458    3.1266 H   0  0  0  0  0  0  0  0  0  0  0  0
   -8.0092   -0.4724    0.9695 H   0  0  0  0  0  0  0  0  0  0  0  0
   -9.4884    2.2188    0.6300 H   0  0  0  0  0  0  0  0  0  0  0  0
  -10.2310    0.5871    0.8660 H   0  0  0  0  0  0  0  0  0  0  0  0
   -9.3145    0.9446   -0.6437 H   0  0  0  0  0  0  0  0  0  0  0  0
   -6.9427    2.4088    0.6750 H   0  0  0  0  0  0  0  0  0  0  0  0
   -5.9112    1.0257    1.1097 H   0  0  0  0  0  0  0  0  0  0  0  0
   -6.1458   -0.4686   -2.3645 H   0  0  0  0  0  0  0  0  0  0  0  0
   -7.4364   -0.9099   -1.2436 H   0  0  0  0  0  0  0  0  0  0  0  0
   -5.7548   -1.1744    0.6230 H   0  0  0  0  0  0  0  0  0  0  0  0
   -4.4319   -0.7432   -0.4727 H   0  0  0  0  0  0  0  0  0  0  0  0
   -4.4336   -2.0611   -2.6037 H   0  0  0  0  0  0  0  0  0  0  0  0
   -4.7730   -3.7761   -2.3147 H   0  0  0  0  0  0  0  0  0  0  0  0
   -2.5952   -3.9293   -1.6564 H   0  0  0  0  0  0  0  0  0  0  0  0
   -3.1914   -3.2538   -0.0888 H   0  0  0  0  0  0  0  0  0  0  0  0
   -0.8363   -3.5801    0.1636 H   0  0  0  0  0  0  0  0  0  0  0  0
    1.4823   -3.2545    0.8474 H   0  0  0  0  0  0  0  0  0  0  0  0
    3.7231   -0.1095   -1.5514 H   0  0  0  0  0  0  0  0  0  0  0  0
    5.7671    0.7096   -0.8597 H   0  0  0  0  0  0  0  0  0  0  0  0
    5.3980    0.2585    0.8370 H   0  0  0  0  0  0  0  0  0  0  0  0
    6.0473   -1.8802   -1.2848 H   0  0  0  0  0  0  0  0  0  0  0  0
    6.1631   -2.0379    0.4970 H   0  0  0  0  0  0  0  0  0  0  0  0
    7.0737   -0.5518    2.1966 H   0  0  0  0  0  0  0  0  0  0  0  0
    8.5669   -0.4083    3.1242 H   0  0  0  0  0  0  0  0  0  0  0  0
    7.8461    1.8346    2.8887 H   0  0  0  0  0  0  0  0  0  0  0  0
    7.3618    1.6374    1.1797 H   0  0  0  0  0  0  0  0  0  0  0  0
    9.7441    2.8103    2.0295 H   0  0  0  0  0  0  0  0  0  0  0  0
    9.4639    2.1407    0.3933 H   0  0  0  0  0  0  0  0  0  0  0  0
   11.5723    1.2576    1.3083 H   0  0  0  0  0  0  0  0  0  0  0  0
   10.7373    0.6618    2.7768 H   0  0  0  0  0  0  0  0  0  0  0  0
   10.9340   -1.2649    1.3881 H   0  0  0  0  0  0  0  0  0  0  0  0
   10.5913   -0.3661   -0.0974 H   0  0  0  0  0  0  0  0  0  0  0  0
    1.5741    0.5116   -1.2321 H   0  0  0  0  0  0  0  0  0  0  0  0
   -1.3974   -0.0345   -3.1048 H   0  0  0  0  0  0  0  0  0  0  0  0
   -0.1986    1.1925   -2.6246 H   0  0  0  0  0  0  0  0  0  0  0  0
   -0.5821    2.0101    0.0022 H   0  0  0  0  0  0  0  0  0  0  0  0
   -2.2777    3.2837    1.2613 H   0  0  0  0  0  0  0  0  0  0  0  0
   -4.6344    3.2647    0.5480 H   0  0  0  0  0  0  0  0  0  0  0  0
   -3.6232    0.6675   -2.7345 H   0  0  0  0  0  0  0  0  0  0  0  0
   -5.7881    1.7973   -2.7071 H   0  0  0  0  0  0  0  0  0  0  0  0
   -6.1460    3.0086   -1.4774 H   0  0  0  0  0  0  0  0  0  0  0  0
  1  2  1  0
  2  3  1  0
  2  4  1  0
  4  5  1  0
  5  6  1  0
  6  7  1  0
  7  8  1  0
  8  9  1  0
  9 10  1  0
 10 11  1  0
 11 12  1  0
 12 13  2  0
 13 14  1  0
 14 15  2  0
 15 16  1  0
 16 17  2  0
 16 18  1  0
 18 19  1  0
 19 20  1  0
 20 21  1  0
 21 22  2  0
 21 23  2  0
 21 24  1  0
 24 25  1  0
 25 26  1  0
 26 27  1  0
 27 28  1  0
 28 29  1  0
 15 30  1  0
 30 31  2  0
 31 32  1  0
 32 33  1  0
 33 34  1  0
 34 35  2  0
 35 36  1  0
 36 37  2  0
 37 38  1  0
 37 39  1  0
 39  5  1  0
 31 12  1  0
 38 33  2  0
 29 24  1  0
  1 40  1  0
  1 41  1  0
  1 42  1  0
  2 43  1  0
  3 44  1  0
  3 45  1  0
  3 46  1  0
  4 47  1  0
  4 48  1  0
  6 49  1  0
  6 50  1  0
  7 51  1  0
  7 52  1  0
  9 53  1  0
  9 54  1  0
 10 55  1  0
 10 56  1  0
 13 57  1  0
 14 58  1  0
 18 59  1  0
 19 60  1  0
 19 61  1  0
 20 62  1  0
 20 63  1  0
 25 64  1  0
 25 65  1  0
 26 66  1  0
 26 67  1  0
 27 68  1  0
 27 69  1  0
 28 70  1  0
 28 71  1  0
 29 72  1  0
 29 73  1  0
 30 74  1  0
 32 75  1  0
 32 76  1  0
 34 77  1  0
 35 78  1  0
 36 79  1  0
 38 80  1  0
 39 81  1  0
 39 82  1  0
M  END
$$$$
