
     RDKit          3D

 63 65  0  0  0  0  0  0  0  0999 V2000
    2.8444   -3.1862    3.2588 C   0  0  0  0  0  0  0  0  0  0  0  0
    3.0383   -2.0418    2.2642 C   0  0  0  0  0  0  0  0  0  0  0  0
    2.5438   -2.3788    0.8750 C   0  0  0  0  0  0  0  0  0  0  0  0
    2.3709   -3.5890    0.5574 O   0  0  0  0  0  0  0  0  0  0  0  0
    2.3023   -1.3461   -0.1086 N   0  0  0  0  0  0  0  0  0  0  0  0
    2.6253    0.0646    0.1951 C   0  0  0  0  0  0  0  0  0  0  0  0
    2.7258    0.9710   -1.0514 C   0  0  0  0  0  0  0  0  0  0  0  0
    2.5239    2.4637   -0.7158 C   0  0  0  0  0  0  0  0  0  0  0  0
    1.2445    2.9590   -1.2787 N   0  0  0  0  0  0  0  0  0  0  0  0
    1.3507    4.3958   -1.5910 C   0  0  0  0  0  0  0  0  0  0  0  0
    0.0994    2.7067   -0.3712 C   0  0  0  0  0  0  0  0  0  0  0  0
   -1.1863    2.4431   -1.1707 C   0  0  0  0  0  0  0  0  0  0  0  0
   -1.1978    1.0559   -1.8400 C   0  0  0  0  0  0  0  0  0  0  0  0
   -1.6068   -0.0037   -0.8967 N   0  0  0  0  0  0  0  0  0  0  0  0
   -2.9730   -0.0087   -0.4256 C   0  0  0  0  0  0  0  0  0  0  0  0
   -3.8930    0.3530   -1.2119 O   0  0  0  0  0  0  0  0  0  0  0  0
   -3.3290   -0.4509    0.9828 C   0  0  0  0  0  0  0  0  0  0  0  0
   -4.7479   -0.0655    1.3965 C   0  0  0  0  0  0  0  0  0  0  0  0
   -4.7151   -0.0293    2.9120 C   0  0  0  0  0  0  0  0  0  0  0  0
   -3.3072    0.4207    3.2805 C   0  0  0  0  0  0  0  0  0  0  0  0
   -2.4297    0.1803    2.0516 C   0  0  0  0  0  0  0  0  0  0  0  0
   -0.6485   -1.0139   -0.4024 C   0  0  0  0  0  0  0  0  0  0  0  0
    0.2352   -1.5743   -1.4967 C   0  0  0  0  0  0  0  0  0  0  0  0
   -0.3629   -2.0298   -2.6857 C   0  0  0  0  0  0  0  0  0  0  0  0
    0.4130   -2.5778   -3.7095 C   0  0  0  0  0  0  0  0  0  0  0  0
   -0.1792   -2.9966   -4.8554 F   0  0  0  0  0  0  0  0  0  0  0  0
    1.7944   -2.7000   -3.5510 C   0  0  0  0  0  0  0  0  0  0  0  0
    2.5479   -3.2355   -4.5427 F   0  0  0  0  0  0  0  0  0  0  0  0
    2.4007   -2.2834   -2.3648 C   0  0  0  0  0  0  0  0  0  0  0  0
    1.6357   -1.7271   -1.3292 C   0  0  0  0  0  0  0  0  0  0  0  0
    1.7682   -3.4558    3.3301 H   0  0  0  0  0  0  0  0  0  0  0  0
    3.1989   -2.8694    4.2629 H   0  0  0  0  0  0  0  0  0  0  0  0
    3.4305   -4.0765    2.9450 H   0  0  0  0  0  0  0  0  0  0  0  0
    2.4868   -1.1590    2.6498 H   0  0  0  0  0  0  0  0  0  0  0  0
    4.1198   -1.7886    2.2109 H   0  0  0  0  0  0  0  0  0  0  0  0
    3.6083    0.1156    0.7111 H   0  0  0  0  0  0  0  0  0  0  0  0
    1.8796    0.4543    0.9132 H   0  0  0  0  0  0  0  0  0  0  0  0
    2.0014    0.6864   -1.8358 H   0  0  0  0  0  0  0  0  0  0  0  0
    3.7322    0.8235   -1.5021 H   0  0  0  0  0  0  0  0  0  0  0  0
    2.5830    2.6620    0.3795 H   0  0  0  0  0  0  0  0  0  0  0  0
    3.3840    3.0112   -1.1672 H   0  0  0  0  0  0  0  0  0  0  0  0
    2.1002    4.5531   -2.3961 H   0  0  0  0  0  0  0  0  0  0  0  0
    1.6540    4.9788   -0.6927 H   0  0  0  0  0  0  0  0  0  0  0  0
    0.3841    4.7930   -1.9651 H   0  0  0  0  0  0  0  0  0  0  0  0
   -0.0643    3.5671    0.3161 H   0  0  0  0  0  0  0  0  0  0  0  0
    0.2745    1.8310    0.2817 H   0  0  0  0  0  0  0  0  0  0  0  0
   -2.0594    2.5455   -0.4925 H   0  0  0  0  0  0  0  0  0  0  0  0
   -1.3042    3.2183   -1.9552 H   0  0  0  0  0  0  0  0  0  0  0  0
   -1.9072    1.0725   -2.6956 H   0  0  0  0  0  0  0  0  0  0  0  0
   -0.2048    0.8508   -2.2832 H   0  0  0  0  0  0  0  0  0  0  0  0
   -3.2460   -1.5588    1.0456 H   0  0  0  0  0  0  0  0  0  0  0  0
   -5.0058    0.9511    1.0224 H   0  0  0  0  0  0  0  0  0  0  0  0
   -5.4959   -0.7992    1.0247 H   0  0  0  0  0  0  0  0  0  0  0  0
   -5.4842    0.6646    3.3161 H   0  0  0  0  0  0  0  0  0  0  0  0
   -4.8978   -1.0521    3.3113 H   0  0  0  0  0  0  0  0  0  0  0  0
   -2.9327   -0.1533    4.1564 H   0  0  0  0  0  0  0  0  0  0  0  0
   -3.3108    1.5036    3.5370 H   0  0  0  0  0  0  0  0  0  0  0  0
   -2.0101    1.1506    1.7027 H   0  0  0  0  0  0  0  0  0  0  0  0
   -1.5886   -0.5005    2.3072 H   0  0  0  0  0  0  0  0  0  0  0  0
   -0.0594   -0.5675    0.4160 H   0  0  0  0  0  0  0  0  0  0  0  0
   -1.1901   -1.8780    0.0351 H   0  0  0  0  0  0  0  0  0  0  0  0
   -1.4348   -1.9536   -2.8208 H   0  0  0  0  0  0  0  0  0  0  0  0
    3.4710   -2.3960   -2.2435 H   0  0  0  0  0  0  0  0  0  0  0  0
  1  2  1  0
  2  3  1  0
  3  4  2  0
  3  5  1  0
  5  6  1  0
  6  7  1  0
  7  8  1  0
  8  9  1  0
  9 10  1  0
  9 11  1  0
 11 12  1  0
 12 13  1  0
 13 14  1  0
 14 15  1  0
 15 16  2  0
 15 17  1  0
 17 18  1  0
 18 19  1  0
 19 20  1  0
 20 21  1  0
 14 22  1  0
 22 23  1  0
 23 24  2  0
 24 25  1  0
 25 26  1  0
 25 27  2  0
 27 28  1  0
 27 29  1  0
 29 30  2  0
 30  5  1  0
 21 17  1  0
 30 23  1  0
  1 31  1  0
  1 32  1  0
  1 33  1  0
  2 34  1  0
  2 35  1  0
  6 36  1  0
  6 37  1  0
  7 38  1  0
  7 39  1  0
  8 40  1  0
  8 41  1  0
 10 42  1  0
 10 43  1  0
 10 44  1  0
 11 45  1  0
 11 46  1  0
 12 47  1  0
 12 48  1  0
 13 49  1  0
 13 50  1  0
 17 51  1  0
 18 52  1  0
 18 53  1  0
 19 54  1  0
 19 55  1  0
 20 56  1  0
 20 57  1  0
 21 58  1  0
 21 59  1  0
 22 60  1  0
 22 61  1  0
 24 62  1  0
 29 63  1  0
M  END
$$$$
