
     RDKit          3D

 67 69  0  0  0  0  0  0  0  0999 V2000
   -3.9746    3.1598   -2.5155 C   0  0  0  0  0  0  0  0  0  0  0  0
   -4.1165    1.7048   -2.3555 N   0  0  0  0  0  0  0  0  0  0  0  0
   -2.9070    0.9632   -2.7614 C   0  0  0  0  0  0  0  0  0  0  0  0
   -1.7620    1.1125   -1.7485 C   0  0  0  0  0  0  0  0  0  0  0  0
   -2.1711    0.6619   -0.3211 C   0  0  0  0  0  0  0  0  0  0  0  0
   -0.9973    1.0426    0.6464 C   0  0  0  0  0  0  0  0  0  0  0  0
   -1.2072    0.7702    2.1576 C   0  0  0  0  0  0  0  0  0  0  0  0
   -0.8743   -0.6705    2.6114 C   0  0  0  0  0  0  0  0  0  0  0  0
    0.5028   -0.8399    3.2844 C   0  0  0  0  0  0  0  0  0  0  0  0
    1.5970   -1.0423    2.3109 N   0  0  0  0  0  0  0  0  0  0  0  0
    2.2746    0.1188    1.7575 C   0  0  0  0  0  0  0  0  0  0  0  0
    1.9121    1.2741    2.1121 O   0  0  0  0  0  0  0  0  0  0  0  0
    3.4670   -0.0097    0.8359 C   0  0  0  0  0  0  0  0  0  0  0  0
    3.7603    1.2718    0.0860 C   0  0  0  0  0  0  0  0  0  0  0  0
    4.6270    2.2259    0.6554 C   0  0  0  0  0  0  0  0  0  0  0  0
    5.2066    2.0029    1.8608 F   0  0  0  0  0  0  0  0  0  0  0  0
    4.8993    3.4222   -0.0129 C   0  0  0  0  0  0  0  0  0  0  0  0
    4.3055    3.6865   -1.2454 C   0  0  0  0  0  0  0  0  0  0  0  0
    3.4323    2.7590   -1.8164 C   0  0  0  0  0  0  0  0  0  0  0  0
    3.1496    1.5567   -1.1581 C   0  0  0  0  0  0  0  0  0  0  0  0
    2.0320    0.4357   -1.9285 Cl  0  0  0  0  0  0  0  0  0  0  0  0
    2.1527   -2.4070    2.1627 C   0  0  0  0  0  0  0  0  0  0  0  0
    1.2589   -3.3134    1.2989 C   0  0  0  0  0  0  0  0  0  0  0  0
    1.2723   -2.9072   -0.1907 C   0  0  0  0  0  0  0  0  0  0  0  0
    2.5185   -3.2576   -0.7439 O   0  0  0  0  0  0  0  0  0  0  0  0
    0.1529   -3.5886   -1.0198 C   0  0  0  0  0  0  0  0  0  0  0  0
    0.2233   -4.9797   -0.8608 O   0  0  0  0  0  0  0  0  0  0  0  0
   -1.2559   -3.0619   -0.6892 C   0  0  0  0  0  0  0  0  0  0  0  0
   -1.2426   -1.6350   -0.6887 O   0  0  0  0  0  0  0  0  0  0  0  0
   -2.3400   -0.8481   -0.3223 C   0  0  0  0  0  0  0  0  0  0  0  0
   -3.4204   -1.3905    0.0474 O   0  0  0  0  0  0  0  0  0  0  0  0
   -3.4811    1.4099    0.0691 C   0  0  0  0  0  0  0  0  0  0  0  0
   -4.5817    1.3221   -1.0082 C   0  0  0  0  0  0  0  0  0  0  0  0
   -3.2535    3.5872   -1.7878 H   0  0  0  0  0  0  0  0  0  0  0  0
   -3.6310    3.4021   -3.5470 H   0  0  0  0  0  0  0  0  0  0  0  0
   -4.9606    3.6537   -2.3693 H   0  0  0  0  0  0  0  0  0  0  0  0
   -3.1640   -0.1104   -2.8807 H   0  0  0  0  0  0  0  0  0  0  0  0
   -2.5617    1.3050   -3.7628 H   0  0  0  0  0  0  0  0  0  0  0  0
   -0.9001    0.5124   -2.1057 H   0  0  0  0  0  0  0  0  0  0  0  0
   -1.4283    2.1729   -1.7420 H   0  0  0  0  0  0  0  0  0  0  0  0
   -0.0598    0.5479    0.3119 H   0  0  0  0  0  0  0  0  0  0  0  0
   -0.8101    2.1347    0.5475 H   0  0  0  0  0  0  0  0  0  0  0  0
   -2.2464    1.0071    2.4523 H   0  0  0  0  0  0  0  0  0  0  0  0
   -0.5938    1.4946    2.7342 H   0  0  0  0  0  0  0  0  0  0  0  0
   -0.9688   -1.3940    1.7860 H   0  0  0  0  0  0  0  0  0  0  0  0
   -1.6481   -0.9608    3.3631 H   0  0  0  0  0  0  0  0  0  0  0  0
    0.4317   -1.7259    3.9558 H   0  0  0  0  0  0  0  0  0  0  0  0
    0.7266    0.0162    3.9576 H   0  0  0  0  0  0  0  0  0  0  0  0
    4.3498   -0.3047    1.4406 H   0  0  0  0  0  0  0  0  0  0  0  0
    3.3078   -0.8274    0.1124 H   0  0  0  0  0  0  0  0  0  0  0  0
    5.5700    4.1510    0.4237 H   0  0  0  0  0  0  0  0  0  0  0  0
    4.5167    4.6161   -1.7576 H   0  0  0  0  0  0  0  0  0  0  0  0
    2.9752    2.9789   -2.7731 H   0  0  0  0  0  0  0  0  0  0  0  0
    3.1860   -2.4034    1.7661 H   0  0  0  0  0  0  0  0  0  0  0  0
    2.2464   -2.8747    3.1632 H   0  0  0  0  0  0  0  0  0  0  0  0
    1.6326   -4.3594    1.3911 H   0  0  0  0  0  0  0  0  0  0  0  0
    0.2310   -3.3196    1.7139 H   0  0  0  0  0  0  0  0  0  0  0  0
    1.1347   -1.8056   -0.2514 H   0  0  0  0  0  0  0  0  0  0  0  0
    2.7268   -2.5896   -1.4414 H   0  0  0  0  0  0  0  0  0  0  0  0
    0.3496   -3.3409   -2.0867 H   0  0  0  0  0  0  0  0  0  0  0  0
   -0.4249   -5.3847   -1.4988 H   0  0  0  0  0  0  0  0  0  0  0  0
   -1.9803   -3.4228   -1.4499 H   0  0  0  0  0  0  0  0  0  0  0  0
   -1.5864   -3.4365    0.3023 H   0  0  0  0  0  0  0  0  0  0  0  0
   -3.2574    2.4812    0.2677 H   0  0  0  0  0  0  0  0  0  0  0  0
   -3.9068    0.9944    1.0069 H   0  0  0  0  0  0  0  0  0  0  0  0
   -5.4333    1.9671   -0.6997 H   0  0  0  0  0  0  0  0  0  0  0  0
   -4.9830    0.2886   -1.0524 H   0  0  0  0  0  0  0  0  0  0  0  0
  1  2  1  0
  2  3  1  0
  3  4  1  0
  4  5  1  0
  5  6  1  0
  6  7  1  0
  7  8  1  0
  8  9  1  0
  9 10  1  0
 10 11  1  0
 11 12  2  0
 11 13  1  0
 13 14  1  0
 14 15  2  0
 15 16  1  0
 15 17  1  0
 17 18  2  0
 18 19  1  0
 19 20  2  0
 20 21  1  0
 10 22  1  0
 22 23  1  0
 23 24  1  0
 24 25  1  0
 24 26  1  0
 26 27  1  0
 26 28  1  0
 28 29  1  0
 29 30  1  0
 30 31  2  0
  5 32  1  0
 32 33  1  0
 33  2  1  0
 30  5  1  0
 20 14  1  0
  1 34  1  0
  1 35  1  0
  1 36  1  0
  3 37  1  0
  3 38  1  0
  4 39  1  0
  4 40  1  0
  6 41  1  0
  6 42  1  0
  7 43  1  0
  7 44  1  0
  8 45  1  0
  8 46  1  0
  9 47  1  0
  9 48  1  0
 13 49  1  0
 13 50  1  0
 17 51  1  0
 18 52  1  0
 19 53  1  0
 22 54  1  0
 22 55  1  0
 23 56  1  0
 23 57  1  0
 24 58  1  0
 25 59  1  0
 26 60  1  0
 27 61  1  0
 28 62  1  0
 28 63  1  0
 32 64  1  0
 32 65  1  0
 33 66  1  0
 33 67  1  0
M  END
$$$$
