
     RDKit          3D

 68 70  0  0  0  0  0  0  0  0999 V2000
    8.4757    0.2357   -0.4056 C   0  0  0  0  0  0  0  0  0  0  0  0
    7.4136    0.2425   -1.4289 N   0  0  0  0  0  0  0  0  0  0  0  0
    7.8643   -0.5219   -2.6094 C   0  0  0  0  0  0  0  0  0  0  0  0
    6.1566   -0.3188   -0.8810 C   0  0  0  0  0  0  0  0  0  0  0  0
    4.9431    0.3146   -1.5728 C   0  0  0  0  0  0  0  0  0  0  0  0
    3.7079   -0.3396   -1.1439 N   0  0  0  0  0  0  0  0  0  0  0  0
    3.0699   -0.0581    0.1113 C   0  0  0  0  0  0  0  0  0  0  0  0
    3.6152    0.7142    0.9475 O   0  0  0  0  0  0  0  0  0  0  0  0
    1.7541   -0.6966    0.4454 C   0  0  0  0  0  0  0  0  0  0  0  0
    0.8088    0.2783    1.0350 N   0  0  0  0  0  0  0  0  0  0  0  0
   -0.2827   -0.4065    1.7737 C   0  0  0  0  0  0  0  0  0  0  0  0
   -1.1561   -1.3432    0.9061 C   0  0  0  0  0  0  0  0  0  0  0  0
   -2.2554   -2.0174    1.7506 C   0  0  0  0  0  0  0  0  0  0  0  0
   -3.3945   -2.7319    0.9495 C   0  0  0  0  0  0  0  0  0  0  0  0
   -2.8329   -3.5930   -0.2031 C   0  0  0  0  0  0  0  0  0  0  0  0
   -4.1356   -3.6676    1.9313 C   0  0  0  0  0  0  0  0  0  0  0  0
   -4.4290   -1.7108    0.4074 C   0  0  0  0  0  0  0  0  0  0  0  0
   -3.8685   -0.8890   -0.6132 O   0  0  0  0  0  0  0  0  0  0  0  0
   -4.5059    0.2747   -1.0548 C   0  0  0  0  0  0  0  0  0  0  0  0
   -5.8156    0.2257   -1.5672 C   0  0  0  0  0  0  0  0  0  0  0  0
   -6.4611    1.4050   -1.9471 C   0  0  0  0  0  0  0  0  0  0  0  0
   -5.8065    2.6355   -1.8041 C   0  0  0  0  0  0  0  0  0  0  0  0
   -4.4978    2.6877   -1.3078 C   0  0  0  0  0  0  0  0  0  0  0  0
   -3.8352    1.5046   -0.9470 C   0  0  0  0  0  0  0  0  0  0  0  0
   -2.5011    1.5029   -0.5188 O   0  0  0  0  0  0  0  0  0  0  0  0
   -1.9011    2.4487    0.3196 C   0  0  0  0  0  0  0  0  0  0  0  0
   -2.6326    3.4550    0.8678 N   0  0  0  0  0  0  0  0  0  0  0  0
   -2.0789    4.3866    1.6880 C   0  0  0  0  0  0  0  0  0  0  0  0
   -0.7185    4.3213    2.0033 C   0  0  0  0  0  0  0  0  0  0  0  0
    0.0569    3.2874    1.4794 C   0  0  0  0  0  0  0  0  0  0  0  0
   -0.5277    2.3407    0.6180 C   0  0  0  0  0  0  0  0  0  0  0  0
    0.3304    1.2470    0.0173 C   0  0  0  0  0  0  0  0  0  0  0  0
    8.7172   -0.8010   -0.0823 H   0  0  0  0  0  0  0  0  0  0  0  0
    9.3978    0.7074   -0.8067 H   0  0  0  0  0  0  0  0  0  0  0  0
    8.1661    0.8374    0.4754 H   0  0  0  0  0  0  0  0  0  0  0  0
    7.0739   -0.5374   -3.3889 H   0  0  0  0  0  0  0  0  0  0  0  0
    8.1280   -1.5694   -2.3425 H   0  0  0  0  0  0  0  0  0  0  0  0
    8.7548   -0.0299   -3.0651 H   0  0  0  0  0  0  0  0  0  0  0  0
    6.1248   -1.4268   -0.9900 H   0  0  0  0  0  0  0  0  0  0  0  0
    6.0669   -0.1069    0.2071 H   0  0  0  0  0  0  0  0  0  0  0  0
    5.0379    0.2017   -2.6730 H   0  0  0  0  0  0  0  0  0  0  0  0
    4.8965    1.4042   -1.3529 H   0  0  0  0  0  0  0  0  0  0  0  0
    3.2353   -0.9892   -1.8157 H   0  0  0  0  0  0  0  0  0  0  0  0
    1.3219   -1.1505   -0.4770 H   0  0  0  0  0  0  0  0  0  0  0  0
    1.9673   -1.5195    1.1641 H   0  0  0  0  0  0  0  0  0  0  0  0
   -0.9311    0.3490    2.2668 H   0  0  0  0  0  0  0  0  0  0  0  0
    0.1570   -1.0033    2.6059 H   0  0  0  0  0  0  0  0  0  0  0  0
   -1.6037   -0.7603    0.0883 H   0  0  0  0  0  0  0  0  0  0  0  0
   -0.5271   -2.1384    0.4562 H   0  0  0  0  0  0  0  0  0  0  0  0
   -2.7122   -1.2665    2.4371 H   0  0  0  0  0  0  0  0  0  0  0  0
   -1.7473   -2.7579    2.4077 H   0  0  0  0  0  0  0  0  0  0  0  0
   -2.0739   -4.3115    0.1805 H   0  0  0  0  0  0  0  0  0  0  0  0
   -3.6541   -4.1656   -0.6865 H   0  0  0  0  0  0  0  0  0  0  0  0
   -2.3617   -2.9625   -0.9866 H   0  0  0  0  0  0  0  0  0  0  0  0
   -4.5511   -3.0859    2.7834 H   0  0  0  0  0  0  0  0  0  0  0  0
   -4.9765   -4.1878    1.4282 H   0  0  0  0  0  0  0  0  0  0  0  0
   -3.4496   -4.4387    2.3433 H   0  0  0  0  0  0  0  0  0  0  0  0
   -4.7645   -1.0618    1.2553 H   0  0  0  0  0  0  0  0  0  0  0  0
   -5.3301   -2.2338    0.0066 H   0  0  0  0  0  0  0  0  0  0  0  0
   -6.3265   -0.7242   -1.6779 H   0  0  0  0  0  0  0  0  0  0  0  0
   -7.4658    1.3713   -2.3508 H   0  0  0  0  0  0  0  0  0  0  0  0
   -6.3105    3.5449   -2.0958 H   0  0  0  0  0  0  0  0  0  0  0  0
   -3.9950    3.6461   -1.2496 H   0  0  0  0  0  0  0  0  0  0  0  0
   -2.6892    5.1847    2.0677 H   0  0  0  0  0  0  0  0  0  0  0  0
   -0.2743    5.0640    2.6566 H   0  0  0  0  0  0  0  0  0  0  0  0
    1.1123    3.2255    1.7239 H   0  0  0  0  0  0  0  0  0  0  0  0
   -0.1796    0.7296   -0.8169 H   0  0  0  0  0  0  0  0  0  0  0  0
    1.2063    1.7493   -0.4438 H   0  0  0  0  0  0  0  0  0  0  0  0
  1  2  1  0
  2  3  1  0
  2  4  1  0
  4  5  1  0
  5  6  1  0
  6  7  1  0
  7  8  2  0
  7  9  1  0
  9 10  1  0
 10 11  1  0
 11 12  1  0
 12 13  1  0
 13 14  1  0
 14 15  1  0
 14 16  1  0
 14 17  1  0
 17 18  1  0
 18 19  1  0
 19 20  2  0
 20 21  1  0
 21 22  2  0
 22 23  1  0
 23 24  2  0
 24 25  1  0
 25 26  1  0
 26 27  2  0
 27 28  1  0
 28 29  2  0
 29 30  1  0
 30 31  2  0
 31 32  1  0
 32 10  1  0
 24 19  1  0
 31 26  1  0
  1 33  1  0
  1 34  1  0
  1 35  1  0
  3 36  1  0
  3 37  1  0
  3 38  1  0
  4 39  1  0
  4 40  1  0
  5 41  1  0
  5 42  1  0
  6 43  1  0
  9 44  1  0
  9 45  1  0
 11 46  1  0
 11 47  1  0
 12 48  1  0
 12 49  1  0
 13 50  1  0
 13 51  1  0
 15 52  1  0
 15 53  1  0
 15 54  1  0
 16 55  1  0
 16 56  1  0
 16 57  1  0
 17 58  1  0
 17 59  1  0
 20 60  1  0
 21 61  1  0
 22 62  1  0
 23 63  1  0
 28 64  1  0
 29 65  1  0
 30 66  1  0
 32 67  1  0
 32 68  1  0
M  END
$$$$
