
     RDKit          3D

 74 77  0  0  0  0  0  0  0  0999 V2000
   -2.0952   -2.6174   -4.2825 C   0  0  0  0  0  0  0  0  0  0  0  0
   -1.6864   -1.3275   -3.6379 C   0  0  0  0  0  0  0  0  0  0  0  0
   -1.3239   -0.3717   -4.3769 O   0  0  0  0  0  0  0  0  0  0  0  0
   -1.6756   -1.1564   -2.2033 N   0  0  0  0  0  0  0  0  0  0  0  0
   -2.5664   -1.9133   -1.3105 C   0  0  0  0  0  0  0  0  0  0  0  0
   -4.0144   -1.9858   -1.8445 C   0  0  0  0  0  0  0  0  0  0  0  0
   -5.0814   -1.9117   -0.7406 C   0  0  0  0  0  0  0  0  0  0  0  0
   -5.3146   -0.4705   -0.2410 C   0  0  0  0  0  0  0  0  0  0  0  0
   -4.7862   -0.2551    1.1841 C   0  0  0  0  0  0  0  0  0  0  0  0
   -4.6998    1.2309    1.5561 C   0  0  0  0  0  0  0  0  0  0  0  0
   -3.6288    2.0294    0.7791 C   0  0  0  0  0  0  0  0  0  0  0  0
   -2.3358    1.2983    0.6279 N   0  0  0  0  0  0  0  0  0  0  0  0
   -1.3452    1.5829    1.7163 C   0  0  0  0  0  0  0  0  0  0  0  0
   -1.7970    1.0256    3.0724 C   0  0  0  0  0  0  0  0  0  0  0  0
   -0.9518    3.0712    1.8556 C   0  0  0  0  0  0  0  0  0  0  0  0
   -1.7977    1.4847   -0.7545 C   0  0  0  0  0  0  0  0  0  0  0  0
   -0.5093    0.7234   -1.0377 C   0  0  0  0  0  0  0  0  0  0  0  0
    0.7217    1.3401   -0.7361 C   0  0  0  0  0  0  0  0  0  0  0  0
    1.9324    0.6538   -0.8842 C   0  0  0  0  0  0  0  0  0  0  0  0
    3.1942    1.3026   -0.4883 C   0  0  0  0  0  0  0  0  0  0  0  0
    3.4814    2.4248   -0.9852 O   0  0  0  0  0  0  0  0  0  0  0  0
    4.0639    0.7188    0.4971 N   0  0  0  0  0  0  0  0  0  0  0  0
    3.8603   -0.5018    1.2590 C   0  0  0  0  0  0  0  0  0  0  0  0
    4.3921   -0.1186    2.6466 C   0  0  0  0  0  0  0  0  0  0  0  0
    5.4275    0.9832    2.3749 C   0  0  0  0  0  0  0  0  0  0  0  0
    5.3861    1.1962    0.8530 C   0  0  0  0  0  0  0  0  0  0  0  0
    6.4303    0.2950    0.1349 C   0  0  0  0  0  0  0  0  0  0  0  0
    5.8369   -1.0728   -0.3211 C   0  0  0  0  0  0  0  0  0  0  0  0
    6.8590   -2.0252   -0.4616 O   0  0  0  0  0  0  0  0  0  0  0  0
    4.7396   -1.6259    0.6329 C   0  0  0  0  0  0  0  0  0  0  0  0
    1.9307   -0.6343   -1.4238 C   0  0  0  0  0  0  0  0  0  0  0  0
    0.7314   -1.2291   -1.8103 C   0  0  0  0  0  0  0  0  0  0  0  0
   -0.4928   -0.5614   -1.6393 C   0  0  0  0  0  0  0  0  0  0  0  0
   -1.9200   -3.4719   -3.5967 H   0  0  0  0  0  0  0  0  0  0  0  0
   -3.1662   -2.5735   -4.5644 H   0  0  0  0  0  0  0  0  0  0  0  0
   -1.4955   -2.7850   -5.2019 H   0  0  0  0  0  0  0  0  0  0  0  0
   -2.5477   -1.4387   -0.3115 H   0  0  0  0  0  0  0  0  0  0  0  0
   -2.1651   -2.9418   -1.1767 H   0  0  0  0  0  0  0  0  0  0  0  0
   -4.2062   -1.1839   -2.5905 H   0  0  0  0  0  0  0  0  0  0  0  0
   -4.1433   -2.9546   -2.3742 H   0  0  0  0  0  0  0  0  0  0  0  0
   -4.8235   -2.6042    0.0906 H   0  0  0  0  0  0  0  0  0  0  0  0
   -6.0357   -2.2834   -1.1738 H   0  0  0  0  0  0  0  0  0  0  0  0
   -6.4066   -0.2587   -0.2388 H   0  0  0  0  0  0  0  0  0  0  0  0
   -4.8591    0.2584   -0.9411 H   0  0  0  0  0  0  0  0  0  0  0  0
   -3.7992   -0.7319    1.3326 H   0  0  0  0  0  0  0  0  0  0  0  0
   -5.4832   -0.7555    1.8928 H   0  0  0  0  0  0  0  0  0  0  0  0
   -4.5203    1.3114    2.6454 H   0  0  0  0  0  0  0  0  0  0  0  0
   -5.6911    1.7048    1.3819 H   0  0  0  0  0  0  0  0  0  0  0  0
   -3.4960    3.0112    1.2740 H   0  0  0  0  0  0  0  0  0  0  0  0
   -4.0698    2.2844   -0.2109 H   0  0  0  0  0  0  0  0  0  0  0  0
   -0.4185    1.0138    1.5103 H   0  0  0  0  0  0  0  0  0  0  0  0
   -2.2065    0.0008    2.9570 H   0  0  0  0  0  0  0  0  0  0  0  0
   -0.9272    0.9690    3.7621 H   0  0  0  0  0  0  0  0  0  0  0  0
   -2.5494    1.6830    3.5513 H   0  0  0  0  0  0  0  0  0  0  0  0
    0.0145    3.1469    2.3981 H   0  0  0  0  0  0  0  0  0  0  0  0
   -1.7031    3.6424    2.4394 H   0  0  0  0  0  0  0  0  0  0  0  0
   -0.8278    3.5650    0.8733 H   0  0  0  0  0  0  0  0  0  0  0  0
   -1.6448    2.5647   -0.9689 H   0  0  0  0  0  0  0  0  0  0  0  0
   -2.5595    1.1502   -1.4911 H   0  0  0  0  0  0  0  0  0  0  0  0
    0.7386    2.3465   -0.3407 H   0  0  0  0  0  0  0  0  0  0  0  0
    2.7892   -0.7962    1.3143 H   0  0  0  0  0  0  0  0  0  0  0  0
    4.8364   -0.9715    3.2039 H   0  0  0  0  0  0  0  0  0  0  0  0
    3.5594    0.2945    3.2590 H   0  0  0  0  0  0  0  0  0  0  0  0
    5.1176    1.9194    2.8905 H   0  0  0  0  0  0  0  0  0  0  0  0
    6.4336    0.6970    2.7522 H   0  0  0  0  0  0  0  0  0  0  0  0
    5.5292    2.2691    0.5992 H   0  0  0  0  0  0  0  0  0  0  0  0
    7.3223    0.1262    0.7767 H   0  0  0  0  0  0  0  0  0  0  0  0
    6.7967    0.8294   -0.7689 H   0  0  0  0  0  0  0  0  0  0  0  0
    5.3496   -0.9124   -1.3123 H   0  0  0  0  0  0  0  0  0  0  0  0
    7.3805   -1.7689   -1.2668 H   0  0  0  0  0  0  0  0  0  0  0  0
    5.2136   -2.2522    1.4211 H   0  0  0  0  0  0  0  0  0  0  0  0
    4.0864   -2.3168    0.0583 H   0  0  0  0  0  0  0  0  0  0  0  0
    2.8592   -1.1610   -1.5923 H   0  0  0  0  0  0  0  0  0  0  0  0
    0.7535   -2.2083   -2.2729 H   0  0  0  0  0  0  0  0  0  0  0  0
  1  2  1  0
  2  3  2  0
  2  4  1  0
  4  5  1  0
  5  6  1  0
  6  7  1  0
  7  8  1  0
  8  9  1  0
  9 10  1  0
 10 11  1  0
 11 12  1  0
 12 13  1  0
 13 14  1  0
 13 15  1  0
 12 16  1  0
 16 17  1  0
 17 18  2  0
 18 19  1  0
 19 20  1  0
 20 21  2  0
 20 22  1  0
 22 23  1  0
 23 24  1  0
 24 25  1  0
 25 26  1  0
 26 27  1  0
 27 28  1  0
 28 29  1  0
 28 30  1  0
 19 31  2  0
 31 32  1  0
 32 33  2  0
 33  4  1  0
 33 17  1  0
 26 22  1  0
 30 23  1  0
  1 34  1  0
  1 35  1  0
  1 36  1  0
  5 37  1  0
  5 38  1  0
  6 39  1  0
  6 40  1  0
  7 41  1  0
  7 42  1  0
  8 43  1  0
  8 44  1  0
  9 45  1  0
  9 46  1  0
 10 47  1  0
 10 48  1  0
 11 49  1  0
 11 50  1  0
 13 51  1  0
 14 52  1  0
 14 53  1  0
 14 54  1  0
 15 55  1  0
 15 56  1  0
 15 57  1  0
 16 58  1  0
 16 59  1  0
 18 60  1  0
 23 61  1  0
 24 62  1  0
 24 63  1  0
 25 64  1  0
 25 65  1  0
 26 66  1  0
 27 67  1  0
 27 68  1  0
 28 69  1  0
 29 70  1  0
 30 71  1  0
 30 72  1  0
 31 73  1  0
 32 74  1  0
M  END
$$$$
