
     RDKit          3D

 63 66  0  0  0  0  0  0  0  0999 V2000
    3.8205   -0.5846    2.2100 O   0  0  0  0  0  0  0  0  0  0  0  0
    3.3754   -0.1685    1.1045 C   0  0  0  0  0  0  0  0  0  0  0  0
    4.2612    0.6889    0.2381 C   0  0  0  0  0  0  0  0  0  0  0  0
    5.6791    0.3126    0.3997 N   0  0  0  0  0  0  0  0  0  0  0  0
    6.5655    1.2769   -0.2551 C   0  0  0  0  0  0  0  0  0  0  0  0
    7.8522    0.5341   -0.5783 C   0  0  0  0  0  0  0  0  0  0  0  0
    7.4731   -0.9383   -0.5885 C   0  0  0  0  0  0  0  0  0  0  0  0
    5.9976   -0.9804   -0.2201 C   0  0  0  0  0  0  0  0  0  0  0  0
    2.0263   -0.4943    0.7158 N   0  0  0  0  0  0  0  0  0  0  0  0
    1.4098   -1.7195    1.2268 C   0  0  0  0  0  0  0  0  0  0  0  0
    0.0454   -1.9309    0.5710 C   0  0  0  0  0  0  0  0  0  0  0  0
   -0.7614   -0.7823    0.7311 O   0  0  0  0  0  0  0  0  0  0  0  0
   -0.2260    0.4140    0.1550 C   0  0  0  0  0  0  0  0  0  0  0  0
   -1.0728    0.8536   -1.0948 C   0  0  0  0  0  0  0  0  0  0  0  0
   -2.0360   -0.2235   -1.6406 C   0  0  0  0  0  0  0  0  0  0  0  0
   -3.0438    0.3622   -2.6471 C   0  0  0  0  0  0  0  0  0  0  0  0
   -4.2034    1.1368   -1.9856 C   0  0  0  0  0  0  0  0  0  0  0  0
   -5.1436    0.2229   -1.2375 C   0  0  0  0  0  0  0  0  0  0  0  0
   -6.1298   -0.4729   -1.9618 C   0  0  0  0  0  0  0  0  0  0  0  0
   -6.9992   -1.3530   -1.3166 C   0  0  0  0  0  0  0  0  0  0  0  0
   -6.8914   -1.5570    0.0569 C   0  0  0  0  0  0  0  0  0  0  0  0
   -5.9116   -0.8845    0.7904 C   0  0  0  0  0  0  0  0  0  0  0  0
   -5.0247    0.0122    0.1563 C   0  0  0  0  0  0  0  0  0  0  0  0
   -4.0349    0.7024    0.8837 O   0  0  0  0  0  0  0  0  0  0  0  0
   -3.4338    0.1971    2.0802 C   0  0  0  0  0  0  0  0  0  0  0  0
   -2.4395    1.1994    2.6733 C   0  0  0  0  0  0  0  0  0  0  0  0
   -1.6782    1.9139    1.6478 N   0  0  0  0  0  0  0  0  0  0  0  0
   -0.3761    1.4871    1.2276 C   0  0  0  0  0  0  0  0  0  0  0  0
    0.6352    2.0632    1.7187 O   0  0  0  0  0  0  0  0  0  0  0  0
    1.2809    0.2942   -0.2728 C   0  0  0  0  0  0  0  0  0  0  0  0
    4.1193    1.7432    0.5599 H   0  0  0  0  0  0  0  0  0  0  0  0
    3.9559    0.6137   -0.8286 H   0  0  0  0  0  0  0  0  0  0  0  0
    6.7671    2.1321    0.4257 H   0  0  0  0  0  0  0  0  0  0  0  0
    6.1163    1.6610   -1.2020 H   0  0  0  0  0  0  0  0  0  0  0  0
    8.6115    0.7271    0.2119 H   0  0  0  0  0  0  0  0  0  0  0  0
    8.2623    0.8530   -1.5619 H   0  0  0  0  0  0  0  0  0  0  0  0
    7.6462   -1.3848   -1.5918 H   0  0  0  0  0  0  0  0  0  0  0  0
    8.0702   -1.4974    0.1684 H   0  0  0  0  0  0  0  0  0  0  0  0
    5.3968   -1.1547   -1.1440 H   0  0  0  0  0  0  0  0  0  0  0  0
    5.8014   -1.8065    0.4962 H   0  0  0  0  0  0  0  0  0  0  0  0
    2.0597   -2.5938    1.0040 H   0  0  0  0  0  0  0  0  0  0  0  0
    1.2804   -1.6346    2.3276 H   0  0  0  0  0  0  0  0  0  0  0  0
    0.1560   -2.1849   -0.5061 H   0  0  0  0  0  0  0  0  0  0  0  0
   -0.4599   -2.7924    1.0557 H   0  0  0  0  0  0  0  0  0  0  0  0
   -0.4065    1.1663   -1.9310 H   0  0  0  0  0  0  0  0  0  0  0  0
   -1.6511    1.7725   -0.8747 H   0  0  0  0  0  0  0  0  0  0  0  0
   -2.5940   -0.7260   -0.8233 H   0  0  0  0  0  0  0  0  0  0  0  0
   -1.4367   -1.0074   -2.1531 H   0  0  0  0  0  0  0  0  0  0  0  0
   -3.4633   -0.4713   -3.2536 H   0  0  0  0  0  0  0  0  0  0  0  0
   -2.5129    1.0383   -3.3529 H   0  0  0  0  0  0  0  0  0  0  0  0
   -4.7760    1.6526   -2.7866 H   0  0  0  0  0  0  0  0  0  0  0  0
   -3.8266    1.9432   -1.3261 H   0  0  0  0  0  0  0  0  0  0  0  0
   -6.2249   -0.3350   -3.0324 H   0  0  0  0  0  0  0  0  0  0  0  0
   -7.7566   -1.8792   -1.8848 H   0  0  0  0  0  0  0  0  0  0  0  0
   -7.5774   -2.2323    0.5556 H   0  0  0  0  0  0  0  0  0  0  0  0
   -5.8663   -1.0602    1.8544 H   0  0  0  0  0  0  0  0  0  0  0  0
   -4.2071    0.0028    2.8531 H   0  0  0  0  0  0  0  0  0  0  0  0
   -2.9317   -0.7654    1.8592 H   0  0  0  0  0  0  0  0  0  0  0  0
   -3.0126    1.9395    3.2736 H   0  0  0  0  0  0  0  0  0  0  0  0
   -1.7507    0.6783    3.3709 H   0  0  0  0  0  0  0  0  0  0  0  0
   -1.8882    2.9371    1.5494 H   0  0  0  0  0  0  0  0  0  0  0  0
    1.3623   -0.2232   -1.2552 H   0  0  0  0  0  0  0  0  0  0  0  0
    1.7213    1.3065   -0.4032 H   0  0  0  0  0  0  0  0  0  0  0  0
  1  2  2  0
  2  3  1  0
  3  4  1  0
  4  5  1  0
  5  6  1  0
  6  7  1  0
  7  8  1  0
  2  9  1  0
  9 10  1  0
 10 11  1  0
 11 12  1  0
 12 13  1  0
 13 14  1  0
 14 15  1  0
 15 16  1  0
 16 17  1  0
 17 18  1  0
 18 19  2  0
 19 20  1  0
 20 21  2  0
 21 22  1  0
 22 23  2  0
 23 24  1  0
 24 25  1  0
 25 26  1  0
 26 27  1  0
 27 28  1  0
 28 29  2  0
 13 30  1  0
  8  4  1  0
 30  9  1  0
 28 13  1  0
 23 18  1  0
  3 31  1  0
  3 32  1  0
  5 33  1  0
  5 34  1  0
  6 35  1  0
  6 36  1  0
  7 37  1  0
  7 38  1  0
  8 39  1  0
  8 40  1  0
 10 41  1  0
 10 42  1  0
 11 43  1  0
 11 44  1  0
 14 45  1  0
 14 46  1  0
 15 47  1  0
 15 48  1  0
 16 49  1  0
 16 50  1  0
 17 51  1  0
 17 52  1  0
 19 53  1  0
 20 54  1  0
 21 55  1  0
 22 56  1  0
 25 57  1  0
 25 58  1  0
 26 59  1  0
 26 60  1  0
 27 61  1  0
 30 62  1  0
 30 63  1  0
M  END
$$$$
