
     RDKit          3D

 66 69  0  0  0  0  0  0  0  0999 V2000
    8.5850    0.9910    1.9303 C   0  0  0  0  0  0  0  0  0  0  0  0
    7.8662   -0.2196    1.7169 O   0  0  0  0  0  0  0  0  0  0  0  0
    6.4943   -0.2905    1.4220 C   0  0  0  0  0  0  0  0  0  0  0  0
    5.6986    0.8646    1.3069 C   0  0  0  0  0  0  0  0  0  0  0  0
    4.3390    0.7621    1.0073 C   0  0  0  0  0  0  0  0  0  0  0  0
    3.7427   -0.4942    0.8145 C   0  0  0  0  0  0  0  0  0  0  0  0
    2.2961   -0.6008    0.4958 C   0  0  0  0  0  0  0  0  0  0  0  0
    1.5049   -1.5904    1.1008 C   0  0  0  0  0  0  0  0  0  0  0  0
    0.1430   -1.6816    0.8128 C   0  0  0  0  0  0  0  0  0  0  0  0
   -0.4576   -0.7901   -0.0849 C   0  0  0  0  0  0  0  0  0  0  0  0
    0.3303    0.1948   -0.7233 C   0  0  0  0  0  0  0  0  0  0  0  0
    1.6976    0.2891   -0.4129 C   0  0  0  0  0  0  0  0  0  0  0  0
   -0.2695    1.1832   -1.6911 C   0  0  0  0  0  0  0  0  0  0  0  0
   -0.7913    2.3357   -0.9507 N   0  0  0  0  0  0  0  0  0  0  0  0
   -1.5074    3.2552   -1.8429 C   0  0  0  0  0  0  0  0  0  0  0  0
   -2.2555    4.3213   -1.0286 C   0  0  0  0  0  0  0  0  0  0  0  0
   -3.2083    3.7312    0.0280 C   0  0  0  0  0  0  0  0  0  0  0  0
   -4.4559    3.0509   -0.5795 C   0  0  0  0  0  0  0  0  0  0  0  0
   -4.7369    1.6541    0.0095 C   0  0  0  0  0  0  0  0  0  0  0  0
   -3.8725    0.5373   -0.6193 C   0  0  0  0  0  0  0  0  0  0  0  0
   -2.8066   -0.0101    0.3453 C   0  0  0  0  0  0  0  0  0  0  0  0
   -1.8661   -0.9096   -0.3444 N   0  0  0  0  0  0  0  0  0  0  0  0
   -2.3146   -2.0090   -1.1594 C   0  0  0  0  0  0  0  0  0  0  0  0
   -1.7091   -2.2614   -2.2367 O   0  0  0  0  0  0  0  0  0  0  0  0
   -3.4568   -2.8592   -0.7616 C   0  0  0  0  0  0  0  0  0  0  0  0
   -4.3288   -3.3748   -1.7326 C   0  0  0  0  0  0  0  0  0  0  0  0
   -5.3988   -4.1864   -1.3519 C   0  0  0  0  0  0  0  0  0  0  0  0
   -5.5806   -4.4893   -0.0018 C   0  0  0  0  0  0  0  0  0  0  0  0
   -4.7162   -4.0023    0.9269 N   0  0  0  0  0  0  0  0  0  0  0  0
   -3.6692   -3.2057    0.5822 C   0  0  0  0  0  0  0  0  0  0  0  0
    4.5356   -1.6487    0.9291 C   0  0  0  0  0  0  0  0  0  0  0  0
    5.9030   -1.5545    1.2367 C   0  0  0  0  0  0  0  0  0  0  0  0
    6.7379   -2.8005    1.3392 C   0  0  0  0  0  0  0  0  0  0  0  0
    9.6465    0.7491    2.1420 H   0  0  0  0  0  0  0  0  0  0  0  0
    8.5408    1.6272    1.0211 H   0  0  0  0  0  0  0  0  0  0  0  0
    8.1634    1.5369    2.8009 H   0  0  0  0  0  0  0  0  0  0  0  0
    6.1212    1.8496    1.4493 H   0  0  0  0  0  0  0  0  0  0  0  0
    3.7490    1.6680    0.9421 H   0  0  0  0  0  0  0  0  0  0  0  0
    1.9351   -2.2802    1.8159 H   0  0  0  0  0  0  0  0  0  0  0  0
   -0.4526   -2.4435    1.2996 H   0  0  0  0  0  0  0  0  0  0  0  0
    2.3001    1.0492   -0.8961 H   0  0  0  0  0  0  0  0  0  0  0  0
   -1.0786    0.6874   -2.2696 H   0  0  0  0  0  0  0  0  0  0  0  0
    0.4974    1.5165   -2.4270 H   0  0  0  0  0  0  0  0  0  0  0  0
    0.0204    2.8536   -0.5372 H   0  0  0  0  0  0  0  0  0  0  0  0
   -2.2337    2.7063   -2.4784 H   0  0  0  0  0  0  0  0  0  0  0  0
   -0.7864    3.7619   -2.5232 H   0  0  0  0  0  0  0  0  0  0  0  0
   -2.8258    4.9797   -1.7196 H   0  0  0  0  0  0  0  0  0  0  0  0
   -1.5061    4.9584   -0.5102 H   0  0  0  0  0  0  0  0  0  0  0  0
   -3.5493    4.5655    0.6795 H   0  0  0  0  0  0  0  0  0  0  0  0
   -2.6481    3.0492    0.6973 H   0  0  0  0  0  0  0  0  0  0  0  0
   -5.3368    3.6951   -0.3632 H   0  0  0  0  0  0  0  0  0  0  0  0
   -4.4023    2.9896   -1.6874 H   0  0  0  0  0  0  0  0  0  0  0  0
   -4.6379    1.6751    1.1175 H   0  0  0  0  0  0  0  0  0  0  0  0
   -5.8037    1.4171   -0.1993 H   0  0  0  0  0  0  0  0  0  0  0  0
   -3.3894    0.8841   -1.5542 H   0  0  0  0  0  0  0  0  0  0  0  0
   -4.5439   -0.2994   -0.9082 H   0  0  0  0  0  0  0  0  0  0  0  0
   -2.2469    0.8332    0.7976 H   0  0  0  0  0  0  0  0  0  0  0  0
   -3.3007   -0.5451    1.1815 H   0  0  0  0  0  0  0  0  0  0  0  0
   -4.1898   -3.1375   -2.7801 H   0  0  0  0  0  0  0  0  0  0  0  0
   -6.0798   -4.5777   -2.0965 H   0  0  0  0  0  0  0  0  0  0  0  0
   -6.4045   -5.1186    0.3072 H   0  0  0  0  0  0  0  0  0  0  0  0
   -2.9920   -2.8654    1.3540 H   0  0  0  0  0  0  0  0  0  0  0  0
    4.0924   -2.6231    0.7622 H   0  0  0  0  0  0  0  0  0  0  0  0
    6.1144   -3.7180    1.2791 H   0  0  0  0  0  0  0  0  0  0  0  0
    7.4775   -2.8215    0.5112 H   0  0  0  0  0  0  0  0  0  0  0  0
    7.2775   -2.8144    2.3099 H   0  0  0  0  0  0  0  0  0  0  0  0
  1  2  1  0
  2  3  1  0
  3  4  2  0
  4  5  1  0
  5  6  2  0
  6  7  1  0
  7  8  2  0
  8  9  1  0
  9 10  2  0
 10 11  1  0
 11 12  2  0
 11 13  1  0
 13 14  1  0
 14 15  1  0
 15 16  1  0
 16 17  1  0
 17 18  1  0
 18 19  1  0
 19 20  1  0
 20 21  1  0
 21 22  1  0
 22 23  1  0
 23 24  2  0
 23 25  1  0
 25 26  2  0
 26 27  1  0
 27 28  2  0
 28 29  1  0
 29 30  2  0
  6 31  1  0
 31 32  2  0
 32 33  1  0
 32  3  1  0
 12  7  1  0
 30 25  1  0
 22 10  1  0
  1 34  1  0
  1 35  1  0
  1 36  1  0
  4 37  1  0
  5 38  1  0
  8 39  1  0
  9 40  1  0
 12 41  1  0
 13 42  1  0
 13 43  1  0
 14 44  1  0
 15 45  1  0
 15 46  1  0
 16 47  1  0
 16 48  1  0
 17 49  1  0
 17 50  1  0
 18 51  1  0
 18 52  1  0
 19 53  1  0
 19 54  1  0
 20 55  1  0
 20 56  1  0
 21 57  1  0
 21 58  1  0
 26 59  1  0
 27 60  1  0
 28 61  1  0
 30 62  1  0
 31 63  1  0
 33 64  1  0
 33 65  1  0
 33 66  1  0
M  END
$$$$
