
     RDKit          3D

 75 78  0  0  0  0  0  0  0  0999 V2000
   -3.6789    3.7322    0.1607 C   0  0  0  0  0  0  0  0  0  0  0  0
   -2.2895    3.1538    0.4227 C   0  0  0  0  0  0  0  0  0  0  0  0
   -2.2862    1.6839    0.3363 N   0  0  0  0  0  0  0  0  0  0  0  0
   -2.9988    0.9141    1.3700 C   0  0  0  0  0  0  0  0  0  0  0  0
   -4.4553    0.6214    0.9699 C   0  0  0  0  0  0  0  0  0  0  0  0
   -4.7079   -0.7689    1.1302 O   0  0  0  0  0  0  0  0  0  0  0  0
   -5.7569   -1.4353    0.4909 C   0  0  0  0  0  0  0  0  0  0  0  0
   -7.0637   -0.9267    0.5145 C   0  0  0  0  0  0  0  0  0  0  0  0
   -8.0924   -1.6165   -0.1323 C   0  0  0  0  0  0  0  0  0  0  0  0
   -7.8180   -2.8055   -0.8150 C   0  0  0  0  0  0  0  0  0  0  0  0
   -6.5151   -3.3088   -0.8561 C   0  0  0  0  0  0  0  0  0  0  0  0
   -5.4765   -2.6284   -0.2006 C   0  0  0  0  0  0  0  0  0  0  0  0
   -4.0496   -3.1099   -0.3067 C   0  0  0  0  0  0  0  0  0  0  0  0
   -3.2251   -2.1865   -1.2300 C   0  0  0  0  0  0  0  0  0  0  0  0
   -1.7603   -2.0937   -0.7787 C   0  0  0  0  0  0  0  0  0  0  0  0
   -0.9281   -1.1466   -1.6758 C   0  0  0  0  0  0  0  0  0  0  0  0
   -0.5887    0.2583   -1.0847 C   0  0  0  0  0  0  0  0  0  0  0  0
    0.2570    0.0820    0.2228 C   0  0  0  0  0  0  0  0  0  0  0  0
    1.3875    1.0111    0.2674 N   0  0  0  0  0  0  0  0  0  0  0  0
    2.4620    0.7576    1.1938 C   0  0  0  0  0  0  0  0  0  0  0  0
    2.2267    0.1209    2.2577 O   0  0  0  0  0  0  0  0  0  0  0  0
    3.8615    1.2484    0.9263 C   0  0  0  0  0  0  0  0  0  0  0  0
    4.9059    0.1505    1.1735 C   0  0  0  0  0  0  0  0  0  0  0  0
    6.2729    0.7002    1.0182 N   0  0  0  0  0  0  0  0  0  0  0  0
    7.2560    0.0654    1.9225 C   0  0  0  0  0  0  0  0  0  0  0  0
    7.6183   -1.3589    1.4762 C   0  0  0  0  0  0  0  0  0  0  0  0
    8.1650   -1.3413    0.0492 C   0  0  0  0  0  0  0  0  0  0  0  0
    7.1678   -0.6759   -0.8996 C   0  0  0  0  0  0  0  0  0  0  0  0
    6.7504    0.7157   -0.3853 C   0  0  0  0  0  0  0  0  0  0  0  0
    1.2130    2.3284   -0.3411 C   0  0  0  0  0  0  0  0  0  0  0  0
    0.6422    2.1895   -1.7609 C   0  0  0  0  0  0  0  0  0  0  0  0
    0.2221    0.8726   -2.0835 O   0  0  0  0  0  0  0  0  0  0  0  0
   -1.8959    1.0556   -0.9059 C   0  0  0  0  0  0  0  0  0  0  0  0
   -2.6215    1.2385   -1.9206 O   0  0  0  0  0  0  0  0  0  0  0  0
   -4.3678    3.4737    0.9911 H   0  0  0  0  0  0  0  0  0  0  0  0
   -4.0851    3.3414   -0.7962 H   0  0  0  0  0  0  0  0  0  0  0  0
   -3.6150    4.8396    0.0972 H   0  0  0  0  0  0  0  0  0  0  0  0
   -1.9391    3.4727    1.4287 H   0  0  0  0  0  0  0  0  0  0  0  0
   -1.5952    3.5923   -0.3205 H   0  0  0  0  0  0  0  0  0  0  0  0
   -2.4668   -0.0351    1.5695 H   0  0  0  0  0  0  0  0  0  0  0  0
   -2.9896    1.4714    2.3328 H   0  0  0  0  0  0  0  0  0  0  0  0
   -4.6353    0.9099   -0.0886 H   0  0  0  0  0  0  0  0  0  0  0  0
   -5.1556    1.2008    1.6099 H   0  0  0  0  0  0  0  0  0  0  0  0
   -7.2854   -0.0096    1.0446 H   0  0  0  0  0  0  0  0  0  0  0  0
   -9.1009   -1.2287   -0.1052 H   0  0  0  0  0  0  0  0  0  0  0  0
   -8.6168   -3.3354   -1.3177 H   0  0  0  0  0  0  0  0  0  0  0  0
   -6.3140   -4.2183   -1.4068 H   0  0  0  0  0  0  0  0  0  0  0  0
   -4.0092   -4.1503   -0.6970 H   0  0  0  0  0  0  0  0  0  0  0  0
   -3.6155   -3.1392    0.7166 H   0  0  0  0  0  0  0  0  0  0  0  0
   -3.6459   -1.1619   -1.2472 H   0  0  0  0  0  0  0  0  0  0  0  0
   -3.2752   -2.5785   -2.2694 H   0  0  0  0  0  0  0  0  0  0  0  0
   -1.7082   -1.7797    0.2821 H   0  0  0  0  0  0  0  0  0  0  0  0
   -1.3207   -3.1146   -0.8324 H   0  0  0  0  0  0  0  0  0  0  0  0
    0.0337   -1.6583   -1.9023 H   0  0  0  0  0  0  0  0  0  0  0  0
   -1.4206   -1.0237   -2.6657 H   0  0  0  0  0  0  0  0  0  0  0  0
    0.6669   -0.9508    0.2745 H   0  0  0  0  0  0  0  0  0  0  0  0
   -0.3413    0.2140    1.1394 H   0  0  0  0  0  0  0  0  0  0  0  0
    4.0682    2.1169    1.5883 H   0  0  0  0  0  0  0  0  0  0  0  0
    3.9451    1.5805   -0.1280 H   0  0  0  0  0  0  0  0  0  0  0  0
    4.7583   -0.2369    2.2068 H   0  0  0  0  0  0  0  0  0  0  0  0
    4.7238   -0.6977    0.4805 H   0  0  0  0  0  0  0  0  0  0  0  0
    6.8693    0.0441    2.9660 H   0  0  0  0  0  0  0  0  0  0  0  0
    8.1789    0.6870    1.9477 H   0  0  0  0  0  0  0  0  0  0  0  0
    6.7220   -2.0141    1.5294 H   0  0  0  0  0  0  0  0  0  0  0  0
    8.3890   -1.7747    2.1611 H   0  0  0  0  0  0  0  0  0  0  0  0
    8.3587   -2.3821   -0.2897 H   0  0  0  0  0  0  0  0  0  0  0  0
    9.1290   -0.7859    0.0262 H   0  0  0  0  0  0  0  0  0  0  0  0
    7.6394   -0.5646   -1.9007 H   0  0  0  0  0  0  0  0  0  0  0  0
    6.2779   -1.3275   -1.0285 H   0  0  0  0  0  0  0  0  0  0  0  0
    7.6233    1.3995   -0.4565 H   0  0  0  0  0  0  0  0  0  0  0  0
    5.9757    1.1328   -1.0612 H   0  0  0  0  0  0  0  0  0  0  0  0
    0.5212    2.9188    0.2913 H   0  0  0  0  0  0  0  0  0  0  0  0
    2.1639    2.8978   -0.3768 H   0  0  0  0  0  0  0  0  0  0  0  0
   -0.1815    2.9112   -1.9384 H   0  0  0  0  0  0  0  0  0  0  0  0
    1.4404    2.4663   -2.4822 H   0  0  0  0  0  0  0  0  0  0  0  0
  1  2  1  0
  2  3  1  0
  3  4  1  0
  4  5  1  0
  5  6  1  0
  6  7  1  0
  7  8  2  0
  8  9  1  0
  9 10  2  0
 10 11  1  0
 11 12  2  0
 12 13  1  0
 13 14  1  0
 14 15  1  0
 15 16  1  0
 16 17  1  0
 17 18  1  0
 18 19  1  0
 19 20  1  0
 20 21  2  0
 20 22  1  0
 22 23  1  0
 23 24  1  0
 24 25  1  0
 25 26  1  0
 26 27  1  0
 27 28  1  0
 28 29  1  0
 19 30  1  0
 30 31  1  0
 31 32  1  0
 17 33  1  0
 33 34  2  0
 33  3  1  0
 12  7  1  0
 32 17  1  0
 29 24  1  0
  1 35  1  0
  1 36  1  0
  1 37  1  0
  2 38  1  0
  2 39  1  0
  4 40  1  0
  4 41  1  0
  5 42  1  0
  5 43  1  0
  8 44  1  0
  9 45  1  0
 10 46  1  0
 11 47  1  0
 13 48  1  0
 13 49  1  0
 14 50  1  0
 14 51  1  0
 15 52  1  0
 15 53  1  0
 16 54  1  0
 16 55  1  0
 18 56  1  0
 18 57  1  0
 22 58  1  0
 22 59  1  0
 23 60  1  0
 23 61  1  0
 25 62  1  0
 25 63  1  0
 26 64  1  0
 26 65  1  0
 27 66  1  0
 27 67  1  0
 28 68  1  0
 28 69  1  0
 29 70  1  0
 29 71  1  0
 30 72  1  0
 30 73  1  0
 31 74  1  0
 31 75  1  0
M  END
$$$$
