
     RDKit          3D

 60 62  0  0  0  0  0  0  0  0999 V2000
   -5.1603    4.2558    2.9084 C   0  0  0  0  0  0  0  0  0  0  0  0
   -4.6731    3.1862    2.1070 O   0  0  0  0  0  0  0  0  0  0  0  0
   -3.3121    3.0036    1.8390 C   0  0  0  0  0  0  0  0  0  0  0  0
   -2.4616    3.8286    2.2771 O   0  0  0  0  0  0  0  0  0  0  0  0
   -2.8714    1.8638    0.9569 C   0  0  2  0  0  0  0  0  0  0  0  0
   -3.6979    0.5898    1.2203 C   0  0  0  0  0  0  0  0  0  0  0  0
   -5.2425    0.5618    0.2344 S   0  0  0  0  0  0  0  0  0  0  0  0
   -4.5261   -0.1791   -1.2859 C   0  0  0  0  0  0  0  0  0  0  0  0
   -4.0922   -1.6161   -1.0704 C   0  0  0  0  0  0  0  0  0  0  0  0
   -5.0061   -2.5210   -0.4984 C   0  0  0  0  0  0  0  0  0  0  0  0
   -4.6249   -3.8314   -0.2058 C   0  0  0  0  0  0  0  0  0  0  0  0
   -3.3312   -4.2635   -0.4916 C   0  0  0  0  0  0  0  0  0  0  0  0
   -2.4211   -3.3951   -1.0953 C   0  0  0  0  0  0  0  0  0  0  0  0
   -2.7909   -2.0765   -1.4077 C   0  0  0  0  0  0  0  0  0  0  0  0
   -1.8177   -1.2355   -2.1377 C   0  0  0  0  0  0  0  0  0  0  0  0
   -2.1449   -0.7524   -3.2533 O   0  0  0  0  0  0  0  0  0  0  0  0
   -0.5211   -1.0020   -1.6600 O   0  0  0  0  0  0  0  0  0  0  0  0
   -0.1219   -1.1400   -0.2941 C   0  0  0  0  0  0  0  0  0  0  0  0
    0.4592    0.1838    0.2193 C   0  0  1  0  0  0  0  0  0  0  0  0
    1.6856    0.5189   -0.5136 N   0  0  0  0  0  0  0  0  0  0  0  0
    2.9576   -0.0510   -0.1712 C   0  0  0  0  0  0  0  0  0  0  0  0
    3.0591   -0.8391    0.8094 O   0  0  0  0  0  0  0  0  0  0  0  0
    4.1656    0.2407   -1.0239 C   0  0  2  0  0  0  0  0  0  0  0  0
    4.3904   -0.8669   -2.0557 C   0  0  0  0  0  0  0  0  0  0  0  0
    5.8944   -1.1258   -2.0666 C   0  0  0  0  0  0  0  0  0  0  0  0
    6.4209   -0.5971   -0.7390 C   0  0  0  0  0  0  0  0  0  0  0  0
    5.3860    0.2866   -0.2272 N   0  0  0  0  0  0  0  0  0  0  0  0
    5.5940    1.2078    0.8611 C   0  0  0  0  0  0  0  0  0  0  0  0
    6.8609    1.1877    1.6590 C   0  0  0  0  0  0  0  0  0  0  0  0
    4.7091    2.0618    1.1406 O   0  0  0  0  0  0  0  0  0  0  0  0
   -0.5706    1.2797    0.0907 C   0  0  0  0  0  0  0  0  0  0  0  0
   -0.7223    1.8781   -1.0097 O   0  0  0  0  0  0  0  0  0  0  0  0
   -1.4545    1.5635    1.1829 N   0  0  0  0  0  0  0  0  0  0  0  0
   -4.7262    4.1938    3.9297 H   0  0  0  0  0  0  0  0  0  0  0  0
   -4.8938    5.2304    2.4448 H   0  0  0  0  0  0  0  0  0  0  0  0
   -6.2657    4.1818    2.9816 H   0  0  0  0  0  0  0  0  0  0  0  0
   -3.0207    2.1927   -0.0934 H   0  0  0  0  0  0  0  0  0  0  0  0
   -3.9636    0.5197    2.2974 H   0  0  0  0  0  0  0  0  0  0  0  0
   -3.0954   -0.3137    0.9963 H   0  0  0  0  0  0  0  0  0  0  0  0
   -3.6933    0.4695   -1.6213 H   0  0  0  0  0  0  0  0  0  0  0  0
   -5.3005   -0.1593   -2.0810 H   0  0  0  0  0  0  0  0  0  0  0  0
   -6.0136   -2.2054   -0.2593 H   0  0  0  0  0  0  0  0  0  0  0  0
   -5.3333   -4.5114    0.2492 H   0  0  0  0  0  0  0  0  0  0  0  0
   -3.0371   -5.2788   -0.2601 H   0  0  0  0  0  0  0  0  0  0  0  0
   -1.4300   -3.7581   -1.3394 H   0  0  0  0  0  0  0  0  0  0  0  0
   -0.9733   -1.4308    0.3572 H   0  0  0  0  0  0  0  0  0  0  0  0
    0.6429   -1.9419   -0.2225 H   0  0  0  0  0  0  0  0  0  0  0  0
    0.7045    0.0661    1.2976 H   0  0  0  0  0  0  0  0  0  0  0  0
    1.6264    1.0995   -1.3813 H   0  0  0  0  0  0  0  0  0  0  0  0
    4.0402    1.2174   -1.5415 H   0  0  0  0  0  0  0  0  0  0  0  0
    3.8682   -1.8061   -1.7645 H   0  0  0  0  0  0  0  0  0  0  0  0
    4.0298   -0.5572   -3.0603 H   0  0  0  0  0  0  0  0  0  0  0  0
    6.1191   -2.2076   -2.1881 H   0  0  0  0  0  0  0  0  0  0  0  0
    6.3603   -0.5610   -2.9037 H   0  0  0  0  0  0  0  0  0  0  0  0
    7.3697   -0.0404   -0.8979 H   0  0  0  0  0  0  0  0  0  0  0  0
    6.5844   -1.4312   -0.0231 H   0  0  0  0  0  0  0  0  0  0  0  0
    6.7561    1.8135    2.5707 H   0  0  0  0  0  0  0  0  0  0  0  0
    7.6940    1.5857    1.0433 H   0  0  0  0  0  0  0  0  0  0  0  0
    7.0952    0.1484    1.9702 H   0  0  0  0  0  0  0  0  0  0  0  0
   -1.1629    1.2784    2.1454 H   0  0  0  0  0  0  0  0  0  0  0  0
  1  2  1  0
  2  3  1  0
  3  4  2  0
  3  5  1  0
  5  6  1  0
  6  7  1  0
  7  8  1  0
  8  9  1  0
  9 10  2  0
 10 11  1  0
 11 12  2  0
 12 13  1  0
 13 14  2  0
 14 15  1  0
 15 16  2  0
 15 17  1  0
 17 18  1  0
 18 19  1  0
 19 20  1  0
 20 21  1  0
 21 22  2  0
 21 23  1  0
 23 24  1  0
 24 25  1  0
 25 26  1  0
 26 27  1  0
 27 28  1  0
 28 29  1  0
 28 30  2  0
 19 31  1  0
 31 32  2  0
 31 33  1  0
 33  5  1  0
 14  9  1  0
 27 23  1  0
  1 34  1  0
  1 35  1  0
  1 36  1  0
  5 37  1  6
  6 38  1  0
  6 39  1  0
  8 40  1  0
  8 41  1  0
 10 42  1  0
 11 43  1  0
 12 44  1  0
 13 45  1  0
 18 46  1  0
 18 47  1  0
 19 48  1  1
 20 49  1  0
 23 50  1  6
 24 51  1  0
 24 52  1  0
 25 53  1  0
 25 54  1  0
 26 55  1  0
 26 56  1  0
 29 57  1  0
 29 58  1  0
 29 59  1  0
 33 60  1  0
M  END
$$$$
