
     RDKit          3D

 67 70  0  0  0  0  0  0  0  0999 V2000
    7.6151    2.2641    1.3163 C   0  0  0  0  0  0  0  0  0  0  0  0
    6.5985    1.4385    0.5931 C   0  0  0  0  0  0  0  0  0  0  0  0
    6.8687    0.9283   -0.6840 C   0  0  0  0  0  0  0  0  0  0  0  0
    5.8886    0.1869   -1.3481 C   0  0  0  0  0  0  0  0  0  0  0  0
    4.6315   -0.0138   -0.7537 C   0  0  0  0  0  0  0  0  0  0  0  0
    3.5707   -0.7679   -1.4555 C   0  0  0  0  0  0  0  0  0  0  0  0
    3.8720   -1.6086   -2.3460 O   0  0  0  0  0  0  0  0  0  0  0  0
    2.1880   -0.5130   -1.1691 N   0  0  0  0  0  0  0  0  0  0  0  0
    1.4799   -1.3844   -0.2228 C   0  0  0  0  0  0  0  0  0  0  0  0
    0.6942   -2.5023   -0.9438 C   0  0  0  0  0  0  0  0  0  0  0  0
   -0.8186   -2.2355   -1.0777 C   0  0  0  0  0  0  0  0  0  0  0  0
   -1.5206   -2.0798    0.2943 C   0  0  0  0  0  0  0  0  0  0  0  0
   -3.0676   -2.3657    0.3694 C   0  0  0  0  0  0  0  0  0  0  0  0
   -3.3011   -3.9007    0.5066 C   0  0  0  0  0  0  0  0  0  0  0  0
   -2.8056   -4.6151   -0.5982 O   0  0  0  0  0  0  0  0  0  0  0  0
   -3.6062   -1.7148    1.6763 C   0  0  0  0  0  0  0  0  0  0  0  0
   -3.6288   -0.1695    1.6212 C   0  0  0  0  0  0  0  0  0  0  0  0
   -4.1055    0.3939    0.3287 N   0  0  0  0  0  0  0  0  0  0  0  0
   -4.7904   -0.6043   -0.5162 C   0  0  0  0  0  0  0  0  0  0  0  0
   -3.8866   -1.8108   -0.8528 C   0  0  0  0  0  0  0  0  0  0  0  0
   -3.0760    1.1227   -0.4505 C   0  0  0  0  0  0  0  0  0  0  0  0
   -2.4038    2.2328    0.3274 C   0  0  0  0  0  0  0  0  0  0  0  0
   -3.1879    3.1830    1.0060 C   0  0  0  0  0  0  0  0  0  0  0  0
   -2.5861    4.2752    1.6406 C   0  0  0  0  0  0  0  0  0  0  0  0
   -1.2000    4.4302    1.6032 C   0  0  0  0  0  0  0  0  0  0  0  0
   -0.4085    3.4986    0.9279 C   0  0  0  0  0  0  0  0  0  0  0  0
   -1.0003    2.3983    0.2750 C   0  0  0  0  0  0  0  0  0  0  0  0
   -0.2261    1.4620   -0.4338 O   0  0  0  0  0  0  0  0  0  0  0  0
    1.0916    1.7090   -0.9207 C   0  0  0  0  0  0  0  0  0  0  0  0
    1.5134    0.5846   -1.8745 C   0  0  0  0  0  0  0  0  0  0  0  0
    4.4047    0.5164    0.5288 C   0  0  0  0  0  0  0  0  0  0  0  0
    5.3795    1.2221    1.1621 N   0  0  0  0  0  0  0  0  0  0  0  0
    7.5252    3.3248    0.9983 H   0  0  0  0  0  0  0  0  0  0  0  0
    7.4503    2.1991    2.4151 H   0  0  0  0  0  0  0  0  0  0  0  0
    8.6413    1.9014    1.0938 H   0  0  0  0  0  0  0  0  0  0  0  0
    7.8263    1.1053   -1.1608 H   0  0  0  0  0  0  0  0  0  0  0  0
    6.1046   -0.2042   -2.3357 H   0  0  0  0  0  0  0  0  0  0  0  0
    0.8441   -0.7750    0.4450 H   0  0  0  0  0  0  0  0  0  0  0  0
    2.2226   -1.8659    0.4515 H   0  0  0  0  0  0  0  0  0  0  0  0
    0.8307   -3.4543   -0.3854 H   0  0  0  0  0  0  0  0  0  0  0  0
    1.1206   -2.6713   -1.9569 H   0  0  0  0  0  0  0  0  0  0  0  0
   -0.9639   -1.3180   -1.6833 H   0  0  0  0  0  0  0  0  0  0  0  0
   -1.2593   -3.0768   -1.6491 H   0  0  0  0  0  0  0  0  0  0  0  0
   -1.0093   -2.7300    1.0371 H   0  0  0  0  0  0  0  0  0  0  0  0
   -1.3210   -1.0482    0.6305 H   0  0  0  0  0  0  0  0  0  0  0  0
   -4.3887   -4.1168    0.6513 H   0  0  0  0  0  0  0  0  0  0  0  0
   -2.7904   -4.2828    1.4174 H   0  0  0  0  0  0  0  0  0  0  0  0
   -3.5494   -4.7028   -1.2486 H   0  0  0  0  0  0  0  0  0  0  0  0
   -4.6428   -2.0660    1.8766 H   0  0  0  0  0  0  0  0  0  0  0  0
   -2.9953   -2.0365    2.5487 H   0  0  0  0  0  0  0  0  0  0  0  0
   -4.3130    0.1900    2.4197 H   0  0  0  0  0  0  0  0  0  0  0  0
   -2.6273    0.2190    1.9025 H   0  0  0  0  0  0  0  0  0  0  0  0
   -5.7029   -0.9630    0.0108 H   0  0  0  0  0  0  0  0  0  0  0  0
   -5.1497   -0.1336   -1.4589 H   0  0  0  0  0  0  0  0  0  0  0  0
   -4.5632   -2.5916   -1.2604 H   0  0  0  0  0  0  0  0  0  0  0  0
   -3.2358   -1.5387   -1.7038 H   0  0  0  0  0  0  0  0  0  0  0  0
   -2.3277    0.4176   -0.8495 H   0  0  0  0  0  0  0  0  0  0  0  0
   -3.5557    1.5992   -1.3353 H   0  0  0  0  0  0  0  0  0  0  0  0
   -4.2686    3.0881    1.0271 H   0  0  0  0  0  0  0  0  0  0  0  0
   -3.1969    5.0067    2.1568 H   0  0  0  0  0  0  0  0  0  0  0  0
   -0.7364    5.2766    2.0939 H   0  0  0  0  0  0  0  0  0  0  0  0
    0.6634    3.6421    0.9123 H   0  0  0  0  0  0  0  0  0  0  0  0
    1.0887    2.6696   -1.4868 H   0  0  0  0  0  0  0  0  0  0  0  0
    1.8015    1.7956   -0.0722 H   0  0  0  0  0  0  0  0  0  0  0  0
    0.6390    0.1965   -2.4363 H   0  0  0  0  0  0  0  0  0  0  0  0
    2.2028    1.0230   -2.6301 H   0  0  0  0  0  0  0  0  0  0  0  0
    3.4595    0.3605    1.0350 H   0  0  0  0  0  0  0  0  0  0  0  0
  1  2  1  0
  2  3  2  0
  3  4  1  0
  4  5  2  0
  5  6  1  0
  6  7  2  0
  6  8  1  0
  8  9  1  0
  9 10  1  0
 10 11  1  0
 11 12  1  0
 12 13  1  0
 13 14  1  0
 14 15  1  0
 13 16  1  0
 16 17  1  0
 17 18  1  0
 18 19  1  0
 19 20  1  0
 18 21  1  0
 21 22  1  0
 22 23  2  0
 23 24  1  0
 24 25  2  0
 25 26  1  0
 26 27  2  0
 27 28  1  0
 28 29  1  0
 29 30  1  0
  5 31  1  0
 31 32  2  0
 32  2  1  0
 30  8  1  0
 20 13  1  0
 27 22  1  0
  1 33  1  0
  1 34  1  0
  1 35  1  0
  3 36  1  0
  4 37  1  0
  9 38  1  0
  9 39  1  0
 10 40  1  0
 10 41  1  0
 11 42  1  0
 11 43  1  0
 12 44  1  0
 12 45  1  0
 14 46  1  0
 14 47  1  0
 15 48  1  0
 16 49  1  0
 16 50  1  0
 17 51  1  0
 17 52  1  0
 19 53  1  0
 19 54  1  0
 20 55  1  0
 20 56  1  0
 21 57  1  0
 21 58  1  0
 23 59  1  0
 24 60  1  0
 25 61  1  0
 26 62  1  0
 29 63  1  0
 29 64  1  0
 30 65  1  0
 30 66  1  0
 31 67  1  0
M  END
$$$$
