
     RDKit          3D

 74 76  0  0  0  0  0  0  0  0999 V2000
   -4.2753   -2.3161    2.3579 C   0  0  0  0  0  0  0  0  0  0  0  0
   -4.3972   -3.1531    1.0901 C   0  0  0  0  0  0  0  0  0  0  0  0
   -4.2292   -2.2900   -0.1328 C   0  0  0  0  0  0  0  0  0  0  0  0
   -5.2621   -1.8877   -0.7389 O   0  0  0  0  0  0  0  0  0  0  0  0
   -2.9159   -1.8869   -0.5845 N   0  0  0  0  0  0  0  0  0  0  0  0
   -2.7694   -0.6832   -1.4159 C   0  0  0  0  0  0  0  0  0  0  0  0
   -3.2946    0.5673   -0.6875 C   0  0  0  0  0  0  0  0  0  0  0  0
   -2.9043    1.8813   -1.3924 C   0  0  0  0  0  0  0  0  0  0  0  0
   -2.0807    2.7155   -0.4781 N   0  0  0  0  0  0  0  0  0  0  0  0
   -2.7538    3.9188    0.0804 C   0  0  0  0  0  0  0  0  0  0  0  0
   -3.0876    4.9840   -0.9835 C   0  0  0  0  0  0  0  0  0  0  0  0
   -3.9927    3.5362    0.8995 C   0  0  0  0  0  0  0  0  0  0  0  0
   -0.7237    3.0071   -0.9959 C   0  0  0  0  0  0  0  0  0  0  0  0
    0.1548    1.7475   -1.0478 C   0  0  0  0  0  0  0  0  0  0  0  0
    0.2318    1.0029    0.3011 C   0  0  0  0  0  0  0  0  0  0  0  0
    0.4485   -0.4395    0.0964 N   0  0  0  0  0  0  0  0  0  0  0  0
    1.6030   -0.8638   -0.6549 C   0  0  0  0  0  0  0  0  0  0  0  0
    1.4364   -1.5508   -1.7022 O   0  0  0  0  0  0  0  0  0  0  0  0
    2.9737   -0.4904   -0.2350 C   0  0  0  0  0  0  0  0  0  0  0  0
    4.0104   -0.4226   -1.1787 C   0  0  0  0  0  0  0  0  0  0  0  0
    5.3050   -0.0710   -0.7876 C   0  0  0  0  0  0  0  0  0  0  0  0
    5.5964    0.2153    0.5599 C   0  0  0  0  0  0  0  0  0  0  0  0
    6.9363    0.5915    0.9625 N   0  0  0  0  0  0  0  0  0  0  0  0
    7.8363    1.2665    0.0216 C   0  0  0  0  0  0  0  0  0  0  0  0
    7.4147    0.2950    2.3189 C   0  0  0  0  0  0  0  0  0  0  0  0
    4.5576    0.1227    1.5070 C   0  0  0  0  0  0  0  0  0  0  0  0
    3.2644   -0.2327    1.1135 C   0  0  0  0  0  0  0  0  0  0  0  0
   -0.3343   -1.4176    0.8750 C   0  0  0  0  0  0  0  0  0  0  0  0
   -0.6420   -2.6786    0.0937 C   0  0  0  0  0  0  0  0  0  0  0  0
    0.3218   -3.7073    0.0810 C   0  0  0  0  0  0  0  0  0  0  0  0
    0.1029   -4.8837   -0.6375 C   0  0  0  0  0  0  0  0  0  0  0  0
    1.0483   -5.8546   -0.6454 F   0  0  0  0  0  0  0  0  0  0  0  0
   -1.0860   -5.0578   -1.3460 C   0  0  0  0  0  0  0  0  0  0  0  0
   -1.3010   -6.2012   -2.0444 F   0  0  0  0  0  0  0  0  0  0  0  0
   -2.0620   -4.0598   -1.3287 C   0  0  0  0  0  0  0  0  0  0  0  0
   -1.8600   -2.8686   -0.6095 C   0  0  0  0  0  0  0  0  0  0  0  0
   -4.4886   -2.9525    3.2434 H   0  0  0  0  0  0  0  0  0  0  0  0
   -5.0094   -1.4811    2.3407 H   0  0  0  0  0  0  0  0  0  0  0  0
   -3.2487   -1.9060    2.4523 H   0  0  0  0  0  0  0  0  0  0  0  0
   -3.6368   -3.9621    1.1099 H   0  0  0  0  0  0  0  0  0  0  0  0
   -5.3991   -3.6354    1.0712 H   0  0  0  0  0  0  0  0  0  0  0  0
   -3.3221   -0.8215   -2.3714 H   0  0  0  0  0  0  0  0  0  0  0  0
   -1.7003   -0.5461   -1.6747 H   0  0  0  0  0  0  0  0  0  0  0  0
   -2.9189    0.5623    0.3577 H   0  0  0  0  0  0  0  0  0  0  0  0
   -4.4029    0.5168   -0.6190 H   0  0  0  0  0  0  0  0  0  0  0  0
   -3.8348    2.3988   -1.7012 H   0  0  0  0  0  0  0  0  0  0  0  0
   -2.3804    1.6774   -2.3528 H   0  0  0  0  0  0  0  0  0  0  0  0
   -2.0642    4.3956    0.8095 H   0  0  0  0  0  0  0  0  0  0  0  0
   -3.7966    4.6091   -1.7484 H   0  0  0  0  0  0  0  0  0  0  0  0
   -2.1612    5.3341   -1.4849 H   0  0  0  0  0  0  0  0  0  0  0  0
   -3.5512    5.8683   -0.4954 H   0  0  0  0  0  0  0  0  0  0  0  0
   -3.7289    2.7473    1.6355 H   0  0  0  0  0  0  0  0  0  0  0  0
   -4.3674    4.4205    1.4593 H   0  0  0  0  0  0  0  0  0  0  0  0
   -4.8107    3.1594    0.2518 H   0  0  0  0  0  0  0  0  0  0  0  0
   -0.7848    3.4480   -2.0158 H   0  0  0  0  0  0  0  0  0  0  0  0
   -0.2026    3.7416   -0.3447 H   0  0  0  0  0  0  0  0  0  0  0  0
    1.1847    2.0441   -1.3522 H   0  0  0  0  0  0  0  0  0  0  0  0
   -0.2118    1.0765   -1.8480 H   0  0  0  0  0  0  0  0  0  0  0  0
    1.0635    1.4273    0.8999 H   0  0  0  0  0  0  0  0  0  0  0  0
   -0.6864    1.1668    0.9002 H   0  0  0  0  0  0  0  0  0  0  0  0
    3.8175   -0.6268   -2.2246 H   0  0  0  0  0  0  0  0  0  0  0  0
    6.0785   -0.0407   -1.5450 H   0  0  0  0  0  0  0  0  0  0  0  0
    8.6879    1.7467    0.5509 H   0  0  0  0  0  0  0  0  0  0  0  0
    7.2875    2.0677   -0.5213 H   0  0  0  0  0  0  0  0  0  0  0  0
    8.2428    0.5311   -0.7030 H   0  0  0  0  0  0  0  0  0  0  0  0
    6.9889    1.0251    3.0380 H   0  0  0  0  0  0  0  0  0  0  0  0
    7.1082   -0.7289    2.6092 H   0  0  0  0  0  0  0  0  0  0  0  0
    8.5208    0.3369    2.3754 H   0  0  0  0  0  0  0  0  0  0  0  0
    4.7390    0.3320    2.5519 H   0  0  0  0  0  0  0  0  0  0  0  0
    2.4903   -0.3099    1.8671 H   0  0  0  0  0  0  0  0  0  0  0  0
    0.2423   -1.6851    1.7864 H   0  0  0  0  0  0  0  0  0  0  0  0
   -1.2797   -0.9682    1.2403 H   0  0  0  0  0  0  0  0  0  0  0  0
    1.2520   -3.5905    0.6234 H   0  0  0  0  0  0  0  0  0  0  0  0
   -2.9866   -4.2131   -1.8712 H   0  0  0  0  0  0  0  0  0  0  0  0
  1  2  1  0
  2  3  1  0
  3  4  2  0
  3  5  1  0
  5  6  1  0
  6  7  1  0
  7  8  1  0
  8  9  1  0
  9 10  1  0
 10 11  1  0
 10 12  1  0
  9 13  1  0
 13 14  1  0
 14 15  1  0
 15 16  1  0
 16 17  1  0
 17 18  2  0
 17 19  1  0
 19 20  2  0
 20 21  1  0
 21 22  2  0
 22 23  1  0
 23 24  1  0
 23 25  1  0
 22 26  1  0
 26 27  2  0
 16 28  1  0
 28 29  1  0
 29 30  2  0
 30 31  1  0
 31 32  1  0
 31 33  2  0
 33 34  1  0
 33 35  1  0
 35 36  2  0
 36  5  1  0
 27 19  1  0
 36 29  1  0
  1 37  1  0
  1 38  1  0
  1 39  1  0
  2 40  1  0
  2 41  1  0
  6 42  1  0
  6 43  1  0
  7 44  1  0
  7 45  1  0
  8 46  1  0
  8 47  1  0
 10 48  1  0
 11 49  1  0
 11 50  1  0
 11 51  1  0
 12 52  1  0
 12 53  1  0
 12 54  1  0
 13 55  1  0
 13 56  1  0
 14 57  1  0
 14 58  1  0
 15 59  1  0
 15 60  1  0
 20 61  1  0
 21 62  1  0
 24 63  1  0
 24 64  1  0
 24 65  1  0
 25 66  1  0
 25 67  1  0
 25 68  1  0
 26 69  1  0
 27 70  1  0
 28 71  1  0
 28 72  1  0
 30 73  1  0
 35 74  1  0
M  END
$$$$
