
     RDKit          3D

 59 62  0  0  0  0  0  0  0  0999 V2000
   -3.5088    2.8644    0.8089 C   0  0  0  0  0  0  0  0  0  0  0  0
   -4.7260    1.6392    0.3828 S   0  0  0  0  0  6  0  0  0  0  0  0
   -5.9189    2.3316   -0.2132 O   0  0  0  0  0  0  0  0  0  0  0  0
   -5.1537    0.9087    1.6247 O   0  0  0  0  0  0  0  0  0  0  0  0
   -4.0660    0.5345   -0.7904 N   0  0  0  0  0  0  0  0  0  0  0  0
   -3.1199   -0.4236   -0.1845 C   0  0  0  0  0  0  0  0  0  0  0  0
   -3.8469   -1.7106    0.2513 C   0  0  0  0  0  0  0  0  0  0  0  0
   -2.8536   -2.6992    0.8468 C   0  0  0  0  0  0  0  0  0  0  0  0
   -1.8036   -3.0672   -0.1941 C   0  0  0  0  0  0  0  0  0  0  0  0
   -1.1349   -1.8685   -0.7258 N   0  0  0  0  0  0  0  0  0  0  0  0
    0.1565   -2.1011   -1.3263 C   0  0  0  0  0  0  0  0  0  0  0  0
    0.3003   -1.9673   -2.5718 O   0  0  0  0  0  0  0  0  0  0  0  0
    1.3504   -2.4827   -0.4945 C   0  0  0  0  0  0  0  0  0  0  0  0
    1.8848   -1.3140    0.1165 O   0  0  0  0  0  0  0  0  0  0  0  0
    3.2154   -1.1394    0.5383 C   0  0  0  0  0  0  0  0  0  0  0  0
    4.0519   -2.2345    0.8476 C   0  0  0  0  0  0  0  0  0  0  0  0
    3.5922   -3.5094    0.8023 F   0  0  0  0  0  0  0  0  0  0  0  0
    5.3727   -2.0195    1.2466 C   0  0  0  0  0  0  0  0  0  0  0  0
    5.8751   -0.7240    1.3499 C   0  0  0  0  0  0  0  0  0  0  0  0
    5.0583    0.3694    1.0632 C   0  0  0  0  0  0  0  0  0  0  0  0
    3.7251    0.1816    0.6575 C   0  0  0  0  0  0  0  0  0  0  0  0
    2.8577    1.4021    0.3732 C   0  0  0  0  0  0  0  0  0  0  0  0
    2.3758    1.4067   -1.1060 C   0  0  0  0  0  0  0  0  0  0  0  0
    1.2327    2.3918   -1.3609 C   0  0  0  0  0  0  0  0  0  0  0  0
    0.0897    2.1906   -0.3482 C   0  0  0  0  0  0  0  0  0  0  0  0
    0.6374    2.5099    1.0458 C   0  0  0  0  0  0  0  0  0  0  0  0
    1.7291    1.5057    1.4331 C   0  0  0  0  0  0  0  0  0  0  0  0
   -0.3901    0.8529   -0.3317 O   0  0  0  0  0  0  0  0  0  0  0  0
   -1.1632    0.5433   -1.4722 C   0  0  0  0  0  0  0  0  0  0  0  0
   -1.9867   -0.7430   -1.2021 C   0  0  0  0  0  0  0  0  0  0  0  0
   -3.1662    3.3803   -0.1113 H   0  0  0  0  0  0  0  0  0  0  0  0
   -2.6449    2.3786    1.3049 H   0  0  0  0  0  0  0  0  0  0  0  0
   -3.9562    3.6067    1.5015 H   0  0  0  0  0  0  0  0  0  0  0  0
   -4.8587    0.0371   -1.2582 H   0  0  0  0  0  0  0  0  0  0  0  0
   -2.6444    0.0191    0.7203 H   0  0  0  0  0  0  0  0  0  0  0  0
   -4.3597   -2.1790   -0.6183 H   0  0  0  0  0  0  0  0  0  0  0  0
   -4.6174   -1.4788    1.0150 H   0  0  0  0  0  0  0  0  0  0  0  0
   -3.3925   -3.6169    1.1676 H   0  0  0  0  0  0  0  0  0  0  0  0
   -2.3603   -2.2552    1.7395 H   0  0  0  0  0  0  0  0  0  0  0  0
   -2.2860   -3.6177   -1.0317 H   0  0  0  0  0  0  0  0  0  0  0  0
   -1.0782   -3.7573    0.2834 H   0  0  0  0  0  0  0  0  0  0  0  0
    2.1115   -2.9424   -1.1625 H   0  0  0  0  0  0  0  0  0  0  0  0
    1.0788   -3.2159    0.2902 H   0  0  0  0  0  0  0  0  0  0  0  0
    6.0092   -2.8622    1.4846 H   0  0  0  0  0  0  0  0  0  0  0  0
    6.8994   -0.5658    1.6621 H   0  0  0  0  0  0  0  0  0  0  0  0
    5.4695    1.3664    1.1613 H   0  0  0  0  0  0  0  0  0  0  0  0
    3.4694    2.3255    0.4919 H   0  0  0  0  0  0  0  0  0  0  0  0
    3.2326    1.6817   -1.7592 H   0  0  0  0  0  0  0  0  0  0  0  0
    2.0423    0.4111   -1.4509 H   0  0  0  0  0  0  0  0  0  0  0  0
    0.8571    2.2681   -2.3985 H   0  0  0  0  0  0  0  0  0  0  0  0
    1.6209    3.4317   -1.2860 H   0  0  0  0  0  0  0  0  0  0  0  0
   -0.7278    2.9156   -0.5626 H   0  0  0  0  0  0  0  0  0  0  0  0
    1.0471    3.5438    1.0746 H   0  0  0  0  0  0  0  0  0  0  0  0
   -0.1864    2.4552    1.7898 H   0  0  0  0  0  0  0  0  0  0  0  0
    2.1732    1.8201    2.4029 H   0  0  0  0  0  0  0  0  0  0  0  0
    1.2497    0.5218    1.6148 H   0  0  0  0  0  0  0  0  0  0  0  0
   -0.5000    0.3791   -2.3455 H   0  0  0  0  0  0  0  0  0  0  0  0
   -1.8545    1.3719   -1.7467 H   0  0  0  0  0  0  0  0  0  0  0  0
   -2.4602   -1.0512   -2.1614 H   0  0  0  0  0  0  0  0  0  0  0  0
  1  2  1  0
  2  3  2  0
  2  4  2  0
  2  5  1  0
  5  6  1  0
  6  7  1  0
  7  8  1  0
  8  9  1  0
  9 10  1  0
 10 11  1  0
 11 12  2  0
 11 13  1  0
 13 14  1  0
 14 15  1  0
 15 16  2  0
 16 17  1  0
 16 18  1  0
 18 19  2  0
 19 20  1  0
 20 21  2  0
 21 22  1  0
 22 23  1  0
 23 24  1  0
 24 25  1  0
 25 26  1  0
 26 27  1  0
 25 28  1  0
 28 29  1  0
 29 30  1  0
 30  6  1  0
 30 10  1  0
 21 15  1  0
 27 22  1  0
  1 31  1  0
  1 32  1  0
  1 33  1  0
  5 34  1  0
  6 35  1  0
  7 36  1  0
  7 37  1  0
  8 38  1  0
  8 39  1  0
  9 40  1  0
  9 41  1  0
 13 42  1  0
 13 43  1  0
 18 44  1  0
 19 45  1  0
 20 46  1  0
 22 47  1  0
 23 48  1  0
 23 49  1  0
 24 50  1  0
 24 51  1  0
 25 52  1  0
 26 53  1  0
 26 54  1  0
 27 55  1  0
 27 56  1  0
 29 57  1  0
 29 58  1  0
 30 59  1  0
M  END
$$$$
