
     RDKit          3D

 67 69  0  0  0  0  0  0  0  0999 V2000
   -4.9905   -3.4241    1.7015 C   0  0  0  0  0  0  0  0  0  0  0  0
   -4.2866   -2.2211    1.0700 C   0  0  0  0  0  0  0  0  0  0  0  0
   -2.9896   -2.5825    0.3808 C   0  0  0  0  0  0  0  0  0  0  0  0
   -2.5466   -3.7630    0.4739 O   0  0  0  0  0  0  0  0  0  0  0  0
   -2.2384   -1.6022   -0.3730 N   0  0  0  0  0  0  0  0  0  0  0  0
   -2.4899   -0.1561   -0.2074 C   0  0  0  0  0  0  0  0  0  0  0  0
   -2.1305    0.6878   -1.4529 C   0  0  0  0  0  0  0  0  0  0  0  0
   -2.0238    2.1802   -1.1040 C   0  0  0  0  0  0  0  0  0  0  0  0
   -0.9257    2.4405   -0.1268 N   0  0  0  0  0  0  0  0  0  0  0  0
   -1.0841    3.7011    0.6704 C   0  0  0  0  0  0  0  0  0  0  0  0
   -0.1798    3.6543    1.9199 C   0  0  0  0  0  0  0  0  0  0  0  0
   -2.5246    3.9598    1.1654 C   0  0  0  0  0  0  0  0  0  0  0  0
    0.4100    2.3994   -0.8000 C   0  0  0  0  0  0  0  0  0  0  0  0
    1.1775    1.0869   -0.5365 C   0  0  0  0  0  0  0  0  0  0  0  0
    1.1113    0.5830    0.9129 C   0  0  0  0  0  0  0  0  0  0  0  0
    1.5150   -0.8314    0.9939 N   0  0  0  0  0  0  0  0  0  0  0  0
    2.9101   -1.1980    1.1292 C   0  0  0  0  0  0  0  0  0  0  0  0
    3.2283   -2.3831    1.4152 O   0  0  0  0  0  0  0  0  0  0  0  0
    3.9952   -0.2168    0.9336 C   0  0  0  0  0  0  0  0  0  0  0  0
    4.3650    0.6328    1.9819 C   0  0  0  0  0  0  0  0  0  0  0  0
    5.3645    1.5341    1.8090 N   0  0  0  0  0  0  0  0  0  0  0  0
    6.0281    1.6224    0.6284 C   0  0  0  0  0  0  0  0  0  0  0  0
    5.7016    0.7969   -0.3982 N   0  0  0  0  0  0  0  0  0  0  0  0
    4.7101   -0.1258   -0.2770 C   0  0  0  0  0  0  0  0  0  0  0  0
    4.3940   -1.0059   -1.4486 C   0  0  0  0  0  0  0  0  0  0  0  0
    0.4742   -1.8769    0.9025 C   0  0  0  0  0  0  0  0  0  0  0  0
    0.1787   -2.2359   -0.5414 C   0  0  0  0  0  0  0  0  0  0  0  0
    1.2104   -2.7852   -1.3250 C   0  0  0  0  0  0  0  0  0  0  0  0
    0.9993   -3.1096   -2.6659 C   0  0  0  0  0  0  0  0  0  0  0  0
    2.0183   -3.6130   -3.4072 F   0  0  0  0  0  0  0  0  0  0  0  0
   -0.2572   -2.9218   -3.2409 C   0  0  0  0  0  0  0  0  0  0  0  0
   -0.4640   -3.2419   -4.5424 F   0  0  0  0  0  0  0  0  0  0  0  0
   -1.3053   -2.4154   -2.4726 C   0  0  0  0  0  0  0  0  0  0  0  0
   -1.1048   -2.0672   -1.1287 C   0  0  0  0  0  0  0  0  0  0  0  0
   -5.9445   -3.0948    2.1662 H   0  0  0  0  0  0  0  0  0  0  0  0
   -5.2213   -4.1871    0.9257 H   0  0  0  0  0  0  0  0  0  0  0  0
   -4.3520   -3.8757    2.4922 H   0  0  0  0  0  0  0  0  0  0  0  0
   -4.9778   -1.7715    0.3237 H   0  0  0  0  0  0  0  0  0  0  0  0
   -4.0807   -1.4725    1.8661 H   0  0  0  0  0  0  0  0  0  0  0  0
   -3.5635    0.0307   -0.0034 H   0  0  0  0  0  0  0  0  0  0  0  0
   -1.9436    0.1959    0.6863 H   0  0  0  0  0  0  0  0  0  0  0  0
   -2.9328    0.5552   -2.2116 H   0  0  0  0  0  0  0  0  0  0  0  0
   -1.1976    0.3640   -1.9406 H   0  0  0  0  0  0  0  0  0  0  0  0
   -3.0217    2.4401   -0.7077 H   0  0  0  0  0  0  0  0  0  0  0  0
   -1.8926    2.7849   -2.0294 H   0  0  0  0  0  0  0  0  0  0  0  0
   -0.7860    4.5786    0.0521 H   0  0  0  0  0  0  0  0  0  0  0  0
   -0.2759    4.5934    2.5057 H   0  0  0  0  0  0  0  0  0  0  0  0
   -0.4672    2.7987    2.5690 H   0  0  0  0  0  0  0  0  0  0  0  0
    0.8932    3.5565    1.6642 H   0  0  0  0  0  0  0  0  0  0  0  0
   -2.5435    4.7525    1.9457 H   0  0  0  0  0  0  0  0  0  0  0  0
   -2.9610    3.0343    1.6010 H   0  0  0  0  0  0  0  0  0  0  0  0
   -3.1647    4.3390    0.3414 H   0  0  0  0  0  0  0  0  0  0  0  0
    1.0671    3.2420   -0.4939 H   0  0  0  0  0  0  0  0  0  0  0  0
    0.3241    2.5259   -1.9027 H   0  0  0  0  0  0  0  0  0  0  0  0
    0.8208    0.2992   -1.2224 H   0  0  0  0  0  0  0  0  0  0  0  0
    2.2407    1.2538   -0.8065 H   0  0  0  0  0  0  0  0  0  0  0  0
    0.0942    0.6947    1.3283 H   0  0  0  0  0  0  0  0  0  0  0  0
    1.7556    1.2123    1.5608 H   0  0  0  0  0  0  0  0  0  0  0  0
    3.8548    0.5841    2.9346 H   0  0  0  0  0  0  0  0  0  0  0  0
    6.8207    2.3479    0.5066 H   0  0  0  0  0  0  0  0  0  0  0  0
    3.3608   -0.8094   -1.8004 H   0  0  0  0  0  0  0  0  0  0  0  0
    4.4946   -2.0718   -1.1592 H   0  0  0  0  0  0  0  0  0  0  0  0
    5.0934   -0.8058   -2.2867 H   0  0  0  0  0  0  0  0  0  0  0  0
   -0.4387   -1.5430    1.4349 H   0  0  0  0  0  0  0  0  0  0  0  0
    0.7933   -2.7953    1.4399 H   0  0  0  0  0  0  0  0  0  0  0  0
    2.1857   -2.9676   -0.8997 H   0  0  0  0  0  0  0  0  0  0  0  0
   -2.2840   -2.2913   -2.9200 H   0  0  0  0  0  0  0  0  0  0  0  0
  1  2  1  0
  2  3  1  0
  3  4  2  0
  3  5  1  0
  5  6  1  0
  6  7  1  0
  7  8  1  0
  8  9  1  0
  9 10  1  0
 10 11  1  0
 10 12  1  0
  9 13  1  0
 13 14  1  0
 14 15  1  0
 15 16  1  0
 16 17  1  0
 17 18  2  0
 17 19  1  0
 19 20  2  0
 20 21  1  0
 21 22  2  0
 22 23  1  0
 23 24  2  0
 24 25  1  0
 16 26  1  0
 26 27  1  0
 27 28  2  0
 28 29  1  0
 29 30  1  0
 29 31  2  0
 31 32  1  0
 31 33  1  0
 33 34  2  0
 34  5  1  0
 24 19  1  0
 34 27  1  0
  1 35  1  0
  1 36  1  0
  1 37  1  0
  2 38  1  0
  2 39  1  0
  6 40  1  0
  6 41  1  0
  7 42  1  0
  7 43  1  0
  8 44  1  0
  8 45  1  0
 10 46  1  0
 11 47  1  0
 11 48  1  0
 11 49  1  0
 12 50  1  0
 12 51  1  0
 12 52  1  0
 13 53  1  0
 13 54  1  0
 14 55  1  0
 14 56  1  0
 15 57  1  0
 15 58  1  0
 20 59  1  0
 22 60  1  0
 25 61  1  0
 25 62  1  0
 25 63  1  0
 26 64  1  0
 26 65  1  0
 28 66  1  0
 33 67  1  0
M  END
$$$$
