
     RDKit          3D

 69 71  0  0  0  0  0  0  0  0999 V2000
    4.5289    2.1212    2.9098 C   0  0  0  0  0  0  0  0  0  0  0  0
    3.5923    1.8986    1.8749 O   0  0  0  0  0  0  0  0  0  0  0  0
    3.0912    0.5728    1.9325 C   0  0  2  0  0  0  0  0  0  0  0  0
    3.8865   -0.3277    0.9773 C   0  0  0  0  0  0  0  0  0  0  0  0
    3.2705   -1.7269    0.9332 C   0  0  0  0  0  0  0  0  0  0  0  0
    1.7362   -1.6885    0.7259 C   0  0  2  0  0  0  0  0  0  0  0  0
    1.3159   -1.4618   -0.7594 C   0  0  0  0  0  0  0  0  0  0  0  0
    0.7837   -2.7073   -1.4990 C   0  0  0  0  0  0  0  0  0  0  0  0
   -0.1990   -3.4933   -0.7214 N   0  0  0  0  0  0  0  0  0  0  0  0
   -0.0015   -4.9280   -0.5154 C   0  0  0  0  0  0  0  0  0  0  0  0
   -1.3157   -2.8839   -0.0439 C   0  0  0  0  0  0  0  0  0  0  0  0
   -1.3494   -2.9373    1.2166 O   0  0  0  0  0  0  0  0  0  0  0  0
   -2.5056   -2.2848   -0.7788 C   0  0  2  0  0  0  0  0  0  0  0  0
   -2.7355   -3.0052   -2.1220 C   0  0  0  0  0  0  0  0  0  0  0  0
   -2.4107   -0.7329   -0.9464 C   0  0  1  0  0  0  0  0  0  0  0  0
   -3.6226   -0.2429   -1.5065 O   0  0  0  0  0  0  0  0  0  0  0  0
   -3.4312    0.2051   -2.8323 C   0  0  0  0  0  0  0  0  0  0  0  0
   -2.1263   -0.0412    0.4273 C   0  0  0  0  0  0  0  0  0  0  0  0
   -2.8531    1.2204    0.6427 N   0  0  0  0  0  0  0  0  0  0  0  0
   -4.2886    1.1862    0.9624 C   0  0  0  0  0  0  0  0  0  0  0  0
   -2.0974    2.4165    0.9338 C   0  0  0  0  0  0  0  0  0  0  0  0
   -2.4048    3.1344    1.9326 O   0  0  0  0  0  0  0  0  0  0  0  0
   -1.0393    2.8752    0.0174 C   0  0  0  0  0  0  0  0  0  0  0  0
   -1.4052    3.1457   -1.3109 C   0  0  0  0  0  0  0  0  0  0  0  0
   -0.4933    3.7105   -2.2019 C   0  0  0  0  0  0  0  0  0  0  0  0
    0.7916    4.0397   -1.7693 C   0  0  0  0  0  0  0  0  0  0  0  0
    1.1745    3.7825   -0.4432 C   0  0  0  0  0  0  0  0  0  0  0  0
    2.5008    4.1528   -0.0203 C   0  0  0  0  0  0  0  0  0  0  0  0
    3.5633    4.4627    0.3229 N   0  0  0  0  0  0  0  0  0  0  0  0
    0.2773    3.1673    0.4538 C   0  0  0  0  0  0  0  0  0  0  0  0
    0.7333    2.8495    1.7524 O   0  0  0  0  0  0  0  0  0  0  0  0
    0.7424    1.5258    2.3057 C   0  0  0  0  0  0  0  0  0  0  0  0
    1.6198    0.5546    1.4781 C   0  0  2  0  0  0  0  0  0  0  0  0
    1.0977   -0.7622    1.6044 O   0  0  0  0  0  0  0  0  0  0  0  0
    5.3730    1.4096    2.8550 H   0  0  0  0  0  0  0  0  0  0  0  0
    4.9402    3.1392    2.7938 H   0  0  0  0  0  0  0  0  0  0  0  0
    4.0421    2.0615    3.9036 H   0  0  0  0  0  0  0  0  0  0  0  0
    3.1279    0.1413    2.9639 H   0  0  0  0  0  0  0  0  0  0  0  0
    3.8957    0.1108   -0.0456 H   0  0  0  0  0  0  0  0  0  0  0  0
    4.9402   -0.4115    1.3143 H   0  0  0  0  0  0  0  0  0  0  0  0
    3.4889   -2.2339    1.9006 H   0  0  0  0  0  0  0  0  0  0  0  0
    3.7582   -2.3201    0.1273 H   0  0  0  0  0  0  0  0  0  0  0  0
    1.3901   -2.6989    1.0357 H   0  0  0  0  0  0  0  0  0  0  0  0
    2.1674   -1.0554   -1.3512 H   0  0  0  0  0  0  0  0  0  0  0  0
    0.5409   -0.6826   -0.8227 H   0  0  0  0  0  0  0  0  0  0  0  0
    0.3214   -2.3766   -2.4521 H   0  0  0  0  0  0  0  0  0  0  0  0
    1.6594   -3.3326   -1.7753 H   0  0  0  0  0  0  0  0  0  0  0  0
    0.9715   -5.2780   -0.9348 H   0  0  0  0  0  0  0  0  0  0  0  0
   -0.8235   -5.4881   -1.0033 H   0  0  0  0  0  0  0  0  0  0  0  0
    0.0042   -5.1565    0.5753 H   0  0  0  0  0  0  0  0  0  0  0  0
   -3.4158   -2.4966   -0.1550 H   0  0  0  0  0  0  0  0  0  0  0  0
   -2.7728   -4.1105   -1.9756 H   0  0  0  0  0  0  0  0  0  0  0  0
   -1.9316   -2.7601   -2.8469 H   0  0  0  0  0  0  0  0  0  0  0  0
   -3.7112   -2.7026   -2.5598 H   0  0  0  0  0  0  0  0  0  0  0  0
   -1.5269   -0.5185   -1.6032 H   0  0  0  0  0  0  0  0  0  0  0  0
   -3.0318   -0.5976   -3.4842 H   0  0  0  0  0  0  0  0  0  0  0  0
   -4.4028    0.5314   -3.2495 H   0  0  0  0  0  0  0  0  0  0  0  0
   -2.7323    1.0663   -2.8584 H   0  0  0  0  0  0  0  0  0  0  0  0
   -1.0327    0.1534    0.4553 H   0  0  0  0  0  0  0  0  0  0  0  0
   -2.3240   -0.7074    1.3033 H   0  0  0  0  0  0  0  0  0  0  0  0
   -4.8354    1.8809    0.2908 H   0  0  0  0  0  0  0  0  0  0  0  0
   -4.7053    0.1630    0.8173 H   0  0  0  0  0  0  0  0  0  0  0  0
   -4.4584    1.4715    2.0208 H   0  0  0  0  0  0  0  0  0  0  0  0
   -2.4202    2.9695   -1.6403 H   0  0  0  0  0  0  0  0  0  0  0  0
   -0.8070    3.9212   -3.2174 H   0  0  0  0  0  0  0  0  0  0  0  0
    1.4845    4.5050   -2.4626 H   0  0  0  0  0  0  0  0  0  0  0  0
    1.1213    1.5727    3.3501 H   0  0  0  0  0  0  0  0  0  0  0  0
   -0.2926    1.1441    2.3782 H   0  0  0  0  0  0  0  0  0  0  0  0
    1.5709    0.8884    0.4199 H   0  0  0  0  0  0  0  0  0  0  0  0
  1  2  1  0
  2  3  1  0
  3  4  1  0
  4  5  1  0
  5  6  1  0
  6  7  1  0
  7  8  1  0
  8  9  1  0
  9 10  1  0
  9 11  1  0
 11 12  2  0
 11 13  1  0
 13 14  1  0
 13 15  1  0
 15 16  1  0
 16 17  1  0
 15 18  1  0
 18 19  1  0
 19 20  1  0
 19 21  1  0
 21 22  2  0
 21 23  1  0
 23 24  2  0
 24 25  1  0
 25 26  2  0
 26 27  1  0
 27 28  1  0
 28 29  3  0
 27 30  2  0
 30 31  1  0
 31 32  1  0
 32 33  1  0
 33 34  1  0
 33  3  1  0
 34  6  1  0
 30 23  1  0
  1 35  1  0
  1 36  1  0
  1 37  1  0
  3 38  1  1
  4 39  1  0
  4 40  1  0
  5 41  1  0
  5 42  1  0
  6 43  1  1
  7 44  1  0
  7 45  1  0
  8 46  1  0
  8 47  1  0
 10 48  1  0
 10 49  1  0
 10 50  1  0
 13 51  1  1
 14 52  1  0
 14 53  1  0
 14 54  1  0
 15 55  1  6
 17 56  1  0
 17 57  1  0
 17 58  1  0
 18 59  1  0
 18 60  1  0
 20 61  1  0
 20 62  1  0
 20 63  1  0
 24 64  1  0
 25 65  1  0
 26 66  1  0
 32 67  1  0
 32 68  1  0
 33 69  1  6
M  END
$$$$
