
     RDKit          3D

 84 87  0  0  0  0  0  0  0  0999 V2000
   -3.4281    4.8351    1.0693 C   0  0  0  0  0  0  0  0  0  0  0  0
   -2.0485    4.2962    0.6533 C   0  0  0  0  0  0  0  0  0  0  0  0
   -2.1416    2.8970   -0.0090 C   0  0  0  0  0  0  0  0  0  0  0  0
   -3.1864    2.7859   -1.1357 C   0  0  0  0  0  0  0  0  0  0  0  0
   -2.7666    1.7609   -2.0959 N   0  0  0  0  0  0  0  0  0  0  0  0
   -3.3283    0.4397   -2.0840 C   0  0  0  0  0  0  0  0  0  0  0  0
   -4.5760    0.2959   -2.1413 O   0  0  0  0  0  0  0  0  0  0  0  0
   -2.4520   -0.7791   -1.8611 C   0  0  2  0  0  0  0  0  0  0  0  0
   -2.2514   -1.0264   -0.3543 C   0  0  0  0  0  0  0  0  0  0  0  0
   -3.5844   -1.1958    0.3982 C   0  0  0  0  0  0  0  0  0  0  0  0
   -3.5748   -2.1991    1.5475 C   0  0  0  0  0  0  0  0  0  0  0  0
   -4.2531   -2.5552    0.2298 C   0  0  0  0  0  0  0  0  0  0  0  0
   -1.1459   -0.6197   -2.5130 N   0  0  0  0  0  0  0  0  0  0  0  0
   -0.4793   -1.7213   -3.1407 C   0  0  0  0  0  0  0  0  0  0  0  0
   -0.5664   -1.8653   -4.3926 O   0  0  0  0  0  0  0  0  0  0  0  0
    0.4217   -2.6333   -2.3307 C   0  0  1  0  0  0  0  0  0  0  0  0
    0.1897   -4.1327   -2.6735 C   0  0  0  0  0  0  0  0  0  0  0  0
   -1.2621   -4.5472   -2.3712 C   0  0  0  0  0  0  0  0  0  0  0  0
    1.1557   -5.0366   -1.8828 C   0  0  0  0  0  0  0  0  0  0  0  0
    1.8261   -2.2517   -2.5568 N   0  0  0  0  0  0  0  0  0  0  0  0
    2.5866   -1.3615   -1.7188 C   0  0  0  0  0  0  0  0  0  0  0  0
    3.8137   -1.2074   -1.9609 O   0  0  0  0  0  0  0  0  0  0  0  0
    1.9620   -0.6096   -0.5595 C   0  0  1  0  0  0  0  0  0  0  0  0
    2.1199   -1.3691    0.7811 C   0  0  0  0  0  0  0  0  0  0  0  0
    3.5510   -1.5840    1.2227 C   0  0  0  0  0  0  0  0  0  0  0  0
    4.1530   -0.7017    2.1349 C   0  0  0  0  0  0  0  0  0  0  0  0
    5.4727   -0.9105    2.5556 C   0  0  0  0  0  0  0  0  0  0  0  0
    6.1998   -1.9948    2.0580 C   0  0  0  0  0  0  0  0  0  0  0  0
    5.6064   -2.8846    1.1545 C   0  0  0  0  0  0  0  0  0  0  0  0
    6.3117   -3.9395    0.6774 F   0  0  0  0  0  0  0  0  0  0  0  0
    4.2862   -2.6823    0.7443 C   0  0  0  0  0  0  0  0  0  0  0  0
    2.4870    0.7728   -0.5192 N   0  0  0  0  0  0  0  0  0  0  0  0
    1.6105    1.6917    0.2150 C   0  0  0  0  0  0  0  0  0  0  0  0
    1.8617    3.1354   -0.2196 C   0  0  0  0  0  0  0  0  0  0  0  0
    0.7846    3.9905    0.1955 O   0  0  0  0  0  0  0  0  0  0  0  0
    0.3554    4.1337    1.5267 C   0  0  0  0  0  0  0  0  0  0  0  0
    1.2914    4.1197    2.5795 C   0  0  0  0  0  0  0  0  0  0  0  0
    0.8708    4.2222    3.9061 C   0  0  0  0  0  0  0  0  0  0  0  0
   -0.4864    4.3130    4.2000 C   0  0  0  0  0  0  0  0  0  0  0  0
   -1.4337    4.3213    3.1684 C   0  0  0  0  0  0  0  0  0  0  0  0
   -1.0305    4.2748    1.8067 C   0  0  0  0  0  0  0  0  0  0  0  0
   -4.0555    5.0496    0.1746 H   0  0  0  0  0  0  0  0  0  0  0  0
   -3.3230    5.7899    1.6285 H   0  0  0  0  0  0  0  0  0  0  0  0
   -3.9731    4.0871    1.6912 H   0  0  0  0  0  0  0  0  0  0  0  0
   -1.6503    4.9992   -0.1077 H   0  0  0  0  0  0  0  0  0  0  0  0
   -1.1469    2.6792   -0.4570 H   0  0  0  0  0  0  0  0  0  0  0  0
   -2.3337    2.1100    0.7668 H   0  0  0  0  0  0  0  0  0  0  0  0
   -3.2895    3.7536   -1.6831 H   0  0  0  0  0  0  0  0  0  0  0  0
   -4.1787    2.5250   -0.6932 H   0  0  0  0  0  0  0  0  0  0  0  0
   -1.9280    1.9540   -2.6833 H   0  0  0  0  0  0  0  0  0  0  0  0
   -2.9714   -1.6613   -2.3065 H   0  0  0  0  0  0  0  0  0  0  0  0
   -1.6186   -1.9201   -0.2090 H   0  0  0  0  0  0  0  0  0  0  0  0
   -1.7062   -0.1712    0.0905 H   0  0  0  0  0  0  0  0  0  0  0  0
   -4.2785   -0.3429    0.4930 H   0  0  0  0  0  0  0  0  0  0  0  0
   -4.2602   -1.9207    2.3714 H   0  0  0  0  0  0  0  0  0  0  0  0
   -2.6115   -2.7131    1.7295 H   0  0  0  0  0  0  0  0  0  0  0  0
   -5.3576   -2.5165    0.2724 H   0  0  0  0  0  0  0  0  0  0  0  0
   -3.6950   -3.3151   -0.3555 H   0  0  0  0  0  0  0  0  0  0  0  0
   -0.5602    0.2143   -2.2720 H   0  0  0  0  0  0  0  0  0  0  0  0
    0.1895   -2.5359   -1.2548 H   0  0  0  0  0  0  0  0  0  0  0  0
    0.3945   -4.3003   -3.7497 H   0  0  0  0  0  0  0  0  0  0  0  0
   -1.5041   -4.3919   -1.2947 H   0  0  0  0  0  0  0  0  0  0  0  0
   -1.9785   -3.9676   -2.9902 H   0  0  0  0  0  0  0  0  0  0  0  0
   -1.4039   -5.6210   -2.6062 H   0  0  0  0  0  0  0  0  0  0  0  0
    0.9479   -6.1100   -2.0887 H   0  0  0  0  0  0  0  0  0  0  0  0
    2.2053   -4.8473   -2.1728 H   0  0  0  0  0  0  0  0  0  0  0  0
    1.0674   -4.8630   -0.7833 H   0  0  0  0  0  0  0  0  0  0  0  0
    2.3040   -2.6260   -3.4184 H   0  0  0  0  0  0  0  0  0  0  0  0
    0.8762   -0.5574   -0.7531 H   0  0  0  0  0  0  0  0  0  0  0  0
    1.5581   -0.8356    1.5776 H   0  0  0  0  0  0  0  0  0  0  0  0
    1.6179   -2.3582    0.6916 H   0  0  0  0  0  0  0  0  0  0  0  0
    3.5992    0.1412    2.5378 H   0  0  0  0  0  0  0  0  0  0  0  0
    5.9274   -0.2278    3.2570 H   0  0  0  0  0  0  0  0  0  0  0  0
    7.2205   -2.1516    2.3770 H   0  0  0  0  0  0  0  0  0  0  0  0
    3.8364   -3.3783    0.0417 H   0  0  0  0  0  0  0  0  0  0  0  0
    3.4318    0.7939   -0.0721 H   0  0  0  0  0  0  0  0  0  0  0  0
    0.5526    1.4540    0.0086 H   0  0  0  0  0  0  0  0  0  0  0  0
    1.7657    1.5873    1.3099 H   0  0  0  0  0  0  0  0  0  0  0  0
    2.8301    3.4995    0.1819 H   0  0  0  0  0  0  0  0  0  0  0  0
    1.9216    3.1913   -1.3243 H   0  0  0  0  0  0  0  0  0  0  0  0
    2.3459    4.0408    2.3748 H   0  0  0  0  0  0  0  0  0  0  0  0
    1.5966    4.2177    4.7135 H   0  0  0  0  0  0  0  0  0  0  0  0
   -0.8079    4.3900    5.2277 H   0  0  0  0  0  0  0  0  0  0  0  0
   -2.4782    4.3780    3.4549 H   0  0  0  0  0  0  0  0  0  0  0  0
  1  2  1  0
  2  3  1  0
  3  4  1  0
  4  5  1  0
  5  6  1  0
  6  7  2  0
  6  8  1  0
  8  9  1  0
  9 10  1  0
 10 11  1  0
 11 12  1  0
  8 13  1  0
 13 14  1  0
 14 15  2  0
 14 16  1  0
 16 17  1  0
 17 18  1  0
 17 19  1  0
 16 20  1  0
 20 21  1  0
 21 22  2  0
 21 23  1  0
 23 24  1  0
 24 25  1  0
 25 26  2  0
 26 27  1  0
 27 28  2  0
 28 29  1  0
 29 30  1  0
 29 31  2  0
 23 32  1  0
 32 33  1  0
 33 34  1  0
 34 35  1  0
 35 36  1  0
 36 37  2  0
 37 38  1  0
 38 39  2  0
 39 40  1  0
 40 41  2  0
 41  2  1  0
 12 10  1  0
 31 25  1  0
 41 36  1  0
  1 42  1  0
  1 43  1  0
  1 44  1  0
  2 45  1  0
  3 46  1  0
  3 47  1  0
  4 48  1  0
  4 49  1  0
  5 50  1  0
  8 51  1  6
  9 52  1  0
  9 53  1  0
 10 54  1  0
 11 55  1  0
 11 56  1  0
 12 57  1  0
 12 58  1  0
 13 59  1  0
 16 60  1  1
 17 61  1  0
 18 62  1  0
 18 63  1  0
 18 64  1  0
 19 65  1  0
 19 66  1  0
 19 67  1  0
 20 68  1  0
 23 69  1  6
 24 70  1  0
 24 71  1  0
 26 72  1  0
 27 73  1  0
 28 74  1  0
 31 75  1  0
 32 76  1  0
 33 77  1  0
 33 78  1  0
 34 79  1  0
 34 80  1  0
 37 81  1  0
 38 82  1  0
 39 83  1  0
 40 84  1  0
M  END
$$$$
