
     RDKit          3D

 72 73  0  0  0  0  0  0  0  0999 V2000
   -0.1837   -1.0628   -3.7306 C   0  0  0  0  0  0  0  0  0  0  0  0
   -0.3144   -2.3132   -2.9134 C   0  0  0  0  0  0  0  0  0  0  0  0
   -0.8081   -3.3387   -3.4549 O   0  0  0  0  0  0  0  0  0  0  0  0
    0.1402   -2.3693   -1.5459 N   0  0  0  0  0  0  0  0  0  0  0  0
   -0.1790   -3.5364   -0.7006 C   0  0  0  0  0  0  0  0  0  0  0  0
   -1.7083   -3.7074   -0.5045 C   0  0  0  0  0  0  0  0  0  0  0  0
   -2.0858   -4.2983    0.8750 C   0  0  0  0  0  0  0  0  0  0  0  0
   -3.3538   -3.6603    1.4971 C   0  0  0  0  0  0  0  0  0  0  0  0
   -3.0564   -2.4425    2.4119 C   0  0  0  0  0  0  0  0  0  0  0  0
   -3.4381   -1.0738    1.7901 C   0  0  0  0  0  0  0  0  0  0  0  0
   -2.4998    0.0848    2.2553 C   0  0  0  0  0  0  0  0  0  0  0  0
   -1.4776    0.5143    1.2598 N   0  0  0  0  0  0  0  0  0  0  0  0
   -1.8474    1.7241    0.4870 C   0  0  0  0  0  0  0  0  0  0  0  0
   -3.1855    1.6056   -0.2854 C   0  0  0  0  0  0  0  0  0  0  0  0
   -3.4524    2.7661   -1.2744 C   0  0  0  0  0  0  0  0  0  0  0  0
   -3.4548    4.1390   -0.5885 C   0  0  0  0  0  0  0  0  0  0  0  0
   -2.4879    2.7520   -2.4719 C   0  0  0  0  0  0  0  0  0  0  0  0
   -0.9429   -0.5812    0.4262 C   0  0  0  0  0  0  0  0  0  0  0  0
    0.4746   -0.4067   -0.0467 C   0  0  0  0  0  0  0  0  0  0  0  0
    1.3287    0.5699    0.4947 C   0  0  0  0  0  0  0  0  0  0  0  0
    2.6528    0.6831    0.0461 C   0  0  0  0  0  0  0  0  0  0  0  0
    3.5260    1.7350    0.6023 C   0  0  0  0  0  0  0  0  0  0  0  0
    3.1237    2.9299    0.5548 O   0  0  0  0  0  0  0  0  0  0  0  0
    4.7950    1.4274    1.2240 N   0  0  0  0  0  0  0  0  0  0  0  0
    5.1439    0.0408    1.5710 C   0  0  0  0  0  0  0  0  0  0  0  0
    5.7115    2.5192    1.5947 C   0  0  0  0  0  0  0  0  0  0  0  0
    6.4802    3.0121    0.3647 C   0  0  0  0  0  0  0  0  0  0  0  0
    7.3860    4.0199    0.7291 O   0  0  0  0  0  0  0  0  0  0  0  0
    3.1197   -0.1770   -0.9576 C   0  0  0  0  0  0  0  0  0  0  0  0
    2.2917   -1.1778   -1.4694 C   0  0  0  0  0  0  0  0  0  0  0  0
    0.9741   -1.3128   -1.0133 C   0  0  0  0  0  0  0  0  0  0  0  0
    0.8348   -1.0075   -4.1630 H   0  0  0  0  0  0  0  0  0  0  0  0
   -0.9269   -1.0648   -4.5548 H   0  0  0  0  0  0  0  0  0  0  0  0
   -0.3635   -0.1681   -3.1007 H   0  0  0  0  0  0  0  0  0  0  0  0
    0.2367   -4.4566   -1.1661 H   0  0  0  0  0  0  0  0  0  0  0  0
    0.3352   -3.4284    0.2791 H   0  0  0  0  0  0  0  0  0  0  0  0
   -2.2352   -2.7509   -0.6663 H   0  0  0  0  0  0  0  0  0  0  0  0
   -2.0965   -4.3806   -1.3000 H   0  0  0  0  0  0  0  0  0  0  0  0
   -1.2465   -4.2403    1.6007 H   0  0  0  0  0  0  0  0  0  0  0  0
   -2.2722   -5.3849    0.7362 H   0  0  0  0  0  0  0  0  0  0  0  0
   -4.1013   -3.4157    0.7127 H   0  0  0  0  0  0  0  0  0  0  0  0
   -3.8315   -4.4410    2.1295 H   0  0  0  0  0  0  0  0  0  0  0  0
   -3.6455   -2.5568    3.3486 H   0  0  0  0  0  0  0  0  0  0  0  0
   -1.9960   -2.4582    2.7420 H   0  0  0  0  0  0  0  0  0  0  0  0
   -4.4760   -0.8346    2.1114 H   0  0  0  0  0  0  0  0  0  0  0  0
   -3.4903   -1.1319    0.6858 H   0  0  0  0  0  0  0  0  0  0  0  0
   -1.9694   -0.2053    3.1867 H   0  0  0  0  0  0  0  0  0  0  0  0
   -3.1265    0.9520    2.5637 H   0  0  0  0  0  0  0  0  0  0  0  0
   -1.0270    1.9674   -0.2162 H   0  0  0  0  0  0  0  0  0  0  0  0
   -1.9111    2.5795    1.1925 H   0  0  0  0  0  0  0  0  0  0  0  0
   -4.0233    1.5729    0.4437 H   0  0  0  0  0  0  0  0  0  0  0  0
   -3.2271    0.6608   -0.8613 H   0  0  0  0  0  0  0  0  0  0  0  0
   -4.4738    2.6054   -1.6861 H   0  0  0  0  0  0  0  0  0  0  0  0
   -2.4361    4.4184   -0.2389 H   0  0  0  0  0  0  0  0  0  0  0  0
   -4.1462    4.1336    0.2792 H   0  0  0  0  0  0  0  0  0  0  0  0
   -3.8026    4.9172   -1.3009 H   0  0  0  0  0  0  0  0  0  0  0  0
   -2.4618    1.7416   -2.9343 H   0  0  0  0  0  0  0  0  0  0  0  0
   -1.4580    3.0359   -2.1665 H   0  0  0  0  0  0  0  0  0  0  0  0
   -2.8285    3.4799   -3.2402 H   0  0  0  0  0  0  0  0  0  0  0  0
   -0.9303   -1.5183    1.0115 H   0  0  0  0  0  0  0  0  0  0  0  0
   -1.5742   -0.7071   -0.4725 H   0  0  0  0  0  0  0  0  0  0  0  0
    0.9737    1.2382    1.2692 H   0  0  0  0  0  0  0  0  0  0  0  0
    6.0828   -0.0109    2.1656 H   0  0  0  0  0  0  0  0  0  0  0  0
    4.3269   -0.4220    2.1711 H   0  0  0  0  0  0  0  0  0  0  0  0
    5.3072   -0.5533    0.6475 H   0  0  0  0  0  0  0  0  0  0  0  0
    6.4387    2.1809    2.3647 H   0  0  0  0  0  0  0  0  0  0  0  0
    5.1401    3.3577    2.0552 H   0  0  0  0  0  0  0  0  0  0  0  0
    7.0236    2.1615   -0.1054 H   0  0  0  0  0  0  0  0  0  0  0  0
    5.7746    3.4205   -0.3864 H   0  0  0  0  0  0  0  0  0  0  0  0
    8.1309    3.5722    1.2092 H   0  0  0  0  0  0  0  0  0  0  0  0
    4.1250   -0.0730   -1.3469 H   0  0  0  0  0  0  0  0  0  0  0  0
    2.6746   -1.8503   -2.2262 H   0  0  0  0  0  0  0  0  0  0  0  0
  1  2  1  0
  2  3  2  0
  2  4  1  0
  4  5  1  0
  5  6  1  0
  6  7  1  0
  7  8  1  0
  8  9  1  0
  9 10  1  0
 10 11  1  0
 11 12  1  0
 12 13  1  0
 13 14  1  0
 14 15  1  0
 15 16  1  0
 15 17  1  0
 12 18  1  0
 18 19  1  0
 19 20  2  0
 20 21  1  0
 21 22  1  0
 22 23  2  0
 22 24  1  0
 24 25  1  0
 24 26  1  0
 26 27  1  0
 27 28  1  0
 21 29  2  0
 29 30  1  0
 30 31  2  0
 31  4  1  0
 31 19  1  0
  1 32  1  0
  1 33  1  0
  1 34  1  0
  5 35  1  0
  5 36  1  0
  6 37  1  0
  6 38  1  0
  7 39  1  0
  7 40  1  0
  8 41  1  0
  8 42  1  0
  9 43  1  0
  9 44  1  0
 10 45  1  0
 10 46  1  0
 11 47  1  0
 11 48  1  0
 13 49  1  0
 13 50  1  0
 14 51  1  0
 14 52  1  0
 15 53  1  0
 16 54  1  0
 16 55  1  0
 16 56  1  0
 17 57  1  0
 17 58  1  0
 17 59  1  0
 18 60  1  0
 18 61  1  0
 20 62  1  0
 25 63  1  0
 25 64  1  0
 25 65  1  0
 26 66  1  0
 26 67  1  0
 27 68  1  0
 27 69  1  0
 28 70  1  0
 29 71  1  0
 30 72  1  0
M  END
$$$$
