
     RDKit          3D

 80 82  0  0  0  0  0  0  0  0999 V2000
    8.4771    2.1189    2.1590 C   0  0  0  0  0  0  0  0  0  0  0  0
    9.2710    1.0318    1.4390 C   0  0  0  0  0  0  0  0  0  0  0  0
    8.6446    0.6572    0.2120 O   0  0  0  0  0  0  0  0  0  0  0  0
    7.4811   -0.1249    0.0894 C   0  0  0  0  0  0  0  0  0  0  0  0
    6.8207   -0.6878    1.1982 C   0  0  0  0  0  0  0  0  0  0  0  0
    5.6505   -1.4302    1.0208 C   0  0  0  0  0  0  0  0  0  0  0  0
    5.1221   -1.6325   -0.2614 C   0  0  0  0  0  0  0  0  0  0  0  0
    3.8088   -2.3544   -0.4406 C   0  0  0  0  0  0  0  0  0  0  0  0
    2.7414   -1.4122   -0.8479 N   0  0  0  0  0  0  0  0  0  0  0  0
    2.3782   -0.4620    0.2431 C   0  0  0  0  0  0  0  0  0  0  0  0
    0.9179   -0.5870    0.7108 C   0  0  0  0  0  0  0  0  0  0  0  0
   -0.1076   -0.4393   -0.4645 C   0  0  0  0  0  0  0  0  0  0  0  0
   -0.2136    1.1067   -0.7884 C   0  0  0  0  0  0  0  0  0  0  0  0
   -1.3411    1.6825   -1.6788 C   0  0  0  0  0  0  0  0  0  0  0  0
   -1.6095    0.9784   -3.0196 C   0  0  0  0  0  0  0  0  0  0  0  0
   -2.8644    1.5411   -3.7107 C   0  0  0  0  0  0  0  0  0  0  0  0
   -3.9766    1.5662   -2.8266 O   0  0  0  0  0  0  0  0  0  0  0  0
   -4.7951    0.4170   -2.9778 C   0  0  0  0  0  0  0  0  0  0  0  0
   -5.6209    0.1369   -1.6840 C   0  0  0  0  0  0  0  0  0  0  0  0
   -7.1236    0.0624   -1.9849 C   0  0  0  0  0  0  0  0  0  0  0  0
   -5.3870    1.1635   -0.6540 N   0  0  0  0  0  0  0  0  0  0  0  0
   -4.4324    1.0782    0.4209 C   0  0  0  0  0  0  0  0  0  0  0  0
   -4.1185    2.1442    1.0206 O   0  0  0  0  0  0  0  0  0  0  0  0
   -3.7228   -0.2177    0.7909 C   0  0  0  0  0  0  0  0  0  0  0  0
   -3.1250   -0.1657    2.2269 C   0  0  0  0  0  0  0  0  0  0  0  0
   -4.1846   -0.0470    3.3516 C   0  0  0  0  0  0  0  0  0  0  0  0
   -3.4971    0.3134    4.6770 C   0  0  0  0  0  0  0  0  0  0  0  0
   -4.9948   -1.3453    3.5061 C   0  0  0  0  0  0  0  0  0  0  0  0
   -2.6897   -0.4746   -0.2231 N   0  0  0  0  0  0  0  0  0  0  0  0
   -1.4184   -1.0800    0.0153 C   0  0  0  0  0  0  0  0  0  0  0  0
   -1.3942   -2.2452    0.5049 O   0  0  0  0  0  0  0  0  0  0  0  0
    0.4184   -1.2177   -1.7195 C   0  0  0  0  0  0  0  0  0  0  0  0
    1.5904   -2.1573   -1.4053 C   0  0  0  0  0  0  0  0  0  0  0  0
    5.7909   -1.0953   -1.3714 C   0  0  0  0  0  0  0  0  0  0  0  0
    6.9629   -0.3504   -1.1942 C   0  0  0  0  0  0  0  0  0  0  0  0
    8.4327    3.0401    1.5313 H   0  0  0  0  0  0  0  0  0  0  0  0
    8.9743    2.3734    3.1151 H   0  0  0  0  0  0  0  0  0  0  0  0
    7.4425    1.7846    2.3818 H   0  0  0  0  0  0  0  0  0  0  0  0
    9.4124    0.1448    2.0937 H   0  0  0  0  0  0  0  0  0  0  0  0
   10.2831    1.4292    1.2093 H   0  0  0  0  0  0  0  0  0  0  0  0
    7.1951   -0.5616    2.2039 H   0  0  0  0  0  0  0  0  0  0  0  0
    5.1502   -1.8357    1.8908 H   0  0  0  0  0  0  0  0  0  0  0  0
    3.9582   -3.1335   -1.2241 H   0  0  0  0  0  0  0  0  0  0  0  0
    3.5133   -2.8878    0.4918 H   0  0  0  0  0  0  0  0  0  0  0  0
    2.5625    0.5724   -0.1161 H   0  0  0  0  0  0  0  0  0  0  0  0
    3.0235   -0.5858    1.1406 H   0  0  0  0  0  0  0  0  0  0  0  0
    0.7205    0.1607    1.5101 H   0  0  0  0  0  0  0  0  0  0  0  0
    0.8263   -1.5777    1.2063 H   0  0  0  0  0  0  0  0  0  0  0  0
    0.7453    1.4412   -1.2445 H   0  0  0  0  0  0  0  0  0  0  0  0
   -0.2934    1.6633    0.1760 H   0  0  0  0  0  0  0  0  0  0  0  0
   -2.2643    1.7635   -1.0787 H   0  0  0  0  0  0  0  0  0  0  0  0
   -1.0741    2.7406   -1.9094 H   0  0  0  0  0  0  0  0  0  0  0  0
   -1.7442   -0.1101   -2.8972 H   0  0  0  0  0  0  0  0  0  0  0  0
   -0.7337    1.1284   -3.6878 H   0  0  0  0  0  0  0  0  0  0  0  0
   -3.0680    0.9791   -4.6541 H   0  0  0  0  0  0  0  0  0  0  0  0
   -2.6516    2.5871   -4.0179 H   0  0  0  0  0  0  0  0  0  0  0  0
   -5.4671    0.5746   -3.8533 H   0  0  0  0  0  0  0  0  0  0  0  0
   -4.1945   -0.4954   -3.2018 H   0  0  0  0  0  0  0  0  0  0  0  0
   -5.3408   -0.8653   -1.2921 H   0  0  0  0  0  0  0  0  0  0  0  0
   -7.3276   -0.7691   -2.6990 H   0  0  0  0  0  0  0  0  0  0  0  0
   -7.4788    1.0212   -2.4245 H   0  0  0  0  0  0  0  0  0  0  0  0
   -7.6945   -0.1294   -1.0493 H   0  0  0  0  0  0  0  0  0  0  0  0
   -5.8354    2.0989   -0.8061 H   0  0  0  0  0  0  0  0  0  0  0  0
   -4.4488   -1.0550    0.7498 H   0  0  0  0  0  0  0  0  0  0  0  0
   -2.5335   -1.0836    2.4235 H   0  0  0  0  0  0  0  0  0  0  0  0
   -2.4137    0.6891    2.2891 H   0  0  0  0  0  0  0  0  0  0  0  0
   -4.8975    0.7727    3.1188 H   0  0  0  0  0  0  0  0  0  0  0  0
   -4.2372    0.3253    5.5061 H   0  0  0  0  0  0  0  0  0  0  0  0
   -2.7007   -0.4220    4.9165 H   0  0  0  0  0  0  0  0  0  0  0  0
   -3.0458    1.3248    4.6130 H   0  0  0  0  0  0  0  0  0  0  0  0
   -5.6721   -1.2753    4.3849 H   0  0  0  0  0  0  0  0  0  0  0  0
   -5.6380   -1.5237    2.6156 H   0  0  0  0  0  0  0  0  0  0  0  0
   -4.3201   -2.2175    3.6423 H   0  0  0  0  0  0  0  0  0  0  0  0
   -3.0190   -0.5589   -1.2014 H   0  0  0  0  0  0  0  0  0  0  0  0
   -0.3907   -1.8247   -2.1849 H   0  0  0  0  0  0  0  0  0  0  0  0
    0.7722   -0.5147   -2.5044 H   0  0  0  0  0  0  0  0  0  0  0  0
    1.2563   -2.9606   -0.7086 H   0  0  0  0  0  0  0  0  0  0  0  0
    1.8988   -2.6437   -2.3573 H   0  0  0  0  0  0  0  0  0  0  0  0
    5.3937   -1.2408   -2.3709 H   0  0  0  0  0  0  0  0  0  0  0  0
    7.4651    0.0660   -2.0606 H   0  0  0  0  0  0  0  0  0  0  0  0
  1  2  1  0
  2  3  1  0
  3  4  1  0
  4  5  2  0
  5  6  1  0
  6  7  2  0
  7  8  1  0
  8  9  1  0
  9 10  1  0
 10 11  1  0
 11 12  1  0
 12 13  1  0
 13 14  1  0
 14 15  1  0
 15 16  1  0
 16 17  1  0
 17 18  1  0
 18 19  1  0
 19 20  1  0
 19 21  1  0
 21 22  1  0
 22 23  2  0
 22 24  1  0
 24 25  1  0
 25 26  1  0
 26 27  1  0
 26 28  1  0
 24 29  1  0
 29 30  1  0
 30 31  2  0
 12 32  1  0
 32 33  1  0
  7 34  1  0
 34 35  2  0
 35  4  1  0
 33  9  1  0
 30 12  1  0
  1 36  1  0
  1 37  1  0
  1 38  1  0
  2 39  1  0
  2 40  1  0
  5 41  1  0
  6 42  1  0
  8 43  1  0
  8 44  1  0
 10 45  1  0
 10 46  1  0
 11 47  1  0
 11 48  1  0
 13 49  1  0
 13 50  1  0
 14 51  1  0
 14 52  1  0
 15 53  1  0
 15 54  1  0
 16 55  1  0
 16 56  1  0
 18 57  1  0
 18 58  1  0
 19 59  1  0
 20 60  1  0
 20 61  1  0
 20 62  1  0
 21 63  1  0
 24 64  1  0
 25 65  1  0
 25 66  1  0
 26 67  1  0
 27 68  1  0
 27 69  1  0
 27 70  1  0
 28 71  1  0
 28 72  1  0
 28 73  1  0
 29 74  1  0
 32 75  1  0
 32 76  1  0
 33 77  1  0
 33 78  1  0
 34 79  1  0
 35 80  1  0
M  END
$$$$
