
     RDKit          3D

 89 90  0  0  0  0  0  0  0  0999 V2000
   -6.1350    1.4019   -2.4927 C   0  0  0  0  0  0  0  0  0  0  0  0
   -5.5664   -0.0200   -2.3809 C   0  0  0  0  0  0  0  0  0  0  0  0
   -6.4625   -0.9028   -1.4995 C   0  0  0  0  0  0  0  0  0  0  0  0
   -4.0886   -0.0243   -1.9245 C   0  0  0  0  0  0  0  0  0  0  0  0
   -3.8730    0.3935   -0.4642 C   0  0  0  0  0  0  0  0  0  0  0  0
   -2.4836    0.5369   -0.2192 O   0  0  0  0  0  0  0  0  0  0  0  0
   -2.1241    0.3464    1.1494 C   0  0  0  0  0  0  0  0  0  0  0  0
   -2.0458   -1.1596    1.5020 C   0  0  0  0  0  0  0  0  0  0  0  0
   -1.0420   -1.8507    0.6644 N   0  0  0  0  0  0  0  0  0  0  0  0
   -1.4088   -2.8133   -0.3560 C   0  0  0  0  0  0  0  0  0  0  0  0
   -0.5972   -3.0682   -1.2884 O   0  0  0  0  0  0  0  0  0  0  0  0
   -2.6726   -3.5770   -0.3031 C   0  0  0  0  0  0  0  0  0  0  0  0
   -3.4230   -3.7549   -1.4744 C   0  0  0  0  0  0  0  0  0  0  0  0
   -4.6092   -4.4926   -1.4489 C   0  0  0  0  0  0  0  0  0  0  0  0
   -5.0349   -5.0916   -0.2622 C   0  0  0  0  0  0  0  0  0  0  0  0
   -4.2707   -4.9626    0.8978 C   0  0  0  0  0  0  0  0  0  0  0  0
   -3.0866   -4.2194    0.8821 C   0  0  0  0  0  0  0  0  0  0  0  0
   -2.3343   -4.1529    2.0079 F   0  0  0  0  0  0  0  0  0  0  0  0
    0.3884   -1.6294    0.9477 C   0  0  0  0  0  0  0  0  0  0  0  0
    1.0374   -0.6948   -0.0884 C   0  0  0  0  0  0  0  0  0  0  0  0
    2.3243   -0.1860    0.4123 N   0  0  0  0  0  0  0  0  0  0  0  0
    3.5634   -0.8012   -0.0272 C   0  0  0  0  0  0  0  0  0  0  0  0
    3.5357   -1.6607   -0.9513 O   0  0  0  0  0  0  0  0  0  0  0  0
    4.8942   -0.5234    0.6576 C   0  0  0  0  0  0  0  0  0  0  0  0
    5.1617   -1.5556    1.6643 N   0  0  0  0  0  0  0  0  0  0  0  0
    6.0651   -0.4711   -0.3445 C   0  0  0  0  0  0  0  0  0  0  0  0
    5.9711    0.7470   -1.2787 C   0  0  0  0  0  0  0  0  0  0  0  0
    7.1332    0.8056   -2.2858 C   0  0  0  0  0  0  0  0  0  0  0  0
    8.4538    1.2533   -1.6444 C   0  0  0  0  0  0  0  0  0  0  0  0
    9.4850    1.3815   -2.6691 N   0  0  0  0  0  0  0  0  0  0  0  0
    2.3061    0.8685    1.4444 C   0  0  0  0  0  0  0  0  0  0  0  0
    2.7481    2.2279    0.8649 C   0  0  0  0  0  0  0  0  0  0  0  0
    1.5535    3.1240    0.4886 C   0  0  0  0  0  0  0  0  0  0  0  0
    0.9145    3.8123    1.7100 C   0  0  0  0  0  0  0  0  0  0  0  0
   -0.4918    3.8809    1.5387 O   0  0  0  0  0  0  0  0  0  0  0  0
   -1.1734    3.1014    2.5107 C   0  0  0  0  0  0  0  0  0  0  0  0
   -2.6078    2.7402    2.0281 C   0  0  0  0  0  0  0  0  0  0  0  0
   -2.8204    3.1497    0.7000 O   0  0  0  0  0  0  0  0  0  0  0  0
   -2.9303    1.2232    2.1704 C   0  0  0  0  0  0  0  0  0  0  0  0
   -2.6503    0.8109    3.4863 O   0  0  0  0  0  0  0  0  0  0  0  0
   -5.4783    2.0280   -3.1327 H   0  0  0  0  0  0  0  0  0  0  0  0
   -6.2328    1.8743   -1.4969 H   0  0  0  0  0  0  0  0  0  0  0  0
   -7.1409    1.3671   -2.9679 H   0  0  0  0  0  0  0  0  0  0  0  0
   -5.5869   -0.4536   -3.4046 H   0  0  0  0  0  0  0  0  0  0  0  0
   -6.0277   -1.9224   -1.4106 H   0  0  0  0  0  0  0  0  0  0  0  0
   -7.4709   -0.9917   -1.9548 H   0  0  0  0  0  0  0  0  0  0  0  0
   -6.5838   -0.4704   -0.4836 H   0  0  0  0  0  0  0  0  0  0  0  0
   -3.6818   -1.0480   -2.0579 H   0  0  0  0  0  0  0  0  0  0  0  0
   -3.4981    0.6410   -2.5944 H   0  0  0  0  0  0  0  0  0  0  0  0
   -4.3467   -0.3710    0.1890 H   0  0  0  0  0  0  0  0  0  0  0  0
   -4.3672    1.3703   -0.2889 H   0  0  0  0  0  0  0  0  0  0  0  0
   -1.0826    0.7036    1.2355 H   0  0  0  0  0  0  0  0  0  0  0  0
   -1.7545   -1.2895    2.5670 H   0  0  0  0  0  0  0  0  0  0  0  0
   -3.0468   -1.6223    1.4114 H   0  0  0  0  0  0  0  0  0  0  0  0
   -3.0925   -3.3177   -2.4063 H   0  0  0  0  0  0  0  0  0  0  0  0
   -5.1971   -4.6034   -2.3486 H   0  0  0  0  0  0  0  0  0  0  0  0
   -5.9521   -5.6651   -0.2454 H   0  0  0  0  0  0  0  0  0  0  0  0
   -4.5868   -5.4492    1.8095 H   0  0  0  0  0  0  0  0  0  0  0  0
    0.5027   -1.2042    1.9660 H   0  0  0  0  0  0  0  0  0  0  0  0
    0.9268   -2.6031    0.9599 H   0  0  0  0  0  0  0  0  0  0  0  0
    0.3793    0.1633   -0.3223 H   0  0  0  0  0  0  0  0  0  0  0  0
    1.1658   -1.2355   -1.0499 H   0  0  0  0  0  0  0  0  0  0  0  0
    4.8827    0.4611    1.1763 H   0  0  0  0  0  0  0  0  0  0  0  0
    5.0873   -2.4991    1.2169 H   0  0  0  0  0  0  0  0  0  0  0  0
    4.4229   -1.4996    2.4026 H   0  0  0  0  0  0  0  0  0  0  0  0
    6.1083   -1.4093   -0.9405 H   0  0  0  0  0  0  0  0  0  0  0  0
    7.0083   -0.4075    0.2349 H   0  0  0  0  0  0  0  0  0  0  0  0
    5.0222    0.6850   -1.8547 H   0  0  0  0  0  0  0  0  0  0  0  0
    5.9463    1.6811   -0.6788 H   0  0  0  0  0  0  0  0  0  0  0  0
    7.2667   -0.1882   -2.7691 H   0  0  0  0  0  0  0  0  0  0  0  0
    6.8647    1.5353   -3.0825 H   0  0  0  0  0  0  0  0  0  0  0  0
    8.3099    2.2385   -1.1491 H   0  0  0  0  0  0  0  0  0  0  0  0
    8.7887    0.5205   -0.8815 H   0  0  0  0  0  0  0  0  0  0  0  0
   10.3474    1.7586   -2.2130 H   0  0  0  0  0  0  0  0  0  0  0  0
    9.7175    0.4239   -3.0165 H   0  0  0  0  0  0  0  0  0  0  0  0
    1.2905    0.9626    1.8853 H   0  0  0  0  0  0  0  0  0  0  0  0
    2.9571    0.5807    2.2972 H   0  0  0  0  0  0  0  0  0  0  0  0
    3.3741    2.0672   -0.0380 H   0  0  0  0  0  0  0  0  0  0  0  0
    3.3871    2.7551    1.6048 H   0  0  0  0  0  0  0  0  0  0  0  0
    0.7984    2.5204   -0.0593 H   0  0  0  0  0  0  0  0  0  0  0  0
    1.9069    3.9098   -0.2191 H   0  0  0  0  0  0  0  0  0  0  0  0
    1.2398    3.3367    2.6666 H   0  0  0  0  0  0  0  0  0  0  0  0
    1.2987    4.8524    1.7645 H   0  0  0  0  0  0  0  0  0  0  0  0
   -1.2498    3.6938    3.4514 H   0  0  0  0  0  0  0  0  0  0  0  0
   -0.6168    2.1775    2.7701 H   0  0  0  0  0  0  0  0  0  0  0  0
   -3.3296    3.2809    2.6835 H   0  0  0  0  0  0  0  0  0  0  0  0
   -2.9521    4.1315    0.7162 H   0  0  0  0  0  0  0  0  0  0  0  0
   -4.0216    1.0798    2.0034 H   0  0  0  0  0  0  0  0  0  0  0  0
   -3.3058    1.2583    4.0821 H   0  0  0  0  0  0  0  0  0  0  0  0
  1  2  1  0
  2  3  1  0
  2  4  1  0
  4  5  1  0
  5  6  1  0
  6  7  1  0
  7  8  1  0
  8  9  1  0
  9 10  1  0
 10 11  2  0
 10 12  1  0
 12 13  2  0
 13 14  1  0
 14 15  2  0
 15 16  1  0
 16 17  2  0
 17 18  1  0
  9 19  1  0
 19 20  1  0
 20 21  1  0
 21 22  1  0
 22 23  2  0
 22 24  1  0
 24 25  1  0
 24 26  1  0
 26 27  1  0
 27 28  1  0
 28 29  1  0
 29 30  1  0
 21 31  1  0
 31 32  1  0
 32 33  1  0
 33 34  1  0
 34 35  1  0
 35 36  1  0
 36 37  1  0
 37 38  1  0
 37 39  1  0
 39 40  1  0
 39  7  1  0
 17 12  1  0
  1 41  1  0
  1 42  1  0
  1 43  1  0
  2 44  1  0
  3 45  1  0
  3 46  1  0
  3 47  1  0
  4 48  1  0
  4 49  1  0
  5 50  1  0
  5 51  1  0
  7 52  1  0
  8 53  1  0
  8 54  1  0
 13 55  1  0
 14 56  1  0
 15 57  1  0
 16 58  1  0
 19 59  1  0
 19 60  1  0
 20 61  1  0
 20 62  1  0
 24 63  1  0
 25 64  1  0
 25 65  1  0
 26 66  1  0
 26 67  1  0
 27 68  1  0
 27 69  1  0
 28 70  1  0
 28 71  1  0
 29 72  1  0
 29 73  1  0
 30 74  1  0
 30 75  1  0
 31 76  1  0
 31 77  1  0
 32 78  1  0
 32 79  1  0
 33 80  1  0
 33 81  1  0
 34 82  1  0
 34 83  1  0
 36 84  1  0
 36 85  1  0
 37 86  1  0
 38 87  1  0
 39 88  1  0
 40 89  1  0
M  END
$$$$
