
     RDKit          3D

 75 77  0  0  0  0  0  0  0  0999 V2000
    6.3670    0.3645    1.4675 C   0  0  0  0  0  0  0  0  0  0  0  0
    5.1711   -0.0599    2.3421 C   0  0  0  0  0  0  0  0  0  0  0  0
    4.4400   -1.2483    1.8548 N   0  0  0  0  0  0  0  0  0  0  0  0
    5.1991   -2.4999    1.7426 C   0  0  0  0  0  0  0  0  0  0  0  0
    4.7549   -3.1736    0.4534 C   0  0  0  0  0  0  0  0  0  0  0  0
    3.4153   -2.5460    0.1288 C   0  0  0  0  0  0  0  0  0  0  0  0
    3.4906   -1.1374    0.7267 C   0  0  0  0  0  0  0  0  0  0  0  0
    3.8776   -0.0926   -0.3498 C   0  0  0  0  0  0  0  0  0  0  0  0
    2.8591   -0.0249   -1.3983 N   0  0  0  0  0  0  0  0  0  0  0  0
    1.5814    0.5962   -1.1973 C   0  0  0  0  0  0  0  0  0  0  0  0
    1.3118    1.1524   -0.0943 O   0  0  0  0  0  0  0  0  0  0  0  0
    0.5473    0.5683   -2.2990 C   0  0  0  0  0  0  0  0  0  0  0  0
   -0.1070   -0.8253   -2.4369 C   0  0  0  0  0  0  0  0  0  0  0  0
   -0.5987   -1.3956   -1.1350 C   0  0  0  0  0  0  0  0  0  0  0  0
    0.2297   -1.9395   -0.3554 O   0  0  0  0  0  0  0  0  0  0  0  0
   -1.9905   -1.3437   -0.7848 N   0  0  0  0  0  0  0  0  0  0  0  0
   -2.4814   -1.8560    0.5002 C   0  0  0  0  0  0  0  0  0  0  0  0
   -2.5665   -3.4118    0.4931 C   0  0  0  0  0  0  0  0  0  0  0  0
   -3.3826   -3.9942   -0.6707 C   0  0  0  0  0  0  0  0  0  0  0  0
   -3.0657   -3.9582    1.8397 C   0  0  0  0  0  0  0  0  0  0  0  0
   -3.7633   -1.1424    0.8930 C   0  0  0  0  0  0  0  0  0  0  0  0
   -4.8787   -1.6176    0.5449 O   0  0  0  0  0  0  0  0  0  0  0  0
   -3.7248    0.0893    1.6464 N   0  0  0  0  0  0  0  0  0  0  0  0
   -4.8832    0.4509    2.4693 C   0  0  0  0  0  0  0  0  0  0  0  0
   -2.6604    1.0789    1.4353 C   0  0  0  0  0  0  0  0  0  0  0  0
   -3.1287    2.1769    0.4863 C   0  0  0  0  0  0  0  0  0  0  0  0
   -1.9878    2.8582   -0.0345 O   0  0  0  0  0  0  0  0  0  0  0  0
   -2.0589    3.9539   -0.9009 C   0  0  0  0  0  0  0  0  0  0  0  0
   -3.0083    4.9716   -0.7021 C   0  0  0  0  0  0  0  0  0  0  0  0
   -2.9877    6.1236   -1.4938 C   0  0  0  0  0  0  0  0  0  0  0  0
   -2.0335    6.2623   -2.4997 C   0  0  0  0  0  0  0  0  0  0  0  0
   -1.1039    5.2456   -2.7275 C   0  0  0  0  0  0  0  0  0  0  0  0
   -1.1119    4.0774   -1.9419 C   0  0  0  0  0  0  0  0  0  0  0  0
   -0.1130    3.0163   -2.2115 C   0  0  0  0  0  0  0  0  0  0  0  0
    1.0608    3.3470   -2.5309 O   0  0  0  0  0  0  0  0  0  0  0  0
   -0.4575    1.6224   -2.1029 N   0  0  0  0  0  0  0  0  0  0  0  0
    6.6463   -0.3913    0.7085 H   0  0  0  0  0  0  0  0  0  0  0  0
    7.2509    0.5499    2.1105 H   0  0  0  0  0  0  0  0  0  0  0  0
    6.1357    1.3092    0.9352 H   0  0  0  0  0  0  0  0  0  0  0  0
    5.5433   -0.2815    3.3646 H   0  0  0  0  0  0  0  0  0  0  0  0
    4.4642    0.7918    2.4531 H   0  0  0  0  0  0  0  0  0  0  0  0
    6.2992   -2.3472    1.7554 H   0  0  0  0  0  0  0  0  0  0  0  0
    4.9404   -3.1512    2.6073 H   0  0  0  0  0  0  0  0  0  0  0  0
    5.4792   -2.9459   -0.3591 H   0  0  0  0  0  0  0  0  0  0  0  0
    4.6664   -4.2760    0.5689 H   0  0  0  0  0  0  0  0  0  0  0  0
    3.2202   -2.5586   -0.9683 H   0  0  0  0  0  0  0  0  0  0  0  0
    2.6141   -3.1217    0.6426 H   0  0  0  0  0  0  0  0  0  0  0  0
    2.4967   -0.8634    1.1398 H   0  0  0  0  0  0  0  0  0  0  0  0
    3.9764    0.9142    0.1024 H   0  0  0  0  0  0  0  0  0  0  0  0
    4.8490   -0.3709   -0.8115 H   0  0  0  0  0  0  0  0  0  0  0  0
    3.0933   -0.4102   -2.3418 H   0  0  0  0  0  0  0  0  0  0  0  0
    1.0707    0.7712   -3.2601 H   0  0  0  0  0  0  0  0  0  0  0  0
   -0.9394   -0.7784   -3.1736 H   0  0  0  0  0  0  0  0  0  0  0  0
    0.6421   -1.5309   -2.8623 H   0  0  0  0  0  0  0  0  0  0  0  0
   -2.6576   -0.8876   -1.4511 H   0  0  0  0  0  0  0  0  0  0  0  0
   -1.7355   -1.6057    1.2861 H   0  0  0  0  0  0  0  0  0  0  0  0
   -1.5283   -3.7971    0.3705 H   0  0  0  0  0  0  0  0  0  0  0  0
   -4.4570   -3.7339   -0.5936 H   0  0  0  0  0  0  0  0  0  0  0  0
   -2.9857   -3.6422   -1.6435 H   0  0  0  0  0  0  0  0  0  0  0  0
   -3.3114   -5.1027   -0.6575 H   0  0  0  0  0  0  0  0  0  0  0  0
   -2.9367   -5.0599    1.8726 H   0  0  0  0  0  0  0  0  0  0  0  0
   -4.1421   -3.7310    1.9938 H   0  0  0  0  0  0  0  0  0  0  0  0
   -2.4829   -3.5156    2.6724 H   0  0  0  0  0  0  0  0  0  0  0  0
   -4.7469    1.4489    2.9411 H   0  0  0  0  0  0  0  0  0  0  0  0
   -5.8027    0.4775    1.8499 H   0  0  0  0  0  0  0  0  0  0  0  0
   -5.0005   -0.2983    3.2823 H   0  0  0  0  0  0  0  0  0  0  0  0
   -1.7472    0.6111    1.0169 H   0  0  0  0  0  0  0  0  0  0  0  0
   -2.3629    1.5279    2.4093 H   0  0  0  0  0  0  0  0  0  0  0  0
   -3.6934    1.7293   -0.3619 H   0  0  0  0  0  0  0  0  0  0  0  0
   -3.7890    2.8717    1.0443 H   0  0  0  0  0  0  0  0  0  0  0  0
   -3.7311    4.9086    0.0979 H   0  0  0  0  0  0  0  0  0  0  0  0
   -3.7038    6.9167   -1.3123 H   0  0  0  0  0  0  0  0  0  0  0  0
   -2.0084    7.1603   -3.1065 H   0  0  0  0  0  0  0  0  0  0  0  0
   -0.3797    5.3668   -3.5263 H   0  0  0  0  0  0  0  0  0  0  0  0
   -1.4570    1.3571   -1.9527 H   0  0  0  0  0  0  0  0  0  0  0  0
  1  2  1  0
  2  3  1  0
  3  4  1  0
  4  5  1  0
  5  6  1  0
  6  7  1  0
  7  8  1  0
  8  9  1  0
  9 10  1  0
 10 11  2  0
 10 12  1  0
 12 13  1  0
 13 14  1  0
 14 15  2  0
 14 16  1  0
 16 17  1  0
 17 18  1  0
 18 19  1  0
 18 20  1  0
 17 21  1  0
 21 22  2  0
 21 23  1  0
 23 24  1  0
 23 25  1  0
 25 26  1  0
 26 27  1  0
 27 28  1  0
 28 29  2  0
 29 30  1  0
 30 31  2  0
 31 32  1  0
 32 33  2  0
 33 34  1  0
 34 35  2  0
 34 36  1  0
  7  3  1  0
 36 12  1  0
 33 28  1  0
  1 37  1  0
  1 38  1  0
  1 39  1  0
  2 40  1  0
  2 41  1  0
  4 42  1  0
  4 43  1  0
  5 44  1  0
  5 45  1  0
  6 46  1  0
  6 47  1  0
  7 48  1  0
  8 49  1  0
  8 50  1  0
  9 51  1  0
 12 52  1  0
 13 53  1  0
 13 54  1  0
 16 55  1  0
 17 56  1  0
 18 57  1  0
 19 58  1  0
 19 59  1  0
 19 60  1  0
 20 61  1  0
 20 62  1  0
 20 63  1  0
 24 64  1  0
 24 65  1  0
 24 66  1  0
 25 67  1  0
 25 68  1  0
 26 69  1  0
 26 70  1  0
 29 71  1  0
 30 72  1  0
 31 73  1  0
 32 74  1  0
 36 75  1  0
M  END
$$$$
