
     RDKit          3D

 64 66  0  0  0  0  0  0  0  0999 V2000
    6.8932   -0.4339    1.0863 C   0  0  0  0  0  0  0  0  0  0  0  0
    6.0113    0.6572    0.4340 C   0  0  0  0  0  0  0  0  0  0  0  0
    6.5149    0.8620   -1.0088 C   0  0  0  0  0  0  0  0  0  0  0  0
    4.5592    0.2983    0.4342 N   0  0  0  0  0  0  0  0  0  0  0  0
    3.7118    1.4639    0.0837 C   0  0  0  0  0  0  0  0  0  0  0  0
    2.2710    1.0158   -0.2343 C   0  0  0  0  0  0  0  0  0  0  0  0
    1.8936   -0.2918    0.4912 C   0  0  0  0  0  0  0  0  0  0  0  0
    0.3960   -0.4323    0.6242 C   0  0  0  0  0  0  0  0  0  0  0  0
   -0.2162    0.2876    1.4589 O   0  0  0  0  0  0  0  0  0  0  0  0
   -0.3315   -1.4202   -0.1325 N   0  0  0  0  0  0  0  0  0  0  0  0
   -0.1262   -1.5364   -1.5853 C   0  0  0  0  0  0  0  0  0  0  0  0
   -1.2437   -0.8565   -2.3908 C   0  0  0  0  0  0  0  0  0  0  0  0
   -1.2861    0.6795   -2.2405 C   0  0  0  0  0  0  0  0  0  0  0  0
   -2.3546    1.1858   -1.2556 C   0  0  0  0  0  0  0  0  0  0  0  0
   -3.7075    0.7835   -1.6624 N   0  0  0  0  0  0  0  0  0  0  0  0
   -4.3025    1.3288   -2.8838 C   0  0  0  0  0  0  0  0  0  0  0  0
   -4.4686   -0.1716   -0.9028 C   0  0  0  0  0  0  0  0  0  0  0  0
   -4.9961   -1.1549   -1.4925 O   0  0  0  0  0  0  0  0  0  0  0  0
   -4.7915    0.0638    0.5145 C   0  0  0  0  0  0  0  0  0  0  0  0
   -6.0102    0.6956    0.8078 C   0  0  0  0  0  0  0  0  0  0  0  0
   -6.3706    0.9684    2.1315 C   0  0  0  0  0  0  0  0  0  0  0  0
   -7.8980    1.7600    2.4817 Cl  0  0  0  0  0  0  0  0  0  0  0  0
   -5.5120    0.6176    3.1736 C   0  0  0  0  0  0  0  0  0  0  0  0
   -4.2944   -0.0084    2.8947 C   0  0  0  0  0  0  0  0  0  0  0  0
   -3.9298   -0.3065    1.5752 C   0  0  0  0  0  0  0  0  0  0  0  0
   -2.6902   -0.9159    1.3659 O   0  0  0  0  0  0  0  0  0  0  0  0
   -2.5211   -2.1860    0.7520 C   0  0  0  0  0  0  0  0  0  0  0  0
   -1.0325   -2.4875    0.6012 C   0  0  0  0  0  0  0  0  0  0  0  0
    2.5708   -0.3444    1.8668 C   0  0  0  0  0  0  0  0  0  0  0  0
    4.1075   -0.2640    1.7353 C   0  0  0  0  0  0  0  0  0  0  0  0
    6.6870   -1.4259    0.6289 H   0  0  0  0  0  0  0  0  0  0  0  0
    6.7207   -0.4854    2.1815 H   0  0  0  0  0  0  0  0  0  0  0  0
    7.9720   -0.2007    0.9556 H   0  0  0  0  0  0  0  0  0  0  0  0
    6.1722    1.6024    1.0016 H   0  0  0  0  0  0  0  0  0  0  0  0
    7.6242    0.9318   -1.0381 H   0  0  0  0  0  0  0  0  0  0  0  0
    6.1937    0.0142   -1.6533 H   0  0  0  0  0  0  0  0  0  0  0  0
    6.1437    1.8118   -1.4413 H   0  0  0  0  0  0  0  0  0  0  0  0
    4.0889    2.0015   -0.8087 H   0  0  0  0  0  0  0  0  0  0  0  0
    3.7012    2.1960    0.9255 H   0  0  0  0  0  0  0  0  0  0  0  0
    2.1695    0.8610   -1.3300 H   0  0  0  0  0  0  0  0  0  0  0  0
    1.5775    1.8382    0.0502 H   0  0  0  0  0  0  0  0  0  0  0  0
    2.2854   -1.1513   -0.0960 H   0  0  0  0  0  0  0  0  0  0  0  0
   -0.0900   -2.6078   -1.8765 H   0  0  0  0  0  0  0  0  0  0  0  0
    0.8517   -1.1127   -1.8916 H   0  0  0  0  0  0  0  0  0  0  0  0
   -2.2214   -1.3203   -2.1625 H   0  0  0  0  0  0  0  0  0  0  0  0
   -1.0474   -1.0828   -3.4627 H   0  0  0  0  0  0  0  0  0  0  0  0
   -1.4881    1.1270   -3.2365 H   0  0  0  0  0  0  0  0  0  0  0  0
   -0.2930    1.0657   -1.9283 H   0  0  0  0  0  0  0  0  0  0  0  0
   -2.3055    2.2950   -1.2125 H   0  0  0  0  0  0  0  0  0  0  0  0
   -2.1212    0.8247   -0.2412 H   0  0  0  0  0  0  0  0  0  0  0  0
   -5.2968    1.7675   -2.6526 H   0  0  0  0  0  0  0  0  0  0  0  0
   -3.6684    2.1295   -3.3168 H   0  0  0  0  0  0  0  0  0  0  0  0
   -4.4211    0.5216   -3.6377 H   0  0  0  0  0  0  0  0  0  0  0  0
   -6.6812    0.9824    0.0074 H   0  0  0  0  0  0  0  0  0  0  0  0
   -5.7863    0.8305    4.2004 H   0  0  0  0  0  0  0  0  0  0  0  0
   -3.6326   -0.2723    3.7094 H   0  0  0  0  0  0  0  0  0  0  0  0
   -2.9843   -2.9663    1.3924 H   0  0  0  0  0  0  0  0  0  0  0  0
   -3.0095   -2.2267   -0.2347 H   0  0  0  0  0  0  0  0  0  0  0  0
   -0.9107   -3.4650    0.0858 H   0  0  0  0  0  0  0  0  0  0  0  0
   -0.5871   -2.6019    1.6149 H   0  0  0  0  0  0  0  0  0  0  0  0
    2.2176    0.5101    2.4860 H   0  0  0  0  0  0  0  0  0  0  0  0
    2.2897   -1.2839    2.3937 H   0  0  0  0  0  0  0  0  0  0  0  0
    4.5077    0.3360    2.5847 H   0  0  0  0  0  0  0  0  0  0  0  0
    4.4959   -1.3018    1.8304 H   0  0  0  0  0  0  0  0  0  0  0  0
  1  2  1  0
  2  3  1  0
  2  4  1  0
  4  5  1  0
  5  6  1  0
  6  7  1  0
  7  8  1  0
  8  9  2  0
  8 10  1  0
 10 11  1  0
 11 12  1  0
 12 13  1  0
 13 14  1  0
 14 15  1  0
 15 16  1  0
 15 17  1  0
 17 18  2  0
 17 19  1  0
 19 20  2  0
 20 21  1  0
 21 22  1  0
 21 23  2  0
 23 24  1  0
 24 25  2  0
 25 26  1  0
 26 27  1  0
 27 28  1  0
  7 29  1  0
 29 30  1  0
 30  4  1  0
 28 10  1  0
 25 19  1  0
  1 31  1  0
  1 32  1  0
  1 33  1  0
  2 34  1  0
  3 35  1  0
  3 36  1  0
  3 37  1  0
  5 38  1  0
  5 39  1  0
  6 40  1  0
  6 41  1  0
  7 42  1  0
 11 43  1  0
 11 44  1  0
 12 45  1  0
 12 46  1  0
 13 47  1  0
 13 48  1  0
 14 49  1  0
 14 50  1  0
 16 51  1  0
 16 52  1  0
 16 53  1  0
 20 54  1  0
 23 55  1  0
 24 56  1  0
 27 57  1  0
 27 58  1  0
 28 59  1  0
 28 60  1  0
 29 61  1  0
 29 62  1  0
 30 63  1  0
 30 64  1  0
M  END
$$$$
