
     RDKit          3D

 84 87  0  0  0  0  0  0  0  0999 V2000
   -3.8747   -1.6545   -2.8130 C   0  0  0  0  0  0  0  0  0  0  0  0
   -3.9056   -2.3076   -1.4699 C   0  0  0  0  0  0  0  0  0  0  0  0
   -4.3786   -3.4726   -1.3678 O   0  0  0  0  0  0  0  0  0  0  0  0
   -3.3719   -1.6311   -0.3082 N   0  0  0  0  0  0  0  0  0  0  0  0
   -3.8880   -1.9859    1.0332 C   0  0  0  0  0  0  0  0  0  0  0  0
   -5.4272   -2.1413    1.1213 C   0  0  0  0  0  0  0  0  0  0  0  0
   -6.2435   -1.0197    0.4561 C   0  0  0  0  0  0  0  0  0  0  0  0
   -6.2251    0.2845    1.2645 C   0  0  0  0  0  0  0  0  0  0  0  0
   -6.7408    1.4893    0.4561 C   0  0  0  0  0  0  0  0  0  0  0  0
   -5.7839    1.9653   -0.6554 C   0  0  0  0  0  0  0  0  0  0  0  0
   -4.4436    2.5090   -0.1248 C   0  0  0  0  0  0  0  0  0  0  0  0
   -3.3061    1.7198   -0.6781 N   0  0  0  0  0  0  0  0  0  0  0  0
   -2.6001    2.4959   -1.7474 C   0  0  0  0  0  0  0  0  0  0  0  0
   -1.5971    3.5381   -1.2146 C   0  0  0  0  0  0  0  0  0  0  0  0
   -1.9471    1.5877   -2.7949 C   0  0  0  0  0  0  0  0  0  0  0  0
   -2.4525    1.1960    0.4216 C   0  0  0  0  0  0  0  0  0  0  0  0
   -1.5291    0.0730   -0.0006 C   0  0  0  0  0  0  0  0  0  0  0  0
   -0.1427    0.3247    0.0371 C   0  0  0  0  0  0  0  0  0  0  0  0
    0.7809   -0.6451   -0.3572 C   0  0  0  0  0  0  0  0  0  0  0  0
    2.2216   -0.3358   -0.3332 C   0  0  0  0  0  0  0  0  0  0  0  0
    2.6393    0.4891   -1.1854 O   0  0  0  0  0  0  0  0  0  0  0  0
    3.1245   -0.9230    0.6455 N   0  0  0  0  0  0  0  0  0  0  0  0
    2.6492   -1.9508    1.5996 C   0  0  0  0  0  0  0  0  0  0  0  0
    3.5054   -3.2373    1.5044 C   0  0  0  0  0  0  0  0  0  0  0  0
    4.2496   -3.3298    0.1591 C   0  0  0  0  0  0  0  0  0  0  0  0
    5.1594   -2.1040   -0.0863 C   0  0  0  0  0  0  0  0  0  0  0  0
    4.6020   -0.8264    0.5805 C   0  0  0  0  0  0  0  0  0  0  0  0
    5.1610    0.4675   -0.0573 C   0  0  0  0  0  0  0  0  0  0  0  0
    6.6085    0.6059    0.2106 N   0  0  0  0  0  0  0  0  0  0  0  0
    6.9093    0.9998    1.5984 C   0  0  0  0  0  0  0  0  0  0  0  0
    8.0713    1.9889    1.5635 C   0  0  0  0  0  0  0  0  0  0  0  0
    8.4351    2.1341    0.0991 C   0  0  0  0  0  0  0  0  0  0  0  0
    7.2136    1.6345   -0.6408 C   0  0  0  0  0  0  0  0  0  0  0  0
    0.3293   -1.8862   -0.8076 C   0  0  0  0  0  0  0  0  0  0  0  0
   -1.0329   -2.1793   -0.7972 C   0  0  0  0  0  0  0  0  0  0  0  0
   -1.9838   -1.2234   -0.3853 C   0  0  0  0  0  0  0  0  0  0  0  0
   -2.8228   -1.4849   -3.1243 H   0  0  0  0  0  0  0  0  0  0  0  0
   -4.4193   -0.6889   -2.7644 H   0  0  0  0  0  0  0  0  0  0  0  0
   -4.3665   -2.3021   -3.5729 H   0  0  0  0  0  0  0  0  0  0  0  0
   -3.4284   -2.9494    1.3444 H   0  0  0  0  0  0  0  0  0  0  0  0
   -3.5641   -1.2431    1.7863 H   0  0  0  0  0  0  0  0  0  0  0  0
   -5.7141   -2.2123    2.1926 H   0  0  0  0  0  0  0  0  0  0  0  0
   -5.7243   -3.1102    0.6677 H   0  0  0  0  0  0  0  0  0  0  0  0
   -7.2986   -1.3576    0.3770 H   0  0  0  0  0  0  0  0  0  0  0  0
   -5.8932   -0.8615   -0.5756 H   0  0  0  0  0  0  0  0  0  0  0  0
   -6.8802    0.1542    2.1531 H   0  0  0  0  0  0  0  0  0  0  0  0
   -5.2167    0.4919    1.6588 H   0  0  0  0  0  0  0  0  0  0  0  0
   -6.9250    2.3359    1.1533 H   0  0  0  0  0  0  0  0  0  0  0  0
   -7.7206    1.2270    0.0007 H   0  0  0  0  0  0  0  0  0  0  0  0
   -5.6171    1.1602   -1.3988 H   0  0  0  0  0  0  0  0  0  0  0  0
   -6.2973    2.7792   -1.2132 H   0  0  0  0  0  0  0  0  0  0  0  0
   -4.4433    2.5369    0.9862 H   0  0  0  0  0  0  0  0  0  0  0  0
   -4.3738    3.5883   -0.3922 H   0  0  0  0  0  0  0  0  0  0  0  0
   -3.3602    3.0647   -2.3323 H   0  0  0  0  0  0  0  0  0  0  0  0
   -2.0436    4.1352   -0.3906 H   0  0  0  0  0  0  0  0  0  0  0  0
   -1.3165    4.2373   -2.0314 H   0  0  0  0  0  0  0  0  0  0  0  0
   -0.6679    3.0528   -0.8526 H   0  0  0  0  0  0  0  0  0  0  0  0
   -1.5835    2.2011   -3.6465 H   0  0  0  0  0  0  0  0  0  0  0  0
   -2.6949    0.8753   -3.1923 H   0  0  0  0  0  0  0  0  0  0  0  0
   -1.0791    1.0319   -2.3910 H   0  0  0  0  0  0  0  0  0  0  0  0
   -3.0754    0.7967    1.2377 H   0  0  0  0  0  0  0  0  0  0  0  0
   -1.8927    2.0238    0.9078 H   0  0  0  0  0  0  0  0  0  0  0  0
    0.2292    1.2833    0.3781 H   0  0  0  0  0  0  0  0  0  0  0  0
    1.5872   -2.2170    1.4480 H   0  0  0  0  0  0  0  0  0  0  0  0
    2.7176   -1.5417    2.6309 H   0  0  0  0  0  0  0  0  0  0  0  0
    4.2550   -3.2381    2.3248 H   0  0  0  0  0  0  0  0  0  0  0  0
    2.8624   -4.1332    1.6346 H   0  0  0  0  0  0  0  0  0  0  0  0
    4.8579   -4.2590    0.1271 H   0  0  0  0  0  0  0  0  0  0  0  0
    3.4986   -3.3947   -0.6603 H   0  0  0  0  0  0  0  0  0  0  0  0
    6.1735   -2.3105    0.3205 H   0  0  0  0  0  0  0  0  0  0  0  0
    5.2618   -1.9593   -1.1840 H   0  0  0  0  0  0  0  0  0  0  0  0
    4.9655   -0.8290    1.6329 H   0  0  0  0  0  0  0  0  0  0  0  0
    4.6035    1.3528    0.3252 H   0  0  0  0  0  0  0  0  0  0  0  0
    5.0144    0.4152   -1.1592 H   0  0  0  0  0  0  0  0  0  0  0  0
    6.0368    1.4707    2.1049 H   0  0  0  0  0  0  0  0  0  0  0  0
    7.2026    0.0960    2.1762 H   0  0  0  0  0  0  0  0  0  0  0  0
    8.9375    1.6141    2.1520 H   0  0  0  0  0  0  0  0  0  0  0  0
    7.7494    2.9716    1.9750 H   0  0  0  0  0  0  0  0  0  0  0  0
    9.3069    1.4836   -0.1366 H   0  0  0  0  0  0  0  0  0  0  0  0
    8.6721    3.1870   -0.1672 H   0  0  0  0  0  0  0  0  0  0  0  0
    6.5156    2.4892   -0.8053 H   0  0  0  0  0  0  0  0  0  0  0  0
    7.4996    1.1995   -1.6236 H   0  0  0  0  0  0  0  0  0  0  0  0
    1.0361   -2.6397   -1.1337 H   0  0  0  0  0  0  0  0  0  0  0  0
   -1.3497   -3.1719   -1.0916 H   0  0  0  0  0  0  0  0  0  0  0  0
  1  2  1  0
  2  3  2  0
  2  4  1  0
  4  5  1  0
  5  6  1  0
  6  7  1  0
  7  8  1  0
  8  9  1  0
  9 10  1  0
 10 11  1  0
 11 12  1  0
 12 13  1  0
 13 14  1  0
 13 15  1  0
 12 16  1  0
 16 17  1  0
 17 18  2  0
 18 19  1  0
 19 20  1  0
 20 21  2  0
 20 22  1  0
 22 23  1  0
 23 24  1  0
 24 25  1  0
 25 26  1  0
 26 27  1  0
 27 28  1  0
 28 29  1  0
 29 30  1  0
 30 31  1  0
 31 32  1  0
 32 33  1  0
 19 34  2  0
 34 35  1  0
 35 36  2  0
 36  4  1  0
 36 17  1  0
 27 22  1  0
 33 29  1  0
  1 37  1  0
  1 38  1  0
  1 39  1  0
  5 40  1  0
  5 41  1  0
  6 42  1  0
  6 43  1  0
  7 44  1  0
  7 45  1  0
  8 46  1  0
  8 47  1  0
  9 48  1  0
  9 49  1  0
 10 50  1  0
 10 51  1  0
 11 52  1  0
 11 53  1  0
 13 54  1  0
 14 55  1  0
 14 56  1  0
 14 57  1  0
 15 58  1  0
 15 59  1  0
 15 60  1  0
 16 61  1  0
 16 62  1  0
 18 63  1  0
 23 64  1  0
 23 65  1  0
 24 66  1  0
 24 67  1  0
 25 68  1  0
 25 69  1  0
 26 70  1  0
 26 71  1  0
 27 72  1  0
 28 73  1  0
 28 74  1  0
 30 75  1  0
 30 76  1  0
 31 77  1  0
 31 78  1  0
 32 79  1  0
 32 80  1  0
 33 81  1  0
 33 82  1  0
 34 83  1  0
 35 84  1  0
M  END
$$$$
