
     RDKit          3D

 59 61  0  0  0  0  0  0  0  0999 V2000
    4.7062   -1.1909    3.1821 C   0  0  0  0  0  0  0  0  0  0  0  0
    3.9734   -0.3756    2.1194 C   0  0  0  0  0  0  0  0  0  0  0  0
    2.8742   -1.1611    1.4393 C   0  0  0  0  0  0  0  0  0  0  0  0
    2.3299   -2.1137    2.0635 O   0  0  0  0  0  0  0  0  0  0  0  0
    2.3887   -0.8143    0.1187 N   0  0  0  0  0  0  0  0  0  0  0  0
    2.7963    0.4200   -0.5798 C   0  0  0  0  0  0  0  0  0  0  0  0
    2.3361    1.6786    0.1906 C   0  0  0  0  0  0  0  0  0  0  0  0
    1.8328    2.8314   -0.7027 C   0  0  0  0  0  0  0  0  0  0  0  0
    0.8684    2.3875   -1.7293 N   0  0  0  0  0  0  0  0  0  0  0  0
    0.6567    3.4511   -2.7222 C   0  0  0  0  0  0  0  0  0  0  0  0
   -0.4233    1.9216   -1.1705 C   0  0  0  0  0  0  0  0  0  0  0  0
   -0.8127    0.6197   -1.8734 C   0  0  0  0  0  0  0  0  0  0  0  0
   -1.9753   -0.1260   -1.2008 C   0  0  0  0  0  0  0  0  0  0  0  0
   -1.7364   -0.4680    0.2235 N   0  0  0  0  0  0  0  0  0  0  0  0
   -2.7166   -0.0923    1.2158 C   0  0  0  0  0  0  0  0  0  0  0  0
   -2.3264    0.2833    2.3554 O   0  0  0  0  0  0  0  0  0  0  0  0
   -4.1703   -0.1978    0.9552 C   0  0  0  0  0  0  0  0  0  0  0  0
   -4.8791   -1.2149   -0.1855 S   0  0  0  0  0  0  0  0  0  0  0  0
   -6.4471   -0.7500    0.2024 C   0  0  0  0  0  0  0  0  0  0  0  0
   -6.4536    0.1652    1.1873 N   0  0  0  0  0  0  0  0  0  0  0  0
   -5.2026    0.4750    1.6207 C   0  0  0  0  0  0  0  0  0  0  0  0
   -4.9872    1.4993    2.6871 C   0  0  0  0  0  0  0  0  0  0  0  0
   -0.5069   -1.1201    0.7267 C   0  0  0  0  0  0  0  0  0  0  0  0
    0.2151   -1.9777   -0.2899 C   0  0  0  0  0  0  0  0  0  0  0  0
   -0.4773   -3.0313   -0.9145 C   0  0  0  0  0  0  0  0  0  0  0  0
    0.1509   -3.8180   -1.8816 C   0  0  0  0  0  0  0  0  0  0  0  0
   -0.5354   -4.8198   -2.4881 F   0  0  0  0  0  0  0  0  0  0  0  0
    1.4848   -3.5752   -2.2218 C   0  0  0  0  0  0  0  0  0  0  0  0
    2.0913   -4.3352   -3.1657 F   0  0  0  0  0  0  0  0  0  0  0  0
    2.2026   -2.5720   -1.5720 C   0  0  0  0  0  0  0  0  0  0  0  0
    1.5889   -1.7803   -0.5910 C   0  0  0  0  0  0  0  0  0  0  0  0
    5.1498   -2.1004    2.7283 H   0  0  0  0  0  0  0  0  0  0  0  0
    4.0120   -1.4877    3.9936 H   0  0  0  0  0  0  0  0  0  0  0  0
    5.5195   -0.5804    3.6244 H   0  0  0  0  0  0  0  0  0  0  0  0
    3.5296    0.5211    2.6008 H   0  0  0  0  0  0  0  0  0  0  0  0
    4.7238   -0.0451    1.3766 H   0  0  0  0  0  0  0  0  0  0  0  0
    2.3870    0.4183   -1.6110 H   0  0  0  0  0  0  0  0  0  0  0  0
    3.8980    0.4336   -0.7089 H   0  0  0  0  0  0  0  0  0  0  0  0
    1.5596    1.4228    0.9381 H   0  0  0  0  0  0  0  0  0  0  0  0
    3.1943    2.0645    0.7783 H   0  0  0  0  0  0  0  0  0  0  0  0
    2.7276    3.2753   -1.1952 H   0  0  0  0  0  0  0  0  0  0  0  0
    1.3781    3.6186   -0.0604 H   0  0  0  0  0  0  0  0  0  0  0  0
    0.2447    4.3655   -2.2425 H   0  0  0  0  0  0  0  0  0  0  0  0
   -0.0486    3.1059   -3.5055 H   0  0  0  0  0  0  0  0  0  0  0  0
    1.6155    3.7051   -3.2256 H   0  0  0  0  0  0  0  0  0  0  0  0
   -0.3651    1.7502   -0.0790 H   0  0  0  0  0  0  0  0  0  0  0  0
   -1.2368    2.6689   -1.3105 H   0  0  0  0  0  0  0  0  0  0  0  0
    0.0657   -0.0378   -1.9647 H   0  0  0  0  0  0  0  0  0  0  0  0
   -1.1140    0.8601   -2.9141 H   0  0  0  0  0  0  0  0  0  0  0  0
   -2.1892   -1.0523   -1.7738 H   0  0  0  0  0  0  0  0  0  0  0  0
   -2.8681    0.5277   -1.2961 H   0  0  0  0  0  0  0  0  0  0  0  0
   -7.3425   -1.1262   -0.2739 H   0  0  0  0  0  0  0  0  0  0  0  0
   -5.9448    1.9995    2.9388 H   0  0  0  0  0  0  0  0  0  0  0  0
   -4.5952    1.0097    3.6059 H   0  0  0  0  0  0  0  0  0  0  0  0
   -4.2696    2.2679    2.3298 H   0  0  0  0  0  0  0  0  0  0  0  0
    0.1540   -0.3426    1.1485 H   0  0  0  0  0  0  0  0  0  0  0  0
   -0.7677   -1.7884    1.5757 H   0  0  0  0  0  0  0  0  0  0  0  0
   -1.5111   -3.2294   -0.6627 H   0  0  0  0  0  0  0  0  0  0  0  0
    3.2474   -2.4230   -1.8135 H   0  0  0  0  0  0  0  0  0  0  0  0
  1  2  1  0
  2  3  1  0
  3  4  2  0
  3  5  1  0
  5  6  1  0
  6  7  1  0
  7  8  1  0
  8  9  1  0
  9 10  1  0
  9 11  1  0
 11 12  1  0
 12 13  1  0
 13 14  1  0
 14 15  1  0
 15 16  2  0
 15 17  1  0
 17 18  1  0
 18 19  1  0
 19 20  2  0
 20 21  1  0
 21 22  1  0
 14 23  1  0
 23 24  1  0
 24 25  2  0
 25 26  1  0
 26 27  1  0
 26 28  2  0
 28 29  1  0
 28 30  1  0
 30 31  2  0
 31  5  1  0
 21 17  2  0
 31 24  1  0
  1 32  1  0
  1 33  1  0
  1 34  1  0
  2 35  1  0
  2 36  1  0
  6 37  1  0
  6 38  1  0
  7 39  1  0
  7 40  1  0
  8 41  1  0
  8 42  1  0
 10 43  1  0
 10 44  1  0
 10 45  1  0
 11 46  1  0
 11 47  1  0
 12 48  1  0
 12 49  1  0
 13 50  1  0
 13 51  1  0
 19 52  1  0
 22 53  1  0
 22 54  1  0
 22 55  1  0
 23 56  1  0
 23 57  1  0
 25 58  1  0
 30 59  1  0
M  END
$$$$
