
     RDKit          3D

 81 85  0  0  0  0  0  0  0  0999 V2000
   -1.6375    1.0964    3.2066 C   0  0  0  0  0  0  0  0  0  0  0  0
   -1.3435    2.3150    2.3899 C   0  0  0  0  0  0  0  0  0  0  0  0
   -1.1466    3.4036    2.9900 O   0  0  0  0  0  0  0  0  0  0  0  0
   -1.2761    2.2635    0.9409 N   0  0  0  0  0  0  0  0  0  0  0  0
   -1.3003    3.5390    0.1923 C   0  0  0  0  0  0  0  0  0  0  0  0
   -2.5934    4.3697    0.4356 C   0  0  0  0  0  0  0  0  0  0  0  0
   -3.6401    4.1823   -0.6831 C   0  0  0  0  0  0  0  0  0  0  0  0
   -5.1198    4.1959   -0.2396 C   0  0  0  0  0  0  0  0  0  0  0  0
   -5.5960    3.1905    0.8449 C   0  0  0  0  0  0  0  0  0  0  0  0
   -4.8104    1.8823    1.0359 C   0  0  0  0  0  0  0  0  0  0  0  0
   -4.7334    0.9495   -0.1771 C   0  0  0  0  0  0  0  0  0  0  0  0
   -3.5106    0.1170   -0.0348 N   0  0  0  0  0  0  0  0  0  0  0  0
   -3.8027   -1.3046    0.3236 C   0  0  0  0  0  0  0  0  0  0  0  0
   -3.9002   -2.2736   -0.8694 C   0  0  0  0  0  0  0  0  0  0  0  0
   -4.2564   -3.6985   -0.3816 C   0  0  0  0  0  0  0  0  0  0  0  0
   -4.1571   -3.8514    1.0303 O   0  0  0  0  0  0  0  0  0  0  0  0
   -2.9077   -3.3778    1.4892 C   0  0  0  0  0  0  0  0  0  0  0  0
   -2.8108   -1.8454    1.3661 C   0  0  0  0  0  0  0  0  0  0  0  0
   -2.4983    0.3786   -1.0913 C   0  0  0  0  0  0  0  0  0  0  0  0
   -1.0838    0.2596   -0.5786 C   0  0  0  0  0  0  0  0  0  0  0  0
   -0.2723   -0.7622   -1.1073 C   0  0  0  0  0  0  0  0  0  0  0  0
    1.0648   -0.9114   -0.7106 C   0  0  0  0  0  0  0  0  0  0  0  0
    1.9076   -1.9786   -1.3064 C   0  0  0  0  0  0  0  0  0  0  0  0
    1.3570   -2.9693   -1.8591 O   0  0  0  0  0  0  0  0  0  0  0  0
    3.3447   -1.8908   -1.2886 N   0  0  0  0  0  0  0  0  0  0  0  0
    4.1417   -3.1191   -1.2077 C   0  0  0  0  0  0  0  0  0  0  0  0
    5.4529   -2.8609   -0.4659 C   0  0  0  0  0  0  0  0  0  0  0  0
    6.1061   -1.6300   -0.9438 N   0  0  0  0  0  0  0  0  0  0  0  0
    7.5432   -1.5075   -0.8562 C   0  0  0  0  0  0  0  0  0  0  0  0
    8.3339   -2.6176   -0.8756 N   0  0  0  0  0  0  0  0  0  0  0  0
    9.6850   -2.5237   -0.7797 C   0  0  0  0  0  0  0  0  0  0  0  0
   10.2867   -1.2723   -0.6616 C   0  0  0  0  0  0  0  0  0  0  0  0
    9.4713   -0.1430   -0.6455 C   0  0  0  0  0  0  0  0  0  0  0  0
    8.1220   -0.2808   -0.7405 N   0  0  0  0  0  0  0  0  0  0  0  0
    5.2839   -0.4163   -1.0724 C   0  0  0  0  0  0  0  0  0  0  0  0
    4.0070   -0.7147   -1.8524 C   0  0  0  0  0  0  0  0  0  0  0  0
    1.5866   -0.0426    0.2552 C   0  0  0  0  0  0  0  0  0  0  0  0
    0.8069    0.9880    0.7731 C   0  0  0  0  0  0  0  0  0  0  0  0
   -0.5267    1.1644    0.3676 C   0  0  0  0  0  0  0  0  0  0  0  0
   -2.7343    0.9700    3.3084 H   0  0  0  0  0  0  0  0  0  0  0  0
   -1.2106    0.1840    2.7474 H   0  0  0  0  0  0  0  0  0  0  0  0
   -1.1973    1.2041    4.2206 H   0  0  0  0  0  0  0  0  0  0  0  0
   -1.1634    3.3571   -0.8969 H   0  0  0  0  0  0  0  0  0  0  0  0
   -0.4231    4.1472    0.5055 H   0  0  0  0  0  0  0  0  0  0  0  0
   -2.3118    5.4478    0.4533 H   0  0  0  0  0  0  0  0  0  0  0  0
   -3.0228    4.1811    1.4389 H   0  0  0  0  0  0  0  0  0  0  0  0
   -3.5112    5.0150   -1.4132 H   0  0  0  0  0  0  0  0  0  0  0  0
   -3.4529    3.2793   -1.2717 H   0  0  0  0  0  0  0  0  0  0  0  0
   -5.7292    4.0176   -1.1544 H   0  0  0  0  0  0  0  0  0  0  0  0
   -5.3772    5.2267    0.0989 H   0  0  0  0  0  0  0  0  0  0  0  0
   -6.6619    2.9391    0.6487 H   0  0  0  0  0  0  0  0  0  0  0  0
   -5.5751    3.7193    1.8220 H   0  0  0  0  0  0  0  0  0  0  0  0
   -3.7951    2.1220    1.3733 H   0  0  0  0  0  0  0  0  0  0  0  0
   -5.2782    1.3181    1.8728 H   0  0  0  0  0  0  0  0  0  0  0  0
   -4.7488    1.5131   -1.1291 H   0  0  0  0  0  0  0  0  0  0  0  0
   -5.6590    0.3386   -0.2254 H   0  0  0  0  0  0  0  0  0  0  0  0
   -4.7913   -1.3474    0.8346 H   0  0  0  0  0  0  0  0  0  0  0  0
   -2.9258   -2.3385   -1.3985 H   0  0  0  0  0  0  0  0  0  0  0  0
   -4.6716   -1.9100   -1.5823 H   0  0  0  0  0  0  0  0  0  0  0  0
   -3.6114   -4.4522   -0.8888 H   0  0  0  0  0  0  0  0  0  0  0  0
   -5.3003   -3.9271   -0.6798 H   0  0  0  0  0  0  0  0  0  0  0  0
   -2.7937   -3.6601    2.5562 H   0  0  0  0  0  0  0  0  0  0  0  0
   -2.0688   -3.8596    0.9317 H   0  0  0  0  0  0  0  0  0  0  0  0
   -3.0463   -1.3807    2.3503 H   0  0  0  0  0  0  0  0  0  0  0  0
   -1.7659   -1.5865    1.1061 H   0  0  0  0  0  0  0  0  0  0  0  0
   -2.5722    1.4040   -1.4859 H   0  0  0  0  0  0  0  0  0  0  0  0
   -2.6757   -0.2480   -1.9909 H   0  0  0  0  0  0  0  0  0  0  0  0
   -0.6761   -1.4327   -1.8579 H   0  0  0  0  0  0  0  0  0  0  0  0
    4.3553   -3.4916   -2.2295 H   0  0  0  0  0  0  0  0  0  0  0  0
    3.5826   -3.9068   -0.6557 H   0  0  0  0  0  0  0  0  0  0  0  0
    6.1097   -3.7470   -0.6117 H   0  0  0  0  0  0  0  0  0  0  0  0
    5.2433   -2.7578    0.6228 H   0  0  0  0  0  0  0  0  0  0  0  0
   10.2932   -3.4205   -0.8032 H   0  0  0  0  0  0  0  0  0  0  0  0
   11.3650   -1.1752   -0.5974 H   0  0  0  0  0  0  0  0  0  0  0  0
    9.9088    0.8407   -0.5581 H   0  0  0  0  0  0  0  0  0  0  0  0
    5.0225   -0.0383   -0.0591 H   0  0  0  0  0  0  0  0  0  0  0  0
    5.8375    0.3803   -1.6118 H   0  0  0  0  0  0  0  0  0  0  0  0
    3.3475    0.1768   -1.8236 H   0  0  0  0  0  0  0  0  0  0  0  0
    4.2590   -0.9094   -2.9182 H   0  0  0  0  0  0  0  0  0  0  0  0
    2.6006   -0.1571    0.6131 H   0  0  0  0  0  0  0  0  0  0  0  0
    1.2482    1.6618    1.4960 H   0  0  0  0  0  0  0  0  0  0  0  0
  1  2  1  0
  2  3  2  0
  2  4  1  0
  4  5  1  0
  5  6  1  0
  6  7  1  0
  7  8  1  0
  8  9  1  0
  9 10  1  0
 10 11  1  0
 11 12  1  0
 12 13  1  0
 13 14  1  0
 14 15  1  0
 15 16  1  0
 16 17  1  0
 17 18  1  0
 12 19  1  0
 19 20  1  0
 20 21  2  0
 21 22  1  0
 22 23  1  0
 23 24  2  0
 23 25  1  0
 25 26  1  0
 26 27  1  0
 27 28  1  0
 28 29  1  0
 29 30  2  0
 30 31  1  0
 31 32  2  0
 32 33  1  0
 33 34  2  0
 28 35  1  0
 35 36  1  0
 22 37  2  0
 37 38  1  0
 38 39  2  0
 39  4  1  0
 18 13  1  0
 39 20  1  0
 36 25  1  0
 34 29  1  0
  1 40  1  0
  1 41  1  0
  1 42  1  0
  5 43  1  0
  5 44  1  0
  6 45  1  0
  6 46  1  0
  7 47  1  0
  7 48  1  0
  8 49  1  0
  8 50  1  0
  9 51  1  0
  9 52  1  0
 10 53  1  0
 10 54  1  0
 11 55  1  0
 11 56  1  0
 13 57  1  0
 14 58  1  0
 14 59  1  0
 15 60  1  0
 15 61  1  0
 17 62  1  0
 17 63  1  0
 18 64  1  0
 18 65  1  0
 19 66  1  0
 19 67  1  0
 21 68  1  0
 26 69  1  0
 26 70  1  0
 27 71  1  0
 27 72  1  0
 31 73  1  0
 32 74  1  0
 33 75  1  0
 35 76  1  0
 35 77  1  0
 36 78  1  0
 36 79  1  0
 37 80  1  0
 38 81  1  0
M  END
$$$$
