
     RDKit          3D

 81 83  0  0  0  0  0  0  0  0999 V2000
   -2.7925   -3.3286   -1.3935 C   0  0  0  0  0  0  0  0  0  0  0  0
   -2.3717   -1.9066   -1.7762 C   0  0  0  0  0  0  0  0  0  0  0  0
   -1.4412   -1.9589   -2.9080 N   0  0  0  0  0  0  0  0  0  0  0  0
   -0.0163   -2.1136   -2.7777 C   0  0  0  0  0  0  0  0  0  0  0  0
    0.6526   -2.4672   -3.7856 O   0  0  0  0  0  0  0  0  0  0  0  0
    0.7176   -1.7897   -1.5032 C   0  0  0  0  0  0  0  0  0  0  0  0
    0.8687   -0.2690   -1.3530 C   0  0  0  0  0  0  0  0  0  0  0  0
    1.4149    0.1456    0.0269 C   0  0  0  0  0  0  0  0  0  0  0  0
    2.8129   -0.3691    0.2538 C   0  0  0  0  0  0  0  0  0  0  0  0
    3.0108   -1.2357    1.1488 O   0  0  0  0  0  0  0  0  0  0  0  0
    3.9076    0.1022   -0.5477 N   0  0  0  0  0  0  0  0  0  0  0  0
    5.2864   -0.3322   -0.3335 C   0  0  0  0  0  0  0  0  0  0  0  0
    5.8601    0.3056    0.9379 C   0  0  0  0  0  0  0  0  0  0  0  0
    7.3408   -0.0497    1.1360 C   0  0  0  0  0  0  0  0  0  0  0  0
    8.1752    0.5334    0.0603 N   0  0  0  0  0  0  0  0  0  0  0  0
    9.3689   -0.2954   -0.1743 C   0  0  0  0  0  0  0  0  0  0  0  0
    8.5882    1.9079    0.3968 C   0  0  0  0  0  0  0  0  0  0  0  0
    1.4034    1.6075    0.1345 N   0  0  0  0  0  0  0  0  0  0  0  0
    0.4116    2.3193    0.8864 C   0  0  0  0  0  0  0  0  0  0  0  0
   -0.0100    3.4276    0.4575 O   0  0  0  0  0  0  0  0  0  0  0  0
   -0.0779    1.8217    2.1854 C   0  0  0  0  0  0  0  0  0  0  0  0
    0.8562    1.5673    3.2024 C   0  0  0  0  0  0  0  0  0  0  0  0
    0.4259    1.2576    4.4945 C   0  0  0  0  0  0  0  0  0  0  0  0
   -0.9388    1.2105    4.7848 C   0  0  0  0  0  0  0  0  0  0  0  0
   -1.8778    1.4399    3.7764 C   0  0  0  0  0  0  0  0  0  0  0  0
   -1.4615    1.7079    2.4667 C   0  0  0  0  0  0  0  0  0  0  0  0
   -2.4451    1.8007    1.4709 O   0  0  0  0  0  0  0  0  0  0  0  0
   -2.3404    1.1179    0.2219 C   0  0  0  0  0  0  0  0  0  0  0  0
   -3.7354    0.7852   -0.3273 C   0  0  0  0  0  0  0  0  0  0  0  0
   -4.4923   -0.2114    0.5823 C   0  0  0  0  0  0  0  0  0  0  0  0
   -5.9297   -0.3925    0.1533 C   0  0  0  0  0  0  0  0  0  0  0  0
   -6.3753   -1.6231   -0.3610 C   0  0  0  0  0  0  0  0  0  0  0  0
   -7.7040   -1.7800   -0.7678 C   0  0  0  0  0  0  0  0  0  0  0  0
   -8.6012   -0.7153   -0.6565 C   0  0  0  0  0  0  0  0  0  0  0  0
   -8.1726    0.5071   -0.1310 C   0  0  0  0  0  0  0  0  0  0  0  0
   -6.8449    0.6689    0.2760 C   0  0  0  0  0  0  0  0  0  0  0  0
   -3.6537    0.3341   -1.7376 N   0  0  0  0  0  0  0  0  0  0  0  0
   -3.8216    1.3203   -2.8088 C   0  0  0  0  0  0  0  0  0  0  0  0
   -3.5628   -1.0507   -2.1368 C   0  0  0  0  0  0  0  0  0  0  0  0
   -4.4328   -1.5161   -2.9234 O   0  0  0  0  0  0  0  0  0  0  0  0
   -3.4528   -3.3082   -0.5024 H   0  0  0  0  0  0  0  0  0  0  0  0
   -3.3242   -3.8265   -2.2326 H   0  0  0  0  0  0  0  0  0  0  0  0
   -1.8950   -3.9298   -1.1390 H   0  0  0  0  0  0  0  0  0  0  0  0
   -1.8779   -1.4696   -0.9011 H   0  0  0  0  0  0  0  0  0  0  0  0
   -1.8462   -2.1055   -3.8610 H   0  0  0  0  0  0  0  0  0  0  0  0
    1.7275   -2.2549   -1.5361 H   0  0  0  0  0  0  0  0  0  0  0  0
    0.1919   -2.2287   -0.6299 H   0  0  0  0  0  0  0  0  0  0  0  0
   -0.1233    0.2101   -1.4947 H   0  0  0  0  0  0  0  0  0  0  0  0
    1.5298    0.1154   -2.1598 H   0  0  0  0  0  0  0  0  0  0  0  0
    0.7504   -0.2922    0.8048 H   0  0  0  0  0  0  0  0  0  0  0  0
    3.7145    0.7353   -1.3552 H   0  0  0  0  0  0  0  0  0  0  0  0
    5.3245   -1.4408   -0.2617 H   0  0  0  0  0  0  0  0  0  0  0  0
    5.8978   -0.0236   -1.2087 H   0  0  0  0  0  0  0  0  0  0  0  0
    5.2931   -0.0620    1.8204 H   0  0  0  0  0  0  0  0  0  0  0  0
    5.7303    1.4074    0.8957 H   0  0  0  0  0  0  0  0  0  0  0  0
    7.4195   -1.1610    1.1494 H   0  0  0  0  0  0  0  0  0  0  0  0
    7.6739    0.2998    2.1397 H   0  0  0  0  0  0  0  0  0  0  0  0
    9.0672   -1.3038   -0.5315 H   0  0  0  0  0  0  0  0  0  0  0  0
   10.0028    0.1548   -0.9679 H   0  0  0  0  0  0  0  0  0  0  0  0
    9.9720   -0.4038    0.7543 H   0  0  0  0  0  0  0  0  0  0  0  0
    9.2237    1.9279    1.3110 H   0  0  0  0  0  0  0  0  0  0  0  0
    9.1575    2.3530   -0.4475 H   0  0  0  0  0  0  0  0  0  0  0  0
    7.7016    2.5536    0.5616 H   0  0  0  0  0  0  0  0  0  0  0  0
    1.9532    2.1546   -0.5657 H   0  0  0  0  0  0  0  0  0  0  0  0
    1.9191    1.6443    3.0031 H   0  0  0  0  0  0  0  0  0  0  0  0
    1.1505    1.0736    5.2772 H   0  0  0  0  0  0  0  0  0  0  0  0
   -1.2692    0.9836    5.7902 H   0  0  0  0  0  0  0  0  0  0  0  0
   -2.9339    1.3678    4.0030 H   0  0  0  0  0  0  0  0  0  0  0  0
   -1.7546    0.1944    0.3773 H   0  0  0  0  0  0  0  0  0  0  0  0
   -1.8159    1.7660   -0.5101 H   0  0  0  0  0  0  0  0  0  0  0  0
   -4.3043    1.7408   -0.2925 H   0  0  0  0  0  0  0  0  0  0  0  0
   -4.4939    0.1713    1.6269 H   0  0  0  0  0  0  0  0  0  0  0  0
   -3.9588   -1.1843    0.6108 H   0  0  0  0  0  0  0  0  0  0  0  0
   -5.6974   -2.4611   -0.4516 H   0  0  0  0  0  0  0  0  0  0  0  0
   -8.0375   -2.7284   -1.1700 H   0  0  0  0  0  0  0  0  0  0  0  0
   -9.6299   -0.8384   -0.9717 H   0  0  0  0  0  0  0  0  0  0  0  0
   -8.8708    1.3296   -0.0393 H   0  0  0  0  0  0  0  0  0  0  0  0
   -6.5290    1.6209    0.6844 H   0  0  0  0  0  0  0  0  0  0  0  0
   -3.0055    1.2070   -3.5541 H   0  0  0  0  0  0  0  0  0  0  0  0
   -3.7819    2.3585   -2.4168 H   0  0  0  0  0  0  0  0  0  0  0  0
   -4.8012    1.1696   -3.3109 H   0  0  0  0  0  0  0  0  0  0  0  0
  1  2  1  0
  2  3  1  0
  3  4  1  0
  4  5  2  0
  4  6  1  0
  6  7  1  0
  7  8  1  0
  8  9  1  0
  9 10  2  0
  9 11  1  0
 11 12  1  0
 12 13  1  0
 13 14  1  0
 14 15  1  0
 15 16  1  0
 15 17  1  0
  8 18  1  0
 18 19  1  0
 19 20  2  0
 19 21  1  0
 21 22  2  0
 22 23  1  0
 23 24  2  0
 24 25  1  0
 25 26  2  0
 26 27  1  0
 27 28  1  0
 28 29  1  0
 29 30  1  0
 30 31  1  0
 31 32  2  0
 32 33  1  0
 33 34  2  0
 34 35  1  0
 35 36  2  0
 29 37  1  0
 37 38  1  0
 37 39  1  0
 39 40  2  0
 39  2  1  0
 26 21  1  0
 36 31  1  0
  1 41  1  0
  1 42  1  0
  1 43  1  0
  2 44  1  0
  3 45  1  0
  6 46  1  0
  6 47  1  0
  7 48  1  0
  7 49  1  0
  8 50  1  0
 11 51  1  0
 12 52  1  0
 12 53  1  0
 13 54  1  0
 13 55  1  0
 14 56  1  0
 14 57  1  0
 16 58  1  0
 16 59  1  0
 16 60  1  0
 17 61  1  0
 17 62  1  0
 17 63  1  0
 18 64  1  0
 22 65  1  0
 23 66  1  0
 24 67  1  0
 25 68  1  0
 28 69  1  0
 28 70  1  0
 29 71  1  0
 30 72  1  0
 30 73  1  0
 32 74  1  0
 33 75  1  0
 34 76  1  0
 35 77  1  0
 36 78  1  0
 38 79  1  0
 38 80  1  0
 38 81  1  0
M  END
$$$$
