
     RDKit          3D

 84 87  0  0  0  0  0  0  0  0999 V2000
    9.8443    0.7191   -0.9716 C   0  0  0  0  0  0  0  0  0  0  0  0
    8.5277    0.4595   -0.3690 N   0  0  0  0  0  0  0  0  0  0  0  0
    7.5480    0.0764   -1.4015 C   0  0  0  0  0  0  0  0  0  0  0  0
    6.2576   -0.4561   -0.7497 C   0  0  0  0  0  0  0  0  0  0  0  0
    6.0413    0.1246    0.6715 C   0  0  0  0  0  0  0  0  0  0  0  0
    4.5863   -0.0210    1.1804 C   0  0  0  0  0  0  0  0  0  0  0  0
    3.5531    0.6407    0.2917 C   0  0  0  0  0  0  0  0  0  0  0  0
    3.5217    1.9013    0.2773 O   0  0  0  0  0  0  0  0  0  0  0  0
    2.6367   -0.1071   -0.5541 N   0  0  0  0  0  0  0  0  0  0  0  0
    1.8227    0.6328   -1.5439 C   0  0  0  0  0  0  0  0  0  0  0  0
    0.7298    1.5115   -0.8935 C   0  0  0  0  0  0  0  0  0  0  0  0
   -0.5570    0.7328   -0.5960 C   0  0  0  0  0  0  0  0  0  0  0  0
   -1.6175    1.6180    0.0913 C   0  0  0  0  0  0  0  0  0  0  0  0
   -2.8839    0.8396    0.5780 C   0  0  0  0  0  0  0  0  0  0  0  0
   -3.6151    0.2111   -0.6496 C   0  0  0  0  0  0  0  0  0  0  0  0
   -5.1235    0.1015   -0.4114 C   0  0  0  0  0  0  0  0  0  0  0  0
   -5.7520    1.4429   -0.2976 N   0  0  0  0  0  0  0  0  0  0  0  0
   -7.0723    1.3710    0.3635 C   0  0  0  0  0  0  0  0  0  0  0  0
   -8.0275    0.5166   -0.4235 C   0  0  0  0  0  0  0  0  0  0  0  0
   -8.5128    0.9454   -1.6676 C   0  0  0  0  0  0  0  0  0  0  0  0
   -9.3487    0.0997   -2.4030 C   0  0  0  0  0  0  0  0  0  0  0  0
   -9.6894   -1.1580   -1.8974 C   0  0  0  0  0  0  0  0  0  0  0  0
   -9.1838   -1.5545   -0.6579 C   0  0  0  0  0  0  0  0  0  0  0  0
   -8.3705   -0.7186    0.0442 N   0  0  0  0  0  0  0  0  0  0  0  0
   -4.8752    2.4598    0.3451 C   0  0  0  0  0  0  0  0  0  0  0  0
   -3.8463    1.8372    1.3034 C   0  0  0  0  0  0  0  0  0  0  0  0
   -2.4578   -0.2059    1.6104 C   0  0  0  0  0  0  0  0  0  0  0  0
   -1.8647    0.1789    2.6525 O   0  0  0  0  0  0  0  0  0  0  0  0
   -2.7663   -1.5693    1.4875 O   0  0  0  0  0  0  0  0  0  0  0  0
   -1.9183   -2.5303    0.8439 C   0  0  0  0  0  0  0  0  0  0  0  0
   -0.4587   -2.5136    1.3762 C   0  0  0  0  0  0  0  0  0  0  0  0
   -0.2906   -3.4930    2.3707 O   0  0  0  0  0  0  0  0  0  0  0  0
    0.5583   -2.7346    0.2181 C   0  0  0  0  0  0  0  0  0  0  0  0
    0.5671   -4.0784   -0.2084 O   0  0  0  0  0  0  0  0  0  0  0  0
    1.9890   -2.2431    0.5717 C   0  0  0  0  0  0  0  0  0  0  0  0
    2.7044   -1.5834   -0.6303 C   0  0  0  0  0  0  0  0  0  0  0  0
    6.5614    1.5734    0.7468 C   0  0  0  0  0  0  0  0  0  0  0  0
    8.0644    1.6468    0.3900 C   0  0  0  0  0  0  0  0  0  0  0  0
   10.5847    0.9500   -0.1778 H   0  0  0  0  0  0  0  0  0  0  0  0
    9.8018    1.5697   -1.6891 H   0  0  0  0  0  0  0  0  0  0  0  0
   10.2074   -0.1854   -1.5071 H   0  0  0  0  0  0  0  0  0  0  0  0
    7.9611   -0.7125   -2.0635 H   0  0  0  0  0  0  0  0  0  0  0  0
    7.3080    0.9550   -2.0427 H   0  0  0  0  0  0  0  0  0  0  0  0
    6.3144   -1.5639   -0.6770 H   0  0  0  0  0  0  0  0  0  0  0  0
    5.4084   -0.1999   -1.4164 H   0  0  0  0  0  0  0  0  0  0  0  0
    6.6731   -0.4730    1.3693 H   0  0  0  0  0  0  0  0  0  0  0  0
    4.3719   -1.0935    1.3379 H   0  0  0  0  0  0  0  0  0  0  0  0
    4.5130    0.4331    2.1897 H   0  0  0  0  0  0  0  0  0  0  0  0
    2.4978    1.2903   -2.1357 H   0  0  0  0  0  0  0  0  0  0  0  0
    1.3495   -0.0561   -2.2803 H   0  0  0  0  0  0  0  0  0  0  0  0
    0.4861    2.3467   -1.5908 H   0  0  0  0  0  0  0  0  0  0  0  0
    1.0975    1.9686    0.0515 H   0  0  0  0  0  0  0  0  0  0  0  0
   -0.9639    0.3136   -1.5459 H   0  0  0  0  0  0  0  0  0  0  0  0
   -0.2891   -0.0897    0.0804 H   0  0  0  0  0  0  0  0  0  0  0  0
   -1.1438    2.1234    0.9632 H   0  0  0  0  0  0  0  0  0  0  0  0
   -1.9179    2.4245   -0.6146 H   0  0  0  0  0  0  0  0  0  0  0  0
   -3.4743    0.8524   -1.5499 H   0  0  0  0  0  0  0  0  0  0  0  0
   -3.2112   -0.7763   -0.9238 H   0  0  0  0  0  0  0  0  0  0  0  0
   -5.3030   -0.5074    0.5035 H   0  0  0  0  0  0  0  0  0  0  0  0
   -5.5750   -0.4356   -1.2727 H   0  0  0  0  0  0  0  0  0  0  0  0
   -6.9717    0.9796    1.4017 H   0  0  0  0  0  0  0  0  0  0  0  0
   -7.5202    2.3849    0.4319 H   0  0  0  0  0  0  0  0  0  0  0  0
   -8.2356    1.9146   -2.0672 H   0  0  0  0  0  0  0  0  0  0  0  0
   -9.7235    0.4129   -3.3681 H   0  0  0  0  0  0  0  0  0  0  0  0
  -10.3327   -1.8214   -2.4666 H   0  0  0  0  0  0  0  0  0  0  0  0
   -9.4316   -2.5304   -0.2595 H   0  0  0  0  0  0  0  0  0  0  0  0
   -4.3311    3.0136   -0.4507 H   0  0  0  0  0  0  0  0  0  0  0  0
   -5.4628    3.2274    0.8958 H   0  0  0  0  0  0  0  0  0  0  0  0
   -4.4172    1.3173    2.1060 H   0  0  0  0  0  0  0  0  0  0  0  0
   -3.2763    2.6504    1.8067 H   0  0  0  0  0  0  0  0  0  0  0  0
   -2.3552   -3.5426    0.9899 H   0  0  0  0  0  0  0  0  0  0  0  0
   -1.9415   -2.3582   -0.2478 H   0  0  0  0  0  0  0  0  0  0  0  0
   -0.2392   -1.5228    1.8256 H   0  0  0  0  0  0  0  0  0  0  0  0
   -0.7930   -3.1780    3.1696 H   0  0  0  0  0  0  0  0  0  0  0  0
    0.2117   -2.1336   -0.6507 H   0  0  0  0  0  0  0  0  0  0  0  0
    0.9342   -4.6311    0.5333 H   0  0  0  0  0  0  0  0  0  0  0  0
    1.9620   -1.5179    1.4171 H   0  0  0  0  0  0  0  0  0  0  0  0
    2.6009   -3.1022    0.9346 H   0  0  0  0  0  0  0  0  0  0  0  0
    3.7619   -1.9136   -0.6695 H   0  0  0  0  0  0  0  0  0  0  0  0
    2.2828   -1.9564   -1.5902 H   0  0  0  0  0  0  0  0  0  0  0  0
    6.3996    1.9907    1.7652 H   0  0  0  0  0  0  0  0  0  0  0  0
    6.0035    2.2080    0.0271 H   0  0  0  0  0  0  0  0  0  0  0  0
    8.2479    2.5877   -0.1815 H   0  0  0  0  0  0  0  0  0  0  0  0
    8.6485    1.7136    1.3324 H   0  0  0  0  0  0  0  0  0  0  0  0
  1  2  1  0
  2  3  1  0
  3  4  1  0
  4  5  1  0
  5  6  1  0
  6  7  1  0
  7  8  2  0
  7  9  1  0
  9 10  1  0
 10 11  1  0
 11 12  1  0
 12 13  1  0
 13 14  1  0
 14 15  1  0
 15 16  1  0
 16 17  1  0
 17 18  1  0
 18 19  1  0
 19 20  2  0
 20 21  1  0
 21 22  2  0
 22 23  1  0
 23 24  2  0
 17 25  1  0
 25 26  1  0
 14 27  1  0
 27 28  2  0
 27 29  1  0
 29 30  1  0
 30 31  1  0
 31 32  1  0
 31 33  1  0
 33 34  1  0
 33 35  1  0
 35 36  1  0
  5 37  1  0
 37 38  1  0
 38  2  1  0
 36  9  1  0
 26 14  1  0
 24 19  1  0
  1 39  1  0
  1 40  1  0
  1 41  1  0
  3 42  1  0
  3 43  1  0
  4 44  1  0
  4 45  1  0
  5 46  1  0
  6 47  1  0
  6 48  1  0
 10 49  1  0
 10 50  1  0
 11 51  1  0
 11 52  1  0
 12 53  1  0
 12 54  1  0
 13 55  1  0
 13 56  1  0
 15 57  1  0
 15 58  1  0
 16 59  1  0
 16 60  1  0
 18 61  1  0
 18 62  1  0
 20 63  1  0
 21 64  1  0
 22 65  1  0
 23 66  1  0
 25 67  1  0
 25 68  1  0
 26 69  1  0
 26 70  1  0
 30 71  1  0
 30 72  1  0
 31 73  1  0
 32 74  1  0
 33 75  1  0
 34 76  1  0
 35 77  1  0
 35 78  1  0
 36 79  1  0
 36 80  1  0
 37 81  1  0
 37 82  1  0
 38 83  1  0
 38 84  1  0
M  END
$$$$
