
     RDKit          3D

 65 67  0  0  0  0  0  0  0  0999 V2000
   -6.6438    0.6504   -0.3170 C   0  0  0  0  0  0  0  0  0  0  0  0
   -5.2885    0.9090    0.1902 N   0  0  0  0  0  0  0  0  0  0  0  0
   -4.6601   -0.3552    0.6119 C   0  0  0  0  0  0  0  0  0  0  0  0
   -3.2760   -0.0821    1.2100 C   0  0  0  0  0  0  0  0  0  0  0  0
   -2.3336    0.6149    0.1919 C   0  0  0  0  0  0  0  0  0  0  0  0
   -1.0159    0.9889    0.9363 C   0  0  0  0  0  0  0  0  0  0  0  0
   -0.0300    1.9030    0.1576 C   0  0  0  0  0  0  0  0  0  0  0  0
    1.4490    1.4573    0.1733 C   0  0  0  0  0  0  0  0  0  0  0  0
    2.0072    1.0225    1.5515 C   0  0  0  0  0  0  0  0  0  0  0  0
    2.6697   -0.2949    1.4668 N   0  0  0  0  0  0  0  0  0  0  0  0
    3.9988   -0.4336    0.9179 C   0  0  0  0  0  0  0  0  0  0  0  0
    4.6773   -1.4676    1.1699 O   0  0  0  0  0  0  0  0  0  0  0  0
    4.5509    0.5472   -0.0303 C   0  0  0  0  0  0  0  0  0  0  0  0
    5.0181    1.7966    0.3983 C   0  0  0  0  0  0  0  0  0  0  0  0
    5.4860    2.7216   -0.5367 C   0  0  0  0  0  0  0  0  0  0  0  0
    5.4947    2.3821   -1.8954 C   0  0  0  0  0  0  0  0  0  0  0  0
    5.9588    3.3128   -2.8722 N   0  0  0  0  0  0  0  0  0  0  0  0
    5.0573    1.1530   -2.2870 N   0  0  0  0  0  0  0  0  0  0  0  0
    4.5983    0.2370   -1.3949 C   0  0  0  0  0  0  0  0  0  0  0  0
    1.9033   -1.5136    1.7812 C   0  0  0  0  0  0  0  0  0  0  0  0
    1.3646   -2.1400    0.4804 C   0  0  0  0  0  0  0  0  0  0  0  0
    0.3466   -3.2752    0.7087 C   0  0  0  0  0  0  0  0  0  0  0  0
   -0.6336   -2.8692    1.6345 O   0  0  0  0  0  0  0  0  0  0  0  0
   -0.3243   -3.7353   -0.6232 C   0  0  0  0  0  0  0  0  0  0  0  0
   -1.2953   -4.7154   -0.3549 O   0  0  0  0  0  0  0  0  0  0  0  0
   -0.9798   -2.5928   -1.4347 C   0  0  0  0  0  0  0  0  0  0  0  0
   -1.6340   -1.6764   -0.5650 O   0  0  0  0  0  0  0  0  0  0  0  0
   -1.9770   -0.3659   -0.9171 C   0  0  0  0  0  0  0  0  0  0  0  0
   -1.9223    0.0041   -2.1237 O   0  0  0  0  0  0  0  0  0  0  0  0
   -3.0657    1.8812   -0.3414 C   0  0  0  0  0  0  0  0  0  0  0  0
   -4.4807    1.5626   -0.8560 C   0  0  0  0  0  0  0  0  0  0  0  0
   -7.1410    1.6081   -0.5846 H   0  0  0  0  0  0  0  0  0  0  0  0
   -6.6204   -0.0082   -1.2152 H   0  0  0  0  0  0  0  0  0  0  0  0
   -7.2647    0.1653    0.4651 H   0  0  0  0  0  0  0  0  0  0  0  0
   -4.5778   -1.0678   -0.2421 H   0  0  0  0  0  0  0  0  0  0  0  0
   -5.2798   -0.8392    1.3993 H   0  0  0  0  0  0  0  0  0  0  0  0
   -3.4148    0.5671    2.1028 H   0  0  0  0  0  0  0  0  0  0  0  0
   -2.8408   -1.0383    1.5702 H   0  0  0  0  0  0  0  0  0  0  0  0
   -0.5204    0.0429    1.2295 H   0  0  0  0  0  0  0  0  0  0  0  0
   -1.2609    1.5031    1.8959 H   0  0  0  0  0  0  0  0  0  0  0  0
   -0.3197    1.9708   -0.9113 H   0  0  0  0  0  0  0  0  0  0  0  0
   -0.0968    2.9335    0.5753 H   0  0  0  0  0  0  0  0  0  0  0  0
    2.0633    2.3083   -0.1980 H   0  0  0  0  0  0  0  0  0  0  0  0
    1.5846    0.6605   -0.5857 H   0  0  0  0  0  0  0  0  0  0  0  0
    1.2221    1.0089    2.3343 H   0  0  0  0  0  0  0  0  0  0  0  0
    2.7282    1.7809    1.9189 H   0  0  0  0  0  0  0  0  0  0  0  0
    5.0185    2.0569    1.4500 H   0  0  0  0  0  0  0  0  0  0  0  0
    5.8446    3.6863   -0.2064 H   0  0  0  0  0  0  0  0  0  0  0  0
    5.9875    3.0461   -3.8820 H   0  0  0  0  0  0  0  0  0  0  0  0
    6.2641    4.2748   -2.5987 H   0  0  0  0  0  0  0  0  0  0  0  0
    4.2470   -0.7247   -1.7501 H   0  0  0  0  0  0  0  0  0  0  0  0
    1.0649   -1.2664    2.4661 H   0  0  0  0  0  0  0  0  0  0  0  0
    2.5436   -2.2442    2.3215 H   0  0  0  0  0  0  0  0  0  0  0  0
    0.8815   -1.3377   -0.1007 H   0  0  0  0  0  0  0  0  0  0  0  0
    2.2146   -2.5295   -0.1230 H   0  0  0  0  0  0  0  0  0  0  0  0
    0.9155   -4.1418    1.1270 H   0  0  0  0  0  0  0  0  0  0  0  0
   -0.9973   -3.6940    2.0512 H   0  0  0  0  0  0  0  0  0  0  0  0
    0.4671   -4.1799   -1.2721 H   0  0  0  0  0  0  0  0  0  0  0  0
   -0.8070   -5.5416   -0.0968 H   0  0  0  0  0  0  0  0  0  0  0  0
   -1.7109   -3.0012   -2.1637 H   0  0  0  0  0  0  0  0  0  0  0  0
   -0.1931   -2.0638   -2.0150 H   0  0  0  0  0  0  0  0  0  0  0  0
   -2.4959    2.3533   -1.1706 H   0  0  0  0  0  0  0  0  0  0  0  0
   -3.1478    2.6373    0.4731 H   0  0  0  0  0  0  0  0  0  0  0  0
   -4.9609    2.5217   -1.1492 H   0  0  0  0  0  0  0  0  0  0  0  0
   -4.4170    0.9251   -1.7664 H   0  0  0  0  0  0  0  0  0  0  0  0
  1  2  1  0
  2  3  1  0
  3  4  1  0
  4  5  1  0
  5  6  1  0
  6  7  1  0
  7  8  1  0
  8  9  1  0
  9 10  1  0
 10 11  1  0
 11 12  2  0
 11 13  1  0
 13 14  2  0
 14 15  1  0
 15 16  2  0
 16 17  1  0
 16 18  1  0
 18 19  2  0
 10 20  1  0
 20 21  1  0
 21 22  1  0
 22 23  1  0
 22 24  1  0
 24 25  1  0
 24 26  1  0
 26 27  1  0
 27 28  1  0
 28 29  2  0
  5 30  1  0
 30 31  1  0
 31  2  1  0
 28  5  1  0
 19 13  1  0
  1 32  1  0
  1 33  1  0
  1 34  1  0
  3 35  1  0
  3 36  1  0
  4 37  1  0
  4 38  1  0
  6 39  1  0
  6 40  1  0
  7 41  1  0
  7 42  1  0
  8 43  1  0
  8 44  1  0
  9 45  1  0
  9 46  1  0
 14 47  1  0
 15 48  1  0
 17 49  1  0
 17 50  1  0
 19 51  1  0
 20 52  1  0
 20 53  1  0
 21 54  1  0
 21 55  1  0
 22 56  1  0
 23 57  1  0
 24 58  1  0
 25 59  1  0
 26 60  1  0
 26 61  1  0
 30 62  1  0
 30 63  1  0
 31 64  1  0
 31 65  1  0
M  END
$$$$
