
     RDKit          3D

112117  0  0  0  0  0  0  0  0999 V2000
   -9.2182   -2.3083    0.7620 N   0  0  0  0  0  0  0  0  0  0  0  0
   -9.1303   -1.2668    1.7864 C   0  0  0  0  0  0  0  0  0  0  0  0
   -7.6794   -0.8357    2.0639 C   0  0  0  0  0  0  0  0  0  0  0  0
   -7.0610   -0.0541    0.8868 C   0  0  0  0  0  0  0  0  0  0  0  0
   -5.7068    0.5913    1.2426 C   0  0  0  0  0  0  0  0  0  0  0  0
   -4.5473   -0.4281    1.3193 C   0  0  0  0  0  0  0  0  0  0  0  0
   -3.3969    0.0725    2.0902 N   0  0  0  0  0  0  0  0  0  0  0  0
   -2.7046    1.3280    1.9519 C   0  0  0  0  0  0  0  0  0  0  0  0
   -2.0805    1.7698    2.9531 O   0  0  0  0  0  0  0  0  0  0  0  0
   -2.6416    2.1064    0.6576 C   0  0  0  0  0  0  0  0  0  0  0  0
   -1.7393    3.2626    0.7814 N   0  0  0  0  0  0  0  0  0  0  0  0
   -2.2494    4.5246    1.3318 C   0  0  0  0  0  0  0  0  0  0  0  0
   -2.1308    5.6319    0.3176 C   0  0  0  0  0  0  0  0  0  0  0  0
   -1.5259    6.8538    0.6659 C   0  0  0  0  0  0  0  0  0  0  0  0
   -1.4602    7.8967   -0.2640 C   0  0  0  0  0  0  0  0  0  0  0  0
   -1.9897    7.7279   -1.5448 C   0  0  0  0  0  0  0  0  0  0  0  0
   -2.5928    6.5175   -1.8997 C   0  0  0  0  0  0  0  0  0  0  0  0
   -2.6744    5.4760   -0.9701 C   0  0  0  0  0  0  0  0  0  0  0  0
   -0.3221    3.1163    0.5760 C   0  0  0  0  0  0  0  0  0  0  0  0
    0.4709    3.3529    1.5281 O   0  0  0  0  0  0  0  0  0  0  0  0
    0.2183    2.8843   -0.8090 C   0  0  0  0  0  0  0  0  0  0  0  0
    1.5957    2.1850   -0.8451 C   0  0  0  0  0  0  0  0  0  0  0  0
    1.6345    0.6777   -0.4525 C   0  0  0  0  0  0  0  0  0  0  0  0
    2.3644    0.4548    0.8506 C   0  0  0  0  0  0  0  0  0  0  0  0
    1.7477    0.6348    1.9374 O   0  0  0  0  0  0  0  0  0  0  0  0
    3.7429    0.0270    0.8760 N   0  0  0  0  0  0  0  0  0  0  0  0
    4.6506    0.3515   -0.2363 C   0  0  0  0  0  0  0  0  0  0  0  0
    6.1065    0.3766    0.2398 C   0  0  0  0  0  0  0  0  0  0  0  0
    6.5366   -0.9592    0.9083 C   0  0  0  0  0  0  0  0  0  0  0  0
    7.2271   -1.9147   -0.0955 C   0  0  0  0  0  0  0  0  0  0  0  0
    8.5997   -1.4299   -0.4954 C   0  0  0  0  0  0  0  0  0  0  0  0
    8.8037   -0.8036   -1.7374 C   0  0  0  0  0  0  0  0  0  0  0  0
   10.0745   -0.3440   -2.0960 C   0  0  0  0  0  0  0  0  0  0  0  0
   11.1521   -0.5123   -1.2236 C   0  0  0  0  0  0  0  0  0  0  0  0
   10.9595   -1.1376    0.0112 C   0  0  0  0  0  0  0  0  0  0  0  0
    9.6891   -1.5921    0.3782 C   0  0  0  0  0  0  0  0  0  0  0  0
    5.3529   -1.6864    1.5996 C   0  0  0  0  0  0  0  0  0  0  0  0
    4.2527   -0.7159    2.0384 C   0  0  0  0  0  0  0  0  0  0  0  0
    0.2984    0.0827   -0.3863 N   0  0  0  0  0  0  0  0  0  0  0  0
   -0.2430   -0.6392   -1.4949 C   0  0  0  0  0  0  0  0  0  0  0  0
   -1.2426   -0.1840   -2.1115 O   0  0  0  0  0  0  0  0  0  0  0  0
    0.3948   -1.8826   -1.9491 C   0  0  0  0  0  0  0  0  0  0  0  0
    1.0856   -1.8489   -3.1695 C   0  0  0  0  0  0  0  0  0  0  0  0
    1.8466   -2.9425   -3.5846 C   0  0  0  0  0  0  0  0  0  0  0  0
    1.9254   -4.0807   -2.7840 C   0  0  0  0  0  0  0  0  0  0  0  0
    1.2198   -4.1401   -1.5791 C   0  0  0  0  0  0  0  0  0  0  0  0
    0.4305   -3.0643   -1.1553 C   0  0  0  0  0  0  0  0  0  0  0  0
   -0.2791   -3.2459    0.0479 O   0  0  0  0  0  0  0  0  0  0  0  0
   -1.5351   -2.6655    0.4136 C   0  0  0  0  0  0  0  0  0  0  0  0
   -2.6337   -2.9378   -0.6317 C   0  0  0  0  0  0  0  0  0  0  0  0
   -2.9053   -4.4346   -0.8164 C   0  0  0  0  0  0  0  0  0  0  0  0
   -4.4265   -4.5886   -0.8270 C   0  0  0  0  0  0  0  0  0  0  0  0
   -4.9832   -3.3357   -0.1649 C   0  0  0  0  0  0  0  0  0  0  0  0
   -3.8985   -2.3695   -0.1888 N   0  0  0  0  0  0  0  0  0  0  0  0
   -4.1189   -0.9621   -0.0232 C   0  0  0  0  0  0  0  0  0  0  0  0
   -3.9452   -0.1858   -1.0009 O   0  0  0  0  0  0  0  0  0  0  0  0
   -8.9418   -1.9080   -0.1622 H   0  0  0  0  0  0  0  0  0  0  0  0
   -8.5509   -3.0788    0.9951 H   0  0  0  0  0  0  0  0  0  0  0  0
   -9.7381   -0.3858    1.4822 H   0  0  0  0  0  0  0  0  0  0  0  0
   -9.5685   -1.6604    2.7315 H   0  0  0  0  0  0  0  0  0  0  0  0
   -7.6818   -0.1904    2.9705 H   0  0  0  0  0  0  0  0  0  0  0  0
   -7.0791   -1.7400    2.2986 H   0  0  0  0  0  0  0  0  0  0  0  0
   -7.7611    0.7622    0.5979 H   0  0  0  0  0  0  0  0  0  0  0  0
   -6.9358   -0.7187    0.0041 H   0  0  0  0  0  0  0  0  0  0  0  0
   -5.8000    1.1339    2.2082 H   0  0  0  0  0  0  0  0  0  0  0  0
   -5.4967    1.3482    0.4643 H   0  0  0  0  0  0  0  0  0  0  0  0
   -4.9302   -1.2988    1.8877 H   0  0  0  0  0  0  0  0  0  0  0  0
   -3.1289   -0.5002    2.9245 H   0  0  0  0  0  0  0  0  0  0  0  0
   -2.2951    1.4499   -0.1573 H   0  0  0  0  0  0  0  0  0  0  0  0
   -3.6491    2.4683    0.3836 H   0  0  0  0  0  0  0  0  0  0  0  0
   -3.3195    4.4264    1.6150 H   0  0  0  0  0  0  0  0  0  0  0  0
   -1.6953    4.7688    2.2653 H   0  0  0  0  0  0  0  0  0  0  0  0
   -1.1202    7.0065    1.6578 H   0  0  0  0  0  0  0  0  0  0  0  0
   -0.9973    8.8374    0.0056 H   0  0  0  0  0  0  0  0  0  0  0  0
   -1.9322    8.5293   -2.2683 H   0  0  0  0  0  0  0  0  0  0  0  0
   -3.0073    6.3871   -2.8913 H   0  0  0  0  0  0  0  0  0  0  0  0
   -3.1519    4.5461   -1.2537 H   0  0  0  0  0  0  0  0  0  0  0  0
    0.3256    3.8817   -1.2885 H   0  0  0  0  0  0  0  0  0  0  0  0
   -0.5142    2.3267   -1.4263 H   0  0  0  0  0  0  0  0  0  0  0  0
    2.3227    2.7741   -0.2439 H   0  0  0  0  0  0  0  0  0  0  0  0
    1.9579    2.2663   -1.8929 H   0  0  0  0  0  0  0  0  0  0  0  0
    2.2066    0.1459   -1.2425 H   0  0  0  0  0  0  0  0  0  0  0  0
    4.5358   -0.4056   -1.0419 H   0  0  0  0  0  0  0  0  0  0  0  0
    4.4084    1.3543   -0.6517 H   0  0  0  0  0  0  0  0  0  0  0  0
    6.7672    0.6410   -0.6089 H   0  0  0  0  0  0  0  0  0  0  0  0
    6.2102    1.1963    0.9827 H   0  0  0  0  0  0  0  0  0  0  0  0
    7.2729   -0.7095    1.7072 H   0  0  0  0  0  0  0  0  0  0  0  0
    7.3439   -2.9197    0.3723 H   0  0  0  0  0  0  0  0  0  0  0  0
    6.5837   -2.0541   -0.9946 H   0  0  0  0  0  0  0  0  0  0  0  0
    7.9810   -0.6733   -2.4297 H   0  0  0  0  0  0  0  0  0  0  0  0
   10.2248    0.1386   -3.0517 H   0  0  0  0  0  0  0  0  0  0  0  0
   12.1374   -0.1622   -1.5025 H   0  0  0  0  0  0  0  0  0  0  0  0
   11.7961   -1.2779    0.6826 H   0  0  0  0  0  0  0  0  0  0  0  0
    9.5528   -2.0771    1.3372 H   0  0  0  0  0  0  0  0  0  0  0  0
    4.8897   -2.4227    0.9020 H   0  0  0  0  0  0  0  0  0  0  0  0
    5.7225   -2.2519    2.4840 H   0  0  0  0  0  0  0  0  0  0  0  0
    4.6492   -0.0006    2.7895 H   0  0  0  0  0  0  0  0  0  0  0  0
    3.4352   -1.3034    2.5138 H   0  0  0  0  0  0  0  0  0  0  0  0
   -0.3530    0.4072    0.3586 H   0  0  0  0  0  0  0  0  0  0  0  0
    1.0701   -0.9551   -3.7819 H   0  0  0  0  0  0  0  0  0  0  0  0
    2.3920   -2.9010   -4.5165 H   0  0  0  0  0  0  0  0  0  0  0  0
    2.5287   -4.9229   -3.0951 H   0  0  0  0  0  0  0  0  0  0  0  0
    1.2734   -5.0389   -0.9761 H   0  0  0  0  0  0  0  0  0  0  0  0
   -1.8446   -3.1062    1.3844 H   0  0  0  0  0  0  0  0  0  0  0  0
   -1.4336   -1.5832    0.5995 H   0  0  0  0  0  0  0  0  0  0  0  0
   -2.3609   -2.4929   -1.6107 H   0  0  0  0  0  0  0  0  0  0  0  0
   -2.4844   -5.0283    0.0209 H   0  0  0  0  0  0  0  0  0  0  0  0
   -2.4673   -4.8006   -1.7700 H   0  0  0  0  0  0  0  0  0  0  0  0
   -4.7817   -4.6383   -1.8783 H   0  0  0  0  0  0  0  0  0  0  0  0
   -4.7483   -5.5038   -0.2886 H   0  0  0  0  0  0  0  0  0  0  0  0
   -5.8621   -2.9513   -0.7307 H   0  0  0  0  0  0  0  0  0  0  0  0
   -5.2751   -3.5405    0.8883 H   0  0  0  0  0  0  0  0  0  0  0  0
  1  2  1  0
  2  3  1  0
  3  4  1  0
  4  5  1  0
  5  6  1  0
  6  7  1  0
  7  8  1  0
  8  9  2  0
  8 10  1  0
 10 11  1  0
 11 12  1  0
 12 13  1  0
 13 14  2  0
 14 15  1  0
 15 16  2  0
 16 17  1  0
 17 18  2  0
 11 19  1  0
 19 20  2  0
 19 21  1  0
 21 22  1  0
 22 23  1  0
 23 24  1  0
 24 25  2  0
 24 26  1  0
 26 27  1  0
 27 28  1  0
 28 29  1  0
 29 30  1  0
 30 31  1  0
 31 32  2  0
 32 33  1  0
 33 34  2  0
 34 35  1  0
 35 36  2  0
 29 37  1  0
 37 38  1  0
 23 39  1  0
 39 40  1  0
 40 41  2  0
 40 42  1  0
 42 43  2  0
 43 44  1  0
 44 45  2  0
 45 46  1  0
 46 47  2  0
 47 48  1  0
 48 49  1  0
 49 50  1  0
 50 51  1  0
 51 52  1  0
 52 53  1  0
 53 54  1  0
 54 55  1  0
 55 56  2  0
 55  6  1  0
 18 13  1  0
 38 26  1  0
 47 42  1  0
 54 50  1  0
 36 31  1  0
  1 57  1  0
  1 58  1  0
  2 59  1  0
  2 60  1  0
  3 61  1  0
  3 62  1  0
  4 63  1  0
  4 64  1  0
  5 65  1  0
  5 66  1  0
  6 67  1  0
  7 68  1  0
 10 69  1  0
 10 70  1  0
 12 71  1  0
 12 72  1  0
 14 73  1  0
 15 74  1  0
 16 75  1  0
 17 76  1  0
 18 77  1  0
 21 78  1  0
 21 79  1  0
 22 80  1  0
 22 81  1  0
 23 82  1  0
 27 83  1  0
 27 84  1  0
 28 85  1  0
 28 86  1  0
 29 87  1  0
 30 88  1  0
 30 89  1  0
 32 90  1  0
 33 91  1  0
 34 92  1  0
 35 93  1  0
 36 94  1  0
 37 95  1  0
 37 96  1  0
 38 97  1  0
 38 98  1  0
 39 99  1  0
 43100  1  0
 44101  1  0
 45102  1  0
 46103  1  0
 49104  1  0
 49105  1  0
 50106  1  0
 51107  1  0
 51108  1  0
 52109  1  0
 52110  1  0
 53111  1  0
 53112  1  0
M  END
$$$$
