
     RDKit          3D

 78 80  0  0  0  0  0  0  0  0999 V2000
   -4.6097    4.3816    0.7198 C   0  0  0  0  0  0  0  0  0  0  0  0
   -4.5982    3.1352   -0.1764 C   0  0  0  0  0  0  0  0  0  0  0  0
   -6.0248    2.8418   -0.6674 C   0  0  0  0  0  0  0  0  0  0  0  0
   -4.0013    1.9146    0.5843 C   0  0  0  0  0  0  0  0  0  0  0  0
   -2.9619    1.0943   -0.2178 C   0  0  0  0  0  0  0  0  0  0  0  0
   -3.5557    0.4406   -1.4882 C   0  0  0  0  0  0  0  0  0  0  0  0
   -4.5957   -0.4999   -1.2074 O   0  0  0  0  0  0  0  0  0  0  0  0
   -4.6022   -1.5059   -0.2235 C   0  0  0  0  0  0  0  0  0  0  0  0
   -5.7459   -1.5521    0.5859 C   0  0  0  0  0  0  0  0  0  0  0  0
   -5.8820   -2.5075    1.5908 C   0  0  0  0  0  0  0  0  0  0  0  0
   -4.8813   -3.4516    1.7934 C   0  0  0  0  0  0  0  0  0  0  0  0
   -3.7458   -3.4472    0.9851 C   0  0  0  0  0  0  0  0  0  0  0  0
   -3.5808   -2.4888   -0.0353 C   0  0  0  0  0  0  0  0  0  0  0  0
   -2.3212   -2.5976   -0.8706 C   0  0  0  0  0  0  0  0  0  0  0  0
   -1.0909   -2.1791   -0.0405 C   0  0  0  0  0  0  0  0  0  0  0  0
    0.2003   -1.9625   -0.8458 C   0  0  0  0  0  0  0  0  0  0  0  0
    0.2314   -0.7439   -1.8034 C   0  0  0  0  0  0  0  0  0  0  0  0
    0.4397    0.7259   -1.2346 C   0  0  0  0  0  0  0  0  0  0  0  0
    1.6236    1.4074   -1.9975 C   0  0  0  0  0  0  0  0  0  0  0  0
    3.0099    0.8112   -1.6494 C   0  0  0  0  0  0  0  0  0  0  0  0
    2.9118   -0.1536   -0.5394 N   0  0  0  0  0  0  0  0  0  0  0  0
    4.1747   -0.8582   -0.2322 C   0  0  0  0  0  0  0  0  0  0  0  0
    5.2527    0.0328    0.4373 C   0  0  0  0  0  0  0  0  0  0  0  0
    6.6125   -0.6791    0.7200 C   0  0  0  0  0  0  0  0  0  0  0  0
    7.5283    0.3137    1.4686 C   0  0  0  0  0  0  0  0  0  0  0  0
    7.3107   -1.0862   -0.5955 C   0  0  0  0  0  0  0  0  0  0  0  0
    6.4196   -1.9263    1.6100 C   0  0  0  0  0  0  0  0  0  0  0  0
    2.2397    0.4297    0.6335 C   0  0  0  0  0  0  0  0  0  0  0  0
    0.7856    0.8236    0.2888 C   0  0  0  0  0  0  0  0  0  0  0  0
   -0.8199    1.5416   -1.5404 C   0  0  0  0  0  0  0  0  0  0  0  0
   -1.0520    1.8929   -2.7298 O   0  0  0  0  0  0  0  0  0  0  0  0
   -1.7705    1.9045   -0.5275 N   0  0  0  0  0  0  0  0  0  0  0  0
   -5.0190    5.2559    0.1667 H   0  0  0  0  0  0  0  0  0  0  0  0
   -5.2302    4.2040    1.6265 H   0  0  0  0  0  0  0  0  0  0  0  0
   -3.5736    4.6318    1.0423 H   0  0  0  0  0  0  0  0  0  0  0  0
   -3.9756    3.3791   -1.0658 H   0  0  0  0  0  0  0  0  0  0  0  0
   -6.7002    2.6226    0.1903 H   0  0  0  0  0  0  0  0  0  0  0  0
   -6.4248    3.7130   -1.2306 H   0  0  0  0  0  0  0  0  0  0  0  0
   -6.0323    1.9694   -1.3547 H   0  0  0  0  0  0  0  0  0  0  0  0
   -3.4930    2.2527    1.5152 H   0  0  0  0  0  0  0  0  0  0  0  0
   -4.8139    1.2389    0.9312 H   0  0  0  0  0  0  0  0  0  0  0  0
   -2.6443    0.2918    0.4630 H   0  0  0  0  0  0  0  0  0  0  0  0
   -3.9654    1.2274   -2.1527 H   0  0  0  0  0  0  0  0  0  0  0  0
   -2.7778   -0.0393   -2.0939 H   0  0  0  0  0  0  0  0  0  0  0  0
   -6.5356   -0.8251    0.4397 H   0  0  0  0  0  0  0  0  0  0  0  0
   -6.7668   -2.5157    2.2129 H   0  0  0  0  0  0  0  0  0  0  0  0
   -4.9869   -4.1945    2.5742 H   0  0  0  0  0  0  0  0  0  0  0  0
   -2.9897   -4.2051    1.1533 H   0  0  0  0  0  0  0  0  0  0  0  0
   -2.1870   -3.6596   -1.1747 H   0  0  0  0  0  0  0  0  0  0  0  0
   -2.4115   -2.0591   -1.8214 H   0  0  0  0  0  0  0  0  0  0  0  0
   -0.8840   -2.9938    0.6899 H   0  0  0  0  0  0  0  0  0  0  0  0
   -1.3132   -1.3034    0.5770 H   0  0  0  0  0  0  0  0  0  0  0  0
    1.0521   -1.9166   -0.1403 H   0  0  0  0  0  0  0  0  0  0  0  0
    0.3685   -2.8795   -1.4525 H   0  0  0  0  0  0  0  0  0  0  0  0
    1.0608   -0.9694   -2.5106 H   0  0  0  0  0  0  0  0  0  0  0  0
   -0.6534   -0.7906   -2.4684 H   0  0  0  0  0  0  0  0  0  0  0  0
    1.4675    1.3427   -3.0978 H   0  0  0  0  0  0  0  0  0  0  0  0
    1.6404    2.4917   -1.7443 H   0  0  0  0  0  0  0  0  0  0  0  0
    3.4147    0.2956   -2.5487 H   0  0  0  0  0  0  0  0  0  0  0  0
    3.7020    1.6421   -1.3924 H   0  0  0  0  0  0  0  0  0  0  0  0
    3.9342   -1.7103    0.4405 H   0  0  0  0  0  0  0  0  0  0  0  0
    4.5703   -1.2991   -1.1716 H   0  0  0  0  0  0  0  0  0  0  0  0
    4.8526    0.4068    1.4043 H   0  0  0  0  0  0  0  0  0  0  0  0
    5.4500    0.9180   -0.2031 H   0  0  0  0  0  0  0  0  0  0  0  0
    7.6996    1.2262    0.8576 H   0  0  0  0  0  0  0  0  0  0  0  0
    8.5167   -0.1458    1.6890 H   0  0  0  0  0  0  0  0  0  0  0  0
    7.0694    0.6244    2.4335 H   0  0  0  0  0  0  0  0  0  0  0  0
    6.7439   -1.8710   -1.1320 H   0  0  0  0  0  0  0  0  0  0  0  0
    7.4202   -0.2080   -1.2647 H   0  0  0  0  0  0  0  0  0  0  0  0
    8.3237   -1.4938   -0.3892 H   0  0  0  0  0  0  0  0  0  0  0  0
    7.4036   -2.3405    1.9192 H   0  0  0  0  0  0  0  0  0  0  0  0
    5.8451   -1.6667    2.5267 H   0  0  0  0  0  0  0  0  0  0  0  0
    5.8803   -2.7311    1.0656 H   0  0  0  0  0  0  0  0  0  0  0  0
    2.7895    1.3337    0.9820 H   0  0  0  0  0  0  0  0  0  0  0  0
    2.2257   -0.3038    1.4709 H   0  0  0  0  0  0  0  0  0  0  0  0
    0.6548    1.8805    0.6150 H   0  0  0  0  0  0  0  0  0  0  0  0
    0.0825    0.2488    0.9126 H   0  0  0  0  0  0  0  0  0  0  0  0
   -1.6905    2.8726   -0.1371 H   0  0  0  0  0  0  0  0  0  0  0  0
  1  2  1  0
  2  3  1  0
  2  4  1  0
  4  5  1  0
  5  6  1  0
  6  7  1  0
  7  8  1  0
  8  9  2  0
  9 10  1  0
 10 11  2  0
 11 12  1  0
 12 13  2  0
 13 14  1  0
 14 15  1  0
 15 16  1  0
 16 17  1  0
 17 18  1  0
 18 19  1  0
 19 20  1  0
 20 21  1  0
 21 22  1  0
 22 23  1  0
 23 24  1  0
 24 25  1  0
 24 26  1  0
 24 27  1  0
 21 28  1  0
 28 29  1  0
 18 30  1  0
 30 31  2  0
 30 32  1  0
 32  5  1  0
 13  8  1  0
 29 18  1  0
  1 33  1  0
  1 34  1  0
  1 35  1  0
  2 36  1  0
  3 37  1  0
  3 38  1  0
  3 39  1  0
  4 40  1  0
  4 41  1  0
  5 42  1  0
  6 43  1  0
  6 44  1  0
  9 45  1  0
 10 46  1  0
 11 47  1  0
 12 48  1  0
 14 49  1  0
 14 50  1  0
 15 51  1  0
 15 52  1  0
 16 53  1  0
 16 54  1  0
 17 55  1  0
 17 56  1  0
 19 57  1  0
 19 58  1  0
 20 59  1  0
 20 60  1  0
 22 61  1  0
 22 62  1  0
 23 63  1  0
 23 64  1  0
 25 65  1  0
 25 66  1  0
 25 67  1  0
 26 68  1  0
 26 69  1  0
 26 70  1  0
 27 71  1  0
 27 72  1  0
 27 73  1  0
 28 74  1  0
 28 75  1  0
 29 76  1  0
 29 77  1  0
 32 78  1  0
M  END
$$$$
