
     RDKit          3D

 61 63  0  0  0  0  0  0  0  0999 V2000
   -6.0335    1.1525   -1.3090 C   0  0  0  0  0  0  0  0  0  0  0  0
   -4.6281    1.0628   -0.8869 N   0  0  0  0  0  0  0  0  0  0  0  0
   -4.2005   -0.3273   -0.5944 C   0  0  0  0  0  0  0  0  0  0  0  0
   -5.1122   -1.0824    0.4024 C   0  0  0  0  0  0  0  0  0  0  0  0
   -4.4726   -2.3738    0.9431 C   0  0  0  0  0  0  0  0  0  0  0  0
   -3.2822   -2.1071    1.8902 C   0  0  0  0  0  0  0  0  0  0  0  0
   -1.9149   -2.3184    1.2192 C   0  0  0  0  0  0  0  0  0  0  0  0
   -0.9959   -1.3405    1.7008 O   0  0  0  0  0  0  0  0  0  0  0  0
    0.3078   -1.1663    1.2119 C   0  0  0  0  0  0  0  0  0  0  0  0
    0.9583   -2.1721    0.4764 C   0  0  0  0  0  0  0  0  0  0  0  0
    2.2554   -1.9774   -0.0009 C   0  0  0  0  0  0  0  0  0  0  0  0
    2.9307   -0.7712    0.2430 C   0  0  0  0  0  0  0  0  0  0  0  0
    4.3149   -0.5538   -0.2424 C   0  0  0  0  0  0  0  0  0  0  0  0
    5.0605    0.2604    0.3689 O   0  0  0  0  0  0  0  0  0  0  0  0
    4.8178   -1.2459   -1.3989 N   0  0  0  0  0  0  0  0  0  0  0  0
    6.2110   -1.1425   -1.8231 C   0  0  0  0  0  0  0  0  0  0  0  0
    6.4491    0.1762   -2.5695 C   0  0  0  0  0  0  0  0  0  0  0  0
    7.9051    0.3171   -3.0145 C   0  0  0  0  0  0  0  0  0  0  0  0
    8.7425    0.4156   -1.8948 O   0  0  0  0  0  0  0  0  0  0  0  0
    2.2847    0.2313    0.9840 C   0  0  0  0  0  0  0  0  0  0  0  0
    0.9784    0.0460    1.4660 C   0  0  0  0  0  0  0  0  0  0  0  0
    0.2720    1.1897    2.1537 C   0  0  0  0  0  0  0  0  0  0  0  0
   -0.6218    1.9125    1.1778 C   0  0  0  0  0  0  0  0  0  0  0  0
   -0.0603    2.7267    0.1789 C   0  0  0  0  0  0  0  0  0  0  0  0
   -0.8766    3.3309   -0.7800 C   0  0  0  0  0  0  0  0  0  0  0  0
   -2.2585    3.1221   -0.7582 C   0  0  0  0  0  0  0  0  0  0  0  0
   -2.8347    2.3115    0.2300 C   0  0  0  0  0  0  0  0  0  0  0  0
   -2.0121    1.7189    1.2035 C   0  0  0  0  0  0  0  0  0  0  0  0
   -4.3134    2.0200    0.1976 C   0  0  0  0  0  0  0  0  0  0  0  0
   -6.2487    0.3983   -2.0950 H   0  0  0  0  0  0  0  0  0  0  0  0
   -6.2273    2.1518   -1.7538 H   0  0  0  0  0  0  0  0  0  0  0  0
   -6.7206    1.0037   -0.4468 H   0  0  0  0  0  0  0  0  0  0  0  0
   -3.1583   -0.3087   -0.2231 H   0  0  0  0  0  0  0  0  0  0  0  0
   -4.1641   -0.8983   -1.5479 H   0  0  0  0  0  0  0  0  0  0  0  0
   -6.0554   -1.3610   -0.1149 H   0  0  0  0  0  0  0  0  0  0  0  0
   -5.3915   -0.4382    1.2602 H   0  0  0  0  0  0  0  0  0  0  0  0
   -4.1852   -3.0439    0.1037 H   0  0  0  0  0  0  0  0  0  0  0  0
   -5.2561   -2.9122    1.5192 H   0  0  0  0  0  0  0  0  0  0  0  0
   -3.3528   -2.7824    2.7695 H   0  0  0  0  0  0  0  0  0  0  0  0
   -3.3500   -1.0776    2.2990 H   0  0  0  0  0  0  0  0  0  0  0  0
   -1.9890   -2.2197    0.1133 H   0  0  0  0  0  0  0  0  0  0  0  0
   -1.5433   -3.3412    1.4511 H   0  0  0  0  0  0  0  0  0  0  0  0
    0.4723   -3.1169    0.2775 H   0  0  0  0  0  0  0  0  0  0  0  0
    2.7347   -2.7858   -0.5356 H   0  0  0  0  0  0  0  0  0  0  0  0
    4.1756   -1.8251   -1.9823 H   0  0  0  0  0  0  0  0  0  0  0  0
    6.8780   -1.2207   -0.9377 H   0  0  0  0  0  0  0  0  0  0  0  0
    6.4427   -1.9922   -2.5014 H   0  0  0  0  0  0  0  0  0  0  0  0
    6.1839    1.0396   -1.9206 H   0  0  0  0  0  0  0  0  0  0  0  0
    5.7962    0.2063   -3.4708 H   0  0  0  0  0  0  0  0  0  0  0  0
    8.0027    1.2390   -3.6274 H   0  0  0  0  0  0  0  0  0  0  0  0
    8.1943   -0.5538   -3.6430 H   0  0  0  0  0  0  0  0  0  0  0  0
    9.6726    0.3837   -2.2419 H   0  0  0  0  0  0  0  0  0  0  0  0
    2.7886    1.1729    1.1663 H   0  0  0  0  0  0  0  0  0  0  0  0
   -0.3124    0.8059    3.0185 H   0  0  0  0  0  0  0  0  0  0  0  0
    1.0085    1.9079    2.5764 H   0  0  0  0  0  0  0  0  0  0  0  0
    1.0091    2.8869    0.1397 H   0  0  0  0  0  0  0  0  0  0  0  0
   -0.4366    3.9592   -1.5424 H   0  0  0  0  0  0  0  0  0  0  0  0
   -2.8780    3.5813   -1.5185 H   0  0  0  0  0  0  0  0  0  0  0  0
   -2.4539    1.0938    1.9702 H   0  0  0  0  0  0  0  0  0  0  0  0
   -4.8440    2.9831    0.0299 H   0  0  0  0  0  0  0  0  0  0  0  0
   -4.6631    1.6484    1.1834 H   0  0  0  0  0  0  0  0  0  0  0  0
  1  2  1  0
  2  3  1  0
  3  4  1  0
  4  5  1  0
  5  6  1  0
  6  7  1  0
  7  8  1  0
  8  9  1  0
  9 10  2  0
 10 11  1  0
 11 12  2  0
 12 13  1  0
 13 14  2  0
 13 15  1  0
 15 16  1  0
 16 17  1  0
 17 18  1  0
 18 19  1  0
 12 20  1  0
 20 21  2  0
 21 22  1  0
 22 23  1  0
 23 24  1  0
 24 25  2  0
 25 26  1  0
 26 27  2  0
 27 28  1  0
 27 29  1  0
 29  2  1  0
 21  9  1  0
 28 23  2  0
  1 30  1  0
  1 31  1  0
  1 32  1  0
  3 33  1  0
  3 34  1  0
  4 35  1  0
  4 36  1  0
  5 37  1  0
  5 38  1  0
  6 39  1  0
  6 40  1  0
  7 41  1  0
  7 42  1  0
 10 43  1  0
 11 44  1  0
 15 45  1  0
 16 46  1  0
 16 47  1  0
 17 48  1  0
 17 49  1  0
 18 50  1  0
 18 51  1  0
 19 52  1  0
 20 53  1  0
 22 54  1  0
 22 55  1  0
 24 56  1  0
 25 57  1  0
 26 58  1  0
 28 59  1  0
 29 60  1  0
 29 61  1  0
M  END
$$$$
