
     RDKit          3D

 74 77  0  0  0  0  0  0  0  0999 V2000
   -1.3190    5.7031   -1.0591 C   0  0  0  0  0  0  0  0  0  0  0  0
   -2.6814    5.1434   -0.6349 C   0  0  0  0  0  0  0  0  0  0  0  0
   -2.5518    3.8875    0.2466 C   0  0  0  0  0  0  0  0  0  0  0  0
   -2.3542    2.5997   -0.5803 C   0  0  0  0  0  0  0  0  0  0  0  0
   -1.8387    1.4934    0.2654 N   0  0  0  0  0  0  0  0  0  0  0  0
   -2.8548    0.9627    1.2049 C   0  0  0  0  0  0  0  0  0  0  0  0
   -3.9893    0.1652    0.5273 C   0  0  0  0  0  0  0  0  0  0  0  0
   -3.9472   -1.1703    1.0156 O   0  0  0  0  0  0  0  0  0  0  0  0
   -4.0764   -2.2893    0.1904 C   0  0  0  0  0  0  0  0  0  0  0  0
   -5.1801   -2.4164   -0.6681 C   0  0  0  0  0  0  0  0  0  0  0  0
   -5.3052   -3.5347   -1.4891 C   0  0  0  0  0  0  0  0  0  0  0  0
   -4.3353   -4.5358   -1.4542 C   0  0  0  0  0  0  0  0  0  0  0  0
   -3.2303   -4.4159   -0.6095 C   0  0  0  0  0  0  0  0  0  0  0  0
   -3.0834   -3.2898    0.2156 C   0  0  0  0  0  0  0  0  0  0  0  0
   -1.8168   -3.1121    1.0289 C   0  0  0  0  0  0  0  0  0  0  0  0
   -0.5916   -2.9543    0.1100 C   0  0  0  0  0  0  0  0  0  0  0  0
    0.6090   -2.2716    0.7909 C   0  0  0  0  0  0  0  0  0  0  0  0
    0.5361   -0.7375    1.0705 C   0  0  0  0  0  0  0  0  0  0  0  0
    0.3989    0.2933   -0.1217 C   0  0  0  0  0  0  0  0  0  0  0  0
    1.2038   -0.1880   -1.3724 C   0  0  0  0  0  0  0  0  0  0  0  0
    2.7245   -0.2538   -1.1214 C   0  0  0  0  0  0  0  0  0  0  0  0
    3.2124    0.9190   -0.3756 N   0  0  0  0  0  0  0  0  0  0  0  0
    4.5523    0.9324    0.1724 C   0  0  0  0  0  0  0  0  0  0  0  0
    4.9820    1.9479    0.7862 O   0  0  0  0  0  0  0  0  0  0  0  0
    5.4329   -0.2482    0.0746 C   0  0  0  0  0  0  0  0  0  0  0  0
    5.9732   -0.6197   -1.1633 C   0  0  0  0  0  0  0  0  0  0  0  0
    6.7715   -1.7129   -1.2586 N   0  0  0  0  0  0  0  0  0  0  0  0
    7.0610   -2.4589   -0.1614 C   0  0  0  0  0  0  0  0  0  0  0  0
    6.5546   -2.1161    1.0534 N   0  0  0  0  0  0  0  0  0  0  0  0
    5.7439   -1.0342    1.2013 C   0  0  0  0  0  0  0  0  0  0  0  0
    5.2046   -0.7086    2.5661 C   0  0  0  0  0  0  0  0  0  0  0  0
    2.3372    2.0865   -0.2573 C   0  0  0  0  0  0  0  0  0  0  0  0
    0.9732    1.6969    0.3366 C   0  0  0  0  0  0  0  0  0  0  0  0
   -1.1221    0.4446   -0.5175 C   0  0  0  0  0  0  0  0  0  0  0  0
   -0.7282    4.9422   -1.6119 H   0  0  0  0  0  0  0  0  0  0  0  0
   -1.4721    6.5830   -1.7236 H   0  0  0  0  0  0  0  0  0  0  0  0
   -0.7452    6.0344   -0.1678 H   0  0  0  0  0  0  0  0  0  0  0  0
   -3.2941    4.9246   -1.5379 H   0  0  0  0  0  0  0  0  0  0  0  0
   -3.2147    5.9325   -0.0514 H   0  0  0  0  0  0  0  0  0  0  0  0
   -1.7096    4.0128    0.9669 H   0  0  0  0  0  0  0  0  0  0  0  0
   -3.4936    3.7939    0.8335 H   0  0  0  0  0  0  0  0  0  0  0  0
   -1.6193    2.8197   -1.3877 H   0  0  0  0  0  0  0  0  0  0  0  0
   -3.3114    2.3216   -1.0790 H   0  0  0  0  0  0  0  0  0  0  0  0
   -3.2852    1.7800    1.8123 H   0  0  0  0  0  0  0  0  0  0  0  0
   -2.3394    0.3233    1.9564 H   0  0  0  0  0  0  0  0  0  0  0  0
   -4.9768    0.6193    0.7742 H   0  0  0  0  0  0  0  0  0  0  0  0
   -3.8875    0.1699   -0.5806 H   0  0  0  0  0  0  0  0  0  0  0  0
   -5.9400   -1.6473   -0.6927 H   0  0  0  0  0  0  0  0  0  0  0  0
   -6.1525   -3.6320   -2.1517 H   0  0  0  0  0  0  0  0  0  0  0  0
   -4.4313   -5.4025   -2.0936 H   0  0  0  0  0  0  0  0  0  0  0  0
   -2.4744   -5.1947   -0.6128 H   0  0  0  0  0  0  0  0  0  0  0  0
   -1.9028   -2.2383    1.7061 H   0  0  0  0  0  0  0  0  0  0  0  0
   -1.6718   -4.0014    1.6800 H   0  0  0  0  0  0  0  0  0  0  0  0
   -0.8456   -2.4540   -0.8404 H   0  0  0  0  0  0  0  0  0  0  0  0
   -0.2681   -3.9771   -0.1883 H   0  0  0  0  0  0  0  0  0  0  0  0
    0.7889   -2.7813    1.7620 H   0  0  0  0  0  0  0  0  0  0  0  0
    1.4981   -2.5041    0.1845 H   0  0  0  0  0  0  0  0  0  0  0  0
   -0.2598   -0.5481    1.8156 H   0  0  0  0  0  0  0  0  0  0  0  0
    1.4837   -0.5099    1.6064 H   0  0  0  0  0  0  0  0  0  0  0  0
    0.8464   -1.1748   -1.7287 H   0  0  0  0  0  0  0  0  0  0  0  0
    1.0367    0.5222   -2.2141 H   0  0  0  0  0  0  0  0  0  0  0  0
    2.9761   -1.1704   -0.5477 H   0  0  0  0  0  0  0  0  0  0  0  0
    3.2546   -0.3195   -2.1012 H   0  0  0  0  0  0  0  0  0  0  0  0
    5.7548   -0.0384   -2.0494 H   0  0  0  0  0  0  0  0  0  0  0  0
    7.6952   -3.3298   -0.2521 H   0  0  0  0  0  0  0  0  0  0  0  0
    4.1081   -0.5543    2.5107 H   0  0  0  0  0  0  0  0  0  0  0  0
    5.4076   -1.5405    3.2760 H   0  0  0  0  0  0  0  0  0  0  0  0
    5.6877    0.2154    2.9490 H   0  0  0  0  0  0  0  0  0  0  0  0
    2.1853    2.5213   -1.2712 H   0  0  0  0  0  0  0  0  0  0  0  0
    2.7853    2.8847    0.3738 H   0  0  0  0  0  0  0  0  0  0  0  0
    0.3072    2.5381    0.0572 H   0  0  0  0  0  0  0  0  0  0  0  0
    1.0448    1.7448    1.4481 H   0  0  0  0  0  0  0  0  0  0  0  0
   -1.1997    0.6535   -1.6071 H   0  0  0  0  0  0  0  0  0  0  0  0
   -1.6312   -0.5261   -0.4065 H   0  0  0  0  0  0  0  0  0  0  0  0
  1  2  1  0
  2  3  1  0
  3  4  1  0
  4  5  1  0
  5  6  1  0
  6  7  1  0
  7  8  1  0
  8  9  1  0
  9 10  2  0
 10 11  1  0
 11 12  2  0
 12 13  1  0
 13 14  2  0
 14 15  1  0
 15 16  1  0
 16 17  1  0
 17 18  1  0
 18 19  1  0
 19 20  1  0
 20 21  1  0
 21 22  1  0
 22 23  1  0
 23 24  2  0
 23 25  1  0
 25 26  2  0
 26 27  1  0
 27 28  2  0
 28 29  1  0
 29 30  2  0
 30 31  1  0
 22 32  1  0
 32 33  1  0
 19 34  1  0
 34  5  1  0
 14  9  1  0
 33 19  1  0
 30 25  1  0
  1 35  1  0
  1 36  1  0
  1 37  1  0
  2 38  1  0
  2 39  1  0
  3 40  1  0
  3 41  1  0
  4 42  1  0
  4 43  1  0
  6 44  1  0
  6 45  1  0
  7 46  1  0
  7 47  1  0
 10 48  1  0
 11 49  1  0
 12 50  1  0
 13 51  1  0
 15 52  1  0
 15 53  1  0
 16 54  1  0
 16 55  1  0
 17 56  1  0
 17 57  1  0
 18 58  1  0
 18 59  1  0
 20 60  1  0
 20 61  1  0
 21 62  1  0
 21 63  1  0
 26 64  1  0
 28 65  1  0
 31 66  1  0
 31 67  1  0
 31 68  1  0
 32 69  1  0
 32 70  1  0
 33 71  1  0
 33 72  1  0
 34 73  1  0
 34 74  1  0
M  END
$$$$
