
     RDKit          3D

 60 63  0  0  0  0  0  0  0  0999 V2000
    5.1599    1.8269    0.6243 C   0  0  0  0  0  0  0  0  0  0  0  0
    5.3640    0.9614   -0.9179 S   0  0  0  0  0  6  0  0  0  0  0  0
    6.0445   -0.3556   -0.6694 O   0  0  0  0  0  0  0  0  0  0  0  0
    6.2213    1.7928   -1.8300 O   0  0  0  0  0  0  0  0  0  0  0  0
    3.8105    0.7177   -1.6632 N   0  0  0  0  0  0  0  0  0  0  0  0
    3.0346   -0.3373   -0.9819 C   0  0  0  0  0  0  0  0  0  0  0  0
    3.2240   -1.7038   -1.6751 C   0  0  0  0  0  0  0  0  0  0  0  0
    2.3406   -2.7759   -1.0357 C   0  0  0  0  0  0  0  0  0  0  0  0
    0.8717   -2.3198   -0.9609 C   0  0  0  0  0  0  0  0  0  0  0  0
    0.7127   -1.0016   -0.3015 N   0  0  0  0  0  0  0  0  0  0  0  0
    0.8676   -1.0747    1.1755 C   0  0  0  0  0  0  0  0  0  0  0  0
   -0.4347   -1.5521    1.8322 C   0  0  0  0  0  0  0  0  0  0  0  0
   -1.5113   -0.7172    1.4142 O   0  0  0  0  0  0  0  0  0  0  0  0
   -2.8861   -1.0030    1.5142 C   0  0  0  0  0  0  0  0  0  0  0  0
   -3.3815   -2.0522    2.3212 C   0  0  0  0  0  0  0  0  0  0  0  0
   -2.5574   -2.8106    3.0851 F   0  0  0  0  0  0  0  0  0  0  0  0
   -4.7526   -2.3121    2.3729 C   0  0  0  0  0  0  0  0  0  0  0  0
   -5.6455   -1.5367    1.6366 C   0  0  0  0  0  0  0  0  0  0  0  0
   -5.1766   -0.4869    0.8479 C   0  0  0  0  0  0  0  0  0  0  0  0
   -3.8016   -0.2022    0.7764 C   0  0  0  0  0  0  0  0  0  0  0  0
   -3.3327    0.9721   -0.0771 C   0  0  0  0  0  0  0  0  0  0  0  0
   -2.7183    2.0712    0.8304 C   0  0  0  0  0  0  0  0  0  0  0  0
   -1.9170    3.1158    0.0478 C   0  0  0  0  0  0  0  0  0  0  0  0
   -0.8638    2.4390   -0.8341 C   0  0  0  0  0  0  0  0  0  0  0  0
   -1.5957    1.5962   -1.8883 C   0  0  0  0  0  0  0  0  0  0  0  0
   -2.4209    0.4792   -1.2370 C   0  0  0  0  0  0  0  0  0  0  0  0
   -0.0522    1.6165   -0.0071 O   0  0  0  0  0  0  0  0  0  0  0  0
    1.2763    1.4715   -0.4743 C   0  0  0  0  0  0  0  0  0  0  0  0
    1.5314    0.0334   -0.9931 C   0  0  0  0  0  0  0  0  0  0  0  0
    6.1560    2.0768    1.0441 H   0  0  0  0  0  0  0  0  0  0  0  0
    4.5884    2.7618    0.4504 H   0  0  0  0  0  0  0  0  0  0  0  0
    4.6095    1.1899    1.3464 H   0  0  0  0  0  0  0  0  0  0  0  0
    3.9627    0.4861   -2.6719 H   0  0  0  0  0  0  0  0  0  0  0  0
    3.3525   -0.4326    0.0801 H   0  0  0  0  0  0  0  0  0  0  0  0
    4.2850   -2.0229   -1.6071 H   0  0  0  0  0  0  0  0  0  0  0  0
    2.9621   -1.6237   -2.7536 H   0  0  0  0  0  0  0  0  0  0  0  0
    2.7275   -3.0269   -0.0266 H   0  0  0  0  0  0  0  0  0  0  0  0
    2.3997   -3.7033   -1.6452 H   0  0  0  0  0  0  0  0  0  0  0  0
    0.4601   -2.2590   -1.9925 H   0  0  0  0  0  0  0  0  0  0  0  0
    0.2757   -3.0992   -0.4439 H   0  0  0  0  0  0  0  0  0  0  0  0
    1.1077   -0.0837    1.6094 H   0  0  0  0  0  0  0  0  0  0  0  0
    1.6951   -1.7504    1.4726 H   0  0  0  0  0  0  0  0  0  0  0  0
   -0.6322   -2.6045    1.5426 H   0  0  0  0  0  0  0  0  0  0  0  0
   -0.3317   -1.4989    2.9371 H   0  0  0  0  0  0  0  0  0  0  0  0
   -5.1268   -3.1165    2.9933 H   0  0  0  0  0  0  0  0  0  0  0  0
   -6.7068   -1.7442    1.6842 H   0  0  0  0  0  0  0  0  0  0  0  0
   -5.8925    0.1080    0.2943 H   0  0  0  0  0  0  0  0  0  0  0  0
   -4.2121    1.4466   -0.5693 H   0  0  0  0  0  0  0  0  0  0  0  0
   -2.0570    1.6400    1.6091 H   0  0  0  0  0  0  0  0  0  0  0  0
   -3.5387    2.5882    1.3746 H   0  0  0  0  0  0  0  0  0  0  0  0
   -2.6053    3.7303   -0.5740 H   0  0  0  0  0  0  0  0  0  0  0  0
   -1.4122    3.7992    0.7651 H   0  0  0  0  0  0  0  0  0  0  0  0
   -0.2948    3.2541   -1.3376 H   0  0  0  0  0  0  0  0  0  0  0  0
   -2.2674    2.2476   -2.4901 H   0  0  0  0  0  0  0  0  0  0  0  0
   -0.8596    1.1508   -2.5900 H   0  0  0  0  0  0  0  0  0  0  0  0
   -3.0597    0.0122   -2.0181 H   0  0  0  0  0  0  0  0  0  0  0  0
   -1.7259   -0.3141   -0.9115 H   0  0  0  0  0  0  0  0  0  0  0  0
    1.5677    2.2021   -1.2635 H   0  0  0  0  0  0  0  0  0  0  0  0
    1.9532    1.6800    0.3813 H   0  0  0  0  0  0  0  0  0  0  0  0
    1.2081    0.0539   -2.0590 H   0  0  0  0  0  0  0  0  0  0  0  0
  1  2  1  0
  2  3  2  0
  2  4  2  0
  2  5  1  0
  5  6  1  0
  6  7  1  0
  7  8  1  0
  8  9  1  0
  9 10  1  0
 10 11  1  0
 11 12  1  0
 12 13  1  0
 13 14  1  0
 14 15  2  0
 15 16  1  0
 15 17  1  0
 17 18  2  0
 18 19  1  0
 19 20  2  0
 20 21  1  0
 21 22  1  0
 22 23  1  0
 23 24  1  0
 24 25  1  0
 25 26  1  0
 24 27  1  0
 27 28  1  0
 28 29  1  0
 29  6  1  0
 29 10  1  0
 20 14  1  0
 26 21  1  0
  1 30  1  0
  1 31  1  0
  1 32  1  0
  5 33  1  0
  6 34  1  0
  7 35  1  0
  7 36  1  0
  8 37  1  0
  8 38  1  0
  9 39  1  0
  9 40  1  0
 11 41  1  0
 11 42  1  0
 12 43  1  0
 12 44  1  0
 17 45  1  0
 18 46  1  0
 19 47  1  0
 21 48  1  0
 22 49  1  0
 22 50  1  0
 23 51  1  0
 23 52  1  0
 24 53  1  0
 25 54  1  0
 25 55  1  0
 26 56  1  0
 26 57  1  0
 28 58  1  0
 28 59  1  0
 29 60  1  0
M  END
$$$$
