
     RDKit          3D

 75 76  0  0  0  0  0  0  0  0999 V2000
   -3.0680    3.4026   -2.0182 C   0  0  0  0  0  0  0  0  0  0  0  0
   -1.8635    2.6625   -1.5140 C   0  0  0  0  0  0  0  0  0  0  0  0
   -0.7909    2.7580   -2.1711 O   0  0  0  0  0  0  0  0  0  0  0  0
   -1.9019    1.8778   -0.2962 N   0  0  0  0  0  0  0  0  0  0  0  0
   -3.0952    1.9401    0.5655 C   0  0  0  0  0  0  0  0  0  0  0  0
   -2.8426    1.5655    2.0376 C   0  0  0  0  0  0  0  0  0  0  0  0
   -4.1562    1.2729    2.7858 C   0  0  0  0  0  0  0  0  0  0  0  0
   -4.6532   -0.1802    2.6196 C   0  0  0  0  0  0  0  0  0  0  0  0
   -5.5137   -0.4244    1.3532 C   0  0  0  0  0  0  0  0  0  0  0  0
   -5.0057   -1.5737    0.4414 C   0  0  0  0  0  0  0  0  0  0  0  0
   -4.5031   -1.1527   -0.9770 C   0  0  0  0  0  0  0  0  0  0  0  0
   -3.0796   -0.6923   -1.1812 N   0  0  0  0  0  0  0  0  0  0  0  0
   -2.6592   -1.0479   -2.5836 C   0  0  0  0  0  0  0  0  0  0  0  0
   -1.1655   -0.8258   -2.8955 C   0  0  0  0  0  0  0  0  0  0  0  0
   -3.4796   -0.2456   -3.6138 C   0  0  0  0  0  0  0  0  0  0  0  0
   -2.1429   -1.1969   -0.1456 C   0  0  0  0  0  0  0  0  0  0  0  0
   -0.8523   -0.3979    0.0078 C   0  0  0  0  0  0  0  0  0  0  0  0
    0.3119   -1.1344    0.3065 C   0  0  0  0  0  0  0  0  0  0  0  0
    1.5363   -0.5027    0.5747 C   0  0  0  0  0  0  0  0  0  0  0  0
    2.7437   -1.3150    0.8636 C   0  0  0  0  0  0  0  0  0  0  0  0
    2.7913   -2.5128    0.4697 O   0  0  0  0  0  0  0  0  0  0  0  0
    3.8495   -0.7658    1.6004 N   0  0  0  0  0  0  0  0  0  0  0  0
    5.1376   -1.4611    1.7159 C   0  0  0  0  0  0  0  0  0  0  0  0
    5.9793   -0.8561    2.8573 C   0  0  0  0  0  0  0  0  0  0  0  0
    7.2188   -1.5032    2.9674 O   0  0  0  0  0  0  0  0  0  0  0  0
    5.8851   -1.4985    0.3553 C   0  0  0  0  0  0  0  0  0  0  0  0
    6.5171   -0.1676   -0.1298 C   0  0  0  0  0  0  0  0  0  0  0  0
    7.3124   -0.4167   -1.4190 C   0  0  0  0  0  0  0  0  0  0  0  0
    5.4704    0.9293   -0.3733 C   0  0  0  0  0  0  0  0  0  0  0  0
    1.5956    0.8959    0.5516 C   0  0  0  0  0  0  0  0  0  0  0  0
    0.4542    1.6459    0.2813 C   0  0  0  0  0  0  0  0  0  0  0  0
   -0.7755    1.0267    0.0099 C   0  0  0  0  0  0  0  0  0  0  0  0
   -2.9340    3.6742   -3.0869 H   0  0  0  0  0  0  0  0  0  0  0  0
   -3.9753    2.7691   -1.9351 H   0  0  0  0  0  0  0  0  0  0  0  0
   -3.2075    4.3332   -1.4302 H   0  0  0  0  0  0  0  0  0  0  0  0
   -3.8639    1.3058    0.1150 H   0  0  0  0  0  0  0  0  0  0  0  0
   -3.5026    2.9738    0.5686 H   0  0  0  0  0  0  0  0  0  0  0  0
   -2.3373    2.4277    2.5253 H   0  0  0  0  0  0  0  0  0  0  0  0
   -2.1602    0.7028    2.1556 H   0  0  0  0  0  0  0  0  0  0  0  0
   -3.9589    1.4338    3.8684 H   0  0  0  0  0  0  0  0  0  0  0  0
   -4.9487    1.9993    2.5009 H   0  0  0  0  0  0  0  0  0  0  0  0
   -5.2893   -0.4067    3.5042 H   0  0  0  0  0  0  0  0  0  0  0  0
   -3.8054   -0.8897    2.7026 H   0  0  0  0  0  0  0  0  0  0  0  0
   -5.7122    0.5023    0.7811 H   0  0  0  0  0  0  0  0  0  0  0  0
   -6.5287   -0.7118    1.7104 H   0  0  0  0  0  0  0  0  0  0  0  0
   -4.3340   -2.2880    0.9584 H   0  0  0  0  0  0  0  0  0  0  0  0
   -5.8995   -2.2101    0.2495 H   0  0  0  0  0  0  0  0  0  0  0  0
   -5.1808   -0.3540   -1.3467 H   0  0  0  0  0  0  0  0  0  0  0  0
   -4.7146   -2.0380   -1.6195 H   0  0  0  0  0  0  0  0  0  0  0  0
   -2.8411   -2.1313   -2.7707 H   0  0  0  0  0  0  0  0  0  0  0  0
   -0.9629   -1.0131   -3.9718 H   0  0  0  0  0  0  0  0  0  0  0  0
   -0.8579    0.2125   -2.6707 H   0  0  0  0  0  0  0  0  0  0  0  0
   -0.5326   -1.5496   -2.3437 H   0  0  0  0  0  0  0  0  0  0  0  0
   -4.5536   -0.5184   -3.5781 H   0  0  0  0  0  0  0  0  0  0  0  0
   -3.3755    0.8423   -3.4254 H   0  0  0  0  0  0  0  0  0  0  0  0
   -3.1349   -0.4616   -4.6477 H   0  0  0  0  0  0  0  0  0  0  0  0
   -2.5793   -1.1218    0.8549 H   0  0  0  0  0  0  0  0  0  0  0  0
   -1.9397   -2.2763   -0.3276 H   0  0  0  0  0  0  0  0  0  0  0  0
    0.2599   -2.2162    0.3456 H   0  0  0  0  0  0  0  0  0  0  0  0
    3.6931    0.1023    2.1606 H   0  0  0  0  0  0  0  0  0  0  0  0
    4.9284   -2.5156    2.0048 H   0  0  0  0  0  0  0  0  0  0  0  0
    5.4211   -0.9417    3.8176 H   0  0  0  0  0  0  0  0  0  0  0  0
    6.1519    0.2259    2.6812 H   0  0  0  0  0  0  0  0  0  0  0  0
    7.0408   -2.3892    3.3779 H   0  0  0  0  0  0  0  0  0  0  0  0
    5.1982   -1.8824   -0.4298 H   0  0  0  0  0  0  0  0  0  0  0  0
    6.6964   -2.2545    0.4448 H   0  0  0  0  0  0  0  0  0  0  0  0
    7.2413    0.1976    0.6292 H   0  0  0  0  0  0  0  0  0  0  0  0
    6.6407   -0.7663   -2.2324 H   0  0  0  0  0  0  0  0  0  0  0  0
    8.0965   -1.1844   -1.2459 H   0  0  0  0  0  0  0  0  0  0  0  0
    7.8177    0.5165   -1.7477 H   0  0  0  0  0  0  0  0  0  0  0  0
    5.0721    1.3037    0.5902 H   0  0  0  0  0  0  0  0  0  0  0  0
    4.6352    0.5469   -0.9984 H   0  0  0  0  0  0  0  0  0  0  0  0
    5.9306    1.7989   -0.8889 H   0  0  0  0  0  0  0  0  0  0  0  0
    2.5257    1.4195    0.7243 H   0  0  0  0  0  0  0  0  0  0  0  0
    0.5262    2.7265    0.2784 H   0  0  0  0  0  0  0  0  0  0  0  0
  1  2  1  0
  2  3  2  0
  2  4  1  0
  4  5  1  0
  5  6  1  0
  6  7  1  0
  7  8  1  0
  8  9  1  0
  9 10  1  0
 10 11  1  0
 11 12  1  0
 12 13  1  0
 13 14  1  0
 13 15  1  0
 12 16  1  0
 16 17  1  0
 17 18  2  0
 18 19  1  0
 19 20  1  0
 20 21  2  0
 20 22  1  0
 22 23  1  0
 23 24  1  0
 24 25  1  0
 23 26  1  0
 26 27  1  0
 27 28  1  0
 27 29  1  0
 19 30  2  0
 30 31  1  0
 31 32  2  0
 32  4  1  0
 32 17  1  0
  1 33  1  0
  1 34  1  0
  1 35  1  0
  5 36  1  0
  5 37  1  0
  6 38  1  0
  6 39  1  0
  7 40  1  0
  7 41  1  0
  8 42  1  0
  8 43  1  0
  9 44  1  0
  9 45  1  0
 10 46  1  0
 10 47  1  0
 11 48  1  0
 11 49  1  0
 13 50  1  0
 14 51  1  0
 14 52  1  0
 14 53  1  0
 15 54  1  0
 15 55  1  0
 15 56  1  0
 16 57  1  0
 16 58  1  0
 18 59  1  0
 22 60  1  0
 23 61  1  0
 24 62  1  0
 24 63  1  0
 25 64  1  0
 26 65  1  0
 26 66  1  0
 27 67  1  0
 28 68  1  0
 28 69  1  0
 28 70  1  0
 29 71  1  0
 29 72  1  0
 29 73  1  0
 30 74  1  0
 31 75  1  0
M  END
$$$$
