
     RDKit          3D

 77 80  0  0  0  0  0  0  0  0999 V2000
    9.9109    0.3930   -2.1050 C   0  0  0  0  0  0  0  0  0  0  0  0
    9.1639   -0.4139   -1.1992 O   0  0  0  0  0  0  0  0  0  0  0  0
    8.0043    0.0085   -0.5325 C   0  0  0  0  0  0  0  0  0  0  0  0
    7.4382    1.2823   -0.7340 C   0  0  0  0  0  0  0  0  0  0  0  0
    6.2809    1.6563   -0.0442 C   0  0  0  0  0  0  0  0  0  0  0  0
    5.6748    0.7680    0.8578 C   0  0  0  0  0  0  0  0  0  0  0  0
    4.4252    1.1629    1.6016 C   0  0  0  0  0  0  0  0  0  0  0  0
    3.2965    0.2843    1.2289 N   0  0  0  0  0  0  0  0  0  0  0  0
    2.7953    0.6172   -0.1196 C   0  0  0  0  0  0  0  0  0  0  0  0
    1.6881   -0.3605   -0.5430 C   0  0  0  0  0  0  0  0  0  0  0  0
    0.5218   -0.4512    0.4825 C   0  0  0  0  0  0  0  0  0  0  0  0
   -0.4371    0.7699    0.3646 C   0  0  0  0  0  0  0  0  0  0  0  0
   -0.2077    2.2845    0.0354 C   0  0  0  0  0  0  0  0  0  0  0  0
   -1.5778    3.1049   -0.1455 C   0  0  0  0  0  0  0  0  0  0  0  0
   -2.7808    2.1536   -0.3653 C   0  0  0  0  0  0  0  0  0  0  0  0
   -4.2674    2.3057   -0.2804 C   0  0  0  0  0  0  0  0  0  0  0  0
   -4.8419    3.5648   -0.4903 C   0  0  0  0  0  0  0  0  0  0  0  0
   -6.2283    3.7160   -0.4791 C   0  0  0  0  0  0  0  0  0  0  0  0
   -7.0554    2.6125   -0.2712 C   0  0  0  0  0  0  0  0  0  0  0  0
   -6.5073    1.3431   -0.0688 C   0  0  0  0  0  0  0  0  0  0  0  0
   -5.1208    1.1404   -0.0628 C   0  0  0  0  0  0  0  0  0  0  0  0
   -4.6877   -0.2174    0.1637 O   0  0  0  0  0  0  0  0  0  0  0  0
   -3.3257   -0.6315    0.3364 C   0  0  0  0  0  0  0  0  0  0  0  0
   -2.9338   -2.0865    0.6246 C   0  0  0  0  0  0  0  0  0  0  0  0
   -3.1670   -3.0417   -0.5692 C   0  0  0  0  0  0  0  0  0  0  0  0
   -4.6527   -3.2664   -0.9437 C   0  0  0  0  0  0  0  0  0  0  0  0
   -5.4494   -3.9259    0.1930 C   0  0  0  0  0  0  0  0  0  0  0  0
   -4.7413   -4.1317   -2.2085 C   0  0  0  0  0  0  0  0  0  0  0  0
   -1.4936   -2.0853    1.0317 N   0  0  0  0  0  0  0  0  0  0  0  0
   -0.3726   -1.7042    0.1803 C   0  0  0  0  0  0  0  0  0  0  0  0
   -0.1884   -2.3482   -0.8871 O   0  0  0  0  0  0  0  0  0  0  0  0
    1.1026   -0.6007    1.9138 C   0  0  0  0  0  0  0  0  0  0  0  0
    2.2057    0.4177    2.2108 C   0  0  0  0  0  0  0  0  0  0  0  0
    6.2385   -0.5020    1.0562 C   0  0  0  0  0  0  0  0  0  0  0  0
    7.3939   -0.8760    0.3645 C   0  0  0  0  0  0  0  0  0  0  0  0
   10.2924    1.2976   -1.5835 H   0  0  0  0  0  0  0  0  0  0  0  0
    9.2772    0.6884   -2.9683 H   0  0  0  0  0  0  0  0  0  0  0  0
   10.7754   -0.1911   -2.4816 H   0  0  0  0  0  0  0  0  0  0  0  0
    7.8823    1.9890   -1.4219 H   0  0  0  0  0  0  0  0  0  0  0  0
    5.8567    2.6377   -0.2170 H   0  0  0  0  0  0  0  0  0  0  0  0
    4.6506    1.0642    2.6868 H   0  0  0  0  0  0  0  0  0  0  0  0
    4.1695    2.2332    1.4259 H   0  0  0  0  0  0  0  0  0  0  0  0
    3.6168    0.5266   -0.8632 H   0  0  0  0  0  0  0  0  0  0  0  0
    2.4363    1.6664   -0.1598 H   0  0  0  0  0  0  0  0  0  0  0  0
    1.3015   -0.0668   -1.5437 H   0  0  0  0  0  0  0  0  0  0  0  0
    2.1607   -1.3621   -0.6501 H   0  0  0  0  0  0  0  0  0  0  0  0
   -1.0242    0.7448    1.3000 H   0  0  0  0  0  0  0  0  0  0  0  0
   -0.9754    0.4831   -0.5427 H   0  0  0  0  0  0  0  0  0  0  0  0
    0.3630    2.3599   -0.9145 H   0  0  0  0  0  0  0  0  0  0  0  0
    0.3961    2.7569    0.8375 H   0  0  0  0  0  0  0  0  0  0  0  0
   -1.4913    3.7946   -1.0124 H   0  0  0  0  0  0  0  0  0  0  0  0
   -1.7569    3.7256    0.7607 H   0  0  0  0  0  0  0  0  0  0  0  0
   -2.5940    1.5965   -1.3058 H   0  0  0  0  0  0  0  0  0  0  0  0
   -2.7030    1.6895    0.5971 H   0  0  0  0  0  0  0  0  0  0  0  0
   -4.2155    4.4297   -0.6698 H   0  0  0  0  0  0  0  0  0  0  0  0
   -6.6647    4.6933   -0.6398 H   0  0  0  0  0  0  0  0  0  0  0  0
   -8.1304    2.7406   -0.2706 H   0  0  0  0  0  0  0  0  0  0  0  0
   -7.1708    0.5024    0.0889 H   0  0  0  0  0  0  0  0  0  0  0  0
   -2.9891   -0.1486    1.2695 H   0  0  0  0  0  0  0  0  0  0  0  0
   -2.8150   -0.4027   -0.6040 H   0  0  0  0  0  0  0  0  0  0  0  0
   -3.5262   -2.4375    1.4955 H   0  0  0  0  0  0  0  0  0  0  0  0
   -2.6401   -2.6369   -1.4599 H   0  0  0  0  0  0  0  0  0  0  0  0
   -2.7024   -4.0244   -0.3309 H   0  0  0  0  0  0  0  0  0  0  0  0
   -5.1246   -2.2905   -1.1840 H   0  0  0  0  0  0  0  0  0  0  0  0
   -4.9316   -4.8390    0.5577 H   0  0  0  0  0  0  0  0  0  0  0  0
   -5.5870   -3.2186    1.0355 H   0  0  0  0  0  0  0  0  0  0  0  0
   -6.4642   -4.2080   -0.1594 H   0  0  0  0  0  0  0  0  0  0  0  0
   -4.1990   -3.6438   -3.0473 H   0  0  0  0  0  0  0  0  0  0  0  0
   -4.2970   -5.1345   -2.0292 H   0  0  0  0  0  0  0  0  0  0  0  0
   -5.8014   -4.2588   -2.5174 H   0  0  0  0  0  0  0  0  0  0  0  0
   -1.3001   -2.1757    2.0544 H   0  0  0  0  0  0  0  0  0  0  0  0
    1.5368   -1.6192    2.0284 H   0  0  0  0  0  0  0  0  0  0  0  0
    0.3052   -0.4982    2.6812 H   0  0  0  0  0  0  0  0  0  0  0  0
    2.5869    0.2039    3.2339 H   0  0  0  0  0  0  0  0  0  0  0  0
    1.7914    1.4497    2.2150 H   0  0  0  0  0  0  0  0  0  0  0  0
    5.7816   -1.2019    1.7453 H   0  0  0  0  0  0  0  0  0  0  0  0
    7.8197   -1.8580    0.5273 H   0  0  0  0  0  0  0  0  0  0  0  0
  1  2  1  0
  2  3  1  0
  3  4  2  0
  4  5  1  0
  5  6  2  0
  6  7  1  0
  7  8  1  0
  8  9  1  0
  9 10  1  0
 10 11  1  0
 11 12  1  0
 12 13  1  0
 13 14  1  0
 14 15  1  0
 15 16  1  0
 16 17  2  0
 17 18  1  0
 18 19  2  0
 19 20  1  0
 20 21  2  0
 21 22  1  0
 22 23  1  0
 23 24  1  0
 24 25  1  0
 25 26  1  0
 26 27  1  0
 26 28  1  0
 24 29  1  0
 29 30  1  0
 30 31  2  0
 11 32  1  0
 32 33  1  0
  6 34  1  0
 34 35  2  0
 35  3  1  0
 33  8  1  0
 30 11  1  0
 21 16  1  0
  1 36  1  0
  1 37  1  0
  1 38  1  0
  4 39  1  0
  5 40  1  0
  7 41  1  0
  7 42  1  0
  9 43  1  0
  9 44  1  0
 10 45  1  0
 10 46  1  0
 12 47  1  0
 12 48  1  0
 13 49  1  0
 13 50  1  0
 14 51  1  0
 14 52  1  0
 15 53  1  0
 15 54  1  0
 17 55  1  0
 18 56  1  0
 19 57  1  0
 20 58  1  0
 23 59  1  0
 23 60  1  0
 24 61  1  0
 25 62  1  0
 25 63  1  0
 26 64  1  0
 27 65  1  0
 27 66  1  0
 27 67  1  0
 28 68  1  0
 28 69  1  0
 28 70  1  0
 29 71  1  0
 32 72  1  0
 32 73  1  0
 33 74  1  0
 33 75  1  0
 34 76  1  0
 35 77  1  0
M  END
$$$$
