
     RDKit          3D

 69 71  0  0  0  0  0  0  0  0999 V2000
    0.4229    4.6321   -0.8392 C   0  0  0  0  0  0  0  0  0  0  0  0
    0.1227    3.1756   -1.0206 C   0  0  0  0  0  0  0  0  0  0  0  0
    0.3379    2.6539   -2.1470 O   0  0  0  0  0  0  0  0  0  0  0  0
   -0.3910    2.3642    0.0562 N   0  0  0  0  0  0  0  0  0  0  0  0
   -1.2085    2.9591    1.1365 C   0  0  0  0  0  0  0  0  0  0  0  0
   -2.3453    3.8929    0.6189 C   0  0  0  0  0  0  0  0  0  0  0  0
   -3.7526    3.5147    1.1534 C   0  0  0  0  0  0  0  0  0  0  0  0
   -4.5045    2.4909    0.2734 C   0  0  0  0  0  0  0  0  0  0  0  0
   -3.6440    1.2639    0.0006 C   0  0  0  0  0  0  0  0  0  0  0  0
   -4.3094    0.1668   -0.8243 C   0  0  0  0  0  0  0  0  0  0  0  0
   -3.2403   -0.6685   -1.5569 C   0  0  0  0  0  0  0  0  0  0  0  0
   -2.0365   -0.8376   -0.7122 N   0  0  0  0  0  0  0  0  0  0  0  0
   -2.0529   -1.8894    0.3385 C   0  0  0  0  0  0  0  0  0  0  0  0
   -2.3245   -3.3333   -0.1641 C   0  0  0  0  0  0  0  0  0  0  0  0
   -1.2794   -3.8082   -1.1776 C   0  0  0  0  0  0  0  0  0  0  0  0
   -2.3525   -4.2938    1.0353 C   0  0  0  0  0  0  0  0  0  0  0  0
   -0.7555   -0.3717   -1.2900 C   0  0  0  0  0  0  0  0  0  0  0  0
    0.3046   -0.0484   -0.2488 C   0  0  0  0  0  0  0  0  0  0  0  0
    1.2635   -1.0430    0.0318 C   0  0  0  0  0  0  0  0  0  0  0  0
    2.2911   -0.8174    0.9512 C   0  0  0  0  0  0  0  0  0  0  0  0
    3.3435   -1.8229    1.1402 C   0  0  0  0  0  0  0  0  0  0  0  0
    3.0844   -2.8746    1.7825 O   0  0  0  0  0  0  0  0  0  0  0  0
    4.6545   -1.6149    0.5888 N   0  0  0  0  0  0  0  0  0  0  0  0
    5.7850   -2.4799    0.8656 C   0  0  0  0  0  0  0  0  0  0  0  0
    6.8426   -2.1173   -0.1683 C   0  0  0  0  0  0  0  0  0  0  0  0
    6.4145   -0.7797   -0.7642 C   0  0  0  0  0  0  0  0  0  0  0  0
    4.9415   -0.6122   -0.4245 C   0  0  0  0  0  0  0  0  0  0  0  0
    2.3733    0.4077    1.6150 C   0  0  0  0  0  0  0  0  0  0  0  0
    1.4484    1.4115    1.3429 C   0  0  0  0  0  0  0  0  0  0  0  0
    0.4167    1.2169    0.4063 C   0  0  0  0  0  0  0  0  0  0  0  0
   -0.4353    5.2438   -1.1905 H   0  0  0  0  0  0  0  0  0  0  0  0
    0.6439    4.8544    0.2237 H   0  0  0  0  0  0  0  0  0  0  0  0
    1.3204    4.9084   -1.4341 H   0  0  0  0  0  0  0  0  0  0  0  0
   -1.6435    2.1358    1.7440 H   0  0  0  0  0  0  0  0  0  0  0  0
   -0.5557    3.5222    1.8386 H   0  0  0  0  0  0  0  0  0  0  0  0
   -2.3800    3.9328   -0.4913 H   0  0  0  0  0  0  0  0  0  0  0  0
   -2.1132    4.9242    0.9610 H   0  0  0  0  0  0  0  0  0  0  0  0
   -4.3714    4.4380    1.1950 H   0  0  0  0  0  0  0  0  0  0  0  0
   -3.6846    3.1390    2.2001 H   0  0  0  0  0  0  0  0  0  0  0  0
   -4.7861    2.9703   -0.6887 H   0  0  0  0  0  0  0  0  0  0  0  0
   -5.4379    2.1788    0.7911 H   0  0  0  0  0  0  0  0  0  0  0  0
   -3.3277    0.8177    0.9646 H   0  0  0  0  0  0  0  0  0  0  0  0
   -2.7608    1.6084   -0.5685 H   0  0  0  0  0  0  0  0  0  0  0  0
   -4.9011   -0.4898   -0.1495 H   0  0  0  0  0  0  0  0  0  0  0  0
   -5.0044    0.6080   -1.5724 H   0  0  0  0  0  0  0  0  0  0  0  0
   -3.6631   -1.6351   -1.8835 H   0  0  0  0  0  0  0  0  0  0  0  0
   -2.9811   -0.1305   -2.4903 H   0  0  0  0  0  0  0  0  0  0  0  0
   -2.8481   -1.6230    1.0662 H   0  0  0  0  0  0  0  0  0  0  0  0
   -1.1120   -1.8775    0.9236 H   0  0  0  0  0  0  0  0  0  0  0  0
   -3.3263   -3.3902   -0.6377 H   0  0  0  0  0  0  0  0  0  0  0  0
   -0.2613   -3.7821   -0.7390 H   0  0  0  0  0  0  0  0  0  0  0  0
   -1.3115   -3.1731   -2.0830 H   0  0  0  0  0  0  0  0  0  0  0  0
   -1.4976   -4.8508   -1.4937 H   0  0  0  0  0  0  0  0  0  0  0  0
   -3.1356   -3.9790    1.7602 H   0  0  0  0  0  0  0  0  0  0  0  0
   -1.3773   -4.2956    1.5627 H   0  0  0  0  0  0  0  0  0  0  0  0
   -2.5806   -5.3309    0.7014 H   0  0  0  0  0  0  0  0  0  0  0  0
   -0.3749   -1.1212   -2.0097 H   0  0  0  0  0  0  0  0  0  0  0  0
   -0.9367    0.5424   -1.8836 H   0  0  0  0  0  0  0  0  0  0  0  0
    1.2423   -1.9845   -0.5022 H   0  0  0  0  0  0  0  0  0  0  0  0
    6.1638   -2.2861    1.8917 H   0  0  0  0  0  0  0  0  0  0  0  0
    5.4928   -3.5469    0.7707 H   0  0  0  0  0  0  0  0  0  0  0  0
    6.8654   -2.8863   -0.9721 H   0  0  0  0  0  0  0  0  0  0  0  0
    7.8533   -2.0342    0.2913 H   0  0  0  0  0  0  0  0  0  0  0  0
    6.9998    0.0406   -0.3043 H   0  0  0  0  0  0  0  0  0  0  0  0
    6.5716   -0.7670   -1.8656 H   0  0  0  0  0  0  0  0  0  0  0  0
    4.7539    0.4070   -0.0261 H   0  0  0  0  0  0  0  0  0  0  0  0
    4.3071   -0.7954   -1.3198 H   0  0  0  0  0  0  0  0  0  0  0  0
    3.1791    0.6003    2.3142 H   0  0  0  0  0  0  0  0  0  0  0  0
    1.5643    2.3697    1.8308 H   0  0  0  0  0  0  0  0  0  0  0  0
  1  2  1  0
  2  3  2  0
  2  4  1  0
  4  5  1  0
  5  6  1  0
  6  7  1  0
  7  8  1  0
  8  9  1  0
  9 10  1  0
 10 11  1  0
 11 12  1  0
 12 13  1  0
 13 14  1  0
 14 15  1  0
 14 16  1  0
 12 17  1  0
 17 18  1  0
 18 19  2  0
 19 20  1  0
 20 21  1  0
 21 22  2  0
 21 23  1  0
 23 24  1  0
 24 25  1  0
 25 26  1  0
 26 27  1  0
 20 28  2  0
 28 29  1  0
 29 30  2  0
 30  4  1  0
 30 18  1  0
 27 23  1  0
  1 31  1  0
  1 32  1  0
  1 33  1  0
  5 34  1  0
  5 35  1  0
  6 36  1  0
  6 37  1  0
  7 38  1  0
  7 39  1  0
  8 40  1  0
  8 41  1  0
  9 42  1  0
  9 43  1  0
 10 44  1  0
 10 45  1  0
 11 46  1  0
 11 47  1  0
 13 48  1  0
 13 49  1  0
 14 50  1  0
 15 51  1  0
 15 52  1  0
 15 53  1  0
 16 54  1  0
 16 55  1  0
 16 56  1  0
 17 57  1  0
 17 58  1  0
 19 59  1  0
 24 60  1  0
 24 61  1  0
 25 62  1  0
 25 63  1  0
 26 64  1  0
 26 65  1  0
 27 66  1  0
 27 67  1  0
 28 68  1  0
 29 69  1  0
M  END
$$$$
