
     RDKit          3D

 92 98  0  0  0  0  0  0  0  0999 V2000
    4.8234   -6.7952   -2.7402 C   0  0  0  0  0  0  0  0  0  0  0  0
    5.4943   -5.5395   -2.6892 O   0  0  0  0  0  0  0  0  0  0  0  0
    5.0355   -4.4294   -1.9636 C   0  0  0  0  0  0  0  0  0  0  0  0
    3.8642   -4.4689   -1.1817 C   0  0  0  0  0  0  0  0  0  0  0  0
    3.4452   -3.3390   -0.4751 C   0  0  0  0  0  0  0  0  0  0  0  0
    4.1766   -2.1403   -0.5467 C   0  0  0  0  0  0  0  0  0  0  0  0
    3.7968   -0.9773    0.1582 C   0  0  0  0  0  0  0  0  0  0  0  0
    2.6368   -0.9316    0.9441 O   0  0  0  0  0  0  0  0  0  0  0  0
    1.3175   -1.0074    0.4008 C   0  0  2  0  0  0  0  0  0  0  0  0
    0.7444    0.3863    0.1494 C   0  0  0  0  0  0  0  0  0  0  0  0
   -0.7263    0.3199    0.5835 C   0  0  1  0  0  0  0  0  0  0  0  0
   -1.6571    0.1865   -0.5960 C   0  0  0  0  0  0  0  0  0  0  0  0
   -1.6118   -0.8390   -1.3305 O   0  0  0  0  0  0  0  0  0  0  0  0
   -2.5959    1.2284   -0.8918 N   0  0  0  0  0  0  0  0  0  0  0  0
   -4.0434    1.0817   -0.6853 C   0  0  2  0  0  0  0  0  0  0  0  0
   -4.9439    1.6568   -1.7442 C   0  0  0  0  0  0  0  0  0  0  0  0
   -5.4410    0.8964   -2.6132 O   0  0  0  0  0  0  0  0  0  0  0  0
   -5.2312    3.0638   -1.7544 N   0  0  0  0  0  0  0  0  0  0  0  0
   -6.4626    3.7740   -2.7604 S   0  0  0  0  0  6  0  0  0  0  0  0
   -5.9883    5.1257   -3.2064 O   0  0  0  0  0  0  0  0  0  0  0  0
   -6.6872    2.9275   -3.9794 O   0  0  0  0  0  0  0  0  0  0  0  0
   -8.0239    3.9743   -1.8936 C   0  0  0  0  0  0  0  0  0  0  0  0
   -8.4058    2.8270   -0.9773 C   0  0  0  0  0  0  0  0  0  0  0  0
   -7.9070    4.1351   -0.3868 C   0  0  0  0  0  0  0  0  0  0  0  0
   -4.4568    1.4108    0.7497 C   0  0  0  0  0  0  0  0  0  0  0  0
   -4.5252   -0.0316    0.2581 C   0  0  1  0  0  0  0  0  0  0  0  0
   -5.9452   -0.5424    0.1522 C   0  0  0  0  0  0  0  0  0  0  0  0
   -6.4133   -1.5472    0.9145 C   0  0  0  0  0  0  0  0  0  0  0  0
   -5.5480   -2.3570    1.8514 C   0  0  0  0  0  0  0  0  0  0  0  0
   -4.7896   -3.4423    1.0662 C   0  0  0  0  0  0  0  0  0  0  0  0
   -3.7215   -4.1602    1.9089 C   0  0  0  0  0  0  0  0  0  0  0  0
   -2.3610   -3.4448    1.9135 C   0  0  0  0  0  0  0  0  0  0  0  0
   -2.3595   -2.2911    2.8134 N   0  0  0  0  0  0  0  0  0  0  0  0
   -1.8266   -1.0081    2.4530 C   0  0  0  0  0  0  0  0  0  0  0  0
   -2.2579    0.0149    3.0422 O   0  0  0  0  0  0  0  0  0  0  0  0
   -0.8271   -0.8655    1.4269 N   0  0  0  0  0  0  0  0  0  0  0  0
    0.3820   -1.6693    1.4088 C   0  0  0  0  0  0  0  0  0  0  0  0
    4.6240    0.1506    0.1230 C   0  0  0  0  0  0  0  0  0  0  0  0
    5.8072    0.1264   -0.6299 C   0  0  0  0  0  0  0  0  0  0  0  0
    6.7147    1.2819   -0.6546 C   0  0  0  0  0  0  0  0  0  0  0  0
    6.5302    2.4058    0.0728 N   0  0  0  0  0  0  0  0  0  0  0  0
    7.5315    3.3099   -0.1130 C   0  0  0  0  0  0  0  0  0  0  0  0
    7.5533    4.6180    0.6352 C   0  0  0  0  0  0  0  0  0  0  0  0
    8.6108    4.5696    1.7442 C   0  0  0  0  0  0  0  0  0  0  0  0
    7.7994    5.8023   -0.3096 C   0  0  0  0  0  0  0  0  0  0  0  0
    8.5422    2.8927   -0.9792 C   0  0  0  0  0  0  0  0  0  0  0  0
    8.1382    1.3655   -1.5486 S   0  0  0  0  0  0  0  0  0  0  0  0
    6.1385   -0.9948   -1.3247 N   0  0  0  0  0  0  0  0  0  0  0  0
    5.3691   -2.1126   -1.3055 C   0  0  0  0  0  0  0  0  0  0  0  0
    5.7817   -3.2463   -2.0162 C   0  0  0  0  0  0  0  0  0  0  0  0
    5.3964   -7.4885   -3.3878 H   0  0  0  0  0  0  0  0  0  0  0  0
    3.8050   -6.6624   -3.1653 H   0  0  0  0  0  0  0  0  0  0  0  0
    4.7541   -7.2345   -1.7210 H   0  0  0  0  0  0  0  0  0  0  0  0
    3.2767   -5.3735   -1.1014 H   0  0  0  0  0  0  0  0  0  0  0  0
    2.5603   -3.4265    0.1382 H   0  0  0  0  0  0  0  0  0  0  0  0
    1.2999   -1.5810   -0.5516 H   0  0  0  0  0  0  0  0  0  0  0  0
    1.2827    1.1251    0.7861 H   0  0  0  0  0  0  0  0  0  0  0  0
    0.8717    0.6940   -0.9113 H   0  0  0  0  0  0  0  0  0  0  0  0
   -0.9804    1.2351    1.1633 H   0  0  0  0  0  0  0  0  0  0  0  0
   -2.2514    2.0260   -1.4868 H   0  0  0  0  0  0  0  0  0  0  0  0
   -4.6694    3.7008   -1.1481 H   0  0  0  0  0  0  0  0  0  0  0  0
   -8.8702    4.5108   -2.3816 H   0  0  0  0  0  0  0  0  0  0  0  0
   -7.6781    1.9877   -0.9136 H   0  0  0  0  0  0  0  0  0  0  0  0
   -9.5037    2.6792   -0.8721 H   0  0  0  0  0  0  0  0  0  0  0  0
   -6.8886    4.0709    0.0533 H   0  0  0  0  0  0  0  0  0  0  0  0
   -8.7080    4.7453    0.0852 H   0  0  0  0  0  0  0  0  0  0  0  0
   -5.4423    1.9169    0.8700 H   0  0  0  0  0  0  0  0  0  0  0  0
   -3.6099    1.6091    1.4377 H   0  0  0  0  0  0  0  0  0  0  0  0
   -3.7445   -0.6945    0.6635 H   0  0  0  0  0  0  0  0  0  0  0  0
   -6.6438   -0.0593   -0.5203 H   0  0  0  0  0  0  0  0  0  0  0  0
   -7.4653   -1.8132    0.8293 H   0  0  0  0  0  0  0  0  0  0  0  0
   -6.2106   -2.8549    2.5904 H   0  0  0  0  0  0  0  0  0  0  0  0
   -4.8641   -1.6981    2.4287 H   0  0  0  0  0  0  0  0  0  0  0  0
   -5.5336   -4.1983    0.7267 H   0  0  0  0  0  0  0  0  0  0  0  0
   -4.3247   -3.0204    0.1478 H   0  0  0  0  0  0  0  0  0  0  0  0
   -3.5673   -5.1652    1.4593 H   0  0  0  0  0  0  0  0  0  0  0  0
   -4.0788   -4.3255    2.9455 H   0  0  0  0  0  0  0  0  0  0  0  0
   -1.5846   -4.1610    2.2597 H   0  0  0  0  0  0  0  0  0  0  0  0
   -2.1017   -3.1378    0.8765 H   0  0  0  0  0  0  0  0  0  0  0  0
   -2.8332   -2.3861    3.7414 H   0  0  0  0  0  0  0  0  0  0  0  0
    0.8361   -1.6883    2.4252 H   0  0  0  0  0  0  0  0  0  0  0  0
    0.1599   -2.7087    1.0947 H   0  0  0  0  0  0  0  0  0  0  0  0
    4.3416    1.0360    0.6802 H   0  0  0  0  0  0  0  0  0  0  0  0
    6.5561    4.7680    1.1132 H   0  0  0  0  0  0  0  0  0  0  0  0
    8.3929    3.7350    2.4461 H   0  0  0  0  0  0  0  0  0  0  0  0
    8.6014    5.5149    2.3252 H   0  0  0  0  0  0  0  0  0  0  0  0
    9.6248    4.4241    1.3160 H   0  0  0  0  0  0  0  0  0  0  0  0
    8.8211    5.7660   -0.7451 H   0  0  0  0  0  0  0  0  0  0  0  0
    7.6869    6.7577    0.2451 H   0  0  0  0  0  0  0  0  0  0  0  0
    7.0574    5.7925   -1.1368 H   0  0  0  0  0  0  0  0  0  0  0  0
    9.4332    3.4473   -1.2419 H   0  0  0  0  0  0  0  0  0  0  0  0
    6.6958   -3.2154   -2.5963 H   0  0  0  0  0  0  0  0  0  0  0  0
  1  2  1  0
  2  3  1  0
  3  4  2  0
  4  5  1  0
  5  6  2  0
  6  7  1  0
  7  8  1  0
  8  9  1  0
  9 10  1  0
 10 11  1  0
 11 12  1  0
 12 13  2  0
 12 14  1  0
 14 15  1  0
 15 16  1  6
 16 17  2  0
 16 18  1  0
 18 19  1  0
 19 20  2  0
 19 21  2  0
 19 22  1  0
 22 23  1  0
 23 24  1  0
 15 25  1  0
 25 26  1  0
 26 27  1  0
 27 28  2  0
 28 29  1  0
 29 30  1  0
 30 31  1  0
 31 32  1  0
 32 33  1  0
 33 34  1  0
 34 35  2  0
 34 36  1  0
 36 37  1  0
  7 38  2  0
 38 39  1  0
 39 40  1  0
 40 41  2  0
 41 42  1  0
 42 43  1  0
 43 44  1  0
 43 45  1  0
 42 46  2  0
 46 47  1  0
 39 48  2  0
 48 49  1  0
 49 50  2  0
 50  3  1  0
 49  6  1  0
 37  9  1  0
 47 40  1  0
 36 11  1  0
 26 15  1  0
 24 22  1  0
  1 51  1  0
  1 52  1  0
  1 53  1  0
  4 54  1  0
  5 55  1  0
  9 56  1  6
 10 57  1  0
 10 58  1  0
 11 59  1  1
 14 60  1  0
 18 61  1  0
 22 62  1  0
 23 63  1  0
 23 64  1  0
 24 65  1  0
 24 66  1  0
 25 67  1  0
 25 68  1  0
 26 69  1  1
 27 70  1  0
 28 71  1  0
 29 72  1  0
 29 73  1  0
 30 74  1  0
 30 75  1  0
 31 76  1  0
 31 77  1  0
 32 78  1  0
 32 79  1  0
 33 80  1  0
 37 81  1  0
 37 82  1  0
 38 83  1  0
 43 84  1  0
 44 85  1  0
 44 86  1  0
 44 87  1  0
 45 88  1  0
 45 89  1  0
 45 90  1  0
 46 91  1  0
 50 92  1  0
M  END
$$$$
