
     RDKit          3D

 65 67  0  0  0  0  0  0  0  0999 V2000
   -4.3047    3.1321    1.4462 C   0  0  0  0  0  0  0  0  0  0  0  0
   -4.5019    1.6147    1.3262 C   0  0  0  0  0  0  0  0  0  0  0  0
   -5.4784    1.1292    2.4055 C   0  0  0  0  0  0  0  0  0  0  0  0
   -3.1362    0.8620    1.4214 C   0  0  0  0  0  0  0  0  0  0  0  0
   -2.7567    0.1156    0.1960 N   0  0  0  0  0  0  0  0  0  0  0  0
   -3.6453   -1.0319   -0.1210 C   0  0  0  0  0  0  0  0  0  0  0  0
   -3.6007   -2.1348    0.9516 C   0  0  0  0  0  0  0  0  0  0  0  0
   -2.2658   -2.4352    1.3196 O   0  0  0  0  0  0  0  0  0  0  0  0
   -1.7629   -3.5961    0.6753 C   0  0  0  0  0  0  0  0  0  0  0  0
   -0.4848   -3.2423   -0.0745 C   0  0  0  0  0  0  0  0  0  0  0  0
    0.3811   -2.5101    0.7907 O   0  0  0  0  0  0  0  0  0  0  0  0
    1.5839   -1.8272    0.5086 C   0  0  0  0  0  0  0  0  0  0  0  0
    2.2982   -1.4193    1.6422 C   0  0  0  0  0  0  0  0  0  0  0  0
    3.4709   -0.6753    1.5396 C   0  0  0  0  0  0  0  0  0  0  0  0
    3.9624   -0.2975    0.2858 C   0  0  0  0  0  0  0  0  0  0  0  0
    5.2060    0.5000    0.1591 C   0  0  0  0  0  0  0  0  0  0  0  0
    5.9022    0.3936   -0.8879 O   0  0  0  0  0  0  0  0  0  0  0  0
    5.6226    1.3984    1.2016 N   0  0  0  0  0  0  0  0  0  0  0  0
    6.8999    2.1090    1.1600 C   0  0  0  0  0  0  0  0  0  0  0  0
    6.8278    3.2904    0.1903 C   0  0  0  0  0  0  0  0  0  0  0  0
    8.0136    4.0352    0.2437 O   0  0  0  0  0  0  0  0  0  0  0  0
    3.2713   -0.7071   -0.8634 C   0  0  0  0  0  0  0  0  0  0  0  0
    2.0938   -1.4803   -0.7846 C   0  0  0  0  0  0  0  0  0  0  0  0
    1.4426   -1.8506   -2.1020 C   0  0  0  0  0  0  0  0  0  0  0  0
    0.3145   -0.9311   -2.5342 C   0  0  0  0  0  0  0  0  0  0  0  0
   -0.0908   -0.9582   -3.8791 C   0  0  0  0  0  0  0  0  0  0  0  0
   -1.2481   -0.2910   -4.2867 C   0  0  0  0  0  0  0  0  0  0  0  0
   -2.0439    0.3697   -3.3496 C   0  0  0  0  0  0  0  0  0  0  0  0
   -1.6686    0.3943   -1.9986 C   0  0  0  0  0  0  0  0  0  0  0  0
   -0.4585   -0.1977   -1.6099 C   0  0  0  0  0  0  0  0  0  0  0  0
   -2.5683    1.0208   -0.9635 C   0  0  0  0  0  0  0  0  0  0  0  0
   -5.2788    3.6564    1.3416 H   0  0  0  0  0  0  0  0  0  0  0  0
   -3.8614    3.3932    2.4312 H   0  0  0  0  0  0  0  0  0  0  0  0
   -3.6325    3.4951    0.6403 H   0  0  0  0  0  0  0  0  0  0  0  0
   -4.9897    1.4339    0.3475 H   0  0  0  0  0  0  0  0  0  0  0  0
   -5.6896    0.0476    2.2710 H   0  0  0  0  0  0  0  0  0  0  0  0
   -5.0544    1.2901    3.4207 H   0  0  0  0  0  0  0  0  0  0  0  0
   -6.4424    1.6763    2.3287 H   0  0  0  0  0  0  0  0  0  0  0  0
   -3.1191    0.1758    2.2931 H   0  0  0  0  0  0  0  0  0  0  0  0
   -2.3165    1.5759    1.6608 H   0  0  0  0  0  0  0  0  0  0  0  0
   -4.6957   -0.7031   -0.2649 H   0  0  0  0  0  0  0  0  0  0  0  0
   -3.3228   -1.5009   -1.0762 H   0  0  0  0  0  0  0  0  0  0  0  0
   -4.1920   -3.0173    0.6157 H   0  0  0  0  0  0  0  0  0  0  0  0
   -4.1336   -1.7838    1.8578 H   0  0  0  0  0  0  0  0  0  0  0  0
   -2.4614   -4.0754   -0.0489 H   0  0  0  0  0  0  0  0  0  0  0  0
   -1.5233   -4.3514    1.4533 H   0  0  0  0  0  0  0  0  0  0  0  0
    0.0199   -4.1700   -0.4191 H   0  0  0  0  0  0  0  0  0  0  0  0
   -0.8052   -2.6415   -0.9370 H   0  0  0  0  0  0  0  0  0  0  0  0
    1.9310   -1.6808    2.6270 H   0  0  0  0  0  0  0  0  0  0  0  0
    3.9951   -0.4122    2.4489 H   0  0  0  0  0  0  0  0  0  0  0  0
    4.9995    1.5692    2.0218 H   0  0  0  0  0  0  0  0  0  0  0  0
    7.1348    2.4928    2.1767 H   0  0  0  0  0  0  0  0  0  0  0  0
    7.7127    1.4113    0.8619 H   0  0  0  0  0  0  0  0  0  0  0  0
    6.6445    2.9351   -0.8483 H   0  0  0  0  0  0  0  0  0  0  0  0
    5.9828    3.9501    0.4799 H   0  0  0  0  0  0  0  0  0  0  0  0
    8.6992    3.5122   -0.2488 H   0  0  0  0  0  0  0  0  0  0  0  0
    3.6504   -0.4104   -1.8348 H   0  0  0  0  0  0  0  0  0  0  0  0
    1.1051   -2.9035   -2.0904 H   0  0  0  0  0  0  0  0  0  0  0  0
    2.2156   -1.8433   -2.9026 H   0  0  0  0  0  0  0  0  0  0  0  0
    0.4742   -1.5237   -4.6101 H   0  0  0  0  0  0  0  0  0  0  0  0
   -1.5507   -0.3213   -5.3254 H   0  0  0  0  0  0  0  0  0  0  0  0
   -2.9621    0.8420   -3.6753 H   0  0  0  0  0  0  0  0  0  0  0  0
   -0.1790   -0.1545   -0.5677 H   0  0  0  0  0  0  0  0  0  0  0  0
   -2.0798    1.9678   -0.6444 H   0  0  0  0  0  0  0  0  0  0  0  0
   -3.5500    1.2891   -1.4133 H   0  0  0  0  0  0  0  0  0  0  0  0
  1  2  1  0
  2  3  1  0
  2  4  1  0
  4  5  1  0
  5  6  1  0
  6  7  1  0
  7  8  1  0
  8  9  1  0
  9 10  1  0
 10 11  1  0
 11 12  1  0
 12 13  2  0
 13 14  1  0
 14 15  2  0
 15 16  1  0
 16 17  2  0
 16 18  1  0
 18 19  1  0
 19 20  1  0
 20 21  1  0
 15 22  1  0
 22 23  2  0
 23 24  1  0
 24 25  1  0
 25 26  1  0
 26 27  2  0
 27 28  1  0
 28 29  2  0
 29 30  1  0
 29 31  1  0
 31  5  1  0
 23 12  1  0
 30 25  2  0
  1 32  1  0
  1 33  1  0
  1 34  1  0
  2 35  1  0
  3 36  1  0
  3 37  1  0
  3 38  1  0
  4 39  1  0
  4 40  1  0
  6 41  1  0
  6 42  1  0
  7 43  1  0
  7 44  1  0
  9 45  1  0
  9 46  1  0
 10 47  1  0
 10 48  1  0
 13 49  1  0
 14 50  1  0
 18 51  1  0
 19 52  1  0
 19 53  1  0
 20 54  1  0
 20 55  1  0
 21 56  1  0
 22 57  1  0
 24 58  1  0
 24 59  1  0
 26 60  1  0
 27 61  1  0
 28 62  1  0
 30 63  1  0
 31 64  1  0
 31 65  1  0
M  END
$$$$
