
     RDKit          3D

 67 69  0  0  0  0  0  0  0  0999 V2000
    6.6593   -2.3481    2.1582 C   0  0  0  0  0  0  0  0  0  0  0  0
    7.4441   -1.3395    1.3201 C   0  0  0  0  0  0  0  0  0  0  0  0
    7.1613   -1.5027   -0.1771 C   0  0  0  0  0  0  0  0  0  0  0  0
    5.7829   -1.2677   -0.4687 O   0  0  0  0  0  0  0  0  0  0  0  0
    5.1435   -0.0168   -0.4391 C   0  0  0  0  0  0  0  0  0  0  0  0
    5.8504    1.1965   -0.3524 C   0  0  0  0  0  0  0  0  0  0  0  0
    5.1609    2.4098   -0.3165 C   0  0  0  0  0  0  0  0  0  0  0  0
    3.7656    2.4271   -0.3565 C   0  0  0  0  0  0  0  0  0  0  0  0
    3.0416    1.2264   -0.4424 C   0  0  0  0  0  0  0  0  0  0  0  0
    1.5564    1.2366   -0.4374 C   0  0  0  0  0  0  0  0  0  0  0  0
    0.8581    2.0842    0.4339 C   0  0  0  0  0  0  0  0  0  0  0  0
   -0.5336    2.0651    0.4798 C   0  0  0  0  0  0  0  0  0  0  0  0
   -1.2658    1.1909   -0.3378 C   0  0  0  0  0  0  0  0  0  0  0  0
   -0.5770    0.3537   -1.2544 C   0  0  0  0  0  0  0  0  0  0  0  0
    0.8291    0.3812   -1.2818 C   0  0  0  0  0  0  0  0  0  0  0  0
   -1.2968   -0.6140   -2.1707 C   0  0  0  0  0  0  0  0  0  0  0  0
   -1.1006   -1.9870   -1.6862 N   0  0  0  0  0  0  0  0  0  0  0  0
   -2.1464   -2.9191   -2.1454 C   0  0  0  0  0  0  0  0  0  0  0  0
   -2.9490   -3.4348   -0.9430 C   0  0  0  0  0  0  0  0  0  0  0  0
   -3.9537   -2.3950   -0.3818 C   0  0  0  0  0  0  0  0  0  0  0  0
   -3.7834   -2.1717    1.1330 C   0  0  0  0  0  0  0  0  0  0  0  0
   -2.4980   -1.3870    1.4787 C   0  0  0  0  0  0  0  0  0  0  0  0
   -2.7412    0.0466    1.9707 C   0  0  0  0  0  0  0  0  0  0  0  0
   -3.4447    0.9826    0.9637 C   0  0  0  0  0  0  0  0  0  0  0  0
   -2.7074    1.2438   -0.2946 N   0  0  0  0  0  0  0  0  0  0  0  0
   -3.3723    1.9472   -1.3734 C   0  0  0  0  0  0  0  0  0  0  0  0
   -2.7411    2.2087   -2.4332 O   0  0  0  0  0  0  0  0  0  0  0  0
   -4.7654    2.5005   -1.2331 C   0  0  0  0  0  0  0  0  0  0  0  0
   -4.7336    3.5829   -0.3289 O   0  0  0  0  0  0  0  0  0  0  0  0
   -5.9984    4.2071   -0.2860 C   0  0  0  0  0  0  0  0  0  0  0  0
    3.7444    0.0099   -0.4993 C   0  0  0  0  0  0  0  0  0  0  0  0
    6.9350   -3.3859    1.8740 H   0  0  0  0  0  0  0  0  0  0  0  0
    6.8972   -2.2002    3.2317 H   0  0  0  0  0  0  0  0  0  0  0  0
    5.5671   -2.2025    2.0153 H   0  0  0  0  0  0  0  0  0  0  0  0
    8.5324   -1.4868    1.4986 H   0  0  0  0  0  0  0  0  0  0  0  0
    7.1829   -0.3124    1.6489 H   0  0  0  0  0  0  0  0  0  0  0  0
    7.4109   -2.5430   -0.4810 H   0  0  0  0  0  0  0  0  0  0  0  0
    7.8109   -0.8281   -0.7733 H   0  0  0  0  0  0  0  0  0  0  0  0
    6.9302    1.2187   -0.3095 H   0  0  0  0  0  0  0  0  0  0  0  0
    5.7110    3.3394   -0.2523 H   0  0  0  0  0  0  0  0  0  0  0  0
    3.2536    3.3784   -0.3300 H   0  0  0  0  0  0  0  0  0  0  0  0
    1.3906    2.7592    1.0932 H   0  0  0  0  0  0  0  0  0  0  0  0
   -1.0470    2.7391    1.1544 H   0  0  0  0  0  0  0  0  0  0  0  0
    1.3615   -0.2628   -1.9741 H   0  0  0  0  0  0  0  0  0  0  0  0
   -0.8924   -0.5152   -3.2038 H   0  0  0  0  0  0  0  0  0  0  0  0
   -2.3735   -0.3660   -2.2342 H   0  0  0  0  0  0  0  0  0  0  0  0
   -0.1667   -2.3294   -2.0203 H   0  0  0  0  0  0  0  0  0  0  0  0
   -1.6660   -3.7966   -2.6389 H   0  0  0  0  0  0  0  0  0  0  0  0
   -2.8254   -2.4740   -2.9056 H   0  0  0  0  0  0  0  0  0  0  0  0
   -2.2370   -3.7815   -0.1612 H   0  0  0  0  0  0  0  0  0  0  0  0
   -3.5191   -4.3387   -1.2607 H   0  0  0  0  0  0  0  0  0  0  0  0
   -3.8815   -1.4200   -0.9021 H   0  0  0  0  0  0  0  0  0  0  0  0
   -4.9842   -2.7693   -0.5655 H   0  0  0  0  0  0  0  0  0  0  0  0
   -4.6827   -1.6527    1.5282 H   0  0  0  0  0  0  0  0  0  0  0  0
   -3.7582   -3.1619    1.6427 H   0  0  0  0  0  0  0  0  0  0  0  0
   -1.7854   -1.3722    0.6372 H   0  0  0  0  0  0  0  0  0  0  0  0
   -1.9701   -1.9295    2.2931 H   0  0  0  0  0  0  0  0  0  0  0  0
   -1.7735    0.4851    2.2830 H   0  0  0  0  0  0  0  0  0  0  0  0
   -3.3645   -0.0010    2.8926 H   0  0  0  0  0  0  0  0  0  0  0  0
   -4.4359    0.5485    0.7347 H   0  0  0  0  0  0  0  0  0  0  0  0
   -3.6228    1.9505    1.4744 H   0  0  0  0  0  0  0  0  0  0  0  0
   -5.4600    1.7042   -0.8833 H   0  0  0  0  0  0  0  0  0  0  0  0
   -5.1166    2.8372   -2.2363 H   0  0  0  0  0  0  0  0  0  0  0  0
   -6.8346    3.4752   -0.1882 H   0  0  0  0  0  0  0  0  0  0  0  0
   -6.1487    4.8395   -1.1885 H   0  0  0  0  0  0  0  0  0  0  0  0
   -6.0323    4.8656    0.6081 H   0  0  0  0  0  0  0  0  0  0  0  0
    3.2056   -0.9280   -0.5503 H   0  0  0  0  0  0  0  0  0  0  0  0
  1  2  1  0
  2  3  1  0
  3  4  1  0
  4  5  1  0
  5  6  2  0
  6  7  1  0
  7  8  2  0
  8  9  1  0
  9 10  1  0
 10 11  2  0
 11 12  1  0
 12 13  2  0
 13 14  1  0
 14 15  2  0
 14 16  1  0
 16 17  1  0
 17 18  1  0
 18 19  1  0
 19 20  1  0
 20 21  1  0
 21 22  1  0
 22 23  1  0
 23 24  1  0
 24 25  1  0
 25 26  1  0
 26 27  2  0
 26 28  1  0
 28 29  1  0
 29 30  1  0
  9 31  2  0
 31  5  1  0
 15 10  1  0
 25 13  1  0
  1 32  1  0
  1 33  1  0
  1 34  1  0
  2 35  1  0
  2 36  1  0
  3 37  1  0
  3 38  1  0
  6 39  1  0
  7 40  1  0
  8 41  1  0
 11 42  1  0
 12 43  1  0
 15 44  1  0
 16 45  1  0
 16 46  1  0
 17 47  1  0
 18 48  1  0
 18 49  1  0
 19 50  1  0
 19 51  1  0
 20 52  1  0
 20 53  1  0
 21 54  1  0
 21 55  1  0
 22 56  1  0
 22 57  1  0
 23 58  1  0
 23 59  1  0
 24 60  1  0
 24 61  1  0
 28 62  1  0
 28 63  1  0
 30 64  1  0
 30 65  1  0
 30 66  1  0
 31 67  1  0
M  END
$$$$
