
     RDKit          3D

 68 70  0  0  0  0  0  0  0  0999 V2000
   -4.4488    3.2662    2.8633 C   0  0  0  0  0  0  0  0  0  0  0  0
   -3.6499    2.0281    2.4598 C   0  0  0  0  0  0  0  0  0  0  0  0
   -2.8530    2.2441    1.1960 C   0  0  0  0  0  0  0  0  0  0  0  0
   -2.4376    3.4049    0.9204 O   0  0  0  0  0  0  0  0  0  0  0  0
   -2.5134    1.1483    0.3180 N   0  0  0  0  0  0  0  0  0  0  0  0
   -2.6097   -0.2502    0.7659 C   0  0  0  0  0  0  0  0  0  0  0  0
   -3.9464   -0.8959    0.3456 C   0  0  0  0  0  0  0  0  0  0  0  0
   -3.7764   -1.9250   -0.7829 C   0  0  0  0  0  0  0  0  0  0  0  0
   -2.8694   -3.0177   -0.3525 N   0  0  0  0  0  0  0  0  0  0  0  0
   -3.6335   -4.1393    0.2206 C   0  0  0  0  0  0  0  0  0  0  0  0
   -1.9538   -3.4815   -1.4247 C   0  0  0  0  0  0  0  0  0  0  0  0
   -0.5537   -2.8590   -1.2410 C   0  0  0  0  0  0  0  0  0  0  0  0
   -0.3582   -1.5688   -2.0567 C   0  0  0  0  0  0  0  0  0  0  0  0
    0.6042   -0.6599   -1.4015 N   0  0  0  0  0  0  0  0  0  0  0  0
    1.9805   -1.0830   -1.2963 C   0  0  0  0  0  0  0  0  0  0  0  0
    2.4728   -1.8284   -2.1875 O   0  0  0  0  0  0  0  0  0  0  0  0
    2.8273   -0.6880   -0.1555 C   0  0  0  0  0  0  0  0  0  0  0  0
    4.1915   -0.8650   -0.0543 C   0  0  0  0  0  0  0  0  0  0  0  0
    4.4896   -0.3561    1.1927 C   0  0  0  0  0  0  0  0  0  0  0  0
    5.8545   -0.2699    1.8081 C   0  0  0  0  0  0  0  0  0  0  0  0
    6.3947    1.1753    1.8048 C   0  0  0  0  0  0  0  0  0  0  0  0
    7.6887    1.2566    2.6239 C   0  0  0  0  0  0  0  0  0  0  0  0
    6.6443    1.6823    0.3756 C   0  0  0  0  0  0  0  0  0  0  0  0
    3.3659    0.0931    1.7828 N   0  0  0  0  0  0  0  0  0  0  0  0
    2.3914   -0.1247    0.9480 O   0  0  0  0  0  0  0  0  0  0  0  0
    0.2081    0.6665   -0.8739 C   0  0  0  0  0  0  0  0  0  0  0  0
   -0.9482    1.2810   -1.6330 C   0  0  0  0  0  0  0  0  0  0  0  0
   -0.7361    1.6526   -2.9729 C   0  0  0  0  0  0  0  0  0  0  0  0
   -1.7782    2.1715   -3.7436 C   0  0  0  0  0  0  0  0  0  0  0  0
   -1.5552    2.5182   -5.0359 F   0  0  0  0  0  0  0  0  0  0  0  0
   -3.0469    2.3307   -3.1854 C   0  0  0  0  0  0  0  0  0  0  0  0
   -4.0590    2.8379   -3.9320 F   0  0  0  0  0  0  0  0  0  0  0  0
   -3.2738    1.9744   -1.8548 C   0  0  0  0  0  0  0  0  0  0  0  0
   -2.2399    1.4430   -1.0664 C   0  0  0  0  0  0  0  0  0  0  0  0
   -5.1352    3.5652    2.0417 H   0  0  0  0  0  0  0  0  0  0  0  0
   -3.7658    4.1101    3.0998 H   0  0  0  0  0  0  0  0  0  0  0  0
   -5.0531    3.0402    3.7676 H   0  0  0  0  0  0  0  0  0  0  0  0
   -2.9564    1.7563    3.2828 H   0  0  0  0  0  0  0  0  0  0  0  0
   -4.3692    1.1955    2.3139 H   0  0  0  0  0  0  0  0  0  0  0  0
   -2.5013   -0.3077    1.8699 H   0  0  0  0  0  0  0  0  0  0  0  0
   -1.7544   -0.8268    0.3748 H   0  0  0  0  0  0  0  0  0  0  0  0
   -4.6668   -0.1157    0.0167 H   0  0  0  0  0  0  0  0  0  0  0  0
   -4.4018   -1.3972    1.2261 H   0  0  0  0  0  0  0  0  0  0  0  0
   -4.7772   -2.3178   -1.0735 H   0  0  0  0  0  0  0  0  0  0  0  0
   -3.4006   -1.3885   -1.6761 H   0  0  0  0  0  0  0  0  0  0  0  0
   -4.2949   -3.7819    1.0390 H   0  0  0  0  0  0  0  0  0  0  0  0
   -4.2507   -4.6397   -0.5595 H   0  0  0  0  0  0  0  0  0  0  0  0
   -2.9390   -4.8850    0.6650 H   0  0  0  0  0  0  0  0  0  0  0  0
   -2.3596   -3.2775   -2.4413 H   0  0  0  0  0  0  0  0  0  0  0  0
   -1.8198   -4.5870   -1.3814 H   0  0  0  0  0  0  0  0  0  0  0  0
    0.2169   -3.5918   -1.5679 H   0  0  0  0  0  0  0  0  0  0  0  0
   -0.3695   -2.6709   -0.1604 H   0  0  0  0  0  0  0  0  0  0  0  0
    0.0048   -1.8234   -3.0757 H   0  0  0  0  0  0  0  0  0  0  0  0
   -1.3295   -1.0766   -2.2079 H   0  0  0  0  0  0  0  0  0  0  0  0
    4.8693   -1.2961   -0.7802 H   0  0  0  0  0  0  0  0  0  0  0  0
    6.5566   -0.9423    1.2668 H   0  0  0  0  0  0  0  0  0  0  0  0
    5.7798   -0.6367    2.8549 H   0  0  0  0  0  0  0  0  0  0  0  0
    5.6463    1.8420    2.2888 H   0  0  0  0  0  0  0  0  0  0  0  0
    7.5040    0.9258    3.6686 H   0  0  0  0  0  0  0  0  0  0  0  0
    8.0578    2.3050    2.6570 H   0  0  0  0  0  0  0  0  0  0  0  0
    8.4763    0.6118    2.1762 H   0  0  0  0  0  0  0  0  0  0  0  0
    7.0490    2.7173    0.4011 H   0  0  0  0  0  0  0  0  0  0  0  0
    5.6958    1.7059   -0.2005 H   0  0  0  0  0  0  0  0  0  0  0  0
    7.3700    1.0265   -0.1528 H   0  0  0  0  0  0  0  0  0  0  0  0
    1.0654    1.3696   -0.9678 H   0  0  0  0  0  0  0  0  0  0  0  0
   -0.0003    0.5919    0.2114 H   0  0  0  0  0  0  0  0  0  0  0  0
    0.2401    1.5249   -3.4248 H   0  0  0  0  0  0  0  0  0  0  0  0
   -4.2595    2.1123   -1.4284 H   0  0  0  0  0  0  0  0  0  0  0  0
  1  2  1  0
  2  3  1  0
  3  4  2  0
  3  5  1  0
  5  6  1  0
  6  7  1  0
  7  8  1  0
  8  9  1  0
  9 10  1  0
  9 11  1  0
 11 12  1  0
 12 13  1  0
 13 14  1  0
 14 15  1  0
 15 16  2  0
 15 17  1  0
 17 18  2  0
 18 19  1  0
 19 20  1  0
 20 21  1  0
 21 22  1  0
 21 23  1  0
 19 24  2  0
 24 25  1  0
 14 26  1  0
 26 27  1  0
 27 28  2  0
 28 29  1  0
 29 30  1  0
 29 31  2  0
 31 32  1  0
 31 33  1  0
 33 34  2  0
 34  5  1  0
 25 17  1  0
 34 27  1  0
  1 35  1  0
  1 36  1  0
  1 37  1  0
  2 38  1  0
  2 39  1  0
  6 40  1  0
  6 41  1  0
  7 42  1  0
  7 43  1  0
  8 44  1  0
  8 45  1  0
 10 46  1  0
 10 47  1  0
 10 48  1  0
 11 49  1  0
 11 50  1  0
 12 51  1  0
 12 52  1  0
 13 53  1  0
 13 54  1  0
 18 55  1  0
 20 56  1  0
 20 57  1  0
 21 58  1  0
 22 59  1  0
 22 60  1  0
 22 61  1  0
 23 62  1  0
 23 63  1  0
 23 64  1  0
 26 65  1  0
 26 66  1  0
 28 67  1  0
 33 68  1  0
M  END
$$$$
