
     RDKit          3D

 74 75  0  0  0  0  0  0  0  0999 V2000
   -1.0913   -3.7738   -2.7219 C   0  0  0  0  0  0  0  0  0  0  0  0
   -0.9287   -2.4528   -2.0290 C   0  0  0  0  0  0  0  0  0  0  0  0
   -1.0164   -1.4104   -2.7284 O   0  0  0  0  0  0  0  0  0  0  0  0
   -0.6120   -2.3387   -0.6160 N   0  0  0  0  0  0  0  0  0  0  0  0
   -0.8722   -3.4690    0.3046 C   0  0  0  0  0  0  0  0  0  0  0  0
   -2.3551   -3.9357    0.2752 C   0  0  0  0  0  0  0  0  0  0  0  0
   -3.1786   -3.4282    1.4772 C   0  0  0  0  0  0  0  0  0  0  0  0
   -4.5714   -2.9010    1.0857 C   0  0  0  0  0  0  0  0  0  0  0  0
   -4.5535   -1.6117    0.2238 C   0  0  0  0  0  0  0  0  0  0  0  0
   -4.6515   -0.3138    1.0465 C   0  0  0  0  0  0  0  0  0  0  0  0
   -3.3528    0.0697    1.7659 C   0  0  0  0  0  0  0  0  0  0  0  0
   -2.2035    0.1181    0.8230 N   0  0  0  0  0  0  0  0  0  0  0  0
   -2.1419    1.4454    0.1525 C   0  0  0  0  0  0  0  0  0  0  0  0
   -1.8180    1.2705   -1.3349 C   0  0  0  0  0  0  0  0  0  0  0  0
   -1.9844    2.5743   -2.1497 C   0  0  0  0  0  0  0  0  0  0  0  0
   -3.4597    2.8567   -2.4725 C   0  0  0  0  0  0  0  0  0  0  0  0
   -1.1691    2.4960   -3.4457 C   0  0  0  0  0  0  0  0  0  0  0  0
   -0.9551   -0.1953    1.5546 C   0  0  0  0  0  0  0  0  0  0  0  0
    0.2556   -0.3333    0.6550 C   0  0  0  0  0  0  0  0  0  0  0  0
    1.2752    0.6261    0.7978 C   0  0  0  0  0  0  0  0  0  0  0  0
    2.4703    0.5362    0.0733 C   0  0  0  0  0  0  0  0  0  0  0  0
    3.5177    1.5651    0.2443 C   0  0  0  0  0  0  0  0  0  0  0  0
    3.1817    2.7445    0.5403 O   0  0  0  0  0  0  0  0  0  0  0  0
    4.9076    1.2310    0.0945 N   0  0  0  0  0  0  0  0  0  0  0  0
    5.9807    2.2110    0.2518 C   0  0  0  0  0  0  0  0  0  0  0  0
    6.6293    2.0930    1.6435 C   0  0  0  0  0  0  0  0  0  0  0  0
    5.6482    2.4838    2.7563 C   0  0  0  0  0  0  0  0  0  0  0  0
    7.8865    2.9646    1.7249 C   0  0  0  0  0  0  0  0  0  0  0  0
    2.6526   -0.5301   -0.8129 C   0  0  0  0  0  0  0  0  0  0  0  0
    1.6487   -1.4784   -0.9838 C   0  0  0  0  0  0  0  0  0  0  0  0
    0.4335   -1.3938   -0.2804 C   0  0  0  0  0  0  0  0  0  0  0  0
   -0.6241   -4.6060   -2.1589 H   0  0  0  0  0  0  0  0  0  0  0  0
   -2.1692   -3.9886   -2.8821 H   0  0  0  0  0  0  0  0  0  0  0  0
   -0.5995   -3.7322   -3.7145 H   0  0  0  0  0  0  0  0  0  0  0  0
   -0.2135   -4.3182    0.0216 H   0  0  0  0  0  0  0  0  0  0  0  0
   -0.5558   -3.2144    1.3367 H   0  0  0  0  0  0  0  0  0  0  0  0
   -2.3863   -5.0518    0.2812 H   0  0  0  0  0  0  0  0  0  0  0  0
   -2.8452   -3.6425   -0.6856 H   0  0  0  0  0  0  0  0  0  0  0  0
   -2.6400   -2.6572    2.0435 H   0  0  0  0  0  0  0  0  0  0  0  0
   -3.3161   -4.2705    2.1959 H   0  0  0  0  0  0  0  0  0  0  0  0
   -5.1565   -2.7282    2.0183 H   0  0  0  0  0  0  0  0  0  0  0  0
   -5.1091   -3.7055    0.5329 H   0  0  0  0  0  0  0  0  0  0  0  0
   -5.4521   -1.6422   -0.4272 H   0  0  0  0  0  0  0  0  0  0  0  0
   -3.6819   -1.5762   -0.4645 H   0  0  0  0  0  0  0  0  0  0  0  0
   -5.4589   -0.4226    1.8016 H   0  0  0  0  0  0  0  0  0  0  0  0
   -4.9637    0.5206    0.3855 H   0  0  0  0  0  0  0  0  0  0  0  0
   -3.1977   -0.6558    2.5898 H   0  0  0  0  0  0  0  0  0  0  0  0
   -3.4896    1.0502    2.2810 H   0  0  0  0  0  0  0  0  0  0  0  0
   -1.3822    2.1106    0.6240 H   0  0  0  0  0  0  0  0  0  0  0  0
   -3.1139    1.9847    0.2268 H   0  0  0  0  0  0  0  0  0  0  0  0
   -2.4672    0.4728   -1.7575 H   0  0  0  0  0  0  0  0  0  0  0  0
   -0.7655    0.9286   -1.4131 H   0  0  0  0  0  0  0  0  0  0  0  0
   -1.5781    3.4305   -1.5599 H   0  0  0  0  0  0  0  0  0  0  0  0
   -3.9546    1.9613   -2.9000 H   0  0  0  0  0  0  0  0  0  0  0  0
   -4.0035    3.1547   -1.5562 H   0  0  0  0  0  0  0  0  0  0  0  0
   -3.5501    3.6843   -3.2011 H   0  0  0  0  0  0  0  0  0  0  0  0
   -1.2761    3.4310   -4.0365 H   0  0  0  0  0  0  0  0  0  0  0  0
   -0.0890    2.3624   -3.2142 H   0  0  0  0  0  0  0  0  0  0  0  0
   -1.5114    1.6324   -4.0616 H   0  0  0  0  0  0  0  0  0  0  0  0
   -0.7803    0.5749    2.3402 H   0  0  0  0  0  0  0  0  0  0  0  0
   -1.0524   -1.1440    2.1102 H   0  0  0  0  0  0  0  0  0  0  0  0
    1.1482    1.4420    1.4998 H   0  0  0  0  0  0  0  0  0  0  0  0
    5.1794    0.2245    0.0453 H   0  0  0  0  0  0  0  0  0  0  0  0
    6.7454    2.0087   -0.5298 H   0  0  0  0  0  0  0  0  0  0  0  0
    5.6085    3.2410    0.0743 H   0  0  0  0  0  0  0  0  0  0  0  0
    6.9430    1.0346    1.8009 H   0  0  0  0  0  0  0  0  0  0  0  0
    5.2800    3.5228    2.6084 H   0  0  0  0  0  0  0  0  0  0  0  0
    6.1421    2.4201    3.7484 H   0  0  0  0  0  0  0  0  0  0  0  0
    4.7821    1.7915    2.7707 H   0  0  0  0  0  0  0  0  0  0  0  0
    8.3786    2.8414    2.7130 H   0  0  0  0  0  0  0  0  0  0  0  0
    7.6335    4.0375    1.5882 H   0  0  0  0  0  0  0  0  0  0  0  0
    8.6075    2.6677    0.9346 H   0  0  0  0  0  0  0  0  0  0  0  0
    3.5547   -0.6144   -1.4064 H   0  0  0  0  0  0  0  0  0  0  0  0
    1.8078   -2.2803   -1.6921 H   0  0  0  0  0  0  0  0  0  0  0  0
  1  2  1  0
  2  3  2  0
  2  4  1  0
  4  5  1  0
  5  6  1  0
  6  7  1  0
  7  8  1  0
  8  9  1  0
  9 10  1  0
 10 11  1  0
 11 12  1  0
 12 13  1  0
 13 14  1  0
 14 15  1  0
 15 16  1  0
 15 17  1  0
 12 18  1  0
 18 19  1  0
 19 20  2  0
 20 21  1  0
 21 22  1  0
 22 23  2  0
 22 24  1  0
 24 25  1  0
 25 26  1  0
 26 27  1  0
 26 28  1  0
 21 29  2  0
 29 30  1  0
 30 31  2  0
 31  4  1  0
 31 19  1  0
  1 32  1  0
  1 33  1  0
  1 34  1  0
  5 35  1  0
  5 36  1  0
  6 37  1  0
  6 38  1  0
  7 39  1  0
  7 40  1  0
  8 41  1  0
  8 42  1  0
  9 43  1  0
  9 44  1  0
 10 45  1  0
 10 46  1  0
 11 47  1  0
 11 48  1  0
 13 49  1  0
 13 50  1  0
 14 51  1  0
 14 52  1  0
 15 53  1  0
 16 54  1  0
 16 55  1  0
 16 56  1  0
 17 57  1  0
 17 58  1  0
 17 59  1  0
 18 60  1  0
 18 61  1  0
 20 62  1  0
 24 63  1  0
 25 64  1  0
 25 65  1  0
 26 66  1  0
 27 67  1  0
 27 68  1  0
 27 69  1  0
 28 70  1  0
 28 71  1  0
 28 72  1  0
 29 73  1  0
 30 74  1  0
M  END
$$$$
