
     RDKit          3D

 66 70  0  0  0  0  0  0  0  0999 V2000
   -0.1530    2.2931    0.2668 C   0  0  0  0  0  0  0  0  0  0  0  0
   -1.2631    1.4416    0.6991 N   0  0  0  0  0  0  0  0  0  0  0  0
   -2.6457    1.9196    0.5701 C   0  0  0  0  0  0  0  0  0  0  0  0
   -3.0043    2.0939   -0.9138 C   0  0  0  0  0  0  0  0  0  0  0  0
   -4.4140    2.0656   -1.1602 O   0  0  0  0  0  0  0  0  0  0  0  0
   -5.3501    1.1560   -0.6342 C   0  0  0  0  0  0  0  0  0  0  0  0
   -6.4812    1.7176   -0.0240 C   0  0  0  0  0  0  0  0  0  0  0  0
   -7.4680    0.9126    0.5448 C   0  0  0  0  0  0  0  0  0  0  0  0
   -7.3490   -0.4728    0.4956 C   0  0  0  0  0  0  0  0  0  0  0  0
   -6.2500   -1.0567   -0.1349 C   0  0  0  0  0  0  0  0  0  0  0  0
   -5.2380   -0.2644   -0.7145 C   0  0  0  0  0  0  0  0  0  0  0  0
   -4.1070   -0.9891   -1.4112 C   0  0  0  0  0  0  0  0  0  0  0  0
   -3.1907   -1.6847   -0.3884 C   0  0  0  0  0  0  0  0  0  0  0  0
   -1.8405   -2.1352   -0.9820 C   0  0  0  0  0  0  0  0  0  0  0  0
   -0.6606   -1.1587   -0.7531 C   0  0  0  0  0  0  0  0  0  0  0  0
   -0.2158   -0.9402    0.7351 C   0  0  0  0  0  0  0  0  0  0  0  0
    1.3035   -0.5536    0.7503 C   0  0  0  0  0  0  0  0  0  0  0  0
    2.1422   -1.7561    0.7963 N   0  0  0  0  0  0  0  0  0  0  0  0
    3.3627   -1.8449    0.0399 C   0  0  0  0  0  0  0  0  0  0  0  0
    3.6385   -2.9229   -0.5576 O   0  0  0  0  0  0  0  0  0  0  0  0
    4.3100   -0.7076   -0.0372 C   0  0  0  0  0  0  0  0  0  0  0  0
    4.4324    0.2023    1.0273 C   0  0  0  0  0  0  0  0  0  0  0  0
    5.3259    1.2260    0.9610 N   0  0  0  0  0  0  0  0  0  0  0  0
    6.1291    1.4089   -0.1203 C   0  0  0  0  0  0  0  0  0  0  0  0
    7.0350    2.4764   -0.1512 C   0  0  0  0  0  0  0  0  0  0  0  0
    7.8724    2.6529   -1.2592 C   0  0  0  0  0  0  0  0  0  0  0  0
    7.8014    1.7688   -2.3407 C   0  0  0  0  0  0  0  0  0  0  0  0
    6.8972    0.6998   -2.3196 C   0  0  0  0  0  0  0  0  0  0  0  0
    6.0572    0.5136   -1.2098 C   0  0  0  0  0  0  0  0  0  0  0  0
    5.1471   -0.5510   -1.1558 C   0  0  0  0  0  0  0  0  0  0  0  0
    1.7812   -2.8407    1.7064 C   0  0  0  0  0  0  0  0  0  0  0  0
    0.4664   -2.5082    2.4069 C   0  0  0  0  0  0  0  0  0  0  0  0
   -0.5080   -2.1508    1.4485 O   0  0  0  0  0  0  0  0  0  0  0  0
   -1.0059    0.1980    1.3778 C   0  0  0  0  0  0  0  0  0  0  0  0
   -1.4351    0.0564    2.5559 O   0  0  0  0  0  0  0  0  0  0  0  0
    0.6233    2.3407    1.0582 H   0  0  0  0  0  0  0  0  0  0  0  0
   -0.5012    3.3286    0.0695 H   0  0  0  0  0  0  0  0  0  0  0  0
    0.2839    1.8940   -0.6702 H   0  0  0  0  0  0  0  0  0  0  0  0
   -3.3425    1.2041    1.0550 H   0  0  0  0  0  0  0  0  0  0  0  0
   -2.7583    2.8895    1.1018 H   0  0  0  0  0  0  0  0  0  0  0  0
   -2.4787    1.3603   -1.5421 H   0  0  0  0  0  0  0  0  0  0  0  0
   -2.6253    3.0824   -1.2480 H   0  0  0  0  0  0  0  0  0  0  0  0
   -6.5861    2.7946    0.0285 H   0  0  0  0  0  0  0  0  0  0  0  0
   -8.3265    1.3647    1.0259 H   0  0  0  0  0  0  0  0  0  0  0  0
   -8.1150   -1.0969    0.9385 H   0  0  0  0  0  0  0  0  0  0  0  0
   -6.1926   -2.1371   -0.1768 H   0  0  0  0  0  0  0  0  0  0  0  0
   -4.5411   -1.7684   -2.0751 H   0  0  0  0  0  0  0  0  0  0  0  0
   -3.5504   -0.3324   -2.0947 H   0  0  0  0  0  0  0  0  0  0  0  0
   -3.7230   -2.5888   -0.0194 H   0  0  0  0  0  0  0  0  0  0  0  0
   -3.0454   -1.0473    0.4986 H   0  0  0  0  0  0  0  0  0  0  0  0
   -1.9528   -2.3042   -2.0753 H   0  0  0  0  0  0  0  0  0  0  0  0
   -1.5699   -3.1267   -0.5587 H   0  0  0  0  0  0  0  0  0  0  0  0
   -0.8676   -0.1982   -1.2606 H   0  0  0  0  0  0  0  0  0  0  0  0
    0.1953   -1.6004   -1.3112 H   0  0  0  0  0  0  0  0  0  0  0  0
    1.5673    0.0619   -0.1372 H   0  0  0  0  0  0  0  0  0  0  0  0
    1.5295    0.0594    1.6521 H   0  0  0  0  0  0  0  0  0  0  0  0
    3.8459    0.0808    1.9274 H   0  0  0  0  0  0  0  0  0  0  0  0
    7.0950    3.1669    0.6819 H   0  0  0  0  0  0  0  0  0  0  0  0
    8.5729    3.4787   -1.2809 H   0  0  0  0  0  0  0  0  0  0  0  0
    8.4444    1.9154   -3.1975 H   0  0  0  0  0  0  0  0  0  0  0  0
    6.8563    0.0226   -3.1649 H   0  0  0  0  0  0  0  0  0  0  0  0
    5.0811   -1.2472   -1.9842 H   0  0  0  0  0  0  0  0  0  0  0  0
    2.5819   -2.9786    2.4638 H   0  0  0  0  0  0  0  0  0  0  0  0
    1.6581   -3.7834    1.1290 H   0  0  0  0  0  0  0  0  0  0  0  0
    0.6078   -1.6951    3.1544 H   0  0  0  0  0  0  0  0  0  0  0  0
    0.1116   -3.4053    2.9574 H   0  0  0  0  0  0  0  0  0  0  0  0
  1  2  1  0
  2  3  1  0
  3  4  1  0
  4  5  1  0
  5  6  1  0
  6  7  2  0
  7  8  1  0
  8  9  2  0
  9 10  1  0
 10 11  2  0
 11 12  1  0
 12 13  1  0
 13 14  1  0
 14 15  1  0
 15 16  1  0
 16 17  1  0
 17 18  1  0
 18 19  1  0
 19 20  2  0
 19 21  1  0
 21 22  2  0
 22 23  1  0
 23 24  2  0
 24 25  1  0
 25 26  2  0
 26 27  1  0
 27 28  2  0
 28 29  1  0
 29 30  2  0
 18 31  1  0
 31 32  1  0
 32 33  1  0
 16 34  1  0
 34 35  2  0
 34  2  1  0
 11  6  1  0
 33 16  1  0
 30 21  1  0
 29 24  1  0
  1 36  1  0
  1 37  1  0
  1 38  1  0
  3 39  1  0
  3 40  1  0
  4 41  1  0
  4 42  1  0
  7 43  1  0
  8 44  1  0
  9 45  1  0
 10 46  1  0
 12 47  1  0
 12 48  1  0
 13 49  1  0
 13 50  1  0
 14 51  1  0
 14 52  1  0
 15 53  1  0
 15 54  1  0
 17 55  1  0
 17 56  1  0
 22 57  1  0
 25 58  1  0
 26 59  1  0
 27 60  1  0
 28 61  1  0
 30 62  1  0
 31 63  1  0
 31 64  1  0
 32 65  1  0
 32 66  1  0
M  END
$$$$
