
     RDKit          3D

 63 65  0  0  0  0  0  0  0  0999 V2000
   -4.4096    3.2561    1.8401 C   0  0  0  0  0  0  0  0  0  0  0  0
   -3.2195    3.5410    0.9395 C   0  0  0  0  0  0  0  0  0  0  0  0
   -2.7178    2.3130    0.4199 O   0  0  0  0  0  0  0  0  0  0  0  0
   -1.6060    2.1927   -0.4283 C   0  0  0  0  0  0  0  0  0  0  0  0
   -0.9191    3.3276   -0.8977 C   0  0  0  0  0  0  0  0  0  0  0  0
    0.1025    3.1973   -1.8348 C   0  0  0  0  0  0  0  0  0  0  0  0
    0.4484    1.9403   -2.3223 C   0  0  0  0  0  0  0  0  0  0  0  0
   -0.1865    0.7851   -1.8362 C   0  0  0  0  0  0  0  0  0  0  0  0
   -1.2008    0.9078   -0.8610 C   0  0  0  0  0  0  0  0  0  0  0  0
   -1.8301   -0.2550   -0.3938 O   0  0  0  0  0  0  0  0  0  0  0  0
   -2.1135   -0.5431    0.9782 C   0  0  0  0  0  0  0  0  0  0  0  0
   -3.4661   -1.2654    1.0944 C   0  0  0  0  0  0  0  0  0  0  0  0
   -3.3393   -2.7953    1.0059 C   0  0  0  0  0  0  0  0  0  0  0  0
   -2.9554   -3.2914   -0.4057 C   0  0  0  0  0  0  0  0  0  0  0  0
   -2.0425   -4.5266   -0.3704 C   0  0  0  0  0  0  0  0  0  0  0  0
   -0.8210   -4.2713    0.3977 N   0  0  0  0  0  0  0  0  0  0  0  0
    0.1864   -3.3060    0.0515 C   0  0  0  0  0  0  0  0  0  0  0  0
    0.9681   -2.9076    0.9554 O   0  0  0  0  0  0  0  0  0  0  0  0
    0.4223   -2.8658   -1.3741 C   0  0  0  0  0  0  0  0  0  0  0  0
    0.8573   -1.4555   -1.4510 N   0  0  0  0  0  0  0  0  0  0  0  0
    2.1785   -1.1256   -0.9607 C   0  0  0  0  0  0  0  0  0  0  0  0
    3.0974   -1.9890   -1.0313 O   0  0  0  0  0  0  0  0  0  0  0  0
    2.4692    0.2248   -0.3495 C   0  0  0  0  0  0  0  0  0  0  0  0
    3.6553    0.2073    0.6478 C   0  0  0  0  0  0  0  0  0  0  0  0
    5.0109    0.2210   -0.0702 C   0  0  0  0  0  0  0  0  0  0  0  0
    5.4423    1.6831   -0.1639 C   0  0  0  0  0  0  0  0  0  0  0  0
    4.4941    2.4871    0.7215 C   0  0  0  0  0  0  0  0  0  0  0  0
    3.6781    1.4730    1.5057 C   0  0  0  0  0  0  0  0  0  0  0  0
    0.1874   -0.5618   -2.4179 C   0  0  0  0  0  0  0  0  0  0  0  0
   -5.2021    2.7297    1.2657 H   0  0  0  0  0  0  0  0  0  0  0  0
   -4.0924    2.6191    2.6953 H   0  0  0  0  0  0  0  0  0  0  0  0
   -4.8211    4.2122    2.2322 H   0  0  0  0  0  0  0  0  0  0  0  0
   -2.4301    4.0496    1.5336 H   0  0  0  0  0  0  0  0  0  0  0  0
   -3.5424    4.2002    0.1045 H   0  0  0  0  0  0  0  0  0  0  0  0
   -1.1885    4.3208   -0.5671 H   0  0  0  0  0  0  0  0  0  0  0  0
    0.6117    4.0781   -2.2048 H   0  0  0  0  0  0  0  0  0  0  0  0
    1.2237    1.8680   -3.0751 H   0  0  0  0  0  0  0  0  0  0  0  0
   -1.2932   -1.1640    1.3945 H   0  0  0  0  0  0  0  0  0  0  0  0
   -2.1374    0.3723    1.5995 H   0  0  0  0  0  0  0  0  0  0  0  0
   -3.9094   -1.0183    2.0835 H   0  0  0  0  0  0  0  0  0  0  0  0
   -4.1696   -0.8908    0.3189 H   0  0  0  0  0  0  0  0  0  0  0  0
   -2.6128   -3.1317    1.7763 H   0  0  0  0  0  0  0  0  0  0  0  0
   -4.3159   -3.2494    1.2820 H   0  0  0  0  0  0  0  0  0  0  0  0
   -3.8843   -3.5483   -0.9605 H   0  0  0  0  0  0  0  0  0  0  0  0
   -2.4591   -2.5013   -0.9959 H   0  0  0  0  0  0  0  0  0  0  0  0
   -1.7835   -4.8446   -1.4026 H   0  0  0  0  0  0  0  0  0  0  0  0
   -2.5981   -5.3669    0.0992 H   0  0  0  0  0  0  0  0  0  0  0  0
   -0.7211   -4.7646    1.3140 H   0  0  0  0  0  0  0  0  0  0  0  0
    1.2040   -3.5210   -1.8147 H   0  0  0  0  0  0  0  0  0  0  0  0
   -0.4811   -3.0348   -1.9882 H   0  0  0  0  0  0  0  0  0  0  0  0
    2.6736    0.9536   -1.1614 H   0  0  0  0  0  0  0  0  0  0  0  0
    1.5565    0.5468    0.1971 H   0  0  0  0  0  0  0  0  0  0  0  0
    3.5677   -0.6842    1.3105 H   0  0  0  0  0  0  0  0  0  0  0  0
    4.9721   -0.2405   -1.0813 H   0  0  0  0  0  0  0  0  0  0  0  0
    5.7524   -0.3434    0.5384 H   0  0  0  0  0  0  0  0  0  0  0  0
    6.4912    1.7975    0.1866 H   0  0  0  0  0  0  0  0  0  0  0  0
    5.3757    2.0397   -1.2153 H   0  0  0  0  0  0  0  0  0  0  0  0
    3.8148    3.0978    0.0857 H   0  0  0  0  0  0  0  0  0  0  0  0
    5.0545    3.1598    1.4069 H   0  0  0  0  0  0  0  0  0  0  0  0
    4.1980    1.2532    2.4651 H   0  0  0  0  0  0  0  0  0  0  0  0
    2.6638    1.8637    1.7425 H   0  0  0  0  0  0  0  0  0  0  0  0
   -0.7433   -1.0216   -2.8138 H   0  0  0  0  0  0  0  0  0  0  0  0
    0.8547   -0.4346   -3.2976 H   0  0  0  0  0  0  0  0  0  0  0  0
  1  2  1  0
  2  3  1  0
  3  4  1  0
  4  5  2  0
  5  6  1  0
  6  7  2  0
  7  8  1  0
  8  9  2  0
  9 10  1  0
 10 11  1  0
 11 12  1  0
 12 13  1  0
 13 14  1  0
 14 15  1  0
 15 16  1  0
 16 17  1  0
 17 18  2  0
 17 19  1  0
 19 20  1  0
 20 21  1  0
 21 22  2  0
 21 23  1  0
 23 24  1  0
 24 25  1  0
 25 26  1  0
 26 27  1  0
 27 28  1  0
 20 29  1  0
  9  4  1  0
 28 24  1  0
 29  8  1  0
  1 30  1  0
  1 31  1  0
  1 32  1  0
  2 33  1  0
  2 34  1  0
  5 35  1  0
  6 36  1  0
  7 37  1  0
 11 38  1  0
 11 39  1  0
 12 40  1  0
 12 41  1  0
 13 42  1  0
 13 43  1  0
 14 44  1  0
 14 45  1  0
 15 46  1  0
 15 47  1  0
 16 48  1  0
 19 49  1  0
 19 50  1  0
 23 51  1  0
 23 52  1  0
 24 53  1  0
 25 54  1  0
 25 55  1  0
 26 56  1  0
 26 57  1  0
 27 58  1  0
 27 59  1  0
 28 60  1  0
 28 61  1  0
 29 62  1  0
 29 63  1  0
M  END
$$$$
