
     RDKit          3D

100102  0  0  0  0  0  0  0  0999 V2000
    7.3032   -0.6990   -3.6613 C   0  0  0  0  0  0  0  0  0  0  0  0
    7.0277   -1.0126   -2.2956 O   0  0  0  0  0  0  0  0  0  0  0  0
    7.9744   -0.9672   -1.2608 C   0  0  0  0  0  0  0  0  0  0  0  0
    9.3311   -0.6793   -1.5145 C   0  0  0  0  0  0  0  0  0  0  0  0
   10.2589   -0.6495   -0.4716 C   0  0  0  0  0  0  0  0  0  0  0  0
    9.8497   -0.9096    0.8441 C   0  0  0  0  0  0  0  0  0  0  0  0
   10.8335   -0.8379    1.9748 C   0  0  0  0  0  0  0  0  0  0  0  0
    8.4985   -1.1717    1.1083 C   0  0  0  0  0  0  0  0  0  0  0  0
    7.5591   -1.2124    0.0655 C   0  0  0  0  0  0  0  0  0  0  0  0
    5.8609   -1.5218    0.4502 S   0  0  0  0  0  6  0  0  0  0  0  0
    5.7962   -2.2097    1.7886 O   0  0  0  0  0  0  0  0  0  0  0  0
    5.2618   -2.4464   -0.5774 O   0  0  0  0  0  0  0  0  0  0  0  0
    4.9977    0.0063    0.5039 N   0  0  0  0  0  0  0  0  0  0  0  0
    4.7041    0.5135   -0.8580 C   0  0  0  0  0  0  0  0  0  0  0  0
    3.3283    1.1752   -0.9551 C   0  0  0  0  0  0  0  0  0  0  0  0
    2.2732    0.2098   -0.5865 N   0  0  0  0  0  0  0  0  0  0  0  0
    0.9609    0.8867   -0.5774 C   0  0  0  0  0  0  0  0  0  0  0  0
   -0.1915   -0.0876   -0.5425 C   0  0  0  0  0  0  0  0  0  0  0  0
    0.0152   -1.3161   -0.7473 O   0  0  0  0  0  0  0  0  0  0  0  0
   -1.5360    0.3765   -0.2934 N   0  0  0  0  0  0  0  0  0  0  0  0
   -2.4230   -0.4646    0.5376 C   0  0  0  0  0  0  0  0  0  0  0  0
   -1.8250   -0.7457    1.9313 C   0  0  0  0  0  0  0  0  0  0  0  0
   -2.6474   -1.7693    2.7327 C   0  0  0  0  0  0  0  0  0  0  0  0
   -4.0232   -1.2498    3.1715 C   0  0  0  0  0  0  0  0  0  0  0  0
   -4.9506   -1.3959    2.1153 O   0  0  0  0  0  0  0  0  0  0  0  0
   -6.1913   -0.8439    2.4920 C   0  0  0  0  0  0  0  0  0  0  0  0
   -7.2056   -0.9634    1.3362 C   0  0  0  0  0  0  0  0  0  0  0  0
   -8.4668   -0.5170    1.7744 O   0  0  0  0  0  0  0  0  0  0  0  0
   -6.7877   -0.2033    0.0407 C   0  0  0  0  0  0  0  0  0  0  0  0
   -6.1702    1.0077    0.3828 O   0  0  0  0  0  0  0  0  0  0  0  0
   -5.8663   -1.0426   -0.8901 C   0  0  0  0  0  0  0  0  0  0  0  0
   -6.6184   -2.1516   -1.3655 O   0  0  0  0  0  0  0  0  0  0  0  0
   -5.9318   -3.3676   -1.1592 C   0  0  0  0  0  0  0  0  0  0  0  0
   -5.3817   -0.2087   -2.1118 C   0  0  0  0  0  0  0  0  0  0  0  0
   -3.9375    0.0841   -2.0497 N   0  0  0  0  0  0  0  0  0  0  0  0
   -3.0583   -0.7622   -2.8176 C   0  0  0  0  0  0  0  0  0  0  0  0
   -2.2077   -0.2181   -3.9265 C   0  0  0  0  0  0  0  0  0  0  0  0
   -3.0245   -1.9985   -2.5825 O   0  0  0  0  0  0  0  0  0  0  0  0
   -3.5197    1.4166   -1.5635 C   0  0  0  0  0  0  0  0  0  0  0  0
   -2.0363    1.5182   -1.1048 C   0  0  0  0  0  0  0  0  0  0  0  0
   -1.7121    2.9051   -0.4748 C   0  0  0  0  0  0  0  0  0  0  0  0
   -1.7790    3.0181    1.0713 C   0  0  0  0  0  0  0  0  0  0  0  0
   -1.0486    4.2906    1.5327 C   0  0  0  0  0  0  0  0  0  0  0  0
   -3.2226    3.0485    1.5999 C   0  0  0  0  0  0  0  0  0  0  0  0
    2.5529   -0.5187    0.6794 C   0  0  0  0  0  0  0  0  0  0  0  0
    3.8222   -0.0384    1.4001 C   0  0  0  0  0  0  0  0  0  0  0  0
    7.6726    0.3461   -3.7437 H   0  0  0  0  0  0  0  0  0  0  0  0
    8.0566   -1.4074   -4.0729 H   0  0  0  0  0  0  0  0  0  0  0  0
    6.3683   -0.7973   -4.2508 H   0  0  0  0  0  0  0  0  0  0  0  0
    9.6794   -0.4783   -2.5186 H   0  0  0  0  0  0  0  0  0  0  0  0
   11.2973   -0.4220   -0.6893 H   0  0  0  0  0  0  0  0  0  0  0  0
   10.5697   -1.5741    2.7681 H   0  0  0  0  0  0  0  0  0  0  0  0
   11.8629   -1.0662    1.6187 H   0  0  0  0  0  0  0  0  0  0  0  0
   10.8169    0.1844    2.4121 H   0  0  0  0  0  0  0  0  0  0  0  0
    8.1797   -1.3414    2.1305 H   0  0  0  0  0  0  0  0  0  0  0  0
    4.7212   -0.2940   -1.6199 H   0  0  0  0  0  0  0  0  0  0  0  0
    5.4792    1.2579   -1.1351 H   0  0  0  0  0  0  0  0  0  0  0  0
    3.1729    1.5115   -2.0057 H   0  0  0  0  0  0  0  0  0  0  0  0
    3.2984    2.0748   -0.3008 H   0  0  0  0  0  0  0  0  0  0  0  0
    0.8893    1.5729    0.2949 H   0  0  0  0  0  0  0  0  0  0  0  0
    0.8539    1.4943   -1.5019 H   0  0  0  0  0  0  0  0  0  0  0  0
   -3.3999    0.0272    0.6736 H   0  0  0  0  0  0  0  0  0  0  0  0
   -2.5973   -1.4326    0.0231 H   0  0  0  0  0  0  0  0  0  0  0  0
   -1.7321    0.1930    2.5151 H   0  0  0  0  0  0  0  0  0  0  0  0
   -0.8023   -1.1663    1.8126 H   0  0  0  0  0  0  0  0  0  0  0  0
   -2.0663   -2.0347    3.6424 H   0  0  0  0  0  0  0  0  0  0  0  0
   -2.7655   -2.7078    2.1464 H   0  0  0  0  0  0  0  0  0  0  0  0
   -3.9296   -0.1894    3.4956 H   0  0  0  0  0  0  0  0  0  0  0  0
   -4.3518   -1.8585    4.0461 H   0  0  0  0  0  0  0  0  0  0  0  0
   -6.0845    0.2304    2.7756 H   0  0  0  0  0  0  0  0  0  0  0  0
   -6.6012   -1.4011    3.3662 H   0  0  0  0  0  0  0  0  0  0  0  0
   -7.3200   -2.0437    1.1042 H   0  0  0  0  0  0  0  0  0  0  0  0
   -8.3936    0.4515    1.9769 H   0  0  0  0  0  0  0  0  0  0  0  0
   -7.7150    0.0039   -0.5467 H   0  0  0  0  0  0  0  0  0  0  0  0
   -6.8888    1.6858    0.4937 H   0  0  0  0  0  0  0  0  0  0  0  0
   -4.9723   -1.3512   -0.3037 H   0  0  0  0  0  0  0  0  0  0  0  0
   -6.5693   -4.2015   -1.5190 H   0  0  0  0  0  0  0  0  0  0  0  0
   -4.9866   -3.3936   -1.7373 H   0  0  0  0  0  0  0  0  0  0  0  0
   -5.7248   -3.5431   -0.0801 H   0  0  0  0  0  0  0  0  0  0  0  0
   -5.6090   -0.7547   -3.0567 H   0  0  0  0  0  0  0  0  0  0  0  0
   -5.9565    0.7412   -2.1985 H   0  0  0  0  0  0  0  0  0  0  0  0
   -2.5204    0.8114   -4.1920 H   0  0  0  0  0  0  0  0  0  0  0  0
   -2.3141   -0.8579   -4.8268 H   0  0  0  0  0  0  0  0  0  0  0  0
   -1.1397   -0.2223   -3.6209 H   0  0  0  0  0  0  0  0  0  0  0  0
   -4.1699    1.7310   -0.7346 H   0  0  0  0  0  0  0  0  0  0  0  0
   -3.6909    2.1531   -2.3753 H   0  0  0  0  0  0  0  0  0  0  0  0
   -1.4742    1.5173   -2.0603 H   0  0  0  0  0  0  0  0  0  0  0  0
   -0.6812    3.1766   -0.7908 H   0  0  0  0  0  0  0  0  0  0  0  0
   -2.3594    3.6833   -0.9334 H   0  0  0  0  0  0  0  0  0  0  0  0
   -1.2426    2.1621    1.5302 H   0  0  0  0  0  0  0  0  0  0  0  0
    0.0131    4.2648    1.2043 H   0  0  0  0  0  0  0  0  0  0  0  0
   -1.0544    4.3587    2.6413 H   0  0  0  0  0  0  0  0  0  0  0  0
   -1.5306    5.2020    1.1096 H   0  0  0  0  0  0  0  0  0  0  0  0
   -3.7148    2.0705    1.4691 H   0  0  0  0  0  0  0  0  0  0  0  0
   -3.8180    3.8325    1.0817 H   0  0  0  0  0  0  0  0  0  0  0  0
   -3.2278    3.2580    2.6895 H   0  0  0  0  0  0  0  0  0  0  0  0
    2.6665   -1.5971    0.4366 H   0  0  0  0  0  0  0  0  0  0  0  0
    1.7079   -0.4444    1.4017 H   0  0  0  0  0  0  0  0  0  0  0  0
    4.0070   -0.6741    2.2894 H   0  0  0  0  0  0  0  0  0  0  0  0
    3.6445    0.9816    1.8021 H   0  0  0  0  0  0  0  0  0  0  0  0
  1  2  1  0
  2  3  1  0
  3  4  2  0
  4  5  1  0
  5  6  2  0
  6  7  1  0
  6  8  1  0
  8  9  2  0
  9 10  1  0
 10 11  2  0
 10 12  2  0
 10 13  1  0
 13 14  1  0
 14 15  1  0
 15 16  1  0
 16 17  1  0
 17 18  1  0
 18 19  2  0
 18 20  1  0
 20 21  1  0
 21 22  1  0
 22 23  1  0
 23 24  1  0
 24 25  1  0
 25 26  1  0
 26 27  1  0
 27 28  1  0
 27 29  1  0
 29 30  1  0
 29 31  1  0
 31 32  1  0
 32 33  1  0
 31 34  1  0
 34 35  1  0
 35 36  1  0
 36 37  1  0
 36 38  2  0
 35 39  1  0
 39 40  1  0
 40 41  1  0
 41 42  1  0
 42 43  1  0
 42 44  1  0
 16 45  1  0
 45 46  1  0
  9  3  1  0
 46 13  1  0
 40 20  1  0
  1 47  1  0
  1 48  1  0
  1 49  1  0
  4 50  1  0
  5 51  1  0
  7 52  1  0
  7 53  1  0
  7 54  1  0
  8 55  1  0
 14 56  1  0
 14 57  1  0
 15 58  1  0
 15 59  1  0
 17 60  1  0
 17 61  1  0
 21 62  1  0
 21 63  1  0
 22 64  1  0
 22 65  1  0
 23 66  1  0
 23 67  1  0
 24 68  1  0
 24 69  1  0
 26 70  1  0
 26 71  1  0
 27 72  1  0
 28 73  1  0
 29 74  1  0
 30 75  1  0
 31 76  1  0
 33 77  1  0
 33 78  1  0
 33 79  1  0
 34 80  1  0
 34 81  1  0
 37 82  1  0
 37 83  1  0
 37 84  1  0
 39 85  1  0
 39 86  1  0
 40 87  1  0
 41 88  1  0
 41 89  1  0
 42 90  1  0
 43 91  1  0
 43 92  1  0
 43 93  1  0
 44 94  1  0
 44 95  1  0
 44 96  1  0
 45 97  1  0
 45 98  1  0
 46 99  1  0
 46100  1  0
M  END
$$$$
