
     RDKit          3D

 73 77  0  0  0  0  0  0  0  0999 V2000
    6.8689    0.7137    3.4659 C   0  0  0  0  0  0  0  0  0  0  0  0
    6.3924    0.5685    2.0558 C   0  0  0  0  0  0  0  0  0  0  0  0
    5.1298    0.0290    1.7865 C   0  0  0  0  0  0  0  0  0  0  0  0
    4.7044   -0.1269    0.4553 C   0  0  0  0  0  0  0  0  0  0  0  0
    3.4387   -0.6476    0.1401 O   0  0  0  0  0  0  0  0  0  0  0  0
    2.4299   -0.9705    1.0922 C   0  0  0  0  0  0  0  0  0  0  0  0
    1.1789   -1.3626    0.3639 C   0  0  0  0  0  0  0  0  0  0  0  0
    0.8852   -2.5869    0.2916 O   0  0  0  0  0  0  0  0  0  0  0  0
    0.3417   -0.3780   -0.2821 N   0  0  0  0  0  0  0  0  0  0  0  0
    0.7181    1.0394   -0.3129 C   0  0  0  0  0  0  0  0  0  0  0  0
   -0.2336    1.8242   -1.2230 C   0  0  0  0  0  0  0  0  0  0  0  0
   -1.5892    1.6246   -0.8637 O   0  0  0  0  0  0  0  0  0  0  0  0
   -2.0052    0.2551   -0.7516 C   0  0  0  0  0  0  0  0  0  0  0  0
   -3.1477    0.0549   -1.7813 C   0  0  0  0  0  0  0  0  0  0  0  0
   -3.6821   -1.3927   -1.8768 C   0  0  0  0  0  0  0  0  0  0  0  0
   -5.1450   -1.4698   -2.3541 C   0  0  0  0  0  0  0  0  0  0  0  0
   -6.1723   -1.5582   -1.2036 C   0  0  0  0  0  0  0  0  0  0  0  0
   -6.2117   -0.3277   -0.3230 C   0  0  0  0  0  0  0  0  0  0  0  0
   -6.5391    0.9109   -0.9097 C   0  0  0  0  0  0  0  0  0  0  0  0
   -6.6352    2.0664   -0.1335 C   0  0  0  0  0  0  0  0  0  0  0  0
   -6.4479    1.9987    1.2452 C   0  0  0  0  0  0  0  0  0  0  0  0
   -6.1772    0.7724    1.8526 C   0  0  0  0  0  0  0  0  0  0  0  0
   -6.0547   -0.3955    1.0862 C   0  0  0  0  0  0  0  0  0  0  0  0
   -5.8826   -1.6073    1.7685 O   0  0  0  0  0  0  0  0  0  0  0  0
   -4.6464   -2.3132    1.9025 C   0  0  0  0  0  0  0  0  0  0  0  0
   -3.5073   -1.4393    2.4570 C   0  0  0  0  0  0  0  0  0  0  0  0
   -2.5431   -1.1160    1.4037 N   0  0  0  0  0  0  0  0  0  0  0  0
   -2.5936    0.1102    0.6533 C   0  0  0  0  0  0  0  0  0  0  0  0
   -3.1961    1.1011    1.1490 O   0  0  0  0  0  0  0  0  0  0  0  0
   -0.8548   -0.7702   -1.0306 C   0  0  0  0  0  0  0  0  0  0  0  0
    5.5704    0.2509   -0.5889 C   0  0  0  0  0  0  0  0  0  0  0  0
    5.1956    0.1106   -1.9370 C   0  0  0  0  0  0  0  0  0  0  0  0
    6.0747    0.4865   -2.9539 C   0  0  0  0  0  0  0  0  0  0  0  0
    7.3312    1.0095   -2.6428 C   0  0  0  0  0  0  0  0  0  0  0  0
    7.7225    1.1755   -1.3043 C   0  0  0  0  0  0  0  0  0  0  0  0
    9.0866    1.7259   -0.9866 C   0  0  0  0  0  0  0  0  0  0  0  0
    6.8436    0.7845   -0.2730 C   0  0  0  0  0  0  0  0  0  0  0  0
    7.2117    0.9196    1.0304 N   0  0  0  0  0  0  0  0  0  0  0  0
    6.0618    1.1365    4.1024 H   0  0  0  0  0  0  0  0  0  0  0  0
    7.7447    1.3952    3.5101 H   0  0  0  0  0  0  0  0  0  0  0  0
    7.1658   -0.2806    3.8615 H   0  0  0  0  0  0  0  0  0  0  0  0
    4.4941   -0.2645    2.6111 H   0  0  0  0  0  0  0  0  0  0  0  0
    2.7759   -1.8112    1.7325 H   0  0  0  0  0  0  0  0  0  0  0  0
    2.2210   -0.0950    1.7428 H   0  0  0  0  0  0  0  0  0  0  0  0
    1.7520    1.1526   -0.7032 H   0  0  0  0  0  0  0  0  0  0  0  0
    0.6672    1.4568    0.7153 H   0  0  0  0  0  0  0  0  0  0  0  0
   -0.0770    1.5472   -2.2893 H   0  0  0  0  0  0  0  0  0  0  0  0
   -0.0021    2.9066   -1.1316 H   0  0  0  0  0  0  0  0  0  0  0  0
   -2.7859    0.3592   -2.7887 H   0  0  0  0  0  0  0  0  0  0  0  0
   -3.9666    0.7592   -1.5332 H   0  0  0  0  0  0  0  0  0  0  0  0
   -3.0439   -1.9416   -2.6049 H   0  0  0  0  0  0  0  0  0  0  0  0
   -3.5763   -1.9263   -0.9171 H   0  0  0  0  0  0  0  0  0  0  0  0
   -5.2564   -2.3953   -2.9604 H   0  0  0  0  0  0  0  0  0  0  0  0
   -5.3818   -0.6267   -3.0382 H   0  0  0  0  0  0  0  0  0  0  0  0
   -7.1819   -1.6878   -1.6510 H   0  0  0  0  0  0  0  0  0  0  0  0
   -5.9840   -2.4781   -0.6162 H   0  0  0  0  0  0  0  0  0  0  0  0
   -6.7209    0.9843   -1.9741 H   0  0  0  0  0  0  0  0  0  0  0  0
   -6.8739    3.0137   -0.6007 H   0  0  0  0  0  0  0  0  0  0  0  0
   -6.5366    2.8936    1.8473 H   0  0  0  0  0  0  0  0  0  0  0  0
   -6.0744    0.7253    2.9291 H   0  0  0  0  0  0  0  0  0  0  0  0
   -4.8222   -3.1478    2.6134 H   0  0  0  0  0  0  0  0  0  0  0  0
   -4.3617   -2.7925    0.9482 H   0  0  0  0  0  0  0  0  0  0  0  0
   -2.9763   -2.0107    3.2490 H   0  0  0  0  0  0  0  0  0  0  0  0
   -3.8933   -0.5218    2.9458 H   0  0  0  0  0  0  0  0  0  0  0  0
   -1.7777   -1.8058    1.2460 H   0  0  0  0  0  0  0  0  0  0  0  0
   -0.6048   -0.7662   -2.1140 H   0  0  0  0  0  0  0  0  0  0  0  0
   -1.1620   -1.8117   -0.8112 H   0  0  0  0  0  0  0  0  0  0  0  0
    4.2281   -0.2939   -2.2093 H   0  0  0  0  0  0  0  0  0  0  0  0
    5.7810    0.3685   -3.9889 H   0  0  0  0  0  0  0  0  0  0  0  0
    7.9982    1.2884   -3.4491 H   0  0  0  0  0  0  0  0  0  0  0  0
    9.5612    2.1791   -1.8836 H   0  0  0  0  0  0  0  0  0  0  0  0
    9.7394    0.9068   -0.6148 H   0  0  0  0  0  0  0  0  0  0  0  0
    9.0101    2.5145   -0.2068 H   0  0  0  0  0  0  0  0  0  0  0  0
  1  2  1  0
  2  3  2  0
  3  4  1  0
  4  5  1  0
  5  6  1  0
  6  7  1  0
  7  8  2  0
  7  9  1  0
  9 10  1  0
 10 11  1  0
 11 12  1  0
 12 13  1  0
 13 14  1  0
 14 15  1  0
 15 16  1  0
 16 17  1  0
 17 18  1  0
 18 19  2  0
 19 20  1  0
 20 21  2  0
 21 22  1  0
 22 23  2  0
 23 24  1  0
 24 25  1  0
 25 26  1  0
 26 27  1  0
 27 28  1  0
 28 29  2  0
 13 30  1  0
  4 31  2  0
 31 32  1  0
 32 33  2  0
 33 34  1  0
 34 35  2  0
 35 36  1  0
 35 37  1  0
 37 38  2  0
 38  2  1  0
 30  9  1  0
 37 31  1  0
 28 13  1  0
 23 18  1  0
  1 39  1  0
  1 40  1  0
  1 41  1  0
  3 42  1  0
  6 43  1  0
  6 44  1  0
 10 45  1  0
 10 46  1  0
 11 47  1  0
 11 48  1  0
 14 49  1  0
 14 50  1  0
 15 51  1  0
 15 52  1  0
 16 53  1  0
 16 54  1  0
 17 55  1  0
 17 56  1  0
 19 57  1  0
 20 58  1  0
 21 59  1  0
 22 60  1  0
 25 61  1  0
 25 62  1  0
 26 63  1  0
 26 64  1  0
 27 65  1  0
 30 66  1  0
 30 67  1  0
 32 68  1  0
 33 69  1  0
 34 70  1  0
 36 71  1  0
 36 72  1  0
 36 73  1  0
M  END
$$$$
