
     RDKit          3D

 88 91  0  0  0  0  0  0  0  0999 V2000
    7.9995    3.9628    3.5937 C   0  0  0  0  0  0  0  0  0  0  0  0
    8.2047    2.6014    3.2210 O   0  0  0  0  0  0  0  0  0  0  0  0
    7.5577    1.9595    2.1518 C   0  0  0  0  0  0  0  0  0  0  0  0
    6.5950    2.6117    1.3571 C   0  0  0  0  0  0  0  0  0  0  0  0
    5.9663    1.9344    0.3059 C   0  0  0  0  0  0  0  0  0  0  0  0
    6.2951    0.6017    0.0259 C   0  0  0  0  0  0  0  0  0  0  0  0
    5.5935   -0.1501   -1.0799 C   0  0  0  0  0  0  0  0  0  0  0  0
    4.5843   -1.1519   -0.4871 C   0  0  0  0  0  0  0  0  0  0  0  0
    3.8484   -1.9467   -1.5706 C   0  0  0  0  0  0  0  0  0  0  0  0
    2.7925   -1.1478   -2.1985 N   0  0  0  0  0  0  0  0  0  0  0  0
    1.5153   -0.9593   -1.5652 C   0  0  0  0  0  0  0  0  0  0  0  0
    1.3704   -1.2366   -0.3394 O   0  0  0  0  0  0  0  0  0  0  0  0
    0.3218   -0.4967   -2.3716 C   0  0  0  0  0  0  0  0  0  0  0  0
   -0.2442   -1.6783   -3.1774 C   0  0  0  0  0  0  0  0  0  0  0  0
   -1.5106   -1.3009   -3.8925 C   0  0  0  0  0  0  0  0  0  0  0  0
   -1.5117   -0.3241   -4.6866 O   0  0  0  0  0  0  0  0  0  0  0  0
   -2.6911   -2.0980   -3.7202 N   0  0  0  0  0  0  0  0  0  0  0  0
   -4.0614   -1.5974   -3.5296 C   0  0  0  0  0  0  0  0  0  0  0  0
   -4.1636   -0.0671   -3.5353 C   0  0  0  0  0  0  0  0  0  0  0  0
   -4.6380   -2.1573   -2.2483 C   0  0  0  0  0  0  0  0  0  0  0  0
   -5.6843   -2.8580   -2.2985 O   0  0  0  0  0  0  0  0  0  0  0  0
   -4.0239   -1.9007   -0.9687 N   0  0  0  0  0  0  0  0  0  0  0  0
   -3.0570   -2.9200   -0.5325 C   0  0  0  0  0  0  0  0  0  0  0  0
   -4.7796   -1.1707    0.0846 C   0  0  0  0  0  0  0  0  0  0  0  0
   -5.7423   -0.0967   -0.4950 C   0  0  0  0  0  0  0  0  0  0  0  0
   -6.7183    0.4133    0.5380 C   0  0  0  0  0  0  0  0  0  0  0  0
   -6.5349    1.6727    1.1327 C   0  0  0  0  0  0  0  0  0  0  0  0
   -7.4402    2.1344    2.0916 C   0  0  0  0  0  0  0  0  0  0  0  0
   -8.5332    1.3450    2.4640 C   0  0  0  0  0  0  0  0  0  0  0  0
   -8.7215    0.0930    1.8766 C   0  0  0  0  0  0  0  0  0  0  0  0
   -7.8142   -0.3741    0.9191 C   0  0  0  0  0  0  0  0  0  0  0  0
   -3.8311   -0.5198    1.1164 C   0  0  0  0  0  0  0  0  0  0  0  0
   -2.9159    0.3806    0.4763 O   0  0  0  0  0  0  0  0  0  0  0  0
   -1.9626    1.1577    1.1579 C   0  0  0  0  0  0  0  0  0  0  0  0
   -2.0901    1.4201    2.5361 C   0  0  0  0  0  0  0  0  0  0  0  0
   -1.1694    2.2257    3.1997 C   0  0  0  0  0  0  0  0  0  0  0  0
   -0.0988    2.7790    2.5021 C   0  0  0  0  0  0  0  0  0  0  0  0
    0.0503    2.5286    1.1399 C   0  0  0  0  0  0  0  0  0  0  0  0
   -0.8657    1.7107    0.4543 C   0  0  0  0  0  0  0  0  0  0  0  0
   -0.5803    1.4053   -0.9694 C   0  0  0  0  0  0  0  0  0  0  0  0
   -0.0924    2.3067   -1.7045 O   0  0  0  0  0  0  0  0  0  0  0  0
   -0.7011    0.0677   -1.4805 N   0  0  0  0  0  0  0  0  0  0  0  0
    7.2477   -0.0500    0.8222 C   0  0  0  0  0  0  0  0  0  0  0  0
    7.8806    0.6200    1.8854 C   0  0  0  0  0  0  0  0  0  0  0  0
    8.8314   -0.0131    2.6993 O   0  0  0  0  0  0  0  0  0  0  0  0
    9.2171   -1.3759    2.5667 C   0  0  0  0  0  0  0  0  0  0  0  0
    8.3048    4.6315    2.7594 H   0  0  0  0  0  0  0  0  0  0  0  0
    8.6310    4.1912    4.4780 H   0  0  0  0  0  0  0  0  0  0  0  0
    6.9319    4.1380    3.8559 H   0  0  0  0  0  0  0  0  0  0  0  0
    6.3203    3.6417    1.5501 H   0  0  0  0  0  0  0  0  0  0  0  0
    5.2184    2.4529   -0.2835 H   0  0  0  0  0  0  0  0  0  0  0  0
    5.0676    0.5561   -1.7593 H   0  0  0  0  0  0  0  0  0  0  0  0
    6.3551   -0.6996   -1.6849 H   0  0  0  0  0  0  0  0  0  0  0  0
    3.8553   -0.6071    0.1564 H   0  0  0  0  0  0  0  0  0  0  0  0
    5.1348   -1.8752    0.1604 H   0  0  0  0  0  0  0  0  0  0  0  0
    4.5709   -2.2919   -2.3419 H   0  0  0  0  0  0  0  0  0  0  0  0
    3.3948   -2.8604   -1.1204 H   0  0  0  0  0  0  0  0  0  0  0  0
    2.9227   -0.8634   -3.1966 H   0  0  0  0  0  0  0  0  0  0  0  0
    0.6630    0.2855   -3.0836 H   0  0  0  0  0  0  0  0  0  0  0  0
    0.5073   -2.0129   -3.9230 H   0  0  0  0  0  0  0  0  0  0  0  0
   -0.4471   -2.5325   -2.4933 H   0  0  0  0  0  0  0  0  0  0  0  0
   -2.5620   -3.1377   -3.7306 H   0  0  0  0  0  0  0  0  0  0  0  0
   -4.6758   -1.9645   -4.3838 H   0  0  0  0  0  0  0  0  0  0  0  0
   -5.2102    0.2419   -3.3356 H   0  0  0  0  0  0  0  0  0  0  0  0
   -3.9017    0.3399   -4.5332 H   0  0  0  0  0  0  0  0  0  0  0  0
   -3.5019    0.3774   -2.7628 H   0  0  0  0  0  0  0  0  0  0  0  0
   -2.2291   -2.4620    0.0382 H   0  0  0  0  0  0  0  0  0  0  0  0
   -2.6010   -3.4532   -1.3930 H   0  0  0  0  0  0  0  0  0  0  0  0
   -3.5634   -3.6705    0.1058 H   0  0  0  0  0  0  0  0  0  0  0  0
   -5.4010   -1.9186    0.6287 H   0  0  0  0  0  0  0  0  0  0  0  0
   -5.1575    0.7461   -0.9224 H   0  0  0  0  0  0  0  0  0  0  0  0
   -6.3514   -0.5142   -1.3208 H   0  0  0  0  0  0  0  0  0  0  0  0
   -5.6856    2.2927    0.8661 H   0  0  0  0  0  0  0  0  0  0  0  0
   -7.2951    3.1021    2.5521 H   0  0  0  0  0  0  0  0  0  0  0  0
   -9.2322    1.7067    3.2081 H   0  0  0  0  0  0  0  0  0  0  0  0
   -9.5665   -0.5198    2.1652 H   0  0  0  0  0  0  0  0  0  0  0  0
   -7.9705   -1.3479    0.4709 H   0  0  0  0  0  0  0  0  0  0  0  0
   -4.4416    0.0190    1.8708 H   0  0  0  0  0  0  0  0  0  0  0  0
   -3.2648   -1.2973    1.6704 H   0  0  0  0  0  0  0  0  0  0  0  0
   -2.9124    1.0191    3.1066 H   0  0  0  0  0  0  0  0  0  0  0  0
   -1.2847    2.4223    4.2586 H   0  0  0  0  0  0  0  0  0  0  0  0
    0.6189    3.4022    3.0177 H   0  0  0  0  0  0  0  0  0  0  0  0
    0.9045    2.9540    0.6252 H   0  0  0  0  0  0  0  0  0  0  0  0
   -1.2913   -0.6176   -0.9642 H   0  0  0  0  0  0  0  0  0  0  0  0
    7.4846   -1.0833    0.6013 H   0  0  0  0  0  0  0  0  0  0  0  0
    8.3274   -2.0324    2.6856 H   0  0  0  0  0  0  0  0  0  0  0  0
    9.9518   -1.6280    3.3624 H   0  0  0  0  0  0  0  0  0  0  0  0
    9.6874   -1.5481    1.5724 H   0  0  0  0  0  0  0  0  0  0  0  0
  1  2  1  0
  2  3  1  0
  3  4  2  0
  4  5  1  0
  5  6  2  0
  6  7  1  0
  7  8  1  0
  8  9  1  0
  9 10  1  0
 10 11  1  0
 11 12  2  0
 11 13  1  0
 13 14  1  0
 14 15  1  0
 15 16  2  0
 15 17  1  0
 17 18  1  0
 18 19  1  0
 18 20  1  0
 20 21  2  0
 20 22  1  0
 22 23  1  0
 22 24  1  0
 24 25  1  0
 25 26  1  0
 26 27  2  0
 27 28  1  0
 28 29  2  0
 29 30  1  0
 30 31  2  0
 24 32  1  0
 32 33  1  0
 33 34  1  0
 34 35  2  0
 35 36  1  0
 36 37  2  0
 37 38  1  0
 38 39  2  0
 39 40  1  0
 40 41  2  0
 40 42  1  0
  6 43  1  0
 43 44  2  0
 44 45  1  0
 45 46  1  0
 44  3  1  0
 42 13  1  0
 31 26  1  0
 39 34  1  0
  1 47  1  0
  1 48  1  0
  1 49  1  0
  4 50  1  0
  5 51  1  0
  7 52  1  0
  7 53  1  0
  8 54  1  0
  8 55  1  0
  9 56  1  0
  9 57  1  0
 10 58  1  0
 13 59  1  0
 14 60  1  0
 14 61  1  0
 17 62  1  0
 18 63  1  0
 19 64  1  0
 19 65  1  0
 19 66  1  0
 23 67  1  0
 23 68  1  0
 23 69  1  0
 24 70  1  0
 25 71  1  0
 25 72  1  0
 27 73  1  0
 28 74  1  0
 29 75  1  0
 30 76  1  0
 31 77  1  0
 32 78  1  0
 32 79  1  0
 35 80  1  0
 36 81  1  0
 37 82  1  0
 38 83  1  0
 42 84  1  0
 43 85  1  0
 46 86  1  0
 46 87  1  0
 46 88  1  0
M  END
$$$$
