
     RDKit          3D

 67 69  0  0  0  0  0  0  0  0999 V2000
    6.8930   -2.2031    0.5527 C   0  0  0  0  0  0  0  0  0  0  0  0
    5.7119   -2.3573   -0.3511 C   0  0  0  0  0  0  0  0  0  0  0  0
    5.3787   -3.5063   -0.7517 O   0  0  0  0  0  0  0  0  0  0  0  0
    4.9437   -1.2085   -0.7254 N   0  0  0  0  0  0  0  0  0  0  0  0
    3.8132   -1.3142   -1.6478 C   0  0  0  0  0  0  0  0  0  0  0  0
    3.1817    0.0374   -1.8644 C   0  0  0  0  0  0  0  0  0  0  0  0
    3.8767    0.9289   -2.4257 O   0  0  0  0  0  0  0  0  0  0  0  0
    1.8451    0.3564   -1.4122 N   0  0  0  0  0  0  0  0  0  0  0  0
    1.5016    1.7569   -1.1108 C   0  0  0  0  0  0  0  0  0  0  0  0
    1.9762    2.1290    0.3010 C   0  0  0  0  0  0  0  0  0  0  0  0
    1.6940    3.5998    0.6608 C   0  0  0  0  0  0  0  0  0  0  0  0
    0.2054    3.9051    0.8954 C   0  0  0  0  0  0  0  0  0  0  0  0
   -0.3326    3.1150    2.0043 N   0  0  0  0  0  0  0  0  0  0  0  0
   -1.6854    2.6354    2.0468 C   0  0  0  0  0  0  0  0  0  0  0  0
   -1.9779    1.7013    2.8398 O   0  0  0  0  0  0  0  0  0  0  0  0
   -2.7391    3.1864    1.1668 C   0  0  0  0  0  0  0  0  0  0  0  0
   -2.9628    4.5737    1.1391 C   0  0  0  0  0  0  0  0  0  0  0  0
   -4.0144    5.1059    0.3874 C   0  0  0  0  0  0  0  0  0  0  0  0
   -4.2976    6.8377    0.3833 Cl  0  0  0  0  0  0  0  0  0  0  0  0
   -4.8621    4.2564   -0.3290 C   0  0  0  0  0  0  0  0  0  0  0  0
   -4.6524    2.8762   -0.3059 C   0  0  0  0  0  0  0  0  0  0  0  0
   -3.5795    2.3347    0.4133 C   0  0  0  0  0  0  0  0  0  0  0  0
   -3.3621    0.9539    0.3625 O   0  0  0  0  0  0  0  0  0  0  0  0
   -2.1939    0.3957   -0.2367 C   0  0  0  0  0  0  0  0  0  0  0  0
   -1.9633   -1.0406    0.2765 C   0  0  0  0  0  0  0  0  0  0  0  0
   -2.2722   -2.1189   -0.7835 C   0  0  0  0  0  0  0  0  0  0  0  0
   -2.2308   -3.4984   -0.1753 C   0  0  0  0  0  0  0  0  0  0  0  0
   -3.3374   -3.9793    0.5482 C   0  0  0  0  0  0  0  0  0  0  0  0
   -3.2829   -5.2332    1.1670 C   0  0  0  0  0  0  0  0  0  0  0  0
   -2.1251   -6.0114    1.0726 C   0  0  0  0  0  0  0  0  0  0  0  0
   -1.0186   -5.5379    0.3593 C   0  0  0  0  0  0  0  0  0  0  0  0
   -1.0680   -4.2837   -0.2588 C   0  0  0  0  0  0  0  0  0  0  0  0
   -0.6143   -1.2039    0.8440 N   0  0  0  0  0  0  0  0  0  0  0  0
    0.6523   -1.1010    0.1620 C   0  0  0  0  0  0  0  0  0  0  0  0
    1.6959   -1.3978    0.8032 O   0  0  0  0  0  0  0  0  0  0  0  0
    0.8003   -0.6736   -1.2793 C   0  0  0  0  0  0  0  0  0  0  0  0
    7.4996   -1.3271    0.2366 H   0  0  0  0  0  0  0  0  0  0  0  0
    7.5328   -3.1103    0.5140 H   0  0  0  0  0  0  0  0  0  0  0  0
    6.5424   -2.0479    1.5938 H   0  0  0  0  0  0  0  0  0  0  0  0
    5.2069   -0.2784   -0.3224 H   0  0  0  0  0  0  0  0  0  0  0  0
    3.0926   -2.0490   -1.2429 H   0  0  0  0  0  0  0  0  0  0  0  0
    4.1710   -1.7006   -2.6256 H   0  0  0  0  0  0  0  0  0  0  0  0
    0.4077    1.9059   -1.1945 H   0  0  0  0  0  0  0  0  0  0  0  0
    1.9627    2.4375   -1.8584 H   0  0  0  0  0  0  0  0  0  0  0  0
    3.0740    1.9642    0.3583 H   0  0  0  0  0  0  0  0  0  0  0  0
    1.5017    1.4576    1.0486 H   0  0  0  0  0  0  0  0  0  0  0  0
    2.0790    4.2618   -0.1442 H   0  0  0  0  0  0  0  0  0  0  0  0
    2.2563    3.8522    1.5856 H   0  0  0  0  0  0  0  0  0  0  0  0
    0.0998    4.9812    1.1431 H   0  0  0  0  0  0  0  0  0  0  0  0
   -0.3648    3.7179   -0.0360 H   0  0  0  0  0  0  0  0  0  0  0  0
    0.3064    2.8530    2.7905 H   0  0  0  0  0  0  0  0  0  0  0  0
   -2.3417    5.2399    1.7267 H   0  0  0  0  0  0  0  0  0  0  0  0
   -5.6861    4.6664   -0.8986 H   0  0  0  0  0  0  0  0  0  0  0  0
   -5.3052    2.2238   -0.8725 H   0  0  0  0  0  0  0  0  0  0  0  0
   -2.3185    0.4225   -1.3417 H   0  0  0  0  0  0  0  0  0  0  0  0
   -1.3144    1.0200    0.0132 H   0  0  0  0  0  0  0  0  0  0  0  0
   -2.6858   -1.2032    1.1094 H   0  0  0  0  0  0  0  0  0  0  0  0
   -1.5652   -2.0605   -1.6352 H   0  0  0  0  0  0  0  0  0  0  0  0
   -3.2890   -1.9391   -1.1988 H   0  0  0  0  0  0  0  0  0  0  0  0
   -4.2352   -3.3804    0.6369 H   0  0  0  0  0  0  0  0  0  0  0  0
   -4.1373   -5.5992    1.7253 H   0  0  0  0  0  0  0  0  0  0  0  0
   -2.0843   -6.9808    1.5526 H   0  0  0  0  0  0  0  0  0  0  0  0
   -0.1220   -6.1380    0.2933 H   0  0  0  0  0  0  0  0  0  0  0  0
   -0.1990   -3.9234   -0.7956 H   0  0  0  0  0  0  0  0  0  0  0  0
   -0.5732   -1.4455    1.8611 H   0  0  0  0  0  0  0  0  0  0  0  0
   -0.1409   -0.2791   -1.6945 H   0  0  0  0  0  0  0  0  0  0  0  0
    1.0327   -1.5581   -1.9066 H   0  0  0  0  0  0  0  0  0  0  0  0
  1  2  1  0
  2  3  2  0
  2  4  1  0
  4  5  1  0
  5  6  1  0
  6  7  2  0
  6  8  1  0
  8  9  1  0
  9 10  1  0
 10 11  1  0
 11 12  1  0
 12 13  1  0
 13 14  1  0
 14 15  2  0
 14 16  1  0
 16 17  2  0
 17 18  1  0
 18 19  1  0
 18 20  2  0
 20 21  1  0
 21 22  2  0
 22 23  1  0
 23 24  1  0
 24 25  1  0
 25 26  1  0
 26 27  1  0
 27 28  2  0
 28 29  1  0
 29 30  2  0
 30 31  1  0
 31 32  2  0
 25 33  1  0
 33 34  1  0
 34 35  2  0
 34 36  1  0
 36  8  1  0
 22 16  1  0
 32 27  1  0
  1 37  1  0
  1 38  1  0
  1 39  1  0
  4 40  1  0
  5 41  1  0
  5 42  1  0
  9 43  1  0
  9 44  1  0
 10 45  1  0
 10 46  1  0
 11 47  1  0
 11 48  1  0
 12 49  1  0
 12 50  1  0
 13 51  1  0
 17 52  1  0
 20 53  1  0
 21 54  1  0
 24 55  1  0
 24 56  1  0
 25 57  1  0
 26 58  1  0
 26 59  1  0
 28 60  1  0
 29 61  1  0
 30 62  1  0
 31 63  1  0
 32 64  1  0
 33 65  1  0
 36 66  1  0
 36 67  1  0
M  END
$$$$
