
     RDKit          3D

 58 61  0  0  0  0  0  0  0  0999 V2000
   -2.4445   -0.8851    3.2030 C   0  0  0  0  0  0  0  0  0  0  0  0
   -2.3703   -0.7381    1.7436 N   0  0  0  0  0  0  0  0  0  0  0  0
   -2.0858   -1.9244    0.9118 C   0  0  0  0  0  0  0  0  0  0  0  0
   -0.7264   -2.5840    1.2483 C   0  0  0  0  0  0  0  0  0  0  0  0
    0.4847   -1.6331    1.2041 C   0  0  0  0  0  0  0  0  0  0  0  0
    0.7727   -1.1282   -0.2197 C   0  0  0  0  0  0  0  0  0  0  0  0
    1.8448   -0.1032   -0.2541 N   0  0  0  0  0  0  0  0  0  0  0  0
    2.6109   -0.1020   -1.8310 S   0  0  0  0  0  6  0  0  0  0  0  0
    1.5769    0.1720   -2.8888 O   0  0  0  0  0  0  0  0  0  0  0  0
    3.6804    0.9536   -1.8926 O   0  0  0  0  0  0  0  0  0  0  0  0
    3.3695   -1.6555   -2.1381 C   0  0  0  0  0  0  0  0  0  0  0  0
    3.4581   -2.2829   -3.3729 C   0  0  0  0  0  0  0  0  0  0  0  0
    4.1377   -3.5053   -3.3140 C   0  0  0  0  0  0  0  0  0  0  0  0
    4.5753   -3.8237   -2.0350 C   0  0  0  0  0  0  0  0  0  0  0  0
    5.4626   -5.2666   -1.5902 Cl  0  0  0  0  0  0  0  0  0  0  0  0
    4.1328   -2.5989   -0.9708 S   0  0  0  0  0  0  0  0  0  0  0  0
    1.5196    1.2932    0.1862 C   0  0  0  0  0  0  0  0  0  0  0  0
    2.2576    1.5657    1.5113 C   0  0  0  0  0  0  0  0  0  0  0  0
    2.0601    3.0129    1.9806 C   0  0  0  0  0  0  0  0  0  0  0  0
    0.5707    3.3475    2.1172 C   0  0  0  0  0  0  0  0  0  0  0  0
   -0.1663    3.0995    0.7962 C   0  0  0  0  0  0  0  0  0  0  0  0
    0.0098    1.6448    0.3267 C   0  0  0  0  0  0  0  0  0  0  0  0
   -0.6427    1.4878   -0.9336 O   0  0  0  0  0  0  0  0  0  0  0  0
   -1.9942    1.1878   -1.2109 C   0  0  0  0  0  0  0  0  0  0  0  0
   -2.3697    1.3286   -2.5548 C   0  0  0  0  0  0  0  0  0  0  0  0
   -3.6677    1.0366   -2.9826 C   0  0  0  0  0  0  0  0  0  0  0  0
   -4.6181    0.5892   -2.0697 C   0  0  0  0  0  0  0  0  0  0  0  0
   -4.2737    0.4330   -0.7274 C   0  0  0  0  0  0  0  0  0  0  0  0
   -2.9721    0.7220   -0.2751 C   0  0  0  0  0  0  0  0  0  0  0  0
   -2.7356    0.5421    1.1692 C   0  0  0  0  0  0  0  0  0  0  0  0
   -2.9117    1.5384    1.9238 O   0  0  0  0  0  0  0  0  0  0  0  0
   -3.4295   -0.5237    3.5715 H   0  0  0  0  0  0  0  0  0  0  0  0
   -2.3449   -1.9456    3.5142 H   0  0  0  0  0  0  0  0  0  0  0  0
   -1.6357   -0.2921    3.6792 H   0  0  0  0  0  0  0  0  0  0  0  0
   -2.1158   -1.6838   -0.1693 H   0  0  0  0  0  0  0  0  0  0  0  0
   -2.8895   -2.6749    1.0754 H   0  0  0  0  0  0  0  0  0  0  0  0
   -0.7767   -3.0404    2.2588 H   0  0  0  0  0  0  0  0  0  0  0  0
   -0.5545   -3.4224    0.5385 H   0  0  0  0  0  0  0  0  0  0  0  0
    0.3330   -0.8145    1.9279 H   0  0  0  0  0  0  0  0  0  0  0  0
    1.3793   -2.1892    1.5593 H   0  0  0  0  0  0  0  0  0  0  0  0
    1.0875   -2.0257   -0.7944 H   0  0  0  0  0  0  0  0  0  0  0  0
   -0.1352   -0.7825   -0.7335 H   0  0  0  0  0  0  0  0  0  0  0  0
    3.0516   -1.8701   -4.2873 H   0  0  0  0  0  0  0  0  0  0  0  0
    4.3075   -4.1321   -4.1805 H   0  0  0  0  0  0  0  0  0  0  0  0
    1.9237    2.0314   -0.5430 H   0  0  0  0  0  0  0  0  0  0  0  0
    1.8988    0.8713    2.3005 H   0  0  0  0  0  0  0  0  0  0  0  0
    3.3449    1.3830    1.3703 H   0  0  0  0  0  0  0  0  0  0  0  0
    2.5601    3.1520    2.9644 H   0  0  0  0  0  0  0  0  0  0  0  0
    2.5356    3.7105    1.2545 H   0  0  0  0  0  0  0  0  0  0  0  0
    0.1176    2.7255    2.9218 H   0  0  0  0  0  0  0  0  0  0  0  0
    0.4591    4.4153    2.4050 H   0  0  0  0  0  0  0  0  0  0  0  0
   -1.2452    3.3196    0.9376 H   0  0  0  0  0  0  0  0  0  0  0  0
    0.2186    3.7962    0.0182 H   0  0  0  0  0  0  0  0  0  0  0  0
   -0.4022    0.9887    1.0910 H   0  0  0  0  0  0  0  0  0  0  0  0
   -1.6413    1.6698   -3.2807 H   0  0  0  0  0  0  0  0  0  0  0  0
   -3.9341    1.1560   -4.0258 H   0  0  0  0  0  0  0  0  0  0  0  0
   -5.6263    0.3672   -2.4011 H   0  0  0  0  0  0  0  0  0  0  0  0
   -5.0313    0.0869   -0.0333 H   0  0  0  0  0  0  0  0  0  0  0  0
  1  2  1  0
  2  3  1  0
  3  4  1  0
  4  5  1  0
  5  6  1  0
  6  7  1  0
  7  8  1  0
  8  9  2  0
  8 10  2  0
  8 11  1  0
 11 12  2  0
 12 13  1  0
 13 14  2  0
 14 15  1  0
 14 16  1  0
  7 17  1  0
 17 18  1  0
 18 19  1  0
 19 20  1  0
 20 21  1  0
 21 22  1  0
 22 23  1  0
 23 24  1  0
 24 25  2  0
 25 26  1  0
 26 27  2  0
 27 28  1  0
 28 29  2  0
 29 30  1  0
 30 31  2  0
 30  2  1  0
 16 11  1  0
 22 17  1  0
 29 24  1  0
  1 32  1  0
  1 33  1  0
  1 34  1  0
  3 35  1  0
  3 36  1  0
  4 37  1  0
  4 38  1  0
  5 39  1  0
  5 40  1  0
  6 41  1  0
  6 42  1  0
 12 43  1  0
 13 44  1  0
 17 45  1  0
 18 46  1  0
 18 47  1  0
 19 48  1  0
 19 49  1  0
 20 50  1  0
 20 51  1  0
 21 52  1  0
 21 53  1  0
 22 54  1  0
 25 55  1  0
 26 56  1  0
 27 57  1  0
 28 58  1  0
M  END
$$$$
