
     RDKit          3D

 72 74  0  0  0  0  0  0  0  0999 V2000
   -4.6684   -0.0084   -0.6642 C   0  0  0  0  0  0  0  0  0  0  0  0
   -3.1392    0.0606   -0.8374 C   0  0  0  0  0  0  0  0  0  0  0  0
   -2.7169   -0.8238   -2.0206 C   0  0  0  0  0  0  0  0  0  0  0  0
   -2.3298   -0.2932    0.4595 C   0  0  0  0  0  0  0  0  0  0  0  0
   -2.7530   -1.6521    1.0019 C   0  0  0  0  0  0  0  0  0  0  0  0
   -3.8218   -1.7300    1.6694 O   0  0  0  0  0  0  0  0  0  0  0  0
   -2.0088   -2.8594    0.7248 N   0  0  0  0  0  0  0  0  0  0  0  0
   -2.7487   -4.1117    0.5378 C   0  0  0  0  0  0  0  0  0  0  0  0
   -0.5405   -2.8923    0.7481 C   0  0  0  0  0  0  0  0  0  0  0  0
    0.0285   -3.1921   -0.6495 C   0  0  0  0  0  0  0  0  0  0  0  0
    1.5168   -2.8355   -0.7542 C   0  0  0  0  0  0  0  0  0  0  0  0
    1.7290   -1.3380   -1.0265 C   0  0  0  0  0  0  0  0  0  0  0  0
    3.0180   -0.8903   -0.4809 N   0  0  0  0  0  0  0  0  0  0  0  0
    4.2408   -1.1632   -1.2188 C   0  0  0  0  0  0  0  0  0  0  0  0
    4.1675   -1.7760   -2.3165 O   0  0  0  0  0  0  0  0  0  0  0  0
    5.5951   -0.7862   -0.7401 C   0  0  0  0  0  0  0  0  0  0  0  0
    6.7893   -1.3068   -1.2221 C   0  0  0  0  0  0  0  0  0  0  0  0
    7.7681   -0.6776   -0.4858 C   0  0  0  0  0  0  0  0  0  0  0  0
    7.1754    0.1827    0.3619 N   0  0  0  0  0  0  0  0  0  0  0  0
    5.8592    0.1262    0.2137 N   0  0  0  0  0  0  0  0  0  0  0  0
    3.0240   -0.3674    0.8987 C   0  0  0  0  0  0  0  0  0  0  0  0
    3.0774    1.1807    0.9184 C   0  0  0  0  0  0  0  0  0  0  0  0
    1.7571    1.8370    1.3716 C   0  0  0  0  0  0  0  0  0  0  0  0
    0.8592    2.2733    0.2065 C   0  0  0  0  0  0  0  0  0  0  0  0
   -0.4428    2.5579    0.7281 O   0  0  0  0  0  0  0  0  0  0  0  0
   -1.4818    3.2134    0.0442 C   0  0  0  0  0  0  0  0  0  0  0  0
   -1.2292    4.1043   -1.0189 C   0  0  0  0  0  0  0  0  0  0  0  0
   -2.2774    4.8199   -1.6041 C   0  0  0  0  0  0  0  0  0  0  0  0
   -3.5839    4.6610   -1.1382 C   0  0  0  0  0  0  0  0  0  0  0  0
   -4.8929    5.5775   -1.8662 Cl  0  0  0  0  0  0  0  0  0  0  0  0
   -3.8529    3.7591   -0.1059 C   0  0  0  0  0  0  0  0  0  0  0  0
   -2.8146    3.0087    0.4724 C   0  0  0  0  0  0  0  0  0  0  0  0
   -3.1510    1.9577    1.4621 C   0  0  0  0  0  0  0  0  0  0  0  0
   -4.1020    2.1539    2.2665 O   0  0  0  0  0  0  0  0  0  0  0  0
   -2.4039    0.7252    1.5444 N   0  0  0  0  0  0  0  0  0  0  0  0
   -1.6687    0.4981    2.7884 C   0  0  0  0  0  0  0  0  0  0  0  0
   -5.1666    0.4775   -1.5320 H   0  0  0  0  0  0  0  0  0  0  0  0
   -5.0186   -1.0619   -0.6195 H   0  0  0  0  0  0  0  0  0  0  0  0
   -4.9993    0.5174    0.2537 H   0  0  0  0  0  0  0  0  0  0  0  0
   -2.8813    1.0881   -1.1564 H   0  0  0  0  0  0  0  0  0  0  0  0
   -2.9368   -1.8928   -1.8211 H   0  0  0  0  0  0  0  0  0  0  0  0
   -3.2711   -0.5252   -2.9380 H   0  0  0  0  0  0  0  0  0  0  0  0
   -1.6304   -0.6998   -2.2201 H   0  0  0  0  0  0  0  0  0  0  0  0
   -1.2663   -0.3356    0.1455 H   0  0  0  0  0  0  0  0  0  0  0  0
   -3.3960   -4.3071    1.4182 H   0  0  0  0  0  0  0  0  0  0  0  0
   -2.0584   -4.9741    0.4135 H   0  0  0  0  0  0  0  0  0  0  0  0
   -3.3818   -4.0386   -0.3745 H   0  0  0  0  0  0  0  0  0  0  0  0
   -0.2035   -3.6822    1.4565 H   0  0  0  0  0  0  0  0  0  0  0  0
   -0.1364   -1.9435    1.1457 H   0  0  0  0  0  0  0  0  0  0  0  0
   -0.0919   -4.2760   -0.8543 H   0  0  0  0  0  0  0  0  0  0  0  0
   -0.5408   -2.6524   -1.4312 H   0  0  0  0  0  0  0  0  0  0  0  0
    2.0432   -3.1504    0.1727 H   0  0  0  0  0  0  0  0  0  0  0  0
    1.9624   -3.4072   -1.5930 H   0  0  0  0  0  0  0  0  0  0  0  0
    1.6774   -1.1360   -2.1183 H   0  0  0  0  0  0  0  0  0  0  0  0
    0.9101   -0.7438   -0.5753 H   0  0  0  0  0  0  0  0  0  0  0  0
    6.9241   -2.0429   -2.0062 H   0  0  0  0  0  0  0  0  0  0  0  0
    8.8400   -0.8227   -0.5747 H   0  0  0  0  0  0  0  0  0  0  0  0
    7.6655    0.8024    1.0409 H   0  0  0  0  0  0  0  0  0  0  0  0
    3.8849   -0.7974    1.4631 H   0  0  0  0  0  0  0  0  0  0  0  0
    2.1387   -0.7471    1.4590 H   0  0  0  0  0  0  0  0  0  0  0  0
    3.8544    1.4725    1.6599 H   0  0  0  0  0  0  0  0  0  0  0  0
    3.4074    1.5914   -0.0640 H   0  0  0  0  0  0  0  0  0  0  0  0
    1.1948    1.1719    2.0633 H   0  0  0  0  0  0  0  0  0  0  0  0
    2.0034    2.7524    1.9629 H   0  0  0  0  0  0  0  0  0  0  0  0
    1.3159    3.1763   -0.2487 H   0  0  0  0  0  0  0  0  0  0  0  0
    0.7773    1.4838   -0.5646 H   0  0  0  0  0  0  0  0  0  0  0  0
   -0.2263    4.2768   -1.3842 H   0  0  0  0  0  0  0  0  0  0  0  0
   -2.0695    5.5077   -2.4156 H   0  0  0  0  0  0  0  0  0  0  0  0
   -4.8790    3.6113    0.2147 H   0  0  0  0  0  0  0  0  0  0  0  0
   -0.8565   -0.2490    2.6447 H   0  0  0  0  0  0  0  0  0  0  0  0
   -1.2057    1.4453    3.1396 H   0  0  0  0  0  0  0  0  0  0  0  0
   -2.3602    0.1178    3.5692 H   0  0  0  0  0  0  0  0  0  0  0  0
  1  2  1  0
  2  3  1  0
  2  4  1  0
  4  5  1  0
  5  6  2  0
  5  7  1  0
  7  8  1  0
  7  9  1  0
  9 10  1  0
 10 11  1  0
 11 12  1  0
 12 13  1  0
 13 14  1  0
 14 15  2  0
 14 16  1  0
 16 17  1  0
 17 18  2  0
 18 19  1  0
 19 20  1  0
 13 21  1  0
 21 22  1  0
 22 23  1  0
 23 24  1  0
 24 25  1  0
 25 26  1  0
 26 27  2  0
 27 28  1  0
 28 29  2  0
 29 30  1  0
 29 31  1  0
 31 32  2  0
 32 33  1  0
 33 34  2  0
 33 35  1  0
 35 36  1  0
 35  4  1  0
 20 16  2  0
 32 26  1  0
  1 37  1  0
  1 38  1  0
  1 39  1  0
  2 40  1  0
  3 41  1  0
  3 42  1  0
  3 43  1  0
  4 44  1  0
  8 45  1  0
  8 46  1  0
  8 47  1  0
  9 48  1  0
  9 49  1  0
 10 50  1  0
 10 51  1  0
 11 52  1  0
 11 53  1  0
 12 54  1  0
 12 55  1  0
 17 56  1  0
 18 57  1  0
 19 58  1  0
 21 59  1  0
 21 60  1  0
 22 61  1  0
 22 62  1  0
 23 63  1  0
 23 64  1  0
 24 65  1  0
 24 66  1  0
 27 67  1  0
 28 68  1  0
 31 69  1  0
 36 70  1  0
 36 71  1  0
 36 72  1  0
M  END
$$$$
