
     RDKit          3D

 75 77  0  0  0  0  0  0  0  0999 V2000
    7.2814   -1.5429   -1.4477 C   0  0  0  0  0  0  0  0  0  0  0  0
    7.1504   -0.0633   -1.0885 C   0  0  0  0  0  0  0  0  0  0  0  0
    5.7936    0.2356   -0.5829 N   0  0  0  0  0  0  0  0  0  0  0  0
    5.8261    1.4067    0.3205 C   0  0  0  0  0  0  0  0  0  0  0  0
    4.4325    2.0256    0.5798 C   0  0  0  0  0  0  0  0  0  0  0  0
    3.3273    1.1490    0.1536 N   0  0  0  0  0  0  0  0  0  0  0  0
    2.0549    1.2570    0.8350 C   0  0  0  0  0  0  0  0  0  0  0  0
    1.8122    2.2851    1.5267 O   0  0  0  0  0  0  0  0  0  0  0  0
    1.0018    0.1669    0.7550 C   0  0  0  0  0  0  0  0  0  0  0  0
   -0.0315    0.4030   -0.3733 C   0  0  0  0  0  0  0  0  0  0  0  0
   -0.7590    1.7640   -0.3673 C   0  0  0  0  0  0  0  0  0  0  0  0
   -1.8804    1.8284    0.6357 C   0  0  0  0  0  0  0  0  0  0  0  0
   -1.6948    2.4691    1.7063 O   0  0  0  0  0  0  0  0  0  0  0  0
   -3.1552    1.1951    0.4184 N   0  0  0  0  0  0  0  0  0  0  0  0
   -3.6227    0.6900   -0.8804 C   0  0  0  0  0  0  0  0  0  0  0  0
   -4.2766    1.8198   -1.7085 C   0  0  0  0  0  0  0  0  0  0  0  0
   -5.5234    2.4700   -1.0445 C   0  0  0  0  0  0  0  0  0  0  0  0
   -5.1452    3.7326   -0.2528 C   0  0  0  0  0  0  0  0  0  0  0  0
   -6.5725    2.8281   -2.1069 C   0  0  0  0  0  0  0  0  0  0  0  0
   -4.5429   -0.5042   -0.7214 C   0  0  0  0  0  0  0  0  0  0  0  0
   -5.0422   -1.0450   -1.7463 O   0  0  0  0  0  0  0  0  0  0  0  0
   -4.7761   -1.0963    0.5612 N   0  0  0  0  0  0  0  0  0  0  0  0
   -4.1747   -2.3785    0.9204 C   0  0  0  0  0  0  0  0  0  0  0  0
   -2.6525   -2.2824    0.8429 C   0  0  0  0  0  0  0  0  0  0  0  0
   -2.0503   -3.3512    1.5711 O   0  0  0  0  0  0  0  0  0  0  0  0
   -0.6659   -3.5702    1.6129 C   0  0  0  0  0  0  0  0  0  0  0  0
   -0.1997   -4.8455    1.2669 C   0  0  0  0  0  0  0  0  0  0  0  0
    1.1677   -5.1285    1.2682 C   0  0  0  0  0  0  0  0  0  0  0  0
    2.0844   -4.1449    1.6379 C   0  0  0  0  0  0  0  0  0  0  0  0
    1.6357   -2.8787    2.0187 C   0  0  0  0  0  0  0  0  0  0  0  0
    0.2635   -2.5694    2.0012 C   0  0  0  0  0  0  0  0  0  0  0  0
   -0.1756   -1.2655    2.5413 C   0  0  0  0  0  0  0  0  0  0  0  0
   -1.0262   -1.2549    3.4707 O   0  0  0  0  0  0  0  0  0  0  0  0
    0.3428   -0.0122    2.0579 N   0  0  0  0  0  0  0  0  0  0  0  0
    3.4287    0.4073   -1.1143 C   0  0  0  0  0  0  0  0  0  0  0  0
    4.8436    0.4676   -1.6827 C   0  0  0  0  0  0  0  0  0  0  0  0
    6.6851   -1.7871   -2.3506 H   0  0  0  0  0  0  0  0  0  0  0  0
    6.9418   -2.1755   -0.5997 H   0  0  0  0  0  0  0  0  0  0  0  0
    8.3460   -1.7793   -1.6648 H   0  0  0  0  0  0  0  0  0  0  0  0
    7.9129    0.1442   -0.3035 H   0  0  0  0  0  0  0  0  0  0  0  0
    7.4021    0.5681   -1.9707 H   0  0  0  0  0  0  0  0  0  0  0  0
    6.4916    2.2015   -0.0880 H   0  0  0  0  0  0  0  0  0  0  0  0
    6.2588    1.0844    1.2921 H   0  0  0  0  0  0  0  0  0  0  0  0
    4.3498    2.2549    1.6647 H   0  0  0  0  0  0  0  0  0  0  0  0
    4.3509    2.9874    0.0288 H   0  0  0  0  0  0  0  0  0  0  0  0
    1.5254   -0.7696    0.5022 H   0  0  0  0  0  0  0  0  0  0  0  0
    0.4935    0.3113   -1.3478 H   0  0  0  0  0  0  0  0  0  0  0  0
   -0.7726   -0.4196   -0.3580 H   0  0  0  0  0  0  0  0  0  0  0  0
   -0.0445    2.5932   -0.1875 H   0  0  0  0  0  0  0  0  0  0  0  0
   -1.1709    1.9580   -1.3790 H   0  0  0  0  0  0  0  0  0  0  0  0
   -3.8515    1.2859    1.1909 H   0  0  0  0  0  0  0  0  0  0  0  0
   -2.7557    0.3122   -1.4598 H   0  0  0  0  0  0  0  0  0  0  0  0
   -4.5472    1.3917   -2.6991 H   0  0  0  0  0  0  0  0  0  0  0  0
   -3.5128    2.5978   -1.9279 H   0  0  0  0  0  0  0  0  0  0  0  0
   -5.9996    1.7514   -0.3412 H   0  0  0  0  0  0  0  0  0  0  0  0
   -4.4609    3.4854    0.5829 H   0  0  0  0  0  0  0  0  0  0  0  0
   -6.0557    4.1998    0.1840 H   0  0  0  0  0  0  0  0  0  0  0  0
   -4.6485    4.4770   -0.9133 H   0  0  0  0  0  0  0  0  0  0  0  0
   -7.4654    3.2865   -1.6298 H   0  0  0  0  0  0  0  0  0  0  0  0
   -6.1515    3.5442   -2.8451 H   0  0  0  0  0  0  0  0  0  0  0  0
   -6.9028    1.9125   -2.6409 H   0  0  0  0  0  0  0  0  0  0  0  0
   -5.2408   -0.5341    1.3058 H   0  0  0  0  0  0  0  0  0  0  0  0
   -4.4727   -2.6392    1.9583 H   0  0  0  0  0  0  0  0  0  0  0  0
   -4.5434   -3.1743    0.2393 H   0  0  0  0  0  0  0  0  0  0  0  0
   -2.3328   -2.3324   -0.2199 H   0  0  0  0  0  0  0  0  0  0  0  0
   -2.3502   -1.3067    1.2635 H   0  0  0  0  0  0  0  0  0  0  0  0
   -0.9021   -5.6179    0.9797 H   0  0  0  0  0  0  0  0  0  0  0  0
    1.5157   -6.1141    0.9870 H   0  0  0  0  0  0  0  0  0  0  0  0
    3.1437   -4.3706    1.6529 H   0  0  0  0  0  0  0  0  0  0  0  0
    2.3581   -2.1435    2.3521 H   0  0  0  0  0  0  0  0  0  0  0  0
    0.0641    0.8406    2.5939 H   0  0  0  0  0  0  0  0  0  0  0  0
    2.7214    0.8293   -1.8583 H   0  0  0  0  0  0  0  0  0  0  0  0
    3.1831   -0.6621   -0.9457 H   0  0  0  0  0  0  0  0  0  0  0  0
    4.9332   -0.3153   -2.4670 H   0  0  0  0  0  0  0  0  0  0  0  0
    5.0256    1.4569   -2.1654 H   0  0  0  0  0  0  0  0  0  0  0  0
  1  2  1  0
  2  3  1  0
  3  4  1  0
  4  5  1  0
  5  6  1  0
  6  7  1  0
  7  8  2  0
  7  9  1  0
  9 10  1  0
 10 11  1  0
 11 12  1  0
 12 13  2  0
 12 14  1  0
 14 15  1  0
 15 16  1  0
 16 17  1  0
 17 18  1  0
 17 19  1  0
 15 20  1  0
 20 21  2  0
 20 22  1  0
 22 23  1  0
 23 24  1  0
 24 25  1  0
 25 26  1  0
 26 27  2  0
 27 28  1  0
 28 29  2  0
 29 30  1  0
 30 31  2  0
 31 32  1  0
 32 33  2  0
 32 34  1  0
  6 35  1  0
 35 36  1  0
 36  3  1  0
 34  9  1  0
 31 26  1  0
  1 37  1  0
  1 38  1  0
  1 39  1  0
  2 40  1  0
  2 41  1  0
  4 42  1  0
  4 43  1  0
  5 44  1  0
  5 45  1  0
  9 46  1  0
 10 47  1  0
 10 48  1  0
 11 49  1  0
 11 50  1  0
 14 51  1  0
 15 52  1  0
 16 53  1  0
 16 54  1  0
 17 55  1  0
 18 56  1  0
 18 57  1  0
 18 58  1  0
 19 59  1  0
 19 60  1  0
 19 61  1  0
 22 62  1  0
 23 63  1  0
 23 64  1  0
 24 65  1  0
 24 66  1  0
 27 67  1  0
 28 68  1  0
 29 69  1  0
 30 70  1  0
 34 71  1  0
 35 72  1  0
 35 73  1  0
 36 74  1  0
 36 75  1  0
M  END
$$$$
