
     RDKit          3D

 78 80  0  0  0  0  0  0  0  0999 V2000
   -4.5365    3.3005   -0.6814 C   0  0  0  0  0  0  0  0  0  0  0  0
   -3.9438    1.8959   -0.5241 C   0  0  0  0  0  0  0  0  0  0  0  0
   -3.5300    1.3387   -1.8731 C   0  0  0  0  0  0  0  0  0  0  0  0
   -4.0791    0.3006   -2.3366 O   0  0  0  0  0  0  0  0  0  0  0  0
   -2.5250    2.0003   -2.6589 N   0  0  0  0  0  0  0  0  0  0  0  0
   -2.8407    2.3516   -4.0449 C   0  0  0  0  0  0  0  0  0  0  0  0
   -1.1721    2.1920   -2.1202 C   0  0  0  0  0  0  0  0  0  0  0  0
   -0.4759    0.8342   -1.9717 C   0  0  0  0  0  0  0  0  0  0  0  0
    0.9210    0.9738   -1.3506 C   0  0  0  0  0  0  0  0  0  0  0  0
    1.5991   -0.3979   -1.1488 C   0  0  0  0  0  0  0  0  0  0  0  0
    1.6857   -0.7585    0.2791 N   0  0  0  0  0  0  0  0  0  0  0  0
    2.9684   -1.0133    0.8963 C   0  0  0  0  0  0  0  0  0  0  0  0
    3.0747   -1.9295    1.7545 O   0  0  0  0  0  0  0  0  0  0  0  0
    4.1781   -0.2474    0.5404 C   0  0  0  0  0  0  0  0  0  0  0  0
    5.4763   -0.6922    0.6809 C   0  0  0  0  0  0  0  0  0  0  0  0
    6.2533    0.3564    0.2030 C   0  0  0  0  0  0  0  0  0  0  0  0
    7.7703    0.4285    0.1507 C   0  0  0  0  0  0  0  0  0  0  0  0
    8.2056    1.0213   -1.2044 C   0  0  0  0  0  0  0  0  0  0  0  0
    8.4100   -0.9694    0.3031 C   0  0  0  0  0  0  0  0  0  0  0  0
    8.2660    1.3358    1.2907 C   0  0  0  0  0  0  0  0  0  0  0  0
    5.4491    1.3824   -0.1498 N   0  0  0  0  0  0  0  0  0  0  0  0
    4.1963    1.0074    0.0525 N   0  0  0  0  0  0  0  0  0  0  0  0
    0.4580   -1.1369    0.9973 C   0  0  0  0  0  0  0  0  0  0  0  0
    0.1387   -2.6292    0.7929 C   0  0  0  0  0  0  0  0  0  0  0  0
   -1.3075   -2.9726    1.1848 C   0  0  0  0  0  0  0  0  0  0  0  0
   -2.3431   -2.5276    0.1285 C   0  0  0  0  0  0  0  0  0  0  0  0
   -3.2133   -1.5280    0.6538 O   0  0  0  0  0  0  0  0  0  0  0  0
   -4.2274   -1.7458    1.6058 C   0  0  0  0  0  0  0  0  0  0  0  0
   -4.5295   -3.0316    2.1020 C   0  0  0  0  0  0  0  0  0  0  0  0
   -5.5217   -3.2025    3.0698 C   0  0  0  0  0  0  0  0  0  0  0  0
   -6.2180   -2.0963    3.5624 C   0  0  0  0  0  0  0  0  0  0  0  0
   -7.4604   -2.3119    4.7783 Cl  0  0  0  0  0  0  0  0  0  0  0  0
   -5.9271   -0.8163    3.0805 C   0  0  0  0  0  0  0  0  0  0  0  0
   -4.9479   -0.6388    2.0928 C   0  0  0  0  0  0  0  0  0  0  0  0
   -4.6788    0.7117    1.5710 C   0  0  0  0  0  0  0  0  0  0  0  0
   -4.2986    1.6190    2.3623 O   0  0  0  0  0  0  0  0  0  0  0  0
   -4.8921    1.0123    0.1823 N   0  0  0  0  0  0  0  0  0  0  0  0
   -6.1842    0.6317   -0.4033 C   0  0  0  0  0  0  0  0  0  0  0  0
   -4.9346    3.6577    0.2928 H   0  0  0  0  0  0  0  0  0  0  0  0
   -3.7509    4.0079   -1.0267 H   0  0  0  0  0  0  0  0  0  0  0  0
   -5.3630    3.3039   -1.4263 H   0  0  0  0  0  0  0  0  0  0  0  0
   -3.0217    1.9865    0.0875 H   0  0  0  0  0  0  0  0  0  0  0  0
   -3.7168    3.0329   -4.0665 H   0  0  0  0  0  0  0  0  0  0  0  0
   -3.0823    1.4340   -4.6218 H   0  0  0  0  0  0  0  0  0  0  0  0
   -1.9896    2.8635   -4.5391 H   0  0  0  0  0  0  0  0  0  0  0  0
   -1.2227    2.7156   -1.1410 H   0  0  0  0  0  0  0  0  0  0  0  0
   -0.5675    2.8339   -2.7963 H   0  0  0  0  0  0  0  0  0  0  0  0
   -1.1044    0.1730   -1.3439 H   0  0  0  0  0  0  0  0  0  0  0  0
   -0.3874    0.3660   -2.9771 H   0  0  0  0  0  0  0  0  0  0  0  0
    0.8550    1.5253   -0.3830 H   0  0  0  0  0  0  0  0  0  0  0  0
    1.5493    1.5850   -2.0379 H   0  0  0  0  0  0  0  0  0  0  0  0
    1.0610   -1.1977   -1.7014 H   0  0  0  0  0  0  0  0  0  0  0  0
    2.6105   -0.3712   -1.6069 H   0  0  0  0  0  0  0  0  0  0  0  0
    5.8014   -1.6557    1.0476 H   0  0  0  0  0  0  0  0  0  0  0  0
    7.8138    2.0542   -1.3316 H   0  0  0  0  0  0  0  0  0  0  0  0
    7.8258    0.3951   -2.0394 H   0  0  0  0  0  0  0  0  0  0  0  0
    9.3153    1.0636   -1.2755 H   0  0  0  0  0  0  0  0  0  0  0  0
    9.5175   -0.9070    0.2079 H   0  0  0  0  0  0  0  0  0  0  0  0
    8.0306   -1.6603   -0.4808 H   0  0  0  0  0  0  0  0  0  0  0  0
    8.1813   -1.4029    1.3009 H   0  0  0  0  0  0  0  0  0  0  0  0
    7.9429    0.9369    2.2776 H   0  0  0  0  0  0  0  0  0  0  0  0
    7.8572    2.3641    1.1803 H   0  0  0  0  0  0  0  0  0  0  0  0
    9.3761    1.3995    1.2866 H   0  0  0  0  0  0  0  0  0  0  0  0
    3.3727    1.6208   -0.1261 H   0  0  0  0  0  0  0  0  0  0  0  0
    0.5774   -0.9266    2.0846 H   0  0  0  0  0  0  0  0  0  0  0  0
   -0.3891   -0.5091    0.6565 H   0  0  0  0  0  0  0  0  0  0  0  0
    0.3182   -2.9309   -0.2594 H   0  0  0  0  0  0  0  0  0  0  0  0
    0.8274   -3.2320    1.4240 H   0  0  0  0  0  0  0  0  0  0  0  0
   -1.5362   -2.5222    2.1799 H   0  0  0  0  0  0  0  0  0  0  0  0
   -1.3821   -4.0776    1.3094 H   0  0  0  0  0  0  0  0  0  0  0  0
   -2.9362   -3.3968   -0.2314 H   0  0  0  0  0  0  0  0  0  0  0  0
   -1.8379   -2.1080   -0.7675 H   0  0  0  0  0  0  0  0  0  0  0  0
   -4.0013   -3.9046    1.7481 H   0  0  0  0  0  0  0  0  0  0  0  0
   -5.7494   -4.1965    3.4374 H   0  0  0  0  0  0  0  0  0  0  0  0
   -6.4752    0.0370    3.4614 H   0  0  0  0  0  0  0  0  0  0  0  0
   -6.3318    1.0935   -1.4003 H   0  0  0  0  0  0  0  0  0  0  0  0
   -6.2401   -0.4735   -0.5065 H   0  0  0  0  0  0  0  0  0  0  0  0
   -7.0115    0.9740    0.2551 H   0  0  0  0  0  0  0  0  0  0  0  0
  1  2  1  0
  2  3  1  0
  3  4  2  0
  3  5  1  0
  5  6  1  0
  5  7  1  0
  7  8  1  0
  8  9  1  0
  9 10  1  0
 10 11  1  0
 11 12  1  0
 12 13  2  0
 12 14  1  0
 14 15  2  0
 15 16  1  0
 16 17  1  0
 17 18  1  0
 17 19  1  0
 17 20  1  0
 16 21  2  0
 21 22  1  0
 11 23  1  0
 23 24  1  0
 24 25  1  0
 25 26  1  0
 26 27  1  0
 27 28  1  0
 28 29  2  0
 29 30  1  0
 30 31  2  0
 31 32  1  0
 31 33  1  0
 33 34  2  0
 34 35  1  0
 35 36  2  0
 35 37  1  0
 37 38  1  0
 37  2  1  0
 22 14  1  0
 34 28  1  0
  1 39  1  0
  1 40  1  0
  1 41  1  0
  2 42  1  0
  6 43  1  0
  6 44  1  0
  6 45  1  0
  7 46  1  0
  7 47  1  0
  8 48  1  0
  8 49  1  0
  9 50  1  0
  9 51  1  0
 10 52  1  0
 10 53  1  0
 15 54  1  0
 18 55  1  0
 18 56  1  0
 18 57  1  0
 19 58  1  0
 19 59  1  0
 19 60  1  0
 20 61  1  0
 20 62  1  0
 20 63  1  0
 22 64  1  0
 23 65  1  0
 23 66  1  0
 24 67  1  0
 24 68  1  0
 25 69  1  0
 25 70  1  0
 26 71  1  0
 26 72  1  0
 29 73  1  0
 30 74  1  0
 33 75  1  0
 38 76  1  0
 38 77  1  0
 38 78  1  0
M  END
$$$$
