
     RDKit          3D

 67 70  0  0  0  0  0  0  0  0999 V2000
   -2.9149   -2.7423    2.1747 C   0  0  0  0  0  0  0  0  0  0  0  0
   -2.5820   -3.4673    0.8765 C   0  0  0  0  0  0  0  0  0  0  0  0
   -1.8327   -2.5859   -0.0352 N   0  0  0  0  0  0  0  0  0  0  0  0
   -2.3852   -2.3043   -1.3695 C   0  0  0  0  0  0  0  0  0  0  0  0
   -3.7474   -1.6041   -1.3201 C   0  0  0  0  0  0  0  0  0  0  0  0
   -3.6980   -0.4630   -0.4651 O   0  0  0  0  0  0  0  0  0  0  0  0
   -4.5627    0.6425   -0.5495 C   0  0  0  0  0  0  0  0  0  0  0  0
   -5.6586    0.6624   -1.4379 C   0  0  0  0  0  0  0  0  0  0  0  0
   -6.4573    1.8016   -1.5543 C   0  0  0  0  0  0  0  0  0  0  0  0
   -6.1810    2.9311   -0.7867 C   0  0  0  0  0  0  0  0  0  0  0  0
   -5.1198    2.9178    0.1188 C   0  0  0  0  0  0  0  0  0  0  0  0
   -4.3176    1.7720    0.2636 C   0  0  0  0  0  0  0  0  0  0  0  0
   -3.2297    1.7684    1.3120 C   0  0  0  0  0  0  0  0  0  0  0  0
   -1.8675    2.2478    0.7719 C   0  0  0  0  0  0  0  0  0  0  0  0
   -1.0738    1.1926   -0.0225 C   0  0  0  0  0  0  0  0  0  0  0  0
   -0.5932    0.0173    0.8568 C   0  0  0  0  0  0  0  0  0  0  0  0
    0.2792   -1.0599    0.1106 C   0  0  0  0  0  0  0  0  0  0  0  0
    1.6680   -1.1307    0.8424 C   0  0  0  0  0  0  0  0  0  0  0  0
    2.4860    0.0205    0.4472 N   0  0  0  0  0  0  0  0  0  0  0  0
    3.2542    0.7609    1.4238 C   0  0  0  0  0  0  0  0  0  0  0  0
    3.1867    0.4488    2.6439 O   0  0  0  0  0  0  0  0  0  0  0  0
    4.1835    1.8779    1.0333 C   0  0  0  0  0  0  0  0  0  0  0  0
    5.5250    1.3541    0.7983 N   0  0  0  0  0  0  0  0  0  0  0  0
    6.4348    1.0585    1.7467 C   0  0  0  0  0  0  0  0  0  0  0  0
    7.5529    0.5384    1.1307 C   0  0  0  0  0  0  0  0  0  0  0  0
    7.2415    0.5528   -0.2175 C   0  0  0  0  0  0  0  0  0  0  0  0
    8.1010    0.0204   -1.3192 C   0  0  0  0  0  0  0  0  0  0  0  0
    8.0650   -1.3612   -1.3037 F   0  0  0  0  0  0  0  0  0  0  0  0
    7.6410    0.4728   -2.5426 F   0  0  0  0  0  0  0  0  0  0  0  0
    9.4050    0.4454   -1.1435 F   0  0  0  0  0  0  0  0  0  0  0  0
    5.9970    1.0379   -0.3967 N   0  0  0  0  0  0  0  0  0  0  0  0
    2.5659    0.3226   -0.9859 C   0  0  0  0  0  0  0  0  0  0  0  0
    1.6997   -0.6562   -1.7864 C   0  0  0  0  0  0  0  0  0  0  0  0
    0.3812   -0.7029   -1.2748 O   0  0  0  0  0  0  0  0  0  0  0  0
   -0.4123   -2.4283    0.1881 C   0  0  0  0  0  0  0  0  0  0  0  0
    0.2743   -3.4619    0.4183 O   0  0  0  0  0  0  0  0  0  0  0  0
   -1.9822   -2.4415    2.6964 H   0  0  0  0  0  0  0  0  0  0  0  0
   -3.4912   -3.4168    2.8415 H   0  0  0  0  0  0  0  0  0  0  0  0
   -3.5269   -1.8401    1.9635 H   0  0  0  0  0  0  0  0  0  0  0  0
   -3.5271   -3.8167    0.4103 H   0  0  0  0  0  0  0  0  0  0  0  0
   -1.9903   -4.3795    1.1065 H   0  0  0  0  0  0  0  0  0  0  0  0
   -1.6994   -1.6631   -1.9553 H   0  0  0  0  0  0  0  0  0  0  0  0
   -2.4868   -3.2585   -1.9304 H   0  0  0  0  0  0  0  0  0  0  0  0
   -4.5446   -2.2940   -0.9740 H   0  0  0  0  0  0  0  0  0  0  0  0
   -3.9805   -1.2952   -2.3616 H   0  0  0  0  0  0  0  0  0  0  0  0
   -5.9076   -0.1970   -2.0438 H   0  0  0  0  0  0  0  0  0  0  0  0
   -7.2902    1.8090   -2.2453 H   0  0  0  0  0  0  0  0  0  0  0  0
   -6.7986    3.8146   -0.8836 H   0  0  0  0  0  0  0  0  0  0  0  0
   -4.9326    3.7989    0.7209 H   0  0  0  0  0  0  0  0  0  0  0  0
   -3.1677    0.7751    1.7948 H   0  0  0  0  0  0  0  0  0  0  0  0
   -3.5259    2.4572    2.1338 H   0  0  0  0  0  0  0  0  0  0  0  0
   -1.2446    2.5848    1.6296 H   0  0  0  0  0  0  0  0  0  0  0  0
   -2.0247    3.1401    0.1265 H   0  0  0  0  0  0  0  0  0  0  0  0
   -0.1794    1.7007   -0.4432 H   0  0  0  0  0  0  0  0  0  0  0  0
   -1.6710    0.8309   -0.8823 H   0  0  0  0  0  0  0  0  0  0  0  0
   -0.0344    0.4635    1.7092 H   0  0  0  0  0  0  0  0  0  0  0  0
   -1.4671   -0.4645    1.3264 H   0  0  0  0  0  0  0  0  0  0  0  0
    2.2292   -2.0483    0.5614 H   0  0  0  0  0  0  0  0  0  0  0  0
    1.5231   -1.1846    1.9436 H   0  0  0  0  0  0  0  0  0  0  0  0
    4.2194    2.6302    1.8515 H   0  0  0  0  0  0  0  0  0  0  0  0
    3.8210    2.4111    0.1310 H   0  0  0  0  0  0  0  0  0  0  0  0
    6.2914    1.1963    2.8109 H   0  0  0  0  0  0  0  0  0  0  0  0
    8.4604    0.1833    1.6005 H   0  0  0  0  0  0  0  0  0  0  0  0
    2.1975    1.3545   -1.1684 H   0  0  0  0  0  0  0  0  0  0  0  0
    3.6163    0.2407   -1.3343 H   0  0  0  0  0  0  0  0  0  0  0  0
    2.1491   -1.6737   -1.7910 H   0  0  0  0  0  0  0  0  0  0  0  0
    1.6574   -0.3138   -2.8417 H   0  0  0  0  0  0  0  0  0  0  0  0
  1  2  1  0
  2  3  1  0
  3  4  1  0
  4  5  1  0
  5  6  1  0
  6  7  1  0
  7  8  2  0
  8  9  1  0
  9 10  2  0
 10 11  1  0
 11 12  2  0
 12 13  1  0
 13 14  1  0
 14 15  1  0
 15 16  1  0
 16 17  1  0
 17 18  1  0
 18 19  1  0
 19 20  1  0
 20 21  2  0
 20 22  1  0
 22 23  1  0
 23 24  1  0
 24 25  2  0
 25 26  1  0
 26 27  1  0
 27 28  1  0
 27 29  1  0
 27 30  1  0
 26 31  2  0
 19 32  1  0
 32 33  1  0
 33 34  1  0
 17 35  1  0
 35 36  2  0
 35  3  1  0
 12  7  1  0
 34 17  1  0
 31 23  1  0
  1 37  1  0
  1 38  1  0
  1 39  1  0
  2 40  1  0
  2 41  1  0
  4 42  1  0
  4 43  1  0
  5 44  1  0
  5 45  1  0
  8 46  1  0
  9 47  1  0
 10 48  1  0
 11 49  1  0
 13 50  1  0
 13 51  1  0
 14 52  1  0
 14 53  1  0
 15 54  1  0
 15 55  1  0
 16 56  1  0
 16 57  1  0
 18 58  1  0
 18 59  1  0
 22 60  1  0
 22 61  1  0
 24 62  1  0
 25 63  1  0
 32 64  1  0
 32 65  1  0
 33 66  1  0
 33 67  1  0
M  END
$$$$
