
     RDKit          3D

 73 76  0  0  0  0  0  0  0  0999 V2000
    6.0569    0.6787    1.5480 C   0  0  0  0  0  0  0  0  0  0  0  0
    6.2242    0.3966    0.0809 C   0  0  0  0  0  0  0  0  0  0  0  0
    7.3276    0.9207   -0.6129 C   0  0  0  0  0  0  0  0  0  0  0  0
    7.4803    0.6899   -1.9847 C   0  0  0  0  0  0  0  0  0  0  0  0
    8.8821    1.3405   -2.8284 S   0  0  0  0  0  6  0  0  0  0  0  0
   10.2982    0.4693   -2.3577 N   0  0  0  0  0  0  0  0  0  0  0  0
    8.6980    1.2164   -4.3157 O   0  0  0  0  0  0  0  0  0  0  0  0
    9.0435    2.7933   -2.4798 O   0  0  0  0  0  0  0  0  0  0  0  0
    6.5249   -0.0684   -2.6691 C   0  0  0  0  0  0  0  0  0  0  0  0
    5.4166   -0.5810   -1.9926 C   0  0  0  0  0  0  0  0  0  0  0  0
    5.2532   -0.3508   -0.6126 C   0  0  0  0  0  0  0  0  0  0  0  0
    4.1470   -0.8463    0.0957 O   0  0  0  0  0  0  0  0  0  0  0  0
    3.0352   -1.5040   -0.5034 C   0  0  0  0  0  0  0  0  0  0  0  0
    1.9981   -1.7924    0.5395 C   0  0  0  0  0  0  0  0  0  0  0  0
    1.8076   -2.9872    0.8948 O   0  0  0  0  0  0  0  0  0  0  0  0
    1.2165   -0.7339    1.1293 N   0  0  0  0  0  0  0  0  0  0  0  0
    1.7643    0.6176    1.2608 C   0  0  0  0  0  0  0  0  0  0  0  0
    0.7465    1.5265    1.9461 C   0  0  0  0  0  0  0  0  0  0  0  0
   -0.5016    1.4228    1.2928 O   0  0  0  0  0  0  0  0  0  0  0  0
   -1.1051    0.1243    1.3846 C   0  0  0  0  0  0  0  0  0  0  0  0
   -1.7115   -0.1730   -0.0124 C   0  0  0  0  0  0  0  0  0  0  0  0
   -2.6688    0.9269   -0.5220 C   0  0  0  0  0  0  0  0  0  0  0  0
   -3.1553    0.6568   -1.9558 C   0  0  0  0  0  0  0  0  0  0  0  0
   -4.1947   -0.4741   -2.0600 C   0  0  0  0  0  0  0  0  0  0  0  0
   -5.5924   -0.0025   -1.7348 C   0  0  0  0  0  0  0  0  0  0  0  0
   -6.3504    0.6104   -2.7452 C   0  0  0  0  0  0  0  0  0  0  0  0
   -7.6632    1.0108   -2.5042 C   0  0  0  0  0  0  0  0  0  0  0  0
   -8.2370    0.7962   -1.2546 C   0  0  0  0  0  0  0  0  0  0  0  0
   -7.4927    0.2069   -0.2305 C   0  0  0  0  0  0  0  0  0  0  0  0
   -6.1488   -0.1735   -0.4458 C   0  0  0  0  0  0  0  0  0  0  0  0
   -5.3313   -0.7043    0.5718 O   0  0  0  0  0  0  0  0  0  0  0  0
   -5.6835   -0.9383    1.9386 C   0  0  0  0  0  0  0  0  0  0  0  0
   -4.6190   -0.3456    2.8652 C   0  0  0  0  0  0  0  0  0  0  0  0
   -3.2639   -0.8021    2.5216 N   0  0  0  0  0  0  0  0  0  0  0  0
   -2.9369   -2.2254    2.6500 C   0  0  0  0  0  0  0  0  0  0  0  0
   -2.2050    0.1785    2.4413 C   0  0  0  0  0  0  0  0  0  0  0  0
   -2.1986    1.1307    3.2681 O   0  0  0  0  0  0  0  0  0  0  0  0
   -0.0899   -1.0173    1.7322 C   0  0  0  0  0  0  0  0  0  0  0  0
    5.8286   -0.2607    2.0950 H   0  0  0  0  0  0  0  0  0  0  0  0
    5.2243    1.3984    1.6930 H   0  0  0  0  0  0  0  0  0  0  0  0
    6.9812    1.1122    1.9851 H   0  0  0  0  0  0  0  0  0  0  0  0
    8.0714    1.5061   -0.0861 H   0  0  0  0  0  0  0  0  0  0  0  0
   10.4162    0.6156   -1.3278 H   0  0  0  0  0  0  0  0  0  0  0  0
   10.0932   -0.5467   -2.4958 H   0  0  0  0  0  0  0  0  0  0  0  0
    6.6337   -0.2652   -3.7273 H   0  0  0  0  0  0  0  0  0  0  0  0
    4.6956   -1.1601   -2.5529 H   0  0  0  0  0  0  0  0  0  0  0  0
    2.5885   -0.8548   -1.2868 H   0  0  0  0  0  0  0  0  0  0  0  0
    3.3736   -2.4532   -0.9723 H   0  0  0  0  0  0  0  0  0  0  0  0
    2.6960    0.5906    1.8638 H   0  0  0  0  0  0  0  0  0  0  0  0
    1.9928    1.0282    0.2539 H   0  0  0  0  0  0  0  0  0  0  0  0
    1.0981    2.5770    1.8787 H   0  0  0  0  0  0  0  0  0  0  0  0
    0.6494    1.2765    3.0271 H   0  0  0  0  0  0  0  0  0  0  0  0
   -2.2374   -1.1452    0.0065 H   0  0  0  0  0  0  0  0  0  0  0  0
   -0.8766   -0.2718   -0.7419 H   0  0  0  0  0  0  0  0  0  0  0  0
   -2.1286    1.8976   -0.5337 H   0  0  0  0  0  0  0  0  0  0  0  0
   -3.5334    1.0467    0.1618 H   0  0  0  0  0  0  0  0  0  0  0  0
   -2.2802    0.4016   -2.5934 H   0  0  0  0  0  0  0  0  0  0  0  0
   -3.5844    1.5943   -2.3757 H   0  0  0  0  0  0  0  0  0  0  0  0
   -3.9199   -1.3461   -1.4336 H   0  0  0  0  0  0  0  0  0  0  0  0
   -4.1856   -0.8552   -3.1055 H   0  0  0  0  0  0  0  0  0  0  0  0
   -5.9258    0.7691   -3.7282 H   0  0  0  0  0  0  0  0  0  0  0  0
   -8.2397    1.4736   -3.2947 H   0  0  0  0  0  0  0  0  0  0  0  0
   -9.2630    1.0922   -1.0768 H   0  0  0  0  0  0  0  0  0  0  0  0
   -7.9917    0.0570    0.7110 H   0  0  0  0  0  0  0  0  0  0  0  0
   -5.7810   -2.0309    2.1040 H   0  0  0  0  0  0  0  0  0  0  0  0
   -6.6429   -0.4721    2.2202 H   0  0  0  0  0  0  0  0  0  0  0  0
   -4.8466   -0.6204    3.9178 H   0  0  0  0  0  0  0  0  0  0  0  0
   -4.6871    0.7624    2.7849 H   0  0  0  0  0  0  0  0  0  0  0  0
   -2.0734   -2.3600    3.3346 H   0  0  0  0  0  0  0  0  0  0  0  0
   -2.7071   -2.6580    1.6580 H   0  0  0  0  0  0  0  0  0  0  0  0
   -3.7850   -2.7978    3.0812 H   0  0  0  0  0  0  0  0  0  0  0  0
    0.0451   -1.0924    2.8342 H   0  0  0  0  0  0  0  0  0  0  0  0
   -0.4692   -2.0003    1.3827 H   0  0  0  0  0  0  0  0  0  0  0  0
  1  2  1  0
  2  3  2  0
  3  4  1  0
  4  5  1  0
  5  6  1  0
  5  7  2  0
  5  8  2  0
  4  9  2  0
  9 10  1  0
 10 11  2  0
 11 12  1  0
 12 13  1  0
 13 14  1  0
 14 15  2  0
 14 16  1  0
 16 17  1  0
 17 18  1  0
 18 19  1  0
 19 20  1  0
 20 21  1  0
 21 22  1  0
 22 23  1  0
 23 24  1  0
 24 25  1  0
 25 26  2  0
 26 27  1  0
 27 28  2  0
 28 29  1  0
 29 30  2  0
 30 31  1  0
 31 32  1  0
 32 33  1  0
 33 34  1  0
 34 35  1  0
 34 36  1  0
 36 37  2  0
 20 38  1  0
 11  2  1  0
 38 16  1  0
 36 20  1  0
 30 25  1  0
  1 39  1  0
  1 40  1  0
  1 41  1  0
  3 42  1  0
  6 43  1  0
  6 44  1  0
  9 45  1  0
 10 46  1  0
 13 47  1  0
 13 48  1  0
 17 49  1  0
 17 50  1  0
 18 51  1  0
 18 52  1  0
 21 53  1  0
 21 54  1  0
 22 55  1  0
 22 56  1  0
 23 57  1  0
 23 58  1  0
 24 59  1  0
 24 60  1  0
 26 61  1  0
 27 62  1  0
 28 63  1  0
 29 64  1  0
 32 65  1  0
 32 66  1  0
 33 67  1  0
 33 68  1  0
 35 69  1  0
 35 70  1  0
 35 71  1  0
 38 72  1  0
 38 73  1  0
M  END
$$$$
