
     RDKit          3D

 82 85  0  0  0  0  0  0  0  0999 V2000
    3.2511    0.9540   -4.4758 C   0  0  0  0  0  0  0  0  0  0  0  0
    3.6369    1.9036   -3.3480 C   0  0  0  0  0  0  0  0  0  0  0  0
    4.2052    1.1617   -2.2273 N   0  0  0  0  0  0  0  0  0  0  0  0
    3.5171    0.3911   -1.3682 C   0  0  0  0  0  0  0  0  0  0  0  0
    4.4067   -0.1175   -0.4419 C   0  0  0  0  0  0  0  0  0  0  0  0
    4.1287   -1.0484    0.6722 C   0  0  0  0  0  0  0  0  0  0  0  0
    5.0830   -1.7356    1.1375 O   0  0  0  0  0  0  0  0  0  0  0  0
    2.7926   -1.2339    1.1976 N   0  0  0  0  0  0  0  0  0  0  0  0
    2.4018   -2.5644    1.6997 C   0  0  0  0  0  0  0  0  0  0  0  0
    2.4751   -3.6646    0.6193 C   0  0  0  0  0  0  0  0  0  0  0  0
    2.0291   -3.2547   -0.7992 C   0  0  0  0  0  0  0  0  0  0  0  0
    0.5778   -2.7607   -0.9511 C   0  0  0  0  0  0  0  0  0  0  0  0
   -0.1411   -2.8045    0.2781 O   0  0  0  0  0  0  0  0  0  0  0  0
   -1.5316   -2.7458    0.4444 C   0  0  0  0  0  0  0  0  0  0  0  0
   -2.0361   -3.2458    1.6523 C   0  0  0  0  0  0  0  0  0  0  0  0
   -3.4099   -3.3698    1.8587 C   0  0  0  0  0  0  0  0  0  0  0  0
   -4.3005   -3.0066    0.8491 C   0  0  0  0  0  0  0  0  0  0  0  0
   -6.0281   -3.2005    1.0976 Cl  0  0  0  0  0  0  0  0  0  0  0  0
   -3.8191   -2.4644   -0.3438 C   0  0  0  0  0  0  0  0  0  0  0  0
   -2.4407   -2.2672   -0.5359 C   0  0  0  0  0  0  0  0  0  0  0  0
   -2.0128   -1.5097   -1.7309 C   0  0  0  0  0  0  0  0  0  0  0  0
   -2.1886   -2.0333   -2.8654 O   0  0  0  0  0  0  0  0  0  0  0  0
   -1.4437   -0.1789   -1.6265 N   0  0  0  0  0  0  0  0  0  0  0  0
   -0.6625    0.3306   -2.7653 C   0  0  0  0  0  0  0  0  0  0  0  0
   -1.8086    0.6946   -0.4781 C   0  0  0  0  0  0  0  0  0  0  0  0
   -3.3091    1.0661   -0.5587 C   0  0  0  0  0  0  0  0  0  0  0  0
   -3.7872    1.7646    0.6871 C   0  0  0  0  0  0  0  0  0  0  0  0
   -4.0877    1.0216    1.8426 C   0  0  0  0  0  0  0  0  0  0  0  0
   -4.4932    1.6728    3.0130 C   0  0  0  0  0  0  0  0  0  0  0  0
   -4.6040    3.0666    3.0369 C   0  0  0  0  0  0  0  0  0  0  0  0
   -4.3046    3.8114    1.8915 C   0  0  0  0  0  0  0  0  0  0  0  0
   -3.8965    3.1645    0.7195 C   0  0  0  0  0  0  0  0  0  0  0  0
   -0.9799    1.9755   -0.4131 C   0  0  0  0  0  0  0  0  0  0  0  0
   -1.1203    2.8204   -1.3398 O   0  0  0  0  0  0  0  0  0  0  0  0
   -0.0622    2.2723    0.6658 N   0  0  0  0  0  0  0  0  0  0  0  0
    1.0331    3.2028    0.3634 C   0  0  0  0  0  0  0  0  0  0  0  0
   -0.4411    2.0324    2.0740 C   0  0  0  0  0  0  0  0  0  0  0  0
    0.6982    1.4523    2.9423 C   0  0  0  0  0  0  0  0  0  0  0  0
    1.1062    0.0110    2.5896 C   0  0  0  0  0  0  0  0  0  0  0  0
    1.8525   -0.0953    1.2474 C   0  0  0  0  0  0  0  0  0  0  0  0
    5.6429    0.3693   -0.8290 C   0  0  0  0  0  0  0  0  0  0  0  0
    5.4915    1.1535   -1.9145 N   0  0  0  0  0  0  0  0  0  0  0  0
    2.4934    0.2258   -4.1164 H   0  0  0  0  0  0  0  0  0  0  0  0
    4.1477    0.4060   -4.8381 H   0  0  0  0  0  0  0  0  0  0  0  0
    2.8181    1.5338   -5.3186 H   0  0  0  0  0  0  0  0  0  0  0  0
    2.7345    2.4605   -3.0077 H   0  0  0  0  0  0  0  0  0  0  0  0
    4.3747    2.6439   -3.7268 H   0  0  0  0  0  0  0  0  0  0  0  0
    2.4547    0.2019   -1.4297 H   0  0  0  0  0  0  0  0  0  0  0  0
    1.3838   -2.5508    2.1280 H   0  0  0  0  0  0  0  0  0  0  0  0
    3.0711   -2.8449    2.5397 H   0  0  0  0  0  0  0  0  0  0  0  0
    1.8704   -4.5365    0.9557 H   0  0  0  0  0  0  0  0  0  0  0  0
    3.5270   -4.0182    0.5482 H   0  0  0  0  0  0  0  0  0  0  0  0
    2.7244   -2.4861   -1.1989 H   0  0  0  0  0  0  0  0  0  0  0  0
    2.1652   -4.1436   -1.4552 H   0  0  0  0  0  0  0  0  0  0  0  0
    0.0611   -3.3944   -1.7054 H   0  0  0  0  0  0  0  0  0  0  0  0
    0.6128   -1.7195   -1.3273 H   0  0  0  0  0  0  0  0  0  0  0  0
   -1.3524   -3.5823    2.4220 H   0  0  0  0  0  0  0  0  0  0  0  0
   -3.7816   -3.7782    2.7904 H   0  0  0  0  0  0  0  0  0  0  0  0
   -4.5243   -2.1475   -1.1031 H   0  0  0  0  0  0  0  0  0  0  0  0
    0.2574    0.8378   -2.4128 H   0  0  0  0  0  0  0  0  0  0  0  0
   -1.2796    1.0350   -3.3581 H   0  0  0  0  0  0  0  0  0  0  0  0
   -0.3273   -0.4897   -3.4333 H   0  0  0  0  0  0  0  0  0  0  0  0
   -1.6333    0.1107    0.4467 H   0  0  0  0  0  0  0  0  0  0  0  0
   -3.9318    0.1634   -0.7045 H   0  0  0  0  0  0  0  0  0  0  0  0
   -3.4930    1.7005   -1.4539 H   0  0  0  0  0  0  0  0  0  0  0  0
   -3.9927   -0.0572    1.8398 H   0  0  0  0  0  0  0  0  0  0  0  0
   -4.7225    1.0980    3.9020 H   0  0  0  0  0  0  0  0  0  0  0  0
   -4.9175    3.5705    3.9414 H   0  0  0  0  0  0  0  0  0  0  0  0
   -4.3891    4.8908    1.9123 H   0  0  0  0  0  0  0  0  0  0  0  0
   -3.6604    3.7553   -0.1588 H   0  0  0  0  0  0  0  0  0  0  0  0
    0.6363    4.1264   -0.1092 H   0  0  0  0  0  0  0  0  0  0  0  0
    1.7475    2.7202   -0.3364 H   0  0  0  0  0  0  0  0  0  0  0  0
    1.5731    3.5258    1.2754 H   0  0  0  0  0  0  0  0  0  0  0  0
   -0.7577    3.0007    2.5182 H   0  0  0  0  0  0  0  0  0  0  0  0
   -1.3205    1.3663    2.1639 H   0  0  0  0  0  0  0  0  0  0  0  0
    0.3313    1.4388    3.9924 H   0  0  0  0  0  0  0  0  0  0  0  0
    1.5892    2.1109    2.9483 H   0  0  0  0  0  0  0  0  0  0  0  0
    0.1997   -0.6332    2.5791 H   0  0  0  0  0  0  0  0  0  0  0  0
    1.7722   -0.3532    3.4011 H   0  0  0  0  0  0  0  0  0  0  0  0
    1.1060   -0.1931    0.4294 H   0  0  0  0  0  0  0  0  0  0  0  0
    2.4202    0.8486    1.0965 H   0  0  0  0  0  0  0  0  0  0  0  0
    6.5914    0.1655   -0.3506 H   0  0  0  0  0  0  0  0  0  0  0  0
  1  2  1  0
  2  3  1  0
  3  4  1  0
  4  5  2  0
  5  6  1  0
  6  7  2  0
  6  8  1  0
  8  9  1  0
  9 10  1  0
 10 11  1  0
 11 12  1  0
 12 13  1  0
 13 14  1  0
 14 15  2  0
 15 16  1  0
 16 17  2  0
 17 18  1  0
 17 19  1  0
 19 20  2  0
 20 21  1  0
 21 22  2  0
 21 23  1  0
 23 24  1  0
 23 25  1  0
 25 26  1  0
 26 27  1  0
 27 28  2  0
 28 29  1  0
 29 30  2  0
 30 31  1  0
 31 32  2  0
 25 33  1  0
 33 34  2  0
 33 35  1  0
 35 36  1  0
 35 37  1  0
 37 38  1  0
 38 39  1  0
 39 40  1  0
  5 41  1  0
 41 42  2  0
 42  3  1  0
 40  8  1  0
 20 14  1  0
 32 27  1  0
  1 43  1  0
  1 44  1  0
  1 45  1  0
  2 46  1  0
  2 47  1  0
  4 48  1  0
  9 49  1  0
  9 50  1  0
 10 51  1  0
 10 52  1  0
 11 53  1  0
 11 54  1  0
 12 55  1  0
 12 56  1  0
 15 57  1  0
 16 58  1  0
 19 59  1  0
 24 60  1  0
 24 61  1  0
 24 62  1  0
 25 63  1  0
 26 64  1  0
 26 65  1  0
 28 66  1  0
 29 67  1  0
 30 68  1  0
 31 69  1  0
 32 70  1  0
 36 71  1  0
 36 72  1  0
 36 73  1  0
 37 74  1  0
 37 75  1  0
 38 76  1  0
 38 77  1  0
 39 78  1  0
 39 79  1  0
 40 80  1  0
 40 81  1  0
 41 82  1  0
M  END
$$$$
