
     RDKit          3D

 69 73  0  0  0  0  0  0  0  0999 V2000
    0.5162   -1.0628   -3.3899 C   0  0  0  0  0  0  0  0  0  0  0  0
   -0.8608   -0.4994   -3.0514 C   0  0  0  0  0  0  0  0  0  0  0  0
   -0.9397   -0.1679   -1.6188 N   0  0  0  0  0  0  0  0  0  0  0  0
   -0.8439    1.2529   -1.2298 C   0  0  0  0  0  0  0  0  0  0  0  0
   -2.1598    1.8134   -0.6554 C   0  0  0  0  0  0  0  0  0  0  0  0
   -3.0657    0.7698   -0.3080 O   0  0  0  0  0  0  0  0  0  0  0  0
   -4.2841    0.9475    0.3666 C   0  0  0  0  0  0  0  0  0  0  0  0
   -4.7484    2.2233    0.7357 C   0  0  0  0  0  0  0  0  0  0  0  0
   -5.9531    2.3632    1.4277 C   0  0  0  0  0  0  0  0  0  0  0  0
   -6.7053    1.2363    1.7595 C   0  0  0  0  0  0  0  0  0  0  0  0
   -6.2574   -0.0360    1.3991 C   0  0  0  0  0  0  0  0  0  0  0  0
   -5.0508   -0.1913    0.6968 C   0  0  0  0  0  0  0  0  0  0  0  0
   -4.5723   -1.5819    0.3389 C   0  0  0  0  0  0  0  0  0  0  0  0
   -3.9654   -2.3308    1.5382 C   0  0  0  0  0  0  0  0  0  0  0  0
   -2.7217   -1.6549    2.1610 C   0  0  0  0  0  0  0  0  0  0  0  0
   -1.3552   -2.2149    1.6752 C   0  0  0  0  0  0  0  0  0  0  0  0
   -0.5260   -1.2602    0.7502 C   0  0  0  0  0  0  0  0  0  0  0  0
    0.9400   -1.8092    0.6195 C   0  0  0  0  0  0  0  0  0  0  0  0
    1.8993   -0.7039    0.5060 N   0  0  0  0  0  0  0  0  0  0  0  0
    3.0904   -0.8581   -0.2930 C   0  0  0  0  0  0  0  0  0  0  0  0
    3.4425   -2.0090   -0.6786 O   0  0  0  0  0  0  0  0  0  0  0  0
    3.9073    0.3057   -0.6997 C   0  0  0  0  0  0  0  0  0  0  0  0
    3.2934    1.3900   -1.3487 C   0  0  0  0  0  0  0  0  0  0  0  0
    4.0507    2.4803   -1.7837 C   0  0  0  0  0  0  0  0  0  0  0  0
    5.4332    2.4993   -1.5912 C   0  0  0  0  0  0  0  0  0  0  0  0
    6.0666    1.4241   -0.9530 C   0  0  0  0  0  0  0  0  0  0  0  0
    7.4522    1.4213   -0.7469 C   0  0  0  0  0  0  0  0  0  0  0  0
    8.0555    0.3442   -0.0943 C   0  0  0  0  0  0  0  0  0  0  0  0
    7.2692   -0.7216    0.3460 C   0  0  0  0  0  0  0  0  0  0  0  0
    5.9267   -0.7120    0.1347 N   0  0  0  0  0  0  0  0  0  0  0  0
    5.3033    0.3196   -0.5040 C   0  0  0  0  0  0  0  0  0  0  0  0
    1.7914    0.4012    1.4659 C   0  0  0  0  0  0  0  0  0  0  0  0
    0.4600    0.3215    2.2153 C   0  0  0  0  0  0  0  0  0  0  0  0
   -0.5868    0.0554    1.3013 O   0  0  0  0  0  0  0  0  0  0  0  0
   -1.1090   -1.2593   -0.6687 C   0  0  0  0  0  0  0  0  0  0  0  0
   -1.5965   -2.3449   -1.0948 O   0  0  0  0  0  0  0  0  0  0  0  0
    1.3012   -0.3151   -3.1460 H   0  0  0  0  0  0  0  0  0  0  0  0
    0.5670   -1.2921   -4.4764 H   0  0  0  0  0  0  0  0  0  0  0  0
    0.7079   -1.9968   -2.8162 H   0  0  0  0  0  0  0  0  0  0  0  0
   -1.0441    0.3975   -3.6846 H   0  0  0  0  0  0  0  0  0  0  0  0
   -1.6496   -1.2350   -3.3228 H   0  0  0  0  0  0  0  0  0  0  0  0
   -0.0054    1.4015   -0.5277 H   0  0  0  0  0  0  0  0  0  0  0  0
   -0.5580    1.8807   -2.1028 H   0  0  0  0  0  0  0  0  0  0  0  0
   -2.6437    2.4812   -1.4042 H   0  0  0  0  0  0  0  0  0  0  0  0
   -1.9204    2.4144    0.2494 H   0  0  0  0  0  0  0  0  0  0  0  0
   -4.1934    3.1176    0.4829 H   0  0  0  0  0  0  0  0  0  0  0  0
   -6.3078    3.3500    1.7014 H   0  0  0  0  0  0  0  0  0  0  0  0
   -7.6383    1.3477    2.2962 H   0  0  0  0  0  0  0  0  0  0  0  0
   -6.8512   -0.9020    1.6663 H   0  0  0  0  0  0  0  0  0  0  0  0
   -3.8593   -1.5536   -0.5050 H   0  0  0  0  0  0  0  0  0  0  0  0
   -5.4399   -2.1690   -0.0308 H   0  0  0  0  0  0  0  0  0  0  0  0
   -4.7528   -2.4119    2.3203 H   0  0  0  0  0  0  0  0  0  0  0  0
   -3.7327   -3.3733    1.2346 H   0  0  0  0  0  0  0  0  0  0  0  0
   -2.7775   -0.5540    2.0784 H   0  0  0  0  0  0  0  0  0  0  0  0
   -2.7768   -1.8487    3.2543 H   0  0  0  0  0  0  0  0  0  0  0  0
   -0.7559   -2.4119    2.5916 H   0  0  0  0  0  0  0  0  0  0  0  0
   -1.4724   -3.2170    1.2073 H   0  0  0  0  0  0  0  0  0  0  0  0
    1.0291   -2.5033   -0.2473 H   0  0  0  0  0  0  0  0  0  0  0  0
    1.2250   -2.4078    1.5126 H   0  0  0  0  0  0  0  0  0  0  0  0
    2.2274    1.3847   -1.5337 H   0  0  0  0  0  0  0  0  0  0  0  0
    3.5640    3.3073   -2.2851 H   0  0  0  0  0  0  0  0  0  0  0  0
    6.0059    3.3500   -1.9406 H   0  0  0  0  0  0  0  0  0  0  0  0
    8.0645    2.2493   -1.0819 H   0  0  0  0  0  0  0  0  0  0  0  0
    9.1239    0.3388    0.0734 H   0  0  0  0  0  0  0  0  0  0  0  0
    7.7261   -1.5579    0.8598 H   0  0  0  0  0  0  0  0  0  0  0  0
    1.8390    1.3741    0.9342 H   0  0  0  0  0  0  0  0  0  0  0  0
    2.6346    0.3560    2.1895 H   0  0  0  0  0  0  0  0  0  0  0  0
    0.5044   -0.4492    3.0167 H   0  0  0  0  0  0  0  0  0  0  0  0
    0.2631    1.2967    2.7087 H   0  0  0  0  0  0  0  0  0  0  0  0
  1  2  1  0
  2  3  1  0
  3  4  1  0
  4  5  1  0
  5  6  1  0
  6  7  1  0
  7  8  2  0
  8  9  1  0
  9 10  2  0
 10 11  1  0
 11 12  2  0
 12 13  1  0
 13 14  1  0
 14 15  1  0
 15 16  1  0
 16 17  1  0
 17 18  1  0
 18 19  1  0
 19 20  1  0
 20 21  2  0
 20 22  1  0
 22 23  2  0
 23 24  1  0
 24 25  2  0
 25 26  1  0
 26 27  2  0
 27 28  1  0
 28 29  2  0
 29 30  1  0
 30 31  2  0
 19 32  1  0
 32 33  1  0
 33 34  1  0
 17 35  1  0
 35 36  2  0
 35  3  1  0
 12  7  1  0
 34 17  1  0
 31 22  1  0
 31 26  1  0
  1 37  1  0
  1 38  1  0
  1 39  1  0
  2 40  1  0
  2 41  1  0
  4 42  1  0
  4 43  1  0
  5 44  1  0
  5 45  1  0
  8 46  1  0
  9 47  1  0
 10 48  1  0
 11 49  1  0
 13 50  1  0
 13 51  1  0
 14 52  1  0
 14 53  1  0
 15 54  1  0
 15 55  1  0
 16 56  1  0
 16 57  1  0
 18 58  1  0
 18 59  1  0
 23 60  1  0
 24 61  1  0
 25 62  1  0
 27 63  1  0
 28 64  1  0
 29 65  1  0
 32 66  1  0
 32 67  1  0
 33 68  1  0
 33 69  1  0
M  END
$$$$
