
     RDKit          3D

 56 58  0  0  0  0  0  0  0  0999 V2000
   -4.7468   -0.0819   -1.6503 C   0  0  0  0  0  0  0  0  0  0  0  0
   -3.9056   -1.1142   -1.0223 N   0  0  0  0  0  0  0  0  0  0  0  0
   -3.1643   -2.0671   -1.8711 C   0  0  0  0  0  0  0  0  0  0  0  0
   -2.0683   -1.3691   -2.7141 C   0  0  0  0  0  0  0  0  0  0  0  0
   -0.7506   -1.1336   -1.9421 C   0  0  0  0  0  0  0  0  0  0  0  0
   -0.7663    0.1693   -1.1378 C   0  0  0  0  0  0  0  0  0  0  0  0
    0.4590    0.3007   -0.3208 N   0  0  0  0  0  0  0  0  0  0  0  0
    1.6953    0.6289   -1.0050 C   0  0  0  0  0  0  0  0  0  0  0  0
    1.6491    1.0553   -2.1927 O   0  0  0  0  0  0  0  0  0  0  0  0
    3.0408    0.4838   -0.3326 C   0  0  0  0  0  0  0  0  0  0  0  0
    4.2266    0.5713   -1.3026 C   0  0  0  0  0  0  0  0  0  0  0  0
    5.5147    0.3218   -0.5595 C   0  0  0  0  0  0  0  0  0  0  0  0
    6.0730    1.3284    0.2458 C   0  0  0  0  0  0  0  0  0  0  0  0
    7.2003    1.0623    1.0305 C   0  0  0  0  0  0  0  0  0  0  0  0
    7.7789   -0.2063    1.0148 C   0  0  0  0  0  0  0  0  0  0  0  0
    7.2308   -1.2158    0.2127 C   0  0  0  0  0  0  0  0  0  0  0  0
    6.0967   -0.9599   -0.5671 C   0  0  0  0  0  0  0  0  0  0  0  0
    0.4591   -0.1537    1.0907 C   0  0  0  0  0  0  0  0  0  0  0  0
   -0.6284    0.5266    1.9302 C   0  0  0  0  0  0  0  0  0  0  0  0
   -1.8560   -0.1830    1.7806 O   0  0  0  0  0  0  0  0  0  0  0  0
   -3.1260    0.3645    1.9972 C   0  0  0  0  0  0  0  0  0  0  0  0
   -3.3247    1.4696    2.8459 C   0  0  0  0  0  0  0  0  0  0  0  0
   -4.6059    2.0017    3.0207 C   0  0  0  0  0  0  0  0  0  0  0  0
   -5.6967    1.4361    2.3492 C   0  0  0  0  0  0  0  0  0  0  0  0
   -7.3089    2.1185    2.5417 Cl  0  0  0  0  0  0  0  0  0  0  0  0
   -5.5070    0.3305    1.5112 C   0  0  0  0  0  0  0  0  0  0  0  0
   -4.2232   -0.2047    1.3279 C   0  0  0  0  0  0  0  0  0  0  0  0
   -4.0103   -1.3313    0.4027 C   0  0  0  0  0  0  0  0  0  0  0  0
   -3.8732   -2.4923    0.8855 O   0  0  0  0  0  0  0  0  0  0  0  0
   -4.6891   -0.1175   -2.7598 H   0  0  0  0  0  0  0  0  0  0  0  0
   -5.8095   -0.2661   -1.3805 H   0  0  0  0  0  0  0  0  0  0  0  0
   -4.4453    0.9307   -1.3021 H   0  0  0  0  0  0  0  0  0  0  0  0
   -3.8853   -2.5786   -2.5556 H   0  0  0  0  0  0  0  0  0  0  0  0
   -2.6916   -2.8730   -1.2563 H   0  0  0  0  0  0  0  0  0  0  0  0
   -2.4351   -0.4211   -3.1543 H   0  0  0  0  0  0  0  0  0  0  0  0
   -1.8305   -2.0417   -3.5721 H   0  0  0  0  0  0  0  0  0  0  0  0
   -0.5282   -1.9966   -1.2695 H   0  0  0  0  0  0  0  0  0  0  0  0
    0.0790   -1.0840   -2.6844 H   0  0  0  0  0  0  0  0  0  0  0  0
   -0.8627    1.0417   -1.8208 H   0  0  0  0  0  0  0  0  0  0  0  0
   -1.6691    0.1894   -0.5155 H   0  0  0  0  0  0  0  0  0  0  0  0
    3.0820   -0.5050    0.1642 H   0  0  0  0  0  0  0  0  0  0  0  0
    3.1391    1.2778    0.4352 H   0  0  0  0  0  0  0  0  0  0  0  0
    4.2602    1.5752   -1.7743 H   0  0  0  0  0  0  0  0  0  0  0  0
    4.0966   -0.1791   -2.1121 H   0  0  0  0  0  0  0  0  0  0  0  0
    5.6245    2.3135    0.2841 H   0  0  0  0  0  0  0  0  0  0  0  0
    7.6176    1.8410    1.6635 H   0  0  0  0  0  0  0  0  0  0  0  0
    8.6485   -0.4092    1.6278 H   0  0  0  0  0  0  0  0  0  0  0  0
    7.6759   -2.2004    0.2087 H   0  0  0  0  0  0  0  0  0  0  0  0
    5.6768   -1.7510   -1.1644 H   0  0  0  0  0  0  0  0  0  0  0  0
    0.3377   -1.2589    1.1253 H   0  0  0  0  0  0  0  0  0  0  0  0
    1.4180    0.0888    1.5908 H   0  0  0  0  0  0  0  0  0  0  0  0
   -0.7363    1.5879    1.6063 H   0  0  0  0  0  0  0  0  0  0  0  0
   -0.3375    0.5092    3.0061 H   0  0  0  0  0  0  0  0  0  0  0  0
   -2.4914    1.9191    3.3693 H   0  0  0  0  0  0  0  0  0  0  0  0
   -4.7518    2.8551    3.6727 H   0  0  0  0  0  0  0  0  0  0  0  0
   -6.3545   -0.1032    0.9982 H   0  0  0  0  0  0  0  0  0  0  0  0
  1  2  1  0
  2  3  1  0
  3  4  1  0
  4  5  1  0
  5  6  1  0
  6  7  1  0
  7  8  1  0
  8  9  2  0
  8 10  1  0
 10 11  1  0
 11 12  1  0
 12 13  2  0
 13 14  1  0
 14 15  2  0
 15 16  1  0
 16 17  2  0
  7 18  1  0
 18 19  1  0
 19 20  1  0
 20 21  1  0
 21 22  2  0
 22 23  1  0
 23 24  2  0
 24 25  1  0
 24 26  1  0
 26 27  2  0
 27 28  1  0
 28 29  2  0
 28  2  1  0
 17 12  1  0
 27 21  1  0
  1 30  1  0
  1 31  1  0
  1 32  1  0
  3 33  1  0
  3 34  1  0
  4 35  1  0
  4 36  1  0
  5 37  1  0
  5 38  1  0
  6 39  1  0
  6 40  1  0
 10 41  1  0
 10 42  1  0
 11 43  1  0
 11 44  1  0
 13 45  1  0
 14 46  1  0
 15 47  1  0
 16 48  1  0
 17 49  1  0
 18 50  1  0
 18 51  1  0
 19 52  1  0
 19 53  1  0
 22 54  1  0
 23 55  1  0
 26 56  1  0
M  END
$$$$
