
     RDKit          3D

 70 74  0  0  0  0  0  0  0  0999 V2000
   -6.9063   -1.8481   -2.0845 O   0  0  0  0  0  0  0  0  0  0  0  0
   -5.9616   -1.3491   -1.4179 C   0  0  0  0  0  0  0  0  0  0  0  0
   -5.1233   -2.2174   -0.6354 N   0  0  0  0  0  0  0  0  0  0  0  0
   -4.3373   -1.7759    0.5246 C   0  0  0  0  0  0  0  0  0  0  0  0
   -5.2390   -1.2464    1.6488 C   0  0  0  0  0  0  0  0  0  0  0  0
   -4.4937   -0.3895    2.4966 O   0  0  0  0  0  0  0  0  0  0  0  0
   -4.7416    0.9702    2.1701 C   0  0  0  0  0  0  0  0  0  0  0  0
   -3.5326    1.8462    2.5237 C   0  0  0  0  0  0  0  0  0  0  0  0
   -2.8472    2.2376    1.3330 O   0  0  0  0  0  0  0  0  0  0  0  0
   -1.9355    1.4461    0.6126 C   0  0  0  0  0  0  0  0  0  0  0  0
   -1.1087    0.5021    1.2472 C   0  0  0  0  0  0  0  0  0  0  0  0
   -0.1566   -0.2116    0.5119 C   0  0  0  0  0  0  0  0  0  0  0  0
   -0.0164   -0.0020   -0.8651 C   0  0  0  0  0  0  0  0  0  0  0  0
    1.0133   -0.7344   -1.6342 C   0  0  0  0  0  0  0  0  0  0  0  0
    0.7498   -1.1140   -2.8073 O   0  0  0  0  0  0  0  0  0  0  0  0
    2.3107   -1.0069   -1.0753 N   0  0  0  0  0  0  0  0  0  0  0  0
    3.0038   -0.0141   -0.2535 C   0  0  0  0  0  0  0  0  0  0  0  0
    4.4135    0.2365   -0.8112 C   0  0  0  0  0  0  0  0  0  0  0  0
    5.1651   -1.0150   -1.0528 N   0  0  0  0  0  0  0  0  0  0  0  0
    5.6349   -1.6715    0.1846 C   0  0  0  0  0  0  0  0  0  0  0  0
    6.7188   -0.8632    0.8441 C   0  0  0  0  0  0  0  0  0  0  0  0
    6.5035   -0.2631    2.0957 C   0  0  0  0  0  0  0  0  0  0  0  0
    7.5111    0.5045    2.6897 C   0  0  0  0  0  0  0  0  0  0  0  0
    8.7372    0.6775    2.0393 C   0  0  0  0  0  0  0  0  0  0  0  0
    9.7132    1.4255    2.6124 F   0  0  0  0  0  0  0  0  0  0  0  0
    8.9579    0.0809    0.7945 C   0  0  0  0  0  0  0  0  0  0  0  0
    7.9539   -0.6872    0.1983 C   0  0  0  0  0  0  0  0  0  0  0  0
    4.4114   -1.9368   -1.9311 C   0  0  0  0  0  0  0  0  0  0  0  0
    3.0155   -2.2538   -1.3788 C   0  0  0  0  0  0  0  0  0  0  0  0
   -0.8725    0.9003   -1.5110 C   0  0  0  0  0  0  0  0  0  0  0  0
   -1.8270    1.6298   -0.7819 C   0  0  0  0  0  0  0  0  0  0  0  0
   -2.7877    2.5378   -1.5207 C   0  0  0  0  0  0  0  0  0  0  0  0
   -4.2006    1.9992   -1.4898 C   0  0  0  0  0  0  0  0  0  0  0  0
   -5.2813    2.8675   -1.2682 C   0  0  0  0  0  0  0  0  0  0  0  0
   -6.5824    2.3657   -1.1685 C   0  0  0  0  0  0  0  0  0  0  0  0
   -6.8125    0.9915   -1.2588 C   0  0  0  0  0  0  0  0  0  0  0  0
   -5.7421    0.1106   -1.4636 C   0  0  0  0  0  0  0  0  0  0  0  0
   -4.4522    0.6260   -1.6579 C   0  0  0  0  0  0  0  0  0  0  0  0
   -5.1183   -3.2302   -0.8717 H   0  0  0  0  0  0  0  0  0  0  0  0
   -3.7435   -2.6325    0.9172 H   0  0  0  0  0  0  0  0  0  0  0  0
   -3.6101   -0.9994    0.2226 H   0  0  0  0  0  0  0  0  0  0  0  0
   -6.1704   -0.7762    1.2476 H   0  0  0  0  0  0  0  0  0  0  0  0
   -5.5911   -2.1146    2.2527 H   0  0  0  0  0  0  0  0  0  0  0  0
   -4.9889    1.1347    1.1018 H   0  0  0  0  0  0  0  0  0  0  0  0
   -5.6313    1.3201    2.7434 H   0  0  0  0  0  0  0  0  0  0  0  0
   -3.9047    2.7760    3.0187 H   0  0  0  0  0  0  0  0  0  0  0  0
   -2.8565    1.3526    3.2574 H   0  0  0  0  0  0  0  0  0  0  0  0
   -1.1574    0.3405    2.3129 H   0  0  0  0  0  0  0  0  0  0  0  0
    0.4818   -0.9248    1.0178 H   0  0  0  0  0  0  0  0  0  0  0  0
    3.0549   -0.3643    0.7975 H   0  0  0  0  0  0  0  0  0  0  0  0
    2.4523    0.9477   -0.2474 H   0  0  0  0  0  0  0  0  0  0  0  0
    4.3234    0.7912   -1.7691 H   0  0  0  0  0  0  0  0  0  0  0  0
    4.9707    0.8979   -0.1189 H   0  0  0  0  0  0  0  0  0  0  0  0
    4.7953   -1.8528    0.8876 H   0  0  0  0  0  0  0  0  0  0  0  0
    6.0695   -2.6659   -0.0488 H   0  0  0  0  0  0  0  0  0  0  0  0
    5.5528   -0.3819    2.6042 H   0  0  0  0  0  0  0  0  0  0  0  0
    7.3410    0.9632    3.6572 H   0  0  0  0  0  0  0  0  0  0  0  0
    9.9054    0.2205    0.2893 H   0  0  0  0  0  0  0  0  0  0  0  0
    8.1346   -1.1428   -0.7650 H   0  0  0  0  0  0  0  0  0  0  0  0
    4.2966   -1.4678   -2.9350 H   0  0  0  0  0  0  0  0  0  0  0  0
    4.9817   -2.8793   -2.0826 H   0  0  0  0  0  0  0  0  0  0  0  0
    2.4572   -2.8592   -2.1264 H   0  0  0  0  0  0  0  0  0  0  0  0
    3.0997   -2.8636   -0.4536 H   0  0  0  0  0  0  0  0  0  0  0  0
   -0.7937    1.0340   -2.5857 H   0  0  0  0  0  0  0  0  0  0  0  0
   -2.4834    2.6609   -2.5844 H   0  0  0  0  0  0  0  0  0  0  0  0
   -2.7419    3.5487   -1.0563 H   0  0  0  0  0  0  0  0  0  0  0  0
   -5.1192    3.9317   -1.1536 H   0  0  0  0  0  0  0  0  0  0  0  0
   -7.4082    3.0426   -0.9811 H   0  0  0  0  0  0  0  0  0  0  0  0
   -7.8165    0.6094   -1.1266 H   0  0  0  0  0  0  0  0  0  0  0  0
   -3.6377   -0.0534   -1.8814 H   0  0  0  0  0  0  0  0  0  0  0  0
  1  2  2  0
  2  3  1  0
  3  4  1  0
  4  5  1  0
  5  6  1  0
  6  7  1  0
  7  8  1  0
  8  9  1  0
  9 10  1  0
 10 11  2  0
 11 12  1  0
 12 13  2  0
 13 14  1  0
 14 15  2  0
 14 16  1  0
 16 17  1  0
 17 18  1  0
 18 19  1  0
 19 20  1  0
 20 21  1  0
 21 22  2  0
 22 23  1  0
 23 24  2  0
 24 25  1  0
 24 26  1  0
 26 27  2  0
 19 28  1  0
 28 29  1  0
 13 30  1  0
 30 31  2  0
 31 32  1  0
 32 33  1  0
 33 34  1  0
 34 35  2  0
 35 36  1  0
 36 37  2  0
 37 38  1  0
 37  2  1  0
 31 10  1  0
 38 33  2  0
 29 16  1  0
 27 21  1  0
  3 39  1  0
  4 40  1  0
  4 41  1  0
  5 42  1  0
  5 43  1  0
  7 44  1  0
  7 45  1  0
  8 46  1  0
  8 47  1  0
 11 48  1  0
 12 49  1  0
 17 50  1  0
 17 51  1  0
 18 52  1  0
 18 53  1  0
 20 54  1  0
 20 55  1  0
 22 56  1  0
 23 57  1  0
 26 58  1  0
 27 59  1  0
 28 60  1  0
 28 61  1  0
 29 62  1  0
 29 63  1  0
 30 64  1  0
 32 65  1  0
 32 66  1  0
 34 67  1  0
 35 68  1  0
 36 69  1  0
 38 70  1  0
M  END
$$$$
