
     RDKit          3D

 70 74  0  0  0  0  0  0  0  0999 V2000
   -1.0253    2.7506   -2.8269 C   0  0  0  0  0  0  0  0  0  0  0  0
   -0.9389    2.5138   -1.3224 C   0  0  0  0  0  0  0  0  0  0  0  0
   -1.5109    1.2106   -0.9695 N   0  0  0  0  0  0  0  0  0  0  0  0
   -2.9368    1.1085   -0.6100 C   0  0  0  0  0  0  0  0  0  0  0  0
   -3.6883    0.1900   -1.5829 C   0  0  0  0  0  0  0  0  0  0  0  0
   -5.0485   -0.0248   -1.1945 O   0  0  0  0  0  0  0  0  0  0  0  0
   -5.4980   -0.4641    0.0640 C   0  0  0  0  0  0  0  0  0  0  0  0
   -6.4170    0.3634    0.7259 C   0  0  0  0  0  0  0  0  0  0  0  0
   -6.9349    0.0109    1.9723 C   0  0  0  0  0  0  0  0  0  0  0  0
   -6.5498   -1.1862    2.5729 C   0  0  0  0  0  0  0  0  0  0  0  0
   -5.6512   -2.0350    1.9254 C   0  0  0  0  0  0  0  0  0  0  0  0
   -5.1223   -1.7010    0.6642 C   0  0  0  0  0  0  0  0  0  0  0  0
   -4.1213   -2.6522    0.0530 C   0  0  0  0  0  0  0  0  0  0  0  0
   -2.7274   -2.4079    0.6638 C   0  0  0  0  0  0  0  0  0  0  0  0
   -1.5838   -2.7561   -0.2979 C   0  0  0  0  0  0  0  0  0  0  0  0
   -0.2122   -2.1734    0.1156 C   0  0  0  0  0  0  0  0  0  0  0  0
   -0.0877   -0.6005    0.2094 C   0  0  0  0  0  0  0  0  0  0  0  0
    1.4121   -0.1966    0.2597 C   0  0  0  0  0  0  0  0  0  0  0  0
    1.9838   -0.4697    1.5778 N   0  0  0  0  0  0  0  0  0  0  0  0
    3.3873   -0.7368    1.7604 C   0  0  0  0  0  0  0  0  0  0  0  0
    3.7418   -1.5392    2.6643 O   0  0  0  0  0  0  0  0  0  0  0  0
    4.4397    0.0054    1.0403 C   0  0  0  0  0  0  0  0  0  0  0  0
    4.5783    0.1683   -0.3328 C   0  0  0  0  0  0  0  0  0  0  0  0
    5.6828    0.9059   -0.5329 N   0  0  0  0  0  0  0  0  0  0  0  0
    6.2636    1.3360   -1.6887 C   0  0  0  0  0  0  0  0  0  0  0  0
    5.6697    1.0061   -3.0282 C   0  0  0  0  0  0  0  0  0  0  0  0
    7.4540    2.0825   -1.5877 C   0  0  0  0  0  0  0  0  0  0  0  0
    7.9851    2.3749   -0.3165 C   0  0  0  0  0  0  0  0  0  0  0  0
    7.3464    1.9119    0.8435 C   0  0  0  0  0  0  0  0  0  0  0  0
    6.1817    1.1644    0.6880 C   0  0  0  0  0  0  0  0  0  0  0  0
    5.4509    0.6333    1.6870 N   0  0  0  0  0  0  0  0  0  0  0  0
    1.2119   -0.0372    2.7421 C   0  0  0  0  0  0  0  0  0  0  0  0
   -0.2488   -0.4457    2.5846 C   0  0  0  0  0  0  0  0  0  0  0  0
   -0.7766   -0.0502    1.3317 O   0  0  0  0  0  0  0  0  0  0  0  0
   -0.6714    0.0390   -1.0432 C   0  0  0  0  0  0  0  0  0  0  0  0
   -0.3286   -0.3955   -2.1764 O   0  0  0  0  0  0  0  0  0  0  0  0
   -2.0800    2.6696   -3.1686 H   0  0  0  0  0  0  0  0  0  0  0  0
   -0.6487    3.7690   -3.0617 H   0  0  0  0  0  0  0  0  0  0  0  0
   -0.4017    2.0090   -3.3720 H   0  0  0  0  0  0  0  0  0  0  0  0
   -1.4795    3.3300   -0.7938 H   0  0  0  0  0  0  0  0  0  0  0  0
    0.1243    2.5676   -0.9991 H   0  0  0  0  0  0  0  0  0  0  0  0
   -3.0368    0.7527    0.4316 H   0  0  0  0  0  0  0  0  0  0  0  0
   -3.4211    2.1080   -0.6431 H   0  0  0  0  0  0  0  0  0  0  0  0
   -3.6930    0.6709   -2.5841 H   0  0  0  0  0  0  0  0  0  0  0  0
   -3.1663   -0.7644   -1.7139 H   0  0  0  0  0  0  0  0  0  0  0  0
   -6.7225    1.2989    0.2728 H   0  0  0  0  0  0  0  0  0  0  0  0
   -7.6361    0.6676    2.4716 H   0  0  0  0  0  0  0  0  0  0  0  0
   -6.9471   -1.4553    3.5433 H   0  0  0  0  0  0  0  0  0  0  0  0
   -5.3628   -2.9575    2.4135 H   0  0  0  0  0  0  0  0  0  0  0  0
   -4.1379   -2.5707   -1.0506 H   0  0  0  0  0  0  0  0  0  0  0  0
   -4.4237   -3.7026    0.2632 H   0  0  0  0  0  0  0  0  0  0  0  0
   -2.6184   -2.9988    1.5988 H   0  0  0  0  0  0  0  0  0  0  0  0
   -2.6586   -1.3532    0.9518 H   0  0  0  0  0  0  0  0  0  0  0  0
   -1.8139   -2.4385   -1.3330 H   0  0  0  0  0  0  0  0  0  0  0  0
   -1.4971   -3.8632   -0.3381 H   0  0  0  0  0  0  0  0  0  0  0  0
    0.1298   -2.6725    1.0438 H   0  0  0  0  0  0  0  0  0  0  0  0
    0.5039   -2.5287   -0.6572 H   0  0  0  0  0  0  0  0  0  0  0  0
    1.5343    0.8878    0.0464 H   0  0  0  0  0  0  0  0  0  0  0  0
    1.9561   -0.7689   -0.5164 H   0  0  0  0  0  0  0  0  0  0  0  0
    3.9681   -0.2424   -1.1210 H   0  0  0  0  0  0  0  0  0  0  0  0
    5.6973   -0.0929   -3.1841 H   0  0  0  0  0  0  0  0  0  0  0  0
    4.6178    1.3566   -3.0611 H   0  0  0  0  0  0  0  0  0  0  0  0
    6.2295    1.4974   -3.8520 H   0  0  0  0  0  0  0  0  0  0  0  0
    7.9656    2.4380   -2.4743 H   0  0  0  0  0  0  0  0  0  0  0  0
    8.8962    2.9527   -0.2348 H   0  0  0  0  0  0  0  0  0  0  0  0
    7.7481    2.1274    1.8260 H   0  0  0  0  0  0  0  0  0  0  0  0
    1.6104   -0.4890    3.6773 H   0  0  0  0  0  0  0  0  0  0  0  0
    1.2789    1.0691    2.8331 H   0  0  0  0  0  0  0  0  0  0  0  0
   -0.8343    0.0698    3.3755 H   0  0  0  0  0  0  0  0  0  0  0  0
   -0.3896   -1.5283    2.7748 H   0  0  0  0  0  0  0  0  0  0  0  0
  1  2  1  0
  2  3  1  0
  3  4  1  0
  4  5  1  0
  5  6  1  0
  6  7  1  0
  7  8  2  0
  8  9  1  0
  9 10  2  0
 10 11  1  0
 11 12  2  0
 12 13  1  0
 13 14  1  0
 14 15  1  0
 15 16  1  0
 16 17  1  0
 17 18  1  0
 18 19  1  0
 19 20  1  0
 20 21  2  0
 20 22  1  0
 22 23  2  0
 23 24  1  0
 24 25  1  0
 25 26  1  0
 25 27  2  0
 27 28  1  0
 28 29  2  0
 29 30  1  0
 30 31  2  0
 19 32  1  0
 32 33  1  0
 33 34  1  0
 17 35  1  0
 35 36  2  0
 35  3  1  0
 12  7  1  0
 34 17  1  0
 31 22  1  0
 30 24  1  0
  1 37  1  0
  1 38  1  0
  1 39  1  0
  2 40  1  0
  2 41  1  0
  4 42  1  0
  4 43  1  0
  5 44  1  0
  5 45  1  0
  8 46  1  0
  9 47  1  0
 10 48  1  0
 11 49  1  0
 13 50  1  0
 13 51  1  0
 14 52  1  0
 14 53  1  0
 15 54  1  0
 15 55  1  0
 16 56  1  0
 16 57  1  0
 18 58  1  0
 18 59  1  0
 23 60  1  0
 26 61  1  0
 26 62  1  0
 26 63  1  0
 27 64  1  0
 28 65  1  0
 29 66  1  0
 32 67  1  0
 32 68  1  0
 33 69  1  0
 33 70  1  0
M  END
$$$$
