
     RDKit          3D

 83 85  0  0  0  0  0  0  0  0999 V2000
   -6.9670    0.2033   -1.9079 C   0  0  0  0  0  0  0  0  0  0  0  0
   -5.8743    1.2520   -1.7280 C   0  0  0  0  0  0  0  0  0  0  0  0
   -4.8608    0.7769   -0.7752 N   0  0  0  0  0  0  0  0  0  0  0  0
   -4.7040    1.4745    0.5119 C   0  0  0  0  0  0  0  0  0  0  0  0
   -3.6476    2.5698    0.3984 C   0  0  0  0  0  0  0  0  0  0  0  0
   -2.3458    1.9904    0.4132 O   0  0  0  0  0  0  0  0  0  0  0  0
   -1.1725    2.7193    0.1863 C   0  0  0  0  0  0  0  0  0  0  0  0
   -1.0757    3.6208   -0.8877 C   0  0  0  0  0  0  0  0  0  0  0  0
    0.1059    4.3337   -1.1031 C   0  0  0  0  0  0  0  0  0  0  0  0
    1.1917    4.1735   -0.2386 C   0  0  0  0  0  0  0  0  0  0  0  0
    1.1036    3.2841    0.8353 C   0  0  0  0  0  0  0  0  0  0  0  0
   -0.0679    2.5385    1.0415 C   0  0  0  0  0  0  0  0  0  0  0  0
   -0.1626    1.6332    2.2022 C   0  0  0  0  0  0  0  0  0  0  0  0
   -0.0707    2.1166    3.3594 O   0  0  0  0  0  0  0  0  0  0  0  0
   -0.3624    0.2204    2.0478 N   0  0  0  0  0  0  0  0  0  0  0  0
   -0.1609   -0.4774    0.7713 C   0  0  0  0  0  0  0  0  0  0  0  0
    1.2941   -0.4343    0.3839 C   0  0  0  0  0  0  0  0  0  0  0  0
    2.1741   -0.4459    1.2881 O   0  0  0  0  0  0  0  0  0  0  0  0
    1.6797   -0.4355   -1.0006 N   0  0  0  0  0  0  0  0  0  0  0  0
    3.0789   -0.5072   -1.4140 C   0  0  0  0  0  0  0  0  0  0  0  0
    3.6996    0.8927   -1.4461 C   0  0  0  0  0  0  0  0  0  0  0  0
    5.1192    0.7992   -1.5730 O   0  0  0  0  0  0  0  0  0  0  0  0
    6.0191    0.4742   -0.5354 C   0  0  0  0  0  0  0  0  0  0  0  0
    5.5954    0.3644    0.8032 C   0  0  0  0  0  0  0  0  0  0  0  0
    6.5057    0.0642    1.8124 C   0  0  0  0  0  0  0  0  0  0  0  0
    7.8533   -0.1113    1.5113 C   0  0  0  0  0  0  0  0  0  0  0  0
    8.3144    0.0128    0.1934 C   0  0  0  0  0  0  0  0  0  0  0  0
    9.7867   -0.1751   -0.0832 C   0  0  0  0  0  0  0  0  0  0  0  0
    7.3835    0.2662   -0.8499 C   0  0  0  0  0  0  0  0  0  0  0  0
    7.8472    0.3791   -2.2851 C   0  0  0  0  0  0  0  0  0  0  0  0
   -0.6409   -1.9431    0.8670 C   0  0  0  0  0  0  0  0  0  0  0  0
   -1.1651   -2.4346   -0.4561 C   0  0  0  0  0  0  0  0  0  0  0  0
   -0.3697   -3.0080   -1.2503 O   0  0  0  0  0  0  0  0  0  0  0  0
   -2.5358   -2.2462   -0.8556 N   0  0  0  0  0  0  0  0  0  0  0  0
   -3.5040   -1.3466   -0.2048 C   0  0  0  0  0  0  0  0  0  0  0  0
   -4.7312   -2.1539    0.2863 C   0  0  0  0  0  0  0  0  0  0  0  0
   -4.4236   -3.0674    1.5035 C   0  0  0  0  0  0  0  0  0  0  0  0
   -3.9440   -4.4637    1.0701 C   0  0  0  0  0  0  0  0  0  0  0  0
   -5.6570   -3.2010    2.4080 C   0  0  0  0  0  0  0  0  0  0  0  0
   -3.9565   -0.2769   -1.1821 C   0  0  0  0  0  0  0  0  0  0  0  0
   -3.5999   -0.3470   -2.3933 O   0  0  0  0  0  0  0  0  0  0  0  0
   -7.4657    0.0035   -0.9391 H   0  0  0  0  0  0  0  0  0  0  0  0
   -6.5424   -0.7477   -2.2915 H   0  0  0  0  0  0  0  0  0  0  0  0
   -7.7175    0.5677   -2.6380 H   0  0  0  0  0  0  0  0  0  0  0  0
   -6.3415    2.1971   -1.3704 H   0  0  0  0  0  0  0  0  0  0  0  0
   -5.4031    1.4682   -2.7107 H   0  0  0  0  0  0  0  0  0  0  0  0
   -5.6665    1.9464    0.8091 H   0  0  0  0  0  0  0  0  0  0  0  0
   -4.4469    0.7687    1.3288 H   0  0  0  0  0  0  0  0  0  0  0  0
   -3.7426    3.2645    1.2589 H   0  0  0  0  0  0  0  0  0  0  0  0
   -3.8198    3.1368   -0.5400 H   0  0  0  0  0  0  0  0  0  0  0  0
   -1.8988    3.7499   -1.5763 H   0  0  0  0  0  0  0  0  0  0  0  0
    0.1767    5.0135   -1.9412 H   0  0  0  0  0  0  0  0  0  0  0  0
    2.1007    4.7420   -0.3990 H   0  0  0  0  0  0  0  0  0  0  0  0
    1.9522    3.1690    1.5009 H   0  0  0  0  0  0  0  0  0  0  0  0
   -0.5161   -0.3393    2.9202 H   0  0  0  0  0  0  0  0  0  0  0  0
   -0.7539    0.0391   -0.0097 H   0  0  0  0  0  0  0  0  0  0  0  0
    0.9416   -0.3674   -1.7383 H   0  0  0  0  0  0  0  0  0  0  0  0
    3.1412   -0.9509   -2.4290 H   0  0  0  0  0  0  0  0  0  0  0  0
    3.6408   -1.1801   -0.7315 H   0  0  0  0  0  0  0  0  0  0  0  0
    3.3043    1.4380   -2.3338 H   0  0  0  0  0  0  0  0  0  0  0  0
    3.4245    1.4936   -0.5499 H   0  0  0  0  0  0  0  0  0  0  0  0
    4.5647    0.5152    1.0824 H   0  0  0  0  0  0  0  0  0  0  0  0
    6.1643   -0.0280    2.8337 H   0  0  0  0  0  0  0  0  0  0  0  0
    8.5411   -0.3383    2.3158 H   0  0  0  0  0  0  0  0  0  0  0  0
   10.1575    0.6084   -0.7774 H   0  0  0  0  0  0  0  0  0  0  0  0
    9.9622   -1.1763   -0.5297 H   0  0  0  0  0  0  0  0  0  0  0  0
   10.3856   -0.0992    0.8471 H   0  0  0  0  0  0  0  0  0  0  0  0
    8.6048   -0.3984   -2.5144 H   0  0  0  0  0  0  0  0  0  0  0  0
    7.0142    0.2324   -3.0060 H   0  0  0  0  0  0  0  0  0  0  0  0
    8.2969    1.3810   -2.4496 H   0  0  0  0  0  0  0  0  0  0  0  0
   -1.4341   -2.0529    1.6307 H   0  0  0  0  0  0  0  0  0  0  0  0
    0.1830   -2.6064    1.2121 H   0  0  0  0  0  0  0  0  0  0  0  0
   -2.8540   -2.7617   -1.7103 H   0  0  0  0  0  0  0  0  0  0  0  0
   -3.0384   -0.8301    0.6596 H   0  0  0  0  0  0  0  0  0  0  0  0
   -5.5182   -1.4239    0.5789 H   0  0  0  0  0  0  0  0  0  0  0  0
   -5.1572   -2.7545   -0.5527 H   0  0  0  0  0  0  0  0  0  0  0  0
   -3.6255   -2.6065    2.1204 H   0  0  0  0  0  0  0  0  0  0  0  0
   -3.6819   -5.0630    1.9671 H   0  0  0  0  0  0  0  0  0  0  0  0
   -3.0359   -4.4041    0.4342 H   0  0  0  0  0  0  0  0  0  0  0  0
   -4.7453   -4.9974    0.5108 H   0  0  0  0  0  0  0  0  0  0  0  0
   -5.4202   -3.8328    3.2936 H   0  0  0  0  0  0  0  0  0  0  0  0
   -5.9740   -2.2015    2.7771 H   0  0  0  0  0  0  0  0  0  0  0  0
   -6.5089   -3.6594    1.8610 H   0  0  0  0  0  0  0  0  0  0  0  0
  1  2  1  0
  2  3  1  0
  3  4  1  0
  4  5  1  0
  5  6  1  0
  6  7  1  0
  7  8  2  0
  8  9  1  0
  9 10  2  0
 10 11  1  0
 11 12  2  0
 12 13  1  0
 13 14  2  0
 13 15  1  0
 15 16  1  0
 16 17  1  0
 17 18  2  0
 17 19  1  0
 19 20  1  0
 20 21  1  0
 21 22  1  0
 22 23  1  0
 23 24  2  0
 24 25  1  0
 25 26  2  0
 26 27  1  0
 27 28  1  0
 27 29  2  0
 29 30  1  0
 16 31  1  0
 31 32  1  0
 32 33  2  0
 32 34  1  0
 34 35  1  0
 35 36  1  0
 36 37  1  0
 37 38  1  0
 37 39  1  0
 35 40  1  0
 40 41  2  0
 40  3  1  0
 12  7  1  0
 29 23  1  0
  1 42  1  0
  1 43  1  0
  1 44  1  0
  2 45  1  0
  2 46  1  0
  4 47  1  0
  4 48  1  0
  5 49  1  0
  5 50  1  0
  8 51  1  0
  9 52  1  0
 10 53  1  0
 11 54  1  0
 15 55  1  0
 16 56  1  0
 19 57  1  0
 20 58  1  0
 20 59  1  0
 21 60  1  0
 21 61  1  0
 24 62  1  0
 25 63  1  0
 26 64  1  0
 28 65  1  0
 28 66  1  0
 28 67  1  0
 30 68  1  0
 30 69  1  0
 30 70  1  0
 31 71  1  0
 31 72  1  0
 34 73  1  0
 35 74  1  0
 36 75  1  0
 36 76  1  0
 37 77  1  0
 38 78  1  0
 38 79  1  0
 38 80  1  0
 39 81  1  0
 39 82  1  0
 39 83  1  0
M  END
$$$$
