
     RDKit          3D

 76 79  0  0  0  0  0  0  0  0999 V2000
   -4.8815   -5.0586    0.3846 C   0  0  0  0  0  0  0  0  0  0  0  0
   -4.3255   -3.8192    0.7647 O   0  0  0  0  0  0  0  0  0  0  0  0
   -4.5305   -2.8736   -0.2668 C   0  0  0  0  0  0  0  0  0  0  0  0
   -3.8956   -1.5080    0.1206 C   0  0  0  0  0  0  0  0  0  0  0  0
   -2.3962   -1.6942    0.5365 C   0  0  0  0  0  0  0  0  0  0  0  0
   -1.5129   -2.4909   -0.4562 C   0  0  0  0  0  0  0  0  0  0  0  0
   -0.0842   -1.9240   -0.5336 C   0  0  0  0  0  0  0  0  0  0  0  0
    0.0027   -0.7399   -1.5148 C   0  0  0  0  0  0  0  0  0  0  0  0
    1.1766    0.0987   -1.2320 N   0  0  0  0  0  0  0  0  0  0  0  0
    2.5006   -0.4665   -1.3424 C   0  0  0  0  0  0  0  0  0  0  0  0
    2.6982   -1.4343   -2.1281 O   0  0  0  0  0  0  0  0  0  0  0  0
    3.6640    0.0969   -0.5667 C   0  0  0  0  0  0  0  0  0  0  0  0
    4.5723   -1.0184   -0.0254 C   0  0  0  0  0  0  0  0  0  0  0  0
    5.6947   -0.4635    0.8736 C   0  0  0  0  0  0  0  0  0  0  0  0
    6.5389   -1.5750    1.4862 C   0  0  0  0  0  0  0  0  0  0  0  0
    7.8894   -0.9401    1.7902 C   0  0  0  0  0  0  0  0  0  0  0  0
    8.0044    0.2982    0.9018 C   0  0  0  0  0  0  0  0  0  0  0  0
    6.6977    0.4093    0.1239 C   0  0  0  0  0  0  0  0  0  0  0  0
    0.9772    1.5333   -0.9734 C   0  0  0  0  0  0  0  0  0  0  0  0
    0.4301    1.7637    0.4384 C   0  0  0  0  0  0  0  0  0  0  0  0
    0.1032    3.1407    0.6343 O   0  0  0  0  0  0  0  0  0  0  0  0
   -0.9453    3.7918   -0.0321 C   0  0  0  0  0  0  0  0  0  0  0  0
   -0.6278    4.8814   -0.8526 C   0  0  0  0  0  0  0  0  0  0  0  0
   -1.6271    5.5558   -1.5565 C   0  0  0  0  0  0  0  0  0  0  0  0
   -2.9579    5.1582   -1.4322 C   0  0  0  0  0  0  0  0  0  0  0  0
   -3.2944    4.0931   -0.5945 C   0  0  0  0  0  0  0  0  0  0  0  0
   -2.2976    3.3945    0.1087 C   0  0  0  0  0  0  0  0  0  0  0  0
   -2.6960    2.3443    1.0717 C   0  0  0  0  0  0  0  0  0  0  0  0
   -2.2651    2.4345    2.2551 O   0  0  0  0  0  0  0  0  0  0  0  0
   -3.5475    1.2312    0.7009 N   0  0  0  0  0  0  0  0  0  0  0  0
   -4.1408    0.4281    1.7843 C   0  0  0  0  0  0  0  0  0  0  0  0
   -4.7118   -0.9091    1.2940 C   0  0  0  0  0  0  0  0  0  0  0  0
   -3.8864    0.9753   -0.7142 C   0  0  0  0  0  0  0  0  0  0  0  0
   -4.0268   -0.5247   -1.0740 C   0  0  0  0  0  0  0  0  0  0  0  0
   -4.3775   -5.4653   -0.5201 H   0  0  0  0  0  0  0  0  0  0  0  0
   -4.7247   -5.7839    1.2091 H   0  0  0  0  0  0  0  0  0  0  0  0
   -5.9777   -4.9753    0.2145 H   0  0  0  0  0  0  0  0  0  0  0  0
   -4.0873   -3.2342   -1.2227 H   0  0  0  0  0  0  0  0  0  0  0  0
   -5.6226   -2.7298   -0.4439 H   0  0  0  0  0  0  0  0  0  0  0  0
   -2.3500   -2.2067    1.5224 H   0  0  0  0  0  0  0  0  0  0  0  0
   -1.9392   -0.7008    0.7048 H   0  0  0  0  0  0  0  0  0  0  0  0
   -1.4615   -3.5462   -0.1103 H   0  0  0  0  0  0  0  0  0  0  0  0
   -1.9401   -2.5182   -1.4789 H   0  0  0  0  0  0  0  0  0  0  0  0
    0.2580   -1.6154    0.4795 H   0  0  0  0  0  0  0  0  0  0  0  0
    0.6019   -2.7259   -0.8821 H   0  0  0  0  0  0  0  0  0  0  0  0
    0.0613   -1.1232   -2.5562 H   0  0  0  0  0  0  0  0  0  0  0  0
   -0.9231   -0.1284   -1.4508 H   0  0  0  0  0  0  0  0  0  0  0  0
    3.2905    0.6925    0.2922 H   0  0  0  0  0  0  0  0  0  0  0  0
    4.2429    0.7678   -1.2373 H   0  0  0  0  0  0  0  0  0  0  0  0
    5.0156   -1.5868   -0.8733 H   0  0  0  0  0  0  0  0  0  0  0  0
    3.9542   -1.7240    0.5735 H   0  0  0  0  0  0  0  0  0  0  0  0
    5.2462    0.1313    1.7022 H   0  0  0  0  0  0  0  0  0  0  0  0
    6.0661   -1.9797    2.4078 H   0  0  0  0  0  0  0  0  0  0  0  0
    6.6819   -2.4039    0.7567 H   0  0  0  0  0  0  0  0  0  0  0  0
    8.7150   -1.6564    1.5851 H   0  0  0  0  0  0  0  0  0  0  0  0
    7.9312   -0.6412    2.8606 H   0  0  0  0  0  0  0  0  0  0  0  0
    8.8660    0.2065    0.2049 H   0  0  0  0  0  0  0  0  0  0  0  0
    8.1500    1.2038    1.5312 H   0  0  0  0  0  0  0  0  0  0  0  0
    6.8539    0.0269   -0.9097 H   0  0  0  0  0  0  0  0  0  0  0  0
    6.3512    1.4648    0.0727 H   0  0  0  0  0  0  0  0  0  0  0  0
    0.2646    1.9411   -1.7233 H   0  0  0  0  0  0  0  0  0  0  0  0
    1.9248    2.0993   -1.1025 H   0  0  0  0  0  0  0  0  0  0  0  0
   -0.4529    1.1244    0.6188 H   0  0  0  0  0  0  0  0  0  0  0  0
    1.2036    1.4775    1.1802 H   0  0  0  0  0  0  0  0  0  0  0  0
    0.4026    5.1959   -0.9546 H   0  0  0  0  0  0  0  0  0  0  0  0
   -1.3697    6.3906   -2.1960 H   0  0  0  0  0  0  0  0  0  0  0  0
   -3.7332    5.6892   -1.9698 H   0  0  0  0  0  0  0  0  0  0  0  0
   -4.3382    3.8322   -0.4728 H   0  0  0  0  0  0  0  0  0  0  0  0
   -4.9376    1.0174    2.2885 H   0  0  0  0  0  0  0  0  0  0  0  0
   -3.3602    0.1977    2.5426 H   0  0  0  0  0  0  0  0  0  0  0  0
   -5.7653   -0.7462    0.9722 H   0  0  0  0  0  0  0  0  0  0  0  0
   -4.7421   -1.6185    2.1501 H   0  0  0  0  0  0  0  0  0  0  0  0
   -4.8433    1.4932   -0.9434 H   0  0  0  0  0  0  0  0  0  0  0  0
   -3.1078    1.4046   -1.3819 H   0  0  0  0  0  0  0  0  0  0  0  0
   -5.0280   -0.6563   -1.5423 H   0  0  0  0  0  0  0  0  0  0  0  0
   -3.2991   -0.7795   -1.8715 H   0  0  0  0  0  0  0  0  0  0  0  0
  1  2  1  0
  2  3  1  0
  3  4  1  0
  4  5  1  0
  5  6  1  0
  6  7  1  0
  7  8  1  0
  8  9  1  0
  9 10  1  0
 10 11  2  0
 10 12  1  0
 12 13  1  0
 13 14  1  0
 14 15  1  0
 15 16  1  0
 16 17  1  0
 17 18  1  0
  9 19  1  0
 19 20  1  0
 20 21  1  0
 21 22  1  0
 22 23  2  0
 23 24  1  0
 24 25  2  0
 25 26  1  0
 26 27  2  0
 27 28  1  0
 28 29  2  0
 28 30  1  0
 30 31  1  0
 31 32  1  0
 30 33  1  0
 33 34  1  0
 32  4  1  0
 34  4  1  0
 18 14  1  0
 27 22  1  0
  1 35  1  0
  1 36  1  0
  1 37  1  0
  3 38  1  0
  3 39  1  0
  5 40  1  0
  5 41  1  0
  6 42  1  0
  6 43  1  0
  7 44  1  0
  7 45  1  0
  8 46  1  0
  8 47  1  0
 12 48  1  0
 12 49  1  0
 13 50  1  0
 13 51  1  0
 14 52  1  0
 15 53  1  0
 15 54  1  0
 16 55  1  0
 16 56  1  0
 17 57  1  0
 17 58  1  0
 18 59  1  0
 18 60  1  0
 19 61  1  0
 19 62  1  0
 20 63  1  0
 20 64  1  0
 23 65  1  0
 24 66  1  0
 25 67  1  0
 26 68  1  0
 31 69  1  0
 31 70  1  0
 32 71  1  0
 32 72  1  0
 33 73  1  0
 33 74  1  0
 34 75  1  0
 34 76  1  0
M  END
$$$$
