
     RDKit          3D

 67 69  0  0  0  0  0  0  0  0999 V2000
    8.4636    1.0786    1.7365 C   0  0  0  0  0  0  0  0  0  0  0  0
    7.1237    0.9028    2.1832 O   0  0  0  0  0  0  0  0  0  0  0  0
    6.0914    0.3680    1.3980 C   0  0  0  0  0  0  0  0  0  0  0  0
    4.8089    0.2873    1.9511 C   0  0  0  0  0  0  0  0  0  0  0  0
    3.7454   -0.2312    1.2082 C   0  0  0  0  0  0  0  0  0  0  0  0
    3.9502   -0.6832   -0.1058 C   0  0  0  0  0  0  0  0  0  0  0  0
    2.8296   -1.2505   -0.8891 C   0  0  0  0  0  0  0  0  0  0  0  0
    3.0680   -2.1240   -1.7670 O   0  0  0  0  0  0  0  0  0  0  0  0
    1.4697   -0.8443   -0.6463 N   0  0  0  0  0  0  0  0  0  0  0  0
    0.3958   -1.8479   -0.6578 C   0  0  0  0  0  0  0  0  0  0  0  0
    0.4660   -2.7332    0.5921 C   0  0  0  0  0  0  0  0  0  0  0  0
   -0.4694   -3.9539    0.5148 C   0  0  0  0  0  0  0  0  0  0  0  0
   -1.9626   -3.5959    0.5766 C   0  0  0  0  0  0  0  0  0  0  0  0
   -2.4486   -3.1114   -0.7189 N   0  0  0  0  0  0  0  0  0  0  0  0
   -3.3345   -1.9893   -0.8649 C   0  0  0  0  0  0  0  0  0  0  0  0
   -3.4886   -1.4712   -2.0032 O   0  0  0  0  0  0  0  0  0  0  0  0
   -4.0592   -1.4191    0.2860 C   0  0  0  0  0  0  0  0  0  0  0  0
   -4.8853   -2.2454    1.0631 C   0  0  0  0  0  0  0  0  0  0  0  0
   -5.5425   -1.7326    2.1840 C   0  0  0  0  0  0  0  0  0  0  0  0
   -6.5751   -2.7722    3.1486 Cl  0  0  0  0  0  0  0  0  0  0  0  0
   -5.3763   -0.3920    2.5368 C   0  0  0  0  0  0  0  0  0  0  0  0
   -4.5521    0.4374    1.7731 C   0  0  0  0  0  0  0  0  0  0  0  0
   -3.8845   -0.0680    0.6411 C   0  0  0  0  0  0  0  0  0  0  0  0
   -3.0393    0.7393   -0.1351 O   0  0  0  0  0  0  0  0  0  0  0  0
   -2.2381    1.7934    0.3984 C   0  0  0  0  0  0  0  0  0  0  0  0
   -1.3982    2.4682   -0.7070 C   0  0  0  0  0  0  0  0  0  0  0  0
   -2.1190    3.6942   -1.3415 C   0  0  0  0  0  0  0  0  0  0  0  0
   -1.2031    4.4138   -2.3418 C   0  0  0  0  0  0  0  0  0  0  0  0
   -3.4642    3.3513   -2.0052 C   0  0  0  0  0  0  0  0  0  0  0  0
   -0.9909    1.4963   -1.7321 N   0  0  0  0  0  0  0  0  0  0  0  0
    0.3329    0.9556   -1.8263 C   0  0  0  0  0  0  0  0  0  0  0  0
    0.8204    0.7221   -2.9646 O   0  0  0  0  0  0  0  0  0  0  0  0
    1.1245    0.5838   -0.6043 C   0  0  0  0  0  0  0  0  0  0  0  0
    5.2384   -0.6100   -0.6598 C   0  0  0  0  0  0  0  0  0  0  0  0
    6.2996   -0.0825    0.0816 C   0  0  0  0  0  0  0  0  0  0  0  0
    8.9080    0.0981    1.4655 H   0  0  0  0  0  0  0  0  0  0  0  0
    9.0638    1.5256    2.5553 H   0  0  0  0  0  0  0  0  0  0  0  0
    8.4876    1.7630    0.8625 H   0  0  0  0  0  0  0  0  0  0  0  0
    4.6341    0.6342    2.9622 H   0  0  0  0  0  0  0  0  0  0  0  0
    2.7662   -0.2913    1.6665 H   0  0  0  0  0  0  0  0  0  0  0  0
    0.4736   -2.4682   -1.5766 H   0  0  0  0  0  0  0  0  0  0  0  0
   -0.5898   -1.3382   -0.6767 H   0  0  0  0  0  0  0  0  0  0  0  0
    0.2275   -2.1244    1.4917 H   0  0  0  0  0  0  0  0  0  0  0  0
    1.5047   -3.1101    0.7110 H   0  0  0  0  0  0  0  0  0  0  0  0
   -0.2489   -4.5521   -0.3953 H   0  0  0  0  0  0  0  0  0  0  0  0
   -0.2431   -4.6018    1.3886 H   0  0  0  0  0  0  0  0  0  0  0  0
   -2.1213   -2.8424    1.3774 H   0  0  0  0  0  0  0  0  0  0  0  0
   -2.5396   -4.5064    0.8473 H   0  0  0  0  0  0  0  0  0  0  0  0
   -2.1594   -3.6216   -1.5834 H   0  0  0  0  0  0  0  0  0  0  0  0
   -5.0178   -3.2869    0.7963 H   0  0  0  0  0  0  0  0  0  0  0  0
   -5.8916    0.0094    3.3997 H   0  0  0  0  0  0  0  0  0  0  0  0
   -4.4568    1.4736    2.0610 H   0  0  0  0  0  0  0  0  0  0  0  0
   -1.5602    1.3630    1.1668 H   0  0  0  0  0  0  0  0  0  0  0  0
   -2.8716    2.5532    0.9028 H   0  0  0  0  0  0  0  0  0  0  0  0
   -0.4870    2.8730   -0.2103 H   0  0  0  0  0  0  0  0  0  0  0  0
   -2.3330    4.4192   -0.5236 H   0  0  0  0  0  0  0  0  0  0  0  0
   -1.6901    5.3443   -2.7040 H   0  0  0  0  0  0  0  0  0  0  0  0
   -0.2457    4.6940   -1.8529 H   0  0  0  0  0  0  0  0  0  0  0  0
   -0.9832    3.7646   -3.2159 H   0  0  0  0  0  0  0  0  0  0  0  0
   -4.1446    2.8449   -1.2906 H   0  0  0  0  0  0  0  0  0  0  0  0
   -3.9663    4.2857   -2.3346 H   0  0  0  0  0  0  0  0  0  0  0  0
   -3.3254    2.7068   -2.8967 H   0  0  0  0  0  0  0  0  0  0  0  0
   -1.6685    1.2263   -2.4793 H   0  0  0  0  0  0  0  0  0  0  0  0
    2.0356    1.2187   -0.5732 H   0  0  0  0  0  0  0  0  0  0  0  0
    0.5504    0.7831    0.3215 H   0  0  0  0  0  0  0  0  0  0  0  0
    5.4198   -0.9427   -1.6737 H   0  0  0  0  0  0  0  0  0  0  0  0
    7.2763   -0.0291   -0.3787 H   0  0  0  0  0  0  0  0  0  0  0  0
  1  2  1  0
  2  3  1  0
  3  4  2  0
  4  5  1  0
  5  6  2  0
  6  7  1  0
  7  8  2  0
  7  9  1  0
  9 10  1  0
 10 11  1  0
 11 12  1  0
 12 13  1  0
 13 14  1  0
 14 15  1  0
 15 16  2  0
 15 17  1  0
 17 18  2  0
 18 19  1  0
 19 20  1  0
 19 21  2  0
 21 22  1  0
 22 23  2  0
 23 24  1  0
 24 25  1  0
 25 26  1  0
 26 27  1  0
 27 28  1  0
 27 29  1  0
 26 30  1  0
 30 31  1  0
 31 32  2  0
 31 33  1  0
  6 34  1  0
 34 35  2  0
 35  3  1  0
 33  9  1  0
 23 17  1  0
  1 36  1  0
  1 37  1  0
  1 38  1  0
  4 39  1  0
  5 40  1  0
 10 41  1  0
 10 42  1  0
 11 43  1  0
 11 44  1  0
 12 45  1  0
 12 46  1  0
 13 47  1  0
 13 48  1  0
 14 49  1  0
 18 50  1  0
 21 51  1  0
 22 52  1  0
 25 53  1  0
 25 54  1  0
 26 55  1  0
 27 56  1  0
 28 57  1  0
 28 58  1  0
 28 59  1  0
 29 60  1  0
 29 61  1  0
 29 62  1  0
 30 63  1  0
 33 64  1  0
 33 65  1  0
 34 66  1  0
 35 67  1  0
M  END
$$$$
