
     RDKit          3D

 77 81  0  0  0  0  0  0  0  0999 V2000
    1.2404   -1.0044   -1.7189 O   0  0  0  0  0  0  0  0  0  0  0  0
    1.5057   -0.4566   -0.6139 C   0  0  0  0  0  0  0  0  0  0  0  0
    0.6009    0.6415   -0.1104 C   0  0  0  0  0  0  0  0  0  0  0  0
   -0.7582    0.5255   -0.6852 N   0  0  0  0  0  0  0  0  0  0  0  0
   -1.5171   -0.5942   -0.0641 C   0  0  0  0  0  0  0  0  0  0  0  0
   -2.1435   -1.4709   -1.1606 C   0  0  0  0  0  0  0  0  0  0  0  0
   -2.7063   -2.8043   -0.6298 C   0  0  0  0  0  0  0  0  0  0  0  0
   -3.9573   -2.6474    0.2521 C   0  0  0  0  0  0  0  0  0  0  0  0
   -5.2323   -2.3270   -0.5581 C   0  0  0  0  0  0  0  0  0  0  0  0
   -6.1814   -1.4264    0.2296 C   0  0  0  0  0  0  0  0  0  0  0  0
   -5.5884   -0.1363    0.3587 O   0  0  0  0  0  0  0  0  0  0  0  0
   -6.1065    0.9202    1.1184 C   0  0  0  0  0  0  0  0  0  0  0  0
   -7.3311    0.8200    1.8057 C   0  0  0  0  0  0  0  0  0  0  0  0
   -7.7767    1.8771    2.6051 C   0  0  0  0  0  0  0  0  0  0  0  0
   -7.0044    3.0337    2.7330 C   0  0  0  0  0  0  0  0  0  0  0  0
   -5.7952    3.1462    2.0435 C   0  0  0  0  0  0  0  0  0  0  0  0
   -5.3540    2.1067    1.2168 C   0  0  0  0  0  0  0  0  0  0  0  0
   -4.1451    2.2572    0.5255 O   0  0  0  0  0  0  0  0  0  0  0  0
   -4.0006    2.0089   -0.8468 C   0  0  0  0  0  0  0  0  0  0  0  0
   -5.1006    1.9641   -1.6521 N   0  0  0  0  0  0  0  0  0  0  0  0
   -5.0080    1.7575   -2.9912 C   0  0  0  0  0  0  0  0  0  0  0  0
   -3.7584    1.5998   -3.5880 C   0  0  0  0  0  0  0  0  0  0  0  0
   -2.6128    1.6440   -2.7943 C   0  0  0  0  0  0  0  0  0  0  0  0
   -2.7204    1.8333   -1.4078 C   0  0  0  0  0  0  0  0  0  0  0  0
   -1.4728    1.8175   -0.5585 C   0  0  0  0  0  0  0  0  0  0  0  0
    2.6948   -0.8528    0.1057 N   0  0  0  0  0  0  0  0  0  0  0  0
    3.2529   -2.1908   -0.1532 C   0  0  0  0  0  0  0  0  0  0  0  0
    4.5740   -2.4167    0.5911 C   0  0  0  0  0  0  0  0  0  0  0  0
    5.4640   -1.1740    0.4427 C   0  0  0  0  0  0  0  0  0  0  0  0
    6.8750   -1.4393    1.0095 C   0  0  0  0  0  0  0  0  0  0  0  0
    7.8114   -0.2896    0.7311 C   0  0  0  0  0  0  0  0  0  0  0  0
    8.1103    0.6474    1.7353 C   0  0  0  0  0  0  0  0  0  0  0  0
    8.9464    1.7335    1.4581 C   0  0  0  0  0  0  0  0  0  0  0  0
    9.4871    1.8937    0.1799 C   0  0  0  0  0  0  0  0  0  0  0  0
    9.1935    0.9679   -0.8242 C   0  0  0  0  0  0  0  0  0  0  0  0
    8.3570   -0.1189   -0.5522 C   0  0  0  0  0  0  0  0  0  0  0  0
    4.7975    0.0597    1.1042 C   0  0  0  0  0  0  0  0  0  0  0  0
    3.2588   -0.0195    1.1818 C   0  0  0  0  0  0  0  0  0  0  0  0
    1.0759    1.5995   -0.4148 H   0  0  0  0  0  0  0  0  0  0  0  0
    0.5479    0.6256    1.0021 H   0  0  0  0  0  0  0  0  0  0  0  0
   -2.3114   -0.2191    0.6179 H   0  0  0  0  0  0  0  0  0  0  0  0
   -0.8573   -1.2419    0.5576 H   0  0  0  0  0  0  0  0  0  0  0  0
   -1.3601   -1.7119   -1.9114 H   0  0  0  0  0  0  0  0  0  0  0  0
   -2.9355   -0.9054   -1.6895 H   0  0  0  0  0  0  0  0  0  0  0  0
   -2.9499   -3.4626   -1.4930 H   0  0  0  0  0  0  0  0  0  0  0  0
   -1.9155   -3.3236   -0.0446 H   0  0  0  0  0  0  0  0  0  0  0  0
   -4.1244   -3.6047    0.7913 H   0  0  0  0  0  0  0  0  0  0  0  0
   -3.7683   -1.8874    1.0371 H   0  0  0  0  0  0  0  0  0  0  0  0
   -4.9930   -1.8246   -1.5193 H   0  0  0  0  0  0  0  0  0  0  0  0
   -5.7529   -3.2766   -0.8096 H   0  0  0  0  0  0  0  0  0  0  0  0
   -7.1446   -1.3379   -0.3175 H   0  0  0  0  0  0  0  0  0  0  0  0
   -6.3700   -1.8677    1.2326 H   0  0  0  0  0  0  0  0  0  0  0  0
   -7.9399   -0.0715    1.7341 H   0  0  0  0  0  0  0  0  0  0  0  0
   -8.7181    1.7947    3.1342 H   0  0  0  0  0  0  0  0  0  0  0  0
   -7.3468    3.8458    3.3617 H   0  0  0  0  0  0  0  0  0  0  0  0
   -5.2078    4.0503    2.1361 H   0  0  0  0  0  0  0  0  0  0  0  0
   -5.9054    1.7249   -3.5948 H   0  0  0  0  0  0  0  0  0  0  0  0
   -3.6777    1.4403   -4.6553 H   0  0  0  0  0  0  0  0  0  0  0  0
   -1.6417    1.5100   -3.2553 H   0  0  0  0  0  0  0  0  0  0  0  0
   -0.8331    2.6495   -0.9280 H   0  0  0  0  0  0  0  0  0  0  0  0
   -1.6906    2.0368    0.5104 H   0  0  0  0  0  0  0  0  0  0  0  0
    2.5186   -2.9675    0.1512 H   0  0  0  0  0  0  0  0  0  0  0  0
    3.4465   -2.3008   -1.2427 H   0  0  0  0  0  0  0  0  0  0  0  0
    5.0784   -3.3094    0.1609 H   0  0  0  0  0  0  0  0  0  0  0  0
    4.3739   -2.6182    1.6667 H   0  0  0  0  0  0  0  0  0  0  0  0
    5.5682   -0.9701   -0.6483 H   0  0  0  0  0  0  0  0  0  0  0  0
    6.8134   -1.6360    2.1024 H   0  0  0  0  0  0  0  0  0  0  0  0
    7.2960   -2.3564    0.5423 H   0  0  0  0  0  0  0  0  0  0  0  0
    7.6933    0.5404    2.7292 H   0  0  0  0  0  0  0  0  0  0  0  0
    9.1716    2.4530    2.2337 H   0  0  0  0  0  0  0  0  0  0  0  0
   10.1312    2.7368   -0.0334 H   0  0  0  0  0  0  0  0  0  0  0  0
    9.6103    1.0946   -1.8151 H   0  0  0  0  0  0  0  0  0  0  0  0
    8.1300   -0.8245   -1.3413 H   0  0  0  0  0  0  0  0  0  0  0  0
    5.0866    0.9658    0.5262 H   0  0  0  0  0  0  0  0  0  0  0  0
    5.1785    0.2010    2.1404 H   0  0  0  0  0  0  0  0  0  0  0  0
    2.8670    1.0189    1.1446 H   0  0  0  0  0  0  0  0  0  0  0  0
    2.9587   -0.4564    2.1603 H   0  0  0  0  0  0  0  0  0  0  0  0
  1  2  2  0
  2  3  1  0
  3  4  1  0
  4  5  1  0
  5  6  1  0
  6  7  1  0
  7  8  1  0
  8  9  1  0
  9 10  1  0
 10 11  1  0
 11 12  1  0
 12 13  2  0
 13 14  1  0
 14 15  2  0
 15 16  1  0
 16 17  2  0
 17 18  1  0
 18 19  1  0
 19 20  2  0
 20 21  1  0
 21 22  2  0
 22 23  1  0
 23 24  2  0
 24 25  1  0
  2 26  1  0
 26 27  1  0
 27 28  1  0
 28 29  1  0
 29 30  1  0
 30 31  1  0
 31 32  2  0
 32 33  1  0
 33 34  2  0
 34 35  1  0
 35 36  2  0
 29 37  1  0
 37 38  1  0
 25  4  1  0
 38 26  1  0
 17 12  1  0
 24 19  1  0
 36 31  1  0
  3 39  1  0
  3 40  1  0
  5 41  1  0
  5 42  1  0
  6 43  1  0
  6 44  1  0
  7 45  1  0
  7 46  1  0
  8 47  1  0
  8 48  1  0
  9 49  1  0
  9 50  1  0
 10 51  1  0
 10 52  1  0
 13 53  1  0
 14 54  1  0
 15 55  1  0
 16 56  1  0
 21 57  1  0
 22 58  1  0
 23 59  1  0
 25 60  1  0
 25 61  1  0
 27 62  1  0
 27 63  1  0
 28 64  1  0
 28 65  1  0
 29 66  1  0
 30 67  1  0
 30 68  1  0
 32 69  1  0
 33 70  1  0
 34 71  1  0
 35 72  1  0
 36 73  1  0
 37 74  1  0
 37 75  1  0
 38 76  1  0
 38 77  1  0
M  END
$$$$
