
     RDKit          3D

 81 84  0  0  0  0  0  0  0  0999 V2000
    6.3929    2.3720    2.5637 C   0  0  0  0  0  0  0  0  0  0  0  0
    6.0588    0.8933    2.7282 C   0  0  0  0  0  0  0  0  0  0  0  0
    6.0391    0.2059    1.3992 C   0  0  0  0  0  0  0  0  0  0  0  0
    4.9137   -0.1272    0.6767 C   0  0  0  0  0  0  0  0  0  0  0  0
    5.4268   -0.7017   -0.4699 C   0  0  0  0  0  0  0  0  0  0  0  0
    4.6719   -1.2745   -1.5975 C   0  0  0  0  0  0  0  0  0  0  0  0
    5.2998   -1.8933   -2.4968 O   0  0  0  0  0  0  0  0  0  0  0  0
    3.2381   -1.1768   -1.6732 N   0  0  0  0  0  0  0  0  0  0  0  0
    2.4560   -2.3822   -1.9875 C   0  0  0  0  0  0  0  0  0  0  0  0
    2.4954   -3.3982   -0.8368 C   0  0  0  0  0  0  0  0  0  0  0  0
    1.9215   -2.8636    0.4865 C   0  0  0  0  0  0  0  0  0  0  0  0
    0.4144   -2.6023    0.4284 C   0  0  0  0  0  0  0  0  0  0  0  0
   -0.0459   -2.2939    1.7394 O   0  0  0  0  0  0  0  0  0  0  0  0
   -1.3704   -2.0665    2.1591 C   0  0  0  0  0  0  0  0  0  0  0  0
   -1.5866   -2.1130    3.5441 C   0  0  0  0  0  0  0  0  0  0  0  0
   -2.8491   -1.8785    4.0880 C   0  0  0  0  0  0  0  0  0  0  0  0
   -3.9248   -1.5897    3.2520 C   0  0  0  0  0  0  0  0  0  0  0  0
   -5.5092   -1.2794    3.9353 Cl  0  0  0  0  0  0  0  0  0  0  0  0
   -3.7369   -1.5351    1.8705 C   0  0  0  0  0  0  0  0  0  0  0  0
   -2.4713   -1.7657    1.3053 C   0  0  0  0  0  0  0  0  0  0  0  0
   -2.3697   -1.6201   -0.1578 C   0  0  0  0  0  0  0  0  0  0  0  0
   -2.2868   -2.6657   -0.8591 O   0  0  0  0  0  0  0  0  0  0  0  0
   -2.5142   -0.3297   -0.8002 N   0  0  0  0  0  0  0  0  0  0  0  0
   -2.9666   -0.3381   -2.1998 C   0  0  0  0  0  0  0  0  0  0  0  0
   -2.1858    0.9152   -0.0563 C   0  0  0  0  0  0  0  0  0  0  0  0
   -3.0657    2.1442   -0.3998 C   0  0  0  0  0  0  0  0  0  0  0  0
   -4.5275    1.8828   -0.1215 C   0  0  0  0  0  0  0  0  0  0  0  0
   -5.4494    1.7592   -1.1751 C   0  0  0  0  0  0  0  0  0  0  0  0
   -6.7969    1.4976   -0.9064 C   0  0  0  0  0  0  0  0  0  0  0  0
   -7.2349    1.3594    0.4132 C   0  0  0  0  0  0  0  0  0  0  0  0
   -6.3290    1.4939    1.4667 C   0  0  0  0  0  0  0  0  0  0  0  0
   -4.9820    1.7590    1.2034 C   0  0  0  0  0  0  0  0  0  0  0  0
   -0.6988    1.2099   -0.0815 C   0  0  0  0  0  0  0  0  0  0  0  0
    0.0051    0.7456    0.8573 O   0  0  0  0  0  0  0  0  0  0  0  0
   -0.0695    2.0709   -1.0544 N   0  0  0  0  0  0  0  0  0  0  0  0
    0.8176    3.1256   -0.5537 C   0  0  0  0  0  0  0  0  0  0  0  0
   -0.2042    1.8566   -2.5031 C   0  0  0  0  0  0  0  0  0  0  0  0
    0.4320    0.5333   -2.9570 C   0  0  0  0  0  0  0  0  0  0  0  0
    1.9742    0.5576   -2.9430 C   0  0  0  0  0  0  0  0  0  0  0  0
    2.5783    0.1361   -1.5878 C   0  0  0  0  0  0  0  0  0  0  0  0
    6.7394   -0.6911   -0.3966 O   0  0  0  0  0  0  0  0  0  0  0  0
    7.1450   -0.1468    0.7138 N   0  0  0  0  0  0  0  0  0  0  0  0
    7.3961    2.4916    2.1005 H   0  0  0  0  0  0  0  0  0  0  0  0
    6.3997    2.8636    3.5593 H   0  0  0  0  0  0  0  0  0  0  0  0
    5.6307    2.8718    1.9263 H   0  0  0  0  0  0  0  0  0  0  0  0
    6.8206    0.4124    3.3801 H   0  0  0  0  0  0  0  0  0  0  0  0
    5.0663    0.7928    3.2205 H   0  0  0  0  0  0  0  0  0  0  0  0
    3.8806    0.0206    0.9583 H   0  0  0  0  0  0  0  0  0  0  0  0
    2.8647   -2.8588   -2.9052 H   0  0  0  0  0  0  0  0  0  0  0  0
    1.4028   -2.1292   -2.2140 H   0  0  0  0  0  0  0  0  0  0  0  0
    3.5500   -3.7071   -0.6663 H   0  0  0  0  0  0  0  0  0  0  0  0
    1.9349   -4.3097   -1.1405 H   0  0  0  0  0  0  0  0  0  0  0  0
    2.4471   -1.9341    0.7872 H   0  0  0  0  0  0  0  0  0  0  0  0
    2.1176   -3.6223    1.2758 H   0  0  0  0  0  0  0  0  0  0  0  0
    0.2228   -1.7464   -0.2472 H   0  0  0  0  0  0  0  0  0  0  0  0
   -0.0994   -3.5162    0.0622 H   0  0  0  0  0  0  0  0  0  0  0  0
   -0.7608   -2.3347    4.2087 H   0  0  0  0  0  0  0  0  0  0  0  0
   -2.9869   -1.9202    5.1608 H   0  0  0  0  0  0  0  0  0  0  0  0
   -4.5788   -1.2949    1.2320 H   0  0  0  0  0  0  0  0  0  0  0  0
   -3.9509   -0.8484   -2.2665 H   0  0  0  0  0  0  0  0  0  0  0  0
   -3.0961    0.6697   -2.6228 H   0  0  0  0  0  0  0  0  0  0  0  0
   -2.2379   -0.8879   -2.8327 H   0  0  0  0  0  0  0  0  0  0  0  0
   -2.4122    0.7447    1.0161 H   0  0  0  0  0  0  0  0  0  0  0  0
   -2.7440    2.9953    0.2411 H   0  0  0  0  0  0  0  0  0  0  0  0
   -2.9195    2.4949   -1.4380 H   0  0  0  0  0  0  0  0  0  0  0  0
   -5.1303    1.8720   -2.2031 H   0  0  0  0  0  0  0  0  0  0  0  0
   -7.5020    1.4025   -1.7216 H   0  0  0  0  0  0  0  0  0  0  0  0
   -8.2779    1.1545    0.6187 H   0  0  0  0  0  0  0  0  0  0  0  0
   -6.6689    1.3921    2.4888 H   0  0  0  0  0  0  0  0  0  0  0  0
   -4.2938    1.8624    2.0322 H   0  0  0  0  0  0  0  0  0  0  0  0
    0.2470    3.8027    0.1155 H   0  0  0  0  0  0  0  0  0  0  0  0
    1.2467    3.7329   -1.3787 H   0  0  0  0  0  0  0  0  0  0  0  0
    1.6576    2.6742    0.0163 H   0  0  0  0  0  0  0  0  0  0  0  0
    0.2477    2.6952   -3.0762 H   0  0  0  0  0  0  0  0  0  0  0  0
   -1.2665    1.8673   -2.7892 H   0  0  0  0  0  0  0  0  0  0  0  0
    0.0380   -0.3061   -2.3497 H   0  0  0  0  0  0  0  0  0  0  0  0
    0.1031    0.3496   -4.0025 H   0  0  0  0  0  0  0  0  0  0  0  0
    2.3473   -0.1183   -3.7443 H   0  0  0  0  0  0  0  0  0  0  0  0
    2.3393    1.5730   -3.2145 H   0  0  0  0  0  0  0  0  0  0  0  0
    1.8139    0.0973   -0.7913 H   0  0  0  0  0  0  0  0  0  0  0  0
    3.3067    0.9161   -1.2815 H   0  0  0  0  0  0  0  0  0  0  0  0
  1  2  1  0
  2  3  1  0
  3  4  1  0
  4  5  2  0
  5  6  1  0
  6  7  2  0
  6  8  1  0
  8  9  1  0
  9 10  1  0
 10 11  1  0
 11 12  1  0
 12 13  1  0
 13 14  1  0
 14 15  2  0
 15 16  1  0
 16 17  2  0
 17 18  1  0
 17 19  1  0
 19 20  2  0
 20 21  1  0
 21 22  2  0
 21 23  1  0
 23 24  1  0
 23 25  1  0
 25 26  1  0
 26 27  1  0
 27 28  2  0
 28 29  1  0
 29 30  2  0
 30 31  1  0
 31 32  2  0
 25 33  1  0
 33 34  2  0
 33 35  1  0
 35 36  1  0
 35 37  1  0
 37 38  1  0
 38 39  1  0
 39 40  1  0
  5 41  1  0
 41 42  1  0
 42  3  2  0
 40  8  1  0
 20 14  1  0
 32 27  1  0
  1 43  1  0
  1 44  1  0
  1 45  1  0
  2 46  1  0
  2 47  1  0
  4 48  1  0
  9 49  1  0
  9 50  1  0
 10 51  1  0
 10 52  1  0
 11 53  1  0
 11 54  1  0
 12 55  1  0
 12 56  1  0
 15 57  1  0
 16 58  1  0
 19 59  1  0
 24 60  1  0
 24 61  1  0
 24 62  1  0
 25 63  1  0
 26 64  1  0
 26 65  1  0
 28 66  1  0
 29 67  1  0
 30 68  1  0
 31 69  1  0
 32 70  1  0
 36 71  1  0
 36 72  1  0
 36 73  1  0
 37 74  1  0
 37 75  1  0
 38 76  1  0
 38 77  1  0
 39 78  1  0
 39 79  1  0
 40 80  1  0
 40 81  1  0
M  END
$$$$
