
     RDKit          3D

 61 64  0  0  0  0  0  0  0  0999 V2000
   -0.5026   -3.4808    1.4405 C   0  0  0  0  0  0  0  0  0  0  0  0
   -0.5348   -2.0156    1.4575 N   0  0  0  0  0  0  0  0  0  0  0  0
   -1.6344   -1.3446    2.1691 C   0  0  0  0  0  0  0  0  0  0  0  0
   -2.9739   -1.5237    1.4362 C   0  0  0  0  0  0  0  0  0  0  0  0
   -3.5401   -0.2363    1.1730 O   0  0  0  0  0  0  0  0  0  0  0  0
   -4.5535   -0.0281    0.2309 C   0  0  0  0  0  0  0  0  0  0  0  0
   -5.7137   -0.8174    0.2395 C   0  0  0  0  0  0  0  0  0  0  0  0
   -6.7319   -0.5748   -0.6834 C   0  0  0  0  0  0  0  0  0  0  0  0
   -6.6036    0.4636   -1.6171 C   0  0  0  0  0  0  0  0  0  0  0  0
   -5.4444    1.2451   -1.6430 C   0  0  0  0  0  0  0  0  0  0  0  0
   -4.4093    1.0037   -0.7257 C   0  0  0  0  0  0  0  0  0  0  0  0
   -3.1005    1.7471   -0.8734 C   0  0  0  0  0  0  0  0  0  0  0  0
   -2.3034    1.2202   -2.0926 C   0  0  0  0  0  0  0  0  0  0  0  0
   -0.7990    1.0785   -1.7896 C   0  0  0  0  0  0  0  0  0  0  0  0
   -0.4825   -0.2005   -0.9680 C   0  0  0  0  0  0  0  0  0  0  0  0
    0.5455    0.0033    0.1771 C   0  0  0  0  0  0  0  0  0  0  0  0
    1.9237    0.3476   -0.4700 C   0  0  0  0  0  0  0  0  0  0  0  0
    2.8447    0.8544    0.5476 N   0  0  0  0  0  0  0  0  0  0  0  0
    4.1740    0.3236    0.7085 C   0  0  0  0  0  0  0  0  0  0  0  0
    4.5491   -0.0427    1.8596 O   0  0  0  0  0  0  0  0  0  0  0  0
    5.1221    0.2327   -0.4335 C   0  0  0  0  0  0  0  0  0  0  0  0
    6.2903   -0.5477   -0.3134 C   0  0  0  0  0  0  0  0  0  0  0  0
    7.2353   -0.5884   -1.3461 C   0  0  0  0  0  0  0  0  0  0  0  0
    7.0227    0.1459   -2.5163 C   0  0  0  0  0  0  0  0  0  0  0  0
    7.9544    0.1271   -3.5045 F   0  0  0  0  0  0  0  0  0  0  0  0
    5.8695    0.9257   -2.6493 C   0  0  0  0  0  0  0  0  0  0  0  0
    4.9210    0.9672   -1.6197 C   0  0  0  0  0  0  0  0  0  0  0  0
    2.3436    1.8880    1.4435 C   0  0  0  0  0  0  0  0  0  0  0  0
    0.9973    1.4437    2.0083 C   0  0  0  0  0  0  0  0  0  0  0  0
    0.0846    1.0872    0.9818 O   0  0  0  0  0  0  0  0  0  0  0  0
    0.6359   -1.3000    0.9956 C   0  0  0  0  0  0  0  0  0  0  0  0
    1.7731   -1.7856    1.2536 O   0  0  0  0  0  0  0  0  0  0  0  0
   -1.4318   -3.9111    1.8724 H   0  0  0  0  0  0  0  0  0  0  0  0
   -0.4039   -3.8416    0.3934 H   0  0  0  0  0  0  0  0  0  0  0  0
    0.3641   -3.8509    2.0293 H   0  0  0  0  0  0  0  0  0  0  0  0
   -1.4202   -0.2686    2.3109 H   0  0  0  0  0  0  0  0  0  0  0  0
   -1.7135   -1.7640    3.1939 H   0  0  0  0  0  0  0  0  0  0  0  0
   -2.8183   -2.0636    0.4741 H   0  0  0  0  0  0  0  0  0  0  0  0
   -3.6757   -2.1319    2.0549 H   0  0  0  0  0  0  0  0  0  0  0  0
   -5.8413   -1.6066    0.9688 H   0  0  0  0  0  0  0  0  0  0  0  0
   -7.6312   -1.1802   -0.6665 H   0  0  0  0  0  0  0  0  0  0  0  0
   -7.4000    0.6476   -2.3299 H   0  0  0  0  0  0  0  0  0  0  0  0
   -5.3356    2.0206   -2.3925 H   0  0  0  0  0  0  0  0  0  0  0  0
   -3.3046    2.8350   -1.0031 H   0  0  0  0  0  0  0  0  0  0  0  0
   -2.5008    1.6580    0.0609 H   0  0  0  0  0  0  0  0  0  0  0  0
   -2.4405    1.9326   -2.9365 H   0  0  0  0  0  0  0  0  0  0  0  0
   -2.6909    0.2395   -2.4445 H   0  0  0  0  0  0  0  0  0  0  0  0
   -0.4479    1.9994   -1.2791 H   0  0  0  0  0  0  0  0  0  0  0  0
   -0.2531    1.0203   -2.7547 H   0  0  0  0  0  0  0  0  0  0  0  0
   -0.1162   -0.9976   -1.6561 H   0  0  0  0  0  0  0  0  0  0  0  0
   -1.4202   -0.5852   -0.5388 H   0  0  0  0  0  0  0  0  0  0  0  0
    1.8037    1.1354   -1.2459 H   0  0  0  0  0  0  0  0  0  0  0  0
    2.3499   -0.5515   -0.9738 H   0  0  0  0  0  0  0  0  0  0  0  0
    6.4823   -1.1183    0.5875 H   0  0  0  0  0  0  0  0  0  0  0  0
    8.1460   -1.1674   -1.2203 H   0  0  0  0  0  0  0  0  0  0  0  0
    5.7193    1.5059   -3.5544 H   0  0  0  0  0  0  0  0  0  0  0  0
    4.0585    1.6084   -1.7392 H   0  0  0  0  0  0  0  0  0  0  0  0
    3.0519    2.0737    2.2803 H   0  0  0  0  0  0  0  0  0  0  0  0
    2.2196    2.8344    0.8741 H   0  0  0  0  0  0  0  0  0  0  0  0
    1.1278    0.6146    2.7374 H   0  0  0  0  0  0  0  0  0  0  0  0
    0.5633    2.2945    2.5705 H   0  0  0  0  0  0  0  0  0  0  0  0
  1  2  1  0
  2  3  1  0
  3  4  1  0
  4  5  1  0
  5  6  1  0
  6  7  2  0
  7  8  1  0
  8  9  2  0
  9 10  1  0
 10 11  2  0
 11 12  1  0
 12 13  1  0
 13 14  1  0
 14 15  1  0
 15 16  1  0
 16 17  1  0
 17 18  1  0
 18 19  1  0
 19 20  2  0
 19 21  1  0
 21 22  2  0
 22 23  1  0
 23 24  2  0
 24 25  1  0
 24 26  1  0
 26 27  2  0
 18 28  1  0
 28 29  1  0
 29 30  1  0
 16 31  1  0
 31 32  2  0
 31  2  1  0
 11  6  1  0
 30 16  1  0
 27 21  1  0
  1 33  1  0
  1 34  1  0
  1 35  1  0
  3 36  1  0
  3 37  1  0
  4 38  1  0
  4 39  1  0
  7 40  1  0
  8 41  1  0
  9 42  1  0
 10 43  1  0
 12 44  1  0
 12 45  1  0
 13 46  1  0
 13 47  1  0
 14 48  1  0
 14 49  1  0
 15 50  1  0
 15 51  1  0
 17 52  1  0
 17 53  1  0
 22 54  1  0
 23 55  1  0
 26 56  1  0
 27 57  1  0
 28 58  1  0
 28 59  1  0
 29 60  1  0
 29 61  1  0
M  END
$$$$
