
     RDKit          3D

 81 84  0  0  0  0  0  0  0  0999 V2000
   -3.0532    2.0272    4.3207 C   0  0  0  0  0  0  0  0  0  0  0  0
   -2.1271    2.0636    3.0913 C   0  0  0  0  0  0  0  0  0  0  0  0
   -1.3519    3.3930    3.0915 C   0  0  0  0  0  0  0  0  0  0  0  0
   -2.9344    1.8776    1.7676 C   0  0  0  0  0  0  0  0  0  0  0  0
   -2.1156    2.1485    0.5740 N   0  0  0  0  0  0  0  0  0  0  0  0
   -0.8810    1.5162    0.1824 C   0  0  0  0  0  0  0  0  0  0  0  0
   -0.1233    2.1267   -0.6185 O   0  0  0  0  0  0  0  0  0  0  0  0
   -0.4817    0.1266    0.5997 C   0  0  0  0  0  0  0  0  0  0  0  0
   -0.7826   -0.9107   -0.5171 C   0  0  0  0  0  0  0  0  0  0  0  0
    0.4755   -1.6398   -0.9135 C   0  0  0  0  0  0  0  0  0  0  0  0
    0.7453   -2.7594   -0.3973 O   0  0  0  0  0  0  0  0  0  0  0  0
    1.3977   -1.0259   -1.8255 N   0  0  0  0  0  0  0  0  0  0  0  0
    2.6221   -1.6885   -2.2738 C   0  0  0  0  0  0  0  0  0  0  0  0
    3.5496   -1.9707   -1.1195 C   0  0  0  0  0  0  0  0  0  0  0  0
    4.2107   -3.2049   -1.0368 C   0  0  0  0  0  0  0  0  0  0  0  0
    5.0841   -3.4685    0.0221 C   0  0  0  0  0  0  0  0  0  0  0  0
    5.3141   -2.4974    0.9985 C   0  0  0  0  0  0  0  0  0  0  0  0
    4.6762   -1.2492    0.9206 C   0  0  0  0  0  0  0  0  0  0  0  0
    4.9298   -0.1951    1.9670 C   0  0  0  0  0  0  0  0  0  0  0  0
    5.5291    0.9933    1.3595 N   0  0  0  0  0  0  0  0  0  0  0  0
    6.8809    1.0451    0.8277 C   0  0  0  0  0  0  0  0  0  0  0  0
    7.0364    2.4407    0.1917 C   0  0  0  0  0  0  0  0  0  0  0  0
    5.6667    3.1354    0.2608 C   0  0  0  0  0  0  0  0  0  0  0  0
    4.8332    2.1733    1.0057 C   0  0  0  0  0  0  0  0  0  0  0  0
    3.6220    2.3735    1.2903 O   0  0  0  0  0  0  0  0  0  0  0  0
    3.7972   -0.9903   -0.1434 C   0  0  0  0  0  0  0  0  0  0  0  0
   -1.7986   -1.8752   -0.0778 N   0  0  0  0  0  0  0  0  0  0  0  0
   -2.5005   -2.7244   -0.9981 C   0  0  0  0  0  0  0  0  0  0  0  0
   -2.8887   -3.8597   -0.6105 O   0  0  0  0  0  0  0  0  0  0  0  0
   -2.7786   -2.3112   -2.3878 C   0  0  0  0  0  0  0  0  0  0  0  0
   -2.4181   -3.1646   -3.4436 C   0  0  0  0  0  0  0  0  0  0  0  0
   -2.7292   -2.8307   -4.7619 C   0  0  0  0  0  0  0  0  0  0  0  0
   -3.4194   -1.6506   -5.0369 C   0  0  0  0  0  0  0  0  0  0  0  0
   -3.7944   -0.7980   -3.9943 C   0  0  0  0  0  0  0  0  0  0  0  0
   -3.4795   -1.1196   -2.6610 C   0  0  0  0  0  0  0  0  0  0  0  0
   -3.8603   -0.2901   -1.5946 O   0  0  0  0  0  0  0  0  0  0  0  0
   -4.9273    0.6532   -1.6574 C   0  0  0  0  0  0  0  0  0  0  0  0
   -5.1665    1.2961   -0.2853 C   0  0  0  0  0  0  0  0  0  0  0  0
   -4.8255    0.3722    0.8117 N   0  0  0  0  0  0  0  0  0  0  0  0
   -5.6460   -0.8288    0.9966 C   0  0  0  0  0  0  0  0  0  0  0  0
   -3.6547    0.5433    1.6475 C   0  0  0  0  0  0  0  0  0  0  0  0
   -3.2496   -0.4354    2.3328 O   0  0  0  0  0  0  0  0  0  0  0  0
   -2.4583    2.1355    5.2542 H   0  0  0  0  0  0  0  0  0  0  0  0
   -3.7961    2.8510    4.2705 H   0  0  0  0  0  0  0  0  0  0  0  0
   -3.5991    1.0636    4.3860 H   0  0  0  0  0  0  0  0  0  0  0  0
   -1.3864    1.2471    3.2064 H   0  0  0  0  0  0  0  0  0  0  0  0
   -2.0422    4.2493    2.9301 H   0  0  0  0  0  0  0  0  0  0  0  0
   -0.8259    3.5360    4.0602 H   0  0  0  0  0  0  0  0  0  0  0  0
   -0.5784    3.3966    2.2955 H   0  0  0  0  0  0  0  0  0  0  0  0
   -3.7320    2.6533    1.8066 H   0  0  0  0  0  0  0  0  0  0  0  0
   -2.3785    3.0005    0.0279 H   0  0  0  0  0  0  0  0  0  0  0  0
    0.6057    0.1521    0.8339 H   0  0  0  0  0  0  0  0  0  0  0  0
   -0.9556   -0.1588    1.5512 H   0  0  0  0  0  0  0  0  0  0  0  0
   -1.1539   -0.3853   -1.4235 H   0  0  0  0  0  0  0  0  0  0  0  0
    1.1800   -0.0774   -2.2058 H   0  0  0  0  0  0  0  0  0  0  0  0
    2.3504   -2.6295   -2.8007 H   0  0  0  0  0  0  0  0  0  0  0  0
    3.1494   -1.0369   -3.0045 H   0  0  0  0  0  0  0  0  0  0  0  0
    4.0483   -3.9670   -1.7893 H   0  0  0  0  0  0  0  0  0  0  0  0
    5.5822   -4.4274    0.0865 H   0  0  0  0  0  0  0  0  0  0  0  0
    5.9943   -2.7196    1.8131 H   0  0  0  0  0  0  0  0  0  0  0  0
    5.6148   -0.5787    2.7553 H   0  0  0  0  0  0  0  0  0  0  0  0
    3.9692    0.0648    2.4673 H   0  0  0  0  0  0  0  0  0  0  0  0
    7.6197    0.8977    1.6469 H   0  0  0  0  0  0  0  0  0  0  0  0
    7.0123    0.2566    0.0533 H   0  0  0  0  0  0  0  0  0  0  0  0
    7.3751    2.3512   -0.8655 H   0  0  0  0  0  0  0  0  0  0  0  0
    7.7909    3.0301    0.7565 H   0  0  0  0  0  0  0  0  0  0  0  0
    5.2501    3.2946   -0.7585 H   0  0  0  0  0  0  0  0  0  0  0  0
    5.7301    4.0985    0.8135 H   0  0  0  0  0  0  0  0  0  0  0  0
    3.3074   -0.0270   -0.2129 H   0  0  0  0  0  0  0  0  0  0  0  0
   -1.7681   -2.2004    0.9163 H   0  0  0  0  0  0  0  0  0  0  0  0
   -1.8909   -4.0885   -3.2444 H   0  0  0  0  0  0  0  0  0  0  0  0
   -2.4421   -3.4911   -5.5709 H   0  0  0  0  0  0  0  0  0  0  0  0
   -3.6721   -1.3989   -6.0598 H   0  0  0  0  0  0  0  0  0  0  0  0
   -4.3293    0.1085   -4.2357 H   0  0  0  0  0  0  0  0  0  0  0  0
   -4.6936    1.4519   -2.3955 H   0  0  0  0  0  0  0  0  0  0  0  0
   -5.8531    0.1294   -1.9819 H   0  0  0  0  0  0  0  0  0  0  0  0
   -6.2358    1.5929   -0.1980 H   0  0  0  0  0  0  0  0  0  0  0  0
   -4.5913    2.2380   -0.2290 H   0  0  0  0  0  0  0  0  0  0  0  0
   -6.5497   -0.8013    0.3503 H   0  0  0  0  0  0  0  0  0  0  0  0
   -5.0509   -1.7297    0.7376 H   0  0  0  0  0  0  0  0  0  0  0  0
   -5.9796   -0.8987    2.0516 H   0  0  0  0  0  0  0  0  0  0  0  0
  1  2  1  0
  2  3  1  0
  2  4  1  0
  4  5  1  0
  5  6  1  0
  6  7  2  0
  6  8  1  0
  8  9  1  0
  9 10  1  0
 10 11  2  0
 10 12  1  0
 12 13  1  0
 13 14  1  0
 14 15  2  0
 15 16  1  0
 16 17  2  0
 17 18  1  0
 18 19  1  0
 19 20  1  0
 20 21  1  0
 21 22  1  0
 22 23  1  0
 23 24  1  0
 24 25  2  0
 18 26  2  0
  9 27  1  0
 27 28  1  0
 28 29  2  0
 28 30  1  0
 30 31  2  0
 31 32  1  0
 32 33  2  0
 33 34  1  0
 34 35  2  0
 35 36  1  0
 36 37  1  0
 37 38  1  0
 38 39  1  0
 39 40  1  0
 39 41  1  0
 41 42  2  0
 41  4  1  0
 26 14  1  0
 35 30  1  0
 24 20  1  0
  1 43  1  0
  1 44  1  0
  1 45  1  0
  2 46  1  0
  3 47  1  0
  3 48  1  0
  3 49  1  0
  4 50  1  0
  5 51  1  0
  8 52  1  0
  8 53  1  0
  9 54  1  0
 12 55  1  0
 13 56  1  0
 13 57  1  0
 15 58  1  0
 16 59  1  0
 17 60  1  0
 19 61  1  0
 19 62  1  0
 21 63  1  0
 21 64  1  0
 22 65  1  0
 22 66  1  0
 23 67  1  0
 23 68  1  0
 26 69  1  0
 27 70  1  0
 31 71  1  0
 32 72  1  0
 33 73  1  0
 34 74  1  0
 37 75  1  0
 37 76  1  0
 38 77  1  0
 38 78  1  0
 40 79  1  0
 40 80  1  0
 40 81  1  0
M  END
$$$$
