
     RDKit          3D

 64 67  0  0  0  0  0  0  0  0999 V2000
    3.7146    0.6202    2.1138 C   0  0  0  0  0  0  0  0  0  0  0  0
    3.6288   -0.6275    1.3510 N   0  0  0  0  0  0  0  0  0  0  0  0
    3.0273   -1.8068    1.9908 C   0  0  0  0  0  0  0  0  0  0  0  0
    1.9863   -2.4779    1.0679 C   0  0  0  0  0  0  0  0  0  0  0  0
    0.5979   -2.6540    1.7138 C   0  0  0  0  0  0  0  0  0  0  0  0
   -0.1917   -1.3386    1.8727 C   0  0  0  0  0  0  0  0  0  0  0  0
   -0.2533   -0.5833    0.6063 N   0  0  0  0  0  0  0  0  0  0  0  0
   -1.2922   -1.2497   -0.6530 S   0  0  0  0  0  6  0  0  0  0  0  0
   -0.5984   -2.4380   -1.2570 O   0  0  0  0  0  0  0  0  0  0  0  0
   -1.4670   -0.2366   -1.7485 O   0  0  0  0  0  0  0  0  0  0  0  0
   -2.9044   -1.7918   -0.1354 C   0  0  0  0  0  0  0  0  0  0  0  0
   -3.0621   -2.8110    0.8196 C   0  0  0  0  0  0  0  0  0  0  0  0
   -4.3372   -3.2574    1.1788 C   0  0  0  0  0  0  0  0  0  0  0  0
   -5.4680   -2.7222    0.5596 C   0  0  0  0  0  0  0  0  0  0  0  0
   -5.3224   -1.7567   -0.4385 C   0  0  0  0  0  0  0  0  0  0  0  0
   -6.4175   -1.2644   -1.0690 F   0  0  0  0  0  0  0  0  0  0  0  0
   -4.0469   -1.3132   -0.8012 C   0  0  0  0  0  0  0  0  0  0  0  0
   -0.0786    0.8898    0.7181 C   0  0  0  0  0  0  0  0  0  0  0  0
   -1.3631    1.6877    1.0769 C   0  0  0  0  0  0  0  0  0  0  0  0
   -2.2883    2.0932   -0.0491 C   0  0  0  0  0  0  0  0  0  0  0  0
   -3.6316    1.6804   -0.0247 C   0  0  0  0  0  0  0  0  0  0  0  0
   -4.5286    2.1175   -1.0042 C   0  0  0  0  0  0  0  0  0  0  0  0
   -4.1023    2.9951   -2.0022 C   0  0  0  0  0  0  0  0  0  0  0  0
   -2.7862    3.4607   -2.0036 C   0  0  0  0  0  0  0  0  0  0  0  0
   -1.8905    3.0335   -1.0191 C   0  0  0  0  0  0  0  0  0  0  0  0
    0.7973    1.4358   -0.4180 C   0  0  0  0  0  0  0  0  0  0  0  0
    2.0050    0.6822   -0.4354 O   0  0  0  0  0  0  0  0  0  0  0  0
    3.1413    0.9659   -1.2016 C   0  0  0  0  0  0  0  0  0  0  0  0
    3.1213    1.9350   -2.2217 C   0  0  0  0  0  0  0  0  0  0  0  0
    4.2602    2.1644   -2.9967 C   0  0  0  0  0  0  0  0  0  0  0  0
    5.4272    1.4373   -2.7587 C   0  0  0  0  0  0  0  0  0  0  0  0
    5.4622    0.4791   -1.7433 C   0  0  0  0  0  0  0  0  0  0  0  0
    4.3289    0.2428   -0.9465 C   0  0  0  0  0  0  0  0  0  0  0  0
    4.3928   -0.7742    0.1362 C   0  0  0  0  0  0  0  0  0  0  0  0
    5.1316   -1.7864   -0.0107 O   0  0  0  0  0  0  0  0  0  0  0  0
    4.0522    1.4643    1.4777 H   0  0  0  0  0  0  0  0  0  0  0  0
    4.4398    0.4968    2.9443 H   0  0  0  0  0  0  0  0  0  0  0  0
    2.7228    0.8779    2.5368 H   0  0  0  0  0  0  0  0  0  0  0  0
    2.5702   -1.5264    2.9647 H   0  0  0  0  0  0  0  0  0  0  0  0
    3.8313   -2.5367    2.2305 H   0  0  0  0  0  0  0  0  0  0  0  0
    2.3650   -3.4890    0.7997 H   0  0  0  0  0  0  0  0  0  0  0  0
    1.8851   -1.9317    0.1071 H   0  0  0  0  0  0  0  0  0  0  0  0
    0.7090   -3.1361    2.7093 H   0  0  0  0  0  0  0  0  0  0  0  0
    0.0211   -3.3601    1.0847 H   0  0  0  0  0  0  0  0  0  0  0  0
   -1.2107   -1.5270    2.2586 H   0  0  0  0  0  0  0  0  0  0  0  0
    0.3125   -0.7546    2.6711 H   0  0  0  0  0  0  0  0  0  0  0  0
   -2.2112   -3.2886    1.2740 H   0  0  0  0  0  0  0  0  0  0  0  0
   -4.4463   -4.0336    1.9262 H   0  0  0  0  0  0  0  0  0  0  0  0
   -6.4545   -3.0721    0.8368 H   0  0  0  0  0  0  0  0  0  0  0  0
   -3.9548   -0.6016   -1.6092 H   0  0  0  0  0  0  0  0  0  0  0  0
    0.5709    1.0784    1.6013 H   0  0  0  0  0  0  0  0  0  0  0  0
   -1.0589    2.6253    1.5915 H   0  0  0  0  0  0  0  0  0  0  0  0
   -1.9210    1.1038    1.8405 H   0  0  0  0  0  0  0  0  0  0  0  0
   -3.9896    1.0208    0.7566 H   0  0  0  0  0  0  0  0  0  0  0  0
   -5.5557    1.7765   -0.9864 H   0  0  0  0  0  0  0  0  0  0  0  0
   -4.7979    3.3321   -2.7594 H   0  0  0  0  0  0  0  0  0  0  0  0
   -2.4646    4.1708   -2.7550 H   0  0  0  0  0  0  0  0  0  0  0  0
   -0.9011    3.4646   -1.0029 H   0  0  0  0  0  0  0  0  0  0  0  0
    1.0418    2.5001   -0.2101 H   0  0  0  0  0  0  0  0  0  0  0  0
    0.3012    1.3593   -1.4036 H   0  0  0  0  0  0  0  0  0  0  0  0
    2.2257    2.5028   -2.4330 H   0  0  0  0  0  0  0  0  0  0  0  0
    4.2382    2.9063   -3.7847 H   0  0  0  0  0  0  0  0  0  0  0  0
    6.3069    1.6159   -3.3633 H   0  0  0  0  0  0  0  0  0  0  0  0
    6.3804   -0.0689   -1.5714 H   0  0  0  0  0  0  0  0  0  0  0  0
  1  2  1  0
  2  3  1  0
  3  4  1  0
  4  5  1  0
  5  6  1  0
  6  7  1  0
  7  8  1  0
  8  9  2  0
  8 10  2  0
  8 11  1  0
 11 12  2  0
 12 13  1  0
 13 14  2  0
 14 15  1  0
 15 16  1  0
 15 17  2  0
  7 18  1  0
 18 19  1  0
 19 20  1  0
 20 21  2  0
 21 22  1  0
 22 23  2  0
 23 24  1  0
 24 25  2  0
 18 26  1  0
 26 27  1  0
 27 28  1  0
 28 29  2  0
 29 30  1  0
 30 31  2  0
 31 32  1  0
 32 33  2  0
 33 34  1  0
 34 35  2  0
 34  2  1  0
 17 11  1  0
 25 20  1  0
 33 28  1  0
  1 36  1  0
  1 37  1  0
  1 38  1  0
  3 39  1  0
  3 40  1  0
  4 41  1  0
  4 42  1  0
  5 43  1  0
  5 44  1  0
  6 45  1  0
  6 46  1  0
 12 47  1  0
 13 48  1  0
 14 49  1  0
 17 50  1  0
 18 51  1  0
 19 52  1  0
 19 53  1  0
 21 54  1  0
 22 55  1  0
 23 56  1  0
 24 57  1  0
 25 58  1  0
 26 59  1  0
 26 60  1  0
 29 61  1  0
 30 62  1  0
 31 63  1  0
 32 64  1  0
M  END
$$$$
