
     RDKit          3D

 84 87  0  0  0  0  0  0  0  0999 V2000
   -5.5104    1.7234    5.4301 C   0  0  0  0  0  0  0  0  0  0  0  0
   -5.4868    0.7552    4.2959 C   0  0  0  0  0  0  0  0  0  0  0  0
   -5.1338   -0.5861    4.3848 C   0  0  0  0  0  0  0  0  0  0  0  0
   -5.2649   -1.2720    3.1713 C   0  0  0  0  0  0  0  0  0  0  0  0
   -5.7423   -0.4718    2.1392 C   0  0  0  0  0  0  0  0  0  0  0  0
   -5.9369   -0.8944    0.7164 C   0  0  0  0  0  0  0  0  0  0  0  0
   -4.8099   -0.4317   -0.1079 N   0  0  0  0  0  0  0  0  0  0  0  0
   -5.0217    0.7055   -1.0233 C   0  0  0  0  0  0  0  0  0  0  0  0
   -5.6247    0.2734   -2.3748 C   0  0  0  0  0  0  0  0  0  0  0  0
   -4.7469   -0.6756   -3.1732 C   0  0  0  0  0  0  0  0  0  0  0  0
   -5.7495   -1.3898   -4.0237 C   0  0  0  0  0  0  0  0  0  0  0  0
   -7.0186   -1.3244   -3.1905 C   0  0  0  0  0  0  0  0  0  0  0  0
   -6.8835   -0.3326   -2.1956 O   0  0  0  0  0  0  0  0  0  0  0  0
   -3.5206   -1.0781    0.0339 C   0  0  0  0  0  0  0  0  0  0  0  0
   -3.4476   -2.1795    0.6470 O   0  0  0  0  0  0  0  0  0  0  0  0
   -2.2547   -0.4457   -0.5014 C   0  0  0  0  0  0  0  0  0  0  0  0
   -1.0193   -1.3409   -0.3317 C   0  0  0  0  0  0  0  0  0  0  0  0
    0.1974   -0.6835   -0.9268 C   0  0  0  0  0  0  0  0  0  0  0  0
    0.4934   -0.8490   -2.2835 C   0  0  0  0  0  0  0  0  0  0  0  0
    1.5938   -0.2046   -2.8444 C   0  0  0  0  0  0  0  0  0  0  0  0
    2.4338    0.5972   -2.0618 C   0  0  0  0  0  0  0  0  0  0  0  0
    2.1467    0.7808   -0.6816 C   0  0  0  0  0  0  0  0  0  0  0  0
    1.0017    0.1564   -0.1454 C   0  0  0  0  0  0  0  0  0  0  0  0
    2.9170    1.7474    0.2066 C   0  0  0  0  0  0  0  0  0  0  0  0
    4.0292    1.1157    0.9779 N   0  0  0  0  0  0  0  0  0  0  0  0
    4.9021    2.1331    1.6539 C   0  0  0  0  0  0  0  0  0  0  0  0
    4.1285    3.2354    2.4099 C   0  0  0  0  0  0  0  0  0  0  0  0
    5.9041    2.7581    0.6737 C   0  0  0  0  0  0  0  0  0  0  0  0
    3.5261    0.0969    1.9399 C   0  0  0  0  0  0  0  0  0  0  0  0
    4.6313   -0.7200    2.5791 C   0  0  0  0  0  0  0  0  0  0  0  0
    4.9896   -0.4266    3.7513 O   0  0  0  0  0  0  0  0  0  0  0  0
    5.2682   -1.8342    1.9245 N   0  0  0  0  0  0  0  0  0  0  0  0
    4.9329   -2.3263    0.5884 C   0  0  0  0  0  0  0  0  0  0  0  0
    5.6324   -1.4830   -0.4851 C   0  0  0  0  0  0  0  0  0  0  0  0
    4.8957   -1.5621   -1.8331 C   0  0  0  0  0  0  0  0  0  0  0  0
    5.3211   -0.4604   -2.8222 C   0  0  0  0  0  0  0  0  0  0  0  0
    4.8811    0.9652   -2.4307 C   0  0  0  0  0  0  0  0  0  0  0  0
    3.5060    1.2173   -2.7129 O   0  0  0  0  0  0  0  0  0  0  0  0
   -5.9864    1.0879    2.7238 S   0  0  0  0  0  0  0  0  0  0  0  0
   -4.6201    1.5720    6.0763 H   0  0  0  0  0  0  0  0  0  0  0  0
   -5.4977    2.7639    5.0434 H   0  0  0  0  0  0  0  0  0  0  0  0
   -6.4311    1.5686    6.0298 H   0  0  0  0  0  0  0  0  0  0  0  0
   -4.7916   -1.0563    5.2979 H   0  0  0  0  0  0  0  0  0  0  0  0
   -5.0191   -2.3199    3.0536 H   0  0  0  0  0  0  0  0  0  0  0  0
   -6.8953   -0.4611    0.3592 H   0  0  0  0  0  0  0  0  0  0  0  0
   -6.0368   -1.9994    0.6440 H   0  0  0  0  0  0  0  0  0  0  0  0
   -5.7176    1.4323   -0.5487 H   0  0  0  0  0  0  0  0  0  0  0  0
   -4.0847    1.2733   -1.1936 H   0  0  0  0  0  0  0  0  0  0  0  0
   -5.7764    1.1967   -2.9803 H   0  0  0  0  0  0  0  0  0  0  0  0
   -3.9947   -0.1315   -3.7847 H   0  0  0  0  0  0  0  0  0  0  0  0
   -4.2453   -1.4211   -2.5232 H   0  0  0  0  0  0  0  0  0  0  0  0
   -5.4429   -2.4385   -4.2318 H   0  0  0  0  0  0  0  0  0  0  0  0
   -5.8938   -0.8438   -4.9826 H   0  0  0  0  0  0  0  0  0  0  0  0
   -7.8930   -1.0897   -3.8353 H   0  0  0  0  0  0  0  0  0  0  0  0
   -7.1970   -2.3042   -2.6958 H   0  0  0  0  0  0  0  0  0  0  0  0
   -2.0855    0.5134    0.0351 H   0  0  0  0  0  0  0  0  0  0  0  0
   -2.3804   -0.2279   -1.5827 H   0  0  0  0  0  0  0  0  0  0  0  0
   -1.1945   -2.3193   -0.8321 H   0  0  0  0  0  0  0  0  0  0  0  0
   -0.8470   -1.5438    0.7489 H   0  0  0  0  0  0  0  0  0  0  0  0
   -0.1355   -1.4687   -2.9104 H   0  0  0  0  0  0  0  0  0  0  0  0
    1.8049   -0.3364   -3.8982 H   0  0  0  0  0  0  0  0  0  0  0  0
    0.7287    0.3304    0.8894 H   0  0  0  0  0  0  0  0  0  0  0  0
    3.3025    2.5658   -0.4347 H   0  0  0  0  0  0  0  0  0  0  0  0
    2.1943    2.2283    0.9024 H   0  0  0  0  0  0  0  0  0  0  0  0
    5.5448    1.6373    2.4104 H   0  0  0  0  0  0  0  0  0  0  0  0
    3.6273    3.9334    1.7059 H   0  0  0  0  0  0  0  0  0  0  0  0
    3.3740    2.7946    3.0921 H   0  0  0  0  0  0  0  0  0  0  0  0
    4.8335    3.8308    3.0294 H   0  0  0  0  0  0  0  0  0  0  0  0
    6.5743    3.4616    1.2128 H   0  0  0  0  0  0  0  0  0  0  0  0
    5.3960    3.3217   -0.1351 H   0  0  0  0  0  0  0  0  0  0  0  0
    6.5443    1.9667    0.2304 H   0  0  0  0  0  0  0  0  0  0  0  0
    2.8561   -0.6229    1.4415 H   0  0  0  0  0  0  0  0  0  0  0  0
    2.9144    0.5794    2.7334 H   0  0  0  0  0  0  0  0  0  0  0  0
    5.9872   -2.3669    2.4655 H   0  0  0  0  0  0  0  0  0  0  0  0
    3.8313   -2.3464    0.4581 H   0  0  0  0  0  0  0  0  0  0  0  0
    5.2790   -3.3783    0.4896 H   0  0  0  0  0  0  0  0  0  0  0  0
    5.7039   -0.4416   -0.1313 H   0  0  0  0  0  0  0  0  0  0  0  0
    6.6772   -1.8413   -0.6135 H   0  0  0  0  0  0  0  0  0  0  0  0
    3.8013   -1.5321   -1.6822 H   0  0  0  0  0  0  0  0  0  0  0  0
    5.1190   -2.5501   -2.2917 H   0  0  0  0  0  0  0  0  0  0  0  0
    6.4287   -0.4792   -2.9173 H   0  0  0  0  0  0  0  0  0  0  0  0
    4.9033   -0.6969   -3.8245 H   0  0  0  0  0  0  0  0  0  0  0  0
    5.1014    1.1907   -1.3838 H   0  0  0  0  0  0  0  0  0  0  0  0
    5.4791    1.6802   -3.0337 H   0  0  0  0  0  0  0  0  0  0  0  0
  1  2  1  0
  2  3  2  0
  3  4  1  0
  4  5  2  0
  5  6  1  0
  6  7  1  0
  7  8  1  0
  8  9  1  0
  9 10  1  0
 10 11  1  0
 11 12  1  0
 12 13  1  0
  7 14  1  0
 14 15  2  0
 14 16  1  0
 16 17  1  0
 17 18  1  0
 18 19  2  0
 19 20  1  0
 20 21  2  0
 21 22  1  0
 22 23  2  0
 22 24  1  0
 24 25  1  0
 25 26  1  0
 26 27  1  0
 26 28  1  0
 25 29  1  0
 29 30  1  0
 30 31  2  0
 30 32  1  0
 32 33  1  0
 33 34  1  0
 34 35  1  0
 35 36  1  0
 36 37  1  0
 37 38  1  0
  5 39  1  0
 39  2  1  0
 13  9  1  0
 23 18  1  0
 38 21  1  0
  1 40  1  0
  1 41  1  0
  1 42  1  0
  3 43  1  0
  4 44  1  0
  6 45  1  0
  6 46  1  0
  8 47  1  0
  8 48  1  0
  9 49  1  0
 10 50  1  0
 10 51  1  0
 11 52  1  0
 11 53  1  0
 12 54  1  0
 12 55  1  0
 16 56  1  0
 16 57  1  0
 17 58  1  0
 17 59  1  0
 19 60  1  0
 20 61  1  0
 23 62  1  0
 24 63  1  0
 24 64  1  0
 26 65  1  0
 27 66  1  0
 27 67  1  0
 27 68  1  0
 28 69  1  0
 28 70  1  0
 28 71  1  0
 29 72  1  0
 29 73  1  0
 32 74  1  0
 33 75  1  0
 33 76  1  0
 34 77  1  0
 34 78  1  0
 35 79  1  0
 35 80  1  0
 36 81  1  0
 36 82  1  0
 37 83  1  0
 37 84  1  0
M  END
$$$$
