
     RDKit          3D

 73 77  0  0  0  0  0  0  0  0999 V2000
   -4.4767   -3.6232   -1.6847 C   0  0  0  0  0  0  0  0  0  0  0  0
   -3.1888   -3.3007   -0.9287 C   0  0  0  0  0  0  0  0  0  0  0  0
   -3.3749   -2.2821    0.1288 N   0  0  0  0  0  0  0  0  0  0  0  0
   -4.4863   -2.4542    1.0929 C   0  0  0  0  0  0  0  0  0  0  0  0
   -5.7855   -1.7514    0.6494 C   0  0  0  0  0  0  0  0  0  0  0  0
   -5.5429   -0.4902    0.0264 O   0  0  0  0  0  0  0  0  0  0  0  0
   -5.1438    0.6894    0.6748 C   0  0  0  0  0  0  0  0  0  0  0  0
   -5.2481    0.8444    2.0724 C   0  0  0  0  0  0  0  0  0  0  0  0
   -4.7991    2.0123    2.6893 C   0  0  0  0  0  0  0  0  0  0  0  0
   -4.2497    3.0397    1.9252 C   0  0  0  0  0  0  0  0  0  0  0  0
   -4.1558    2.9089    0.5390 C   0  0  0  0  0  0  0  0  0  0  0  0
   -4.6063    1.7417   -0.0999 C   0  0  0  0  0  0  0  0  0  0  0  0
   -4.4816    1.6234   -1.6060 C   0  0  0  0  0  0  0  0  0  0  0  0
   -3.4695    0.5520   -2.0462 C   0  0  0  0  0  0  0  0  0  0  0  0
   -2.0338    0.8337   -1.5677 C   0  0  0  0  0  0  0  0  0  0  0  0
   -1.1515   -0.4359   -1.6382 C   0  0  0  0  0  0  0  0  0  0  0  0
   -0.9789   -1.2203   -0.2809 C   0  0  0  0  0  0  0  0  0  0  0  0
    0.0537   -0.4858    0.6256 C   0  0  0  0  0  0  0  0  0  0  0  0
    1.4010   -0.5858    0.0531 N   0  0  0  0  0  0  0  0  0  0  0  0
    2.3111    0.5360    0.1570 C   0  0  0  0  0  0  0  0  0  0  0  0
    1.8514    1.7087    0.1017 O   0  0  0  0  0  0  0  0  0  0  0  0
    3.7732    0.3513    0.3212 C   0  0  0  0  0  0  0  0  0  0  0  0
    4.3647   -0.8273    0.6054 N   0  0  0  0  0  0  0  0  0  0  0  0
    5.6714   -0.6109    0.6600 N   0  0  0  0  0  0  0  0  0  0  0  0
    5.9426    0.6644    0.4296 N   0  0  0  0  0  0  0  0  0  0  0  0
    7.2818    1.1815    0.3784 C   0  0  0  0  0  0  0  0  0  0  0  0
    7.6802    2.0430   -0.6589 C   0  0  0  0  0  0  0  0  0  0  0  0
    8.9944    2.5223   -0.7153 C   0  0  0  0  0  0  0  0  0  0  0  0
    9.9261    2.1207    0.2471 C   0  0  0  0  0  0  0  0  0  0  0  0
    9.5469    1.2382    1.2644 C   0  0  0  0  0  0  0  0  0  0  0  0
    8.2319    0.7629    1.3269 C   0  0  0  0  0  0  0  0  0  0  0  0
    4.7720    1.3097    0.2254 C   0  0  0  0  0  0  0  0  0  0  0  0
    4.5841    2.7965    0.1024 C   0  0  0  0  0  0  0  0  0  0  0  0
    1.8465   -1.9089   -0.3900 C   0  0  0  0  0  0  0  0  0  0  0  0
    0.7305   -2.6213   -1.1579 C   0  0  0  0  0  0  0  0  0  0  0  0
   -0.5102   -2.5533   -0.4786 O   0  0  0  0  0  0  0  0  0  0  0  0
   -2.3288   -1.3130    0.4541 C   0  0  0  0  0  0  0  0  0  0  0  0
   -2.5491   -0.4748    1.3762 O   0  0  0  0  0  0  0  0  0  0  0  0
   -5.1749   -4.2070   -1.0491 H   0  0  0  0  0  0  0  0  0  0  0  0
   -4.9670   -2.6873   -2.0310 H   0  0  0  0  0  0  0  0  0  0  0  0
   -4.2376   -4.2413   -2.5761 H   0  0  0  0  0  0  0  0  0  0  0  0
   -2.7834   -4.2311   -0.4765 H   0  0  0  0  0  0  0  0  0  0  0  0
   -2.4849   -2.9532   -1.7041 H   0  0  0  0  0  0  0  0  0  0  0  0
   -4.6911   -3.5373    1.2388 H   0  0  0  0  0  0  0  0  0  0  0  0
   -4.1975   -2.0831    2.0991 H   0  0  0  0  0  0  0  0  0  0  0  0
   -6.4779   -1.6372    1.5075 H   0  0  0  0  0  0  0  0  0  0  0  0
   -6.3208   -2.3894   -0.0800 H   0  0  0  0  0  0  0  0  0  0  0  0
   -5.6626    0.0666    2.6965 H   0  0  0  0  0  0  0  0  0  0  0  0
   -4.8777    2.1203    3.7636 H   0  0  0  0  0  0  0  0  0  0  0  0
   -3.8992    3.9388    2.4099 H   0  0  0  0  0  0  0  0  0  0  0  0
   -3.7217    3.7162   -0.0362 H   0  0  0  0  0  0  0  0  0  0  0  0
   -4.1953    2.6025   -2.0615 H   0  0  0  0  0  0  0  0  0  0  0  0
   -5.4788    1.3605   -2.0245 H   0  0  0  0  0  0  0  0  0  0  0  0
   -3.4711    0.5022   -3.1579 H   0  0  0  0  0  0  0  0  0  0  0  0
   -3.8078   -0.4404   -1.7013 H   0  0  0  0  0  0  0  0  0  0  0  0
   -2.0226    1.2548   -0.5435 H   0  0  0  0  0  0  0  0  0  0  0  0
   -1.6068    1.6159   -2.2303 H   0  0  0  0  0  0  0  0  0  0  0  0
   -1.5280   -1.1061   -2.4402 H   0  0  0  0  0  0  0  0  0  0  0  0
   -0.1512   -0.1047   -1.9952 H   0  0  0  0  0  0  0  0  0  0  0  0
   -0.2391    0.5745    0.7693 H   0  0  0  0  0  0  0  0  0  0  0  0
    0.0713   -0.9624    1.6300 H   0  0  0  0  0  0  0  0  0  0  0  0
    6.9796    2.3272   -1.4322 H   0  0  0  0  0  0  0  0  0  0  0  0
    9.2954    3.1838   -1.5154 H   0  0  0  0  0  0  0  0  0  0  0  0
   10.9434    2.4819    0.1988 H   0  0  0  0  0  0  0  0  0  0  0  0
   10.2709    0.9217    2.0048 H   0  0  0  0  0  0  0  0  0  0  0  0
    7.9443    0.0978    2.1298 H   0  0  0  0  0  0  0  0  0  0  0  0
    5.5383    3.3451    0.2254 H   0  0  0  0  0  0  0  0  0  0  0  0
    3.9039    3.1482    0.9065 H   0  0  0  0  0  0  0  0  0  0  0  0
    4.1436    3.0448   -0.8880 H   0  0  0  0  0  0  0  0  0  0  0  0
    2.1317   -2.5148    0.4967 H   0  0  0  0  0  0  0  0  0  0  0  0
    2.7150   -1.8213   -1.0789 H   0  0  0  0  0  0  0  0  0  0  0  0
    1.0080   -3.6925   -1.2545 H   0  0  0  0  0  0  0  0  0  0  0  0
    0.6496   -2.2353   -2.1956 H   0  0  0  0  0  0  0  0  0  0  0  0
  1  2  1  0
  2  3  1  0
  3  4  1  0
  4  5  1  0
  5  6  1  0
  6  7  1  0
  7  8  2  0
  8  9  1  0
  9 10  2  0
 10 11  1  0
 11 12  2  0
 12 13  1  0
 13 14  1  0
 14 15  1  0
 15 16  1  0
 16 17  1  0
 17 18  1  0
 18 19  1  0
 19 20  1  0
 20 21  2  0
 20 22  1  0
 22 23  1  0
 23 24  2  0
 24 25  1  0
 25 26  1  0
 26 27  2  0
 27 28  1  0
 28 29  2  0
 29 30  1  0
 30 31  2  0
 25 32  1  0
 32 33  1  0
 19 34  1  0
 34 35  1  0
 35 36  1  0
 17 37  1  0
 37 38  2  0
 37  3  1  0
 12  7  1  0
 36 17  1  0
 32 22  2  0
 31 26  1  0
  1 39  1  0
  1 40  1  0
  1 41  1  0
  2 42  1  0
  2 43  1  0
  4 44  1  0
  4 45  1  0
  5 46  1  0
  5 47  1  0
  8 48  1  0
  9 49  1  0
 10 50  1  0
 11 51  1  0
 13 52  1  0
 13 53  1  0
 14 54  1  0
 14 55  1  0
 15 56  1  0
 15 57  1  0
 16 58  1  0
 16 59  1  0
 18 60  1  0
 18 61  1  0
 27 62  1  0
 28 63  1  0
 29 64  1  0
 30 65  1  0
 31 66  1  0
 33 67  1  0
 33 68  1  0
 33 69  1  0
 34 70  1  0
 34 71  1  0
 35 72  1  0
 35 73  1  0
M  END
$$$$
