
     RDKit          3D

 65 68  0  0  0  0  0  0  0  0999 V2000
    1.0857    0.4353    3.5301 C   0  0  0  0  0  0  0  0  0  0  0  0
   -0.1246    0.4020    2.6977 N   0  0  0  0  0  0  0  0  0  0  0  0
   -0.3425    1.4866    1.7137 C   0  0  0  0  0  0  0  0  0  0  0  0
   -0.0246    1.1104    0.1965 C   0  0  0  0  0  0  0  0  0  0  0  0
    0.9391    2.1999   -0.4104 C   0  0  0  0  0  0  0  0  0  0  0  0
    1.9077    1.6675   -1.4800 C   0  0  0  0  0  0  0  0  0  0  0  0
    2.6787    0.5253   -0.9682 N   0  0  0  0  0  0  0  0  0  0  0  0
    3.9291    0.1728   -1.5878 C   0  0  0  0  0  0  0  0  0  0  0  0
    4.1783    0.5402   -2.7688 O   0  0  0  0  0  0  0  0  0  0  0  0
    4.9651   -0.5463   -0.8366 C   0  0  0  0  0  0  0  0  0  0  0  0
    5.1905   -1.9140   -1.0646 C   0  0  0  0  0  0  0  0  0  0  0  0
    6.1702   -2.5910   -0.3301 C   0  0  0  0  0  0  0  0  0  0  0  0
    6.9300   -1.9051    0.6263 C   0  0  0  0  0  0  0  0  0  0  0  0
    7.8941   -2.5570    1.3221 F   0  0  0  0  0  0  0  0  0  0  0  0
    6.7047   -0.5421    0.8557 C   0  0  0  0  0  0  0  0  0  0  0  0
    5.7140    0.1327    0.1359 C   0  0  0  0  0  0  0  0  0  0  0  0
    2.1614   -0.2506    0.1672 C   0  0  0  0  0  0  0  0  0  0  0  0
    0.6352   -0.3164    0.0788 C   0  0  0  0  0  0  0  0  0  0  0  0
   -1.3960    1.1866   -0.5595 C   0  0  0  0  0  0  0  0  0  0  0  0
   -1.4558    0.7974   -2.0669 C   0  0  0  0  0  0  0  0  0  0  0  0
   -1.4228    1.9584   -2.8616 O   0  0  0  0  0  0  0  0  0  0  0  0
   -2.7232   -0.0463   -2.3810 C   0  0  0  0  0  0  0  0  0  0  0  0
   -2.8233   -0.2398   -3.7718 O   0  0  0  0  0  0  0  0  0  0  0  0
   -2.6984   -1.4383   -1.6772 C   0  0  0  0  0  0  0  0  0  0  0  0
   -3.9267   -1.6487   -0.8170 C   0  0  0  0  0  0  0  0  0  0  0  0
   -5.1540   -1.8890   -1.4579 C   0  0  0  0  0  0  0  0  0  0  0  0
   -6.3354   -1.9820   -0.7219 C   0  0  0  0  0  0  0  0  0  0  0  0
   -6.3081   -1.8210    0.6621 C   0  0  0  0  0  0  0  0  0  0  0  0
   -5.0973   -1.5879    1.3177 C   0  0  0  0  0  0  0  0  0  0  0  0
   -3.8914   -1.5085    0.5931 C   0  0  0  0  0  0  0  0  0  0  0  0
   -2.6599   -1.3089    1.2449 O   0  0  0  0  0  0  0  0  0  0  0  0
   -2.5076   -0.6415    2.5008 C   0  0  0  0  0  0  0  0  0  0  0  0
   -1.0685   -0.6766    2.9331 C   0  0  0  0  0  0  0  0  0  0  0  0
   -0.6680   -1.7253    3.5121 O   0  0  0  0  0  0  0  0  0  0  0  0
    1.6700   -0.4985    3.3866 H   0  0  0  0  0  0  0  0  0  0  0  0
    0.8000    0.5274    4.5991 H   0  0  0  0  0  0  0  0  0  0  0  0
    1.7437    1.2920    3.2724 H   0  0  0  0  0  0  0  0  0  0  0  0
    0.2428    2.3737    2.0305 H   0  0  0  0  0  0  0  0  0  0  0  0
   -1.3713    1.8808    1.8362 H   0  0  0  0  0  0  0  0  0  0  0  0
    0.3695    3.0563   -0.8310 H   0  0  0  0  0  0  0  0  0  0  0  0
    1.5930    2.6270    0.3812 H   0  0  0  0  0  0  0  0  0  0  0  0
    2.6013    2.4941   -1.7514 H   0  0  0  0  0  0  0  0  0  0  0  0
    1.3668    1.3711   -2.4005 H   0  0  0  0  0  0  0  0  0  0  0  0
    4.6087   -2.4515   -1.8052 H   0  0  0  0  0  0  0  0  0  0  0  0
    6.3417   -3.6476   -0.5034 H   0  0  0  0  0  0  0  0  0  0  0  0
    7.2942   -0.0099    1.5923 H   0  0  0  0  0  0  0  0  0  0  0  0
    5.5397    1.1856    0.3282 H   0  0  0  0  0  0  0  0  0  0  0  0
    2.4827    0.2255    1.1155 H   0  0  0  0  0  0  0  0  0  0  0  0
    2.5572   -1.2880    0.1434 H   0  0  0  0  0  0  0  0  0  0  0  0
    0.2505   -1.0483    0.8077 H   0  0  0  0  0  0  0  0  0  0  0  0
    0.4202   -0.8042   -0.8855 H   0  0  0  0  0  0  0  0  0  0  0  0
   -1.7944    2.2211   -0.4545 H   0  0  0  0  0  0  0  0  0  0  0  0
   -2.1296    0.5931   -0.0018 H   0  0  0  0  0  0  0  0  0  0  0  0
   -0.5926    0.1903   -2.3809 H   0  0  0  0  0  0  0  0  0  0  0  0
   -2.2663    2.4595   -2.7039 H   0  0  0  0  0  0  0  0  0  0  0  0
   -3.6095    0.5356   -2.0265 H   0  0  0  0  0  0  0  0  0  0  0  0
   -3.3196    0.5362   -4.1406 H   0  0  0  0  0  0  0  0  0  0  0  0
   -1.7818   -1.5809   -1.0730 H   0  0  0  0  0  0  0  0  0  0  0  0
   -2.6582   -2.2468   -2.4389 H   0  0  0  0  0  0  0  0  0  0  0  0
   -5.1963   -1.9848   -2.5366 H   0  0  0  0  0  0  0  0  0  0  0  0
   -7.2782   -2.1571   -1.2271 H   0  0  0  0  0  0  0  0  0  0  0  0
   -7.2295   -1.8767    1.2299 H   0  0  0  0  0  0  0  0  0  0  0  0
   -5.1157   -1.4807    2.3925 H   0  0  0  0  0  0  0  0  0  0  0  0
   -3.0992   -1.1689    3.2799 H   0  0  0  0  0  0  0  0  0  0  0  0
   -2.8951    0.3963    2.4388 H   0  0  0  0  0  0  0  0  0  0  0  0
  1  2  1  0
  2  3  1  0
  3  4  1  0
  4  5  1  0
  5  6  1  0
  6  7  1  0
  7  8  1  0
  8  9  2  0
  8 10  1  0
 10 11  2  0
 11 12  1  0
 12 13  2  0
 13 14  1  0
 13 15  1  0
 15 16  2  0
  7 17  1  0
 17 18  1  0
  4 19  1  0
 19 20  1  0
 20 21  1  0
 20 22  1  0
 22 23  1  0
 22 24  1  0
 24 25  1  0
 25 26  2  0
 26 27  1  0
 27 28  2  0
 28 29  1  0
 29 30  2  0
 30 31  1  0
 31 32  1  0
 32 33  1  0
 33 34  2  0
 33  2  1  0
 18  4  1  0
 30 25  1  0
 16 10  1  0
  1 35  1  0
  1 36  1  0
  1 37  1  0
  3 38  1  0
  3 39  1  0
  5 40  1  0
  5 41  1  0
  6 42  1  0
  6 43  1  0
 11 44  1  0
 12 45  1  0
 15 46  1  0
 16 47  1  0
 17 48  1  0
 17 49  1  0
 18 50  1  0
 18 51  1  0
 19 52  1  0
 19 53  1  0
 20 54  1  0
 21 55  1  0
 22 56  1  0
 23 57  1  0
 24 58  1  0
 24 59  1  0
 26 60  1  0
 27 61  1  0
 28 62  1  0
 29 63  1  0
 32 64  1  0
 32 65  1  0
M  END
$$$$
