
     RDKit          3D

 69 71  0  0  0  0  0  0  0  0999 V2000
    6.2572    0.3115   -0.3807 C   0  0  0  0  0  0  0  0  0  0  0  0
    5.5051   -0.8325    0.3190 C   0  0  0  0  0  0  0  0  0  0  0  0
    4.1690   -1.1609   -0.3666 C   0  0  0  0  0  0  0  0  0  0  0  0
    3.1426   -0.1848    0.0085 N   0  0  0  0  0  0  0  0  0  0  0  0
    2.0634    0.0765   -0.9128 C   0  0  0  0  0  0  0  0  0  0  0  0
    2.3222    0.1918   -2.1431 O   0  0  0  0  0  0  0  0  0  0  0  0
    0.6170    0.1134   -0.4579 C   0  0  0  0  0  0  0  0  0  0  0  0
    0.1033   -1.3010   -0.1143 C   0  0  0  0  0  0  0  0  0  0  0  0
   -0.0638   -2.2060   -1.3191 C   0  0  0  0  0  0  0  0  0  0  0  0
    0.9674   -2.5231   -1.9698 O   0  0  0  0  0  0  0  0  0  0  0  0
   -1.3293   -2.7598   -1.7360 N   0  0  0  0  0  0  0  0  0  0  0  0
   -2.6410   -2.4881   -1.1300 C   0  0  0  0  0  0  0  0  0  0  0  0
   -3.0480   -3.6351   -0.1704 C   0  0  0  0  0  0  0  0  0  0  0  0
   -2.0711   -3.7937    0.9964 C   0  0  0  0  0  0  0  0  0  0  0  0
   -4.3256   -3.3822    0.3623 O   0  0  0  0  0  0  0  0  0  0  0  0
   -3.6804   -2.3434   -2.2270 C   0  0  0  0  0  0  0  0  0  0  0  0
   -3.8964   -3.3238   -2.9903 O   0  0  0  0  0  0  0  0  0  0  0  0
   -4.4620   -1.1470   -2.4067 N   0  0  0  0  0  0  0  0  0  0  0  0
   -4.0723    0.1724   -1.9126 C   0  0  0  0  0  0  0  0  0  0  0  0
   -4.5860    0.4012   -0.4819 C   0  0  0  0  0  0  0  0  0  0  0  0
   -4.0108    1.6824    0.1269 C   0  0  0  0  0  0  0  0  0  0  0  0
   -2.5862    1.6700    0.0358 O   0  0  0  0  0  0  0  0  0  0  0  0
   -1.7721    2.7617    0.3658 C   0  0  0  0  0  0  0  0  0  0  0  0
   -2.1008    3.6222    1.4279 C   0  0  0  0  0  0  0  0  0  0  0  0
   -1.2879    4.7202    1.7217 C   0  0  0  0  0  0  0  0  0  0  0  0
   -0.1470    4.9737    0.9572 C   0  0  0  0  0  0  0  0  0  0  0  0
    0.1847    4.1295   -0.1043 C   0  0  0  0  0  0  0  0  0  0  0  0
   -0.6146    3.0141   -0.3991 C   0  0  0  0  0  0  0  0  0  0  0  0
   -0.2944    2.1803   -1.5738 C   0  0  0  0  0  0  0  0  0  0  0  0
   -0.0979    2.7342   -2.6891 O   0  0  0  0  0  0  0  0  0  0  0  0
   -0.2236    0.7532   -1.4772 N   0  0  0  0  0  0  0  0  0  0  0  0
    3.0457    0.1803    1.4238 C   0  0  0  0  0  0  0  0  0  0  0  0
    4.4479    0.4504    1.9963 C   0  0  0  0  0  0  0  0  0  0  0  0
    4.3695    0.6287    3.5128 C   0  0  0  0  0  0  0  0  0  0  0  0
    5.3442   -0.6132    1.7143 O   0  0  0  0  0  0  0  0  0  0  0  0
    5.6032    1.1962   -0.5323 H   0  0  0  0  0  0  0  0  0  0  0  0
    7.1422    0.6071    0.2222 H   0  0  0  0  0  0  0  0  0  0  0  0
    6.6075   -0.0243   -1.3817 H   0  0  0  0  0  0  0  0  0  0  0  0
    6.1477   -1.7330    0.2100 H   0  0  0  0  0  0  0  0  0  0  0  0
    4.3137   -1.1914   -1.4691 H   0  0  0  0  0  0  0  0  0  0  0  0
    3.8322   -2.1701   -0.0435 H   0  0  0  0  0  0  0  0  0  0  0  0
    0.5464    0.7112    0.4735 H   0  0  0  0  0  0  0  0  0  0  0  0
    0.8217   -1.7913    0.5753 H   0  0  0  0  0  0  0  0  0  0  0  0
   -0.8214   -1.1968    0.4748 H   0  0  0  0  0  0  0  0  0  0  0  0
   -1.2908   -3.4899   -2.4861 H   0  0  0  0  0  0  0  0  0  0  0  0
   -2.6013   -1.5517   -0.5601 H   0  0  0  0  0  0  0  0  0  0  0  0
   -3.0492   -4.6003   -0.7317 H   0  0  0  0  0  0  0  0  0  0  0  0
   -2.0384   -2.8653    1.6040 H   0  0  0  0  0  0  0  0  0  0  0  0
   -2.4065   -4.6270    1.6507 H   0  0  0  0  0  0  0  0  0  0  0  0
   -1.0531   -4.0371    0.6285 H   0  0  0  0  0  0  0  0  0  0  0  0
   -4.9883   -3.8004   -0.2457 H   0  0  0  0  0  0  0  0  0  0  0  0
   -5.2471   -1.1847   -3.0967 H   0  0  0  0  0  0  0  0  0  0  0  0
   -4.5141    0.9523   -2.5699 H   0  0  0  0  0  0  0  0  0  0  0  0
   -2.9691    0.2774   -1.9798 H   0  0  0  0  0  0  0  0  0  0  0  0
   -4.3339   -0.4510    0.1787 H   0  0  0  0  0  0  0  0  0  0  0  0
   -5.6940    0.4759   -0.4998 H   0  0  0  0  0  0  0  0  0  0  0  0
   -4.4094    2.5617   -0.4261 H   0  0  0  0  0  0  0  0  0  0  0  0
   -4.3297    1.7511    1.1897 H   0  0  0  0  0  0  0  0  0  0  0  0
   -2.9779    3.4424    2.0350 H   0  0  0  0  0  0  0  0  0  0  0  0
   -1.5448    5.3776    2.5415 H   0  0  0  0  0  0  0  0  0  0  0  0
    0.4776    5.8281    1.1851 H   0  0  0  0  0  0  0  0  0  0  0  0
    1.0661    4.3443   -0.6965 H   0  0  0  0  0  0  0  0  0  0  0  0
   -0.4196    0.2190   -2.3542 H   0  0  0  0  0  0  0  0  0  0  0  0
    2.4459    1.1078    1.5451 H   0  0  0  0  0  0  0  0  0  0  0  0
    2.5533   -0.6466    1.9805 H   0  0  0  0  0  0  0  0  0  0  0  0
    4.8344    1.4089    1.5870 H   0  0  0  0  0  0  0  0  0  0  0  0
    3.6797    1.4622    3.7707 H   0  0  0  0  0  0  0  0  0  0  0  0
    5.3770    0.8706    3.9138 H   0  0  0  0  0  0  0  0  0  0  0  0
    4.0120   -0.3060    3.9972 H   0  0  0  0  0  0  0  0  0  0  0  0
  1  2  1  0
  2  3  1  0
  3  4  1  0
  4  5  1  0
  5  6  2  0
  5  7  1  0
  7  8  1  0
  8  9  1  0
  9 10  2  0
  9 11  1  0
 11 12  1  0
 12 13  1  0
 13 14  1  0
 13 15  1  0
 12 16  1  0
 16 17  2  0
 16 18  1  0
 18 19  1  0
 19 20  1  0
 20 21  1  0
 21 22  1  0
 22 23  1  0
 23 24  2  0
 24 25  1  0
 25 26  2  0
 26 27  1  0
 27 28  2  0
 28 29  1  0
 29 30  2  0
 29 31  1  0
  4 32  1  0
 32 33  1  0
 33 34  1  0
 33 35  1  0
 35  2  1  0
 31  7  1  0
 28 23  1  0
  1 36  1  0
  1 37  1  0
  1 38  1  0
  2 39  1  0
  3 40  1  0
  3 41  1  0
  7 42  1  0
  8 43  1  0
  8 44  1  0
 11 45  1  0
 12 46  1  0
 13 47  1  0
 14 48  1  0
 14 49  1  0
 14 50  1  0
 15 51  1  0
 18 52  1  0
 19 53  1  0
 19 54  1  0
 20 55  1  0
 20 56  1  0
 21 57  1  0
 21 58  1  0
 24 59  1  0
 25 60  1  0
 26 61  1  0
 27 62  1  0
 31 63  1  0
 32 64  1  0
 32 65  1  0
 33 66  1  0
 34 67  1  0
 34 68  1  0
 34 69  1  0
M  END
$$$$
