
     RDKit          3D

 80 82  0  0  0  0  0  0  0  0999 V2000
   -4.4589    0.3323   -2.1614 C   0  0  0  0  0  0  0  0  0  0  0  0
   -5.6576    0.7685   -1.3186 C   0  0  0  0  0  0  0  0  0  0  0  0
   -5.6908    0.1108    0.0733 C   0  0  0  0  0  0  0  0  0  0  0  0
   -4.8319    0.8320    1.1293 C   0  0  0  0  0  0  0  0  0  0  0  0
   -3.3950    0.5417    0.9856 N   0  0  0  0  0  0  0  0  0  0  0  0
   -2.9159   -0.8224    1.2817 C   0  0  0  0  0  0  0  0  0  0  0  0
   -2.2670   -1.4619    0.0470 C   0  0  0  0  0  0  0  0  0  0  0  0
   -1.1026   -2.1881    0.4305 O   0  0  0  0  0  0  0  0  0  0  0  0
   -0.2917   -2.9127   -0.4586 C   0  0  0  0  0  0  0  0  0  0  0  0
   -0.7186   -3.2394   -1.7643 C   0  0  0  0  0  0  0  0  0  0  0  0
    0.1095   -3.9826   -2.6094 C   0  0  0  0  0  0  0  0  0  0  0  0
    1.3542   -4.4269   -2.1642 C   0  0  0  0  0  0  0  0  0  0  0  0
    1.7897   -4.1060   -0.8757 C   0  0  0  0  0  0  0  0  0  0  0  0
    0.9812   -3.3346   -0.0254 C   0  0  0  0  0  0  0  0  0  0  0  0
    1.4867   -2.9484    1.3046 C   0  0  0  0  0  0  0  0  0  0  0  0
    1.7154   -3.8466    2.1585 O   0  0  0  0  0  0  0  0  0  0  0  0
    1.7427   -1.5720    1.6360 N   0  0  0  0  0  0  0  0  0  0  0  0
    1.9448   -0.5435    0.6056 C   0  0  0  0  0  0  0  0  0  0  0  0
    3.2600   -0.7821   -0.0968 C   0  0  0  0  0  0  0  0  0  0  0  0
    4.2450   -1.2218    0.5589 O   0  0  0  0  0  0  0  0  0  0  0  0
    3.4097   -0.4620   -1.4901 N   0  0  0  0  0  0  0  0  0  0  0  0
    4.6756   -0.6761   -2.2038 C   0  0  0  0  0  0  0  0  0  0  0  0
    5.7192    0.3775   -1.7919 C   0  0  0  0  0  0  0  0  0  0  0  0
    5.3866    1.7332   -2.4218 C   0  0  0  0  0  0  0  0  0  0  0  0
    5.3491    1.6287   -3.8354 O   0  0  0  0  0  0  0  0  0  0  0  0
    4.2715    0.7973   -4.2310 C   0  0  0  0  0  0  0  0  0  0  0  0
    4.4683   -0.6400   -3.7299 C   0  0  0  0  0  0  0  0  0  0  0  0
    1.9185    0.8707    1.2257 C   0  0  0  0  0  0  0  0  0  0  0  0
    1.3107    1.8719    0.2744 C   0  0  0  0  0  0  0  0  0  0  0  0
    2.0701    2.4803   -0.5245 O   0  0  0  0  0  0  0  0  0  0  0  0
   -0.1102    2.1083    0.2039 N   0  0  0  0  0  0  0  0  0  0  0  0
   -1.0594    1.6615    1.2349 C   0  0  0  0  0  0  0  0  0  0  0  0
   -0.9841    2.6129    2.4509 C   0  0  0  0  0  0  0  0  0  0  0  0
   -1.6936    2.0626    3.7140 C   0  0  0  0  0  0  0  0  0  0  0  0
   -0.8573    0.9751    4.4075 C   0  0  0  0  0  0  0  0  0  0  0  0
   -1.9728    3.2050    4.7009 C   0  0  0  0  0  0  0  0  0  0  0  0
   -2.4764    1.6222    0.6847 C   0  0  0  0  0  0  0  0  0  0  0  0
   -2.8869    2.6087    0.0142 O   0  0  0  0  0  0  0  0  0  0  0  0
   -4.3553   -0.7714   -2.1468 H   0  0  0  0  0  0  0  0  0  0  0  0
   -4.6114    0.6553   -3.2083 H   0  0  0  0  0  0  0  0  0  0  0  0
   -3.5235    0.7819   -1.7813 H   0  0  0  0  0  0  0  0  0  0  0  0
   -6.5794    0.4674   -1.8636 H   0  0  0  0  0  0  0  0  0  0  0  0
   -5.6726    1.8777   -1.2274 H   0  0  0  0  0  0  0  0  0  0  0  0
   -5.4229   -0.9649    0.0005 H   0  0  0  0  0  0  0  0  0  0  0  0
   -6.7427    0.1387    0.4318 H   0  0  0  0  0  0  0  0  0  0  0  0
   -5.0313    1.9281    1.0986 H   0  0  0  0  0  0  0  0  0  0  0  0
   -5.1625    0.4885    2.1346 H   0  0  0  0  0  0  0  0  0  0  0  0
   -3.7533   -1.4748    1.6208 H   0  0  0  0  0  0  0  0  0  0  0  0
   -2.2162   -0.8056    2.1420 H   0  0  0  0  0  0  0  0  0  0  0  0
   -3.0032   -2.1419   -0.4360 H   0  0  0  0  0  0  0  0  0  0  0  0
   -1.9620   -0.6837   -0.6874 H   0  0  0  0  0  0  0  0  0  0  0  0
   -1.6830   -2.9182   -2.1380 H   0  0  0  0  0  0  0  0  0  0  0  0
   -0.2267   -4.2326   -3.6087 H   0  0  0  0  0  0  0  0  0  0  0  0
    1.9833   -5.0123   -2.8229 H   0  0  0  0  0  0  0  0  0  0  0  0
    2.7673   -4.4354   -0.5468 H   0  0  0  0  0  0  0  0  0  0  0  0
    2.0595   -1.3704    2.6107 H   0  0  0  0  0  0  0  0  0  0  0  0
    1.1181   -0.6240   -0.1334 H   0  0  0  0  0  0  0  0  0  0  0  0
    2.5697   -0.1225   -2.0138 H   0  0  0  0  0  0  0  0  0  0  0  0
    5.0597   -1.6856   -1.9415 H   0  0  0  0  0  0  0  0  0  0  0  0
    6.7236    0.0545   -2.1417 H   0  0  0  0  0  0  0  0  0  0  0  0
    5.7621    0.4841   -0.6892 H   0  0  0  0  0  0  0  0  0  0  0  0
    4.4286    2.1313   -2.0198 H   0  0  0  0  0  0  0  0  0  0  0  0
    6.1836    2.4576   -2.1430 H   0  0  0  0  0  0  0  0  0  0  0  0
    3.2957    1.2122   -3.8866 H   0  0  0  0  0  0  0  0  0  0  0  0
    4.2332    0.7790   -5.3418 H   0  0  0  0  0  0  0  0  0  0  0  0
    3.5937   -1.2632   -4.0168 H   0  0  0  0  0  0  0  0  0  0  0  0
    5.3650   -1.0702   -4.2273 H   0  0  0  0  0  0  0  0  0  0  0  0
    2.9448    1.2020    1.5050 H   0  0  0  0  0  0  0  0  0  0  0  0
    1.3507    0.8689    2.1782 H   0  0  0  0  0  0  0  0  0  0  0  0
   -0.4390    2.7589   -0.5454 H   0  0  0  0  0  0  0  0  0  0  0  0
   -0.7605    0.6472    1.5378 H   0  0  0  0  0  0  0  0  0  0  0  0
   -1.4412    3.5843    2.1542 H   0  0  0  0  0  0  0  0  0  0  0  0
    0.0767    2.8408    2.6969 H   0  0  0  0  0  0  0  0  0  0  0  0
   -2.6746    1.6248    3.4271 H   0  0  0  0  0  0  0  0  0  0  0  0
    0.1340    1.3776    4.7107 H   0  0  0  0  0  0  0  0  0  0  0  0
   -0.6927    0.1067    3.7376 H   0  0  0  0  0  0  0  0  0  0  0  0
   -1.3909    0.6021    5.3129 H   0  0  0  0  0  0  0  0  0  0  0  0
   -2.6045    3.9811    4.2201 H   0  0  0  0  0  0  0  0  0  0  0  0
   -1.0218    3.6723    5.0373 H   0  0  0  0  0  0  0  0  0  0  0  0
   -2.5161    2.8195    5.5913 H   0  0  0  0  0  0  0  0  0  0  0  0
  1  2  1  0
  2  3  1  0
  3  4  1  0
  4  5  1  0
  5  6  1  0
  6  7  1  0
  7  8  1  0
  8  9  1  0
  9 10  2  0
 10 11  1  0
 11 12  2  0
 12 13  1  0
 13 14  2  0
 14 15  1  0
 15 16  2  0
 15 17  1  0
 17 18  1  0
 18 19  1  0
 19 20  2  0
 19 21  1  0
 21 22  1  0
 22 23  1  0
 23 24  1  0
 24 25  1  0
 25 26  1  0
 26 27  1  0
 18 28  1  0
 28 29  1  0
 29 30  2  0
 29 31  1  0
 31 32  1  0
 32 33  1  0
 33 34  1  0
 34 35  1  0
 34 36  1  0
 32 37  1  0
 37 38  2  0
 37  5  1  0
 14  9  1  0
 27 22  1  0
  1 39  1  0
  1 40  1  0
  1 41  1  0
  2 42  1  0
  2 43  1  0
  3 44  1  0
  3 45  1  0
  4 46  1  0
  4 47  1  0
  6 48  1  0
  6 49  1  0
  7 50  1  0
  7 51  1  0
 10 52  1  0
 11 53  1  0
 12 54  1  0
 13 55  1  0
 17 56  1  0
 18 57  1  0
 21 58  1  0
 22 59  1  0
 23 60  1  0
 23 61  1  0
 24 62  1  0
 24 63  1  0
 26 64  1  0
 26 65  1  0
 27 66  1  0
 27 67  1  0
 28 68  1  0
 28 69  1  0
 31 70  1  0
 32 71  1  0
 33 72  1  0
 33 73  1  0
 34 74  1  0
 35 75  1  0
 35 76  1  0
 35 77  1  0
 36 78  1  0
 36 79  1  0
 36 80  1  0
M  END
$$$$
