
     RDKit          3D

 62 65  0  0  0  0  0  0  0  0999 V2000
   -1.1743    2.7171   -0.4285 C   0  0  0  0  0  0  0  0  0  0  0  0
   -0.6983    2.2646   -1.8025 C   0  0  0  0  0  0  0  0  0  0  0  0
   -0.6413    0.7968   -1.8860 N   0  0  0  0  0  0  0  0  0  0  0  0
   -1.6251    0.0878   -2.7276 C   0  0  0  0  0  0  0  0  0  0  0  0
   -3.0546    0.2201   -2.1815 C   0  0  0  0  0  0  0  0  0  0  0  0
   -3.1502   -0.3870   -0.8976 O   0  0  0  0  0  0  0  0  0  0  0  0
   -4.2615   -0.3535   -0.0403 C   0  0  0  0  0  0  0  0  0  0  0  0
   -5.3424    0.5221   -0.2640 C   0  0  0  0  0  0  0  0  0  0  0  0
   -6.3953    0.5939    0.6536 C   0  0  0  0  0  0  0  0  0  0  0  0
   -6.3896   -0.2136    1.7933 C   0  0  0  0  0  0  0  0  0  0  0  0
   -5.3417   -1.1101    2.0112 C   0  0  0  0  0  0  0  0  0  0  0  0
   -4.2814   -1.2021    1.0952 C   0  0  0  0  0  0  0  0  0  0  0  0
   -3.1869   -2.2162    1.3469 C   0  0  0  0  0  0  0  0  0  0  0  0
   -2.0676   -1.6510    2.2526 C   0  0  0  0  0  0  0  0  0  0  0  0
   -0.6576   -1.7502    1.6360 C   0  0  0  0  0  0  0  0  0  0  0  0
   -0.5554   -0.8982    0.3597 C   0  0  0  0  0  0  0  0  0  0  0  0
    0.8387   -0.6178   -0.2647 C   0  0  0  0  0  0  0  0  0  0  0  0
    1.7277    0.2897    0.6507 C   0  0  0  0  0  0  0  0  0  0  0  0
    3.1478   -0.0243    0.4644 N   0  0  0  0  0  0  0  0  0  0  0  0
    4.1289    1.0028    0.6998 C   0  0  0  0  0  0  0  0  0  0  0  0
    3.9024    1.8789    1.5750 O   0  0  0  0  0  0  0  0  0  0  0  0
    5.4075    1.0302   -0.0474 C   0  0  0  0  0  0  0  0  0  0  0  0
    6.4632    1.8650    0.3452 C   0  0  0  0  0  0  0  0  0  0  0  0
    7.6644    1.8267   -0.3693 C   0  0  0  0  0  0  0  0  0  0  0  0
    7.7740    0.9871   -1.4764 C   0  0  0  0  0  0  0  0  0  0  0  0
    6.7160    0.2174   -1.8382 N   0  0  0  0  0  0  0  0  0  0  0  0
    5.5716    0.2421   -1.1477 N   0  0  0  0  0  0  0  0  0  0  0  0
    3.5520   -1.4345    0.5389 C   0  0  0  0  0  0  0  0  0  0  0  0
    2.3439   -2.3507    0.3638 C   0  0  0  0  0  0  0  0  0  0  0  0
    1.4611   -1.8553   -0.6237 O   0  0  0  0  0  0  0  0  0  0  0  0
    0.6130    0.1411   -1.5762 C   0  0  0  0  0  0  0  0  0  0  0  0
    1.5615    0.2181   -2.4041 O   0  0  0  0  0  0  0  0  0  0  0  0
   -0.4361    2.4575    0.3541 H   0  0  0  0  0  0  0  0  0  0  0  0
   -1.2829    3.8248   -0.4232 H   0  0  0  0  0  0  0  0  0  0  0  0
   -2.1533    2.2434   -0.1824 H   0  0  0  0  0  0  0  0  0  0  0  0
    0.3044    2.7074   -2.0086 H   0  0  0  0  0  0  0  0  0  0  0  0
   -1.3984    2.6704   -2.5650 H   0  0  0  0  0  0  0  0  0  0  0  0
   -1.3728   -0.9969   -2.7820 H   0  0  0  0  0  0  0  0  0  0  0  0
   -1.6028    0.5159   -3.7510 H   0  0  0  0  0  0  0  0  0  0  0  0
   -3.3280    1.2934   -2.1236 H   0  0  0  0  0  0  0  0  0  0  0  0
   -3.7511   -0.2943   -2.8726 H   0  0  0  0  0  0  0  0  0  0  0  0
   -5.3643    1.1713   -1.1298 H   0  0  0  0  0  0  0  0  0  0  0  0
   -7.2096    1.2879    0.4860 H   0  0  0  0  0  0  0  0  0  0  0  0
   -7.1996   -0.1471    2.5065 H   0  0  0  0  0  0  0  0  0  0  0  0
   -5.3615   -1.7419    2.8921 H   0  0  0  0  0  0  0  0  0  0  0  0
   -3.6276   -3.1154    1.8358 H   0  0  0  0  0  0  0  0  0  0  0  0
   -2.8045   -2.6009    0.3784 H   0  0  0  0  0  0  0  0  0  0  0  0
   -2.2683   -0.5849    2.5041 H   0  0  0  0  0  0  0  0  0  0  0  0
   -2.0675   -2.2042    3.2110 H   0  0  0  0  0  0  0  0  0  0  0  0
    0.0610   -1.4030    2.4039 H   0  0  0  0  0  0  0  0  0  0  0  0
   -0.4371   -2.8140    1.4056 H   0  0  0  0  0  0  0  0  0  0  0  0
   -1.0657    0.0678    0.5530 H   0  0  0  0  0  0  0  0  0  0  0  0
   -1.1067   -1.4530   -0.4177 H   0  0  0  0  0  0  0  0  0  0  0  0
    1.4835    0.1532    1.7256 H   0  0  0  0  0  0  0  0  0  0  0  0
    1.5510    1.3654    0.4337 H   0  0  0  0  0  0  0  0  0  0  0  0
    6.3632    2.5260    1.1985 H   0  0  0  0  0  0  0  0  0  0  0  0
    8.5002    2.4520   -0.0774 H   0  0  0  0  0  0  0  0  0  0  0  0
    8.6930    0.9509   -2.0497 H   0  0  0  0  0  0  0  0  0  0  0  0
    4.0023   -1.6390    1.5388 H   0  0  0  0  0  0  0  0  0  0  0  0
    4.3000   -1.6786   -0.2472 H   0  0  0  0  0  0  0  0  0  0  0  0
    2.6911   -3.3573    0.0581 H   0  0  0  0  0  0  0  0  0  0  0  0
    1.8380   -2.4936    1.3349 H   0  0  0  0  0  0  0  0  0  0  0  0
  1  2  1  0
  2  3  1  0
  3  4  1  0
  4  5  1  0
  5  6  1  0
  6  7  1  0
  7  8  2  0
  8  9  1  0
  9 10  2  0
 10 11  1  0
 11 12  2  0
 12 13  1  0
 13 14  1  0
 14 15  1  0
 15 16  1  0
 16 17  1  0
 17 18  1  0
 18 19  1  0
 19 20  1  0
 20 21  2  0
 20 22  1  0
 22 23  2  0
 23 24  1  0
 24 25  2  0
 25 26  1  0
 26 27  2  0
 19 28  1  0
 28 29  1  0
 29 30  1  0
 17 31  1  0
 31 32  2  0
 31  3  1  0
 12  7  1  0
 30 17  1  0
 27 22  1  0
  1 33  1  0
  1 34  1  0
  1 35  1  0
  2 36  1  0
  2 37  1  0
  4 38  1  0
  4 39  1  0
  5 40  1  0
  5 41  1  0
  8 42  1  0
  9 43  1  0
 10 44  1  0
 11 45  1  0
 13 46  1  0
 13 47  1  0
 14 48  1  0
 14 49  1  0
 15 50  1  0
 15 51  1  0
 16 52  1  0
 16 53  1  0
 18 54  1  0
 18 55  1  0
 23 56  1  0
 24 57  1  0
 25 58  1  0
 28 59  1  0
 28 60  1  0
 29 61  1  0
 29 62  1  0
M  END
$$$$
