
     RDKit          3D

 86 89  0  0  0  0  0  0  0  0999 V2000
   -8.2547    1.8197   -1.2470 C   0  0  0  0  0  0  0  0  0  0  0  0
   -7.5141    0.6042   -0.6750 C   0  0  0  0  0  0  0  0  0  0  0  0
   -8.4858   -0.2526    0.1549 C   0  0  0  0  0  0  0  0  0  0  0  0
   -6.2961    1.0730    0.1603 C   0  0  0  0  0  0  0  0  0  0  0  0
   -5.3012   -0.0632    0.4934 C   0  0  0  0  0  0  0  0  0  0  0  0
   -4.2426    0.3974    1.5235 C   0  0  0  0  0  0  0  0  0  0  0  0
   -3.0424    0.8631    0.9027 O   0  0  0  0  0  0  0  0  0  0  0  0
   -2.7426    2.1829    0.5130 C   0  0  0  0  0  0  0  0  0  0  0  0
   -3.6364    3.2513    0.7339 C   0  0  0  0  0  0  0  0  0  0  0  0
   -3.3311    4.5337    0.2810 C   0  0  0  0  0  0  0  0  0  0  0  0
   -2.1327    4.7752   -0.3911 C   0  0  0  0  0  0  0  0  0  0  0  0
   -1.2241    3.7358   -0.5950 C   0  0  0  0  0  0  0  0  0  0  0  0
   -1.5066    2.4382   -0.1301 C   0  0  0  0  0  0  0  0  0  0  0  0
   -0.5056    1.3614   -0.3334 C   0  0  0  0  0  0  0  0  0  0  0  0
    0.2426    1.3863   -1.3461 O   0  0  0  0  0  0  0  0  0  0  0  0
   -0.3570    0.3174    0.6392 N   0  0  0  0  0  0  0  0  0  0  0  0
   -0.2589   -1.1123    0.3210 C   0  0  0  0  0  0  0  0  0  0  0  0
    1.1767   -1.5736    0.3572 C   0  0  0  0  0  0  0  0  0  0  0  0
    1.5770   -2.2460    1.3474 O   0  0  0  0  0  0  0  0  0  0  0  0
    2.0830   -1.2770   -0.7152 N   0  0  0  0  0  0  0  0  0  0  0  0
    3.2812   -2.0776   -0.9596 C   0  0  0  0  0  0  0  0  0  0  0  0
    4.3451   -1.7711    0.0579 C   0  0  0  0  0  0  0  0  0  0  0  0
    4.8442   -2.7849    0.8938 C   0  0  0  0  0  0  0  0  0  0  0  0
    5.8602   -2.5046    1.8101 C   0  0  0  0  0  0  0  0  0  0  0  0
    6.3930   -1.2157    1.8921 C   0  0  0  0  0  0  0  0  0  0  0  0
    5.9119   -0.1923    1.0567 C   0  0  0  0  0  0  0  0  0  0  0  0
    6.5079    1.1978    1.1303 C   0  0  0  0  0  0  0  0  0  0  0  0
    7.6118    1.4330    0.1721 N   0  0  0  0  0  0  0  0  0  0  0  0
    8.7382    0.4961    0.3225 C   0  0  0  0  0  0  0  0  0  0  0  0
    9.8724    0.8788   -0.6505 C   0  0  0  0  0  0  0  0  0  0  0  0
    9.5548    2.0354   -1.4050 O   0  0  0  0  0  0  0  0  0  0  0  0
    8.3713    1.8137   -2.1506 C   0  0  0  0  0  0  0  0  0  0  0  0
    7.1712    1.4950   -1.2345 C   0  0  0  0  0  0  0  0  0  0  0  0
    4.8769   -0.4758    0.1500 C   0  0  0  0  0  0  0  0  0  0  0  0
   -0.9703   -1.4732   -1.0026 C   0  0  0  0  0  0  0  0  0  0  0  0
   -1.2723   -2.9489   -1.0815 C   0  0  0  0  0  0  0  0  0  0  0  0
   -0.3914   -3.7224   -1.5511 O   0  0  0  0  0  0  0  0  0  0  0  0
   -2.4960   -3.5118   -0.5757 N   0  0  0  0  0  0  0  0  0  0  0  0
   -3.5532   -2.7322    0.0806 C   0  0  0  0  0  0  0  0  0  0  0  0
   -4.4850   -3.6598    0.8651 C   0  0  0  0  0  0  0  0  0  0  0  0
   -4.3311   -1.9459   -0.9432 C   0  0  0  0  0  0  0  0  0  0  0  0
   -4.6276   -2.4896   -2.0437 O   0  0  0  0  0  0  0  0  0  0  0  0
   -4.6723   -0.5671   -0.7370 N   0  0  0  0  0  0  0  0  0  0  0  0
   -7.5775    2.4171   -1.8934 H   0  0  0  0  0  0  0  0  0  0  0  0
   -8.6375    2.4668   -0.4286 H   0  0  0  0  0  0  0  0  0  0  0  0
   -9.1160    1.4889   -1.8664 H   0  0  0  0  0  0  0  0  0  0  0  0
   -7.1639   -0.0045   -1.5369 H   0  0  0  0  0  0  0  0  0  0  0  0
   -9.3970   -0.4846   -0.4381 H   0  0  0  0  0  0  0  0  0  0  0  0
   -8.7899    0.2802    1.0824 H   0  0  0  0  0  0  0  0  0  0  0  0
   -8.0250   -1.2257    0.4273 H   0  0  0  0  0  0  0  0  0  0  0  0
   -5.7519    1.8554   -0.4101 H   0  0  0  0  0  0  0  0  0  0  0  0
   -6.6626    1.5439    1.0996 H   0  0  0  0  0  0  0  0  0  0  0  0
   -5.8800   -0.8803    0.9689 H   0  0  0  0  0  0  0  0  0  0  0  0
   -3.9690   -0.4776    2.1483 H   0  0  0  0  0  0  0  0  0  0  0  0
   -4.6435    1.1348    2.2474 H   0  0  0  0  0  0  0  0  0  0  0  0
   -4.5746    3.1096    1.2488 H   0  0  0  0  0  0  0  0  0  0  0  0
   -4.0277    5.3443    0.4463 H   0  0  0  0  0  0  0  0  0  0  0  0
   -1.9015    5.7728   -0.7427 H   0  0  0  0  0  0  0  0  0  0  0  0
   -0.2905    3.9466   -1.1025 H   0  0  0  0  0  0  0  0  0  0  0  0
   -0.5214    0.5694    1.6424 H   0  0  0  0  0  0  0  0  0  0  0  0
   -0.7889   -1.6540    1.1330 H   0  0  0  0  0  0  0  0  0  0  0  0
    1.8407   -0.5447   -1.4141 H   0  0  0  0  0  0  0  0  0  0  0  0
    3.6846   -1.8439   -1.9699 H   0  0  0  0  0  0  0  0  0  0  0  0
    3.0102   -3.1575   -0.9564 H   0  0  0  0  0  0  0  0  0  0  0  0
    4.4528   -3.7937    0.8323 H   0  0  0  0  0  0  0  0  0  0  0  0
    6.2425   -3.2924    2.4498 H   0  0  0  0  0  0  0  0  0  0  0  0
    7.1881   -1.0157    2.5995 H   0  0  0  0  0  0  0  0  0  0  0  0
    5.7047    1.9504    0.9669 H   0  0  0  0  0  0  0  0  0  0  0  0
    6.8824    1.3896    2.1599 H   0  0  0  0  0  0  0  0  0  0  0  0
    8.4151   -0.5443    0.0973 H   0  0  0  0  0  0  0  0  0  0  0  0
    9.1183    0.5249    1.3690 H   0  0  0  0  0  0  0  0  0  0  0  0
   10.7982    1.0856   -0.0719 H   0  0  0  0  0  0  0  0  0  0  0  0
   10.1031    0.0269   -1.3292 H   0  0  0  0  0  0  0  0  0  0  0  0
    8.1494    2.7345   -2.7348 H   0  0  0  0  0  0  0  0  0  0  0  0
    8.5265    0.9953   -2.8891 H   0  0  0  0  0  0  0  0  0  0  0  0
    6.3965    2.2864   -1.3523 H   0  0  0  0  0  0  0  0  0  0  0  0
    6.7305    0.5229   -1.5515 H   0  0  0  0  0  0  0  0  0  0  0  0
    4.4912    0.3061   -0.4917 H   0  0  0  0  0  0  0  0  0  0  0  0
   -1.9075   -0.8946   -1.0962 H   0  0  0  0  0  0  0  0  0  0  0  0
   -0.3529   -1.1827   -1.8762 H   0  0  0  0  0  0  0  0  0  0  0  0
   -2.6173   -4.5447   -0.6686 H   0  0  0  0  0  0  0  0  0  0  0  0
   -3.0774   -2.0445    0.8021 H   0  0  0  0  0  0  0  0  0  0  0  0
   -3.8923   -4.2630    1.5870 H   0  0  0  0  0  0  0  0  0  0  0  0
   -5.2280   -3.0724    1.4411 H   0  0  0  0  0  0  0  0  0  0  0  0
   -5.0191   -4.3528    0.1813 H   0  0  0  0  0  0  0  0  0  0  0  0
   -4.7104    0.0293   -1.5953 H   0  0  0  0  0  0  0  0  0  0  0  0
  1  2  1  0
  2  3  1  0
  2  4  1  0
  4  5  1  0
  5  6  1  0
  6  7  1  0
  7  8  1  0
  8  9  2  0
  9 10  1  0
 10 11  2  0
 11 12  1  0
 12 13  2  0
 13 14  1  0
 14 15  2  0
 14 16  1  0
 16 17  1  0
 17 18  1  0
 18 19  2  0
 18 20  1  0
 20 21  1  0
 21 22  1  0
 22 23  2  0
 23 24  1  0
 24 25  2  0
 25 26  1  0
 26 27  1  0
 27 28  1  0
 28 29  1  0
 29 30  1  0
 30 31  1  0
 31 32  1  0
 32 33  1  0
 26 34  2  0
 17 35  1  0
 35 36  1  0
 36 37  2  0
 36 38  1  0
 38 39  1  0
 39 40  1  0
 39 41  1  0
 41 42  2  0
 41 43  1  0
 43  5  1  0
 13  8  1  0
 34 22  1  0
 33 28  1  0
  1 44  1  0
  1 45  1  0
  1 46  1  0
  2 47  1  0
  3 48  1  0
  3 49  1  0
  3 50  1  0
  4 51  1  0
  4 52  1  0
  5 53  1  0
  6 54  1  0
  6 55  1  0
  9 56  1  0
 10 57  1  0
 11 58  1  0
 12 59  1  0
 16 60  1  0
 17 61  1  0
 20 62  1  0
 21 63  1  0
 21 64  1  0
 23 65  1  0
 24 66  1  0
 25 67  1  0
 27 68  1  0
 27 69  1  0
 29 70  1  0
 29 71  1  0
 30 72  1  0
 30 73  1  0
 32 74  1  0
 32 75  1  0
 33 76  1  0
 33 77  1  0
 34 78  1  0
 35 79  1  0
 35 80  1  0
 38 81  1  0
 39 82  1  0
 40 83  1  0
 40 84  1  0
 40 85  1  0
 43 86  1  0
M  END
$$$$
