
     RDKit          3D

 64 67  0  0  0  0  0  0  0  0999 V2000
   -3.8612    0.9536   -2.2888 C   0  0  0  0  0  0  0  0  0  0  0  0
   -3.1113    1.4199   -1.0205 C   0  0  0  0  0  0  0  0  0  0  0  0
   -3.4506    2.9039   -0.7725 C   0  0  0  0  0  0  0  0  0  0  0  0
   -1.5831    1.2503   -1.2792 C   0  0  0  0  0  0  0  0  0  0  0  0
   -0.6698    1.5816   -0.0821 C   0  0  0  0  0  0  0  0  0  0  0  0
    0.7768    1.1059   -0.3127 C   0  0  0  0  0  0  0  0  0  0  0  0
    1.0161   -0.1820    0.3877 N   0  0  0  0  0  0  0  0  0  0  0  0
    1.8333   -0.0414    1.6189 C   0  0  0  0  0  0  0  0  0  0  0  0
    3.3316   -0.1431    1.4038 C   0  0  0  0  0  0  0  0  0  0  0  0
    3.9999   -0.9065    2.1515 O   0  0  0  0  0  0  0  0  0  0  0  0
    4.0036    0.6325    0.3986 N   0  0  0  0  0  0  0  0  0  0  0  0
    5.4590    0.7073    0.2986 C   0  0  0  0  0  0  0  0  0  0  0  0
    6.0385    1.5373    1.4558 C   0  0  0  0  0  0  0  0  0  0  0  0
    6.9067    2.7264    1.0555 C   0  0  0  0  0  0  0  0  0  0  0  0
    5.4915    2.9556    1.5607 C   0  0  0  0  0  0  0  0  0  0  0  0
    1.4641   -1.2880   -0.4887 C   0  0  0  0  0  0  0  0  0  0  0  0
    0.3238   -1.8052   -1.3284 C   0  0  0  0  0  0  0  0  0  0  0  0
    0.3572   -1.6743   -2.7257 C   0  0  0  0  0  0  0  0  0  0  0  0
   -0.7210   -2.1109   -3.4959 C   0  0  0  0  0  0  0  0  0  0  0  0
   -1.8267   -2.6799   -2.8633 C   0  0  0  0  0  0  0  0  0  0  0  0
   -1.8480   -2.8052   -1.5109 N   0  0  0  0  0  0  0  0  0  0  0  0
   -0.8115   -2.3871   -0.7310 C   0  0  0  0  0  0  0  0  0  0  0  0
   -0.8698   -2.5430    0.6591 O   0  0  0  0  0  0  0  0  0  0  0  0
   -2.0598   -2.5969    1.3968 C   0  0  0  0  0  0  0  0  0  0  0  0
   -2.1671   -3.5445    2.4213 C   0  0  0  0  0  0  0  0  0  0  0  0
   -3.3072   -3.5868    3.2284 C   0  0  0  0  0  0  0  0  0  0  0  0
   -4.3483   -2.6809    3.0168 C   0  0  0  0  0  0  0  0  0  0  0  0
   -4.2536   -1.7320    1.9962 C   0  0  0  0  0  0  0  0  0  0  0  0
   -3.1083   -1.6765    1.1800 C   0  0  0  0  0  0  0  0  0  0  0  0
   -2.9714   -0.7126    0.1732 O   0  0  0  0  0  0  0  0  0  0  0  0
   -3.5960    0.5700    0.1862 C   0  0  0  0  0  0  0  0  0  0  0  0
   -4.9572    1.0936   -2.1776 H   0  0  0  0  0  0  0  0  0  0  0  0
   -3.5292    1.5334   -3.1777 H   0  0  0  0  0  0  0  0  0  0  0  0
   -3.6695   -0.1238   -2.4844 H   0  0  0  0  0  0  0  0  0  0  0  0
   -4.5483    3.0391   -0.6621 H   0  0  0  0  0  0  0  0  0  0  0  0
   -2.9693    3.2732    0.1570 H   0  0  0  0  0  0  0  0  0  0  0  0
   -3.1033    3.5318   -1.6203 H   0  0  0  0  0  0  0  0  0  0  0  0
   -1.3982    0.2081   -1.5967 H   0  0  0  0  0  0  0  0  0  0  0  0
   -1.2784    1.8905   -2.1382 H   0  0  0  0  0  0  0  0  0  0  0  0
   -0.6656    2.6844    0.0598 H   0  0  0  0  0  0  0  0  0  0  0  0
   -1.0546    1.1325    0.8575 H   0  0  0  0  0  0  0  0  0  0  0  0
    0.9970    1.0320   -1.4020 H   0  0  0  0  0  0  0  0  0  0  0  0
    1.4436    1.9069    0.0733 H   0  0  0  0  0  0  0  0  0  0  0  0
    1.6074    0.9158    2.1368 H   0  0  0  0  0  0  0  0  0  0  0  0
    1.5208   -0.8407    2.3264 H   0  0  0  0  0  0  0  0  0  0  0  0
    3.4570    1.1428   -0.3242 H   0  0  0  0  0  0  0  0  0  0  0  0
    5.8915   -0.3158    0.3281 H   0  0  0  0  0  0  0  0  0  0  0  0
    5.7283    1.1449   -0.6869 H   0  0  0  0  0  0  0  0  0  0  0  0
    6.2616    1.0591    2.4326 H   0  0  0  0  0  0  0  0  0  0  0  0
    7.6897    3.0087    1.7925 H   0  0  0  0  0  0  0  0  0  0  0  0
    7.0193    2.9307   -0.0322 H   0  0  0  0  0  0  0  0  0  0  0  0
    4.7750    3.2669    0.7679 H   0  0  0  0  0  0  0  0  0  0  0  0
    5.4530    3.3650    2.5934 H   0  0  0  0  0  0  0  0  0  0  0  0
    1.8315   -2.1417    0.1242 H   0  0  0  0  0  0  0  0  0  0  0  0
    2.3142   -0.9604   -1.1275 H   0  0  0  0  0  0  0  0  0  0  0  0
    1.2087   -1.2210   -3.2170 H   0  0  0  0  0  0  0  0  0  0  0  0
   -0.7020   -2.0051   -4.5742 H   0  0  0  0  0  0  0  0  0  0  0  0
   -2.6711   -3.0180   -3.4490 H   0  0  0  0  0  0  0  0  0  0  0  0
   -1.3600   -4.2447    2.5981 H   0  0  0  0  0  0  0  0  0  0  0  0
   -3.3835   -4.3227    4.0168 H   0  0  0  0  0  0  0  0  0  0  0  0
   -5.2273   -2.7118    3.6482 H   0  0  0  0  0  0  0  0  0  0  0  0
   -5.0715   -1.0378    1.8583 H   0  0  0  0  0  0  0  0  0  0  0  0
   -4.7014    0.4577    0.1516 H   0  0  0  0  0  0  0  0  0  0  0  0
   -3.3455    1.0787    1.1443 H   0  0  0  0  0  0  0  0  0  0  0  0
  1  2  1  0
  2  3  1  0
  2  4  1  0
  4  5  1  0
  5  6  1  0
  6  7  1  0
  7  8  1  0
  8  9  1  0
  9 10  2  0
  9 11  1  0
 11 12  1  0
 12 13  1  0
 13 14  1  0
 14 15  1  0
  7 16  1  0
 16 17  1  0
 17 18  2  0
 18 19  1  0
 19 20  2  0
 20 21  1  0
 21 22  2  0
 22 23  1  0
 23 24  1  0
 24 25  2  0
 25 26  1  0
 26 27  2  0
 27 28  1  0
 28 29  2  0
 29 30  1  0
 30 31  1  0
 31  2  1  0
 15 13  1  0
 22 17  1  0
 29 24  1  0
  1 32  1  0
  1 33  1  0
  1 34  1  0
  3 35  1  0
  3 36  1  0
  3 37  1  0
  4 38  1  0
  4 39  1  0
  5 40  1  0
  5 41  1  0
  6 42  1  0
  6 43  1  0
  8 44  1  0
  8 45  1  0
 11 46  1  0
 12 47  1  0
 12 48  1  0
 13 49  1  0
 14 50  1  0
 14 51  1  0
 15 52  1  0
 15 53  1  0
 16 54  1  0
 16 55  1  0
 18 56  1  0
 19 57  1  0
 20 58  1  0
 25 59  1  0
 26 60  1  0
 27 61  1  0
 28 62  1  0
 31 63  1  0
 31 64  1  0
M  END
$$$$
