
     RDKit          3D

 67 69  0  0  0  0  0  0  0  0999 V2000
   -3.7928   -0.3058    2.6138 C   0  0  0  0  0  0  0  0  0  0  0  0
   -3.8410   -0.3718    1.1923 O   0  0  0  0  0  0  0  0  0  0  0  0
   -4.7668    0.3157    0.3892 C   0  0  0  0  0  0  0  0  0  0  0  0
   -5.7783    1.1195    0.9530 C   0  0  0  0  0  0  0  0  0  0  0  0
   -6.7105    1.7617    0.1353 C   0  0  0  0  0  0  0  0  0  0  0  0
   -6.6493    1.6100   -1.2496 C   0  0  0  0  0  0  0  0  0  0  0  0
   -5.6502    0.8227   -1.8237 C   0  0  0  0  0  0  0  0  0  0  0  0
   -4.6939    0.1817   -1.0165 C   0  0  0  0  0  0  0  0  0  0  0  0
   -3.6422   -0.6452   -1.6575 C   0  0  0  0  0  0  0  0  0  0  0  0
   -3.9295   -1.3121   -2.6892 O   0  0  0  0  0  0  0  0  0  0  0  0
   -2.3051   -0.7101   -1.1246 N   0  0  0  0  0  0  0  0  0  0  0  0
   -1.6296   -2.0245   -1.1419 C   0  0  0  0  0  0  0  0  0  0  0  0
   -0.3315   -2.0577   -0.3236 C   0  0  0  0  0  0  0  0  0  0  0  0
    0.2530   -3.4712   -0.2125 C   0  0  0  0  0  0  0  0  0  0  0  0
    1.6594   -3.4452    0.4027 C   0  0  0  0  0  0  0  0  0  0  0  0
    1.6540   -2.7462    1.6910 N   0  0  0  0  0  0  0  0  0  0  0  0
    2.6555   -1.7986    2.0971 C   0  0  0  0  0  0  0  0  0  0  0  0
    2.5402   -1.2182    3.2085 O   0  0  0  0  0  0  0  0  0  0  0  0
    3.8510   -1.5354    1.2804 C   0  0  0  0  0  0  0  0  0  0  0  0
    5.0093   -2.2726    1.5743 C   0  0  0  0  0  0  0  0  0  0  0  0
    6.1527   -2.1469    0.7823 C   0  0  0  0  0  0  0  0  0  0  0  0
    7.5896   -3.0811    1.1583 Cl  0  0  0  0  0  0  0  0  0  0  0  0
    6.1460   -1.2895   -0.3180 C   0  0  0  0  0  0  0  0  0  0  0  0
    5.0030   -0.5478   -0.6189 C   0  0  0  0  0  0  0  0  0  0  0  0
    3.8545   -0.6393    0.1781 C   0  0  0  0  0  0  0  0  0  0  0  0
    2.7648    0.1652   -0.1922 O   0  0  0  0  0  0  0  0  0  0  0  0
    1.8324    0.7750    0.6993 C   0  0  0  0  0  0  0  0  0  0  0  0
    1.0776    1.9137   -0.0177 C   0  0  0  0  0  0  0  0  0  0  0  0
    1.8736    3.2537   -0.0262 C   0  0  0  0  0  0  0  0  0  0  0  0
    3.2772    3.1555   -0.6509 C   0  0  0  0  0  0  0  0  0  0  0  0
    1.0657    4.3672   -0.7105 C   0  0  0  0  0  0  0  0  0  0  0  0
    0.6946    1.5017   -1.3787 N   0  0  0  0  0  0  0  0  0  0  0  0
   -0.5648    0.9103   -1.7468 C   0  0  0  0  0  0  0  0  0  0  0  0
   -0.8098    0.7239   -2.9695 O   0  0  0  0  0  0  0  0  0  0  0  0
   -1.6197    0.5400   -0.7368 C   0  0  0  0  0  0  0  0  0  0  0  0
   -2.9562   -0.9375    2.9769 H   0  0  0  0  0  0  0  0  0  0  0  0
   -4.7416   -0.6883    3.0459 H   0  0  0  0  0  0  0  0  0  0  0  0
   -3.6155    0.7405    2.9409 H   0  0  0  0  0  0  0  0  0  0  0  0
   -5.8593    1.2473    2.0237 H   0  0  0  0  0  0  0  0  0  0  0  0
   -7.4862    2.3740    0.5773 H   0  0  0  0  0  0  0  0  0  0  0  0
   -7.3754    2.1070   -1.8810 H   0  0  0  0  0  0  0  0  0  0  0  0
   -5.6139    0.7242   -2.9021 H   0  0  0  0  0  0  0  0  0  0  0  0
   -2.3236   -2.7856   -0.7210 H   0  0  0  0  0  0  0  0  0  0  0  0
   -1.4060   -2.3050   -2.1946 H   0  0  0  0  0  0  0  0  0  0  0  0
    0.4201   -1.4025   -0.8103 H   0  0  0  0  0  0  0  0  0  0  0  0
   -0.5467   -1.6921    0.7028 H   0  0  0  0  0  0  0  0  0  0  0  0
   -0.4137   -4.1022    0.4148 H   0  0  0  0  0  0  0  0  0  0  0  0
    0.3172   -3.9318   -1.2226 H   0  0  0  0  0  0  0  0  0  0  0  0
    2.0095   -4.4874    0.5589 H   0  0  0  0  0  0  0  0  0  0  0  0
    2.3506   -2.9589   -0.3163 H   0  0  0  0  0  0  0  0  0  0  0  0
    0.9290   -3.0187    2.3936 H   0  0  0  0  0  0  0  0  0  0  0  0
    5.0167   -2.9619    2.4107 H   0  0  0  0  0  0  0  0  0  0  0  0
    7.0266   -1.1952   -0.9409 H   0  0  0  0  0  0  0  0  0  0  0  0
    5.0134    0.1197   -1.4715 H   0  0  0  0  0  0  0  0  0  0  0  0
    1.0955    0.0237    1.0390 H   0  0  0  0  0  0  0  0  0  0  0  0
    2.3605    1.1714    1.5940 H   0  0  0  0  0  0  0  0  0  0  0  0
    0.1625    2.1261    0.5759 H   0  0  0  0  0  0  0  0  0  0  0  0
    2.0132    3.5645    1.0336 H   0  0  0  0  0  0  0  0  0  0  0  0
    3.9189    2.4618   -0.0698 H   0  0  0  0  0  0  0  0  0  0  0  0
    3.7718    4.1505   -0.6272 H   0  0  0  0  0  0  0  0  0  0  0  0
    3.2339    2.8190   -1.7065 H   0  0  0  0  0  0  0  0  0  0  0  0
    0.9502    4.1625   -1.7959 H   0  0  0  0  0  0  0  0  0  0  0  0
    1.5806    5.3439   -0.5881 H   0  0  0  0  0  0  0  0  0  0  0  0
    0.0574    4.4506   -0.2517 H   0  0  0  0  0  0  0  0  0  0  0  0
    1.4094    1.5712   -2.1372 H   0  0  0  0  0  0  0  0  0  0  0  0
   -2.3353    1.3869   -0.6818 H   0  0  0  0  0  0  0  0  0  0  0  0
   -1.2025    0.4238    0.2798 H   0  0  0  0  0  0  0  0  0  0  0  0
  1  2  1  0
  2  3  1  0
  3  4  2  0
  4  5  1  0
  5  6  2  0
  6  7  1  0
  7  8  2  0
  8  9  1  0
  9 10  2  0
  9 11  1  0
 11 12  1  0
 12 13  1  0
 13 14  1  0
 14 15  1  0
 15 16  1  0
 16 17  1  0
 17 18  2  0
 17 19  1  0
 19 20  2  0
 20 21  1  0
 21 22  1  0
 21 23  2  0
 23 24  1  0
 24 25  2  0
 25 26  1  0
 26 27  1  0
 27 28  1  0
 28 29  1  0
 29 30  1  0
 29 31  1  0
 28 32  1  0
 32 33  1  0
 33 34  2  0
 33 35  1  0
  8  3  1  0
 35 11  1  0
 25 19  1  0
  1 36  1  0
  1 37  1  0
  1 38  1  0
  4 39  1  0
  5 40  1  0
  6 41  1  0
  7 42  1  0
 12 43  1  0
 12 44  1  0
 13 45  1  0
 13 46  1  0
 14 47  1  0
 14 48  1  0
 15 49  1  0
 15 50  1  0
 16 51  1  0
 20 52  1  0
 23 53  1  0
 24 54  1  0
 27 55  1  0
 27 56  1  0
 28 57  1  0
 29 58  1  0
 30 59  1  0
 30 60  1  0
 30 61  1  0
 31 62  1  0
 31 63  1  0
 31 64  1  0
 32 65  1  0
 35 66  1  0
 35 67  1  0
M  END
$$$$
