
     RDKit          3D

 85 87  0  0  0  0  0  0  0  0999 V2000
   10.0774   -0.0291    1.3914 C   0  0  0  0  0  0  0  0  0  0  0  0
    8.7263    0.3888    0.9260 C   0  0  0  0  0  0  0  0  0  0  0  0
    8.1516    1.6088    1.2725 C   0  0  0  0  0  0  0  0  0  0  0  0
    6.6023    1.6502    0.6207 S   0  0  0  0  0  0  0  0  0  0  0  0
    6.7338    0.1277   -0.0788 C   0  0  0  0  0  0  0  0  0  0  0  0
    5.6403   -0.5689   -0.8206 C   0  0  0  0  0  0  0  0  0  0  0  0
    4.8543   -1.4912    0.1239 C   0  0  0  0  0  0  0  0  0  0  0  0
    3.7568   -2.2664   -0.6125 C   0  0  0  0  0  0  0  0  0  0  0  0
    2.6934   -1.3618   -1.0473 N   0  0  0  0  0  0  0  0  0  0  0  0
    1.4715   -1.1756   -0.3140 C   0  0  0  0  0  0  0  0  0  0  0  0
    1.1997   -1.9157    0.6727 O   0  0  0  0  0  0  0  0  0  0  0  0
    0.4798   -0.1300   -0.7580 C   0  0  0  0  0  0  0  0  0  0  0  0
    0.0989    0.7612    0.4414 C   0  0  0  0  0  0  0  0  0  0  0  0
   -0.6486    2.0362    0.0200 C   0  0  0  0  0  0  0  0  0  0  0  0
   -0.7432    3.0106    1.1594 C   0  0  0  0  0  0  0  0  0  0  0  0
   -1.0253    2.6009    2.3173 O   0  0  0  0  0  0  0  0  0  0  0  0
   -0.6030    4.4183    0.9216 N   0  0  0  0  0  0  0  0  0  0  0  0
    0.3028    5.1922    1.7752 C   0  0  0  0  0  0  0  0  0  0  0  0
   -1.5037    5.1002   -0.0142 C   0  0  0  0  0  0  0  0  0  0  0  0
   -2.7061    5.6311    0.7249 C   0  0  0  0  0  0  0  0  0  0  0  0
   -2.6949    6.8319    1.1049 O   0  0  0  0  0  0  0  0  0  0  0  0
   -3.8137    4.7973    1.1094 N   0  0  0  0  0  0  0  0  0  0  0  0
   -4.2980    3.6389    0.3598 C   0  0  0  0  0  0  0  0  0  0  0  0
   -4.4809    2.4391    1.3031 C   0  0  0  0  0  0  0  0  0  0  0  0
   -5.3132    1.3128    0.6771 C   0  0  0  0  0  0  0  0  0  0  0  0
   -4.6199    0.6510   -0.5221 C   0  0  0  0  0  0  0  0  0  0  0  0
   -5.4774   -0.4598   -1.0601 C   0  0  0  0  0  0  0  0  0  0  0  0
   -6.2727   -0.2052   -2.0060 O   0  0  0  0  0  0  0  0  0  0  0  0
   -5.4873   -1.7720   -0.4791 N   0  0  0  0  0  0  0  0  0  0  0  0
   -4.3496   -2.3491    0.2498 C   0  0  0  0  0  0  0  0  0  0  0  0
   -4.8221   -3.5310    1.1044 C   0  0  0  0  0  0  0  0  0  0  0  0
   -3.2769   -2.7941   -0.7513 C   0  0  0  0  0  0  0  0  0  0  0  0
   -2.0547   -3.0947   -0.0760 O   0  0  0  0  0  0  0  0  0  0  0  0
   -0.9931   -3.7512   -0.7117 C   0  0  0  0  0  0  0  0  0  0  0  0
   -0.6067   -5.0059   -0.2233 C   0  0  0  0  0  0  0  0  0  0  0  0
    0.3897   -5.7417   -0.8687 C   0  0  0  0  0  0  0  0  0  0  0  0
    1.0206   -5.2163   -1.9959 C   0  0  0  0  0  0  0  0  0  0  0  0
    0.6687   -3.9507   -2.4751 C   0  0  0  0  0  0  0  0  0  0  0  0
   -0.3254   -3.1991   -1.8335 C   0  0  0  0  0  0  0  0  0  0  0  0
   -0.5982   -1.8269   -2.2986 C   0  0  0  0  0  0  0  0  0  0  0  0
   -0.7375   -1.5991   -3.5272 O   0  0  0  0  0  0  0  0  0  0  0  0
   -0.7100   -0.7465   -1.3638 N   0  0  0  0  0  0  0  0  0  0  0  0
    7.9321   -0.4366    0.1918 N   0  0  0  0  0  0  0  0  0  0  0  0
   10.4405   -0.8948    0.8025 H   0  0  0  0  0  0  0  0  0  0  0  0
   10.7903    0.8148    1.2773 H   0  0  0  0  0  0  0  0  0  0  0  0
   10.0335   -0.3205    2.4605 H   0  0  0  0  0  0  0  0  0  0  0  0
    8.6098    2.3833    1.8698 H   0  0  0  0  0  0  0  0  0  0  0  0
    6.0858   -1.1618   -1.6505 H   0  0  0  0  0  0  0  0  0  0  0  0
    4.9644    0.1965   -1.2604 H   0  0  0  0  0  0  0  0  0  0  0  0
    5.5548   -2.2279    0.5800 H   0  0  0  0  0  0  0  0  0  0  0  0
    4.3976   -0.8938    0.9468 H   0  0  0  0  0  0  0  0  0  0  0  0
    4.1826   -2.7860   -1.4986 H   0  0  0  0  0  0  0  0  0  0  0  0
    3.3479   -3.0511    0.0616 H   0  0  0  0  0  0  0  0  0  0  0  0
    2.8836   -0.7502   -1.8730 H   0  0  0  0  0  0  0  0  0  0  0  0
    0.9640    0.5146   -1.5239 H   0  0  0  0  0  0  0  0  0  0  0  0
    1.0340    1.0651    0.9698 H   0  0  0  0  0  0  0  0  0  0  0  0
   -0.5308    0.1788    1.1524 H   0  0  0  0  0  0  0  0  0  0  0  0
   -0.1192    2.5188   -0.8295 H   0  0  0  0  0  0  0  0  0  0  0  0
   -1.6763    1.7891   -0.3142 H   0  0  0  0  0  0  0  0  0  0  0  0
    0.2203    6.2805    1.5620 H   0  0  0  0  0  0  0  0  0  0  0  0
    0.0543    5.0256    2.8509 H   0  0  0  0  0  0  0  0  0  0  0  0
    1.3513    4.8722    1.5885 H   0  0  0  0  0  0  0  0  0  0  0  0
   -0.9621    5.9451   -0.4987 H   0  0  0  0  0  0  0  0  0  0  0  0
   -1.7903    4.4310   -0.8458 H   0  0  0  0  0  0  0  0  0  0  0  0
   -4.4624    5.1862    1.8298 H   0  0  0  0  0  0  0  0  0  0  0  0
   -3.6066    3.3710   -0.4587 H   0  0  0  0  0  0  0  0  0  0  0  0
   -5.2755    3.9018   -0.1030 H   0  0  0  0  0  0  0  0  0  0  0  0
   -5.0090    2.7738    2.2244 H   0  0  0  0  0  0  0  0  0  0  0  0
   -3.4885    2.0454    1.6072 H   0  0  0  0  0  0  0  0  0  0  0  0
   -6.2992    1.7161    0.3623 H   0  0  0  0  0  0  0  0  0  0  0  0
   -5.5015    0.5444    1.4585 H   0  0  0  0  0  0  0  0  0  0  0  0
   -3.6192    0.2798   -0.2362 H   0  0  0  0  0  0  0  0  0  0  0  0
   -4.4692    1.4008   -1.3247 H   0  0  0  0  0  0  0  0  0  0  0  0
   -6.2837   -2.3922   -0.7403 H   0  0  0  0  0  0  0  0  0  0  0  0
   -3.9209   -1.5969    0.9477 H   0  0  0  0  0  0  0  0  0  0  0  0
   -5.3250   -4.2904    0.4732 H   0  0  0  0  0  0  0  0  0  0  0  0
   -3.9601   -4.0064    1.6212 H   0  0  0  0  0  0  0  0  0  0  0  0
   -5.5424   -3.1758    1.8697 H   0  0  0  0  0  0  0  0  0  0  0  0
   -3.6321   -3.6905   -1.3036 H   0  0  0  0  0  0  0  0  0  0  0  0
   -3.1098   -1.9847   -1.4915 H   0  0  0  0  0  0  0  0  0  0  0  0
   -1.1048   -5.4234    0.6453 H   0  0  0  0  0  0  0  0  0  0  0  0
    0.6643   -6.7198   -0.4972 H   0  0  0  0  0  0  0  0  0  0  0  0
    1.7981   -5.7821   -2.4900 H   0  0  0  0  0  0  0  0  0  0  0  0
    1.1992   -3.5468   -3.3292 H   0  0  0  0  0  0  0  0  0  0  0  0
   -1.5257   -0.1180   -1.5222 H   0  0  0  0  0  0  0  0  0  0  0  0
  1  2  1  0
  2  3  2  0
  3  4  1  0
  4  5  1  0
  5  6  1  0
  6  7  1  0
  7  8  1  0
  8  9  1  0
  9 10  1  0
 10 11  2  0
 10 12  1  0
 12 13  1  0
 13 14  1  0
 14 15  1  0
 15 16  2  0
 15 17  1  0
 17 18  1  0
 17 19  1  0
 19 20  1  0
 20 21  2  0
 20 22  1  0
 22 23  1  0
 23 24  1  0
 24 25  1  0
 25 26  1  0
 26 27  1  0
 27 28  2  0
 27 29  1  0
 29 30  1  0
 30 31  1  0
 30 32  1  0
 32 33  1  0
 33 34  1  0
 34 35  2  0
 35 36  1  0
 36 37  2  0
 37 38  1  0
 38 39  2  0
 39 40  1  0
 40 41  2  0
 40 42  1  0
  5 43  2  0
 43  2  1  0
 42 12  1  0
 39 34  1  0
  1 44  1  0
  1 45  1  0
  1 46  1  0
  3 47  1  0
  6 48  1  0
  6 49  1  0
  7 50  1  0
  7 51  1  0
  8 52  1  0
  8 53  1  0
  9 54  1  0
 12 55  1  0
 13 56  1  0
 13 57  1  0
 14 58  1  0
 14 59  1  0
 18 60  1  0
 18 61  1  0
 18 62  1  0
 19 63  1  0
 19 64  1  0
 22 65  1  0
 23 66  1  0
 23 67  1  0
 24 68  1  0
 24 69  1  0
 25 70  1  0
 25 71  1  0
 26 72  1  0
 26 73  1  0
 29 74  1  0
 30 75  1  0
 31 76  1  0
 31 77  1  0
 31 78  1  0
 32 79  1  0
 32 80  1  0
 35 81  1  0
 36 82  1  0
 37 83  1  0
 38 84  1  0
 42 85  1  0
M  END
$$$$
