
     RDKit          3D

 65 68  0  0  0  0  0  0  0  0999 V2000
    5.0527    1.4868    2.0911 C   0  0  0  0  0  0  0  0  0  0  0  0
    5.1969    0.6912    0.7953 C   0  0  0  0  0  0  0  0  0  0  0  0
    3.8835    0.4380    0.1813 N   0  0  0  0  0  0  0  0  0  0  0  0
    3.2880    1.4535   -0.7023 C   0  0  0  0  0  0  0  0  0  0  0  0
    1.7926    1.6864   -0.4356 C   0  0  0  0  0  0  0  0  0  0  0  0
    1.4560    2.1554    0.9984 C   0  0  0  0  0  0  0  0  0  0  0  0
    0.5646    1.1730    1.7886 C   0  0  0  0  0  0  0  0  0  0  0  0
   -0.7492    0.9499    1.1569 N   0  0  0  0  0  0  0  0  0  0  0  0
   -1.5517    2.1046    0.8584 C   0  0  0  0  0  0  0  0  0  0  0  0
   -1.9719    2.8274    1.8012 O   0  0  0  0  0  0  0  0  0  0  0  0
   -1.9012    2.4402   -0.5312 C   0  0  0  0  0  0  0  0  0  0  0  0
   -2.8240    3.3863   -0.9250 C   0  0  0  0  0  0  0  0  0  0  0  0
   -2.7278    3.3689   -2.2979 C   0  0  0  0  0  0  0  0  0  0  0  0
   -3.4845    4.2353   -3.2457 C   0  0  0  0  0  0  0  0  0  0  0  0
   -1.8158    2.4964   -2.6503 O   0  0  0  0  0  0  0  0  0  0  0  0
   -1.2960    1.9165   -1.6097 N   0  0  0  0  0  0  0  0  0  0  0  0
   -1.3459   -0.4139    1.1679 C   0  0  0  0  0  0  0  0  0  0  0  0
   -2.8971   -0.3774    1.2284 C   0  0  0  0  0  0  0  0  0  0  0  0
   -3.5107   -1.7518    1.3479 C   0  0  0  0  0  0  0  0  0  0  0  0
   -3.4892   -2.4392    2.5715 C   0  0  0  0  0  0  0  0  0  0  0  0
   -4.0083   -3.7375    2.6575 C   0  0  0  0  0  0  0  0  0  0  0  0
   -4.5293   -4.3655    1.5243 C   0  0  0  0  0  0  0  0  0  0  0  0
   -4.5532   -3.6875    0.3005 C   0  0  0  0  0  0  0  0  0  0  0  0
   -4.0644   -2.3787    0.2163 C   0  0  0  0  0  0  0  0  0  0  0  0
   -0.8395   -1.2303   -0.0322 C   0  0  0  0  0  0  0  0  0  0  0  0
    0.5537   -1.4719    0.1187 O   0  0  0  0  0  0  0  0  0  0  0  0
    1.3923   -1.9004   -0.9161 C   0  0  0  0  0  0  0  0  0  0  0  0
    0.8978   -2.6173   -2.0181 C   0  0  0  0  0  0  0  0  0  0  0  0
    1.7666   -3.0268   -3.0351 C   0  0  0  0  0  0  0  0  0  0  0  0
    3.1248   -2.6998   -2.9714 C   0  0  0  0  0  0  0  0  0  0  0  0
    3.6203   -1.9747   -1.8849 C   0  0  0  0  0  0  0  0  0  0  0  0
    2.7621   -1.5917   -0.8450 C   0  0  0  0  0  0  0  0  0  0  0  0
    3.2976   -0.8677    0.3210 C   0  0  0  0  0  0  0  0  0  0  0  0
    3.2490   -1.4104    1.4580 O   0  0  0  0  0  0  0  0  0  0  0  0
    4.7284    2.5267    1.8749 H   0  0  0  0  0  0  0  0  0  0  0  0
    6.0315    1.5250    2.6083 H   0  0  0  0  0  0  0  0  0  0  0  0
    4.3139    0.9991    2.7670 H   0  0  0  0  0  0  0  0  0  0  0  0
    5.8512    1.2518    0.0802 H   0  0  0  0  0  0  0  0  0  0  0  0
    5.7100   -0.2744    1.0117 H   0  0  0  0  0  0  0  0  0  0  0  0
    3.8257    2.4176   -0.5943 H   0  0  0  0  0  0  0  0  0  0  0  0
    3.4104    1.1289   -1.7589 H   0  0  0  0  0  0  0  0  0  0  0  0
    1.2161    0.7930   -0.7166 H   0  0  0  0  0  0  0  0  0  0  0  0
    1.4563    2.4716   -1.1457 H   0  0  0  0  0  0  0  0  0  0  0  0
    0.9481    3.1424    0.9467 H   0  0  0  0  0  0  0  0  0  0  0  0
    2.3802    2.3234    1.5904 H   0  0  0  0  0  0  0  0  0  0  0  0
    0.4013    1.5934    2.8027 H   0  0  0  0  0  0  0  0  0  0  0  0
    1.1099    0.2167    1.9240 H   0  0  0  0  0  0  0  0  0  0  0  0
   -3.4458    4.0165   -0.3011 H   0  0  0  0  0  0  0  0  0  0  0  0
   -4.5387    4.3271   -2.9099 H   0  0  0  0  0  0  0  0  0  0  0  0
   -3.4609    3.7919   -4.2642 H   0  0  0  0  0  0  0  0  0  0  0  0
   -3.0239    5.2447   -3.2800 H   0  0  0  0  0  0  0  0  0  0  0  0
   -1.0086   -0.9389    2.0924 H   0  0  0  0  0  0  0  0  0  0  0  0
   -3.2085    0.2261    2.1098 H   0  0  0  0  0  0  0  0  0  0  0  0
   -3.3021    0.1336    0.3241 H   0  0  0  0  0  0  0  0  0  0  0  0
   -3.0731   -1.9748    3.4556 H   0  0  0  0  0  0  0  0  0  0  0  0
   -4.0137   -4.2501    3.6068 H   0  0  0  0  0  0  0  0  0  0  0  0
   -4.9180   -5.3766    1.5934 H   0  0  0  0  0  0  0  0  0  0  0  0
   -4.9630   -4.1639   -0.5826 H   0  0  0  0  0  0  0  0  0  0  0  0
   -4.0994   -1.8624   -0.7383 H   0  0  0  0  0  0  0  0  0  0  0  0
   -1.0314   -0.6726   -0.9691 H   0  0  0  0  0  0  0  0  0  0  0  0
   -1.3544   -2.2105   -0.1017 H   0  0  0  0  0  0  0  0  0  0  0  0
   -0.1433   -2.8961   -2.0726 H   0  0  0  0  0  0  0  0  0  0  0  0
    1.3901   -3.6111   -3.8624 H   0  0  0  0  0  0  0  0  0  0  0  0
    3.7996   -3.0358   -3.7505 H   0  0  0  0  0  0  0  0  0  0  0  0
    4.6733   -1.7298   -1.8430 H   0  0  0  0  0  0  0  0  0  0  0  0
  1  2  1  0
  2  3  1  0
  3  4  1  0
  4  5  1  0
  5  6  1  0
  6  7  1  0
  7  8  1  0
  8  9  1  0
  9 10  2  0
  9 11  1  0
 11 12  1  0
 12 13  2  0
 13 14  1  0
 13 15  1  0
 15 16  1  0
  8 17  1  0
 17 18  1  0
 18 19  1  0
 19 20  2  0
 20 21  1  0
 21 22  2  0
 22 23  1  0
 23 24  2  0
 17 25  1  0
 25 26  1  0
 26 27  1  0
 27 28  2  0
 28 29  1  0
 29 30  2  0
 30 31  1  0
 31 32  2  0
 32 33  1  0
 33 34  2  0
 33  3  1  0
 16 11  2  0
 24 19  1  0
 32 27  1  0
  1 35  1  0
  1 36  1  0
  1 37  1  0
  2 38  1  0
  2 39  1  0
  4 40  1  0
  4 41  1  0
  5 42  1  0
  5 43  1  0
  6 44  1  0
  6 45  1  0
  7 46  1  0
  7 47  1  0
 12 48  1  0
 14 49  1  0
 14 50  1  0
 14 51  1  0
 17 52  1  0
 18 53  1  0
 18 54  1  0
 20 55  1  0
 21 56  1  0
 22 57  1  0
 23 58  1  0
 24 59  1  0
 25 60  1  0
 25 61  1  0
 28 62  1  0
 29 63  1  0
 30 64  1  0
 31 65  1  0
M  END
$$$$
