
     RDKit          3D

 64 67  0  0  0  0  0  0  0  0999 V2000
   -0.2500   -1.5754   -2.6463 C   0  0  0  0  0  0  0  0  0  0  0  0
   -1.0108   -0.4812   -2.0238 N   0  0  0  0  0  0  0  0  0  0  0  0
   -2.1545    0.0959   -2.7558 C   0  0  0  0  0  0  0  0  0  0  0  0
   -3.2888   -0.9275   -2.9287 C   0  0  0  0  0  0  0  0  0  0  0  0
   -3.9790   -1.1146   -1.6905 O   0  0  0  0  0  0  0  0  0  0  0  0
   -4.8227   -0.1762   -1.0701 C   0  0  0  0  0  0  0  0  0  0  0  0
   -5.3175    0.9473   -1.7585 C   0  0  0  0  0  0  0  0  0  0  0  0
   -6.0855    1.9076   -1.1031 C   0  0  0  0  0  0  0  0  0  0  0  0
   -6.4023    1.7387    0.2452 C   0  0  0  0  0  0  0  0  0  0  0  0
   -5.9426    0.6199    0.9417 C   0  0  0  0  0  0  0  0  0  0  0  0
   -5.1560   -0.3515    0.2877 C   0  0  0  0  0  0  0  0  0  0  0  0
   -4.5892   -1.5204    1.0648 C   0  0  0  0  0  0  0  0  0  0  0  0
   -3.4585   -1.1061    2.0370 C   0  0  0  0  0  0  0  0  0  0  0  0
   -2.3491   -0.2215    1.4121 C   0  0  0  0  0  0  0  0  0  0  0  0
   -1.1130   -1.0120    0.9233 C   0  0  0  0  0  0  0  0  0  0  0  0
    0.0049   -0.0827    0.3449 C   0  0  0  0  0  0  0  0  0  0  0  0
    1.3757   -0.8456    0.3038 C   0  0  0  0  0  0  0  0  0  0  0  0
    2.4753    0.1300    0.2793 N   0  0  0  0  0  0  0  0  0  0  0  0
    3.5217    0.0507   -0.7150 C   0  0  0  0  0  0  0  0  0  0  0  0
    3.5367   -0.8972   -1.5434 O   0  0  0  0  0  0  0  0  0  0  0  0
    4.6166    1.0842   -0.8079 C   0  0  0  0  0  0  0  0  0  0  0  0
    5.7126    0.8136    0.1914 C   0  0  0  0  0  0  0  0  0  0  0  0
    6.5182   -0.3336    0.0595 C   0  0  0  0  0  0  0  0  0  0  0  0
    7.5589   -0.5714    0.9603 C   0  0  0  0  0  0  0  0  0  0  0  0
    7.8091    0.3393    1.9924 C   0  0  0  0  0  0  0  0  0  0  0  0
    7.0135    1.4792    2.1361 C   0  0  0  0  0  0  0  0  0  0  0  0
    5.9694    1.7187    1.2400 C   0  0  0  0  0  0  0  0  0  0  0  0
    2.4621    1.1738    1.3091 C   0  0  0  0  0  0  0  0  0  0  0  0
    1.1254    1.1535    2.0627 C   0  0  0  0  0  0  0  0  0  0  0  0
    0.0547    1.1159    1.1344 O   0  0  0  0  0  0  0  0  0  0  0  0
   -0.3271    0.3618   -1.0758 C   0  0  0  0  0  0  0  0  0  0  0  0
    0.0693    1.4991   -1.4596 O   0  0  0  0  0  0  0  0  0  0  0  0
   -0.3583   -2.5104   -2.0601 H   0  0  0  0  0  0  0  0  0  0  0  0
   -0.5806   -1.7543   -3.6888 H   0  0  0  0  0  0  0  0  0  0  0  0
    0.8200   -1.2998   -2.7117 H   0  0  0  0  0  0  0  0  0  0  0  0
   -1.8187    0.4578   -3.7533 H   0  0  0  0  0  0  0  0  0  0  0  0
   -2.5486    0.9896   -2.2131 H   0  0  0  0  0  0  0  0  0  0  0  0
   -3.9982   -0.6009   -3.7237 H   0  0  0  0  0  0  0  0  0  0  0  0
   -2.8799   -1.9044   -3.2651 H   0  0  0  0  0  0  0  0  0  0  0  0
   -5.1005    1.0867   -2.8075 H   0  0  0  0  0  0  0  0  0  0  0  0
   -6.4376    2.7752   -1.6464 H   0  0  0  0  0  0  0  0  0  0  0  0
   -7.0038    2.4851    0.7469 H   0  0  0  0  0  0  0  0  0  0  0  0
   -6.1831    0.5135    1.9919 H   0  0  0  0  0  0  0  0  0  0  0  0
   -4.2044   -2.3143    0.3769 H   0  0  0  0  0  0  0  0  0  0  0  0
   -5.4006   -1.9968    1.6548 H   0  0  0  0  0  0  0  0  0  0  0  0
   -3.0141   -2.0369    2.4552 H   0  0  0  0  0  0  0  0  0  0  0  0
   -3.9088   -0.5448    2.9018 H   0  0  0  0  0  0  0  0  0  0  0  0
   -2.0032    0.4336    2.2440 H   0  0  0  0  0  0  0  0  0  0  0  0
   -2.7208    0.4824    0.6383 H   0  0  0  0  0  0  0  0  0  0  0  0
   -0.7079   -1.5667    1.7911 H   0  0  0  0  0  0  0  0  0  0  0  0
   -1.4184   -1.7840    0.1897 H   0  0  0  0  0  0  0  0  0  0  0  0
    1.4299   -1.5579   -0.5403 H   0  0  0  0  0  0  0  0  0  0  0  0
    1.5007   -1.4714    1.2158 H   0  0  0  0  0  0  0  0  0  0  0  0
    5.0580    1.0477   -1.8239 H   0  0  0  0  0  0  0  0  0  0  0  0
    4.1975    2.1080   -0.6922 H   0  0  0  0  0  0  0  0  0  0  0  0
    6.3542   -1.0375   -0.7475 H   0  0  0  0  0  0  0  0  0  0  0  0
    8.1854   -1.4495    0.8448 H   0  0  0  0  0  0  0  0  0  0  0  0
    8.6256    0.1668    2.6811 H   0  0  0  0  0  0  0  0  0  0  0  0
    7.2192    2.1836    2.9362 H   0  0  0  0  0  0  0  0  0  0  0  0
    5.3675    2.6131    1.3644 H   0  0  0  0  0  0  0  0  0  0  0  0
    2.5531    2.1731    0.8344 H   0  0  0  0  0  0  0  0  0  0  0  0
    3.2997    1.0179    2.0183 H   0  0  0  0  0  0  0  0  0  0  0  0
    1.0654    0.2903    2.7715 H   0  0  0  0  0  0  0  0  0  0  0  0
    1.0340    2.0789    2.6691 H   0  0  0  0  0  0  0  0  0  0  0  0
  1  2  1  0
  2  3  1  0
  3  4  1  0
  4  5  1  0
  5  6  1  0
  6  7  2  0
  7  8  1  0
  8  9  2  0
  9 10  1  0
 10 11  2  0
 11 12  1  0
 12 13  1  0
 13 14  1  0
 14 15  1  0
 15 16  1  0
 16 17  1  0
 17 18  1  0
 18 19  1  0
 19 20  2  0
 19 21  1  0
 21 22  1  0
 22 23  2  0
 23 24  1  0
 24 25  2  0
 25 26  1  0
 26 27  2  0
 18 28  1  0
 28 29  1  0
 29 30  1  0
 16 31  1  0
 31 32  2  0
 31  2  1  0
 11  6  1  0
 30 16  1  0
 27 22  1  0
  1 33  1  0
  1 34  1  0
  1 35  1  0
  3 36  1  0
  3 37  1  0
  4 38  1  0
  4 39  1  0
  7 40  1  0
  8 41  1  0
  9 42  1  0
 10 43  1  0
 12 44  1  0
 12 45  1  0
 13 46  1  0
 13 47  1  0
 14 48  1  0
 14 49  1  0
 15 50  1  0
 15 51  1  0
 17 52  1  0
 17 53  1  0
 21 54  1  0
 21 55  1  0
 23 56  1  0
 24 57  1  0
 25 58  1  0
 26 59  1  0
 27 60  1  0
 28 61  1  0
 28 62  1  0
 29 63  1  0
 29 64  1  0
M  END
$$$$
