
     RDKit          3D

 91 94  0  0  0  0  0  0  0  0999 V2000
  -10.7490    2.8803    1.1187 C   0  0  0  0  0  0  0  0  0  0  0  0
   -9.9033    1.6440    1.3733 C   0  0  0  0  0  0  0  0  0  0  0  0
   -8.5222    1.9775    1.2448 O   0  0  0  0  0  0  0  0  0  0  0  0
   -7.4680    1.0575    1.3615 C   0  0  0  0  0  0  0  0  0  0  0  0
   -7.6906   -0.3018    1.6572 C   0  0  0  0  0  0  0  0  0  0  0  0
   -6.6191   -1.1936    1.7287 C   0  0  0  0  0  0  0  0  0  0  0  0
   -5.3085   -0.7434    1.5229 C   0  0  0  0  0  0  0  0  0  0  0  0
   -4.1638   -1.7223    1.5206 C   0  0  0  0  0  0  0  0  0  0  0  0
   -4.0103   -2.3612    0.1332 C   0  0  0  0  0  0  0  0  0  0  0  0
   -2.8301   -3.3385    0.0770 C   0  0  0  0  0  0  0  0  0  0  0  0
   -1.5606   -2.6154    0.0107 N   0  0  0  0  0  0  0  0  0  0  0  0
   -0.9639   -2.2200   -1.2392 C   0  0  0  0  0  0  0  0  0  0  0  0
   -1.5485   -2.4835   -2.3239 O   0  0  0  0  0  0  0  0  0  0  0  0
    0.3733   -1.5084   -1.2848 C   0  0  0  0  0  0  0  0  0  0  0  0
    1.4624   -2.2386   -0.4619 C   0  0  0  0  0  0  0  0  0  0  0  0
    2.2603   -3.1682   -1.3336 C   0  0  0  0  0  0  0  0  0  0  0  0
    2.0055   -4.4030   -1.3010 O   0  0  0  0  0  0  0  0  0  0  0  0
    3.2354   -2.6690   -2.2720 N   0  0  0  0  0  0  0  0  0  0  0  0
    3.5841   -3.4049   -3.4759 C   0  0  0  0  0  0  0  0  0  0  0  0
    4.5142   -2.4948   -4.2664 C   0  0  0  0  0  0  0  0  0  0  0  0
    4.3474   -1.1034   -3.6624 C   0  0  0  0  0  0  0  0  0  0  0  0
    3.8199   -1.3323   -2.2426 C   0  0  0  0  0  0  0  0  0  0  0  0
    4.9203   -1.2779   -1.2114 C   0  0  0  0  0  0  0  0  0  0  0  0
    6.0715   -1.7128   -1.4880 O   0  0  0  0  0  0  0  0  0  0  0  0
    4.6223   -0.9100    0.1368 N   0  0  0  0  0  0  0  0  0  0  0  0
    4.7691    0.4418    0.6893 C   0  0  0  0  0  0  0  0  0  0  0  0
    6.2635    0.8912    0.7174 C   0  0  0  0  0  0  0  0  0  0  0  0
    6.7370    1.9668   -0.3000 C   0  0  0  0  0  0  0  0  0  0  0  0
    8.0945    2.5349    0.1433 C   0  0  0  0  0  0  0  0  0  0  0  0
    6.8637    1.4169   -1.7252 C   0  0  0  0  0  0  0  0  0  0  0  0
    3.7769    1.4404    0.0539 C   0  0  0  0  0  0  0  0  0  0  0  0
    2.4213    1.0429    0.2725 O   0  0  0  0  0  0  0  0  0  0  0  0
    1.6697    1.2611    1.4426 C   0  0  0  0  0  0  0  0  0  0  0  0
    2.2520    1.8447    2.5895 C   0  0  0  0  0  0  0  0  0  0  0  0
    1.4993    2.0513    3.7461 C   0  0  0  0  0  0  0  0  0  0  0  0
    0.1587    1.6841    3.7820 C   0  0  0  0  0  0  0  0  0  0  0  0
   -0.4431    1.1255    2.6555 C   0  0  0  0  0  0  0  0  0  0  0  0
    0.2928    0.9073    1.4717 C   0  0  0  0  0  0  0  0  0  0  0  0
   -0.4243    0.3431    0.2928 C   0  0  0  0  0  0  0  0  0  0  0  0
   -1.6825    0.2937    0.2966 O   0  0  0  0  0  0  0  0  0  0  0  0
    0.2663   -0.1019   -0.8771 N   0  0  0  0  0  0  0  0  0  0  0  0
   -5.0803    0.6134    1.2463 C   0  0  0  0  0  0  0  0  0  0  0  0
   -6.1560    1.5190    1.1660 C   0  0  0  0  0  0  0  0  0  0  0  0
   -5.9621    2.8818    0.8860 O   0  0  0  0  0  0  0  0  0  0  0  0
   -4.6945    3.4887    0.6524 C   0  0  0  0  0  0  0  0  0  0  0  0
  -11.8237    2.6315    1.2433 H   0  0  0  0  0  0  0  0  0  0  0  0
  -10.4789    3.6812    1.8376 H   0  0  0  0  0  0  0  0  0  0  0  0
  -10.5835    3.2470    0.0832 H   0  0  0  0  0  0  0  0  0  0  0  0
  -10.1047    1.2666    2.3993 H   0  0  0  0  0  0  0  0  0  0  0  0
  -10.1757    0.8609    0.6316 H   0  0  0  0  0  0  0  0  0  0  0  0
   -8.6885   -0.6830    1.8218 H   0  0  0  0  0  0  0  0  0  0  0  0
   -6.8108   -2.2399    1.9359 H   0  0  0  0  0  0  0  0  0  0  0  0
   -3.2224   -1.2105    1.8135 H   0  0  0  0  0  0  0  0  0  0  0  0
   -4.3507   -2.5157    2.2774 H   0  0  0  0  0  0  0  0  0  0  0  0
   -3.8771   -1.5737   -0.6400 H   0  0  0  0  0  0  0  0  0  0  0  0
   -4.9407   -2.9200   -0.1078 H   0  0  0  0  0  0  0  0  0  0  0  0
   -2.8379   -3.9966    0.9729 H   0  0  0  0  0  0  0  0  0  0  0  0
   -2.9383   -4.0005   -0.8107 H   0  0  0  0  0  0  0  0  0  0  0  0
   -1.1069   -2.3497    0.9138 H   0  0  0  0  0  0  0  0  0  0  0  0
    0.6958   -1.4959   -2.3517 H   0  0  0  0  0  0  0  0  0  0  0  0
    2.1429   -1.5056    0.0030 H   0  0  0  0  0  0  0  0  0  0  0  0
    1.0331   -2.8132    0.3864 H   0  0  0  0  0  0  0  0  0  0  0  0
    4.0913   -4.3585   -3.2138 H   0  0  0  0  0  0  0  0  0  0  0  0
    2.6636   -3.6131   -4.0648 H   0  0  0  0  0  0  0  0  0  0  0  0
    5.5658   -2.8327   -4.1396 H   0  0  0  0  0  0  0  0  0  0  0  0
    4.2614   -2.4983   -5.3471 H   0  0  0  0  0  0  0  0  0  0  0  0
    5.3018   -0.5349   -3.6966 H   0  0  0  0  0  0  0  0  0  0  0  0
    3.5854   -0.5429   -4.2490 H   0  0  0  0  0  0  0  0  0  0  0  0
    3.0462   -0.5685   -2.0223 H   0  0  0  0  0  0  0  0  0  0  0  0
    4.4481   -1.6921    0.8076 H   0  0  0  0  0  0  0  0  0  0  0  0
    4.4717    0.3613    1.7565 H   0  0  0  0  0  0  0  0  0  0  0  0
    6.9238    0.0017    0.6390 H   0  0  0  0  0  0  0  0  0  0  0  0
    6.4502    1.2999    1.7342 H   0  0  0  0  0  0  0  0  0  0  0  0
    6.0296    2.8211   -0.3125 H   0  0  0  0  0  0  0  0  0  0  0  0
    8.4398    3.3180   -0.5664 H   0  0  0  0  0  0  0  0  0  0  0  0
    8.8605    1.7300    0.1881 H   0  0  0  0  0  0  0  0  0  0  0  0
    8.0090    3.0040    1.1474 H   0  0  0  0  0  0  0  0  0  0  0  0
    7.5516    0.5437   -1.7536 H   0  0  0  0  0  0  0  0  0  0  0  0
    5.8749    1.1168   -2.1185 H   0  0  0  0  0  0  0  0  0  0  0  0
    7.2613    2.2008   -2.4049 H   0  0  0  0  0  0  0  0  0  0  0  0
    3.9314    2.4664    0.4491 H   0  0  0  0  0  0  0  0  0  0  0  0
    3.9389    1.4878   -1.0390 H   0  0  0  0  0  0  0  0  0  0  0  0
    3.2878    2.1489    2.6049 H   0  0  0  0  0  0  0  0  0  0  0  0
    1.9606    2.4935    4.6195 H   0  0  0  0  0  0  0  0  0  0  0  0
   -0.4227    1.8421    4.6816 H   0  0  0  0  0  0  0  0  0  0  0  0
   -1.4913    0.8617    2.7136 H   0  0  0  0  0  0  0  0  0  0  0  0
    0.6916    0.6251   -1.4923 H   0  0  0  0  0  0  0  0  0  0  0  0
   -4.0675    0.9546    1.0854 H   0  0  0  0  0  0  0  0  0  0  0  0
   -4.2140    3.0325   -0.2390 H   0  0  0  0  0  0  0  0  0  0  0  0
   -4.8416    4.5724    0.4616 H   0  0  0  0  0  0  0  0  0  0  0  0
   -4.0425    3.3722    1.5440 H   0  0  0  0  0  0  0  0  0  0  0  0
  1  2  1  0
  2  3  1  0
  3  4  1  0
  4  5  2  0
  5  6  1  0
  6  7  2  0
  7  8  1  0
  8  9  1  0
  9 10  1  0
 10 11  1  0
 11 12  1  0
 12 13  2  0
 12 14  1  0
 14 15  1  0
 15 16  1  0
 16 17  2  0
 16 18  1  0
 18 19  1  0
 19 20  1  0
 20 21  1  0
 21 22  1  0
 22 23  1  0
 23 24  2  0
 23 25  1  0
 25 26  1  0
 26 27  1  0
 27 28  1  0
 28 29  1  0
 28 30  1  0
 26 31  1  0
 31 32  1  0
 32 33  1  0
 33 34  2  0
 34 35  1  0
 35 36  2  0
 36 37  1  0
 37 38  2  0
 38 39  1  0
 39 40  2  0
 39 41  1  0
  7 42  1  0
 42 43  2  0
 43 44  1  0
 44 45  1  0
 43  4  1  0
 41 14  1  0
 22 18  1  0
 38 33  1  0
  1 46  1  0
  1 47  1  0
  1 48  1  0
  2 49  1  0
  2 50  1  0
  5 51  1  0
  6 52  1  0
  8 53  1  0
  8 54  1  0
  9 55  1  0
  9 56  1  0
 10 57  1  0
 10 58  1  0
 11 59  1  0
 14 60  1  0
 15 61  1  0
 15 62  1  0
 19 63  1  0
 19 64  1  0
 20 65  1  0
 20 66  1  0
 21 67  1  0
 21 68  1  0
 22 69  1  0
 25 70  1  0
 26 71  1  0
 27 72  1  0
 27 73  1  0
 28 74  1  0
 29 75  1  0
 29 76  1  0
 29 77  1  0
 30 78  1  0
 30 79  1  0
 30 80  1  0
 31 81  1  0
 31 82  1  0
 34 83  1  0
 35 84  1  0
 36 85  1  0
 37 86  1  0
 41 87  1  0
 42 88  1  0
 45 89  1  0
 45 90  1  0
 45 91  1  0
M  END
$$$$
