
     RDKit          3D

 58 60  0  0  0  0  0  0  0  0999 V2000
   -1.9170    4.0559   -0.9934 C   0  0  0  0  0  0  0  0  0  0  0  0
   -1.7066    3.1915    0.2574 C   0  0  0  0  0  0  0  0  0  0  0  0
   -1.2060    4.0084    1.2860 O   0  0  0  0  0  0  0  0  0  0  0  0
   -0.7083    2.0305   -0.0051 C   0  0  0  0  0  0  0  0  0  0  0  0
   -1.0759    1.2460   -1.1963 N   0  0  0  0  0  0  0  0  0  0  0  0
   -2.3818    0.7137   -1.4798 C   0  0  0  0  0  0  0  0  0  0  0  0
   -2.7831    0.6847   -2.6737 O   0  0  0  0  0  0  0  0  0  0  0  0
   -3.2549    0.1550   -0.4341 C   0  0  0  0  0  0  0  0  0  0  0  0
   -4.4548    0.8079   -0.1151 C   0  0  0  0  0  0  0  0  0  0  0  0
   -5.3321    0.2520    0.8173 C   0  0  0  0  0  0  0  0  0  0  0  0
   -5.0308   -0.9713    1.4168 C   0  0  0  0  0  0  0  0  0  0  0  0
   -3.8593   -1.6519    1.0742 C   0  0  0  0  0  0  0  0  0  0  0  0
   -2.9705   -1.1030    0.1291 C   0  0  0  0  0  0  0  0  0  0  0  0
   -1.7901   -1.7547   -0.2568 O   0  0  0  0  0  0  0  0  0  0  0  0
   -1.5740   -3.1646   -0.3078 C   0  0  0  0  0  0  0  0  0  0  0  0
   -0.1071   -3.4821    0.0113 C   0  0  0  0  0  0  0  0  0  0  0  0
    0.8006   -2.4449   -0.4964 N   0  0  0  0  0  0  0  0  0  0  0  0
    0.9141   -2.1830   -1.9304 C   0  0  0  0  0  0  0  0  0  0  0  0
    1.7371   -1.8345    0.4037 C   0  0  0  0  0  0  0  0  0  0  0  0
    2.7332   -2.4983    0.7983 O   0  0  0  0  0  0  0  0  0  0  0  0
    1.5389   -0.4204    0.9048 C   0  0  0  0  0  0  0  0  0  0  0  0
    2.2328    0.6077   -0.0135 C   0  0  0  0  0  0  0  0  0  0  0  0
    3.6970    0.3023   -0.2191 C   0  0  0  0  0  0  0  0  0  0  0  0
    4.1545   -0.2031   -1.4478 C   0  0  0  0  0  0  0  0  0  0  0  0
    5.5082   -0.5051   -1.6251 C   0  0  0  0  0  0  0  0  0  0  0  0
    6.4138   -0.3048   -0.5799 C   0  0  0  0  0  0  0  0  0  0  0  0
    5.9673    0.1974    0.6451 C   0  0  0  0  0  0  0  0  0  0  0  0
    4.6144    0.5000    0.8273 C   0  0  0  0  0  0  0  0  0  0  0  0
    0.1007   -0.1659    1.0842 N   0  0  0  0  0  0  0  0  0  0  0  0
   -0.5075    1.1298    1.2020 C   0  0  0  0  0  0  0  0  0  0  0  0
   -0.9163    1.4973    2.3364 O   0  0  0  0  0  0  0  0  0  0  0  0
   -2.5928    4.9046   -0.7543 H   0  0  0  0  0  0  0  0  0  0  0  0
   -2.3892    3.4709   -1.8087 H   0  0  0  0  0  0  0  0  0  0  0  0
   -0.9472    4.4644   -1.3504 H   0  0  0  0  0  0  0  0  0  0  0  0
   -2.6862    2.7665    0.5663 H   0  0  0  0  0  0  0  0  0  0  0  0
   -1.9764    4.5152    1.6549 H   0  0  0  0  0  0  0  0  0  0  0  0
    0.2640    2.5214   -0.2119 H   0  0  0  0  0  0  0  0  0  0  0  0
   -0.4072    1.2792   -1.9989 H   0  0  0  0  0  0  0  0  0  0  0  0
   -4.7061    1.7518   -0.5840 H   0  0  0  0  0  0  0  0  0  0  0  0
   -6.2475    0.7687    1.0736 H   0  0  0  0  0  0  0  0  0  0  0  0
   -5.7082   -1.3952    2.1469 H   0  0  0  0  0  0  0  0  0  0  0  0
   -3.6481   -2.5853    1.5729 H   0  0  0  0  0  0  0  0  0  0  0  0
   -1.8243   -3.5235   -1.3283 H   0  0  0  0  0  0  0  0  0  0  0  0
   -2.2128   -3.7168    0.4071 H   0  0  0  0  0  0  0  0  0  0  0  0
   -0.0033   -3.5672    1.1163 H   0  0  0  0  0  0  0  0  0  0  0  0
    0.1693   -4.4661   -0.4247 H   0  0  0  0  0  0  0  0  0  0  0  0
    0.2431   -2.8498   -2.5118 H   0  0  0  0  0  0  0  0  0  0  0  0
    1.9572   -2.3644   -2.2658 H   0  0  0  0  0  0  0  0  0  0  0  0
    0.6328   -1.1317   -2.1430 H   0  0  0  0  0  0  0  0  0  0  0  0
    2.0130   -0.3469    1.9091 H   0  0  0  0  0  0  0  0  0  0  0  0
    1.7117    0.6598   -0.9910 H   0  0  0  0  0  0  0  0  0  0  0  0
    2.1731    1.6095    0.4602 H   0  0  0  0  0  0  0  0  0  0  0  0
    3.4658   -0.3626   -2.2675 H   0  0  0  0  0  0  0  0  0  0  0  0
    5.8550   -0.8948   -2.5733 H   0  0  0  0  0  0  0  0  0  0  0  0
    7.4614   -0.5385   -0.7195 H   0  0  0  0  0  0  0  0  0  0  0  0
    6.6695    0.3514    1.4544 H   0  0  0  0  0  0  0  0  0  0  0  0
    4.2806    0.8857    1.7828 H   0  0  0  0  0  0  0  0  0  0  0  0
   -0.3839   -0.8988    1.6503 H   0  0  0  0  0  0  0  0  0  0  0  0
  1  2  1  0
  2  3  1  0
  2  4  1  0
  4  5  1  0
  5  6  1  0
  6  7  2  0
  6  8  1  0
  8  9  2  0
  9 10  1  0
 10 11  2  0
 11 12  1  0
 12 13  2  0
 13 14  1  0
 14 15  1  0
 15 16  1  0
 16 17  1  0
 17 18  1  0
 17 19  1  0
 19 20  2  0
 19 21  1  0
 21 22  1  0
 22 23  1  0
 23 24  2  0
 24 25  1  0
 25 26  2  0
 26 27  1  0
 27 28  2  0
 21 29  1  0
 29 30  1  0
 30 31  2  0
 30  4  1  0
 13  8  1  0
 28 23  1  0
  1 32  1  0
  1 33  1  0
  1 34  1  0
  2 35  1  0
  3 36  1  0
  4 37  1  0
  5 38  1  0
  9 39  1  0
 10 40  1  0
 11 41  1  0
 12 42  1  0
 15 43  1  0
 15 44  1  0
 16 45  1  0
 16 46  1  0
 18 47  1  0
 18 48  1  0
 18 49  1  0
 21 50  1  0
 22 51  1  0
 22 52  1  0
 24 53  1  0
 25 54  1  0
 26 55  1  0
 27 56  1  0
 28 57  1  0
 29 58  1  0
M  END
$$$$
