
     RDKit          3D

 79 82  0  0  0  0  0  0  0  0999 V2000
   -0.3700   -4.6098    3.0355 C   0  0  0  0  0  0  0  0  0  0  0  0
   -1.0557   -3.3639    3.5975 C   0  0  0  0  0  0  0  0  0  0  0  0
   -1.2034   -2.2523    2.5486 C   0  0  0  0  0  0  0  0  0  0  0  0
   -2.3309   -2.5194    1.5486 C   0  0  0  0  0  0  0  0  0  0  0  0
   -2.4199   -1.4212    0.5736 N   0  0  0  0  0  0  0  0  0  0  0  0
   -3.7244   -0.7795    0.3378 C   0  0  0  0  0  0  0  0  0  0  0  0
   -3.8531    0.5479    1.1037 C   0  0  0  0  0  0  0  0  0  0  0  0
   -3.6590    1.6662    0.2322 O   0  0  0  0  0  0  0  0  0  0  0  0
   -4.5287    2.0490   -0.8039 C   0  0  0  0  0  0  0  0  0  0  0  0
   -5.8441    1.5450   -0.8890 C   0  0  0  0  0  0  0  0  0  0  0  0
   -6.6984    1.9610   -1.9116 C   0  0  0  0  0  0  0  0  0  0  0  0
   -6.2557    2.8846   -2.8580 C   0  0  0  0  0  0  0  0  0  0  0  0
   -4.9553    3.3855   -2.7930 C   0  0  0  0  0  0  0  0  0  0  0  0
   -4.0770    2.9690   -1.7785 C   0  0  0  0  0  0  0  0  0  0  0  0
   -2.6564    3.4956   -1.7799 C   0  0  0  0  0  0  0  0  0  0  0  0
   -1.8245    2.9144   -2.9509 C   0  0  0  0  0  0  0  0  0  0  0  0
   -0.7203    1.9502   -2.4849 C   0  0  0  0  0  0  0  0  0  0  0  0
   -1.2655    0.5741   -2.0394 C   0  0  0  0  0  0  0  0  0  0  0  0
   -0.6812    0.0491   -0.6981 C   0  0  0  0  0  0  0  0  0  0  0  0
    0.8586   -0.1964   -0.8312 C   0  0  0  0  0  0  0  0  0  0  0  0
    1.4338   -0.4004    0.5019 N   0  0  0  0  0  0  0  0  0  0  0  0
    2.3727   -1.4523    0.7906 C   0  0  0  0  0  0  0  0  0  0  0  0
    2.4354   -1.9218    1.9593 O   0  0  0  0  0  0  0  0  0  0  0  0
    3.2579   -2.0324   -0.2842 C   0  0  0  0  0  0  0  0  0  0  0  0
    4.6600   -2.3792    0.2368 C   0  0  0  0  0  0  0  0  0  0  0  0
    5.4011   -1.1519    0.6874 C   0  0  0  0  0  0  0  0  0  0  0  0
    5.4854   -0.6764    1.9855 C   0  0  0  0  0  0  0  0  0  0  0  0
    6.1405    0.5027    1.9856 N   0  0  0  0  0  0  0  0  0  0  0  0
    6.4645    0.7891    0.7345 N   0  0  0  0  0  0  0  0  0  0  0  0
    7.1767    2.0005    0.3438 C   0  0  0  0  0  0  0  0  0  0  0  0
    6.0426   -0.1983   -0.0832 C   0  0  0  0  0  0  0  0  0  0  0  0
    6.1409   -0.1735   -1.5816 C   0  0  0  0  0  0  0  0  0  0  0  0
    1.0492    0.5286    1.5647 C   0  0  0  0  0  0  0  0  0  0  0  0
    0.0540    1.5644    1.0389 C   0  0  0  0  0  0  0  0  0  0  0  0
   -1.0331    0.9685    0.3440 O   0  0  0  0  0  0  0  0  0  0  0  0
   -1.3649   -1.2893   -0.4022 C   0  0  0  0  0  0  0  0  0  0  0  0
   -1.0094   -2.3184   -1.0450 O   0  0  0  0  0  0  0  0  0  0  0  0
   -0.9971   -5.0951    2.2595 H   0  0  0  0  0  0  0  0  0  0  0  0
    0.6185   -4.3452    2.5978 H   0  0  0  0  0  0  0  0  0  0  0  0
   -0.1948   -5.3350    3.8588 H   0  0  0  0  0  0  0  0  0  0  0  0
   -2.0482   -3.6422    4.0104 H   0  0  0  0  0  0  0  0  0  0  0  0
   -0.4367   -2.9791    4.4379 H   0  0  0  0  0  0  0  0  0  0  0  0
   -0.2457   -2.1381    2.0004 H   0  0  0  0  0  0  0  0  0  0  0  0
   -1.4233   -1.2961    3.0747 H   0  0  0  0  0  0  0  0  0  0  0  0
   -3.2824   -2.6286    2.1082 H   0  0  0  0  0  0  0  0  0  0  0  0
   -2.1504   -3.4760    1.0128 H   0  0  0  0  0  0  0  0  0  0  0  0
   -3.8928   -0.6407   -0.7538 H   0  0  0  0  0  0  0  0  0  0  0  0
   -4.5484   -1.4547    0.6709 H   0  0  0  0  0  0  0  0  0  0  0  0
   -4.8430    0.6154    1.6117 H   0  0  0  0  0  0  0  0  0  0  0  0
   -3.0956    0.5897    1.9143 H   0  0  0  0  0  0  0  0  0  0  0  0
   -6.2236    0.8413   -0.1611 H   0  0  0  0  0  0  0  0  0  0  0  0
   -7.7095    1.5731   -1.9617 H   0  0  0  0  0  0  0  0  0  0  0  0
   -6.9206    3.2120   -3.6459 H   0  0  0  0  0  0  0  0  0  0  0  0
   -4.6257    4.0924   -3.5446 H   0  0  0  0  0  0  0  0  0  0  0  0
   -2.1575    3.3082   -0.8006 H   0  0  0  0  0  0  0  0  0  0  0  0
   -2.6956    4.6041   -1.8889 H   0  0  0  0  0  0  0  0  0  0  0  0
   -1.3276    3.7586   -3.4787 H   0  0  0  0  0  0  0  0  0  0  0  0
   -2.4721    2.4097   -3.7045 H   0  0  0  0  0  0  0  0  0  0  0  0
   -0.1351    2.4480   -1.6912 H   0  0  0  0  0  0  0  0  0  0  0  0
   -0.0157    1.7946   -3.3334 H   0  0  0  0  0  0  0  0  0  0  0  0
   -2.3706    0.6196   -1.9551 H   0  0  0  0  0  0  0  0  0  0  0  0
   -1.0594   -0.1635   -2.8469 H   0  0  0  0  0  0  0  0  0  0  0  0
    1.3615    0.6768   -1.2917 H   0  0  0  0  0  0  0  0  0  0  0  0
    1.0651   -1.0570   -1.5014 H   0  0  0  0  0  0  0  0  0  0  0  0
    2.7776   -2.9539   -0.6765 H   0  0  0  0  0  0  0  0  0  0  0  0
    3.3613   -1.3136   -1.1259 H   0  0  0  0  0  0  0  0  0  0  0  0
    5.2392   -2.8830   -0.5663 H   0  0  0  0  0  0  0  0  0  0  0  0
    4.5860   -3.1033    1.0780 H   0  0  0  0  0  0  0  0  0  0  0  0
    5.0711   -1.1480    2.8667 H   0  0  0  0  0  0  0  0  0  0  0  0
    7.2294    2.7074    1.1980 H   0  0  0  0  0  0  0  0  0  0  0  0
    8.2068    1.7438    0.0280 H   0  0  0  0  0  0  0  0  0  0  0  0
    6.6457    2.4957   -0.4950 H   0  0  0  0  0  0  0  0  0  0  0  0
    6.0332   -1.1949   -2.0040 H   0  0  0  0  0  0  0  0  0  0  0  0
    5.3367    0.4723   -1.9973 H   0  0  0  0  0  0  0  0  0  0  0  0
    7.1317    0.2243   -1.8886 H   0  0  0  0  0  0  0  0  0  0  0  0
    0.5867   -0.0235    2.4073 H   0  0  0  0  0  0  0  0  0  0  0  0
    1.9560    1.0462    1.9470 H   0  0  0  0  0  0  0  0  0  0  0  0
   -0.3558    2.1316    1.9010 H   0  0  0  0  0  0  0  0  0  0  0  0
    0.5776    2.2974    0.3934 H   0  0  0  0  0  0  0  0  0  0  0  0
  1  2  1  0
  2  3  1  0
  3  4  1  0
  4  5  1  0
  5  6  1  0
  6  7  1  0
  7  8  1  0
  8  9  1  0
  9 10  2  0
 10 11  1  0
 11 12  2  0
 12 13  1  0
 13 14  2  0
 14 15  1  0
 15 16  1  0
 16 17  1  0
 17 18  1  0
 18 19  1  0
 19 20  1  0
 20 21  1  0
 21 22  1  0
 22 23  2  0
 22 24  1  0
 24 25  1  0
 25 26  1  0
 26 27  1  0
 27 28  2  0
 28 29  1  0
 29 30  1  0
 29 31  1  0
 31 32  1  0
 21 33  1  0
 33 34  1  0
 34 35  1  0
 19 36  1  0
 36 37  2  0
 36  5  1  0
 14  9  1  0
 35 19  1  0
 31 26  2  0
  1 38  1  0
  1 39  1  0
  1 40  1  0
  2 41  1  0
  2 42  1  0
  3 43  1  0
  3 44  1  0
  4 45  1  0
  4 46  1  0
  6 47  1  0
  6 48  1  0
  7 49  1  0
  7 50  1  0
 10 51  1  0
 11 52  1  0
 12 53  1  0
 13 54  1  0
 15 55  1  0
 15 56  1  0
 16 57  1  0
 16 58  1  0
 17 59  1  0
 17 60  1  0
 18 61  1  0
 18 62  1  0
 20 63  1  0
 20 64  1  0
 24 65  1  0
 24 66  1  0
 25 67  1  0
 25 68  1  0
 27 69  1  0
 30 70  1  0
 30 71  1  0
 30 72  1  0
 32 73  1  0
 32 74  1  0
 32 75  1  0
 33 76  1  0
 33 77  1  0
 34 78  1  0
 34 79  1  0
M  END
$$$$
