
     RDKit          3D

 70 74  0  0  0  0  0  0  0  0999 V2000
   -5.1702    4.1452   -0.9569 C   0  0  0  0  0  0  0  0  0  0  0  0
   -4.3482    2.9459   -0.8868 N   0  0  0  0  0  0  0  0  0  0  0  0
   -2.9120    3.0200   -0.9358 C   0  0  0  0  0  0  0  0  0  0  0  0
   -2.3643    4.1588   -0.8760 O   0  0  0  0  0  0  0  0  0  0  0  0
   -2.0523    1.7399   -1.0226 C   0  0  0  0  0  0  0  0  0  0  0  0
   -0.5349    2.1772   -1.0761 C   0  0  0  0  0  0  0  0  0  0  0  0
    0.5472    1.1655   -1.5249 C   0  0  0  0  0  0  0  0  0  0  0  0
    0.8375    0.0450   -0.5160 C   0  0  0  0  0  0  0  0  0  0  0  0
    2.1037   -0.7345   -0.8950 C   0  0  0  0  0  0  0  0  0  0  0  0
    2.5612   -1.5547    0.2430 N   0  0  0  0  0  0  0  0  0  0  0  0
    3.2393   -0.9350    1.3639 C   0  0  0  0  0  0  0  0  0  0  0  0
    3.3630   -1.5510    2.4587 O   0  0  0  0  0  0  0  0  0  0  0  0
    3.8877    0.3791    1.2282 C   0  0  0  0  0  0  0  0  0  0  0  0
    3.2405    1.5537    1.6903 C   0  0  0  0  0  0  0  0  0  0  0  0
    3.8336    2.8158    1.4985 C   0  0  0  0  0  0  0  0  0  0  0  0
    5.0814    2.8528    0.8763 C   0  0  0  0  0  0  0  0  0  0  0  0
    5.8311    3.9201    0.5767 N   0  0  0  0  0  0  0  0  0  0  0  0
    6.9342    3.3910   -0.0119 C   0  0  0  0  0  0  0  0  0  0  0  0
    6.9041    2.0355   -0.1063 N   0  0  0  0  0  0  0  0  0  0  0  0
    5.7241    1.7237    0.4636 C   0  0  0  0  0  0  0  0  0  0  0  0
    5.1610    0.4613    0.6182 C   0  0  0  0  0  0  0  0  0  0  0  0
    2.4588   -3.0227    0.1759 C   0  0  0  0  0  0  0  0  0  0  0  0
    1.3423   -3.5512    1.0775 C   0  0  0  0  0  0  0  0  0  0  0  0
    0.0709   -3.1581    0.5668 O   0  0  0  0  0  0  0  0  0  0  0  0
   -1.1589   -3.5323    1.1371 C   0  0  0  0  0  0  0  0  0  0  0  0
   -1.2314   -4.2059    2.3739 C   0  0  0  0  0  0  0  0  0  0  0  0
   -2.4701   -4.5666    2.9122 C   0  0  0  0  0  0  0  0  0  0  0  0
   -3.6490   -4.2624    2.2273 C   0  0  0  0  0  0  0  0  0  0  0  0
   -3.5914   -3.5931    1.0020 C   0  0  0  0  0  0  0  0  0  0  0  0
   -2.3520   -3.2248    0.4551 C   0  0  0  0  0  0  0  0  0  0  0  0
   -2.3060   -2.5710   -0.8621 C   0  0  0  0  0  0  0  0  0  0  0  0
   -2.0168   -3.2788   -1.8681 O   0  0  0  0  0  0  0  0  0  0  0  0
   -2.5743   -1.1629   -1.0313 N   0  0  0  0  0  0  0  0  0  0  0  0
   -3.1811   -0.3474    0.0285 C   0  0  0  0  0  0  0  0  0  0  0  0
   -2.3397    0.9044    0.2749 C   0  0  0  0  0  0  0  0  0  0  0  0
   -2.2476   -0.5414   -2.3219 C   0  0  0  0  0  0  0  0  0  0  0  0
   -2.4668    0.9843   -2.3336 C   0  0  0  0  0  0  0  0  0  0  0  0
   -4.9385    4.8107   -0.0964 H   0  0  0  0  0  0  0  0  0  0  0  0
   -6.2465    3.8704   -0.9244 H   0  0  0  0  0  0  0  0  0  0  0  0
   -4.9707    4.6817   -1.9053 H   0  0  0  0  0  0  0  0  0  0  0  0
   -4.8282    2.0240   -0.8100 H   0  0  0  0  0  0  0  0  0  0  0  0
   -0.4393    3.0129   -1.8070 H   0  0  0  0  0  0  0  0  0  0  0  0
   -0.2389    2.6023   -0.0901 H   0  0  0  0  0  0  0  0  0  0  0  0
    1.4875    1.7541   -1.6529 H   0  0  0  0  0  0  0  0  0  0  0  0
    0.3213    0.7556   -2.5273 H   0  0  0  0  0  0  0  0  0  0  0  0
    0.9578    0.4873    0.4931 H   0  0  0  0  0  0  0  0  0  0  0  0
   -0.0057   -0.6690   -0.4832 H   0  0  0  0  0  0  0  0  0  0  0  0
    1.8741   -1.3675   -1.7804 H   0  0  0  0  0  0  0  0  0  0  0  0
    2.9169   -0.0466   -1.2102 H   0  0  0  0  0  0  0  0  0  0  0  0
    2.2842    1.4864    2.1941 H   0  0  0  0  0  0  0  0  0  0  0  0
    3.3430    3.7219    1.8285 H   0  0  0  0  0  0  0  0  0  0  0  0
    5.6197    4.9244    0.7607 H   0  0  0  0  0  0  0  0  0  0  0  0
    7.7584    3.9915   -0.3784 H   0  0  0  0  0  0  0  0  0  0  0  0
    5.6752   -0.4271    0.2698 H   0  0  0  0  0  0  0  0  0  0  0  0
    3.4245   -3.4730    0.4902 H   0  0  0  0  0  0  0  0  0  0  0  0
    2.2700   -3.3669   -0.8643 H   0  0  0  0  0  0  0  0  0  0  0  0
    1.3986   -4.6608    1.0922 H   0  0  0  0  0  0  0  0  0  0  0  0
    1.4719   -3.1719    2.1115 H   0  0  0  0  0  0  0  0  0  0  0  0
   -0.3354   -4.4638    2.9258 H   0  0  0  0  0  0  0  0  0  0  0  0
   -2.5178   -5.0897    3.8592 H   0  0  0  0  0  0  0  0  0  0  0  0
   -4.6040   -4.5494    2.6471 H   0  0  0  0  0  0  0  0  0  0  0  0
   -4.5101   -3.3663    0.4738 H   0  0  0  0  0  0  0  0  0  0  0  0
   -4.2125   -0.0739   -0.2768 H   0  0  0  0  0  0  0  0  0  0  0  0
   -3.2673   -0.8983    0.9867 H   0  0  0  0  0  0  0  0  0  0  0  0
   -1.4074    0.5883    0.7781 H   0  0  0  0  0  0  0  0  0  0  0  0
   -2.8601    1.5179    1.0461 H   0  0  0  0  0  0  0  0  0  0  0  0
   -1.2030   -0.7910   -2.5900 H   0  0  0  0  0  0  0  0  0  0  0  0
   -2.8826   -0.9951   -3.1142 H   0  0  0  0  0  0  0  0  0  0  0  0
   -1.9429    1.4208   -3.2095 H   0  0  0  0  0  0  0  0  0  0  0  0
   -3.5468    1.1349   -2.5411 H   0  0  0  0  0  0  0  0  0  0  0  0
  1  2  1  0
  2  3  1  0
  3  4  2  0
  3  5  1  0
  5  6  1  0
  6  7  1  0
  7  8  1  0
  8  9  1  0
  9 10  1  0
 10 11  1  0
 11 12  2  0
 11 13  1  0
 13 14  2  0
 14 15  1  0
 15 16  2  0
 16 17  1  0
 17 18  1  0
 18 19  2  0
 19 20  1  0
 20 21  2  0
 10 22  1  0
 22 23  1  0
 23 24  1  0
 24 25  1  0
 25 26  2  0
 26 27  1  0
 27 28  2  0
 28 29  1  0
 29 30  2  0
 30 31  1  0
 31 32  2  0
 31 33  1  0
 33 34  1  0
 34 35  1  0
 33 36  1  0
 36 37  1  0
 35  5  1  0
 37  5  1  0
 21 13  1  0
 30 25  1  0
 20 16  1  0
  1 38  1  0
  1 39  1  0
  1 40  1  0
  2 41  1  0
  6 42  1  0
  6 43  1  0
  7 44  1  0
  7 45  1  0
  8 46  1  0
  8 47  1  0
  9 48  1  0
  9 49  1  0
 14 50  1  0
 15 51  1  0
 17 52  1  0
 18 53  1  0
 21 54  1  0
 22 55  1  0
 22 56  1  0
 23 57  1  0
 23 58  1  0
 26 59  1  0
 27 60  1  0
 28 61  1  0
 29 62  1  0
 34 63  1  0
 34 64  1  0
 35 65  1  0
 35 66  1  0
 36 67  1  0
 36 68  1  0
 37 69  1  0
 37 70  1  0
M  END
$$$$
