
     RDKit          3D

 85 88  0  0  0  0  0  0  0  0999 V2000
   -2.0698    0.4435    4.4999 C   0  0  0  0  0  0  0  0  0  0  0  0
   -2.0749    0.6333    3.0468 N   0  0  0  0  0  0  0  0  0  0  0  0
   -1.5854    1.9065    2.4898 C   0  0  0  0  0  0  0  0  0  0  0  0
   -0.0582    2.0097    2.6096 C   0  0  0  0  0  0  0  0  0  0  0  0
    0.6524    1.1326    1.5712 C   0  0  0  0  0  0  0  0  0  0  0  0
    2.1407    0.9527    1.9156 C   0  0  0  0  0  0  0  0  0  0  0  0
    2.8816    0.2239    0.8690 N   0  0  0  0  0  0  0  0  0  0  0  0
    4.2744    0.5430    0.6781 C   0  0  0  0  0  0  0  0  0  0  0  0
    4.9797    0.8660    1.6747 O   0  0  0  0  0  0  0  0  0  0  0  0
    4.9005    0.5450   -0.6986 C   0  0  0  0  0  0  0  0  0  0  0  0
    5.8714   -0.6526   -0.8477 C   0  0  0  0  0  0  0  0  0  0  0  0
    6.8732   -0.4097   -1.9811 C   0  0  0  0  0  0  0  0  0  0  0  0
    7.7711    0.8172   -1.7005 C   0  0  0  0  0  0  0  0  0  0  0  0
    8.1037    1.4081   -2.9089 F   0  0  0  0  0  0  0  0  0  0  0  0
    8.9423    0.3958   -1.0906 F   0  0  0  0  0  0  0  0  0  0  0  0
    7.0939    1.8686   -0.7938 C   0  0  0  0  0  0  0  0  0  0  0  0
    5.5751    1.9102   -1.0061 C   0  0  0  0  0  0  0  0  0  0  0  0
    2.2915   -0.9445    0.1907 C   0  0  0  0  0  0  0  0  0  0  0  0
    2.0055   -2.0829    1.1828 C   0  0  0  0  0  0  0  0  0  0  0  0
    1.3183   -3.2905    0.5241 C   0  0  0  0  0  0  0  0  0  0  0  0
   -0.0601   -2.9539   -0.0647 C   0  0  0  0  0  0  0  0  0  0  0  0
    0.1006   -2.4714   -1.3970 O   0  0  0  0  0  0  0  0  0  0  0  0
   -0.6881   -1.5017   -2.0390 C   0  0  0  0  0  0  0  0  0  0  0  0
   -0.0491   -0.7347   -3.0223 C   0  0  0  0  0  0  0  0  0  0  0  0
   -0.7375    0.2572   -3.7187 C   0  0  0  0  0  0  0  0  0  0  0  0
   -2.0871    0.4840   -3.4562 C   0  0  0  0  0  0  0  0  0  0  0  0
   -2.9623    1.6930   -4.3763 Cl  0  0  0  0  0  0  0  0  0  0  0  0
   -2.7472   -0.2784   -2.4902 C   0  0  0  0  0  0  0  0  0  0  0  0
   -2.0626   -1.2647   -1.7604 C   0  0  0  0  0  0  0  0  0  0  0  0
   -2.8535   -2.1230   -0.8558 C   0  0  0  0  0  0  0  0  0  0  0  0
   -2.9469   -3.3480   -1.1456 O   0  0  0  0  0  0  0  0  0  0  0  0
   -3.5630   -1.6001    0.2970 N   0  0  0  0  0  0  0  0  0  0  0  0
   -4.5040   -2.5087    0.9721 C   0  0  0  0  0  0  0  0  0  0  0  0
   -3.2152   -0.2882    0.9088 C   0  0  0  0  0  0  0  0  0  0  0  0
   -4.4748    0.5880    1.1380 C   0  0  0  0  0  0  0  0  0  0  0  0
   -5.1428    0.9851   -0.1517 C   0  0  0  0  0  0  0  0  0  0  0  0
   -6.2108    0.2306   -0.6665 C   0  0  0  0  0  0  0  0  0  0  0  0
   -6.8335    0.6131   -1.8587 C   0  0  0  0  0  0  0  0  0  0  0  0
   -6.3992    1.7527   -2.5410 C   0  0  0  0  0  0  0  0  0  0  0  0
   -5.3405    2.5101   -2.0349 C   0  0  0  0  0  0  0  0  0  0  0  0
   -4.7077    2.1257   -0.8488 C   0  0  0  0  0  0  0  0  0  0  0  0
   -2.4657   -0.4822    2.2163 C   0  0  0  0  0  0  0  0  0  0  0  0
   -2.2005   -1.6522    2.6077 O   0  0  0  0  0  0  0  0  0  0  0  0
   -1.3244   -0.3310    4.7764 H   0  0  0  0  0  0  0  0  0  0  0  0
   -1.8119    1.3859    5.0294 H   0  0  0  0  0  0  0  0  0  0  0  0
   -3.0773    0.1213    4.8378 H   0  0  0  0  0  0  0  0  0  0  0  0
   -2.0476    2.7463    3.0509 H   0  0  0  0  0  0  0  0  0  0  0  0
   -1.8814    2.0392    1.4296 H   0  0  0  0  0  0  0  0  0  0  0  0
    0.2463    3.0675    2.4530 H   0  0  0  0  0  0  0  0  0  0  0  0
    0.2535    1.7208    3.6372 H   0  0  0  0  0  0  0  0  0  0  0  0
    0.1575    0.1404    1.5415 H   0  0  0  0  0  0  0  0  0  0  0  0
    0.5541    1.6026    0.5670 H   0  0  0  0  0  0  0  0  0  0  0  0
    2.2436    0.4104    2.8800 H   0  0  0  0  0  0  0  0  0  0  0  0
    2.5850    1.9652    2.0458 H   0  0  0  0  0  0  0  0  0  0  0  0
    4.0922    0.4268   -1.4537 H   0  0  0  0  0  0  0  0  0  0  0  0
    6.4393   -0.8228    0.0952 H   0  0  0  0  0  0  0  0  0  0  0  0
    5.2971   -1.5795   -1.0613 H   0  0  0  0  0  0  0  0  0  0  0  0
    6.3082   -0.2549   -2.9271 H   0  0  0  0  0  0  0  0  0  0  0  0
    7.5031   -1.3147   -2.1203 H   0  0  0  0  0  0  0  0  0  0  0  0
    7.2992    1.6301    0.2730 H   0  0  0  0  0  0  0  0  0  0  0  0
    7.5241    2.8725   -0.9971 H   0  0  0  0  0  0  0  0  0  0  0  0
    5.1373    2.7223   -0.3856 H   0  0  0  0  0  0  0  0  0  0  0  0
    5.3797    2.1838   -2.0663 H   0  0  0  0  0  0  0  0  0  0  0  0
    1.3679   -0.6223   -0.3239 H   0  0  0  0  0  0  0  0  0  0  0  0
    2.9660   -1.3383   -0.5961 H   0  0  0  0  0  0  0  0  0  0  0  0
    1.3701   -1.7316    2.0216 H   0  0  0  0  0  0  0  0  0  0  0  0
    2.9687   -2.4189    1.6220 H   0  0  0  0  0  0  0  0  0  0  0  0
    1.1886   -4.0724    1.3033 H   0  0  0  0  0  0  0  0  0  0  0  0
    1.9776   -3.7182   -0.2625 H   0  0  0  0  0  0  0  0  0  0  0  0
   -0.5678   -2.2009    0.5726 H   0  0  0  0  0  0  0  0  0  0  0  0
   -0.6708   -3.8790   -0.0926 H   0  0  0  0  0  0  0  0  0  0  0  0
    0.9983   -0.9035   -3.2419 H   0  0  0  0  0  0  0  0  0  0  0  0
   -0.2242    0.8382   -4.4728 H   0  0  0  0  0  0  0  0  0  0  0  0
   -3.8087   -0.1371   -2.3441 H   0  0  0  0  0  0  0  0  0  0  0  0
   -5.3568   -2.7323    0.2985 H   0  0  0  0  0  0  0  0  0  0  0  0
   -4.8942   -2.0832    1.9171 H   0  0  0  0  0  0  0  0  0  0  0  0
   -3.9923   -3.4588    1.2344 H   0  0  0  0  0  0  0  0  0  0  0  0
   -2.5366    0.2706    0.2340 H   0  0  0  0  0  0  0  0  0  0  0  0
   -4.1987    1.5193    1.6760 H   0  0  0  0  0  0  0  0  0  0  0  0
   -5.2053    0.0845    1.8040 H   0  0  0  0  0  0  0  0  0  0  0  0
   -6.5692   -0.6432   -0.1401 H   0  0  0  0  0  0  0  0  0  0  0  0
   -7.6569    0.0299   -2.2513 H   0  0  0  0  0  0  0  0  0  0  0  0
   -6.8823    2.0481   -3.4629 H   0  0  0  0  0  0  0  0  0  0  0  0
   -5.0039    3.3912   -2.5660 H   0  0  0  0  0  0  0  0  0  0  0  0
   -3.8829    2.7175   -0.4722 H   0  0  0  0  0  0  0  0  0  0  0  0
  1  2  1  0
  2  3  1  0
  3  4  1  0
  4  5  1  0
  5  6  1  0
  6  7  1  0
  7  8  1  0
  8  9  2  0
  8 10  1  0
 10 11  1  0
 11 12  1  0
 12 13  1  0
 13 14  1  0
 13 15  1  0
 13 16  1  0
 16 17  1  0
  7 18  1  0
 18 19  1  0
 19 20  1  0
 20 21  1  0
 21 22  1  0
 22 23  1  0
 23 24  2  0
 24 25  1  0
 25 26  2  0
 26 27  1  0
 26 28  1  0
 28 29  2  0
 29 30  1  0
 30 31  2  0
 30 32  1  0
 32 33  1  0
 32 34  1  0
 34 35  1  0
 35 36  1  0
 36 37  2  0
 37 38  1  0
 38 39  2  0
 39 40  1  0
 40 41  2  0
 34 42  1  0
 42 43  2  0
 42  2  1  0
 17 10  1  0
 29 23  1  0
 41 36  1  0
  1 44  1  0
  1 45  1  0
  1 46  1  0
  3 47  1  0
  3 48  1  0
  4 49  1  0
  4 50  1  0
  5 51  1  0
  5 52  1  0
  6 53  1  0
  6 54  1  0
 10 55  1  0
 11 56  1  0
 11 57  1  0
 12 58  1  0
 12 59  1  0
 16 60  1  0
 16 61  1  0
 17 62  1  0
 17 63  1  0
 18 64  1  0
 18 65  1  0
 19 66  1  0
 19 67  1  0
 20 68  1  0
 20 69  1  0
 21 70  1  0
 21 71  1  0
 24 72  1  0
 25 73  1  0
 28 74  1  0
 33 75  1  0
 33 76  1  0
 33 77  1  0
 34 78  1  0
 35 79  1  0
 35 80  1  0
 37 81  1  0
 38 82  1  0
 39 83  1  0
 40 84  1  0
 41 85  1  0
M  END
$$$$
