
     RDKit          3D

 66 69  0  0  0  0  0  0  0  0999 V2000
   -3.5505    3.4305   -1.7734 O   0  0  0  0  0  0  0  0  0  0  0  0
   -3.5601    2.4543   -0.9760 C   0  0  0  0  0  0  0  0  0  0  0  0
   -2.4897    1.5026   -1.0396 N   0  0  0  0  0  0  0  0  0  0  0  0
   -1.9114    0.8945    0.1655 C   0  0  0  0  0  0  0  0  0  0  0  0
   -0.7397   -0.1018   -0.1398 C   0  0  0  0  0  0  0  0  0  0  0  0
   -1.2399   -1.2466   -1.1130 C   0  0  0  0  0  0  0  0  0  0  0  0
   -1.7373   -2.5847   -0.5118 C   0  0  0  0  0  0  0  0  0  0  0  0
   -3.1082   -2.5234    0.1793 C   0  0  0  0  0  0  0  0  0  0  0  0
   -4.2914   -2.3810   -0.8065 C   0  0  0  0  0  0  0  0  0  0  0  0
   -5.3338   -1.3875   -0.2933 C   0  0  0  0  0  0  0  0  0  0  0  0
   -4.8321   -0.0621   -0.4528 O   0  0  0  0  0  0  0  0  0  0  0  0
   -5.3251    1.0801    0.1974 C   0  0  0  0  0  0  0  0  0  0  0  0
   -6.4435    1.0233    1.0545 C   0  0  0  0  0  0  0  0  0  0  0  0
   -6.9085    2.1768    1.6897 C   0  0  0  0  0  0  0  0  0  0  0  0
   -6.2754    3.4000    1.4720 C   0  0  0  0  0  0  0  0  0  0  0  0
   -5.1783    3.4755    0.6131 C   0  0  0  0  0  0  0  0  0  0  0  0
   -4.6851    2.3213   -0.0206 C   0  0  0  0  0  0  0  0  0  0  0  0
   -0.2077   -0.6187    1.2355 C   0  0  0  0  0  0  0  0  0  0  0  0
    1.1118   -1.4200    1.1887 C   0  0  0  0  0  0  0  0  0  0  0  0
    1.8763   -1.2791   -0.1255 C   0  0  0  0  0  0  0  0  0  0  0  0
    1.7405    0.0787   -0.6644 N   0  0  0  0  0  0  0  0  0  0  0  0
    2.8955    0.8220   -1.0968 C   0  0  0  0  0  0  0  0  0  0  0  0
    2.8297    1.5238   -2.1418 O   0  0  0  0  0  0  0  0  0  0  0  0
    4.1696    0.8244   -0.2996 C   0  0  0  0  0  0  0  0  0  0  0  0
    5.2723    0.0413   -1.0184 C   0  0  0  0  0  0  0  0  0  0  0  0
    6.5123   -0.0157   -0.1661 C   0  0  0  0  0  0  0  0  0  0  0  0
    6.7592   -1.1288    0.6566 C   0  0  0  0  0  0  0  0  0  0  0  0
    7.8856   -1.1567    1.4853 C   0  0  0  0  0  0  0  0  0  0  0  0
    8.7643   -0.0701    1.5109 C   0  0  0  0  0  0  0  0  0  0  0  0
    9.8506   -0.0942    2.3231 F   0  0  0  0  0  0  0  0  0  0  0  0
    8.5178    1.0460    0.7077 C   0  0  0  0  0  0  0  0  0  0  0  0
    7.3957    1.0752   -0.1278 C   0  0  0  0  0  0  0  0  0  0  0  0
    0.4168    0.7012   -0.8237 C   0  0  0  0  0  0  0  0  0  0  0  0
   -1.9790    1.4405   -1.9475 H   0  0  0  0  0  0  0  0  0  0  0  0
   -1.5477    1.7156    0.8219 H   0  0  0  0  0  0  0  0  0  0  0  0
   -2.6997    0.3870    0.7445 H   0  0  0  0  0  0  0  0  0  0  0  0
   -0.4219   -1.5162   -1.8114 H   0  0  0  0  0  0  0  0  0  0  0  0
   -2.0219   -0.8612   -1.7957 H   0  0  0  0  0  0  0  0  0  0  0  0
   -0.9890   -2.9939    0.1924 H   0  0  0  0  0  0  0  0  0  0  0  0
   -1.8014   -3.3316   -1.3337 H   0  0  0  0  0  0  0  0  0  0  0  0
   -3.2471   -3.4717    0.7435 H   0  0  0  0  0  0  0  0  0  0  0  0
   -3.1106   -1.7301    0.9481 H   0  0  0  0  0  0  0  0  0  0  0  0
   -3.9572   -2.0619   -1.8164 H   0  0  0  0  0  0  0  0  0  0  0  0
   -4.7771   -3.3736   -0.9322 H   0  0  0  0  0  0  0  0  0  0  0  0
   -6.2753   -1.4930   -0.8738 H   0  0  0  0  0  0  0  0  0  0  0  0
   -5.5415   -1.6085    0.7765 H   0  0  0  0  0  0  0  0  0  0  0  0
   -6.9712    0.0959    1.2287 H   0  0  0  0  0  0  0  0  0  0  0  0
   -7.7665    2.1224    2.3476 H   0  0  0  0  0  0  0  0  0  0  0  0
   -6.6405    4.2932    1.9621 H   0  0  0  0  0  0  0  0  0  0  0  0
   -4.7070    4.4372    0.4474 H   0  0  0  0  0  0  0  0  0  0  0  0
   -0.9803   -1.2106    1.7677 H   0  0  0  0  0  0  0  0  0  0  0  0
   -0.0215    0.2637    1.8890 H   0  0  0  0  0  0  0  0  0  0  0  0
    1.7685   -1.0735    2.0177 H   0  0  0  0  0  0  0  0  0  0  0  0
    0.9154   -2.4961    1.3772 H   0  0  0  0  0  0  0  0  0  0  0  0
    2.9381   -1.5518    0.0442 H   0  0  0  0  0  0  0  0  0  0  0  0
    1.4990   -2.0125   -0.8644 H   0  0  0  0  0  0  0  0  0  0  0  0
    4.4976    1.8777   -0.1569 H   0  0  0  0  0  0  0  0  0  0  0  0
    3.9897    0.3993    0.7119 H   0  0  0  0  0  0  0  0  0  0  0  0
    5.5098    0.5332   -1.9874 H   0  0  0  0  0  0  0  0  0  0  0  0
    4.9212   -0.9887   -1.2488 H   0  0  0  0  0  0  0  0  0  0  0  0
    6.0790   -1.9708    0.6584 H   0  0  0  0  0  0  0  0  0  0  0  0
    8.0728   -2.0186    2.1126 H   0  0  0  0  0  0  0  0  0  0  0  0
    9.1927    1.8918    0.7337 H   0  0  0  0  0  0  0  0  0  0  0  0
    7.2075    1.9524   -0.7330 H   0  0  0  0  0  0  0  0  0  0  0  0
    0.4719    1.7181   -0.3758 H   0  0  0  0  0  0  0  0  0  0  0  0
    0.2132    0.8351   -1.9076 H   0  0  0  0  0  0  0  0  0  0  0  0
  1  2  2  0
  2  3  1  0
  3  4  1  0
  4  5  1  0
  5  6  1  0
  6  7  1  0
  7  8  1  0
  8  9  1  0
  9 10  1  0
 10 11  1  0
 11 12  1  0
 12 13  2  0
 13 14  1  0
 14 15  2  0
 15 16  1  0
 16 17  2  0
  5 18  1  0
 18 19  1  0
 19 20  1  0
 20 21  1  0
 21 22  1  0
 22 23  2  0
 22 24  1  0
 24 25  1  0
 25 26  1  0
 26 27  2  0
 27 28  1  0
 28 29  2  0
 29 30  1  0
 29 31  1  0
 31 32  2  0
 21 33  1  0
 17  2  1  0
 32 26  1  0
 33  5  1  0
 17 12  1  0
  3 34  1  0
  4 35  1  0
  4 36  1  0
  6 37  1  0
  6 38  1  0
  7 39  1  0
  7 40  1  0
  8 41  1  0
  8 42  1  0
  9 43  1  0
  9 44  1  0
 10 45  1  0
 10 46  1  0
 13 47  1  0
 14 48  1  0
 15 49  1  0
 16 50  1  0
 18 51  1  0
 18 52  1  0
 19 53  1  0
 19 54  1  0
 20 55  1  0
 20 56  1  0
 24 57  1  0
 24 58  1  0
 25 59  1  0
 25 60  1  0
 27 61  1  0
 28 62  1  0
 31 63  1  0
 32 64  1  0
 33 65  1  0
 33 66  1  0
M  END
$$$$
