
     RDKit          3D

 78 82  0  0  0  0  0  0  0  0999 V2000
   -2.2047    3.0570   -3.3852 O   0  0  0  0  0  0  0  0  0  0  0  0
   -2.5177    2.2065   -2.5081 C   0  0  0  0  0  0  0  0  0  0  0  0
   -2.4060    0.8081   -2.8156 N   0  0  0  0  0  0  0  0  0  0  0  0
   -1.9149   -0.1563   -1.8280 C   0  0  0  0  0  0  0  0  0  0  0  0
   -0.4086   -0.1209   -1.8306 C   0  0  0  0  0  0  0  0  0  0  0  0
    0.2432   -0.8623   -2.6197 O   0  0  0  0  0  0  0  0  0  0  0  0
    0.2794    0.8482   -1.0279 N   0  0  0  0  0  0  0  0  0  0  0  0
    1.5647    1.4148   -1.4337 C   0  0  0  0  0  0  0  0  0  0  0  0
    2.6274    1.1186   -0.4087 C   0  0  0  0  0  0  0  0  0  0  0  0
    2.9406   -0.2120   -0.0752 C   0  0  0  0  0  0  0  0  0  0  0  0
    4.0192   -0.4944    0.7707 C   0  0  0  0  0  0  0  0  0  0  0  0
    4.8055    0.5493    1.2885 C   0  0  0  0  0  0  0  0  0  0  0  0
    6.0607    0.2528    2.0696 C   0  0  0  0  0  0  0  0  0  0  0  0
    7.2456    0.4743    1.2137 N   0  0  0  0  0  0  0  0  0  0  0  0
    7.4969   -0.6726    0.3202 C   0  0  0  0  0  0  0  0  0  0  0  0
    8.6813   -0.3545   -0.6172 C   0  0  0  0  0  0  0  0  0  0  0  0
    9.4005    0.7983   -0.2149 O   0  0  0  0  0  0  0  0  0  0  0  0
    9.7238    0.7108    1.1595 C   0  0  0  0  0  0  0  0  0  0  0  0
    8.4472    0.7576    2.0262 C   0  0  0  0  0  0  0  0  0  0  0  0
    4.4799    1.8776    0.9702 C   0  0  0  0  0  0  0  0  0  0  0  0
    3.3981    2.1610    0.1299 C   0  0  0  0  0  0  0  0  0  0  0  0
   -2.4795   -1.5639   -2.1308 C   0  0  0  0  0  0  0  0  0  0  0  0
   -2.4652   -2.4235   -0.8972 C   0  0  0  0  0  0  0  0  0  0  0  0
   -1.3962   -2.5846   -0.2518 O   0  0  0  0  0  0  0  0  0  0  0  0
   -3.6892   -2.9590   -0.3833 N   0  0  0  0  0  0  0  0  0  0  0  0
   -4.5464   -3.8538   -1.1438 C   0  0  0  0  0  0  0  0  0  0  0  0
   -5.7230   -4.1784   -0.2309 C   0  0  0  0  0  0  0  0  0  0  0  0
   -5.4143   -3.5676    1.1414 C   0  0  0  0  0  0  0  0  0  0  0  0
   -4.1146   -2.7669    0.9904 C   0  0  0  0  0  0  0  0  0  0  0  0
   -4.2544   -1.2935    1.3204 C   0  0  0  0  0  0  0  0  0  0  0  0
   -3.3090   -0.7283    1.9260 O   0  0  0  0  0  0  0  0  0  0  0  0
   -5.4011   -0.5138    0.9489 N   0  0  0  0  0  0  0  0  0  0  0  0
   -6.0808   -0.6189   -0.3439 C   0  0  0  0  0  0  0  0  0  0  0  0
   -6.2312    0.7492   -1.0059 C   0  0  0  0  0  0  0  0  0  0  0  0
   -4.9591    1.2912   -1.3682 O   0  0  0  0  0  0  0  0  0  0  0  0
   -4.1867    2.2019   -0.6229 C   0  0  0  0  0  0  0  0  0  0  0  0
   -4.5897    2.6846    0.6395 C   0  0  0  0  0  0  0  0  0  0  0  0
   -3.7998    3.6065    1.3312 C   0  0  0  0  0  0  0  0  0  0  0  0
   -2.6123    4.0760    0.7676 C   0  0  0  0  0  0  0  0  0  0  0  0
   -2.2045    3.6181   -0.4867 C   0  0  0  0  0  0  0  0  0  0  0  0
   -2.9751    2.6739   -1.1812 C   0  0  0  0  0  0  0  0  0  0  0  0
   -2.3340    0.5448   -3.8268 H   0  0  0  0  0  0  0  0  0  0  0  0
   -2.2674    0.1424   -0.8181 H   0  0  0  0  0  0  0  0  0  0  0  0
   -0.2162    1.2807   -0.2161 H   0  0  0  0  0  0  0  0  0  0  0  0
    1.4344    2.5097   -1.5749 H   0  0  0  0  0  0  0  0  0  0  0  0
    1.8924    1.0038   -2.4126 H   0  0  0  0  0  0  0  0  0  0  0  0
    2.3706   -1.0318   -0.4945 H   0  0  0  0  0  0  0  0  0  0  0  0
    4.2607   -1.5262    0.9933 H   0  0  0  0  0  0  0  0  0  0  0  0
    6.0796    0.9344    2.9520 H   0  0  0  0  0  0  0  0  0  0  0  0
    6.0487   -0.7836    2.4777 H   0  0  0  0  0  0  0  0  0  0  0  0
    6.5985   -0.8968   -0.2960 H   0  0  0  0  0  0  0  0  0  0  0  0
    7.7443   -1.5840    0.9120 H   0  0  0  0  0  0  0  0  0  0  0  0
    8.2947   -0.1741   -1.6430 H   0  0  0  0  0  0  0  0  0  0  0  0
    9.3683   -1.2264   -0.6838 H   0  0  0  0  0  0  0  0  0  0  0  0
   10.3046   -0.2220    1.3654 H   0  0  0  0  0  0  0  0  0  0  0  0
   10.3851    1.5625    1.4251 H   0  0  0  0  0  0  0  0  0  0  0  0
    8.3472    1.7717    2.4689 H   0  0  0  0  0  0  0  0  0  0  0  0
    8.5455    0.0253    2.8593 H   0  0  0  0  0  0  0  0  0  0  0  0
    5.0886    2.6934    1.3436 H   0  0  0  0  0  0  0  0  0  0  0  0
    3.1887    3.1920   -0.1326 H   0  0  0  0  0  0  0  0  0  0  0  0
   -3.5292   -1.4544   -2.4763 H   0  0  0  0  0  0  0  0  0  0  0  0
   -1.9252   -2.0680   -2.9500 H   0  0  0  0  0  0  0  0  0  0  0  0
   -4.9006   -3.3696   -2.0772 H   0  0  0  0  0  0  0  0  0  0  0  0
   -3.9847   -4.7789   -1.4044 H   0  0  0  0  0  0  0  0  0  0  0  0
   -6.6552   -3.7325   -0.6389 H   0  0  0  0  0  0  0  0  0  0  0  0
   -5.8621   -5.2815   -0.1541 H   0  0  0  0  0  0  0  0  0  0  0  0
   -6.2685   -2.9460    1.4866 H   0  0  0  0  0  0  0  0  0  0  0  0
   -5.2704   -4.3826    1.8864 H   0  0  0  0  0  0  0  0  0  0  0  0
   -3.3475   -3.2135    1.6633 H   0  0  0  0  0  0  0  0  0  0  0  0
   -5.7705    0.1645    1.6485 H   0  0  0  0  0  0  0  0  0  0  0  0
   -7.0891   -1.0564   -0.1883 H   0  0  0  0  0  0  0  0  0  0  0  0
   -5.5211   -1.2728   -1.0364 H   0  0  0  0  0  0  0  0  0  0  0  0
   -6.8208    1.4425   -0.3761 H   0  0  0  0  0  0  0  0  0  0  0  0
   -6.8092    0.6054   -1.9388 H   0  0  0  0  0  0  0  0  0  0  0  0
   -5.5142    2.3717    1.1005 H   0  0  0  0  0  0  0  0  0  0  0  0
   -4.1207    3.9695    2.3011 H   0  0  0  0  0  0  0  0  0  0  0  0
   -2.0036    4.7949    1.3034 H   0  0  0  0  0  0  0  0  0  0  0  0
   -1.2717    3.9805   -0.9030 H   0  0  0  0  0  0  0  0  0  0  0  0
  1  2  2  0
  2  3  1  0
  3  4  1  0
  4  5  1  0
  5  6  2  0
  5  7  1  0
  7  8  1  0
  8  9  1  0
  9 10  2  0
 10 11  1  0
 11 12  2  0
 12 13  1  0
 13 14  1  0
 14 15  1  0
 15 16  1  0
 16 17  1  0
 17 18  1  0
 18 19  1  0
 12 20  1  0
 20 21  2  0
  4 22  1  0
 22 23  1  0
 23 24  2  0
 23 25  1  0
 25 26  1  0
 26 27  1  0
 27 28  1  0
 28 29  1  0
 29 30  1  0
 30 31  2  0
 30 32  1  0
 32 33  1  0
 33 34  1  0
 34 35  1  0
 35 36  1  0
 36 37  2  0
 37 38  1  0
 38 39  2  0
 39 40  1  0
 40 41  2  0
 41  2  1  0
 21  9  1  0
 29 25  1  0
 41 36  1  0
 19 14  1  0
  3 42  1  0
  4 43  1  0
  7 44  1  0
  8 45  1  0
  8 46  1  0
 10 47  1  0
 11 48  1  0
 13 49  1  0
 13 50  1  0
 15 51  1  0
 15 52  1  0
 16 53  1  0
 16 54  1  0
 18 55  1  0
 18 56  1  0
 19 57  1  0
 19 58  1  0
 20 59  1  0
 21 60  1  0
 22 61  1  0
 22 62  1  0
 26 63  1  0
 26 64  1  0
 27 65  1  0
 27 66  1  0
 28 67  1  0
 28 68  1  0
 29 69  1  0
 32 70  1  0
 33 71  1  0
 33 72  1  0
 34 73  1  0
 34 74  1  0
 37 75  1  0
 38 76  1  0
 39 77  1  0
 40 78  1  0
M  END
$$$$
