
     RDKit          3D

 64 65  0  0  0  0  0  0  0  0999 V2000
   -3.8149   -1.0894    2.2424 C   0  0  0  0  0  0  0  0  0  0  0  0
   -4.1896   -0.3429    1.1041 O   0  0  0  0  0  0  0  0  0  0  0  0
   -3.0606   -0.0884    0.2764 C   0  0  0  0  0  0  0  0  0  0  0  0
   -3.1315   -1.0048   -0.9869 C   0  0  0  0  0  0  0  0  0  0  0  0
   -2.1255   -2.0960   -0.9178 N   0  0  0  0  0  0  0  0  0  0  0  0
   -2.4732   -3.3842   -0.3416 C   0  0  0  0  0  0  0  0  0  0  0  0
   -3.8915   -3.8729   -0.2982 C   0  0  0  0  0  0  0  0  0  0  0  0
   -1.5650   -4.1677    0.0509 O   0  0  0  0  0  0  0  0  0  0  0  0
   -0.8937   -2.0074   -1.7353 C   0  0  0  0  0  0  0  0  0  0  0  0
    0.3923   -1.8935   -0.8848 C   0  0  0  0  0  0  0  0  0  0  0  0
    0.4801   -0.5576   -0.1317 C   0  0  0  0  0  0  0  0  0  0  0  0
    1.8788   -0.1121    0.0427 N   0  0  0  0  0  0  0  0  0  0  0  0
    2.6883   -0.7692    1.0450 C   0  0  0  0  0  0  0  0  0  0  0  0
    2.1355   -1.2411    2.0769 O   0  0  0  0  0  0  0  0  0  0  0  0
    4.1535   -0.9034    0.9154 C   0  0  0  0  0  0  0  0  0  0  0  0
    5.0628   -0.9771    1.9511 C   0  0  0  0  0  0  0  0  0  0  0  0
    6.3092   -1.0556    1.4409 N   0  0  0  0  0  0  0  0  0  0  0  0
    6.2046   -1.0469    0.1216 N   0  0  0  0  0  0  0  0  0  0  0  0
    7.3377   -1.1549   -0.7852 C   0  0  0  0  0  0  0  0  0  0  0  0
    4.9114   -0.9717   -0.2395 C   0  0  0  0  0  0  0  0  0  0  0  0
    2.4674    0.9413   -0.8138 C   0  0  0  0  0  0  0  0  0  0  0  0
    1.5647    2.1654   -1.0439 C   0  0  0  0  0  0  0  0  0  0  0  0
    1.0106    2.7862    0.2520 C   0  0  0  0  0  0  0  0  0  0  0  0
   -0.0604    3.8534   -0.0599 C   0  0  0  0  0  0  0  0  0  0  0  0
   -0.8967    4.0435    1.0730 O   0  0  0  0  0  0  0  0  0  0  0  0
   -2.2620    3.7556    0.7969 C   0  0  0  0  0  0  0  0  0  0  0  0
   -2.6089    2.2833    1.1522 C   0  0  0  0  0  0  0  0  0  0  0  0
   -3.6601    2.2906    2.0955 O   0  0  0  0  0  0  0  0  0  0  0  0
   -3.0275    1.4307   -0.0773 C   0  0  0  0  0  0  0  0  0  0  0  0
   -2.1065    1.6473   -1.1231 O   0  0  0  0  0  0  0  0  0  0  0  0
   -3.2809   -2.0404    1.9704 H   0  0  0  0  0  0  0  0  0  0  0  0
   -3.1649   -0.4790    2.9233 H   0  0  0  0  0  0  0  0  0  0  0  0
   -4.7356   -1.3659    2.7975 H   0  0  0  0  0  0  0  0  0  0  0  0
   -2.0999   -0.3023    0.7889 H   0  0  0  0  0  0  0  0  0  0  0  0
   -4.1628   -1.4191   -1.1086 H   0  0  0  0  0  0  0  0  0  0  0  0
   -2.9912   -0.4277   -1.9285 H   0  0  0  0  0  0  0  0  0  0  0  0
   -3.9376   -4.9162    0.0703 H   0  0  0  0  0  0  0  0  0  0  0  0
   -4.3135   -3.8436   -1.3236 H   0  0  0  0  0  0  0  0  0  0  0  0
   -4.5097   -3.2433    0.3683 H   0  0  0  0  0  0  0  0  0  0  0  0
   -0.9309   -1.1426   -2.4342 H   0  0  0  0  0  0  0  0  0  0  0  0
   -0.8138   -2.9082   -2.3859 H   0  0  0  0  0  0  0  0  0  0  0  0
    1.2659   -1.9832   -1.5761 H   0  0  0  0  0  0  0  0  0  0  0  0
    0.4780   -2.7358   -0.1669 H   0  0  0  0  0  0  0  0  0  0  0  0
   -0.1005    0.1981   -0.6759 H   0  0  0  0  0  0  0  0  0  0  0  0
    0.0048   -0.6670    0.8651 H   0  0  0  0  0  0  0  0  0  0  0  0
    4.8307   -0.9785    3.0126 H   0  0  0  0  0  0  0  0  0  0  0  0
    7.2413   -0.4002   -1.5954 H   0  0  0  0  0  0  0  0  0  0  0  0
    7.3705   -2.1783   -1.2233 H   0  0  0  0  0  0  0  0  0  0  0  0
    8.2878   -0.9579   -0.2419 H   0  0  0  0  0  0  0  0  0  0  0  0
    4.5493   -0.9855   -1.2560 H   0  0  0  0  0  0  0  0  0  0  0  0
    2.7181    0.4976   -1.8005 H   0  0  0  0  0  0  0  0  0  0  0  0
    3.4058    1.3208   -0.3601 H   0  0  0  0  0  0  0  0  0  0  0  0
    2.1675    2.9436   -1.5654 H   0  0  0  0  0  0  0  0  0  0  0  0
    0.7468    1.8879   -1.7416 H   0  0  0  0  0  0  0  0  0  0  0  0
    0.5577    1.9981    0.9027 H   0  0  0  0  0  0  0  0  0  0  0  0
    1.8485    3.2554    0.8266 H   0  0  0  0  0  0  0  0  0  0  0  0
   -0.6091    3.5821   -0.9908 H   0  0  0  0  0  0  0  0  0  0  0  0
    0.4456    4.8149   -0.2889 H   0  0  0  0  0  0  0  0  0  0  0  0
   -2.8612    4.4335    1.4457 H   0  0  0  0  0  0  0  0  0  0  0  0
   -2.5812    4.0464   -0.2308 H   0  0  0  0  0  0  0  0  0  0  0  0
   -1.6952    1.8178    1.5938 H   0  0  0  0  0  0  0  0  0  0  0  0
   -3.3049    1.8920    2.9370 H   0  0  0  0  0  0  0  0  0  0  0  0
   -4.0559    1.7425   -0.3883 H   0  0  0  0  0  0  0  0  0  0  0  0
   -2.5991    2.0837   -1.8663 H   0  0  0  0  0  0  0  0  0  0  0  0
  1  2  1  0
  2  3  1  0
  3  4  1  0
  4  5  1  0
  5  6  1  0
  6  7  1  0
  6  8  2  0
  5  9  1  0
  9 10  1  0
 10 11  1  0
 11 12  1  0
 12 13  1  0
 13 14  2  0
 13 15  1  0
 15 16  1  0
 16 17  2  0
 17 18  1  0
 18 19  1  0
 18 20  1  0
 12 21  1  0
 21 22  1  0
 22 23  1  0
 23 24  1  0
 24 25  1  0
 25 26  1  0
 26 27  1  0
 27 28  1  0
 27 29  1  0
 29 30  1  0
 29  3  1  0
 20 15  2  0
  1 31  1  0
  1 32  1  0
  1 33  1  0
  3 34  1  0
  4 35  1  0
  4 36  1  0
  7 37  1  0
  7 38  1  0
  7 39  1  0
  9 40  1  0
  9 41  1  0
 10 42  1  0
 10 43  1  0
 11 44  1  0
 11 45  1  0
 16 46  1  0
 19 47  1  0
 19 48  1  0
 19 49  1  0
 20 50  1  0
 21 51  1  0
 21 52  1  0
 22 53  1  0
 22 54  1  0
 23 55  1  0
 23 56  1  0
 24 57  1  0
 24 58  1  0
 26 59  1  0
 26 60  1  0
 27 61  1  0
 28 62  1  0
 29 63  1  0
 30 64  1  0
M  END
$$$$
