
     RDKit          3D

 64 67  0  0  0  0  0  0  0  0999 V2000
   -2.7741   -3.1599   -1.2758 O   0  0  0  0  0  0  0  0  0  0  0  0
   -3.2236   -2.2305   -0.5509 C   0  0  0  0  0  0  0  0  0  0  0  0
   -2.4743   -1.8234    0.6015 N   0  0  0  0  0  0  0  0  0  0  0  0
   -1.0184   -1.9660    0.7050 C   0  0  0  0  0  0  0  0  0  0  0  0
   -0.2357   -0.8972   -0.1338 C   0  0  0  0  0  0  0  0  0  0  0  0
   -0.9191    0.5127   -0.0376 C   0  0  0  0  0  0  0  0  0  0  0  0
   -1.0457    1.0874    1.3880 C   0  0  0  0  0  0  0  0  0  0  0  0
   -1.9295    2.3523    1.4346 C   0  0  0  0  0  0  0  0  0  0  0  0
   -3.3401    2.1066    2.0099 C   0  0  0  0  0  0  0  0  0  0  0  0
   -4.3768    1.6813    0.9659 C   0  0  0  0  0  0  0  0  0  0  0  0
   -4.1301    0.3525    0.5099 O   0  0  0  0  0  0  0  0  0  0  0  0
   -4.9614   -0.3615   -0.3722 C   0  0  0  0  0  0  0  0  0  0  0  0
   -6.2128    0.1584   -0.7658 C   0  0  0  0  0  0  0  0  0  0  0  0
   -7.0331   -0.5429   -1.6486 C   0  0  0  0  0  0  0  0  0  0  0  0
   -6.6229   -1.7716   -2.1540 C   0  0  0  0  0  0  0  0  0  0  0  0
   -5.3910   -2.3059   -1.7792 C   0  0  0  0  0  0  0  0  0  0  0  0
   -4.5438   -1.6204   -0.8836 C   0  0  0  0  0  0  0  0  0  0  0  0
   -0.1877   -1.3291   -1.6455 C   0  0  0  0  0  0  0  0  0  0  0  0
    1.1807   -1.1473   -2.3341 C   0  0  0  0  0  0  0  0  0  0  0  0
    1.9347    0.0902   -1.8419 C   0  0  0  0  0  0  0  0  0  0  0  0
    2.0225    0.1194   -0.3748 N   0  0  0  0  0  0  0  0  0  0  0  0
    2.8925    1.0860    0.2495 C   0  0  0  0  0  0  0  0  0  0  0  0
    3.2318    2.1202   -0.3877 O   0  0  0  0  0  0  0  0  0  0  0  0
    3.3863    0.9126    1.6606 C   0  0  0  0  0  0  0  0  0  0  0  0
    4.6705    1.5142    1.8288 O   0  0  0  0  0  0  0  0  0  0  0  0
    5.8722    1.0118    1.3014 C   0  0  0  0  0  0  0  0  0  0  0  0
    5.9318   -0.1818    0.5520 C   0  0  0  0  0  0  0  0  0  0  0  0
    7.1560   -0.6425    0.0583 C   0  0  0  0  0  0  0  0  0  0  0  0
    8.3271    0.0784    0.3038 C   0  0  0  0  0  0  0  0  0  0  0  0
    8.2764    1.2634    1.0409 C   0  0  0  0  0  0  0  0  0  0  0  0
    7.0541    1.7291    1.5376 C   0  0  0  0  0  0  0  0  0  0  0  0
    7.0172    2.8822    2.2512 F   0  0  0  0  0  0  0  0  0  0  0  0
    1.2157   -0.8232    0.4183 C   0  0  0  0  0  0  0  0  0  0  0  0
   -2.9947   -1.5391    1.4607 H   0  0  0  0  0  0  0  0  0  0  0  0
   -0.7176   -2.9976    0.4206 H   0  0  0  0  0  0  0  0  0  0  0  0
   -0.7440   -1.8726    1.7790 H   0  0  0  0  0  0  0  0  0  0  0  0
   -0.3554    1.2483   -0.6494 H   0  0  0  0  0  0  0  0  0  0  0  0
   -1.9217    0.4621   -0.5037 H   0  0  0  0  0  0  0  0  0  0  0  0
   -1.4274    0.3260    2.0966 H   0  0  0  0  0  0  0  0  0  0  0  0
   -0.0303    1.3708    1.7388 H   0  0  0  0  0  0  0  0  0  0  0  0
   -1.4276    3.0848    2.1052 H   0  0  0  0  0  0  0  0  0  0  0  0
   -1.9899    2.8445    0.4390 H   0  0  0  0  0  0  0  0  0  0  0  0
   -3.3139    1.3693    2.8414 H   0  0  0  0  0  0  0  0  0  0  0  0
   -3.6955    3.0641    2.4511 H   0  0  0  0  0  0  0  0  0  0  0  0
   -5.3747    1.7219    1.4539 H   0  0  0  0  0  0  0  0  0  0  0  0
   -4.3696    2.3854    0.1055 H   0  0  0  0  0  0  0  0  0  0  0  0
   -6.5638    1.1144   -0.4046 H   0  0  0  0  0  0  0  0  0  0  0  0
   -7.9918   -0.1335   -1.9370 H   0  0  0  0  0  0  0  0  0  0  0  0
   -7.2614   -2.3147   -2.8383 H   0  0  0  0  0  0  0  0  0  0  0  0
   -5.1025   -3.2648   -2.1920 H   0  0  0  0  0  0  0  0  0  0  0  0
   -0.4365   -2.4046   -1.7595 H   0  0  0  0  0  0  0  0  0  0  0  0
   -0.9568   -0.7814   -2.2352 H   0  0  0  0  0  0  0  0  0  0  0  0
    1.0387   -1.0819   -3.4344 H   0  0  0  0  0  0  0  0  0  0  0  0
    1.8093   -2.0439   -2.1360 H   0  0  0  0  0  0  0  0  0  0  0  0
    2.9586    0.0714   -2.2738 H   0  0  0  0  0  0  0  0  0  0  0  0
    1.4236    1.0073   -2.2051 H   0  0  0  0  0  0  0  0  0  0  0  0
    3.4403   -0.1598    1.9442 H   0  0  0  0  0  0  0  0  0  0  0  0
    2.6700    1.4126    2.3450 H   0  0  0  0  0  0  0  0  0  0  0  0
    5.0438   -0.7622    0.3448 H   0  0  0  0  0  0  0  0  0  0  0  0
    7.1962   -1.5608   -0.5136 H   0  0  0  0  0  0  0  0  0  0  0  0
    9.2739   -0.2794   -0.0784 H   0  0  0  0  0  0  0  0  0  0  0  0
    9.1863    1.8205    1.2277 H   0  0  0  0  0  0  0  0  0  0  0  0
    1.1933   -0.5350    1.4883 H   0  0  0  0  0  0  0  0  0  0  0  0
    1.6916   -1.8277    0.3738 H   0  0  0  0  0  0  0  0  0  0  0  0
  1  2  2  0
  2  3  1  0
  3  4  1  0
  4  5  1  0
  5  6  1  0
  6  7  1  0
  7  8  1  0
  8  9  1  0
  9 10  1  0
 10 11  1  0
 11 12  1  0
 12 13  2  0
 13 14  1  0
 14 15  2  0
 15 16  1  0
 16 17  2  0
  5 18  1  0
 18 19  1  0
 19 20  1  0
 20 21  1  0
 21 22  1  0
 22 23  2  0
 22 24  1  0
 24 25  1  0
 25 26  1  0
 26 27  2  0
 27 28  1  0
 28 29  2  0
 29 30  1  0
 30 31  2  0
 31 32  1  0
 21 33  1  0
 17  2  1  0
 31 26  1  0
 33  5  1  0
 17 12  1  0
  3 34  1  0
  4 35  1  0
  4 36  1  0
  6 37  1  0
  6 38  1  0
  7 39  1  0
  7 40  1  0
  8 41  1  0
  8 42  1  0
  9 43  1  0
  9 44  1  0
 10 45  1  0
 10 46  1  0
 13 47  1  0
 14 48  1  0
 15 49  1  0
 16 50  1  0
 18 51  1  0
 18 52  1  0
 19 53  1  0
 19 54  1  0
 20 55  1  0
 20 56  1  0
 24 57  1  0
 24 58  1  0
 27 59  1  0
 28 60  1  0
 29 61  1  0
 30 62  1  0
 33 63  1  0
 33 64  1  0
M  END
$$$$
