
     RDKit          3D

 72 75  0  0  0  0  0  0  0  0999 V2000
    7.8320   -1.4559   -0.1006 C   0  0  0  0  0  0  0  0  0  0  0  0
    7.2701   -1.9768   -1.4306 C   0  0  0  0  0  0  0  0  0  0  0  0
    8.0902   -1.4597   -2.6237 C   0  0  0  0  0  0  0  0  0  0  0  0
    5.7538   -1.7021   -1.5806 C   0  0  0  0  0  0  0  0  0  0  0  0
    5.3369   -0.2618   -1.4073 C   0  0  0  0  0  0  0  0  0  0  0  0
    6.0639    0.7992   -1.8083 N   0  0  0  0  0  0  0  0  0  0  0  0
    5.3308    1.8605   -1.6351 O   0  0  0  0  0  0  0  0  0  0  0  0
    4.1471    1.5529   -1.1606 C   0  0  0  0  0  0  0  0  0  0  0  0
    4.0960    0.1839   -0.9872 C   0  0  0  0  0  0  0  0  0  0  0  0
    2.8951   -0.6439   -0.6299 C   0  0  0  0  0  0  0  0  0  0  0  0
    1.8957    0.1626    0.0660 N   0  0  0  0  0  0  0  0  0  0  0  0
    2.0238    0.5118    1.4537 C   0  0  0  0  0  0  0  0  0  0  0  0
    2.9949    0.0611    2.1212 O   0  0  0  0  0  0  0  0  0  0  0  0
    1.0604    1.4612    2.1366 C   0  0  0  0  0  0  0  0  0  0  0  0
   -0.3723    1.2327    1.8252 N   0  0  0  0  0  0  0  0  0  0  0  0
   -0.8297    1.9417    0.6060 C   0  0  0  0  0  0  0  0  0  0  0  0
   -1.7775    3.0881    0.9897 C   0  0  0  0  0  0  0  0  0  0  0  0
   -2.5290    3.6628   -0.2358 C   0  0  0  0  0  0  0  0  0  0  0  0
   -3.9621    3.1201   -0.3974 C   0  0  0  0  0  0  0  0  0  0  0  0
   -3.9941    1.5938   -0.5231 C   0  0  0  0  0  0  0  0  0  0  0  0
   -5.4062    1.0252   -0.6359 C   0  0  0  0  0  0  0  0  0  0  0  0
   -5.4032   -0.3258   -0.1794 O   0  0  0  0  0  0  0  0  0  0  0  0
   -4.9269   -1.3872   -0.9524 C   0  0  0  0  0  0  0  0  0  0  0  0
   -5.7084   -1.8412   -2.0228 C   0  0  0  0  0  0  0  0  0  0  0  0
   -5.2793   -2.9120   -2.8066 C   0  0  0  0  0  0  0  0  0  0  0  0
   -4.0615   -3.5347   -2.5342 C   0  0  0  0  0  0  0  0  0  0  0  0
   -3.2678   -3.0848   -1.4772 C   0  0  0  0  0  0  0  0  0  0  0  0
   -3.6889   -2.0215   -0.6671 C   0  0  0  0  0  0  0  0  0  0  0  0
   -2.8063   -1.5972    0.3427 O   0  0  0  0  0  0  0  0  0  0  0  0
   -3.1524   -1.0796    1.5982 C   0  0  0  0  0  0  0  0  0  0  0  0
   -4.3946   -1.2921    2.1172 N   0  0  0  0  0  0  0  0  0  0  0  0
   -4.7738   -0.7779    3.3173 C   0  0  0  0  0  0  0  0  0  0  0  0
   -3.8772   -0.0188    4.0671 C   0  0  0  0  0  0  0  0  0  0  0  0
   -2.5857    0.1864    3.5824 C   0  0  0  0  0  0  0  0  0  0  0  0
   -2.2023   -0.3446    2.3411 C   0  0  0  0  0  0  0  0  0  0  0  0
   -0.7703   -0.1939    1.8829 C   0  0  0  0  0  0  0  0  0  0  0  0
    8.8833   -1.7925    0.0225 H   0  0  0  0  0  0  0  0  0  0  0  0
    7.8120   -0.3453   -0.0623 H   0  0  0  0  0  0  0  0  0  0  0  0
    7.2386   -1.8572    0.7487 H   0  0  0  0  0  0  0  0  0  0  0  0
    7.3885   -3.0841   -1.4203 H   0  0  0  0  0  0  0  0  0  0  0  0
    8.1568   -0.3535   -2.6239 H   0  0  0  0  0  0  0  0  0  0  0  0
    9.1235   -1.8664   -2.5770 H   0  0  0  0  0  0  0  0  0  0  0  0
    7.6317   -1.7929   -3.5793 H   0  0  0  0  0  0  0  0  0  0  0  0
    5.4049   -2.0532   -2.5760 H   0  0  0  0  0  0  0  0  0  0  0  0
    5.2261   -2.3201   -0.8232 H   0  0  0  0  0  0  0  0  0  0  0  0
    3.3581    2.2673   -0.9630 H   0  0  0  0  0  0  0  0  0  0  0  0
    2.4565   -1.0435   -1.5678 H   0  0  0  0  0  0  0  0  0  0  0  0
    3.1872   -1.5068    0.0029 H   0  0  0  0  0  0  0  0  0  0  0  0
    1.0731    0.4821   -0.4870 H   0  0  0  0  0  0  0  0  0  0  0  0
    1.3541    2.5070    1.8984 H   0  0  0  0  0  0  0  0  0  0  0  0
    1.1865    1.3584    3.2364 H   0  0  0  0  0  0  0  0  0  0  0  0
   -1.3251    1.2450   -0.1018 H   0  0  0  0  0  0  0  0  0  0  0  0
    0.0189    2.3876    0.0418 H   0  0  0  0  0  0  0  0  0  0  0  0
   -1.1687    3.8938    1.4517 H   0  0  0  0  0  0  0  0  0  0  0  0
   -2.4963    2.7523    1.7671 H   0  0  0  0  0  0  0  0  0  0  0  0
   -1.9560    3.4859   -1.1716 H   0  0  0  0  0  0  0  0  0  0  0  0
   -2.6017    4.7654   -0.1162 H   0  0  0  0  0  0  0  0  0  0  0  0
   -4.5661    3.4347    0.4826 H   0  0  0  0  0  0  0  0  0  0  0  0
   -4.4212    3.5738   -1.3029 H   0  0  0  0  0  0  0  0  0  0  0  0
   -3.5567    1.1765    0.3964 H   0  0  0  0  0  0  0  0  0  0  0  0
   -3.3877    1.2638   -1.3932 H   0  0  0  0  0  0  0  0  0  0  0  0
   -6.1002    1.6002    0.0129 H   0  0  0  0  0  0  0  0  0  0  0  0
   -5.7758    1.0886   -1.6832 H   0  0  0  0  0  0  0  0  0  0  0  0
   -6.6569   -1.3653   -2.2406 H   0  0  0  0  0  0  0  0  0  0  0  0
   -5.8923   -3.2579   -3.6285 H   0  0  0  0  0  0  0  0  0  0  0  0
   -3.7276   -4.3621   -3.1464 H   0  0  0  0  0  0  0  0  0  0  0  0
   -2.3180   -3.5677   -1.2829 H   0  0  0  0  0  0  0  0  0  0  0  0
   -5.7728   -0.9620    3.6899 H   0  0  0  0  0  0  0  0  0  0  0  0
   -4.1770    0.3924    5.0235 H   0  0  0  0  0  0  0  0  0  0  0  0
   -1.8794    0.7538    4.1767 H   0  0  0  0  0  0  0  0  0  0  0  0
   -0.5968   -0.6913    0.9048 H   0  0  0  0  0  0  0  0  0  0  0  0
   -0.1447   -0.7393    2.6241 H   0  0  0  0  0  0  0  0  0  0  0  0
  1  2  1  0
  2  3  1  0
  2  4  1  0
  4  5  1  0
  5  6  2  0
  6  7  1  0
  7  8  1  0
  8  9  2  0
  9 10  1  0
 10 11  1  0
 11 12  1  0
 12 13  2  0
 12 14  1  0
 14 15  1  0
 15 16  1  0
 16 17  1  0
 17 18  1  0
 18 19  1  0
 19 20  1  0
 20 21  1  0
 21 22  1  0
 22 23  1  0
 23 24  2  0
 24 25  1  0
 25 26  2  0
 26 27  1  0
 27 28  2  0
 28 29  1  0
 29 30  1  0
 30 31  2  0
 31 32  1  0
 32 33  2  0
 33 34  1  0
 34 35  2  0
 35 36  1  0
  9  5  1  0
 36 15  1  0
 28 23  1  0
 35 30  1  0
  1 37  1  0
  1 38  1  0
  1 39  1  0
  2 40  1  0
  3 41  1  0
  3 42  1  0
  3 43  1  0
  4 44  1  0
  4 45  1  0
  8 46  1  0
 10 47  1  0
 10 48  1  0
 11 49  1  0
 14 50  1  0
 14 51  1  0
 16 52  1  0
 16 53  1  0
 17 54  1  0
 17 55  1  0
 18 56  1  0
 18 57  1  0
 19 58  1  0
 19 59  1  0
 20 60  1  0
 20 61  1  0
 21 62  1  0
 21 63  1  0
 24 64  1  0
 25 65  1  0
 26 66  1  0
 27 67  1  0
 32 68  1  0
 33 69  1  0
 34 70  1  0
 36 71  1  0
 36 72  1  0
M  END
$$$$
