
     RDKit          3D

 53 54  0  0  0  0  0  0  0  0999 V2000
    5.2427    0.0486   -1.6038 C   0  0  0  0  0  0  0  0  0  0  0  0
    4.3120   -0.6365   -0.6157 C   0  0  0  0  0  0  0  0  0  0  0  0
    4.9069   -0.6246    0.6662 O   0  0  0  0  0  0  0  0  0  0  0  0
    4.0422   -1.2206    1.6133 C   0  0  0  0  0  0  0  0  0  0  0  0
    3.0257   -0.2212    2.1012 C   0  0  0  0  0  0  0  0  0  0  0  0
    3.4485    0.8064    2.6980 O   0  0  0  0  0  0  0  0  0  0  0  0
    1.6066   -0.3780    1.8685 N   0  0  0  0  0  0  0  0  0  0  0  0
    0.9946   -1.7055    1.6938 C   0  0  0  0  0  0  0  0  0  0  0  0
    0.9294   -2.0951    0.2020 C   0  0  0  0  0  0  0  0  0  0  0  0
   -0.4173   -2.7222   -0.1981 C   0  0  0  0  0  0  0  0  0  0  0  0
   -1.5458   -1.6875   -0.3464 C   0  0  0  0  0  0  0  0  0  0  0  0
   -1.3452   -0.8297   -1.5181 N   0  0  0  0  0  0  0  0  0  0  0  0
   -2.3644    0.0581   -2.0003 C   0  0  0  0  0  0  0  0  0  0  0  0
   -2.3062    0.4750   -3.1879 O   0  0  0  0  0  0  0  0  0  0  0  0
   -3.4975    0.4733   -1.1521 C   0  0  0  0  0  0  0  0  0  0  0  0
   -4.8005    0.1490   -1.5618 C   0  0  0  0  0  0  0  0  0  0  0  0
   -5.8951    0.4508   -0.7458 C   0  0  0  0  0  0  0  0  0  0  0  0
   -7.5170    0.0242   -1.2596 Cl  0  0  0  0  0  0  0  0  0  0  0  0
   -5.6950    1.0781    0.4862 C   0  0  0  0  0  0  0  0  0  0  0  0
   -4.4048    1.4236    0.8938 C   0  0  0  0  0  0  0  0  0  0  0  0
   -3.3038    1.1527    0.0727 C   0  0  0  0  0  0  0  0  0  0  0  0
   -2.0394    1.5671    0.5036 O   0  0  0  0  0  0  0  0  0  0  0  0
   -1.2607    2.5277   -0.2044 C   0  0  0  0  0  0  0  0  0  0  0  0
    0.0059    2.8786    0.5837 C   0  0  0  0  0  0  0  0  0  0  0  0
    0.9980    1.7052    0.6790 C   0  0  0  0  0  0  0  0  0  0  0  0
    0.7360    0.8086    1.8991 C   0  0  0  0  0  0  0  0  0  0  0  0
    5.4193    1.1001   -1.2925 H   0  0  0  0  0  0  0  0  0  0  0  0
    4.7848    0.0448   -2.6155 H   0  0  0  0  0  0  0  0  0  0  0  0
    6.2142   -0.4880   -1.6456 H   0  0  0  0  0  0  0  0  0  0  0  0
    3.3464   -0.0834   -0.6125 H   0  0  0  0  0  0  0  0  0  0  0  0
    4.1426   -1.6809   -0.9630 H   0  0  0  0  0  0  0  0  0  0  0  0
    4.6557   -1.5264    2.4863 H   0  0  0  0  0  0  0  0  0  0  0  0
    3.5903   -2.1591    1.2321 H   0  0  0  0  0  0  0  0  0  0  0  0
   -0.0166   -1.7137    2.1541 H   0  0  0  0  0  0  0  0  0  0  0  0
    1.5626   -2.4706    2.2657 H   0  0  0  0  0  0  0  0  0  0  0  0
    1.7270   -2.8399   -0.0056 H   0  0  0  0  0  0  0  0  0  0  0  0
    1.1424   -1.2223   -0.4471 H   0  0  0  0  0  0  0  0  0  0  0  0
   -0.7113   -3.4815    0.5591 H   0  0  0  0  0  0  0  0  0  0  0  0
   -0.2951   -3.2587   -1.1643 H   0  0  0  0  0  0  0  0  0  0  0  0
   -1.6191   -1.0671    0.5681 H   0  0  0  0  0  0  0  0  0  0  0  0
   -2.5062   -2.2351   -0.4625 H   0  0  0  0  0  0  0  0  0  0  0  0
   -0.5067   -0.9725   -2.1257 H   0  0  0  0  0  0  0  0  0  0  0  0
   -4.9632   -0.3624   -2.5032 H   0  0  0  0  0  0  0  0  0  0  0  0
   -6.5388    1.3052    1.1253 H   0  0  0  0  0  0  0  0  0  0  0  0
   -4.2604    1.9255    1.8421 H   0  0  0  0  0  0  0  0  0  0  0  0
   -0.9810    2.1502   -1.2088 H   0  0  0  0  0  0  0  0  0  0  0  0
   -1.8624    3.4526   -0.3394 H   0  0  0  0  0  0  0  0  0  0  0  0
    0.5089    3.7170    0.0542 H   0  0  0  0  0  0  0  0  0  0  0  0
   -0.2670    3.2490    1.5960 H   0  0  0  0  0  0  0  0  0  0  0  0
    0.9663    1.1038   -0.2539 H   0  0  0  0  0  0  0  0  0  0  0  0
    2.0251    2.1212    0.7638 H   0  0  0  0  0  0  0  0  0  0  0  0
    0.9155    1.3814    2.8349 H   0  0  0  0  0  0  0  0  0  0  0  0
   -0.3290    0.5047    1.9156 H   0  0  0  0  0  0  0  0  0  0  0  0
  1  2  1  0
  2  3  1  0
  3  4  1  0
  4  5  1  0
  5  6  2  0
  5  7  1  0
  7  8  1  0
  8  9  1  0
  9 10  1  0
 10 11  1  0
 11 12  1  0
 12 13  1  0
 13 14  2  0
 13 15  1  0
 15 16  2  0
 16 17  1  0
 17 18  1  0
 17 19  2  0
 19 20  1  0
 20 21  2  0
 21 22  1  0
 22 23  1  0
 23 24  1  0
 24 25  1  0
 25 26  1  0
 26  7  1  0
 21 15  1  0
  1 27  1  0
  1 28  1  0
  1 29  1  0
  2 30  1  0
  2 31  1  0
  4 32  1  0
  4 33  1  0
  8 34  1  0
  8 35  1  0
  9 36  1  0
  9 37  1  0
 10 38  1  0
 10 39  1  0
 11 40  1  0
 11 41  1  0
 12 42  1  0
 16 43  1  0
 19 44  1  0
 20 45  1  0
 23 46  1  0
 23 47  1  0
 24 48  1  0
 24 49  1  0
 25 50  1  0
 25 51  1  0
 26 52  1  0
 26 53  1  0
M  END
$$$$
