
     RDKit          3D

 67 69  0  0  0  0  0  0  0  0999 V2000
   -5.9711   -3.6559    0.7855 C   0  0  0  0  0  0  0  0  0  0  0  0
   -4.7525   -2.8690    0.6452 N   0  0  0  0  0  0  0  0  0  0  0  0
   -4.5666   -1.9463   -0.4393 C   0  0  0  0  0  0  0  0  0  0  0  0
   -5.4224   -1.9210   -1.3703 O   0  0  0  0  0  0  0  0  0  0  0  0
   -3.3732   -0.9786   -0.4269 C   0  0  0  0  0  0  0  0  0  0  0  0
   -2.0661   -1.8621   -0.2878 C   0  0  0  0  0  0  0  0  0  0  0  0
   -0.8025   -1.3830   -1.0355 C   0  0  0  0  0  0  0  0  0  0  0  0
    0.4954   -1.8766   -0.3780 C   0  0  0  0  0  0  0  0  0  0  0  0
    1.7347   -1.2518   -1.0583 C   0  0  0  0  0  0  0  0  0  0  0  0
    2.7701   -0.8832   -0.0728 N   0  0  0  0  0  0  0  0  0  0  0  0
    3.9660   -1.6787    0.0488 C   0  0  0  0  0  0  0  0  0  0  0  0
    4.4144   -1.9566    1.1967 O   0  0  0  0  0  0  0  0  0  0  0  0
    4.7002   -2.1797   -1.1690 C   0  0  0  0  0  0  0  0  0  0  0  0
    6.2118   -1.9563   -1.0622 C   0  0  0  0  0  0  0  0  0  0  0  0
    6.4828   -0.5698   -0.9880 O   0  0  0  0  0  0  0  0  0  0  0  0
    7.8766   -0.3679   -0.9492 C   0  0  0  0  0  0  0  0  0  0  0  0
    2.5621    0.1825    0.9315 C   0  0  0  0  0  0  0  0  0  0  0  0
    1.4992    1.2157    0.5377 C   0  0  0  0  0  0  0  0  0  0  0  0
    1.4345    2.2241    1.5389 O   0  0  0  0  0  0  0  0  0  0  0  0
    0.4422    3.2126    1.7019 C   0  0  0  0  0  0  0  0  0  0  0  0
    0.6194    4.0719    2.7969 C   0  0  0  0  0  0  0  0  0  0  0  0
   -0.3164    5.0631    3.0978 C   0  0  0  0  0  0  0  0  0  0  0  0
   -1.4468    5.2194    2.2991 C   0  0  0  0  0  0  0  0  0  0  0  0
   -1.6432    4.3857    1.1980 C   0  0  0  0  0  0  0  0  0  0  0  0
   -0.7133    3.3832    0.8771 C   0  0  0  0  0  0  0  0  0  0  0  0
   -1.0254    2.5630   -0.3108 C   0  0  0  0  0  0  0  0  0  0  0  0
   -0.3882    2.7635   -1.3784 O   0  0  0  0  0  0  0  0  0  0  0  0
   -2.1045    1.6042   -0.2827 N   0  0  0  0  0  0  0  0  0  0  0  0
   -2.4543    0.9587    0.9890 C   0  0  0  0  0  0  0  0  0  0  0  0
   -3.5693   -0.0743    0.8225 C   0  0  0  0  0  0  0  0  0  0  0  0
   -2.9510    1.4162   -1.4727 C   0  0  0  0  0  0  0  0  0  0  0  0
   -3.3698   -0.0599   -1.7075 C   0  0  0  0  0  0  0  0  0  0  0  0
   -6.0837   -4.3381   -0.0834 H   0  0  0  0  0  0  0  0  0  0  0  0
   -6.8507   -2.9828    0.8299 H   0  0  0  0  0  0  0  0  0  0  0  0
   -5.9272   -4.2544    1.7184 H   0  0  0  0  0  0  0  0  0  0  0  0
   -4.0146   -2.9647    1.3791 H   0  0  0  0  0  0  0  0  0  0  0  0
   -1.8293   -1.9926    0.7911 H   0  0  0  0  0  0  0  0  0  0  0  0
   -2.2632   -2.8930   -0.6604 H   0  0  0  0  0  0  0  0  0  0  0  0
   -0.7702   -0.2853   -1.0801 H   0  0  0  0  0  0  0  0  0  0  0  0
   -0.8327   -1.7544   -2.0831 H   0  0  0  0  0  0  0  0  0  0  0  0
    0.4739   -1.6233    0.7015 H   0  0  0  0  0  0  0  0  0  0  0  0
    0.5550   -2.9826   -0.4509 H   0  0  0  0  0  0  0  0  0  0  0  0
    1.4735   -0.3541   -1.6579 H   0  0  0  0  0  0  0  0  0  0  0  0
    2.1237   -1.9875   -1.7907 H   0  0  0  0  0  0  0  0  0  0  0  0
    4.3452   -1.6518   -2.0785 H   0  0  0  0  0  0  0  0  0  0  0  0
    4.4940   -3.2635   -1.2889 H   0  0  0  0  0  0  0  0  0  0  0  0
    6.5952   -2.4863   -0.1612 H   0  0  0  0  0  0  0  0  0  0  0  0
    6.6886   -2.4015   -1.9690 H   0  0  0  0  0  0  0  0  0  0  0  0
    8.0802    0.7224   -0.9188 H   0  0  0  0  0  0  0  0  0  0  0  0
    8.3747   -0.7742   -1.8599 H   0  0  0  0  0  0  0  0  0  0  0  0
    8.3223   -0.8165   -0.0356 H   0  0  0  0  0  0  0  0  0  0  0  0
    2.2773   -0.2856    1.9018 H   0  0  0  0  0  0  0  0  0  0  0  0
    3.5258    0.7250    1.0892 H   0  0  0  0  0  0  0  0  0  0  0  0
    1.7636    1.6761   -0.4358 H   0  0  0  0  0  0  0  0  0  0  0  0
    0.5304    0.7062    0.4853 H   0  0  0  0  0  0  0  0  0  0  0  0
    1.4898    3.9571    3.4325 H   0  0  0  0  0  0  0  0  0  0  0  0
   -0.1658    5.7087    3.9543 H   0  0  0  0  0  0  0  0  0  0  0  0
   -2.1740    5.9867    2.5371 H   0  0  0  0  0  0  0  0  0  0  0  0
   -2.5315    4.5198    0.5895 H   0  0  0  0  0  0  0  0  0  0  0  0
   -2.7829    1.7250    1.7255 H   0  0  0  0  0  0  0  0  0  0  0  0
   -1.5581    0.4527    1.4065 H   0  0  0  0  0  0  0  0  0  0  0  0
   -4.5384    0.4685    0.7350 H   0  0  0  0  0  0  0  0  0  0  0  0
   -3.6272   -0.6750    1.7563 H   0  0  0  0  0  0  0  0  0  0  0  0
   -3.8639    2.0369   -1.3437 H   0  0  0  0  0  0  0  0  0  0  0  0
   -2.4385    1.7862   -2.3876 H   0  0  0  0  0  0  0  0  0  0  0  0
   -4.3822    0.0092   -2.1606 H   0  0  0  0  0  0  0  0  0  0  0  0
   -2.7518   -0.5062   -2.5144 H   0  0  0  0  0  0  0  0  0  0  0  0
  1  2  1  0
  2  3  1  0
  3  4  2  0
  3  5  1  0
  5  6  1  0
  6  7  1  0
  7  8  1  0
  8  9  1  0
  9 10  1  0
 10 11  1  0
 11 12  2  0
 11 13  1  0
 13 14  1  0
 14 15  1  0
 15 16  1  0
 10 17  1  0
 17 18  1  0
 18 19  1  0
 19 20  1  0
 20 21  2  0
 21 22  1  0
 22 23  2  0
 23 24  1  0
 24 25  2  0
 25 26  1  0
 26 27  2  0
 26 28  1  0
 28 29  1  0
 29 30  1  0
 28 31  1  0
 31 32  1  0
 30  5  1  0
 32  5  1  0
 25 20  1  0
  1 33  1  0
  1 34  1  0
  1 35  1  0
  2 36  1  0
  6 37  1  0
  6 38  1  0
  7 39  1  0
  7 40  1  0
  8 41  1  0
  8 42  1  0
  9 43  1  0
  9 44  1  0
 13 45  1  0
 13 46  1  0
 14 47  1  0
 14 48  1  0
 16 49  1  0
 16 50  1  0
 16 51  1  0
 17 52  1  0
 17 53  1  0
 18 54  1  0
 18 55  1  0
 21 56  1  0
 22 57  1  0
 23 58  1  0
 24 59  1  0
 29 60  1  0
 29 61  1  0
 30 62  1  0
 30 63  1  0
 31 64  1  0
 31 65  1  0
 32 66  1  0
 32 67  1  0
M  END
$$$$
