
     RDKit          3D

 63 66  0  0  0  0  0  0  0  0999 V2000
   -2.4662   -2.0937    1.4891 C   0  0  0  0  0  0  0  0  0  0  0  0
   -2.2893   -2.6576    0.0771 C   0  0  0  0  0  0  0  0  0  0  0  0
   -0.8597   -2.8676   -0.1891 N   0  0  0  0  0  0  0  0  0  0  0  0
    0.0669   -1.7914   -0.4163 C   0  0  0  0  0  0  0  0  0  0  0  0
   -0.2324   -0.8500   -1.2046 O   0  0  0  0  0  0  0  0  0  0  0  0
    1.4318   -1.8246    0.2079 C   0  0  0  0  0  0  0  0  0  0  0  0
    1.7955   -0.4543    0.8064 C   0  0  0  0  0  0  0  0  0  0  0  0
    3.1769   -0.4999    1.4259 C   0  0  0  0  0  0  0  0  0  0  0  0
    3.2805   -0.8562    2.6341 O   0  0  0  0  0  0  0  0  0  0  0  0
    4.3769   -0.2315    0.6580 N   0  0  0  0  0  0  0  0  0  0  0  0
    5.6804   -0.6129    1.2383 C   0  0  0  0  0  0  0  0  0  0  0  0
    6.7047   -0.9014    0.1427 C   0  0  0  0  0  0  0  0  0  0  0  0
    6.8083    0.2493   -0.7407 N   0  0  0  0  0  0  0  0  0  0  0  0
    5.6328    0.9545   -1.1354 C   0  0  0  0  0  0  0  0  0  0  0  0
    5.7220    1.9036   -1.9559 O   0  0  0  0  0  0  0  0  0  0  0  0
    4.2898    0.5525   -0.5945 C   0  0  0  0  0  0  0  0  0  0  0  0
    0.8050   -0.0679    1.8216 N   0  0  0  0  0  0  0  0  0  0  0  0
    0.2020    1.2386    1.8874 C   0  0  0  0  0  0  0  0  0  0  0  0
   -0.3601    1.6117    2.9516 O   0  0  0  0  0  0  0  0  0  0  0  0
    0.1853    2.1345    0.7141 C   0  0  0  0  0  0  0  0  0  0  0  0
    1.2731    2.9972    0.5024 C   0  0  0  0  0  0  0  0  0  0  0  0
    1.3040    3.8338   -0.6146 C   0  0  0  0  0  0  0  0  0  0  0  0
    0.2468    3.8162   -1.5245 C   0  0  0  0  0  0  0  0  0  0  0  0
   -0.8337    2.9503   -1.3320 C   0  0  0  0  0  0  0  0  0  0  0  0
   -0.8810    2.1027   -0.2083 C   0  0  0  0  0  0  0  0  0  0  0  0
   -1.9617    1.2320    0.0226 O   0  0  0  0  0  0  0  0  0  0  0  0
   -3.1670    1.2305   -0.7487 C   0  0  0  0  0  0  0  0  0  0  0  0
   -4.1904    0.2626   -0.1270 C   0  0  0  0  0  0  0  0  0  0  0  0
   -5.6361    0.7340   -0.3470 C   0  0  0  0  0  0  0  0  0  0  0  0
   -6.4478   -0.5427   -0.5613 C   0  0  0  0  0  0  0  0  0  0  0  0
   -5.4566   -1.5569   -1.1201 C   0  0  0  0  0  0  0  0  0  0  0  0
   -4.1410   -1.0666   -0.7355 N   0  0  0  0  0  0  0  0  0  0  0  0
   -2.9549   -1.8284   -1.0028 C   0  0  0  0  0  0  0  0  0  0  0  0
   -2.5820   -1.9661   -2.1987 O   0  0  0  0  0  0  0  0  0  0  0  0
   -3.5434   -2.0228    1.7414 H   0  0  0  0  0  0  0  0  0  0  0  0
   -1.9862   -1.0911    1.5757 H   0  0  0  0  0  0  0  0  0  0  0  0
   -1.9855   -2.7723    2.2331 H   0  0  0  0  0  0  0  0  0  0  0  0
   -2.7909   -3.6509    0.0597 H   0  0  0  0  0  0  0  0  0  0  0  0
   -0.4602   -3.7663    0.1715 H   0  0  0  0  0  0  0  0  0  0  0  0
    2.1726   -2.1055   -0.5723 H   0  0  0  0  0  0  0  0  0  0  0  0
    1.4689   -2.6065    0.9989 H   0  0  0  0  0  0  0  0  0  0  0  0
    1.7819    0.2840   -0.0192 H   0  0  0  0  0  0  0  0  0  0  0  0
    5.5792   -1.5278    1.8584 H   0  0  0  0  0  0  0  0  0  0  0  0
    6.0447    0.2077    1.8914 H   0  0  0  0  0  0  0  0  0  0  0  0
    7.6965   -1.1200    0.5914 H   0  0  0  0  0  0  0  0  0  0  0  0
    6.3696   -1.7833   -0.4484 H   0  0  0  0  0  0  0  0  0  0  0  0
    7.7539    0.5831   -1.0473 H   0  0  0  0  0  0  0  0  0  0  0  0
    3.7034    1.4818   -0.4111 H   0  0  0  0  0  0  0  0  0  0  0  0
    3.7660   -0.0448   -1.3704 H   0  0  0  0  0  0  0  0  0  0  0  0
    0.6046   -0.7409    2.6013 H   0  0  0  0  0  0  0  0  0  0  0  0
    2.1062    3.0100    1.2017 H   0  0  0  0  0  0  0  0  0  0  0  0
    2.1515    4.4895   -0.7768 H   0  0  0  0  0  0  0  0  0  0  0  0
    0.2586    4.4710   -2.3843 H   0  0  0  0  0  0  0  0  0  0  0  0
   -1.6263    2.9514   -2.0659 H   0  0  0  0  0  0  0  0  0  0  0  0
   -3.5850    2.2626   -0.7208 H   0  0  0  0  0  0  0  0  0  0  0  0
   -2.9671    0.9581   -1.8059 H   0  0  0  0  0  0  0  0  0  0  0  0
   -4.0089    0.1759    0.9680 H   0  0  0  0  0  0  0  0  0  0  0  0
   -5.7174    1.3592   -1.2702 H   0  0  0  0  0  0  0  0  0  0  0  0
   -6.0167    1.3203    0.5253 H   0  0  0  0  0  0  0  0  0  0  0  0
   -6.8228   -0.8937    0.4239 H   0  0  0  0  0  0  0  0  0  0  0  0
   -7.3012   -0.3915   -1.2547 H   0  0  0  0  0  0  0  0  0  0  0  0
   -5.6357   -2.5602   -0.6809 H   0  0  0  0  0  0  0  0  0  0  0  0
   -5.5330   -1.6115   -2.2302 H   0  0  0  0  0  0  0  0  0  0  0  0
  1  2  1  0
  2  3  1  0
  3  4  1  0
  4  5  2  0
  4  6  1  0
  6  7  1  0
  7  8  1  0
  8  9  2  0
  8 10  1  0
 10 11  1  0
 11 12  1  0
 12 13  1  0
 13 14  1  0
 14 15  2  0
 14 16  1  0
  7 17  1  0
 17 18  1  0
 18 19  2  0
 18 20  1  0
 20 21  2  0
 21 22  1  0
 22 23  2  0
 23 24  1  0
 24 25  2  0
 25 26  1  0
 26 27  1  0
 27 28  1  0
 28 29  1  0
 29 30  1  0
 30 31  1  0
 31 32  1  0
 32 33  1  0
 33 34  2  0
 33  2  1  0
 16 10  1  0
 25 20  1  0
 32 28  1  0
  1 35  1  0
  1 36  1  0
  1 37  1  0
  2 38  1  0
  3 39  1  0
  6 40  1  0
  6 41  1  0
  7 42  1  0
 11 43  1  0
 11 44  1  0
 12 45  1  0
 12 46  1  0
 13 47  1  0
 16 48  1  0
 16 49  1  0
 17 50  1  0
 21 51  1  0
 22 52  1  0
 23 53  1  0
 24 54  1  0
 27 55  1  0
 27 56  1  0
 28 57  1  0
 29 58  1  0
 29 59  1  0
 30 60  1  0
 30 61  1  0
 31 62  1  0
 31 63  1  0
M  END
$$$$
