
     RDKit          3D

 73 76  0  0  0  0  0  0  0  0999 V2000
   -0.0466   -4.3975   -0.3375 C   0  0  0  0  0  0  0  0  0  0  0  0
   -1.2272   -3.6788   -1.0060 C   0  0  0  0  0  0  0  0  0  0  0  0
   -2.1296   -4.7088   -1.6854 C   0  0  0  0  0  0  0  0  0  0  0  0
   -2.0322   -2.8360    0.0172 C   0  0  0  0  0  0  0  0  0  0  0  0
   -1.5806   -1.3617    0.0748 C   0  0  0  0  0  0  0  0  0  0  0  0
   -2.3884   -0.5958    1.1325 C   0  0  0  0  0  0  0  0  0  0  0  0
   -3.6142   -0.1622    0.5491 O   0  0  0  0  0  0  0  0  0  0  0  0
   -4.3952    0.8281    1.1493 C   0  0  0  0  0  0  0  0  0  0  0  0
   -5.1158    0.5213    2.3086 C   0  0  0  0  0  0  0  0  0  0  0  0
   -5.9455    1.4830    2.8910 C   0  0  0  0  0  0  0  0  0  0  0  0
   -6.0697    2.7478    2.3150 C   0  0  0  0  0  0  0  0  0  0  0  0
   -5.3502    3.0729    1.1637 C   0  0  0  0  0  0  0  0  0  0  0  0
   -4.4936    2.1216    0.5770 C   0  0  0  0  0  0  0  0  0  0  0  0
   -3.6364    2.5338   -0.6063 C   0  0  0  0  0  0  0  0  0  0  0  0
   -2.5003    3.4805   -0.1651 C   0  0  0  0  0  0  0  0  0  0  0  0
   -1.4535    3.7021   -1.2817 C   0  0  0  0  0  0  0  0  0  0  0  0
   -0.0736    3.1223   -0.9228 C   0  0  0  0  0  0  0  0  0  0  0  0
   -0.1205    1.5887   -0.9422 C   0  0  0  0  0  0  0  0  0  0  0  0
    1.1141    0.8370   -0.3820 C   0  0  0  0  0  0  0  0  0  0  0  0
    2.3782    1.2141   -1.1742 C   0  0  0  0  0  0  0  0  0  0  0  0
    3.6119    0.4363   -0.7051 C   0  0  0  0  0  0  0  0  0  0  0  0
    3.5790    0.0102    0.7179 N   0  0  0  0  0  0  0  0  0  0  0  0
    4.6410   -0.8681    1.2135 C   0  0  0  0  0  0  0  0  0  0  0  0
    4.6651   -1.1949    2.4296 O   0  0  0  0  0  0  0  0  0  0  0  0
    5.6950   -1.3548    0.3108 C   0  0  0  0  0  0  0  0  0  0  0  0
    5.4294   -2.2206   -0.7494 C   0  0  0  0  0  0  0  0  0  0  0  0
    6.7477   -2.1762   -1.7790 S   0  0  0  0  0  0  0  0  0  0  0  0
    7.6550   -1.1694   -0.7832 C   0  0  0  0  0  0  0  0  0  0  0  0
    8.7723   -0.4230   -1.2747 N   0  0  0  0  0  0  0  0  0  0  0  0
    6.8951   -0.7223    0.2451 N   0  0  0  0  0  0  0  0  0  0  0  0
    2.5322    0.3687    1.6882 C   0  0  0  0  0  0  0  0  0  0  0  0
    1.4014    1.2151    1.0901 C   0  0  0  0  0  0  0  0  0  0  0  0
    0.7825   -0.6573   -0.5121 C   0  0  0  0  0  0  0  0  0  0  0  0
    1.2087   -1.3376   -1.4849 O   0  0  0  0  0  0  0  0  0  0  0  0
   -0.1511   -1.2642    0.3937 N   0  0  0  0  0  0  0  0  0  0  0  0
   -0.4096   -5.0753    0.4670 H   0  0  0  0  0  0  0  0  0  0  0  0
    0.6715   -3.6735    0.1010 H   0  0  0  0  0  0  0  0  0  0  0  0
    0.5090   -4.9922   -1.0863 H   0  0  0  0  0  0  0  0  0  0  0  0
   -0.8323   -3.0120   -1.8083 H   0  0  0  0  0  0  0  0  0  0  0  0
   -1.5425   -5.2851   -2.4246 H   0  0  0  0  0  0  0  0  0  0  0  0
   -2.9568   -4.1950   -2.2146 H   0  0  0  0  0  0  0  0  0  0  0  0
   -2.5561   -5.4021   -0.9328 H   0  0  0  0  0  0  0  0  0  0  0  0
   -3.1129   -2.8391   -0.2534 H   0  0  0  0  0  0  0  0  0  0  0  0
   -1.9550   -3.2868    1.0301 H   0  0  0  0  0  0  0  0  0  0  0  0
   -1.7656   -0.9062   -0.9317 H   0  0  0  0  0  0  0  0  0  0  0  0
   -1.8093    0.2883    1.4917 H   0  0  0  0  0  0  0  0  0  0  0  0
   -2.5989   -1.2437    2.0108 H   0  0  0  0  0  0  0  0  0  0  0  0
   -5.0232   -0.4560    2.7623 H   0  0  0  0  0  0  0  0  0  0  0  0
   -6.4797    1.2468    3.8038 H   0  0  0  0  0  0  0  0  0  0  0  0
   -6.7099    3.4899    2.7738 H   0  0  0  0  0  0  0  0  0  0  0  0
   -5.4326    4.0638    0.7379 H   0  0  0  0  0  0  0  0  0  0  0  0
   -3.2153    1.6334   -1.1169 H   0  0  0  0  0  0  0  0  0  0  0  0
   -4.2668    3.0618   -1.3481 H   0  0  0  0  0  0  0  0  0  0  0  0
   -2.9404    4.4668    0.1089 H   0  0  0  0  0  0  0  0  0  0  0  0
   -2.0344    3.0856    0.7705 H   0  0  0  0  0  0  0  0  0  0  0  0
   -1.8024    3.2675   -2.2460 H   0  0  0  0  0  0  0  0  0  0  0  0
   -1.3279    4.7853   -1.4563 H   0  0  0  0  0  0  0  0  0  0  0  0
    0.6566    3.4637   -1.6842 H   0  0  0  0  0  0  0  0  0  0  0  0
    0.2492    3.5167    0.0608 H   0  0  0  0  0  0  0  0  0  0  0  0
   -0.2958    1.2629   -1.9884 H   0  0  0  0  0  0  0  0  0  0  0  0
   -0.9929    1.2584   -0.3575 H   0  0  0  0  0  0  0  0  0  0  0  0
    2.2230    1.0292   -2.2586 H   0  0  0  0  0  0  0  0  0  0  0  0
    2.5974    2.3004   -1.0648 H   0  0  0  0  0  0  0  0  0  0  0  0
    3.6775   -0.4511   -1.3614 H   0  0  0  0  0  0  0  0  0  0  0  0
    4.5144    1.0590   -0.8828 H   0  0  0  0  0  0  0  0  0  0  0  0
    4.4696   -2.6334   -1.0057 H   0  0  0  0  0  0  0  0  0  0  0  0
    9.1987   -0.6522   -2.1979 H   0  0  0  0  0  0  0  0  0  0  0  0
    9.0474    0.4745   -0.8158 H   0  0  0  0  0  0  0  0  0  0  0  0
    2.9846    0.9384    2.5357 H   0  0  0  0  0  0  0  0  0  0  0  0
    2.0867   -0.5584    2.0992 H   0  0  0  0  0  0  0  0  0  0  0  0
    1.7219    2.2757    1.1528 H   0  0  0  0  0  0  0  0  0  0  0  0
    0.4907    1.1145    1.7202 H   0  0  0  0  0  0  0  0  0  0  0  0
    0.1779   -1.5746    1.3340 H   0  0  0  0  0  0  0  0  0  0  0  0
  1  2  1  0
  2  3  1  0
  2  4  1  0
  4  5  1  0
  5  6  1  0
  6  7  1  0
  7  8  1  0
  8  9  2  0
  9 10  1  0
 10 11  2  0
 11 12  1  0
 12 13  2  0
 13 14  1  0
 14 15  1  0
 15 16  1  0
 16 17  1  0
 17 18  1  0
 18 19  1  0
 19 20  1  0
 20 21  1  0
 21 22  1  0
 22 23  1  0
 23 24  2  0
 23 25  1  0
 25 26  2  0
 26 27  1  0
 27 28  1  0
 28 29  1  0
 28 30  2  0
 22 31  1  0
 31 32  1  0
 19 33  1  0
 33 34  2  0
 33 35  1  0
 35  5  1  0
 13  8  1  0
 32 19  1  0
 30 25  1  0
  1 36  1  0
  1 37  1  0
  1 38  1  0
  2 39  1  0
  3 40  1  0
  3 41  1  0
  3 42  1  0
  4 43  1  0
  4 44  1  0
  5 45  1  0
  6 46  1  0
  6 47  1  0
  9 48  1  0
 10 49  1  0
 11 50  1  0
 12 51  1  0
 14 52  1  0
 14 53  1  0
 15 54  1  0
 15 55  1  0
 16 56  1  0
 16 57  1  0
 17 58  1  0
 17 59  1  0
 18 60  1  0
 18 61  1  0
 20 62  1  0
 20 63  1  0
 21 64  1  0
 21 65  1  0
 26 66  1  0
 29 67  1  0
 29 68  1  0
 31 69  1  0
 31 70  1  0
 32 71  1  0
 32 72  1  0
 35 73  1  0
M  END
$$$$
