
     RDKit          3D

 70 73  0  0  0  0  0  0  0  0999 V2000
   -4.0380    2.7687   -2.6081 C   0  0  0  0  0  0  0  0  0  0  0  0
   -2.7101    2.3954   -2.3091 O   0  0  0  0  0  0  0  0  0  0  0  0
   -2.6472    1.0980   -1.7363 C   0  0  0  0  0  0  0  0  0  0  0  0
   -2.3868    1.1365   -0.1913 C   0  0  0  0  0  0  0  0  0  0  0  0
   -1.5412    2.4012    0.2110 C   0  0  0  0  0  0  0  0  0  0  0  0
   -0.1356    2.4915   -0.4705 C   0  0  0  0  0  0  0  0  0  0  0  0
    1.0684    2.5195    0.5048 C   0  0  0  0  0  0  0  0  0  0  0  0
    1.3767    1.2180    1.2988 C   0  0  0  0  0  0  0  0  0  0  0  0
    1.7932    0.0548    0.4772 N   0  0  0  0  0  0  0  0  0  0  0  0
    2.6028    0.2526   -0.6949 C   0  0  0  0  0  0  0  0  0  0  0  0
    2.1338   -0.0589   -1.8230 O   0  0  0  0  0  0  0  0  0  0  0  0
    3.9672    0.8282   -0.6000 C   0  0  0  0  0  0  0  0  0  0  0  0
    4.5756    1.3937   -1.7360 C   0  0  0  0  0  0  0  0  0  0  0  0
    5.8574    1.9440   -1.6535 C   0  0  0  0  0  0  0  0  0  0  0  0
    6.5519    1.9265   -0.4423 C   0  0  0  0  0  0  0  0  0  0  0  0
    5.9728    1.3436    0.6949 C   0  0  0  0  0  0  0  0  0  0  0  0
    6.7058    1.3385    2.0039 C   0  0  0  0  0  0  0  0  0  0  0  0
    4.6775    0.8086    0.6148 C   0  0  0  0  0  0  0  0  0  0  0  0
    1.7458   -1.3047    1.0674 C   0  0  0  0  0  0  0  0  0  0  0  0
    0.9516   -2.3313    0.2127 C   0  0  0  0  0  0  0  0  0  0  0  0
   -0.2901   -2.6938    0.8411 O   0  0  0  0  0  0  0  0  0  0  0  0
   -1.3150   -3.4518    0.2385 C   0  0  0  0  0  0  0  0  0  0  0  0
   -1.0147   -4.3006   -0.8457 C   0  0  0  0  0  0  0  0  0  0  0  0
   -2.0053   -5.0847   -1.4355 C   0  0  0  0  0  0  0  0  0  0  0  0
   -3.3117   -5.0375   -0.9584 C   0  0  0  0  0  0  0  0  0  0  0  0
   -3.6390   -4.1977    0.1054 C   0  0  0  0  0  0  0  0  0  0  0  0
   -2.6649   -3.3860    0.7123 C   0  0  0  0  0  0  0  0  0  0  0  0
   -3.1343   -2.5030    1.8209 C   0  0  0  0  0  0  0  0  0  0  0  0
   -3.6748   -3.0281    2.8297 O   0  0  0  0  0  0  0  0  0  0  0  0
   -3.1008   -1.0669    1.7203 N   0  0  0  0  0  0  0  0  0  0  0  0
   -4.2078   -0.3314    1.0685 C   0  0  0  0  0  0  0  0  0  0  0  0
   -3.7718    1.0977    0.5852 C   0  0  0  0  0  0  0  0  0  0  0  0
   -1.8065   -0.4267    1.6923 C   0  0  0  0  0  0  0  0  0  0  0  0
   -1.5663   -0.1066    0.2143 C   0  0  0  0  0  0  0  0  0  0  0  0
   -4.5971    3.0125   -1.6812 H   0  0  0  0  0  0  0  0  0  0  0  0
   -4.5719    1.9962   -3.2093 H   0  0  0  0  0  0  0  0  0  0  0  0
   -4.0079    3.6929   -3.2199 H   0  0  0  0  0  0  0  0  0  0  0  0
   -1.7998    0.5827   -2.2398 H   0  0  0  0  0  0  0  0  0  0  0  0
   -3.5303    0.4539   -1.9681 H   0  0  0  0  0  0  0  0  0  0  0  0
   -1.4179    2.4477    1.3135 H   0  0  0  0  0  0  0  0  0  0  0  0
   -2.1247    3.3150   -0.0394 H   0  0  0  0  0  0  0  0  0  0  0  0
    0.0261    1.7087   -1.2375 H   0  0  0  0  0  0  0  0  0  0  0  0
   -0.1062    3.4446   -1.0412 H   0  0  0  0  0  0  0  0  0  0  0  0
    0.8962    3.3359    1.2398 H   0  0  0  0  0  0  0  0  0  0  0  0
    1.9747    2.8141   -0.0655 H   0  0  0  0  0  0  0  0  0  0  0  0
    2.1879    1.4464    2.0219 H   0  0  0  0  0  0  0  0  0  0  0  0
    0.4987    0.9598    1.9183 H   0  0  0  0  0  0  0  0  0  0  0  0
    4.0540    1.4231   -2.6851 H   0  0  0  0  0  0  0  0  0  0  0  0
    6.3129    2.3867   -2.5296 H   0  0  0  0  0  0  0  0  0  0  0  0
    7.5429    2.3606   -0.3934 H   0  0  0  0  0  0  0  0  0  0  0  0
    6.3231    2.1594    2.6458 H   0  0  0  0  0  0  0  0  0  0  0  0
    6.5538    0.3696    2.5244 H   0  0  0  0  0  0  0  0  0  0  0  0
    7.7980    1.4792    1.8520 H   0  0  0  0  0  0  0  0  0  0  0  0
    4.2395    0.3588    1.4966 H   0  0  0  0  0  0  0  0  0  0  0  0
    2.7881   -1.6740    1.1828 H   0  0  0  0  0  0  0  0  0  0  0  0
    1.3256   -1.2700    2.0946 H   0  0  0  0  0  0  0  0  0  0  0  0
    0.7478   -1.9258   -0.7998 H   0  0  0  0  0  0  0  0  0  0  0  0
    1.5710   -3.2462    0.0943 H   0  0  0  0  0  0  0  0  0  0  0  0
   -0.0069   -4.3725   -1.2328 H   0  0  0  0  0  0  0  0  0  0  0  0
   -1.7570   -5.7349   -2.2642 H   0  0  0  0  0  0  0  0  0  0  0  0
   -4.0766   -5.6483   -1.4198 H   0  0  0  0  0  0  0  0  0  0  0  0
   -4.6664   -4.1682    0.4493 H   0  0  0  0  0  0  0  0  0  0  0  0
   -4.5620   -0.9087    0.1859 H   0  0  0  0  0  0  0  0  0  0  0  0
   -5.0533   -0.2365    1.7823 H   0  0  0  0  0  0  0  0  0  0  0  0
   -3.7135    1.7440    1.4876 H   0  0  0  0  0  0  0  0  0  0  0  0
   -4.5916    1.5210   -0.0260 H   0  0  0  0  0  0  0  0  0  0  0  0
   -1.8372    0.4873    2.3208 H   0  0  0  0  0  0  0  0  0  0  0  0
   -1.0352   -1.0445    2.1793 H   0  0  0  0  0  0  0  0  0  0  0  0
   -0.5132   -0.0125   -0.0160 H   0  0  0  0  0  0  0  0  0  0  0  0
   -1.8906   -0.9647   -0.4113 H   0  0  0  0  0  0  0  0  0  0  0  0
  1  2  1  0
  2  3  1  0
  3  4  1  0
  4  5  1  0
  5  6  1  0
  6  7  1  0
  7  8  1  0
  8  9  1  0
  9 10  1  0
 10 11  2  0
 10 12  1  0
 12 13  2  0
 13 14  1  0
 14 15  2  0
 15 16  1  0
 16 17  1  0
 16 18  2  0
  9 19  1  0
 19 20  1  0
 20 21  1  0
 21 22  1  0
 22 23  2  0
 23 24  1  0
 24 25  2  0
 25 26  1  0
 26 27  2  0
 27 28  1  0
 28 29  2  0
 28 30  1  0
 30 31  1  0
 31 32  1  0
 30 33  1  0
 33 34  1  0
 32  4  1  0
 34  4  1  0
 18 12  1  0
 27 22  1  0
  1 35  1  0
  1 36  1  0
  1 37  1  0
  3 38  1  0
  3 39  1  0
  5 40  1  0
  5 41  1  0
  6 42  1  0
  6 43  1  0
  7 44  1  0
  7 45  1  0
  8 46  1  0
  8 47  1  0
 13 48  1  0
 14 49  1  0
 15 50  1  0
 17 51  1  0
 17 52  1  0
 17 53  1  0
 18 54  1  0
 19 55  1  0
 19 56  1  0
 20 57  1  0
 20 58  1  0
 23 59  1  0
 24 60  1  0
 25 61  1  0
 26 62  1  0
 31 63  1  0
 31 64  1  0
 32 65  1  0
 32 66  1  0
 33 67  1  0
 33 68  1  0
 34 69  1  0
 34 70  1  0
M  END
$$$$
