
     RDKit          3D

 71 73  0  0  0  0  0  0  0  0999 V2000
    7.3520    1.6691    0.8654 C   0  0  0  0  0  0  0  0  0  0  0  0
    7.6127    0.5442   -0.1477 C   0  0  0  0  0  0  0  0  0  0  0  0
    9.0859    0.5534   -0.5749 C   0  0  0  0  0  0  0  0  0  0  0  0
    6.6995    0.6726   -1.3845 C   0  0  0  0  0  0  0  0  0  0  0  0
    5.2559    0.4665   -1.0365 C   0  0  0  0  0  0  0  0  0  0  0  0
    4.6605   -0.7370   -0.7239 C   0  0  0  0  0  0  0  0  0  0  0  0
    3.3553   -0.3896   -0.4372 C   0  0  0  0  0  0  0  0  0  0  0  0
    2.2796   -1.3296   -0.0504 C   0  0  0  0  0  0  0  0  0  0  0  0
    2.5276   -2.5644   -0.1233 O   0  0  0  0  0  0  0  0  0  0  0  0
    0.9668   -0.8971    0.3885 N   0  0  0  0  0  0  0  0  0  0  0  0
    0.6980    0.4765    0.8444 C   0  0  0  0  0  0  0  0  0  0  0  0
    0.0912    1.3135   -0.2907 C   0  0  0  0  0  0  0  0  0  0  0  0
   -0.2380    2.7523    0.1589 C   0  0  0  0  0  0  0  0  0  0  0  0
   -1.7456    2.9888    0.3192 C   0  0  0  0  0  0  0  0  0  0  0  0
   -2.3039    2.1680    1.3966 N   0  0  0  0  0  0  0  0  0  0  0  0
   -3.6979    1.8320    1.4665 C   0  0  0  0  0  0  0  0  0  0  0  0
   -4.1873    1.4399    2.5592 O   0  0  0  0  0  0  0  0  0  0  0  0
   -4.5791    1.9645    0.2951 C   0  0  0  0  0  0  0  0  0  0  0  0
   -5.4382    3.0730    0.2397 C   0  0  0  0  0  0  0  0  0  0  0  0
   -6.1925    3.3283   -0.9084 C   0  0  0  0  0  0  0  0  0  0  0  0
   -7.2512    4.7254   -0.9711 Cl  0  0  0  0  0  0  0  0  0  0  0  0
   -6.0857    2.4835   -2.0144 C   0  0  0  0  0  0  0  0  0  0  0  0
   -5.2435    1.3709   -1.9662 C   0  0  0  0  0  0  0  0  0  0  0  0
   -4.5063    1.0801   -0.8115 C   0  0  0  0  0  0  0  0  0  0  0  0
   -3.7327   -0.0913   -0.8202 O   0  0  0  0  0  0  0  0  0  0  0  0
   -3.5793   -0.9692    0.2943 C   0  0  0  0  0  0  0  0  0  0  0  0
   -3.2575   -2.3902   -0.2112 C   0  0  0  0  0  0  0  0  0  0  0  0
   -3.0560   -3.4502    0.9163 C   0  0  0  0  0  0  0  0  0  0  0  0
   -4.3364   -3.6426    1.7476 C   0  0  0  0  0  0  0  0  0  0  0  0
   -2.6293   -4.8057    0.3285 C   0  0  0  0  0  0  0  0  0  0  0  0
   -2.1468   -2.3688   -1.1808 N   0  0  0  0  0  0  0  0  0  0  0  0
   -0.7730   -1.9860   -0.9655 C   0  0  0  0  0  0  0  0  0  0  0  0
   -0.0349   -1.8351   -1.9766 O   0  0  0  0  0  0  0  0  0  0  0  0
   -0.1469   -1.8622    0.4016 C   0  0  0  0  0  0  0  0  0  0  0  0
    3.2294    0.9102   -0.5807 O   0  0  0  0  0  0  0  0  0  0  0  0
    4.3539    1.4607   -0.9352 N   0  0  0  0  0  0  0  0  0  0  0  0
    7.5186    2.6637    0.3987 H   0  0  0  0  0  0  0  0  0  0  0  0
    6.3087    1.6192    1.2420 H   0  0  0  0  0  0  0  0  0  0  0  0
    8.0321    1.5641    1.7378 H   0  0  0  0  0  0  0  0  0  0  0  0
    7.4114   -0.4309    0.3503 H   0  0  0  0  0  0  0  0  0  0  0  0
    9.2884   -0.2877   -1.2722 H   0  0  0  0  0  0  0  0  0  0  0  0
    9.7441    0.4285    0.3114 H   0  0  0  0  0  0  0  0  0  0  0  0
    9.3422    1.5097   -1.0807 H   0  0  0  0  0  0  0  0  0  0  0  0
    6.8303    1.6725   -1.8539 H   0  0  0  0  0  0  0  0  0  0  0  0
    6.9836   -0.0916   -2.1404 H   0  0  0  0  0  0  0  0  0  0  0  0
    5.1150   -1.7190   -0.7007 H   0  0  0  0  0  0  0  0  0  0  0  0
    1.6207    0.9489    1.2397 H   0  0  0  0  0  0  0  0  0  0  0  0
   -0.0082    0.4552    1.7015 H   0  0  0  0  0  0  0  0  0  0  0  0
   -0.8201    0.8076   -0.6774 H   0  0  0  0  0  0  0  0  0  0  0  0
    0.8095    1.3530   -1.1362 H   0  0  0  0  0  0  0  0  0  0  0  0
    0.2862    3.0157    1.1041 H   0  0  0  0  0  0  0  0  0  0  0  0
    0.1325    3.4582   -0.6160 H   0  0  0  0  0  0  0  0  0  0  0  0
   -1.9219    4.0598    0.5577 H   0  0  0  0  0  0  0  0  0  0  0  0
   -2.2454    2.7685   -0.6479 H   0  0  0  0  0  0  0  0  0  0  0  0
   -1.7400    2.0510    2.2685 H   0  0  0  0  0  0  0  0  0  0  0  0
   -5.4984    3.7565    1.0786 H   0  0  0  0  0  0  0  0  0  0  0  0
   -6.6589    2.6847   -2.9104 H   0  0  0  0  0  0  0  0  0  0  0  0
   -5.1818    0.7133   -2.8240 H   0  0  0  0  0  0  0  0  0  0  0  0
   -2.7882   -0.5896    0.9620 H   0  0  0  0  0  0  0  0  0  0  0  0
   -4.5333   -0.9910    0.8623 H   0  0  0  0  0  0  0  0  0  0  0  0
   -4.1637   -2.7108   -0.7758 H   0  0  0  0  0  0  0  0  0  0  0  0
   -2.2677   -3.1283    1.6219 H   0  0  0  0  0  0  0  0  0  0  0  0
   -4.5691   -2.7268    2.3286 H   0  0  0  0  0  0  0  0  0  0  0  0
   -5.1998   -3.8905    1.0938 H   0  0  0  0  0  0  0  0  0  0  0  0
   -4.2017   -4.4654    2.4821 H   0  0  0  0  0  0  0  0  0  0  0  0
   -1.6454   -4.7218   -0.1785 H   0  0  0  0  0  0  0  0  0  0  0  0
   -3.3833   -5.1692   -0.4025 H   0  0  0  0  0  0  0  0  0  0  0  0
   -2.5202   -5.5610    1.1358 H   0  0  0  0  0  0  0  0  0  0  0  0
   -2.4034   -2.5999   -2.1682 H   0  0  0  0  0  0  0  0  0  0  0  0
   -0.8853   -1.5399    1.1481 H   0  0  0  0  0  0  0  0  0  0  0  0
    0.2057   -2.8608    0.7344 H   0  0  0  0  0  0  0  0  0  0  0  0
  1  2  1  0
  2  3  1  0
  2  4  1  0
  4  5  1  0
  5  6  1  0
  6  7  2  0
  7  8  1  0
  8  9  2  0
  8 10  1  0
 10 11  1  0
 11 12  1  0
 12 13  1  0
 13 14  1  0
 14 15  1  0
 15 16  1  0
 16 17  2  0
 16 18  1  0
 18 19  2  0
 19 20  1  0
 20 21  1  0
 20 22  2  0
 22 23  1  0
 23 24  2  0
 24 25  1  0
 25 26  1  0
 26 27  1  0
 27 28  1  0
 28 29  1  0
 28 30  1  0
 27 31  1  0
 31 32  1  0
 32 33  2  0
 32 34  1  0
  7 35  1  0
 35 36  1  0
 36  5  2  0
 34 10  1  0
 24 18  1  0
  1 37  1  0
  1 38  1  0
  1 39  1  0
  2 40  1  0
  3 41  1  0
  3 42  1  0
  3 43  1  0
  4 44  1  0
  4 45  1  0
  6 46  1  0
 11 47  1  0
 11 48  1  0
 12 49  1  0
 12 50  1  0
 13 51  1  0
 13 52  1  0
 14 53  1  0
 14 54  1  0
 15 55  1  0
 19 56  1  0
 22 57  1  0
 23 58  1  0
 26 59  1  0
 26 60  1  0
 27 61  1  0
 28 62  1  0
 29 63  1  0
 29 64  1  0
 29 65  1  0
 30 66  1  0
 30 67  1  0
 30 68  1  0
 31 69  1  0
 34 70  1  0
 34 71  1  0
M  END
$$$$
