
     RDKit          3D

 76 79  0  0  0  0  0  0  0  0999 V2000
   -6.0313    3.0488    2.6115 C   0  0  0  0  0  0  0  0  0  0  0  0
   -4.5573    2.6058    2.6347 C   0  0  0  0  0  0  0  0  0  0  0  0
   -3.6364    3.8385    2.5597 C   0  0  0  0  0  0  0  0  0  0  0  0
   -4.2848    1.4753    1.5853 C   0  0  0  0  0  0  0  0  0  0  0  0
   -2.9733    0.8261    1.7780 N   0  0  0  0  0  0  0  0  0  0  0  0
   -1.6692    1.4349    1.7029 C   0  0  0  0  0  0  0  0  0  0  0  0
   -0.7985    1.0888    2.5457 O   0  0  0  0  0  0  0  0  0  0  0  0
   -1.2725    2.4203    0.6254 C   0  0  0  0  0  0  0  0  0  0  0  0
   -0.4399    1.7904   -0.5129 C   0  0  0  0  0  0  0  0  0  0  0  0
    0.8241    1.1490    0.0138 C   0  0  0  0  0  0  0  0  0  0  0  0
    0.8220   -0.0763    0.3236 O   0  0  0  0  0  0  0  0  0  0  0  0
    2.0148    1.9329    0.1845 N   0  0  0  0  0  0  0  0  0  0  0  0
    3.2857    1.3329    0.5830 C   0  0  0  0  0  0  0  0  0  0  0  0
    3.9121    0.5833   -0.5960 C   0  0  0  0  0  0  0  0  0  0  0  0
    5.1424   -0.1684   -0.1565 C   0  0  0  0  0  0  0  0  0  0  0  0
    6.3532    0.5170    0.0595 C   0  0  0  0  0  0  0  0  0  0  0  0
    7.4867   -0.1717    0.5047 C   0  0  0  0  0  0  0  0  0  0  0  0
    7.4158   -1.5474    0.7435 C   0  0  0  0  0  0  0  0  0  0  0  0
    6.2229   -2.2419    0.5028 C   0  0  0  0  0  0  0  0  0  0  0  0
    5.0826   -1.5535    0.0818 C   0  0  0  0  0  0  0  0  0  0  0  0
    6.1910   -3.6271    0.6948 O   0  0  0  0  0  0  0  0  0  0  0  0
    7.3996   -4.3758    0.8482 C   0  0  0  0  0  0  0  0  0  0  0  0
    8.4059   -3.5917    1.7027 C   0  0  0  0  0  0  0  0  0  0  0  0
    8.5282   -2.2488    1.2239 O   0  0  0  0  0  0  0  0  0  0  0  0
   -1.2320    0.8182   -1.2690 N   0  0  0  0  0  0  0  0  0  0  0  0
   -0.6890    0.1240   -2.4056 C   0  0  0  0  0  0  0  0  0  0  0  0
    0.0826    0.7382   -3.1913 O   0  0  0  0  0  0  0  0  0  0  0  0
   -0.8671   -1.3388   -2.5670 C   0  0  0  0  0  0  0  0  0  0  0  0
    0.2244   -2.0953   -3.0339 C   0  0  0  0  0  0  0  0  0  0  0  0
    0.1589   -3.4900   -3.0797 C   0  0  0  0  0  0  0  0  0  0  0  0
   -0.9954   -4.1522   -2.6598 C   0  0  0  0  0  0  0  0  0  0  0  0
   -2.1030   -3.4198   -2.2263 C   0  0  0  0  0  0  0  0  0  0  0  0
   -2.0596   -2.0122   -2.1968 C   0  0  0  0  0  0  0  0  0  0  0  0
   -3.2095   -1.2891   -1.8583 O   0  0  0  0  0  0  0  0  0  0  0  0
   -3.9298   -1.5102   -0.6447 C   0  0  0  0  0  0  0  0  0  0  0  0
   -5.1644   -0.6042   -0.5799 C   0  0  0  0  0  0  0  0  0  0  0  0
   -4.8399    0.8028   -0.8853 N   0  0  0  0  0  0  0  0  0  0  0  0
   -4.8689    1.2293   -2.2925 C   0  0  0  0  0  0  0  0  0  0  0  0
   -4.5686    1.8122    0.1248 C   0  0  0  0  0  0  0  0  0  0  0  0
   -4.5835    3.0246   -0.2295 O   0  0  0  0  0  0  0  0  0  0  0  0
   -6.2786    3.5717    1.6683 H   0  0  0  0  0  0  0  0  0  0  0  0
   -6.2388    3.7355    3.4592 H   0  0  0  0  0  0  0  0  0  0  0  0
   -6.7066    2.1708    2.7200 H   0  0  0  0  0  0  0  0  0  0  0  0
   -4.3823    2.1548    3.6350 H   0  0  0  0  0  0  0  0  0  0  0  0
   -3.6588    4.3313    1.5698 H   0  0  0  0  0  0  0  0  0  0  0  0
   -2.5953    3.5774    2.8287 H   0  0  0  0  0  0  0  0  0  0  0  0
   -3.9597    4.5900    3.3125 H   0  0  0  0  0  0  0  0  0  0  0  0
   -5.0387    0.7141    1.8658 H   0  0  0  0  0  0  0  0  0  0  0  0
   -2.9929   -0.1339    2.1970 H   0  0  0  0  0  0  0  0  0  0  0  0
   -0.6744    3.2326    1.0950 H   0  0  0  0  0  0  0  0  0  0  0  0
   -2.1554    2.9165    0.1883 H   0  0  0  0  0  0  0  0  0  0  0  0
   -0.1560    2.6134   -1.2071 H   0  0  0  0  0  0  0  0  0  0  0  0
    1.9671    2.9691    0.0466 H   0  0  0  0  0  0  0  0  0  0  0  0
    3.1201    0.6485    1.4460 H   0  0  0  0  0  0  0  0  0  0  0  0
    3.9792    2.1360    0.9130 H   0  0  0  0  0  0  0  0  0  0  0  0
    4.1841    1.3090   -1.3955 H   0  0  0  0  0  0  0  0  0  0  0  0
    3.1695   -0.1207   -1.0303 H   0  0  0  0  0  0  0  0  0  0  0  0
    6.4184    1.5864   -0.1149 H   0  0  0  0  0  0  0  0  0  0  0  0
    8.4173    0.3627    0.6683 H   0  0  0  0  0  0  0  0  0  0  0  0
    4.1590   -2.1008   -0.0696 H   0  0  0  0  0  0  0  0  0  0  0  0
    7.1731   -5.3535    1.3279 H   0  0  0  0  0  0  0  0  0  0  0  0
    7.8387   -4.5595   -0.1586 H   0  0  0  0  0  0  0  0  0  0  0  0
    8.0481   -3.5748    2.7556 H   0  0  0  0  0  0  0  0  0  0  0  0
    9.3988   -4.0873    1.6728 H   0  0  0  0  0  0  0  0  0  0  0  0
   -2.2034    0.6254   -0.9490 H   0  0  0  0  0  0  0  0  0  0  0  0
    1.1430   -1.6097   -3.3402 H   0  0  0  0  0  0  0  0  0  0  0  0
    1.0091   -4.0645   -3.4311 H   0  0  0  0  0  0  0  0  0  0  0  0
   -1.0363   -5.2336   -2.6920 H   0  0  0  0  0  0  0  0  0  0  0  0
   -3.0074   -3.9505   -1.9591 H   0  0  0  0  0  0  0  0  0  0  0  0
   -3.2586   -1.3117    0.2130 H   0  0  0  0  0  0  0  0  0  0  0  0
   -4.2645   -2.5659   -0.5839 H   0  0  0  0  0  0  0  0  0  0  0  0
   -5.6553   -0.7073    0.4040 H   0  0  0  0  0  0  0  0  0  0  0  0
   -5.9165   -0.9796   -1.3077 H   0  0  0  0  0  0  0  0  0  0  0  0
   -3.8990    1.7013   -2.5646 H   0  0  0  0  0  0  0  0  0  0  0  0
   -5.6935    1.9564   -2.4443 H   0  0  0  0  0  0  0  0  0  0  0  0
   -5.0329    0.3711   -2.9767 H   0  0  0  0  0  0  0  0  0  0  0  0
  1  2  1  0
  2  3  1  0
  2  4  1  0
  4  5  1  0
  5  6  1  0
  6  7  2  0
  6  8  1  0
  8  9  1  0
  9 10  1  0
 10 11  2  0
 10 12  1  0
 12 13  1  0
 13 14  1  0
 14 15  1  0
 15 16  2  0
 16 17  1  0
 17 18  2  0
 18 19  1  0
 19 20  2  0
 19 21  1  0
 21 22  1  0
 22 23  1  0
 23 24  1  0
  9 25  1  0
 25 26  1  0
 26 27  2  0
 26 28  1  0
 28 29  2  0
 29 30  1  0
 30 31  2  0
 31 32  1  0
 32 33  2  0
 33 34  1  0
 34 35  1  0
 35 36  1  0
 36 37  1  0
 37 38  1  0
 37 39  1  0
 39 40  2  0
 39  4  1  0
 20 15  1  0
 33 28  1  0
 24 18  1  0
  1 41  1  0
  1 42  1  0
  1 43  1  0
  2 44  1  0
  3 45  1  0
  3 46  1  0
  3 47  1  0
  4 48  1  0
  5 49  1  0
  8 50  1  0
  8 51  1  0
  9 52  1  0
 12 53  1  0
 13 54  1  0
 13 55  1  0
 14 56  1  0
 14 57  1  0
 16 58  1  0
 17 59  1  0
 20 60  1  0
 22 61  1  0
 22 62  1  0
 23 63  1  0
 23 64  1  0
 25 65  1  0
 29 66  1  0
 30 67  1  0
 31 68  1  0
 32 69  1  0
 35 70  1  0
 35 71  1  0
 36 72  1  0
 36 73  1  0
 38 74  1  0
 38 75  1  0
 38 76  1  0
M  END
$$$$
