
     RDKit          3D

 81 84  0  0  0  0  0  0  0  0999 V2000
   -5.4265    1.8865   -1.7150 C   0  0  0  0  0  0  0  0  0  0  0  0
   -4.9024    1.2439   -0.4341 C   0  0  0  0  0  0  0  0  0  0  0  0
   -3.7295    0.4099   -0.7177 N   0  0  0  0  0  0  0  0  0  0  0  0
   -3.8960   -0.9886   -1.1341 C   0  0  0  0  0  0  0  0  0  0  0  0
   -3.2270   -1.9229   -0.1319 C   0  0  0  0  0  0  0  0  0  0  0  0
   -3.1632   -3.2437   -0.6642 O   0  0  0  0  0  0  0  0  0  0  0  0
   -2.0197   -4.0538   -0.5881 C   0  0  0  0  0  0  0  0  0  0  0  0
   -1.6733   -4.7949   -1.7252 C   0  0  0  0  0  0  0  0  0  0  0  0
   -0.4915   -5.5377   -1.7578 C   0  0  0  0  0  0  0  0  0  0  0  0
    0.3529   -5.5553   -0.6475 C   0  0  0  0  0  0  0  0  0  0  0  0
    0.0003   -4.8599    0.5106 C   0  0  0  0  0  0  0  0  0  0  0  0
   -1.1925   -4.1200    0.5631 C   0  0  0  0  0  0  0  0  0  0  0  0
   -1.5951   -3.5317    1.8570 C   0  0  0  0  0  0  0  0  0  0  0  0
   -2.7153   -3.8340    2.3486 O   0  0  0  0  0  0  0  0  0  0  0  0
   -0.7234   -2.6556    2.5852 N   0  0  0  0  0  0  0  0  0  0  0  0
    0.1943   -1.7202    1.9238 C   0  0  0  0  0  0  0  0  0  0  0  0
    1.6055   -2.2280    2.0389 C   0  0  0  0  0  0  0  0  0  0  0  0
    2.0288   -2.6346    3.1573 O   0  0  0  0  0  0  0  0  0  0  0  0
    2.4684   -2.2315    0.8890 N   0  0  0  0  0  0  0  0  0  0  0  0
    3.8566   -2.6907    0.9356 C   0  0  0  0  0  0  0  0  0  0  0  0
    4.8060   -1.5290    0.6664 C   0  0  0  0  0  0  0  0  0  0  0  0
    4.5957   -1.0265   -0.6517 O   0  0  0  0  0  0  0  0  0  0  0  0
    5.3082    0.0411   -1.2171 C   0  0  0  0  0  0  0  0  0  0  0  0
    4.9873    0.4383   -2.5201 C   0  0  0  0  0  0  0  0  0  0  0  0
    5.6675    1.4971   -3.1282 C   0  0  0  0  0  0  0  0  0  0  0  0
    6.6929    2.1656   -2.4429 C   0  0  0  0  0  0  0  0  0  0  0  0
    7.3964    3.3274   -3.0796 C   0  0  0  0  0  0  0  0  0  0  0  0
    7.0087    1.7806   -1.1316 C   0  0  0  0  0  0  0  0  0  0  0  0
    6.3263    0.7226   -0.5230 C   0  0  0  0  0  0  0  0  0  0  0  0
    0.0832   -0.3109    2.5407 C   0  0  0  0  0  0  0  0  0  0  0  0
   -1.3500    0.1498    2.6550 C   0  0  0  0  0  0  0  0  0  0  0  0
   -1.9394   -0.0048    3.7580 O   0  0  0  0  0  0  0  0  0  0  0  0
   -2.0888    0.7052    1.5534 N   0  0  0  0  0  0  0  0  0  0  0  0
   -1.4898    1.1833    0.3004 C   0  0  0  0  0  0  0  0  0  0  0  0
   -1.0098    2.6412    0.4590 C   0  0  0  0  0  0  0  0  0  0  0  0
   -2.1421    3.6022    0.7357 C   0  0  0  0  0  0  0  0  0  0  0  0
   -2.5960    3.8055    2.0500 C   0  0  0  0  0  0  0  0  0  0  0  0
   -3.6756    4.6586    2.2986 C   0  0  0  0  0  0  0  0  0  0  0  0
   -4.3086    5.3147    1.2392 C   0  0  0  0  0  0  0  0  0  0  0  0
   -3.8603    5.1230   -0.0698 C   0  0  0  0  0  0  0  0  0  0  0  0
   -2.7810    4.2710   -0.3232 C   0  0  0  0  0  0  0  0  0  0  0  0
   -2.4415    1.0306   -0.8688 C   0  0  0  0  0  0  0  0  0  0  0  0
   -2.0658    1.3887   -2.0174 O   0  0  0  0  0  0  0  0  0  0  0  0
   -5.6910    1.1040   -2.4593 H   0  0  0  0  0  0  0  0  0  0  0  0
   -4.6577    2.5588   -2.1500 H   0  0  0  0  0  0  0  0  0  0  0  0
   -6.3329    2.4896   -1.4867 H   0  0  0  0  0  0  0  0  0  0  0  0
   -4.6402    2.0408    0.2929 H   0  0  0  0  0  0  0  0  0  0  0  0
   -5.7051    0.6283    0.0253 H   0  0  0  0  0  0  0  0  0  0  0  0
   -3.4404   -1.1295   -2.1390 H   0  0  0  0  0  0  0  0  0  0  0  0
   -4.9736   -1.2536   -1.2142 H   0  0  0  0  0  0  0  0  0  0  0  0
   -3.7966   -1.9249    0.8203 H   0  0  0  0  0  0  0  0  0  0  0  0
   -2.2027   -1.5498    0.0553 H   0  0  0  0  0  0  0  0  0  0  0  0
   -2.3051   -4.7624   -2.6029 H   0  0  0  0  0  0  0  0  0  0  0  0
   -0.2262   -6.0941   -2.6480 H   0  0  0  0  0  0  0  0  0  0  0  0
    1.2705   -6.1276   -0.6756 H   0  0  0  0  0  0  0  0  0  0  0  0
    0.6415   -4.9282    1.3804 H   0  0  0  0  0  0  0  0  0  0  0  0
   -0.8272   -2.6119    3.6249 H   0  0  0  0  0  0  0  0  0  0  0  0
   -0.0663   -1.6432    0.8485 H   0  0  0  0  0  0  0  0  0  0  0  0
    2.0892   -1.9103   -0.0296 H   0  0  0  0  0  0  0  0  0  0  0  0
    4.0058   -3.4789    0.1667 H   0  0  0  0  0  0  0  0  0  0  0  0
    4.1012   -3.1356    1.9241 H   0  0  0  0  0  0  0  0  0  0  0  0
    4.6280   -0.7250    1.4140 H   0  0  0  0  0  0  0  0  0  0  0  0
    5.8515   -1.8916    0.7633 H   0  0  0  0  0  0  0  0  0  0  0  0
    4.2037   -0.0751   -3.0623 H   0  0  0  0  0  0  0  0  0  0  0  0
    5.3942    1.7945   -4.1327 H   0  0  0  0  0  0  0  0  0  0  0  0
    6.8529    4.2655   -2.8411 H   0  0  0  0  0  0  0  0  0  0  0  0
    8.4397    3.4056   -2.7040 H   0  0  0  0  0  0  0  0  0  0  0  0
    7.4387    3.2029   -4.1827 H   0  0  0  0  0  0  0  0  0  0  0  0
    7.7842    2.2990   -0.5799 H   0  0  0  0  0  0  0  0  0  0  0  0
    6.5962    0.4448    0.4862 H   0  0  0  0  0  0  0  0  0  0  0  0
    0.5317   -0.3191    3.5594 H   0  0  0  0  0  0  0  0  0  0  0  0
    0.6761    0.4153    1.9465 H   0  0  0  0  0  0  0  0  0  0  0  0
   -3.0830    0.9561    1.7509 H   0  0  0  0  0  0  0  0  0  0  0  0
   -0.6074    0.5589    0.0533 H   0  0  0  0  0  0  0  0  0  0  0  0
   -0.4645    2.9538   -0.4584 H   0  0  0  0  0  0  0  0  0  0  0  0
   -0.2706    2.6936    1.2882 H   0  0  0  0  0  0  0  0  0  0  0  0
   -2.1193    3.2970    2.8793 H   0  0  0  0  0  0  0  0  0  0  0  0
   -4.0254    4.8060    3.3122 H   0  0  0  0  0  0  0  0  0  0  0  0
   -5.1453    5.9736    1.4321 H   0  0  0  0  0  0  0  0  0  0  0  0
   -4.3499    5.6329   -0.8895 H   0  0  0  0  0  0  0  0  0  0  0  0
   -2.4500    4.1271   -1.3445 H   0  0  0  0  0  0  0  0  0  0  0  0
  1  2  1  0
  2  3  1  0
  3  4  1  0
  4  5  1  0
  5  6  1  0
  6  7  1  0
  7  8  2  0
  8  9  1  0
  9 10  2  0
 10 11  1  0
 11 12  2  0
 12 13  1  0
 13 14  2  0
 13 15  1  0
 15 16  1  0
 16 17  1  0
 17 18  2  0
 17 19  1  0
 19 20  1  0
 20 21  1  0
 21 22  1  0
 22 23  1  0
 23 24  2  0
 24 25  1  0
 25 26  2  0
 26 27  1  0
 26 28  1  0
 28 29  2  0
 16 30  1  0
 30 31  1  0
 31 32  2  0
 31 33  1  0
 33 34  1  0
 34 35  1  0
 35 36  1  0
 36 37  2  0
 37 38  1  0
 38 39  2  0
 39 40  1  0
 40 41  2  0
 34 42  1  0
 42 43  2  0
 42  3  1  0
 12  7  1  0
 29 23  1  0
 41 36  1  0
  1 44  1  0
  1 45  1  0
  1 46  1  0
  2 47  1  0
  2 48  1  0
  4 49  1  0
  4 50  1  0
  5 51  1  0
  5 52  1  0
  8 53  1  0
  9 54  1  0
 10 55  1  0
 11 56  1  0
 15 57  1  0
 16 58  1  0
 19 59  1  0
 20 60  1  0
 20 61  1  0
 21 62  1  0
 21 63  1  0
 24 64  1  0
 25 65  1  0
 27 66  1  0
 27 67  1  0
 27 68  1  0
 28 69  1  0
 29 70  1  0
 30 71  1  0
 30 72  1  0
 33 73  1  0
 34 74  1  0
 35 75  1  0
 35 76  1  0
 37 77  1  0
 38 78  1  0
 39 79  1  0
 40 80  1  0
 41 81  1  0
M  END
$$$$
