
     RDKit          3D

 77 78  0  0  0  0  0  0  0  0999 V2000
   -5.0412   -0.3545    1.6058 C   0  0  0  0  0  0  0  0  0  0  0  0
   -4.6144   -0.0135    0.3115 O   0  0  0  0  0  0  0  0  0  0  0  0
   -3.2877   -0.4156    0.0235 C   0  0  0  0  0  0  0  0  0  0  0  0
   -2.8059    0.4621   -1.1633 C   0  0  0  0  0  0  0  0  0  0  0  0
   -2.2609    1.7502   -0.7027 N   0  0  0  0  0  0  0  0  0  0  0  0
   -3.1176    2.6566    0.0085 C   0  0  0  0  0  0  0  0  0  0  0  0
   -3.0636    2.7525    1.4969 C   0  0  0  0  0  0  0  0  0  0  0  0
   -3.9405    3.3657   -0.6269 O   0  0  0  0  0  0  0  0  0  0  0  0
   -0.9751    2.2540   -1.2203 C   0  0  0  0  0  0  0  0  0  0  0  0
    0.1743    2.0639   -0.1891 C   0  0  0  0  0  0  0  0  0  0  0  0
    1.0508    3.3437   -0.0339 C   0  0  0  0  0  0  0  0  0  0  0  0
    0.3479    4.4875    0.7462 C   0  0  0  0  0  0  0  0  0  0  0  0
    0.9882    5.8475    0.4084 C   0  0  0  0  0  0  0  0  0  0  0  0
    0.4006    4.2512    2.2690 C   0  0  0  0  0  0  0  0  0  0  0  0
    1.0067    0.8949   -0.5564 N   0  0  0  0  0  0  0  0  0  0  0  0
    2.0385    0.9893   -1.5644 C   0  0  0  0  0  0  0  0  0  0  0  0
    1.8775    1.7205   -2.5773 O   0  0  0  0  0  0  0  0  0  0  0  0
    3.2539    0.1734   -1.4496 C   0  0  0  0  0  0  0  0  0  0  0  0
    3.4879   -0.8308   -2.3109 C   0  0  0  0  0  0  0  0  0  0  0  0
    4.5725   -1.8105   -2.0916 C   0  0  0  0  0  0  0  0  0  0  0  0
    4.2606   -3.1775   -2.1926 C   0  0  0  0  0  0  0  0  0  0  0  0
    5.2405   -4.1519   -2.0021 C   0  0  0  0  0  0  0  0  0  0  0  0
    6.5660   -3.7721   -1.7752 C   0  0  0  0  0  0  0  0  0  0  0  0
    7.5277   -4.7204   -1.6318 F   0  0  0  0  0  0  0  0  0  0  0  0
    6.8980   -2.4189   -1.6895 C   0  0  0  0  0  0  0  0  0  0  0  0
    5.9165   -1.4296   -1.8427 C   0  0  0  0  0  0  0  0  0  0  0  0
    6.4206    0.2601   -1.7973 Cl  0  0  0  0  0  0  0  0  0  0  0  0
    0.5063   -0.4469   -0.2190 C   0  0  0  0  0  0  0  0  0  0  0  0
    1.3560   -1.1407    0.8600 C   0  0  0  0  0  0  0  0  0  0  0  0
    0.5314   -2.1659    1.6611 C   0  0  0  0  0  0  0  0  0  0  0  0
    0.0631   -3.3688    0.8254 C   0  0  0  0  0  0  0  0  0  0  0  0
   -1.0121   -4.0148    1.4878 O   0  0  0  0  0  0  0  0  0  0  0  0
   -2.1784   -4.1295    0.6761 C   0  0  0  0  0  0  0  0  0  0  0  0
   -3.1584   -2.9353    0.8836 C   0  0  0  0  0  0  0  0  0  0  0  0
   -2.8543   -2.2695    2.0812 O   0  0  0  0  0  0  0  0  0  0  0  0
   -3.1676   -1.9399   -0.3255 C   0  0  0  0  0  0  0  0  0  0  0  0
   -4.1536   -2.3077   -1.2656 O   0  0  0  0  0  0  0  0  0  0  0  0
   -5.3295   -1.4172    1.6413 H   0  0  0  0  0  0  0  0  0  0  0  0
   -4.2810   -0.1074    2.3825 H   0  0  0  0  0  0  0  0  0  0  0  0
   -5.9529    0.2348    1.8371 H   0  0  0  0  0  0  0  0  0  0  0  0
   -2.6040   -0.2019    0.8720 H   0  0  0  0  0  0  0  0  0  0  0  0
   -3.6449    0.6534   -1.8579 H   0  0  0  0  0  0  0  0  0  0  0  0
   -2.0430   -0.0780   -1.7598 H   0  0  0  0  0  0  0  0  0  0  0  0
   -4.0934    2.6879    1.9137 H   0  0  0  0  0  0  0  0  0  0  0  0
   -2.4620    1.9268    1.9198 H   0  0  0  0  0  0  0  0  0  0  0  0
   -2.6119    3.7175    1.8021 H   0  0  0  0  0  0  0  0  0  0  0  0
   -0.7178    1.7385   -2.1714 H   0  0  0  0  0  0  0  0  0  0  0  0
   -1.0863    3.3228   -1.5078 H   0  0  0  0  0  0  0  0  0  0  0  0
   -0.2818    1.8534    0.7973 H   0  0  0  0  0  0  0  0  0  0  0  0
    2.0031    3.0741    0.4841 H   0  0  0  0  0  0  0  0  0  0  0  0
    1.3266    3.7144   -1.0502 H   0  0  0  0  0  0  0  0  0  0  0  0
   -0.7193    4.5477    0.4391 H   0  0  0  0  0  0  0  0  0  0  0  0
    2.0628    5.8652    0.7106 H   0  0  0  0  0  0  0  0  0  0  0  0
    0.9140    6.0438   -0.6890 H   0  0  0  0  0  0  0  0  0  0  0  0
    0.4532    6.6687    0.9356 H   0  0  0  0  0  0  0  0  0  0  0  0
   -0.2083    5.0183    2.7855 H   0  0  0  0  0  0  0  0  0  0  0  0
    1.4430    4.3289    2.6513 H   0  0  0  0  0  0  0  0  0  0  0  0
   -0.0090    3.2527    2.5449 H   0  0  0  0  0  0  0  0  0  0  0  0
    3.8307    0.2272   -0.5329 H   0  0  0  0  0  0  0  0  0  0  0  0
    2.8008   -1.0043   -3.1267 H   0  0  0  0  0  0  0  0  0  0  0  0
    3.2515   -3.4961   -2.4041 H   0  0  0  0  0  0  0  0  0  0  0  0
    4.9858   -5.2036   -2.0765 H   0  0  0  0  0  0  0  0  0  0  0  0
    7.9256   -2.1391   -1.5238 H   0  0  0  0  0  0  0  0  0  0  0  0
    0.4728   -1.0735   -1.1391 H   0  0  0  0  0  0  0  0  0  0  0  0
   -0.5303   -0.3691    0.1480 H   0  0  0  0  0  0  0  0  0  0  0  0
    1.7291   -0.3738    1.5655 H   0  0  0  0  0  0  0  0  0  0  0  0
    2.2308   -1.6530    0.4077 H   0  0  0  0  0  0  0  0  0  0  0  0
   -0.3509   -1.6493    2.0989 H   0  0  0  0  0  0  0  0  0  0  0  0
    1.1472   -2.5390    2.5107 H   0  0  0  0  0  0  0  0  0  0  0  0
   -0.1782   -3.0448   -0.2105 H   0  0  0  0  0  0  0  0  0  0  0  0
    0.9062   -4.0926    0.7558 H   0  0  0  0  0  0  0  0  0  0  0  0
   -2.7078   -5.0545    0.9961 H   0  0  0  0  0  0  0  0  0  0  0  0
   -1.9535   -4.3266   -0.3972 H   0  0  0  0  0  0  0  0  0  0  0  0
   -4.1844   -3.3641    0.9710 H   0  0  0  0  0  0  0  0  0  0  0  0
   -3.1444   -2.8700    2.8243 H   0  0  0  0  0  0  0  0  0  0  0  0
   -2.1967   -2.0626   -0.8366 H   0  0  0  0  0  0  0  0  0  0  0  0
   -5.0463   -2.2144   -0.8285 H   0  0  0  0  0  0  0  0  0  0  0  0
  1  2  1  0
  2  3  1  0
  3  4  1  0
  4  5  1  0
  5  6  1  0
  6  7  1  0
  6  8  2  0
  5  9  1  0
  9 10  1  0
 10 11  1  0
 11 12  1  0
 12 13  1  0
 12 14  1  0
 10 15  1  0
 15 16  1  0
 16 17  2  0
 16 18  1  0
 18 19  2  0
 19 20  1  0
 20 21  2  0
 21 22  1  0
 22 23  2  0
 23 24  1  0
 23 25  1  0
 25 26  2  0
 26 27  1  0
 15 28  1  0
 28 29  1  0
 29 30  1  0
 30 31  1  0
 31 32  1  0
 32 33  1  0
 33 34  1  0
 34 35  1  0
 34 36  1  0
 36 37  1  0
 36  3  1  0
 26 20  1  0
  1 38  1  0
  1 39  1  0
  1 40  1  0
  3 41  1  0
  4 42  1  0
  4 43  1  0
  7 44  1  0
  7 45  1  0
  7 46  1  0
  9 47  1  0
  9 48  1  0
 10 49  1  0
 11 50  1  0
 11 51  1  0
 12 52  1  0
 13 53  1  0
 13 54  1  0
 13 55  1  0
 14 56  1  0
 14 57  1  0
 14 58  1  0
 18 59  1  0
 19 60  1  0
 21 61  1  0
 22 62  1  0
 25 63  1  0
 28 64  1  0
 28 65  1  0
 29 66  1  0
 29 67  1  0
 30 68  1  0
 30 69  1  0
 31 70  1  0
 31 71  1  0
 33 72  1  0
 33 73  1  0
 34 74  1  0
 35 75  1  0
 36 76  1  0
 37 77  1  0
M  END
$$$$
