
     RDKit          3D

 64 66  0  0  0  0  0  0  0  0999 V2000
   -6.2979    3.0739   -0.8732 C   0  0  0  0  0  0  0  0  0  0  0  0
   -5.7862    2.4064    0.4017 C   0  0  0  0  0  0  0  0  0  0  0  0
   -4.6013    1.6502    0.1395 O   0  0  0  0  0  0  0  0  0  0  0  0
   -3.3120    2.1732   -0.0514 C   0  0  0  0  0  0  0  0  0  0  0  0
   -3.0437    3.5481    0.1025 C   0  0  0  0  0  0  0  0  0  0  0  0
   -1.7425    4.0361   -0.0191 C   0  0  0  0  0  0  0  0  0  0  0  0
   -0.6912    3.1679   -0.2993 C   0  0  0  0  0  0  0  0  0  0  0  0
   -0.9296    1.7969   -0.4728 C   0  0  0  0  0  0  0  0  0  0  0  0
   -2.2452    1.2920   -0.3565 C   0  0  0  0  0  0  0  0  0  0  0  0
   -2.4360   -0.0911   -0.5056 O   0  0  0  0  0  0  0  0  0  0  0  0
   -3.5363   -0.7183   -1.1676 C   0  0  0  0  0  0  0  0  0  0  0  0
   -3.2305   -2.2096   -1.3222 C   0  0  0  0  0  0  0  0  0  0  0  0
   -3.3222   -2.9352    0.0353 C   0  0  0  0  0  0  0  0  0  0  0  0
   -2.4143   -4.1752    0.1400 C   0  0  0  0  0  0  0  0  0  0  0  0
   -0.9063   -3.8613    0.1411 C   0  0  0  0  0  0  0  0  0  0  0  0
   -0.5789   -2.7793    1.0697 N   0  0  0  0  0  0  0  0  0  0  0  0
    0.4602   -1.8351    0.7889 C   0  0  0  0  0  0  0  0  0  0  0  0
    1.4487   -2.1723    0.0816 O   0  0  0  0  0  0  0  0  0  0  0  0
    0.3844   -0.4526    1.3676 C   0  0  0  0  0  0  0  0  0  0  0  0
    0.9702    0.5358    0.4483 N   0  0  0  0  0  0  0  0  0  0  0  0
    2.2665    1.1264    0.7026 C   0  0  0  0  0  0  0  0  0  0  0  0
    2.5651    2.2280    0.1610 O   0  0  0  0  0  0  0  0  0  0  0  0
    3.2599    0.4765    1.6375 C   0  0  0  0  0  0  0  0  0  0  0  0
    4.7259    0.7709    1.2752 C   0  0  0  0  0  0  0  0  0  0  0  0
    5.1333    0.1944   -0.0974 C   0  0  0  0  0  0  0  0  0  0  0  0
    6.5800    0.5365   -0.4358 C   0  0  0  0  0  0  0  0  0  0  0  0
    7.3203   -0.7148   -0.0827 C   0  0  0  0  0  0  0  0  0  0  0  0
    6.2632   -1.7865   -0.2381 C   0  0  0  0  0  0  0  0  0  0  0  0
    4.9838   -1.2111   -0.0881 O   0  0  0  0  0  0  0  0  0  0  0  0
    0.2355    0.8854   -0.7789 C   0  0  0  0  0  0  0  0  0  0  0  0
   -5.5386    3.7734   -1.2840 H   0  0  0  0  0  0  0  0  0  0  0  0
   -6.5156    2.2983   -1.6359 H   0  0  0  0  0  0  0  0  0  0  0  0
   -7.2278    3.6430   -0.6496 H   0  0  0  0  0  0  0  0  0  0  0  0
   -6.5721    1.7106    0.7686 H   0  0  0  0  0  0  0  0  0  0  0  0
   -5.6102    3.1550    1.2052 H   0  0  0  0  0  0  0  0  0  0  0  0
   -3.8252    4.2536    0.3433 H   0  0  0  0  0  0  0  0  0  0  0  0
   -1.5475    5.0935    0.1151 H   0  0  0  0  0  0  0  0  0  0  0  0
    0.3110    3.5683   -0.3851 H   0  0  0  0  0  0  0  0  0  0  0  0
   -3.6844   -0.2636   -2.1692 H   0  0  0  0  0  0  0  0  0  0  0  0
   -4.4706   -0.6100   -0.5797 H   0  0  0  0  0  0  0  0  0  0  0  0
   -2.2226   -2.3102   -1.7758 H   0  0  0  0  0  0  0  0  0  0  0  0
   -3.9615   -2.6631   -2.0279 H   0  0  0  0  0  0  0  0  0  0  0  0
   -4.3740   -3.2613    0.1826 H   0  0  0  0  0  0  0  0  0  0  0  0
   -3.1011   -2.2404    0.8713 H   0  0  0  0  0  0  0  0  0  0  0  0
   -2.6598   -4.7035    1.0864 H   0  0  0  0  0  0  0  0  0  0  0  0
   -2.6411   -4.8727   -0.6946 H   0  0  0  0  0  0  0  0  0  0  0  0
   -0.5827   -3.5954   -0.8888 H   0  0  0  0  0  0  0  0  0  0  0  0
   -0.3453   -4.7717    0.4388 H   0  0  0  0  0  0  0  0  0  0  0  0
   -1.1312   -2.6617    1.9478 H   0  0  0  0  0  0  0  0  0  0  0  0
    0.8838   -0.4385    2.3571 H   0  0  0  0  0  0  0  0  0  0  0  0
   -0.6777   -0.1925    1.5577 H   0  0  0  0  0  0  0  0  0  0  0  0
    3.0673    0.8517    2.6649 H   0  0  0  0  0  0  0  0  0  0  0  0
    3.1156   -0.6246    1.6451 H   0  0  0  0  0  0  0  0  0  0  0  0
    4.8995    1.8674    1.2936 H   0  0  0  0  0  0  0  0  0  0  0  0
    5.3698    0.3216    2.0606 H   0  0  0  0  0  0  0  0  0  0  0  0
    4.4754    0.6203   -0.8841 H   0  0  0  0  0  0  0  0  0  0  0  0
    6.9713    1.4141    0.1231 H   0  0  0  0  0  0  0  0  0  0  0  0
    6.6758    0.7290   -1.5273 H   0  0  0  0  0  0  0  0  0  0  0  0
    8.1884   -0.8890   -0.7564 H   0  0  0  0  0  0  0  0  0  0  0  0
    7.6638   -0.6702    0.9736 H   0  0  0  0  0  0  0  0  0  0  0  0
    6.4046   -2.5844    0.5218 H   0  0  0  0  0  0  0  0  0  0  0  0
    6.3338   -2.2469   -1.2495 H   0  0  0  0  0  0  0  0  0  0  0  0
   -0.1012   -0.0401   -1.2908 H   0  0  0  0  0  0  0  0  0  0  0  0
    0.9068    1.3840   -1.5110 H   0  0  0  0  0  0  0  0  0  0  0  0
  1  2  1  0
  2  3  1  0
  3  4  1  0
  4  5  2  0
  5  6  1  0
  6  7  2  0
  7  8  1  0
  8  9  2  0
  9 10  1  0
 10 11  1  0
 11 12  1  0
 12 13  1  0
 13 14  1  0
 14 15  1  0
 15 16  1  0
 16 17  1  0
 17 18  2  0
 17 19  1  0
 19 20  1  0
 20 21  1  0
 21 22  2  0
 21 23  1  0
 23 24  1  0
 24 25  1  0
 25 26  1  0
 26 27  1  0
 27 28  1  0
 28 29  1  0
 20 30  1  0
  9  4  1  0
 29 25  1  0
 30  8  1  0
  1 31  1  0
  1 32  1  0
  1 33  1  0
  2 34  1  0
  2 35  1  0
  5 36  1  0
  6 37  1  0
  7 38  1  0
 11 39  1  0
 11 40  1  0
 12 41  1  0
 12 42  1  0
 13 43  1  0
 13 44  1  0
 14 45  1  0
 14 46  1  0
 15 47  1  0
 15 48  1  0
 16 49  1  0
 19 50  1  0
 19 51  1  0
 23 52  1  0
 23 53  1  0
 24 54  1  0
 24 55  1  0
 25 56  1  0
 26 57  1  0
 26 58  1  0
 27 59  1  0
 27 60  1  0
 28 61  1  0
 28 62  1  0
 30 63  1  0
 30 64  1  0
M  END
$$$$
