
     RDKit          3D

 58 60  0  0  0  0  0  0  0  0999 V2000
    6.0949   -1.3050    3.1315 C   0  0  0  0  0  0  0  0  0  0  0  0
    5.9554   -1.5387    1.6314 C   0  0  0  0  0  0  0  0  0  0  0  0
    4.7766   -2.2743    1.3554 O   0  0  0  0  0  0  0  0  0  0  0  0
    3.7014   -1.4135    1.0251 C   0  0  0  0  0  0  0  0  0  0  0  0
    3.7162   -1.0619   -0.4410 C   0  0  0  0  0  0  0  0  0  0  0  0
    4.3552   -1.8023   -1.2385 O   0  0  0  0  0  0  0  0  0  0  0  0
    2.9969    0.0794   -0.9540 N   0  0  0  0  0  0  0  0  0  0  0  0
    3.3695    0.6249   -2.2608 C   0  0  0  0  0  0  0  0  0  0  0  0
    2.5724    1.8947   -2.5468 C   0  0  0  0  0  0  0  0  0  0  0  0
    1.1914    1.6467   -2.3814 O   0  0  0  0  0  0  0  0  0  0  0  0
    0.8142    1.2908   -1.0451 C   0  0  0  0  0  0  0  0  0  0  0  0
   -0.1882    0.1092   -1.1931 C   0  0  0  0  0  0  0  0  0  0  0  0
   -1.4535    0.4570   -1.9976 C   0  0  0  0  0  0  0  0  0  0  0  0
   -2.4784   -0.6985   -1.9675 C   0  0  0  0  0  0  0  0  0  0  0  0
   -3.9381   -0.1914   -1.9325 C   0  0  0  0  0  0  0  0  0  0  0  0
   -4.6605   -0.5453   -0.6462 C   0  0  0  0  0  0  0  0  0  0  0  0
   -5.8653   -1.2686   -0.7232 C   0  0  0  0  0  0  0  0  0  0  0  0
   -6.6022   -1.5505    0.4270 C   0  0  0  0  0  0  0  0  0  0  0  0
   -6.1556   -1.1054    1.6687 C   0  0  0  0  0  0  0  0  0  0  0  0
   -4.9643   -0.3860    1.7684 C   0  0  0  0  0  0  0  0  0  0  0  0
   -4.1948   -0.1059    0.6194 C   0  0  0  0  0  0  0  0  0  0  0  0
   -2.9720    0.5848    0.7099 O   0  0  0  0  0  0  0  0  0  0  0  0
   -2.4388    1.1421    1.9141 C   0  0  0  0  0  0  0  0  0  0  0  0
   -1.0202    1.6711    1.6900 C   0  0  0  0  0  0  0  0  0  0  0  0
   -0.9567    2.4791    0.4746 N   0  0  0  0  0  0  0  0  0  0  0  0
    0.1860    2.5266   -0.3968 C   0  0  0  0  0  0  0  0  0  0  0  0
    0.6721    3.6568   -0.6720 O   0  0  0  0  0  0  0  0  0  0  0  0
    2.0074    0.8080   -0.1497 C   0  0  0  0  0  0  0  0  0  0  0  0
    7.0550   -0.7881    3.3417 H   0  0  0  0  0  0  0  0  0  0  0  0
    5.2612   -0.6739    3.5040 H   0  0  0  0  0  0  0  0  0  0  0  0
    6.0845   -2.2765    3.6695 H   0  0  0  0  0  0  0  0  0  0  0  0
    6.8235   -2.1428    1.2929 H   0  0  0  0  0  0  0  0  0  0  0  0
    6.0138   -0.5679    1.0844 H   0  0  0  0  0  0  0  0  0  0  0  0
    2.7549   -1.9533    1.2364 H   0  0  0  0  0  0  0  0  0  0  0  0
    3.6947   -0.4924    1.6524 H   0  0  0  0  0  0  0  0  0  0  0  0
    4.4554    0.8622   -2.2758 H   0  0  0  0  0  0  0  0  0  0  0  0
    3.1522   -0.1277   -3.0497 H   0  0  0  0  0  0  0  0  0  0  0  0
    2.9076    2.7297   -1.8920 H   0  0  0  0  0  0  0  0  0  0  0  0
    2.7548    2.2054   -3.5969 H   0  0  0  0  0  0  0  0  0  0  0  0
   -0.4837   -0.2850   -0.2027 H   0  0  0  0  0  0  0  0  0  0  0  0
    0.3276   -0.7286   -1.7129 H   0  0  0  0  0  0  0  0  0  0  0  0
   -1.1793    0.6738   -3.0529 H   0  0  0  0  0  0  0  0  0  0  0  0
   -1.9044    1.3814   -1.5892 H   0  0  0  0  0  0  0  0  0  0  0  0
   -2.2933   -1.3811   -1.1085 H   0  0  0  0  0  0  0  0  0  0  0  0
   -2.3277   -1.3203   -2.8774 H   0  0  0  0  0  0  0  0  0  0  0  0
   -4.0072    0.9075   -2.0812 H   0  0  0  0  0  0  0  0  0  0  0  0
   -4.4720   -0.6334   -2.8026 H   0  0  0  0  0  0  0  0  0  0  0  0
   -6.2443   -1.6093   -1.6788 H   0  0  0  0  0  0  0  0  0  0  0  0
   -7.5277   -2.1069    0.3535 H   0  0  0  0  0  0  0  0  0  0  0  0
   -6.7345   -1.3185    2.5584 H   0  0  0  0  0  0  0  0  0  0  0  0
   -4.6512   -0.0553    2.7485 H   0  0  0  0  0  0  0  0  0  0  0  0
   -2.3927    0.3648    2.7070 H   0  0  0  0  0  0  0  0  0  0  0  0
   -3.0948    1.9721    2.2552 H   0  0  0  0  0  0  0  0  0  0  0  0
   -0.3094    0.8269    1.6574 H   0  0  0  0  0  0  0  0  0  0  0  0
   -0.7274    2.3012    2.5568 H   0  0  0  0  0  0  0  0  0  0  0  0
   -1.6057    3.2976    0.4340 H   0  0  0  0  0  0  0  0  0  0  0  0
    1.6305    0.1744    0.6779 H   0  0  0  0  0  0  0  0  0  0  0  0
    2.5190    1.6763    0.3217 H   0  0  0  0  0  0  0  0  0  0  0  0
  1  2  1  0
  2  3  1  0
  3  4  1  0
  4  5  1  0
  5  6  2  0
  5  7  1  0
  7  8  1  0
  8  9  1  0
  9 10  1  0
 10 11  1  0
 11 12  1  0
 12 13  1  0
 13 14  1  0
 14 15  1  0
 15 16  1  0
 16 17  2  0
 17 18  1  0
 18 19  2  0
 19 20  1  0
 20 21  2  0
 21 22  1  0
 22 23  1  0
 23 24  1  0
 24 25  1  0
 25 26  1  0
 26 27  2  0
 11 28  1  0
 28  7  1  0
 26 11  1  0
 21 16  1  0
  1 29  1  0
  1 30  1  0
  1 31  1  0
  2 32  1  0
  2 33  1  0
  4 34  1  0
  4 35  1  0
  8 36  1  0
  8 37  1  0
  9 38  1  0
  9 39  1  0
 12 40  1  0
 12 41  1  0
 13 42  1  0
 13 43  1  0
 14 44  1  0
 14 45  1  0
 15 46  1  0
 15 47  1  0
 17 48  1  0
 18 49  1  0
 19 50  1  0
 20 51  1  0
 23 52  1  0
 23 53  1  0
 24 54  1  0
 24 55  1  0
 25 56  1  0
 28 57  1  0
 28 58  1  0
M  END
$$$$
