
     RDKit          3D

 85 89  0  0  0  0  0  0  0  0999 V2000
   -3.2485    0.3626    3.2079 O   0  0  0  0  0  0  0  0  0  0  0  0
   -3.8621    0.6430    2.1427 C   0  0  0  0  0  0  0  0  0  0  0  0
   -4.1045   -0.4411    1.1243 C   0  0  0  0  0  0  0  0  0  0  0  0
   -3.1788   -1.5692    1.3169 N   0  0  0  0  0  0  0  0  0  0  0  0
   -3.7046   -2.8357    1.8443 C   0  0  0  0  0  0  0  0  0  0  0  0
   -4.4569   -3.5701    0.7676 C   0  0  0  0  0  0  0  0  0  0  0  0
   -5.8559   -3.6899    0.8270 C   0  0  0  0  0  0  0  0  0  0  0  0
   -6.5481   -4.3537   -0.1899 C   0  0  0  0  0  0  0  0  0  0  0  0
   -5.8527   -4.8934   -1.2756 C   0  0  0  0  0  0  0  0  0  0  0  0
   -4.4622   -4.7715   -1.3452 C   0  0  0  0  0  0  0  0  0  0  0  0
   -3.7646   -4.1132   -0.3278 C   0  0  0  0  0  0  0  0  0  0  0  0
   -1.7755   -1.4605    0.9901 C   0  0  0  0  0  0  0  0  0  0  0  0
   -0.9218   -2.0555    1.7023 O   0  0  0  0  0  0  0  0  0  0  0  0
   -1.2899   -0.6696   -0.1937 C   0  0  0  0  0  0  0  0  0  0  0  0
   -0.7273    0.6943    0.2416 C   0  0  0  0  0  0  0  0  0  0  0  0
   -0.0630    1.4837   -0.9086 C   0  0  0  0  0  0  0  0  0  0  0  0
    1.1548    0.7626   -1.4371 C   0  0  0  0  0  0  0  0  0  0  0  0
    1.1799    0.3389   -2.6255 O   0  0  0  0  0  0  0  0  0  0  0  0
    2.2772    0.5372   -0.5739 N   0  0  0  0  0  0  0  0  0  0  0  0
    3.3838   -0.3410   -0.9738 C   0  0  0  0  0  0  0  0  0  0  0  0
    4.3705   -0.6753    0.2001 C   0  0  0  0  0  0  0  0  0  0  0  0
    5.4734   -1.6670   -0.2740 C   0  0  0  0  0  0  0  0  0  0  0  0
    5.6629   -2.0146   -1.6385 C   0  0  0  0  0  0  0  0  0  0  0  0
    6.6820   -2.8880   -2.0285 C   0  0  0  0  0  0  0  0  0  0  0  0
    7.5434   -3.4309   -1.0791 C   0  0  0  0  0  0  0  0  0  0  0  0
    7.3910   -3.0990    0.2647 C   0  0  0  0  0  0  0  0  0  0  0  0
    8.2340   -3.6221    1.1892 F   0  0  0  0  0  0  0  0  0  0  0  0
    6.3739   -2.2266    0.6622 C   0  0  0  0  0  0  0  0  0  0  0  0
    3.5280   -1.3450    1.3546 C   0  0  0  0  0  0  0  0  0  0  0  0
    3.9166   -0.9264    2.7835 C   0  0  0  0  0  0  0  0  0  0  0  0
    4.1687    0.4575    2.8702 O   0  0  0  0  0  0  0  0  0  0  0  0
    5.3346    0.7603    2.1396 C   0  0  0  0  0  0  0  0  0  0  0  0
    5.0624    0.6628    0.6375 C   0  0  0  0  0  0  0  0  0  0  0  0
   -1.0303    1.7475   -1.9863 N   0  0  0  0  0  0  0  0  0  0  0  0
   -1.6748    3.0132   -2.2051 C   0  0  0  0  0  0  0  0  0  0  0  0
   -2.5364    3.1176   -3.1174 O   0  0  0  0  0  0  0  0  0  0  0  0
   -1.3292    4.2048   -1.4164 C   0  0  0  0  0  0  0  0  0  0  0  0
   -0.2810    5.0071   -1.8974 C   0  0  0  0  0  0  0  0  0  0  0  0
    0.1573    6.1147   -1.1717 C   0  0  0  0  0  0  0  0  0  0  0  0
   -0.4401    6.4299    0.0467 C   0  0  0  0  0  0  0  0  0  0  0  0
   -1.4837    5.6435    0.5380 C   0  0  0  0  0  0  0  0  0  0  0  0
   -1.9547    4.5355   -0.1808 C   0  0  0  0  0  0  0  0  0  0  0  0
   -3.0199    3.8247    0.4030 O   0  0  0  0  0  0  0  0  0  0  0  0
   -3.9056    2.9108   -0.2397 C   0  0  0  0  0  0  0  0  0  0  0  0
   -4.9903    2.4796    0.7457 C   0  0  0  0  0  0  0  0  0  0  0  0
   -4.3928    1.9686    1.9806 N   0  0  0  0  0  0  0  0  0  0  0  0
   -4.0228   -0.0562    0.0921 H   0  0  0  0  0  0  0  0  0  0  0  0
   -5.1552   -0.7808    1.2451 H   0  0  0  0  0  0  0  0  0  0  0  0
   -4.3590   -2.6298    2.7194 H   0  0  0  0  0  0  0  0  0  0  0  0
   -2.8858   -3.4883    2.2163 H   0  0  0  0  0  0  0  0  0  0  0  0
   -6.4094   -3.2679    1.6572 H   0  0  0  0  0  0  0  0  0  0  0  0
   -7.6255   -4.4457   -0.1383 H   0  0  0  0  0  0  0  0  0  0  0  0
   -6.3913   -5.4029   -2.0640 H   0  0  0  0  0  0  0  0  0  0  0  0
   -3.9242   -5.1858   -2.1884 H   0  0  0  0  0  0  0  0  0  0  0  0
   -2.6868   -4.0213   -0.3949 H   0  0  0  0  0  0  0  0  0  0  0  0
   -2.1050   -0.5421   -0.9326 H   0  0  0  0  0  0  0  0  0  0  0  0
   -0.4932   -1.2600   -0.6941 H   0  0  0  0  0  0  0  0  0  0  0  0
   -1.5402    1.3099    0.6757 H   0  0  0  0  0  0  0  0  0  0  0  0
    0.0158    0.5408    1.0543 H   0  0  0  0  0  0  0  0  0  0  0  0
    0.3030    2.4419   -0.4840 H   0  0  0  0  0  0  0  0  0  0  0  0
    2.2629    0.9783    0.3732 H   0  0  0  0  0  0  0  0  0  0  0  0
    3.9305    0.1698   -1.7961 H   0  0  0  0  0  0  0  0  0  0  0  0
    2.9538   -1.2909   -1.3642 H   0  0  0  0  0  0  0  0  0  0  0  0
    5.0358   -1.6309   -2.4275 H   0  0  0  0  0  0  0  0  0  0  0  0
    6.8043   -3.1425   -3.0740 H   0  0  0  0  0  0  0  0  0  0  0  0
    8.3310   -4.1069   -1.3859 H   0  0  0  0  0  0  0  0  0  0  0  0
    6.3024   -1.9987    1.7087 H   0  0  0  0  0  0  0  0  0  0  0  0
    2.4439   -1.1296    1.2507 H   0  0  0  0  0  0  0  0  0  0  0  0
    3.5875   -2.4532    1.2840 H   0  0  0  0  0  0  0  0  0  0  0  0
    4.7659   -1.5218    3.1818 H   0  0  0  0  0  0  0  0  0  0  0  0
    3.0640   -1.1602    3.4566 H   0  0  0  0  0  0  0  0  0  0  0  0
    5.6272    1.8057    2.3750 H   0  0  0  0  0  0  0  0  0  0  0  0
    6.2001    0.1324    2.4448 H   0  0  0  0  0  0  0  0  0  0  0  0
    4.4476    1.5480    0.3692 H   0  0  0  0  0  0  0  0  0  0  0  0
    6.0218    0.8038    0.0907 H   0  0  0  0  0  0  0  0  0  0  0  0
   -1.3355    0.9488   -2.5874 H   0  0  0  0  0  0  0  0  0  0  0  0
    0.2106    4.7640   -2.8324 H   0  0  0  0  0  0  0  0  0  0  0  0
    0.9679    6.7240   -1.5505 H   0  0  0  0  0  0  0  0  0  0  0  0
   -0.0945    7.2857    0.6121 H   0  0  0  0  0  0  0  0  0  0  0  0
   -1.9405    5.9031    1.4852 H   0  0  0  0  0  0  0  0  0  0  0  0
   -4.3839    3.4027   -1.1136 H   0  0  0  0  0  0  0  0  0  0  0  0
   -3.3600    2.0118   -0.5763 H   0  0  0  0  0  0  0  0  0  0  0  0
   -5.6547    1.7164    0.2876 H   0  0  0  0  0  0  0  0  0  0  0  0
   -5.6184    3.3646    0.9881 H   0  0  0  0  0  0  0  0  0  0  0  0
   -4.3295    2.6229    2.7934 H   0  0  0  0  0  0  0  0  0  0  0  0
  1  2  2  0
  2  3  1  0
  3  4  1  0
  4  5  1  0
  5  6  1  0
  6  7  2  0
  7  8  1  0
  8  9  2  0
  9 10  1  0
 10 11  2  0
  4 12  1  0
 12 13  2  0
 12 14  1  0
 14 15  1  0
 15 16  1  0
 16 17  1  0
 17 18  2  0
 17 19  1  0
 19 20  1  0
 20 21  1  0
 21 22  1  0
 22 23  2  0
 23 24  1  0
 24 25  2  0
 25 26  1  0
 26 27  1  0
 26 28  2  0
 21 29  1  0
 29 30  1  0
 30 31  1  0
 31 32  1  0
 32 33  1  0
 16 34  1  0
 34 35  1  0
 35 36  2  0
 35 37  1  0
 37 38  2  0
 38 39  1  0
 39 40  2  0
 40 41  1  0
 41 42  2  0
 42 43  1  0
 43 44  1  0
 44 45  1  0
 45 46  1  0
 46  2  1  0
 11  6  1  0
 33 21  1  0
 42 37  1  0
 28 22  1  0
  3 47  1  0
  3 48  1  0
  5 49  1  0
  5 50  1  0
  7 51  1  0
  8 52  1  0
  9 53  1  0
 10 54  1  0
 11 55  1  0
 14 56  1  0
 14 57  1  0
 15 58  1  0
 15 59  1  0
 16 60  1  0
 19 61  1  0
 20 62  1  0
 20 63  1  0
 23 64  1  0
 24 65  1  0
 25 66  1  0
 28 67  1  0
 29 68  1  0
 29 69  1  0
 30 70  1  0
 30 71  1  0
 32 72  1  0
 32 73  1  0
 33 74  1  0
 33 75  1  0
 34 76  1  0
 38 77  1  0
 39 78  1  0
 40 79  1  0
 41 80  1  0
 44 81  1  0
 44 82  1  0
 45 83  1  0
 45 84  1  0
 46 85  1  0
M  END
$$$$
