
     RDKit          3D

 57 59  0  0  0  0  0  0  0  0999 V2000
   -3.8168   -0.4734   -2.7255 C   0  0  0  0  0  0  0  0  0  0  0  0
   -3.3591   -0.4791   -1.3327 N   0  0  0  0  0  0  0  0  0  0  0  0
   -2.7211   -1.6865   -0.7767 C   0  0  0  0  0  0  0  0  0  0  0  0
   -1.4651   -2.1084   -1.5668 C   0  0  0  0  0  0  0  0  0  0  0  0
   -0.3910   -1.0119   -1.6798 C   0  0  0  0  0  0  0  0  0  0  0  0
    0.4012   -0.8157   -0.3735 C   0  0  0  0  0  0  0  0  0  0  0  0
    1.2191    0.4116   -0.4131 N   0  0  0  0  0  0  0  0  0  0  0  0
    2.1624    0.6641   -1.4768 C   0  0  0  0  0  0  0  0  0  0  0  0
    2.3886    1.8513   -1.8378 O   0  0  0  0  0  0  0  0  0  0  0  0
    2.9506   -0.4401   -2.1272 C   0  0  0  0  0  0  0  0  0  0  0  0
    4.3489   -0.2005   -1.9763 O   0  0  0  0  0  0  0  0  0  0  0  0
    5.0520   -0.2555   -0.7618 C   0  0  0  0  0  0  0  0  0  0  0  0
    6.3906    0.1545   -0.7519 C   0  0  0  0  0  0  0  0  0  0  0  0
    7.1310    0.1321    0.4332 C   0  0  0  0  0  0  0  0  0  0  0  0
    6.5393   -0.3056    1.6197 C   0  0  0  0  0  0  0  0  0  0  0  0
    5.2075   -0.7251    1.6215 C   0  0  0  0  0  0  0  0  0  0  0  0
    4.6351   -1.1537    2.7729 F   0  0  0  0  0  0  0  0  0  0  0  0
    4.4642   -0.7042    0.4376 C   0  0  0  0  0  0  0  0  0  0  0  0
    1.1971    1.3339    0.7358 C   0  0  0  0  0  0  0  0  0  0  0  0
    0.2561    2.5284    0.5050 C   0  0  0  0  0  0  0  0  0  0  0  0
   -1.2115    2.1132    0.4128 C   0  0  0  0  0  0  0  0  0  0  0  0
   -1.5903    1.4218    1.5999 O   0  0  0  0  0  0  0  0  0  0  0  0
   -2.8486    0.8720    1.9071 C   0  0  0  0  0  0  0  0  0  0  0  0
   -3.0940    0.6259    3.2653 C   0  0  0  0  0  0  0  0  0  0  0  0
   -4.2931    0.0531    3.6904 C   0  0  0  0  0  0  0  0  0  0  0  0
   -5.2685   -0.2960    2.7581 C   0  0  0  0  0  0  0  0  0  0  0  0
   -6.7636   -1.0412    3.2899 Cl  0  0  0  0  0  0  0  0  0  0  0  0
   -5.0444   -0.0697    1.3987 C   0  0  0  0  0  0  0  0  0  0  0  0
   -3.8467    0.5159    0.9552 C   0  0  0  0  0  0  0  0  0  0  0  0
   -3.6790    0.6567   -0.5004 C   0  0  0  0  0  0  0  0  0  0  0  0
   -3.9138    1.7778   -1.0292 O   0  0  0  0  0  0  0  0  0  0  0  0
   -3.8370   -1.4995   -3.1453 H   0  0  0  0  0  0  0  0  0  0  0  0
   -3.1397    0.1545   -3.3382 H   0  0  0  0  0  0  0  0  0  0  0  0
   -4.8503   -0.0723   -2.7873 H   0  0  0  0  0  0  0  0  0  0  0  0
   -3.4544   -2.5209   -0.7981 H   0  0  0  0  0  0  0  0  0  0  0  0
   -2.4408   -1.5425    0.2858 H   0  0  0  0  0  0  0  0  0  0  0  0
   -1.0236   -3.0094   -1.0877 H   0  0  0  0  0  0  0  0  0  0  0  0
   -1.7646   -2.4153   -2.5909 H   0  0  0  0  0  0  0  0  0  0  0  0
    0.3166   -1.3176   -2.4783 H   0  0  0  0  0  0  0  0  0  0  0  0
   -0.8487   -0.0608   -2.0165 H   0  0  0  0  0  0  0  0  0  0  0  0
   -0.3049   -0.7669    0.4807 H   0  0  0  0  0  0  0  0  0  0  0  0
    1.0501   -1.6978   -0.1915 H   0  0  0  0  0  0  0  0  0  0  0  0
    2.6998   -1.4413   -1.7277 H   0  0  0  0  0  0  0  0  0  0  0  0
    2.7116   -0.4478   -3.2103 H   0  0  0  0  0  0  0  0  0  0  0  0
    6.8562    0.4986   -1.6659 H   0  0  0  0  0  0  0  0  0  0  0  0
    8.1631    0.4558    0.4318 H   0  0  0  0  0  0  0  0  0  0  0  0
    7.1141   -0.3212    2.5366 H   0  0  0  0  0  0  0  0  0  0  0  0
    3.4396   -1.0418    0.4664 H   0  0  0  0  0  0  0  0  0  0  0  0
    2.2255    1.7161    0.9256 H   0  0  0  0  0  0  0  0  0  0  0  0
    0.9036    0.7959    1.6633 H   0  0  0  0  0  0  0  0  0  0  0  0
    0.5431    3.0639   -0.4242 H   0  0  0  0  0  0  0  0  0  0  0  0
    0.3717    3.2406    1.3503 H   0  0  0  0  0  0  0  0  0  0  0  0
   -1.3206    1.4709   -0.4732 H   0  0  0  0  0  0  0  0  0  0  0  0
   -1.8440    3.0189    0.2918 H   0  0  0  0  0  0  0  0  0  0  0  0
   -2.3416    0.8813    4.0010 H   0  0  0  0  0  0  0  0  0  0  0  0
   -4.4582   -0.1261    4.7455 H   0  0  0  0  0  0  0  0  0  0  0  0
   -5.8039   -0.3608    0.6827 H   0  0  0  0  0  0  0  0  0  0  0  0
  1  2  1  0
  2  3  1  0
  3  4  1  0
  4  5  1  0
  5  6  1  0
  6  7  1  0
  7  8  1  0
  8  9  2  0
  8 10  1  0
 10 11  1  0
 11 12  1  0
 12 13  2  0
 13 14  1  0
 14 15  2  0
 15 16  1  0
 16 17  1  0
 16 18  2  0
  7 19  1  0
 19 20  1  0
 20 21  1  0
 21 22  1  0
 22 23  1  0
 23 24  2  0
 24 25  1  0
 25 26  2  0
 26 27  1  0
 26 28  1  0
 28 29  2  0
 29 30  1  0
 30 31  2  0
 30  2  1  0
 18 12  1  0
 29 23  1  0
  1 32  1  0
  1 33  1  0
  1 34  1  0
  3 35  1  0
  3 36  1  0
  4 37  1  0
  4 38  1  0
  5 39  1  0
  5 40  1  0
  6 41  1  0
  6 42  1  0
 10 43  1  0
 10 44  1  0
 13 45  1  0
 14 46  1  0
 15 47  1  0
 18 48  1  0
 19 49  1  0
 19 50  1  0
 20 51  1  0
 20 52  1  0
 21 53  1  0
 21 54  1  0
 24 55  1  0
 25 56  1  0
 28 57  1  0
M  END
$$$$
