
     RDKit          3D

 69 73  0  0  0  0  0  0  0  0999 V2000
   -2.6273    0.2312   -4.0655 C   0  0  0  0  0  0  0  0  0  0  0  0
   -1.6703   -0.8014   -3.4714 C   0  0  0  0  0  0  0  0  0  0  0  0
   -1.7696   -0.8461   -2.0033 N   0  0  0  0  0  0  0  0  0  0  0  0
   -2.5512   -1.9237   -1.3623 C   0  0  0  0  0  0  0  0  0  0  0  0
   -3.9768   -1.4809   -1.0346 C   0  0  0  0  0  0  0  0  0  0  0  0
   -3.9489   -0.3169   -0.2161 O   0  0  0  0  0  0  0  0  0  0  0  0
   -5.0474    0.2161    0.4760 C   0  0  0  0  0  0  0  0  0  0  0  0
   -6.3064   -0.4158    0.4876 C   0  0  0  0  0  0  0  0  0  0  0  0
   -7.3540    0.1115    1.2483 C   0  0  0  0  0  0  0  0  0  0  0  0
   -7.1610    1.2721    1.9995 C   0  0  0  0  0  0  0  0  0  0  0  0
   -5.9266    1.9243    1.9741 C   0  0  0  0  0  0  0  0  0  0  0  0
   -4.8722    1.4150    1.1973 C   0  0  0  0  0  0  0  0  0  0  0  0
   -3.5583    2.1502    1.1398 C   0  0  0  0  0  0  0  0  0  0  0  0
   -2.5714    1.6709    2.2271 C   0  0  0  0  0  0  0  0  0  0  0  0
   -1.1448    1.4736    1.6704 C   0  0  0  0  0  0  0  0  0  0  0  0
   -0.8500    0.0028    1.2644 C   0  0  0  0  0  0  0  0  0  0  0  0
   -0.1109   -0.2237   -0.0872 C   0  0  0  0  0  0  0  0  0  0  0  0
    1.2012    0.6471   -0.1599 C   0  0  0  0  0  0  0  0  0  0  0  0
    2.3338   -0.0700    0.4385 N   0  0  0  0  0  0  0  0  0  0  0  0
    3.3261    0.6408    1.2085 C   0  0  0  0  0  0  0  0  0  0  0  0
    3.3963    1.8989    1.1318 O   0  0  0  0  0  0  0  0  0  0  0  0
    4.2778   -0.0740    2.1287 C   0  0  0  0  0  0  0  0  0  0  0  0
    5.3329   -0.7526    1.3790 N   0  0  0  0  0  0  0  0  0  0  0  0
    5.5007   -2.0728    1.3470 N   0  0  0  0  0  0  0  0  0  0  0  0
    6.5651   -2.4049    0.6159 N   0  0  0  0  0  0  0  0  0  0  0  0
    7.0833   -1.2417    0.1805 C   0  0  0  0  0  0  0  0  0  0  0  0
    8.2123   -1.0318   -0.6045 C   0  0  0  0  0  0  0  0  0  0  0  0
    8.5548    0.3029   -0.9026 C   0  0  0  0  0  0  0  0  0  0  0  0
    7.7718    1.3750   -0.4057 C   0  0  0  0  0  0  0  0  0  0  0  0
    6.6367    1.1223    0.3906 C   0  0  0  0  0  0  0  0  0  0  0  0
    6.3263   -0.2130    0.6530 C   0  0  0  0  0  0  0  0  0  0  0  0
    2.5416   -1.4685    0.0541 C   0  0  0  0  0  0  0  0  0  0  0  0
    1.3703   -1.9544   -0.7964 C   0  0  0  0  0  0  0  0  0  0  0  0
    0.1592   -1.6289   -0.1482 O   0  0  0  0  0  0  0  0  0  0  0  0
   -1.0494    0.1478   -1.2342 C   0  0  0  0  0  0  0  0  0  0  0  0
   -1.1669    1.3616   -1.5521 O   0  0  0  0  0  0  0  0  0  0  0  0
   -2.5931    0.1709   -5.1740 H   0  0  0  0  0  0  0  0  0  0  0  0
   -3.6678    0.0354   -3.7356 H   0  0  0  0  0  0  0  0  0  0  0  0
   -2.3358    1.2588   -3.7693 H   0  0  0  0  0  0  0  0  0  0  0  0
   -1.9092   -1.7936   -3.9118 H   0  0  0  0  0  0  0  0  0  0  0  0
   -0.6266   -0.5600   -3.7715 H   0  0  0  0  0  0  0  0  0  0  0  0
   -2.0756   -2.2777   -0.4311 H   0  0  0  0  0  0  0  0  0  0  0  0
   -2.6104   -2.8098   -2.0295 H   0  0  0  0  0  0  0  0  0  0  0  0
   -4.5436   -1.2727   -1.9671 H   0  0  0  0  0  0  0  0  0  0  0  0
   -4.4712   -2.3152   -0.4924 H   0  0  0  0  0  0  0  0  0  0  0  0
   -6.4858   -1.3184   -0.0777 H   0  0  0  0  0  0  0  0  0  0  0  0
   -8.3163   -0.3857    1.2612 H   0  0  0  0  0  0  0  0  0  0  0  0
   -7.9721    1.6714    2.5958 H   0  0  0  0  0  0  0  0  0  0  0  0
   -5.7944    2.8318    2.5510 H   0  0  0  0  0  0  0  0  0  0  0  0
   -3.1342    2.0345    0.1200 H   0  0  0  0  0  0  0  0  0  0  0  0
   -3.7329    3.2432    1.2596 H   0  0  0  0  0  0  0  0  0  0  0  0
   -2.5359    2.4485    3.0224 H   0  0  0  0  0  0  0  0  0  0  0  0
   -2.9263    0.7411    2.7267 H   0  0  0  0  0  0  0  0  0  0  0  0
   -0.4170    1.7644    2.4592 H   0  0  0  0  0  0  0  0  0  0  0  0
   -0.9797    2.1860    0.8375 H   0  0  0  0  0  0  0  0  0  0  0  0
   -1.7928   -0.5831    1.2432 H   0  0  0  0  0  0  0  0  0  0  0  0
   -0.2411   -0.4587    2.0729 H   0  0  0  0  0  0  0  0  0  0  0  0
    1.4585    0.8538   -1.2224 H   0  0  0  0  0  0  0  0  0  0  0  0
    1.0758    1.6409    0.3110 H   0  0  0  0  0  0  0  0  0  0  0  0
    4.7404    0.6503    2.8339 H   0  0  0  0  0  0  0  0  0  0  0  0
    3.7121   -0.8114    2.7389 H   0  0  0  0  0  0  0  0  0  0  0  0
    8.8065   -1.8614   -0.9678 H   0  0  0  0  0  0  0  0  0  0  0  0
    9.4249    0.5080   -1.5117 H   0  0  0  0  0  0  0  0  0  0  0  0
    8.0491    2.3967   -0.6383 H   0  0  0  0  0  0  0  0  0  0  0  0
    6.0400    1.9351    0.7838 H   0  0  0  0  0  0  0  0  0  0  0  0
    3.4827   -1.5670   -0.5281 H   0  0  0  0  0  0  0  0  0  0  0  0
    2.6066   -2.0988    0.9675 H   0  0  0  0  0  0  0  0  0  0  0  0
    1.4055   -1.5181   -1.8207 H   0  0  0  0  0  0  0  0  0  0  0  0
    1.4329   -3.0579   -0.9040 H   0  0  0  0  0  0  0  0  0  0  0  0
  1  2  1  0
  2  3  1  0
  3  4  1  0
  4  5  1  0
  5  6  1  0
  6  7  1  0
  7  8  2  0
  8  9  1  0
  9 10  2  0
 10 11  1  0
 11 12  2  0
 12 13  1  0
 13 14  1  0
 14 15  1  0
 15 16  1  0
 16 17  1  0
 17 18  1  0
 18 19  1  0
 19 20  1  0
 20 21  2  0
 20 22  1  0
 22 23  1  0
 23 24  1  0
 24 25  2  0
 25 26  1  0
 26 27  2  0
 27 28  1  0
 28 29  2  0
 29 30  1  0
 30 31  2  0
 19 32  1  0
 32 33  1  0
 33 34  1  0
 17 35  1  0
 35 36  2  0
 35  3  1  0
 12  7  1  0
 34 17  1  0
 31 23  1  0
 31 26  1  0
  1 37  1  0
  1 38  1  0
  1 39  1  0
  2 40  1  0
  2 41  1  0
  4 42  1  0
  4 43  1  0
  5 44  1  0
  5 45  1  0
  8 46  1  0
  9 47  1  0
 10 48  1  0
 11 49  1  0
 13 50  1  0
 13 51  1  0
 14 52  1  0
 14 53  1  0
 15 54  1  0
 15 55  1  0
 16 56  1  0
 16 57  1  0
 18 58  1  0
 18 59  1  0
 22 60  1  0
 22 61  1  0
 27 62  1  0
 28 63  1  0
 29 64  1  0
 30 65  1  0
 32 66  1  0
 32 67  1  0
 33 68  1  0
 33 69  1  0
M  END
$$$$
