
     RDKit          3D

 60 62  0  0  0  0  0  0  0  0999 V2000
   -6.0647   -2.2459    1.1488 C   0  0  0  0  0  0  0  0  0  0  0  0
   -5.4330   -2.0056   -0.2127 C   0  0  0  0  0  0  0  0  0  0  0  0
   -4.0158   -1.9572   -0.0750 O   0  0  0  0  0  0  0  0  0  0  0  0
   -3.1192   -1.7233   -1.1294 C   0  0  0  0  0  0  0  0  0  0  0  0
   -3.5549   -1.5536   -2.4553 C   0  0  0  0  0  0  0  0  0  0  0  0
   -2.6314   -1.3334   -3.4752 C   0  0  0  0  0  0  0  0  0  0  0  0
   -1.2689   -1.2764   -3.1875 C   0  0  0  0  0  0  0  0  0  0  0  0
   -0.8065   -1.4132   -1.8667 C   0  0  0  0  0  0  0  0  0  0  0  0
   -1.7480   -1.6520   -0.8323 C   0  0  0  0  0  0  0  0  0  0  0  0
   -1.3535   -1.8558    0.4969 O   0  0  0  0  0  0  0  0  0  0  0  0
   -0.8487   -0.8062    1.3167 C   0  0  0  0  0  0  0  0  0  0  0  0
   -1.9524    0.2097    1.6484 C   0  0  0  0  0  0  0  0  0  0  0  0
   -1.4127    1.5134    2.2689 C   0  0  0  0  0  0  0  0  0  0  0  0
   -0.3199    2.2332    1.4500 C   0  0  0  0  0  0  0  0  0  0  0  0
   -0.6978    2.4616   -0.0195 C   0  0  0  0  0  0  0  0  0  0  0  0
    0.4299    3.0583   -0.7337 N   0  0  0  0  0  0  0  0  0  0  0  0
    1.1915    2.4141   -1.7714 C   0  0  0  0  0  0  0  0  0  0  0  0
    2.1889    3.0188   -2.2487 O   0  0  0  0  0  0  0  0  0  0  0  0
    0.8394    1.0533   -2.3332 C   0  0  0  0  0  0  0  0  0  0  0  0
    1.2836   -0.0584   -1.4622 N   0  0  0  0  0  0  0  0  0  0  0  0
    2.6408   -0.0219   -0.9587 C   0  0  0  0  0  0  0  0  0  0  0  0
    3.5314    0.5910   -1.6108 O   0  0  0  0  0  0  0  0  0  0  0  0
    3.0421   -0.7931    0.2734 C   0  0  0  0  0  0  0  0  0  0  0  0
    4.1674   -0.1135    1.0106 C   0  0  0  0  0  0  0  0  0  0  0  0
    5.5036   -0.4409    0.7225 C   0  0  0  0  0  0  0  0  0  0  0  0
    6.5476    0.2174    1.3800 C   0  0  0  0  0  0  0  0  0  0  0  0
    6.2665    1.2108    2.3219 C   0  0  0  0  0  0  0  0  0  0  0  0
    4.9408    1.5492    2.6062 C   0  0  0  0  0  0  0  0  0  0  0  0
    3.8938    0.8934    1.9512 C   0  0  0  0  0  0  0  0  0  0  0  0
    0.6907   -1.4079   -1.6193 C   0  0  0  0  0  0  0  0  0  0  0  0
   -5.7901   -1.4247    1.8445 H   0  0  0  0  0  0  0  0  0  0  0  0
   -7.1701   -2.2804    1.0489 H   0  0  0  0  0  0  0  0  0  0  0  0
   -5.7095   -3.2117    1.5663 H   0  0  0  0  0  0  0  0  0  0  0  0
   -5.8046   -1.0405   -0.6204 H   0  0  0  0  0  0  0  0  0  0  0  0
   -5.7169   -2.8337   -0.8977 H   0  0  0  0  0  0  0  0  0  0  0  0
   -4.6049   -1.5987   -2.7094 H   0  0  0  0  0  0  0  0  0  0  0  0
   -2.9725   -1.2142   -4.4955 H   0  0  0  0  0  0  0  0  0  0  0  0
   -0.5682   -1.1211   -3.9989 H   0  0  0  0  0  0  0  0  0  0  0  0
   -0.0136   -0.3213    0.7915 H   0  0  0  0  0  0  0  0  0  0  0  0
   -0.4533   -1.2413    2.2584 H   0  0  0  0  0  0  0  0  0  0  0  0
   -2.5437    0.4550    0.7420 H   0  0  0  0  0  0  0  0  0  0  0  0
   -2.6613   -0.2596    2.3646 H   0  0  0  0  0  0  0  0  0  0  0  0
   -1.0034    1.2870    3.2774 H   0  0  0  0  0  0  0  0  0  0  0  0
   -2.2672    2.2103    2.4112 H   0  0  0  0  0  0  0  0  0  0  0  0
   -0.1234    3.2193    1.9246 H   0  0  0  0  0  0  0  0  0  0  0  0
    0.6311    1.6655    1.5072 H   0  0  0  0  0  0  0  0  0  0  0  0
   -0.9983    1.5127   -0.4947 H   0  0  0  0  0  0  0  0  0  0  0  0
   -1.5658    3.1533   -0.0725 H   0  0  0  0  0  0  0  0  0  0  0  0
    0.7334    4.0121   -0.4325 H   0  0  0  0  0  0  0  0  0  0  0  0
    1.3119    0.9333   -3.3322 H   0  0  0  0  0  0  0  0  0  0  0  0
   -0.2517    1.0336   -2.5057 H   0  0  0  0  0  0  0  0  0  0  0  0
    2.1777   -0.8993    0.9587 H   0  0  0  0  0  0  0  0  0  0  0  0
    3.3482   -1.8176   -0.0290 H   0  0  0  0  0  0  0  0  0  0  0  0
    5.7356   -1.2018   -0.0120 H   0  0  0  0  0  0  0  0  0  0  0  0
    7.5746   -0.0406    1.1573 H   0  0  0  0  0  0  0  0  0  0  0  0
    7.0756    1.7203    2.8289 H   0  0  0  0  0  0  0  0  0  0  0  0
    4.7241    2.3217    3.3330 H   0  0  0  0  0  0  0  0  0  0  0  0
    2.8727    1.1688    2.1783 H   0  0  0  0  0  0  0  0  0  0  0  0
    0.9049   -2.0345   -0.7291 H   0  0  0  0  0  0  0  0  0  0  0  0
    1.1982   -1.9179   -2.4673 H   0  0  0  0  0  0  0  0  0  0  0  0
  1  2  1  0
  2  3  1  0
  3  4  1  0
  4  5  2  0
  5  6  1  0
  6  7  2  0
  7  8  1  0
  8  9  2  0
  9 10  1  0
 10 11  1  0
 11 12  1  0
 12 13  1  0
 13 14  1  0
 14 15  1  0
 15 16  1  0
 16 17  1  0
 17 18  2  0
 17 19  1  0
 19 20  1  0
 20 21  1  0
 21 22  2  0
 21 23  1  0
 23 24  1  0
 24 25  2  0
 25 26  1  0
 26 27  2  0
 27 28  1  0
 28 29  2  0
 20 30  1  0
  9  4  1  0
 29 24  1  0
 30  8  1  0
  1 31  1  0
  1 32  1  0
  1 33  1  0
  2 34  1  0
  2 35  1  0
  5 36  1  0
  6 37  1  0
  7 38  1  0
 11 39  1  0
 11 40  1  0
 12 41  1  0
 12 42  1  0
 13 43  1  0
 13 44  1  0
 14 45  1  0
 14 46  1  0
 15 47  1  0
 15 48  1  0
 16 49  1  0
 19 50  1  0
 19 51  1  0
 23 52  1  0
 23 53  1  0
 25 54  1  0
 26 55  1  0
 27 56  1  0
 28 57  1  0
 29 58  1  0
 30 59  1  0
 30 60  1  0
M  END
$$$$
