
     RDKit          3D

 68 69  0  0  0  0  0  0  0  0999 V2000
    4.3741   -0.4838   -2.1912 C   0  0  0  0  0  0  0  0  0  0  0  0
    3.9073   -0.3274   -0.8557 O   0  0  0  0  0  0  0  0  0  0  0  0
    4.5394    0.4519    0.1276 C   0  0  0  0  0  0  0  0  0  0  0  0
    5.7440    1.1359   -0.1339 C   0  0  0  0  0  0  0  0  0  0  0  0
    6.3729    1.8719    0.8721 C   0  0  0  0  0  0  0  0  0  0  0  0
    5.8132    1.9345    2.1477 C   0  0  0  0  0  0  0  0  0  0  0  0
    4.6173    1.2691    2.4204 C   0  0  0  0  0  0  0  0  0  0  0  0
    3.9623    0.5368    1.4151 C   0  0  0  0  0  0  0  0  0  0  0  0
    2.6915   -0.1553    1.7351 C   0  0  0  0  0  0  0  0  0  0  0  0
    2.5479   -0.6774    2.8746 O   0  0  0  0  0  0  0  0  0  0  0  0
    1.6202   -0.2442    0.7749 N   0  0  0  0  0  0  0  0  0  0  0  0
    0.7389   -1.4208    0.7801 C   0  0  0  0  0  0  0  0  0  0  0  0
    1.4913   -2.7154    0.4448 C   0  0  0  0  0  0  0  0  0  0  0  0
    0.5491   -3.8420   -0.0339 C   0  0  0  0  0  0  0  0  0  0  0  0
   -0.5223   -4.2435    0.9959 C   0  0  0  0  0  0  0  0  0  0  0  0
   -1.5181   -3.2431    1.1144 O   0  0  0  0  0  0  0  0  0  0  0  0
   -2.6350   -3.4713    0.2674 C   0  0  0  0  0  0  0  0  0  0  0  0
   -3.0187   -2.1776   -0.4860 C   0  0  0  0  0  0  0  0  0  0  0  0
   -2.0889   -1.9596   -1.5141 O   0  0  0  0  0  0  0  0  0  0  0  0
   -3.0865   -0.9458    0.4709 C   0  0  0  0  0  0  0  0  0  0  0  0
   -4.0569   -1.1570    1.4669 O   0  0  0  0  0  0  0  0  0  0  0  0
   -3.3328    0.4288   -0.2216 C   0  0  0  0  0  0  0  0  0  0  0  0
   -4.5097    0.3599   -1.0146 O   0  0  0  0  0  0  0  0  0  0  0  0
   -5.5176    1.2054   -0.5033 C   0  0  0  0  0  0  0  0  0  0  0  0
   -2.1427    0.8733   -1.1139 C   0  0  0  0  0  0  0  0  0  0  0  0
   -1.8013    2.2963   -0.9140 N   0  0  0  0  0  0  0  0  0  0  0  0
   -2.5805    3.2898   -1.6249 C   0  0  0  0  0  0  0  0  0  0  0  0
   -2.4016    4.7595   -1.3795 C   0  0  0  0  0  0  0  0  0  0  0  0
   -3.4393    2.9298   -2.4761 O   0  0  0  0  0  0  0  0  0  0  0  0
   -0.6579    2.7504   -0.0798 C   0  0  0  0  0  0  0  0  0  0  0  0
    0.0435    1.6683    0.7736 C   0  0  0  0  0  0  0  0  0  0  0  0
    1.1940    0.9559    0.0328 C   0  0  0  0  0  0  0  0  0  0  0  0
    4.4050    0.5019   -2.7019 H   0  0  0  0  0  0  0  0  0  0  0  0
    5.3827   -0.9487   -2.1915 H   0  0  0  0  0  0  0  0  0  0  0  0
    3.6764   -1.1480   -2.7417 H   0  0  0  0  0  0  0  0  0  0  0  0
    6.2080    1.0973   -1.1099 H   0  0  0  0  0  0  0  0  0  0  0  0
    7.2999    2.3902    0.6634 H   0  0  0  0  0  0  0  0  0  0  0  0
    6.3055    2.5027    2.9264 H   0  0  0  0  0  0  0  0  0  0  0  0
    4.1937    1.3374    3.4151 H   0  0  0  0  0  0  0  0  0  0  0  0
    0.2559   -1.5114    1.7767 H   0  0  0  0  0  0  0  0  0  0  0  0
   -0.0526   -1.2918    0.0232 H   0  0  0  0  0  0  0  0  0  0  0  0
    2.0630   -3.0567    1.3347 H   0  0  0  0  0  0  0  0  0  0  0  0
    2.2204   -2.5116   -0.3690 H   0  0  0  0  0  0  0  0  0  0  0  0
    0.0611   -3.5467   -0.9872 H   0  0  0  0  0  0  0  0  0  0  0  0
    1.1719   -4.7360   -0.2528 H   0  0  0  0  0  0  0  0  0  0  0  0
   -0.9417   -5.2462    0.7482 H   0  0  0  0  0  0  0  0  0  0  0  0
   -0.0347   -4.3642    1.9865 H   0  0  0  0  0  0  0  0  0  0  0  0
   -2.4770   -4.2758   -0.4893 H   0  0  0  0  0  0  0  0  0  0  0  0
   -3.4918   -3.7868    0.9004 H   0  0  0  0  0  0  0  0  0  0  0  0
   -4.0292   -2.3236   -0.9357 H   0  0  0  0  0  0  0  0  0  0  0  0
   -2.3179   -2.5820   -2.2531 H   0  0  0  0  0  0  0  0  0  0  0  0
   -2.1192   -0.8616    1.0013 H   0  0  0  0  0  0  0  0  0  0  0  0
   -4.9244   -1.3208    1.0136 H   0  0  0  0  0  0  0  0  0  0  0  0
   -3.4038    1.1719    0.6129 H   0  0  0  0  0  0  0  0  0  0  0  0
   -5.1914    2.2683   -0.5108 H   0  0  0  0  0  0  0  0  0  0  0  0
   -6.4137    1.1213   -1.1512 H   0  0  0  0  0  0  0  0  0  0  0  0
   -5.8119    0.9023    0.5251 H   0  0  0  0  0  0  0  0  0  0  0  0
   -1.2627    0.2510   -0.9337 H   0  0  0  0  0  0  0  0  0  0  0  0
   -2.3739    0.6858   -2.1855 H   0  0  0  0  0  0  0  0  0  0  0  0
   -3.0734    5.3485   -2.0398 H   0  0  0  0  0  0  0  0  0  0  0  0
   -2.6530    4.9983   -0.3254 H   0  0  0  0  0  0  0  0  0  0  0  0
   -1.3544    5.0580   -1.5931 H   0  0  0  0  0  0  0  0  0  0  0  0
   -1.0354    3.5120    0.6359 H   0  0  0  0  0  0  0  0  0  0  0  0
    0.0920    3.2553   -0.7267 H   0  0  0  0  0  0  0  0  0  0  0  0
    0.4901    2.1644    1.6635 H   0  0  0  0  0  0  0  0  0  0  0  0
   -0.6974    0.9524    1.1781 H   0  0  0  0  0  0  0  0  0  0  0  0
    2.0361    1.6711   -0.0808 H   0  0  0  0  0  0  0  0  0  0  0  0
    0.9005    0.6682   -0.9979 H   0  0  0  0  0  0  0  0  0  0  0  0
  1  2  1  0
  2  3  1  0
  3  4  2  0
  4  5  1  0
  5  6  2  0
  6  7  1  0
  7  8  2  0
  8  9  1  0
  9 10  2  0
  9 11  1  0
 11 12  1  0
 12 13  1  0
 13 14  1  0
 14 15  1  0
 15 16  1  0
 16 17  1  0
 17 18  1  0
 18 19  1  0
 18 20  1  0
 20 21  1  0
 20 22  1  0
 22 23  1  0
 23 24  1  0
 22 25  1  0
 25 26  1  0
 26 27  1  0
 27 28  1  0
 27 29  2  0
 26 30  1  0
 30 31  1  0
 31 32  1  0
  8  3  1  0
 32 11  1  0
  1 33  1  0
  1 34  1  0
  1 35  1  0
  4 36  1  0
  5 37  1  0
  6 38  1  0
  7 39  1  0
 12 40  1  0
 12 41  1  0
 13 42  1  0
 13 43  1  0
 14 44  1  0
 14 45  1  0
 15 46  1  0
 15 47  1  0
 17 48  1  0
 17 49  1  0
 18 50  1  0
 19 51  1  0
 20 52  1  0
 21 53  1  0
 22 54  1  0
 24 55  1  0
 24 56  1  0
 24 57  1  0
 25 58  1  0
 25 59  1  0
 28 60  1  0
 28 61  1  0
 28 62  1  0
 30 63  1  0
 30 64  1  0
 31 65  1  0
 31 66  1  0
 32 67  1  0
 32 68  1  0
M  END
$$$$
