
     RDKit          3D

 74 77  0  0  0  0  0  0  0  0999 V2000
    1.7588    0.6541    2.5797 C   0  0  0  0  0  0  0  0  0  0  0  0
    2.1404    1.2291    1.2857 N   0  0  0  0  0  0  0  0  0  0  0  0
    2.6123    2.6214    1.2335 C   0  0  0  0  0  0  0  0  0  0  0  0
    4.0774    2.7266    1.6746 C   0  0  0  0  0  0  0  0  0  0  0  0
    4.9897    1.9565    0.7560 C   0  0  0  0  0  0  0  0  0  0  0  0
    5.3756    0.6437    1.0758 C   0  0  0  0  0  0  0  0  0  0  0  0
    6.1761   -0.0895    0.1948 C   0  0  0  0  0  0  0  0  0  0  0  0
    6.5962    0.4810   -1.0099 C   0  0  0  0  0  0  0  0  0  0  0  0
    6.2137    1.7850   -1.3369 C   0  0  0  0  0  0  0  0  0  0  0  0
    5.4093    2.5203   -0.4606 C   0  0  0  0  0  0  0  0  0  0  0  0
    2.0899    0.4247    0.0858 C   0  0  0  0  0  0  0  0  0  0  0  0
    2.4706    0.9028   -1.0172 O   0  0  0  0  0  0  0  0  0  0  0  0
    1.5701   -0.9575    0.1058 C   0  0  0  0  0  0  0  0  0  0  0  0
    2.4244   -1.9625    0.5767 C   0  0  0  0  0  0  0  0  0  0  0  0
    2.0124   -3.2892    0.5907 C   0  0  0  0  0  0  0  0  0  0  0  0
    0.7525   -3.6309    0.1122 C   0  0  0  0  0  0  0  0  0  0  0  0
   -0.1170   -2.6567   -0.3908 C   0  0  0  0  0  0  0  0  0  0  0  0
    0.2651   -1.2843   -0.3653 C   0  0  0  0  0  0  0  0  0  0  0  0
   -0.6636   -0.1729   -0.8463 C   0  0  0  0  0  0  0  0  0  0  0  0
   -2.0307   -0.2341   -0.2715 N   0  0  0  0  0  0  0  0  0  0  0  0
   -2.9406    0.7113   -0.9802 C   0  0  0  0  0  0  0  0  0  0  0  0
   -2.5078    2.1651   -0.9190 C   0  0  0  0  0  0  0  0  0  0  0  0
   -1.6673    2.6986   -1.9135 C   0  0  0  0  0  0  0  0  0  0  0  0
   -1.2490    4.0307   -1.8466 C   0  0  0  0  0  0  0  0  0  0  0  0
   -1.6772    4.8470   -0.7973 C   0  0  0  0  0  0  0  0  0  0  0  0
   -2.5322    4.3345    0.1816 C   0  0  0  0  0  0  0  0  0  0  0  0
   -2.9517    3.0023    0.1188 C   0  0  0  0  0  0  0  0  0  0  0  0
   -2.0143   -0.0379    1.1981 C   0  0  0  0  0  0  0  0  0  0  0  0
   -3.3897   -0.1331    1.8235 C   0  0  0  0  0  0  0  0  0  0  0  0
   -3.7371    0.7543    2.6476 O   0  0  0  0  0  0  0  0  0  0  0  0
   -4.3121   -1.1955    1.5277 N   0  0  0  0  0  0  0  0  0  0  0  0
   -3.9272   -2.4973    0.9896 C   0  0  0  0  0  0  0  0  0  0  0  0
   -4.4970   -2.6869   -0.4248 C   0  0  0  0  0  0  0  0  0  0  0  0
   -4.0027   -3.9984   -1.0780 C   0  0  0  0  0  0  0  0  0  0  0  0
   -3.1412   -3.7909   -2.3424 C   0  0  0  0  0  0  0  0  0  0  0  0
   -1.9073   -2.8987   -2.1350 C   0  0  0  0  0  0  0  0  0  0  0  0
   -1.3610   -3.1134   -0.8382 O   0  0  0  0  0  0  0  0  0  0  0  0
    1.8385    1.4054    3.3937 H   0  0  0  0  0  0  0  0  0  0  0  0
    0.7100    0.2960    2.5396 H   0  0  0  0  0  0  0  0  0  0  0  0
    2.4302   -0.1933    2.8291 H   0  0  0  0  0  0  0  0  0  0  0  0
    2.4913    3.0474    0.2138 H   0  0  0  0  0  0  0  0  0  0  0  0
    1.9878    3.2508    1.9041 H   0  0  0  0  0  0  0  0  0  0  0  0
    4.1802    2.3601    2.7195 H   0  0  0  0  0  0  0  0  0  0  0  0
    4.3756    3.7975    1.6783 H   0  0  0  0  0  0  0  0  0  0  0  0
    5.0469    0.1854    2.0002 H   0  0  0  0  0  0  0  0  0  0  0  0
    6.4669   -1.1018    0.4441 H   0  0  0  0  0  0  0  0  0  0  0  0
    7.2161   -0.0879   -1.6907 H   0  0  0  0  0  0  0  0  0  0  0  0
    6.5361    2.2241   -2.2720 H   0  0  0  0  0  0  0  0  0  0  0  0
    5.1069    3.5242   -0.7322 H   0  0  0  0  0  0  0  0  0  0  0  0
    3.4176   -1.7162    0.9324 H   0  0  0  0  0  0  0  0  0  0  0  0
    2.6766   -4.0582    0.9637 H   0  0  0  0  0  0  0  0  0  0  0  0
    0.4484   -4.6701    0.1203 H   0  0  0  0  0  0  0  0  0  0  0  0
   -0.2343    0.8218   -0.6180 H   0  0  0  0  0  0  0  0  0  0  0  0
   -0.7004   -0.2336   -1.9543 H   0  0  0  0  0  0  0  0  0  0  0  0
   -3.9763    0.6192   -0.5913 H   0  0  0  0  0  0  0  0  0  0  0  0
   -3.0243    0.4051   -2.0455 H   0  0  0  0  0  0  0  0  0  0  0  0
   -1.3280    2.0801   -2.7349 H   0  0  0  0  0  0  0  0  0  0  0  0
   -0.5930    4.4303   -2.6090 H   0  0  0  0  0  0  0  0  0  0  0  0
   -1.3524    5.8781   -0.7465 H   0  0  0  0  0  0  0  0  0  0  0  0
   -2.8730    4.9705    0.9881 H   0  0  0  0  0  0  0  0  0  0  0  0
   -3.6267    2.6290    0.8749 H   0  0  0  0  0  0  0  0  0  0  0  0
   -1.3867   -0.8188    1.6759 H   0  0  0  0  0  0  0  0  0  0  0  0
   -1.5541    0.9433    1.4506 H   0  0  0  0  0  0  0  0  0  0  0  0
   -5.3131   -1.0639    1.7974 H   0  0  0  0  0  0  0  0  0  0  0  0
   -4.3341   -3.2904    1.6533 H   0  0  0  0  0  0  0  0  0  0  0  0
   -2.8283   -2.6082    1.0016 H   0  0  0  0  0  0  0  0  0  0  0  0
   -4.2501   -1.8096   -1.0551 H   0  0  0  0  0  0  0  0  0  0  0  0
   -5.6063   -2.7147   -0.3510 H   0  0  0  0  0  0  0  0  0  0  0  0
   -4.8887   -4.6032   -1.3706 H   0  0  0  0  0  0  0  0  0  0  0  0
   -3.4367   -4.6221   -0.3512 H   0  0  0  0  0  0  0  0  0  0  0  0
   -3.7702   -3.3596   -3.1515 H   0  0  0  0  0  0  0  0  0  0  0  0
   -2.7993   -4.7900   -2.6899 H   0  0  0  0  0  0  0  0  0  0  0  0
   -1.1450   -3.1361   -2.9084 H   0  0  0  0  0  0  0  0  0  0  0  0
   -2.2160   -1.8492   -2.2660 H   0  0  0  0  0  0  0  0  0  0  0  0
  1  2  1  0
  2  3  1  0
  3  4  1  0
  4  5  1  0
  5  6  2  0
  6  7  1  0
  7  8  2  0
  8  9  1  0
  9 10  2  0
  2 11  1  0
 11 12  2  0
 11 13  1  0
 13 14  2  0
 14 15  1  0
 15 16  2  0
 16 17  1  0
 17 18  2  0
 18 19  1  0
 19 20  1  0
 20 21  1  0
 21 22  1  0
 22 23  2  0
 23 24  1  0
 24 25  2  0
 25 26  1  0
 26 27  2  0
 20 28  1  0
 28 29  1  0
 29 30  2  0
 29 31  1  0
 31 32  1  0
 32 33  1  0
 33 34  1  0
 34 35  1  0
 35 36  1  0
 36 37  1  0
 10  5  1  0
 18 13  1  0
 27 22  1  0
 37 17  1  0
  1 38  1  0
  1 39  1  0
  1 40  1  0
  3 41  1  0
  3 42  1  0
  4 43  1  0
  4 44  1  0
  6 45  1  0
  7 46  1  0
  8 47  1  0
  9 48  1  0
 10 49  1  0
 14 50  1  0
 15 51  1  0
 16 52  1  0
 19 53  1  0
 19 54  1  0
 21 55  1  0
 21 56  1  0
 23 57  1  0
 24 58  1  0
 25 59  1  0
 26 60  1  0
 27 61  1  0
 28 62  1  0
 28 63  1  0
 31 64  1  0
 32 65  1  0
 32 66  1  0
 33 67  1  0
 33 68  1  0
 34 69  1  0
 34 70  1  0
 35 71  1  0
 35 72  1  0
 36 73  1  0
 36 74  1  0
M  END
$$$$
