
     RDKit          3D

 89 92  0  0  0  0  0  0  0  0999 V2000
    9.3339   -2.4919   -2.9499 C   0  0  0  0  0  0  0  0  0  0  0  0
    8.0923   -1.7981   -3.0211 O   0  0  0  0  0  0  0  0  0  0  0  0
    7.4047   -1.2893   -1.9091 C   0  0  0  0  0  0  0  0  0  0  0  0
    7.8715   -1.4517   -0.5932 C   0  0  0  0  0  0  0  0  0  0  0  0
    7.1562   -0.9185    0.4839 C   0  0  0  0  0  0  0  0  0  0  0  0
    5.9429   -0.2278    0.2746 C   0  0  0  0  0  0  0  0  0  0  0  0
    5.1692    0.4250    1.4239 C   0  0  0  0  0  0  0  0  0  0  0  0
    5.5092   -0.1325    2.8163 C   0  0  0  0  0  0  0  0  0  0  0  0
    3.7049    0.3448    1.2244 N   0  0  0  0  0  0  0  0  0  0  0  0
    2.8818    1.5124    1.5986 C   0  0  0  0  0  0  0  0  0  0  0  0
    2.2981    2.1876    0.3845 C   0  0  0  0  0  0  0  0  0  0  0  0
    0.9068    2.2604    0.1919 C   0  0  0  0  0  0  0  0  0  0  0  0
    0.3862    2.8890   -0.9426 C   0  0  0  0  0  0  0  0  0  0  0  0
    1.2637    3.4538   -1.8698 C   0  0  0  0  0  0  0  0  0  0  0  0
    2.6066    3.4037   -1.6564 N   0  0  0  0  0  0  0  0  0  0  0  0
    3.1380    2.7933   -0.5623 C   0  0  0  0  0  0  0  0  0  0  0  0
    3.0742   -0.9208    0.8947 C   0  0  0  0  0  0  0  0  0  0  0  0
    3.7372   -1.9921    0.9718 O   0  0  0  0  0  0  0  0  0  0  0  0
    1.6480   -0.9698    0.4104 C   0  0  0  0  0  0  0  0  0  0  0  0
    1.1038   -2.3916    0.2055 C   0  0  0  0  0  0  0  0  0  0  0  0
   -0.3321   -2.3184   -0.2388 C   0  0  0  0  0  0  0  0  0  0  0  0
   -0.6683   -2.4737   -1.5839 C   0  0  0  0  0  0  0  0  0  0  0  0
   -1.9812   -2.2788   -2.0023 C   0  0  0  0  0  0  0  0  0  0  0  0
   -2.9922   -1.8981   -1.1076 C   0  0  0  0  0  0  0  0  0  0  0  0
   -2.6608   -1.7434    0.2802 C   0  0  0  0  0  0  0  0  0  0  0  0
   -1.3271   -1.9749    0.6817 C   0  0  0  0  0  0  0  0  0  0  0  0
   -3.6127   -1.3038    1.3848 C   0  0  0  0  0  0  0  0  0  0  0  0
   -3.9174    0.1582    1.3828 N   0  0  0  0  0  0  0  0  0  0  0  0
   -4.8282    0.5821    2.4937 C   0  0  0  0  0  0  0  0  0  0  0  0
   -6.2728    0.1243    2.2451 C   0  0  0  0  0  0  0  0  0  0  0  0
   -4.3601    0.1452    3.8965 C   0  0  0  0  0  0  0  0  0  0  0  0
   -2.7146    1.0269    1.2719 C   0  0  0  0  0  0  0  0  0  0  0  0
   -3.0835    2.4371    0.8768 C   0  0  0  0  0  0  0  0  0  0  0  0
   -2.7690    3.3807    1.6537 O   0  0  0  0  0  0  0  0  0  0  0  0
   -3.8107    2.7406   -0.3290 N   0  0  0  0  0  0  0  0  0  0  0  0
   -3.9762    1.8199   -1.4549 C   0  0  0  0  0  0  0  0  0  0  0  0
   -5.4551    1.7418   -1.8655 C   0  0  0  0  0  0  0  0  0  0  0  0
   -5.7365    0.5827   -2.8562 C   0  0  0  0  0  0  0  0  0  0  0  0
   -6.3735   -0.6607   -2.2001 C   0  0  0  0  0  0  0  0  0  0  0  0
   -5.4825   -1.2939   -1.1311 C   0  0  0  0  0  0  0  0  0  0  0  0
   -4.2455   -1.6764   -1.7150 O   0  0  0  0  0  0  0  0  0  0  0  0
    5.5001   -0.0509   -1.0509 C   0  0  0  0  0  0  0  0  0  0  0  0
    6.2168   -0.5860   -2.1243 C   0  0  0  0  0  0  0  0  0  0  0  0
   10.1078   -1.8411   -2.4926 H   0  0  0  0  0  0  0  0  0  0  0  0
    9.6592   -2.7619   -3.9745 H   0  0  0  0  0  0  0  0  0  0  0  0
    9.2178   -3.4218   -2.3554 H   0  0  0  0  0  0  0  0  0  0  0  0
    8.7942   -1.9787   -0.3915 H   0  0  0  0  0  0  0  0  0  0  0  0
    7.5665   -1.0534    1.4748 H   0  0  0  0  0  0  0  0  0  0  0  0
    5.4809    1.4922    1.4200 H   0  0  0  0  0  0  0  0  0  0  0  0
    5.4222   -1.2408    2.8328 H   0  0  0  0  0  0  0  0  0  0  0  0
    6.5353    0.1637    3.1189 H   0  0  0  0  0  0  0  0  0  0  0  0
    4.8083    0.2831    3.5738 H   0  0  0  0  0  0  0  0  0  0  0  0
    2.0865    1.2000    2.3111 H   0  0  0  0  0  0  0  0  0  0  0  0
    3.4847    2.2668    2.1484 H   0  0  0  0  0  0  0  0  0  0  0  0
    0.2283    1.8279    0.9142 H   0  0  0  0  0  0  0  0  0  0  0  0
   -0.6854    2.9377   -1.1004 H   0  0  0  0  0  0  0  0  0  0  0  0
    0.8777    3.9391   -2.7534 H   0  0  0  0  0  0  0  0  0  0  0  0
    4.2135    2.7854   -0.4291 H   0  0  0  0  0  0  0  0  0  0  0  0
    1.0055   -0.4622    1.1571 H   0  0  0  0  0  0  0  0  0  0  0  0
    1.5860   -0.4222   -0.5549 H   0  0  0  0  0  0  0  0  0  0  0  0
    1.1639   -2.9631    1.1580 H   0  0  0  0  0  0  0  0  0  0  0  0
    1.7191   -2.9263   -0.5525 H   0  0  0  0  0  0  0  0  0  0  0  0
    0.0895   -2.7300   -2.3144 H   0  0  0  0  0  0  0  0  0  0  0  0
   -2.2131   -2.3923   -3.0541 H   0  0  0  0  0  0  0  0  0  0  0  0
   -1.0409   -1.8405    1.7202 H   0  0  0  0  0  0  0  0  0  0  0  0
   -4.5398   -1.9023    1.2981 H   0  0  0  0  0  0  0  0  0  0  0  0
   -3.1772   -1.5975    2.3632 H   0  0  0  0  0  0  0  0  0  0  0  0
   -4.8852    1.6921    2.5202 H   0  0  0  0  0  0  0  0  0  0  0  0
   -6.3597   -0.9811    2.2610 H   0  0  0  0  0  0  0  0  0  0  0  0
   -6.6312    0.5107    1.2695 H   0  0  0  0  0  0  0  0  0  0  0  0
   -6.9386    0.5385    3.0333 H   0  0  0  0  0  0  0  0  0  0  0  0
   -4.4961   -0.9467    4.0483 H   0  0  0  0  0  0  0  0  0  0  0  0
   -3.3001    0.4164    4.0687 H   0  0  0  0  0  0  0  0  0  0  0  0
   -4.9686    0.6639    4.6658 H   0  0  0  0  0  0  0  0  0  0  0  0
   -2.0219    0.6693    0.4866 H   0  0  0  0  0  0  0  0  0  0  0  0
   -2.1394    1.0298    2.2221 H   0  0  0  0  0  0  0  0  0  0  0  0
   -4.1398    3.7258   -0.4635 H   0  0  0  0  0  0  0  0  0  0  0  0
   -3.3736    2.1909   -2.3109 H   0  0  0  0  0  0  0  0  0  0  0  0
   -3.5919    0.8165   -1.2056 H   0  0  0  0  0  0  0  0  0  0  0  0
   -5.7217    2.7032   -2.3539 H   0  0  0  0  0  0  0  0  0  0  0  0
   -6.0994    1.6546   -0.9653 H   0  0  0  0  0  0  0  0  0  0  0  0
   -4.8107    0.2937   -3.3980 H   0  0  0  0  0  0  0  0  0  0  0  0
   -6.4491    0.9483   -3.6270 H   0  0  0  0  0  0  0  0  0  0  0  0
   -6.5842   -1.4153   -2.9889 H   0  0  0  0  0  0  0  0  0  0  0  0
   -7.3435   -0.3791   -1.7435 H   0  0  0  0  0  0  0  0  0  0  0  0
   -5.9781   -2.1831   -0.6884 H   0  0  0  0  0  0  0  0  0  0  0  0
   -5.3472   -0.5342   -0.3628 H   0  0  0  0  0  0  0  0  0  0  0  0
    4.5933    0.4978   -1.2603 H   0  0  0  0  0  0  0  0  0  0  0  0
    5.8502   -0.4406   -3.1320 H   0  0  0  0  0  0  0  0  0  0  0  0
  1  2  1  0
  2  3  1  0
  3  4  2  0
  4  5  1  0
  5  6  2  0
  6  7  1  0
  7  8  1  0
  7  9  1  0
  9 10  1  0
 10 11  1  0
 11 12  2  0
 12 13  1  0
 13 14  2  0
 14 15  1  0
 15 16  2  0
  9 17  1  0
 17 18  2  0
 17 19  1  0
 19 20  1  0
 20 21  1  0
 21 22  2  0
 22 23  1  0
 23 24  2  0
 24 25  1  0
 25 26  2  0
 25 27  1  0
 27 28  1  0
 28 29  1  0
 29 30  1  0
 29 31  1  0
 28 32  1  0
 32 33  1  0
 33 34  2  0
 33 35  1  0
 35 36  1  0
 36 37  1  0
 37 38  1  0
 38 39  1  0
 39 40  1  0
 40 41  1  0
  6 42  1  0
 42 43  2  0
 43  3  1  0
 16 11  1  0
 26 21  1  0
 41 24  1  0
  1 44  1  0
  1 45  1  0
  1 46  1  0
  4 47  1  0
  5 48  1  0
  7 49  1  0
  8 50  1  0
  8 51  1  0
  8 52  1  0
 10 53  1  0
 10 54  1  0
 12 55  1  0
 13 56  1  0
 14 57  1  0
 16 58  1  0
 19 59  1  0
 19 60  1  0
 20 61  1  0
 20 62  1  0
 22 63  1  0
 23 64  1  0
 26 65  1  0
 27 66  1  0
 27 67  1  0
 29 68  1  0
 30 69  1  0
 30 70  1  0
 30 71  1  0
 31 72  1  0
 31 73  1  0
 31 74  1  0
 32 75  1  0
 32 76  1  0
 35 77  1  0
 36 78  1  0
 36 79  1  0
 37 80  1  0
 37 81  1  0
 38 82  1  0
 38 83  1  0
 39 84  1  0
 39 85  1  0
 40 86  1  0
 40 87  1  0
 42 88  1  0
 43 89  1  0
M  END
$$$$
