
     RDKit          3D

 66 70  0  0  0  0  0  0  0  0999 V2000
   -6.7662    1.2859   -2.2539 O   0  0  0  0  0  0  0  0  0  0  0  0
   -5.9472    0.6405   -1.5474 C   0  0  0  0  0  0  0  0  0  0  0  0
   -5.5789   -0.6901   -1.9519 N   0  0  0  0  0  0  0  0  0  0  0  0
   -4.4906   -1.4993   -1.3918 C   0  0  0  0  0  0  0  0  0  0  0  0
   -4.7647   -1.9248    0.0507 C   0  0  0  0  0  0  0  0  0  0  0  0
   -3.8023   -2.8780    0.4505 O   0  0  0  0  0  0  0  0  0  0  0  0
   -3.8063   -3.0252    1.8625 C   0  0  0  0  0  0  0  0  0  0  0  0
   -2.5725   -2.3652    2.4888 C   0  0  0  0  0  0  0  0  0  0  0  0
   -2.4290   -1.0078    2.0636 O   0  0  0  0  0  0  0  0  0  0  0  0
   -1.5579   -0.5431    1.0572 C   0  0  0  0  0  0  0  0  0  0  0  0
   -0.8412   -1.4185    0.2173 C   0  0  0  0  0  0  0  0  0  0  0  0
    0.0861   -0.9193   -0.7054 C   0  0  0  0  0  0  0  0  0  0  0  0
    0.3045    0.4609   -0.8159 C   0  0  0  0  0  0  0  0  0  0  0  0
    1.2901    1.0280   -1.7618 C   0  0  0  0  0  0  0  0  0  0  0  0
    0.8965    1.8906   -2.5942 O   0  0  0  0  0  0  0  0  0  0  0  0
    2.6991    0.7442   -1.6504 N   0  0  0  0  0  0  0  0  0  0  0  0
    3.1868   -0.6308   -1.4536 C   0  0  0  0  0  0  0  0  0  0  0  0
    4.7134   -0.7201   -1.5850 C   0  0  0  0  0  0  0  0  0  0  0  0
    5.3584    0.3455   -0.8020 N   0  0  0  0  0  0  0  0  0  0  0  0
    6.6294    0.0989   -0.1655 C   0  0  0  0  0  0  0  0  0  0  0  0
    7.0172    0.8083    0.9854 C   0  0  0  0  0  0  0  0  0  0  0  0
    8.2486    0.5291    1.5815 C   0  0  0  0  0  0  0  0  0  0  0  0
    9.0884   -0.4368    1.0298 C   0  0  0  0  0  0  0  0  0  0  0  0
    8.6771   -1.1246   -0.1119 C   0  0  0  0  0  0  0  0  0  0  0  0
    7.4695   -0.8489   -0.6739 N   0  0  0  0  0  0  0  0  0  0  0  0
    4.7984    1.7071   -0.8174 C   0  0  0  0  0  0  0  0  0  0  0  0
    3.6591    1.8370   -1.8345 C   0  0  0  0  0  0  0  0  0  0  0  0
   -0.4726    1.3382   -0.0456 C   0  0  0  0  0  0  0  0  0  0  0  0
   -1.4003    0.8495    0.8890 C   0  0  0  0  0  0  0  0  0  0  0  0
   -2.2465    1.8312    1.6689 C   0  0  0  0  0  0  0  0  0  0  0  0
   -3.7100    1.7615    1.2977 C   0  0  0  0  0  0  0  0  0  0  0  0
   -4.6764    2.0647    2.2701 C   0  0  0  0  0  0  0  0  0  0  0  0
   -6.0360    1.9796    1.9660 C   0  0  0  0  0  0  0  0  0  0  0  0
   -6.4468    1.5516    0.7030 C   0  0  0  0  0  0  0  0  0  0  0  0
   -5.4978    1.2359   -0.2781 C   0  0  0  0  0  0  0  0  0  0  0  0
   -4.1340    1.4234   -0.0043 C   0  0  0  0  0  0  0  0  0  0  0  0
   -6.0786   -1.0876   -2.7764 H   0  0  0  0  0  0  0  0  0  0  0  0
   -4.3781   -2.4173   -2.0076 H   0  0  0  0  0  0  0  0  0  0  0  0
   -3.5328   -0.9482   -1.4603 H   0  0  0  0  0  0  0  0  0  0  0  0
   -5.7798   -2.3598    0.1264 H   0  0  0  0  0  0  0  0  0  0  0  0
   -4.7116   -1.0322    0.6955 H   0  0  0  0  0  0  0  0  0  0  0  0
   -3.7747   -4.1111    2.0979 H   0  0  0  0  0  0  0  0  0  0  0  0
   -4.7259   -2.6332    2.3637 H   0  0  0  0  0  0  0  0  0  0  0  0
   -1.6550   -2.9584    2.3027 H   0  0  0  0  0  0  0  0  0  0  0  0
   -2.7084   -2.3619    3.5915 H   0  0  0  0  0  0  0  0  0  0  0  0
   -0.9907   -2.4881    0.2574 H   0  0  0  0  0  0  0  0  0  0  0  0
    0.6065   -1.6165   -1.3463 H   0  0  0  0  0  0  0  0  0  0  0  0
    2.7317   -1.3021   -2.2136 H   0  0  0  0  0  0  0  0  0  0  0  0
    2.8995   -0.9798   -0.4369 H   0  0  0  0  0  0  0  0  0  0  0  0
    5.0075   -0.6173   -2.6521 H   0  0  0  0  0  0  0  0  0  0  0  0
    5.0356   -1.7238   -1.2299 H   0  0  0  0  0  0  0  0  0  0  0  0
    6.3747    1.5559    1.4312 H   0  0  0  0  0  0  0  0  0  0  0  0
    8.5533    1.0648    2.4706 H   0  0  0  0  0  0  0  0  0  0  0  0
   10.0473   -0.6557    1.4808 H   0  0  0  0  0  0  0  0  0  0  0  0
    9.3190   -1.8778   -0.5526 H   0  0  0  0  0  0  0  0  0  0  0  0
    5.5932    2.4371   -1.0802 H   0  0  0  0  0  0  0  0  0  0  0  0
    4.4099    1.9540    0.1935 H   0  0  0  0  0  0  0  0  0  0  0  0
    3.1711    2.8260   -1.6951 H   0  0  0  0  0  0  0  0  0  0  0  0
    4.0682    1.7938   -2.8670 H   0  0  0  0  0  0  0  0  0  0  0  0
   -0.3466    2.4085   -0.1652 H   0  0  0  0  0  0  0  0  0  0  0  0
   -1.8988    2.8753    1.5118 H   0  0  0  0  0  0  0  0  0  0  0  0
   -2.1196    1.6115    2.7500 H   0  0  0  0  0  0  0  0  0  0  0  0
   -4.3782    2.3635    3.2665 H   0  0  0  0  0  0  0  0  0  0  0  0
   -6.7724    2.2225    2.7201 H   0  0  0  0  0  0  0  0  0  0  0  0
   -7.5038    1.4343    0.4999 H   0  0  0  0  0  0  0  0  0  0  0  0
   -3.4079    1.2443   -0.7847 H   0  0  0  0  0  0  0  0  0  0  0  0
  1  2  2  0
  2  3  1  0
  3  4  1  0
  4  5  1  0
  5  6  1  0
  6  7  1  0
  7  8  1  0
  8  9  1  0
  9 10  1  0
 10 11  2  0
 11 12  1  0
 12 13  2  0
 13 14  1  0
 14 15  2  0
 14 16  1  0
 16 17  1  0
 17 18  1  0
 18 19  1  0
 19 20  1  0
 20 21  2  0
 21 22  1  0
 22 23  2  0
 23 24  1  0
 24 25  2  0
 19 26  1  0
 26 27  1  0
 13 28  1  0
 28 29  2  0
 29 30  1  0
 30 31  1  0
 31 32  1  0
 32 33  2  0
 33 34  1  0
 34 35  2  0
 35 36  1  0
 35  2  1  0
 29 10  1  0
 36 31  2  0
 27 16  1  0
 25 20  1  0
  3 37  1  0
  4 38  1  0
  4 39  1  0
  5 40  1  0
  5 41  1  0
  7 42  1  0
  7 43  1  0
  8 44  1  0
  8 45  1  0
 11 46  1  0
 12 47  1  0
 17 48  1  0
 17 49  1  0
 18 50  1  0
 18 51  1  0
 21 52  1  0
 22 53  1  0
 23 54  1  0
 24 55  1  0
 26 56  1  0
 26 57  1  0
 27 58  1  0
 27 59  1  0
 28 60  1  0
 30 61  1  0
 30 62  1  0
 32 63  1  0
 33 64  1  0
 34 65  1  0
 36 66  1  0
M  END
$$$$
