
     RDKit          3D

 71 75  0  0  0  0  0  0  0  0999 V2000
    6.0727   -0.1269    4.5344 C   0  0  0  0  0  0  0  0  0  0  0  0
    6.0550    0.3457    3.1525 N   0  0  0  0  0  0  0  0  0  0  0  0
    6.8745    1.2628    2.5803 C   0  0  0  0  0  0  0  0  0  0  0  0
    7.7572    1.8996    3.2168 O   0  0  0  0  0  0  0  0  0  0  0  0
    6.6595    1.4091    1.2489 N   0  0  0  0  0  0  0  0  0  0  0  0
    7.4059    2.2414    0.3090 C   0  0  0  0  0  0  0  0  0  0  0  0
    5.6901    0.5138    0.9710 C   0  0  0  0  0  0  0  0  0  0  0  0
    5.1195    0.1986   -0.2625 C   0  0  0  0  0  0  0  0  0  0  0  0
    4.1257   -0.8060   -0.2957 C   0  0  0  0  0  0  0  0  0  0  0  0
    3.4657   -1.1724   -1.6023 C   0  0  0  0  0  0  0  0  0  0  0  0
    2.5611   -0.0536   -2.1484 C   0  0  0  0  0  0  0  0  0  0  0  0
    1.2810    0.1176   -1.3597 C   0  0  0  0  0  0  0  0  0  0  0  0
    1.3330    0.0792   -0.1000 O   0  0  0  0  0  0  0  0  0  0  0  0
    0.0135    0.3813   -2.0072 N   0  0  0  0  0  0  0  0  0  0  0  0
   -0.0365    0.7880   -3.4241 C   0  0  0  0  0  0  0  0  0  0  0  0
   -1.3325    1.5402   -3.7548 C   0  0  0  0  0  0  0  0  0  0  0  0
   -2.6069    0.7829   -3.3279 C   0  0  0  0  0  0  0  0  0  0  0  0
   -2.3485   -0.3092   -2.2638 C   0  0  0  0  0  0  0  0  0  0  0  0
   -3.5745   -0.7027   -1.5592 N   0  0  0  0  0  0  0  0  0  0  0  0
   -4.8603   -0.7745   -2.1862 C   0  0  0  0  0  0  0  0  0  0  0  0
   -4.9844   -1.3468   -3.3018 O   0  0  0  0  0  0  0  0  0  0  0  0
   -6.0581   -0.1422   -1.5342 C   0  0  0  0  0  0  0  0  0  0  0  0
   -6.5480   -0.9027   -0.4286 O   0  0  0  0  0  0  0  0  0  0  0  0
   -5.7951   -1.3557    0.6660 C   0  0  0  0  0  0  0  0  0  0  0  0
   -5.8096   -2.7359    0.9083 C   0  0  0  0  0  0  0  0  0  0  0  0
   -5.1087   -3.2829    1.9828 C   0  0  0  0  0  0  0  0  0  0  0  0
   -4.3908   -2.4538    2.8404 C   0  0  0  0  0  0  0  0  0  0  0  0
   -4.3778   -1.0754    2.6306 C   0  0  0  0  0  0  0  0  0  0  0  0
   -5.0738   -0.5005    1.5480 C   0  0  0  0  0  0  0  0  0  0  0  0
   -5.0301    1.0065    1.4011 C   0  0  0  0  0  0  0  0  0  0  0  0
   -3.9151    1.4651    0.4927 C   0  0  0  0  0  0  0  0  0  0  0  0
   -2.6435    1.0560    0.6357 C   0  0  0  0  0  0  0  0  0  0  0  0
   -1.5984    1.3678   -0.4018 C   0  0  0  0  0  0  0  0  0  0  0  0
   -1.2384    0.1264   -1.2651 C   0  0  0  0  0  0  0  0  0  0  0  0
    3.7576   -1.4731    0.9025 C   0  0  0  0  0  0  0  0  0  0  0  0
    4.3622   -1.1391    2.1274 C   0  0  0  0  0  0  0  0  0  0  0  0
    5.3245   -0.1305    2.1235 C   0  0  0  0  0  0  0  0  0  0  0  0
    6.6736   -1.0572    4.6019 H   0  0  0  0  0  0  0  0  0  0  0  0
    6.5165    0.6420    5.2009 H   0  0  0  0  0  0  0  0  0  0  0  0
    5.0380   -0.3299    4.8813 H   0  0  0  0  0  0  0  0  0  0  0  0
    8.1590    1.6211   -0.2203 H   0  0  0  0  0  0  0  0  0  0  0  0
    6.7133    2.6918   -0.4322 H   0  0  0  0  0  0  0  0  0  0  0  0
    7.9236    3.0644    0.8455 H   0  0  0  0  0  0  0  0  0  0  0  0
    5.4320    0.7061   -1.1658 H   0  0  0  0  0  0  0  0  0  0  0  0
    2.8748   -2.1100   -1.5022 H   0  0  0  0  0  0  0  0  0  0  0  0
    4.2642   -1.3783   -2.3488 H   0  0  0  0  0  0  0  0  0  0  0  0
    2.3248   -0.3242   -3.1975 H   0  0  0  0  0  0  0  0  0  0  0  0
    3.1075    0.9131   -2.1696 H   0  0  0  0  0  0  0  0  0  0  0  0
    0.0452   -0.1132   -4.0692 H   0  0  0  0  0  0  0  0  0  0  0  0
    0.8128    1.4672   -3.6545 H   0  0  0  0  0  0  0  0  0  0  0  0
   -1.3690    1.7398   -4.8477 H   0  0  0  0  0  0  0  0  0  0  0  0
   -1.3031    2.5301   -3.2516 H   0  0  0  0  0  0  0  0  0  0  0  0
   -3.0562    0.3045   -4.2252 H   0  0  0  0  0  0  0  0  0  0  0  0
   -3.3466    1.5191   -2.9436 H   0  0  0  0  0  0  0  0  0  0  0  0
   -1.9722   -1.2117   -2.7964 H   0  0  0  0  0  0  0  0  0  0  0  0
   -3.4682   -1.2028   -0.6491 H   0  0  0  0  0  0  0  0  0  0  0  0
   -5.8369    0.8947   -1.2383 H   0  0  0  0  0  0  0  0  0  0  0  0
   -6.8750   -0.0687   -2.2830 H   0  0  0  0  0  0  0  0  0  0  0  0
   -6.3652   -3.3923    0.2503 H   0  0  0  0  0  0  0  0  0  0  0  0
   -5.1244   -4.3523    2.1520 H   0  0  0  0  0  0  0  0  0  0  0  0
   -3.8503   -2.8788    3.6766 H   0  0  0  0  0  0  0  0  0  0  0  0
   -3.8226   -0.4508    3.3203 H   0  0  0  0  0  0  0  0  0  0  0  0
   -6.0045    1.3784    1.0218 H   0  0  0  0  0  0  0  0  0  0  0  0
   -4.8886    1.4839    2.3950 H   0  0  0  0  0  0  0  0  0  0  0  0
   -4.1668    2.1263   -0.3309 H   0  0  0  0  0  0  0  0  0  0  0  0
   -2.3679    0.3969    1.4515 H   0  0  0  0  0  0  0  0  0  0  0  0
   -1.9188    2.2176   -1.0374 H   0  0  0  0  0  0  0  0  0  0  0  0
   -0.6943    1.7130    0.1408 H   0  0  0  0  0  0  0  0  0  0  0  0
   -1.0701   -0.7365   -0.5803 H   0  0  0  0  0  0  0  0  0  0  0  0
    3.0023   -2.2487    0.8852 H   0  0  0  0  0  0  0  0  0  0  0  0
    4.0855   -1.6528    3.0377 H   0  0  0  0  0  0  0  0  0  0  0  0
  1  2  1  0
  2  3  1  0
  3  4  2  0
  3  5  1  0
  5  6  1  0
  5  7  1  0
  7  8  2  0
  8  9  1  0
  9 10  1  0
 10 11  1  0
 11 12  1  0
 12 13  2  0
 12 14  1  0
 14 15  1  0
 15 16  1  0
 16 17  1  0
 17 18  1  0
 18 19  1  0
 19 20  1  0
 20 21  2  0
 20 22  1  0
 22 23  1  0
 23 24  1  0
 24 25  2  0
 25 26  1  0
 26 27  2  0
 27 28  1  0
 28 29  2  0
 29 30  1  0
 30 31  1  0
 31 32  2  0
 32 33  1  0
 33 34  1  0
  9 35  2  0
 35 36  1  0
 36 37  2  0
 37  2  1  0
 37  7  1  0
 34 14  1  0
 34 18  1  0
 29 24  1  0
  1 38  1  0
  1 39  1  0
  1 40  1  0
  6 41  1  0
  6 42  1  0
  6 43  1  0
  8 44  1  0
 10 45  1  0
 10 46  1  0
 11 47  1  0
 11 48  1  0
 15 49  1  0
 15 50  1  0
 16 51  1  0
 16 52  1  0
 17 53  1  0
 17 54  1  0
 18 55  1  0
 19 56  1  0
 22 57  1  0
 22 58  1  0
 25 59  1  0
 26 60  1  0
 27 61  1  0
 28 62  1  0
 30 63  1  0
 30 64  1  0
 31 65  1  0
 32 66  1  0
 33 67  1  0
 33 68  1  0
 34 69  1  0
 35 70  1  0
 36 71  1  0
M  END
$$$$
