
     RDKit          3D

 64 67  0  0  0  0  0  0  0  0999 V2000
   -1.1396    1.5246   -2.7603 C   0  0  0  0  0  0  0  0  0  0  0  0
   -0.8954    0.2268   -2.1249 N   0  0  0  0  0  0  0  0  0  0  0  0
   -1.6684   -0.9375   -2.5949 C   0  0  0  0  0  0  0  0  0  0  0  0
   -2.9421   -1.1728   -1.7696 C   0  0  0  0  0  0  0  0  0  0  0  0
   -3.3895    0.0453   -1.1716 O   0  0  0  0  0  0  0  0  0  0  0  0
   -4.3275    0.1046   -0.1289 C   0  0  0  0  0  0  0  0  0  0  0  0
   -5.3518   -0.8525   -0.0206 C   0  0  0  0  0  0  0  0  0  0  0  0
   -6.2841   -0.7798    1.0190 C   0  0  0  0  0  0  0  0  0  0  0  0
   -6.2020    0.2450    1.9639 C   0  0  0  0  0  0  0  0  0  0  0  0
   -5.1870    1.1982    1.8709 C   0  0  0  0  0  0  0  0  0  0  0  0
   -4.2379    1.1365    0.8323 C   0  0  0  0  0  0  0  0  0  0  0  0
   -3.1056    2.1439    0.8121 C   0  0  0  0  0  0  0  0  0  0  0  0
   -2.0289    1.8575    1.8892 C   0  0  0  0  0  0  0  0  0  0  0  0
   -0.7107    1.3054    1.3121 C   0  0  0  0  0  0  0  0  0  0  0  0
   -0.8079   -0.1961    0.9813 C   0  0  0  0  0  0  0  0  0  0  0  0
    0.2837   -0.7277    0.0080 C   0  0  0  0  0  0  0  0  0  0  0  0
    1.6854   -0.6331    0.7196 C   0  0  0  0  0  0  0  0  0  0  0  0
    2.5689   -1.7142    0.2650 N   0  0  0  0  0  0  0  0  0  0  0  0
    3.9828   -1.4995    0.1108 C   0  0  0  0  0  0  0  0  0  0  0  0
    4.7997   -2.3865    0.4784 O   0  0  0  0  0  0  0  0  0  0  0  0
    4.4942   -0.2701   -0.5229 C   0  0  0  0  0  0  0  0  0  0  0  0
    4.1771   -0.0434   -1.8731 C   0  0  0  0  0  0  0  0  0  0  0  0
    4.6490    1.0909   -2.5305 C   0  0  0  0  0  0  0  0  0  0  0  0
    5.4457    2.0100   -1.8517 C   0  0  0  0  0  0  0  0  0  0  0  0
    5.7678    1.8042   -0.5068 C   0  0  0  0  0  0  0  0  0  0  0  0
    5.2831    0.6745    0.1845 C   0  0  0  0  0  0  0  0  0  0  0  0
    5.6435    0.4742    1.6473 C   0  0  0  0  0  0  0  0  0  0  0  0
    4.5278    0.0843    2.3690 F   0  0  0  0  0  0  0  0  0  0  0  0
    6.6243   -0.4999    1.7504 F   0  0  0  0  0  0  0  0  0  0  0  0
    6.1209    1.6406    2.2166 F   0  0  0  0  0  0  0  0  0  0  0  0
    2.0372   -3.0797    0.2522 C   0  0  0  0  0  0  0  0  0  0  0  0
    0.5240   -3.0547    0.4646 C   0  0  0  0  0  0  0  0  0  0  0  0
   -0.0591   -2.0663   -0.3623 O   0  0  0  0  0  0  0  0  0  0  0  0
    0.2785    0.1001   -1.2870 C   0  0  0  0  0  0  0  0  0  0  0  0
    1.2981    0.7868   -1.5879 O   0  0  0  0  0  0  0  0  0  0  0  0
   -0.3460    1.7238   -3.5108 H   0  0  0  0  0  0  0  0  0  0  0  0
   -2.1291    1.5422   -3.2769 H   0  0  0  0  0  0  0  0  0  0  0  0
   -1.1228    2.3319   -2.0012 H   0  0  0  0  0  0  0  0  0  0  0  0
   -1.0364   -1.8486   -2.6059 H   0  0  0  0  0  0  0  0  0  0  0  0
   -1.9606   -0.7827   -3.6572 H   0  0  0  0  0  0  0  0  0  0  0  0
   -2.7307   -1.9278   -0.9824 H   0  0  0  0  0  0  0  0  0  0  0  0
   -3.7399   -1.5722   -2.4287 H   0  0  0  0  0  0  0  0  0  0  0  0
   -5.4430   -1.6472   -0.7489 H   0  0  0  0  0  0  0  0  0  0  0  0
   -7.0638   -1.5250    1.0943 H   0  0  0  0  0  0  0  0  0  0  0  0
   -6.9276    0.3013    2.7682 H   0  0  0  0  0  0  0  0  0  0  0  0
   -5.1269    1.9799    2.6213 H   0  0  0  0  0  0  0  0  0  0  0  0
   -2.6469    2.2056   -0.1972 H   0  0  0  0  0  0  0  0  0  0  0  0
   -3.5363    3.1549    0.9911 H   0  0  0  0  0  0  0  0  0  0  0  0
   -1.7921    2.8166    2.3981 H   0  0  0  0  0  0  0  0  0  0  0  0
   -2.4146    1.1702    2.6768 H   0  0  0  0  0  0  0  0  0  0  0  0
    0.0899    1.4402    2.0754 H   0  0  0  0  0  0  0  0  0  0  0  0
   -0.4201    1.9094    0.4262 H   0  0  0  0  0  0  0  0  0  0  0  0
   -1.7970   -0.4279    0.5699 H   0  0  0  0  0  0  0  0  0  0  0  0
   -0.7687   -0.7636    1.9355 H   0  0  0  0  0  0  0  0  0  0  0  0
    1.5667   -0.7516    1.8200 H   0  0  0  0  0  0  0  0  0  0  0  0
    2.1523    0.3686    0.5924 H   0  0  0  0  0  0  0  0  0  0  0  0
    3.5694   -0.7530   -2.4229 H   0  0  0  0  0  0  0  0  0  0  0  0
    4.4014    1.2544   -3.5722 H   0  0  0  0  0  0  0  0  0  0  0  0
    5.8151    2.8870   -2.3682 H   0  0  0  0  0  0  0  0  0  0  0  0
    6.3962    2.5357   -0.0107 H   0  0  0  0  0  0  0  0  0  0  0  0
    2.5168   -3.6881    1.0538 H   0  0  0  0  0  0  0  0  0  0  0  0
    2.2594   -3.5461   -0.7337 H   0  0  0  0  0  0  0  0  0  0  0  0
    0.1043   -4.0465    0.1916 H   0  0  0  0  0  0  0  0  0  0  0  0
    0.2772   -2.8810    1.5344 H   0  0  0  0  0  0  0  0  0  0  0  0
  1  2  1  0
  2  3  1  0
  3  4  1  0
  4  5  1  0
  5  6  1  0
  6  7  2  0
  7  8  1  0
  8  9  2  0
  9 10  1  0
 10 11  2  0
 11 12  1  0
 12 13  1  0
 13 14  1  0
 14 15  1  0
 15 16  1  0
 16 17  1  0
 17 18  1  0
 18 19  1  0
 19 20  2  0
 19 21  1  0
 21 22  2  0
 22 23  1  0
 23 24  2  0
 24 25  1  0
 25 26  2  0
 26 27  1  0
 27 28  1  0
 27 29  1  0
 27 30  1  0
 18 31  1  0
 31 32  1  0
 32 33  1  0
 16 34  1  0
 34 35  2  0
 34  2  1  0
 11  6  1  0
 33 16  1  0
 26 21  1  0
  1 36  1  0
  1 37  1  0
  1 38  1  0
  3 39  1  0
  3 40  1  0
  4 41  1  0
  4 42  1  0
  7 43  1  0
  8 44  1  0
  9 45  1  0
 10 46  1  0
 12 47  1  0
 12 48  1  0
 13 49  1  0
 13 50  1  0
 14 51  1  0
 14 52  1  0
 15 53  1  0
 15 54  1  0
 17 55  1  0
 17 56  1  0
 22 57  1  0
 23 58  1  0
 24 59  1  0
 25 60  1  0
 31 61  1  0
 31 62  1  0
 32 63  1  0
 32 64  1  0
M  END
$$$$
