
     RDKit          3D

 63 65  0  0  0  0  0  0  0  0999 V2000
   -4.9760    4.1002   -0.5794 C   0  0  0  0  0  0  0  0  0  0  0  0
   -5.1379    2.7774    0.1598 C   0  0  0  0  0  0  0  0  0  0  0  0
   -4.2879    1.7766   -0.3994 O   0  0  0  0  0  0  0  0  0  0  0  0
   -2.8990    1.6727   -0.2048 C   0  0  0  0  0  0  0  0  0  0  0  0
   -2.1990    2.5209    0.6716 C   0  0  0  0  0  0  0  0  0  0  0  0
   -0.8173    2.4067    0.8078 C   0  0  0  0  0  0  0  0  0  0  0  0
   -0.1151    1.4618    0.0642 C   0  0  0  0  0  0  0  0  0  0  0  0
   -0.7900    0.5795   -0.7972 C   0  0  0  0  0  0  0  0  0  0  0  0
   -2.2016    0.6773   -0.9135 C   0  0  0  0  0  0  0  0  0  0  0  0
   -2.9368   -0.1751   -1.7513 O   0  0  0  0  0  0  0  0  0  0  0  0
   -3.2194   -1.5405   -1.4290 C   0  0  0  0  0  0  0  0  0  0  0  0
   -4.2049   -1.6682   -0.2456 C   0  0  0  0  0  0  0  0  0  0  0  0
   -3.7380   -2.7122    0.7815 C   0  0  0  0  0  0  0  0  0  0  0  0
   -2.5140   -2.2181    1.5873 C   0  0  0  0  0  0  0  0  0  0  0  0
   -1.4629   -3.3148    1.8151 C   0  0  0  0  0  0  0  0  0  0  0  0
   -0.9198   -3.8136    0.5485 N   0  0  0  0  0  0  0  0  0  0  0  0
    0.0784   -3.1481   -0.2467 C   0  0  0  0  0  0  0  0  0  0  0  0
    0.4480   -3.6870   -1.3255 O   0  0  0  0  0  0  0  0  0  0  0  0
    0.7716   -1.8876    0.2060 C   0  0  0  0  0  0  0  0  0  0  0  0
    1.1008   -1.0161   -0.9351 N   0  0  0  0  0  0  0  0  0  0  0  0
    2.4519   -1.0100   -1.4386 C   0  0  0  0  0  0  0  0  0  0  0  0
    3.1215   -2.0792   -1.4405 O   0  0  0  0  0  0  0  0  0  0  0  0
    3.0809    0.2522   -1.9723 C   0  0  0  0  0  0  0  0  0  0  0  0
    4.4846    0.4942   -1.3941 C   0  0  0  0  0  0  0  0  0  0  0  0
    4.4513    0.7503    0.1198 C   0  0  0  0  0  0  0  0  0  0  0  0
    5.8053    0.9811    0.6169 N   0  0  0  0  0  0  0  0  0  0  0  0
    6.4251    2.1738    0.7122 C   0  0  0  0  0  0  0  0  0  0  0  0
    7.7071    1.9637    1.1806 C   0  0  0  0  0  0  0  0  0  0  0  0
    7.7997    0.5943    1.3402 C   0  0  0  0  0  0  0  0  0  0  0  0
    6.6313    0.0153    0.9853 N   0  0  0  0  0  0  0  0  0  0  0  0
    0.0287   -0.3339   -1.6845 C   0  0  0  0  0  0  0  0  0  0  0  0
   -5.6357    4.8688   -0.1225 H   0  0  0  0  0  0  0  0  0  0  0  0
   -3.9245    4.4568   -0.5241 H   0  0  0  0  0  0  0  0  0  0  0  0
   -5.2559    3.9701   -1.6466 H   0  0  0  0  0  0  0  0  0  0  0  0
   -6.1879    2.4380    0.0450 H   0  0  0  0  0  0  0  0  0  0  0  0
   -4.9479    2.9035    1.2473 H   0  0  0  0  0  0  0  0  0  0  0  0
   -2.7104    3.2762    1.2493 H   0  0  0  0  0  0  0  0  0  0  0  0
   -0.2836    3.0680    1.4780 H   0  0  0  0  0  0  0  0  0  0  0  0
    0.9628    1.4272    0.1559 H   0  0  0  0  0  0  0  0  0  0  0  0
   -2.2782   -2.0809   -1.2170 H   0  0  0  0  0  0  0  0  0  0  0  0
   -3.6639   -2.0257   -2.3250 H   0  0  0  0  0  0  0  0  0  0  0  0
   -4.3469   -0.6977    0.2724 H   0  0  0  0  0  0  0  0  0  0  0  0
   -5.2011   -1.9733   -0.6367 H   0  0  0  0  0  0  0  0  0  0  0  0
   -3.5300   -3.6684    0.2509 H   0  0  0  0  0  0  0  0  0  0  0  0
   -4.5720   -2.9182    1.4897 H   0  0  0  0  0  0  0  0  0  0  0  0
   -2.8624   -1.8508    2.5767 H   0  0  0  0  0  0  0  0  0  0  0  0
   -2.0371   -1.3500    1.0944 H   0  0  0  0  0  0  0  0  0  0  0  0
   -0.6400   -2.9352    2.4583 H   0  0  0  0  0  0  0  0  0  0  0  0
   -1.9427   -4.1547    2.3630 H   0  0  0  0  0  0  0  0  0  0  0  0
   -1.2452   -4.7540    0.2259 H   0  0  0  0  0  0  0  0  0  0  0  0
    0.1662   -1.3175    0.9320 H   0  0  0  0  0  0  0  0  0  0  0  0
    1.6965   -2.1757    0.7493 H   0  0  0  0  0  0  0  0  0  0  0  0
    3.1520    0.1695   -3.0791 H   0  0  0  0  0  0  0  0  0  0  0  0
    2.4469    1.1345   -1.7378 H   0  0  0  0  0  0  0  0  0  0  0  0
    4.9255    1.3835   -1.8961 H   0  0  0  0  0  0  0  0  0  0  0  0
    5.1416   -0.3765   -1.6187 H   0  0  0  0  0  0  0  0  0  0  0  0
    4.0141   -0.1264    0.6471 H   0  0  0  0  0  0  0  0  0  0  0  0
    3.8153    1.6357    0.3414 H   0  0  0  0  0  0  0  0  0  0  0  0
    5.9800    3.1278    0.4613 H   0  0  0  0  0  0  0  0  0  0  0  0
    8.4722    2.7084    1.3775 H   0  0  0  0  0  0  0  0  0  0  0  0
    8.6681    0.0519    1.6917 H   0  0  0  0  0  0  0  0  0  0  0  0
   -0.5911   -1.0949   -2.1947 H   0  0  0  0  0  0  0  0  0  0  0  0
    0.4486    0.2864   -2.5056 H   0  0  0  0  0  0  0  0  0  0  0  0
  1  2  1  0
  2  3  1  0
  3  4  1  0
  4  5  2  0
  5  6  1  0
  6  7  2  0
  7  8  1  0
  8  9  2  0
  9 10  1  0
 10 11  1  0
 11 12  1  0
 12 13  1  0
 13 14  1  0
 14 15  1  0
 15 16  1  0
 16 17  1  0
 17 18  2  0
 17 19  1  0
 19 20  1  0
 20 21  1  0
 21 22  2  0
 21 23  1  0
 23 24  1  0
 24 25  1  0
 25 26  1  0
 26 27  1  0
 27 28  2  0
 28 29  1  0
 29 30  2  0
 20 31  1  0
  9  4  1  0
 30 26  1  0
 31  8  1  0
  1 32  1  0
  1 33  1  0
  1 34  1  0
  2 35  1  0
  2 36  1  0
  5 37  1  0
  6 38  1  0
  7 39  1  0
 11 40  1  0
 11 41  1  0
 12 42  1  0
 12 43  1  0
 13 44  1  0
 13 45  1  0
 14 46  1  0
 14 47  1  0
 15 48  1  0
 15 49  1  0
 16 50  1  0
 19 51  1  0
 19 52  1  0
 23 53  1  0
 23 54  1  0
 24 55  1  0
 24 56  1  0
 25 57  1  0
 25 58  1  0
 27 59  1  0
 28 60  1  0
 29 61  1  0
 31 62  1  0
 31 63  1  0
M  END
$$$$
