
     RDKit          3D

 64 67  0  0  0  0  0  0  0  0999 V2000
    2.7413   -0.9492   -1.7927 O   0  0  0  0  0  0  0  0  0  0  0  0
    3.1169   -0.5572   -0.6554 C   0  0  0  0  0  0  0  0  0  0  0  0
    4.5031   -0.0667   -0.4820 C   0  0  0  0  0  0  0  0  0  0  0  0
    5.1854    0.5287   -1.5574 C   0  0  0  0  0  0  0  0  0  0  0  0
    6.4934    0.9984   -1.3932 C   0  0  0  0  0  0  0  0  0  0  0  0
    7.1385    1.5797   -2.4342 F   0  0  0  0  0  0  0  0  0  0  0  0
    7.1370    0.8613   -0.1612 C   0  0  0  0  0  0  0  0  0  0  0  0
    6.4698    0.2643    0.9126 C   0  0  0  0  0  0  0  0  0  0  0  0
    7.0960    0.1266    2.1067 F   0  0  0  0  0  0  0  0  0  0  0  0
    5.1582   -0.1967    0.7556 C   0  0  0  0  0  0  0  0  0  0  0  0
    2.1955   -0.6002    0.4521 N   0  0  0  0  0  0  0  0  0  0  0  0
    1.4608   -1.8414    0.7484 C   0  0  0  0  0  0  0  0  0  0  0  0
    0.4369   -2.1672   -0.3568 C   0  0  0  0  0  0  0  0  0  0  0  0
   -0.7620   -2.9938    0.1446 C   0  0  0  0  0  0  0  0  0  0  0  0
   -1.7080   -2.1871    1.0726 C   0  0  0  0  0  0  0  0  0  0  0  0
   -3.1712   -1.9582    0.5609 C   0  0  0  0  0  0  0  0  0  0  0  0
   -3.9137   -3.3172    0.4238 C   0  0  0  0  0  0  0  0  0  0  0  0
   -3.8981   -4.0226    1.6372 O   0  0  0  0  0  0  0  0  0  0  0  0
   -3.9520   -1.0745    1.5597 C   0  0  0  0  0  0  0  0  0  0  0  0
   -3.3459    0.3251    1.7446 C   0  0  0  0  0  0  0  0  0  0  0  0
   -2.7424    0.9022    0.5272 N   0  0  0  0  0  0  0  0  0  0  0  0
   -2.6556    0.2023   -0.7708 C   0  0  0  0  0  0  0  0  0  0  0  0
   -3.2317   -1.2221   -0.7954 C   0  0  0  0  0  0  0  0  0  0  0  0
   -2.1343    2.2117    0.6429 C   0  0  0  0  0  0  0  0  0  0  0  0
   -2.1766    2.8349    1.7380 O   0  0  0  0  0  0  0  0  0  0  0  0
   -1.5123    2.8839   -0.5149 C   0  0  0  0  0  0  0  0  0  0  0  0
   -2.2884    3.8423   -1.1878 C   0  0  0  0  0  0  0  0  0  0  0  0
   -1.8152    4.4543   -2.3484 C   0  0  0  0  0  0  0  0  0  0  0  0
   -0.5627    4.1133   -2.8559 C   0  0  0  0  0  0  0  0  0  0  0  0
    0.2272    3.1724   -2.1934 C   0  0  0  0  0  0  0  0  0  0  0  0
   -0.2151    2.5625   -1.0109 C   0  0  0  0  0  0  0  0  0  0  0  0
    0.6763    1.6593   -0.4034 O   0  0  0  0  0  0  0  0  0  0  0  0
    0.7143    1.3199    0.9794 C   0  0  0  0  0  0  0  0  0  0  0  0
    2.0163    0.5887    1.3035 C   0  0  0  0  0  0  0  0  0  0  0  0
    4.7000    0.6436   -2.5187 H   0  0  0  0  0  0  0  0  0  0  0  0
    8.1513    1.2211   -0.0355 H   0  0  0  0  0  0  0  0  0  0  0  0
    4.6609   -0.6680    1.5946 H   0  0  0  0  0  0  0  0  0  0  0  0
    2.1813   -2.6810    0.8410 H   0  0  0  0  0  0  0  0  0  0  0  0
    0.9597   -1.7537    1.7341 H   0  0  0  0  0  0  0  0  0  0  0  0
    0.0746   -1.2321   -0.8231 H   0  0  0  0  0  0  0  0  0  0  0  0
    0.9496   -2.7487   -1.1539 H   0  0  0  0  0  0  0  0  0  0  0  0
   -1.2998   -3.3857   -0.7413 H   0  0  0  0  0  0  0  0  0  0  0  0
   -0.3785   -3.8842    0.6908 H   0  0  0  0  0  0  0  0  0  0  0  0
   -1.7514   -2.7072    2.0552 H   0  0  0  0  0  0  0  0  0  0  0  0
   -1.2471   -1.2141    1.2986 H   0  0  0  0  0  0  0  0  0  0  0  0
   -4.9714   -3.1411    0.1173 H   0  0  0  0  0  0  0  0  0  0  0  0
   -3.4479   -3.9420   -0.3682 H   0  0  0  0  0  0  0  0  0  0  0  0
   -4.4462   -4.8362    1.4909 H   0  0  0  0  0  0  0  0  0  0  0  0
   -5.0021   -0.9540    1.2086 H   0  0  0  0  0  0  0  0  0  0  0  0
   -4.0037   -1.5694    2.5549 H   0  0  0  0  0  0  0  0  0  0  0  0
   -2.5700    0.2707    2.5400 H   0  0  0  0  0  0  0  0  0  0  0  0
   -4.1424    1.0057    2.1163 H   0  0  0  0  0  0  0  0  0  0  0  0
   -3.1824    0.8053   -1.5422 H   0  0  0  0  0  0  0  0  0  0  0  0
   -1.5956    0.1513   -1.0799 H   0  0  0  0  0  0  0  0  0  0  0  0
   -2.7170   -1.8057   -1.5878 H   0  0  0  0  0  0  0  0  0  0  0  0
   -4.2947   -1.1484   -1.1199 H   0  0  0  0  0  0  0  0  0  0  0  0
   -3.2768    4.1007   -0.8239 H   0  0  0  0  0  0  0  0  0  0  0  0
   -2.4270    5.1851   -2.8620 H   0  0  0  0  0  0  0  0  0  0  0  0
   -0.2014    4.5816   -3.7620 H   0  0  0  0  0  0  0  0  0  0  0  0
    1.2035    2.9259   -2.5930 H   0  0  0  0  0  0  0  0  0  0  0  0
   -0.1345    0.6679    1.2366 H   0  0  0  0  0  0  0  0  0  0  0  0
    0.6597    2.2441    1.5945 H   0  0  0  0  0  0  0  0  0  0  0  0
    2.8550    1.3040    1.1700 H   0  0  0  0  0  0  0  0  0  0  0  0
    2.0130    0.2873    2.3720 H   0  0  0  0  0  0  0  0  0  0  0  0
  1  2  2  0
  2  3  1  0
  3  4  2  0
  4  5  1  0
  5  6  1  0
  5  7  2  0
  7  8  1  0
  8  9  1  0
  8 10  2  0
  2 11  1  0
 11 12  1  0
 12 13  1  0
 13 14  1  0
 14 15  1  0
 15 16  1  0
 16 17  1  0
 17 18  1  0
 16 19  1  0
 19 20  1  0
 20 21  1  0
 21 22  1  0
 22 23  1  0
 21 24  1  0
 24 25  2  0
 24 26  1  0
 26 27  2  0
 27 28  1  0
 28 29  2  0
 29 30  1  0
 30 31  2  0
 31 32  1  0
 32 33  1  0
 33 34  1  0
 10  3  1  0
 34 11  1  0
 23 16  1  0
 31 26  1  0
  4 35  1  0
  7 36  1  0
 10 37  1  0
 12 38  1  0
 12 39  1  0
 13 40  1  0
 13 41  1  0
 14 42  1  0
 14 43  1  0
 15 44  1  0
 15 45  1  0
 17 46  1  0
 17 47  1  0
 18 48  1  0
 19 49  1  0
 19 50  1  0
 20 51  1  0
 20 52  1  0
 22 53  1  0
 22 54  1  0
 23 55  1  0
 23 56  1  0
 27 57  1  0
 28 58  1  0
 29 59  1  0
 30 60  1  0
 33 61  1  0
 33 62  1  0
 34 63  1  0
 34 64  1  0
M  END
$$$$
