
     RDKit          3D

 73 77  0  0  0  0  0  0  0  0999 V2000
   -7.5726    0.2678    1.9001 C   0  0  0  0  0  0  0  0  0  0  0  0
   -6.8267   -0.6048    0.8715 C   0  0  0  0  0  0  0  0  0  0  0  0
   -7.6315   -0.7412   -0.4271 C   0  0  0  0  0  0  0  0  0  0  0  0
   -5.4325   -0.1519    0.6070 N   0  0  0  0  0  0  0  0  0  0  0  0
   -5.3094    1.1991   -0.0045 C   0  0  0  0  0  0  0  0  0  0  0  0
   -4.8581    1.0817   -1.4611 C   0  0  0  0  0  0  0  0  0  0  0  0
   -3.4561    0.9124   -1.5168 O   0  0  0  0  0  0  0  0  0  0  0  0
   -3.0951    0.3098   -2.7422 C   0  0  0  0  0  0  0  0  0  0  0  0
   -1.6088    0.5187   -3.0139 C   0  0  0  0  0  0  0  0  0  0  0  0
   -0.8542    0.2498   -1.8341 O   0  0  0  0  0  0  0  0  0  0  0  0
    0.5437    0.1265   -1.7715 C   0  0  0  0  0  0  0  0  0  0  0  0
    1.3364    0.0698   -2.9340 C   0  0  0  0  0  0  0  0  0  0  0  0
    2.7170   -0.1135   -2.8436 C   0  0  0  0  0  0  0  0  0  0  0  0
    3.3416   -0.2149   -1.5934 C   0  0  0  0  0  0  0  0  0  0  0  0
    4.8061   -0.4107   -1.5024 C   0  0  0  0  0  0  0  0  0  0  0  0
    5.4202   -0.9517   -2.4622 O   0  0  0  0  0  0  0  0  0  0  0  0
    5.5364    0.0029   -0.3341 N   0  0  0  0  0  0  0  0  0  0  0  0
    6.9025   -0.4170   -0.0585 C   0  0  0  0  0  0  0  0  0  0  0  0
    7.7399    0.8091   -0.4495 C   0  0  0  0  0  0  0  0  0  0  0  0
    6.7773    1.9927   -0.3064 C   0  0  0  0  0  0  0  0  0  0  0  0
    5.4645    1.3628    0.1794 C   0  0  0  0  0  0  0  0  0  0  0  0
    5.4133    1.3062    1.7319 C   0  0  0  0  0  0  0  0  0  0  0  0
    5.9084   -0.0472    2.3141 C   0  0  0  0  0  0  0  0  0  0  0  0
    4.8133   -0.9220    2.4136 O   0  0  0  0  0  0  0  0  0  0  0  0
    7.0263   -0.7167    1.4620 C   0  0  0  0  0  0  0  0  0  0  0  0
    2.5583   -0.1376   -0.4325 C   0  0  0  0  0  0  0  0  0  0  0  0
    1.1653    0.0278   -0.5066 C   0  0  0  0  0  0  0  0  0  0  0  0
    0.3786    0.1904    0.7786 C   0  0  0  0  0  0  0  0  0  0  0  0
   -0.8544   -0.6778    0.8407 C   0  0  0  0  0  0  0  0  0  0  0  0
   -0.7826   -2.0475    0.5385 C   0  0  0  0  0  0  0  0  0  0  0  0
   -1.9302   -2.8412    0.5917 C   0  0  0  0  0  0  0  0  0  0  0  0
   -3.1509   -2.2837    0.9766 C   0  0  0  0  0  0  0  0  0  0  0  0
   -3.2308   -0.9270    1.3251 C   0  0  0  0  0  0  0  0  0  0  0  0
   -2.0823   -0.1254    1.2442 C   0  0  0  0  0  0  0  0  0  0  0  0
   -4.5421   -0.3475    1.7751 C   0  0  0  0  0  0  0  0  0  0  0  0
   -8.5138   -0.2385    2.2021 H   0  0  0  0  0  0  0  0  0  0  0  0
   -6.9609    0.4140    2.8134 H   0  0  0  0  0  0  0  0  0  0  0  0
   -7.8427    1.2600    1.4872 H   0  0  0  0  0  0  0  0  0  0  0  0
   -6.7814   -1.6353    1.2923 H   0  0  0  0  0  0  0  0  0  0  0  0
   -8.6123   -1.2180   -0.2157 H   0  0  0  0  0  0  0  0  0  0  0  0
   -7.0819   -1.3865   -1.1454 H   0  0  0  0  0  0  0  0  0  0  0  0
   -7.8197    0.2470   -0.8955 H   0  0  0  0  0  0  0  0  0  0  0  0
   -4.5839    1.8489    0.5353 H   0  0  0  0  0  0  0  0  0  0  0  0
   -6.2710    1.7509    0.0110 H   0  0  0  0  0  0  0  0  0  0  0  0
   -5.1240    2.0225   -1.9930 H   0  0  0  0  0  0  0  0  0  0  0  0
   -5.4128    0.2424   -1.9434 H   0  0  0  0  0  0  0  0  0  0  0  0
   -3.6592    0.7394   -3.6044 H   0  0  0  0  0  0  0  0  0  0  0  0
   -3.2995   -0.7825   -2.6842 H   0  0  0  0  0  0  0  0  0  0  0  0
   -1.4274    1.5677   -3.3328 H   0  0  0  0  0  0  0  0  0  0  0  0
   -1.3150   -0.1714   -3.8331 H   0  0  0  0  0  0  0  0  0  0  0  0
    0.8985    0.1530   -3.9185 H   0  0  0  0  0  0  0  0  0  0  0  0
    3.3001   -0.1655   -3.7553 H   0  0  0  0  0  0  0  0  0  0  0  0
    7.1967   -1.3119   -0.6503 H   0  0  0  0  0  0  0  0  0  0  0  0
    8.6468    0.9436    0.1775 H   0  0  0  0  0  0  0  0  0  0  0  0
    8.0605    0.7149   -1.5100 H   0  0  0  0  0  0  0  0  0  0  0  0
    6.6147    2.4625   -1.3012 H   0  0  0  0  0  0  0  0  0  0  0  0
    7.1780    2.7669    0.3817 H   0  0  0  0  0  0  0  0  0  0  0  0
    4.5888    1.9212   -0.2208 H   0  0  0  0  0  0  0  0  0  0  0  0
    4.3643    1.4747    2.0607 H   0  0  0  0  0  0  0  0  0  0  0  0
    6.0013    2.1355    2.1803 H   0  0  0  0  0  0  0  0  0  0  0  0
    6.3087    0.1500    3.3365 H   0  0  0  0  0  0  0  0  0  0  0  0
    5.0353   -1.5855    3.1174 H   0  0  0  0  0  0  0  0  0  0  0  0
    6.9805   -1.8174    1.6088 H   0  0  0  0  0  0  0  0  0  0  0  0
    8.0200   -0.4055    1.8503 H   0  0  0  0  0  0  0  0  0  0  0  0
    3.0309   -0.2154    0.5369 H   0  0  0  0  0  0  0  0  0  0  0  0
    1.0076   -0.0588    1.6605 H   0  0  0  0  0  0  0  0  0  0  0  0
    0.1053    1.2636    0.8736 H   0  0  0  0  0  0  0  0  0  0  0  0
    0.1587   -2.4962    0.2467 H   0  0  0  0  0  0  0  0  0  0  0  0
   -1.8725   -3.8917    0.3375 H   0  0  0  0  0  0  0  0  0  0  0  0
   -4.0327   -2.9116    1.0181 H   0  0  0  0  0  0  0  0  0  0  0  0
   -2.1441    0.9261    1.4982 H   0  0  0  0  0  0  0  0  0  0  0  0
   -4.3943    0.5975    2.3446 H   0  0  0  0  0  0  0  0  0  0  0  0
   -4.9785   -1.0589    2.5131 H   0  0  0  0  0  0  0  0  0  0  0  0
  1  2  1  0
  2  3  1  0
  2  4  1  0
  4  5  1  0
  5  6  1  0
  6  7  1  0
  7  8  1  0
  8  9  1  0
  9 10  1  0
 10 11  1  0
 11 12  2  0
 12 13  1  0
 13 14  2  0
 14 15  1  0
 15 16  2  0
 15 17  1  0
 17 18  1  0
 18 19  1  0
 19 20  1  0
 20 21  1  0
 21 22  1  0
 22 23  1  0
 23 24  1  0
 23 25  1  0
 14 26  1  0
 26 27  2  0
 27 28  1  0
 28 29  1  0
 29 30  1  0
 30 31  2  0
 31 32  1  0
 32 33  2  0
 33 34  1  0
 33 35  1  0
 35  4  1  0
 27 11  1  0
 34 29  2  0
 21 17  1  0
 25 18  1  0
  1 36  1  0
  1 37  1  0
  1 38  1  0
  2 39  1  0
  3 40  1  0
  3 41  1  0
  3 42  1  0
  5 43  1  0
  5 44  1  0
  6 45  1  0
  6 46  1  0
  8 47  1  0
  8 48  1  0
  9 49  1  0
  9 50  1  0
 12 51  1  0
 13 52  1  0
 18 53  1  0
 19 54  1  0
 19 55  1  0
 20 56  1  0
 20 57  1  0
 21 58  1  0
 22 59  1  0
 22 60  1  0
 23 61  1  0
 24 62  1  0
 25 63  1  0
 25 64  1  0
 26 65  1  0
 28 66  1  0
 28 67  1  0
 30 68  1  0
 31 69  1  0
 32 70  1  0
 34 71  1  0
 35 72  1  0
 35 73  1  0
M  END
$$$$
