
     RDKit          3D

 76 78  0  0  0  0  0  0  0  0999 V2000
    1.4448   -3.7962    0.7900 C   0  0  0  0  0  0  0  0  0  0  0  0
    0.8600   -2.8277   -0.1541 N   0  0  0  0  0  0  0  0  0  0  0  0
   -0.4713   -2.2309    0.0840 C   0  0  0  0  0  0  0  0  0  0  0  0
   -1.1720   -2.7123    1.3746 C   0  0  0  0  0  0  0  0  0  0  0  0
   -2.5634   -2.0864    1.5550 C   0  0  0  0  0  0  0  0  0  0  0  0
   -3.6161   -2.7154    0.6235 C   0  0  0  0  0  0  0  0  0  0  0  0
   -5.0597   -2.2923    0.9618 C   0  0  0  0  0  0  0  0  0  0  0  0
   -5.3019   -0.7697    0.9902 C   0  0  0  0  0  0  0  0  0  0  0  0
   -5.0881   -0.1007   -0.3790 C   0  0  0  0  0  0  0  0  0  0  0  0
   -5.2317    1.4335   -0.3032 C   0  0  0  0  0  0  0  0  0  0  0  0
   -3.8625    2.1308   -0.1899 C   0  0  0  0  0  0  0  0  0  0  0  0
   -3.1339    2.1580   -1.5526 C   0  0  0  0  0  0  0  0  0  0  0  0
   -1.6195    2.0189   -1.4024 C   0  0  0  0  0  0  0  0  0  0  0  0
   -1.0974    3.1450   -0.6981 O   0  0  0  0  0  0  0  0  0  0  0  0
    0.1834    3.1969   -0.1314 C   0  0  0  0  0  0  0  0  0  0  0  0
    0.2998    3.6887    1.1754 C   0  0  0  0  0  0  0  0  0  0  0  0
    1.5509    3.7917    1.7932 C   0  0  0  0  0  0  0  0  0  0  0  0
    2.6982    3.4116    1.1063 C   0  0  0  0  0  0  0  0  0  0  0  0
    2.6024    2.9235   -0.2009 C   0  0  0  0  0  0  0  0  0  0  0  0
    1.3521    2.8009   -0.8269 C   0  0  0  0  0  0  0  0  0  0  0  0
    1.3235    2.3927   -2.2387 C   0  0  0  0  0  0  0  0  0  0  0  0
    1.0292    3.2513   -3.1123 O   0  0  0  0  0  0  0  0  0  0  0  0
    1.6143    1.0468   -2.6492 N   0  0  0  0  0  0  0  0  0  0  0  0
    1.8922   -0.0534   -1.7191 C   0  0  0  0  0  0  0  0  0  0  0  0
    3.3884   -0.2188   -1.5907 C   0  0  0  0  0  0  0  0  0  0  0  0
    4.0605   -0.3723   -2.6485 O   0  0  0  0  0  0  0  0  0  0  0  0
    4.0748   -0.1544   -0.3201 N   0  0  0  0  0  0  0  0  0  0  0  0
    5.5240    0.0797   -0.3142 C   0  0  0  0  0  0  0  0  0  0  0  0
    5.9423    0.7297    1.0051 C   0  0  0  0  0  0  0  0  0  0  0  0
    5.4920   -0.0313    2.1063 O   0  0  0  0  0  0  0  0  0  0  0  0
    4.0778   -0.0375    2.1364 C   0  0  0  0  0  0  0  0  0  0  0  0
    3.5025   -0.7394    0.9013 C   0  0  0  0  0  0  0  0  0  0  0  0
    1.2325   -1.3421   -2.2479 C   0  0  0  0  0  0  0  0  0  0  0  0
    1.5471   -2.5498   -1.3975 C   0  0  0  0  0  0  0  0  0  0  0  0
    2.4855   -3.3043   -1.7771 O   0  0  0  0  0  0  0  0  0  0  0  0
    1.5134   -3.3422    1.8007 H   0  0  0  0  0  0  0  0  0  0  0  0
    0.8261   -4.7163    0.8298 H   0  0  0  0  0  0  0  0  0  0  0  0
    2.4766   -4.0911    0.5055 H   0  0  0  0  0  0  0  0  0  0  0  0
   -0.3654   -1.1274    0.1368 H   0  0  0  0  0  0  0  0  0  0  0  0
   -1.1251   -2.4817   -0.7793 H   0  0  0  0  0  0  0  0  0  0  0  0
   -1.2685   -3.8208    1.3777 H   0  0  0  0  0  0  0  0  0  0  0  0
   -0.5547   -2.4165    2.2497 H   0  0  0  0  0  0  0  0  0  0  0  0
   -2.8841   -2.2432    2.6088 H   0  0  0  0  0  0  0  0  0  0  0  0
   -2.4945   -0.9918    1.3761 H   0  0  0  0  0  0  0  0  0  0  0  0
   -3.5601   -3.8218    0.7052 H   0  0  0  0  0  0  0  0  0  0  0  0
   -3.3951   -2.4656   -0.4341 H   0  0  0  0  0  0  0  0  0  0  0  0
   -5.3282   -2.7129    1.9586 H   0  0  0  0  0  0  0  0  0  0  0  0
   -5.7489   -2.7520    0.2168 H   0  0  0  0  0  0  0  0  0  0  0  0
   -6.3563   -0.6038    1.3000 H   0  0  0  0  0  0  0  0  0  0  0  0
   -4.6559   -0.2949    1.7620 H   0  0  0  0  0  0  0  0  0  0  0  0
   -4.0850   -0.3691   -0.7785 H   0  0  0  0  0  0  0  0  0  0  0  0
   -5.8391   -0.5042   -1.1020 H   0  0  0  0  0  0  0  0  0  0  0  0
   -5.7587    1.8068   -1.2108 H   0  0  0  0  0  0  0  0  0  0  0  0
   -5.8545    1.7268    0.5685 H   0  0  0  0  0  0  0  0  0  0  0  0
   -4.0250    3.1822    0.1436 H   0  0  0  0  0  0  0  0  0  0  0  0
   -3.2484    1.6294    0.5934 H   0  0  0  0  0  0  0  0  0  0  0  0
   -3.4876    1.3359   -2.2123 H   0  0  0  0  0  0  0  0  0  0  0  0
   -3.3591    3.1117   -2.0781 H   0  0  0  0  0  0  0  0  0  0  0  0
   -1.3835    1.0766   -0.8594 H   0  0  0  0  0  0  0  0  0  0  0  0
   -1.1892    1.9672   -2.4229 H   0  0  0  0  0  0  0  0  0  0  0  0
   -0.5828    3.9907    1.7159 H   0  0  0  0  0  0  0  0  0  0  0  0
    1.6265    4.1704    2.8082 H   0  0  0  0  0  0  0  0  0  0  0  0
    3.6704    3.5174    1.5759 H   0  0  0  0  0  0  0  0  0  0  0  0
    3.5081    2.6656   -0.7374 H   0  0  0  0  0  0  0  0  0  0  0  0
    1.7367    0.8724   -3.6732 H   0  0  0  0  0  0  0  0  0  0  0  0
    1.4297    0.1888   -0.7457 H   0  0  0  0  0  0  0  0  0  0  0  0
    6.0524   -0.8872   -0.4398 H   0  0  0  0  0  0  0  0  0  0  0  0
    5.8204    0.7519   -1.1480 H   0  0  0  0  0  0  0  0  0  0  0  0
    7.0504    0.7840    1.0388 H   0  0  0  0  0  0  0  0  0  0  0  0
    5.5672    1.7745    1.0568 H   0  0  0  0  0  0  0  0  0  0  0  0
    3.6791    0.9966    2.2101 H   0  0  0  0  0  0  0  0  0  0  0  0
    3.7469   -0.5799    3.0475 H   0  0  0  0  0  0  0  0  0  0  0  0
    3.7634   -1.8149    0.9397 H   0  0  0  0  0  0  0  0  0  0  0  0
    2.4017   -0.6526    0.9432 H   0  0  0  0  0  0  0  0  0  0  0  0
    0.1350   -1.1867   -2.3087 H   0  0  0  0  0  0  0  0  0  0  0  0
    1.5846   -1.5370   -3.2881 H   0  0  0  0  0  0  0  0  0  0  0  0
  1  2  1  0
  2  3  1  0
  3  4  1  0
  4  5  1  0
  5  6  1  0
  6  7  1  0
  7  8  1  0
  8  9  1  0
  9 10  1  0
 10 11  1  0
 11 12  1  0
 12 13  1  0
 13 14  1  0
 14 15  1  0
 15 16  2  0
 16 17  1  0
 17 18  2  0
 18 19  1  0
 19 20  2  0
 20 21  1  0
 21 22  2  0
 21 23  1  0
 23 24  1  0
 24 25  1  0
 25 26  2  0
 25 27  1  0
 27 28  1  0
 28 29  1  0
 29 30  1  0
 30 31  1  0
 31 32  1  0
 24 33  1  0
 33 34  1  0
 34 35  2  0
 34  2  1  0
 20 15  1  0
 32 27  1  0
  1 36  1  0
  1 37  1  0
  1 38  1  0
  3 39  1  0
  3 40  1  0
  4 41  1  0
  4 42  1  0
  5 43  1  0
  5 44  1  0
  6 45  1  0
  6 46  1  0
  7 47  1  0
  7 48  1  0
  8 49  1  0
  8 50  1  0
  9 51  1  0
  9 52  1  0
 10 53  1  0
 10 54  1  0
 11 55  1  0
 11 56  1  0
 12 57  1  0
 12 58  1  0
 13 59  1  0
 13 60  1  0
 16 61  1  0
 17 62  1  0
 18 63  1  0
 19 64  1  0
 23 65  1  0
 24 66  1  0
 28 67  1  0
 28 68  1  0
 29 69  1  0
 29 70  1  0
 31 71  1  0
 31 72  1  0
 32 73  1  0
 32 74  1  0
 33 75  1  0
 33 76  1  0
M  END
$$$$
