
     RDKit          3D

 81 84  0  0  0  0  0  0  0  0999 V2000
   -8.2883    0.2911    1.5291 C   0  0  0  0  0  0  0  0  0  0  0  0
   -7.2237    0.0127    0.4692 C   0  0  0  0  0  0  0  0  0  0  0  0
   -5.8154    0.2191    1.0365 C   0  0  0  0  0  0  0  0  0  0  0  0
   -4.7455   -0.0580   -0.0271 C   0  0  0  0  0  0  0  0  0  0  0  0
   -3.3971    0.1051    0.5322 N   0  0  0  0  0  0  0  0  0  0  0  0
   -2.7798   -1.0052    1.2697 C   0  0  0  0  0  0  0  0  0  0  0  0
   -1.7523   -1.7288    0.4049 C   0  0  0  0  0  0  0  0  0  0  0  0
   -1.3358   -2.9298    1.0514 O   0  0  0  0  0  0  0  0  0  0  0  0
   -0.0530   -3.4554    0.8824 C   0  0  0  0  0  0  0  0  0  0  0  0
    0.1000   -4.6713    0.2082 C   0  0  0  0  0  0  0  0  0  0  0  0
    1.3723   -5.2200    0.0214 C   0  0  0  0  0  0  0  0  0  0  0  0
    2.4975   -4.5637    0.5223 C   0  0  0  0  0  0  0  0  0  0  0  0
    2.3552   -3.3652    1.2221 C   0  0  0  0  0  0  0  0  0  0  0  0
    1.0838   -2.7906    1.3935 C   0  0  0  0  0  0  0  0  0  0  0  0
    0.9385   -1.5535    2.1877 C   0  0  0  0  0  0  0  0  0  0  0  0
    0.1350   -1.5507    3.1588 O   0  0  0  0  0  0  0  0  0  0  0  0
    1.6864   -0.3590    1.9028 N   0  0  0  0  0  0  0  0  0  0  0  0
    2.3667   -0.0790    0.6277 C   0  0  0  0  0  0  0  0  0  0  0  0
    3.7352    0.5006    0.8795 C   0  0  0  0  0  0  0  0  0  0  0  0
    3.9413    1.2322    1.8882 O   0  0  0  0  0  0  0  0  0  0  0  0
    4.7962    0.2444   -0.0519 N   0  0  0  0  0  0  0  0  0  0  0  0
    6.1911    0.5902    0.2363 C   0  0  0  0  0  0  0  0  0  0  0  0
    7.0469    0.4847   -1.0362 C   0  0  0  0  0  0  0  0  0  0  0  0
    8.5288    0.6521   -0.6969 C   0  0  0  0  0  0  0  0  0  0  0  0
    8.9087   -0.2960    0.4469 C   0  0  0  0  0  0  0  0  0  0  0  0
    8.1154   -0.0469    1.5912 O   0  0  0  0  0  0  0  0  0  0  0  0
    6.7595   -0.3514    1.3171 C   0  0  0  0  0  0  0  0  0  0  0  0
    1.5223    0.8440   -0.2765 C   0  0  0  0  0  0  0  0  0  0  0  0
    0.9176    2.0098    0.4656 C   0  0  0  0  0  0  0  0  0  0  0  0
    1.6772    2.9340    0.8634 O   0  0  0  0  0  0  0  0  0  0  0  0
   -0.4795    2.0650    0.8014 N   0  0  0  0  0  0  0  0  0  0  0  0
   -1.5543    1.7556   -0.1498 C   0  0  0  0  0  0  0  0  0  0  0  0
   -1.7697    2.9508   -1.1002 C   0  0  0  0  0  0  0  0  0  0  0  0
   -2.7574    2.6219   -2.1928 C   0  0  0  0  0  0  0  0  0  0  0  0
   -2.3640    1.8199   -3.2785 C   0  0  0  0  0  0  0  0  0  0  0  0
   -3.2907    1.4629   -4.2617 C   0  0  0  0  0  0  0  0  0  0  0  0
   -4.6154    1.8997   -4.1674 C   0  0  0  0  0  0  0  0  0  0  0  0
   -5.0141    2.7006   -3.0926 C   0  0  0  0  0  0  0  0  0  0  0  0
   -4.0905    3.0613   -2.1075 C   0  0  0  0  0  0  0  0  0  0  0  0
   -2.8197    1.4209    0.6025 C   0  0  0  0  0  0  0  0  0  0  0  0
   -3.3917    2.3145    1.2859 O   0  0  0  0  0  0  0  0  0  0  0  0
   -8.1708   -0.4061    2.3870 H   0  0  0  0  0  0  0  0  0  0  0  0
   -9.2982    0.1492    1.0887 H   0  0  0  0  0  0  0  0  0  0  0  0
   -8.2063    1.3377    1.8928 H   0  0  0  0  0  0  0  0  0  0  0  0
   -7.3863    0.6989   -0.3908 H   0  0  0  0  0  0  0  0  0  0  0  0
   -7.3370   -1.0346    0.1122 H   0  0  0  0  0  0  0  0  0  0  0  0
   -5.7226    1.2674    1.3912 H   0  0  0  0  0  0  0  0  0  0  0  0
   -5.6607   -0.4600    1.9033 H   0  0  0  0  0  0  0  0  0  0  0  0
   -4.8799    0.6338   -0.8873 H   0  0  0  0  0  0  0  0  0  0  0  0
   -4.8645   -1.0925   -0.4209 H   0  0  0  0  0  0  0  0  0  0  0  0
   -3.5563   -1.7354    1.5897 H   0  0  0  0  0  0  0  0  0  0  0  0
   -2.2895   -0.6215    2.1912 H   0  0  0  0  0  0  0  0  0  0  0  0
   -2.1927   -1.9825   -0.5844 H   0  0  0  0  0  0  0  0  0  0  0  0
   -0.8847   -1.0641    0.2433 H   0  0  0  0  0  0  0  0  0  0  0  0
   -0.7687   -5.1862   -0.1842 H   0  0  0  0  0  0  0  0  0  0  0  0
    1.4851   -6.1547   -0.5128 H   0  0  0  0  0  0  0  0  0  0  0  0
    3.4800   -4.9934    0.3802 H   0  0  0  0  0  0  0  0  0  0  0  0
    3.2335   -2.8797    1.6278 H   0  0  0  0  0  0  0  0  0  0  0  0
    1.5821    0.4301    2.5843 H   0  0  0  0  0  0  0  0  0  0  0  0
    2.5195   -1.0202    0.0643 H   0  0  0  0  0  0  0  0  0  0  0  0
    4.5511   -0.1860   -0.9716 H   0  0  0  0  0  0  0  0  0  0  0  0
    6.2413    1.6398    0.6032 H   0  0  0  0  0  0  0  0  0  0  0  0
    6.7418    1.2700   -1.7623 H   0  0  0  0  0  0  0  0  0  0  0  0
    6.8967   -0.5100   -1.5132 H   0  0  0  0  0  0  0  0  0  0  0  0
    8.7289    1.7035   -0.3891 H   0  0  0  0  0  0  0  0  0  0  0  0
    9.1451    0.4267   -1.5941 H   0  0  0  0  0  0  0  0  0  0  0  0
    9.9722   -0.1195    0.7129 H   0  0  0  0  0  0  0  0  0  0  0  0
    8.8242   -1.3584    0.1197 H   0  0  0  0  0  0  0  0  0  0  0  0
    6.6418   -1.4195    1.0176 H   0  0  0  0  0  0  0  0  0  0  0  0
    6.1826   -0.2153    2.2564 H   0  0  0  0  0  0  0  0  0  0  0  0
    2.1496    1.2340   -1.1074 H   0  0  0  0  0  0  0  0  0  0  0  0
    0.7453    0.2269   -0.7585 H   0  0  0  0  0  0  0  0  0  0  0  0
   -0.7283    2.6845    1.6081 H   0  0  0  0  0  0  0  0  0  0  0  0
   -1.2846    0.8840   -0.7718 H   0  0  0  0  0  0  0  0  0  0  0  0
   -0.7990    3.2248   -1.5697 H   0  0  0  0  0  0  0  0  0  0  0  0
   -2.1081    3.8405   -0.5239 H   0  0  0  0  0  0  0  0  0  0  0  0
   -1.3427    1.4646   -3.3550 H   0  0  0  0  0  0  0  0  0  0  0  0
   -2.9847    0.8404   -5.0931 H   0  0  0  0  0  0  0  0  0  0  0  0
   -5.3333    1.6146   -4.9259 H   0  0  0  0  0  0  0  0  0  0  0  0
   -6.0416    3.0343   -3.0166 H   0  0  0  0  0  0  0  0  0  0  0  0
   -4.4179    3.6651   -1.2697 H   0  0  0  0  0  0  0  0  0  0  0  0
  1  2  1  0
  2  3  1  0
  3  4  1  0
  4  5  1  0
  5  6  1  0
  6  7  1  0
  7  8  1  0
  8  9  1  0
  9 10  2  0
 10 11  1  0
 11 12  2  0
 12 13  1  0
 13 14  2  0
 14 15  1  0
 15 16  2  0
 15 17  1  0
 17 18  1  0
 18 19  1  0
 19 20  2  0
 19 21  1  0
 21 22  1  0
 22 23  1  0
 23 24  1  0
 24 25  1  0
 25 26  1  0
 26 27  1  0
 18 28  1  0
 28 29  1  0
 29 30  2  0
 29 31  1  0
 31 32  1  0
 32 33  1  0
 33 34  1  0
 34 35  2  0
 35 36  1  0
 36 37  2  0
 37 38  1  0
 38 39  2  0
 32 40  1  0
 40 41  2  0
 40  5  1  0
 14  9  1  0
 27 22  1  0
 39 34  1  0
  1 42  1  0
  1 43  1  0
  1 44  1  0
  2 45  1  0
  2 46  1  0
  3 47  1  0
  3 48  1  0
  4 49  1  0
  4 50  1  0
  6 51  1  0
  6 52  1  0
  7 53  1  0
  7 54  1  0
 10 55  1  0
 11 56  1  0
 12 57  1  0
 13 58  1  0
 17 59  1  0
 18 60  1  0
 21 61  1  0
 22 62  1  0
 23 63  1  0
 23 64  1  0
 24 65  1  0
 24 66  1  0
 25 67  1  0
 25 68  1  0
 27 69  1  0
 27 70  1  0
 28 71  1  0
 28 72  1  0
 31 73  1  0
 32 74  1  0
 33 75  1  0
 33 76  1  0
 35 77  1  0
 36 78  1  0
 37 79  1  0
 38 80  1  0
 39 81  1  0
M  END
$$$$
