
     RDKit          3D

 69 72  0  0  0  0  0  0  0  0999 V2000
    7.2500   -0.3211   -0.1360 C   0  0  0  0  0  0  0  0  0  0  0  0
    6.6574    1.0730   -0.4091 C   0  0  0  0  0  0  0  0  0  0  0  0
    6.8135    1.9392    0.8583 C   0  0  0  0  0  0  0  0  0  0  0  0
    7.4274    1.7389   -1.5653 C   0  0  0  0  0  0  0  0  0  0  0  0
    5.2002    0.9120   -0.8043 C   0  0  0  0  0  0  0  0  0  0  0  0
    4.0841    1.3438   -0.1019 C   0  0  0  0  0  0  0  0  0  0  0  0
    3.0165    0.8771   -0.8379 C   0  0  0  0  0  0  0  0  0  0  0  0
    1.5847    1.0857   -0.5589 C   0  0  0  0  0  0  0  0  0  0  0  0
    0.8940    1.6767   -1.4312 O   0  0  0  0  0  0  0  0  0  0  0  0
    0.9678    0.6352    0.6714 N   0  0  0  0  0  0  0  0  0  0  0  0
    1.7839    0.0936    1.7717 C   0  0  0  0  0  0  0  0  0  0  0  0
    0.9437   -0.1850    3.0187 C   0  0  0  0  0  0  0  0  0  0  0  0
   -0.2824   -1.0439    2.6913 C   0  0  0  0  0  0  0  0  0  0  0  0
   -1.1009   -0.5636    1.4316 C   0  0  0  0  0  0  0  0  0  0  0  0
   -2.5752   -0.2333    1.8424 C   0  0  0  0  0  0  0  0  0  0  0  0
   -3.4173   -1.4304    2.3343 C   0  0  0  0  0  0  0  0  0  0  0  0
   -4.9200   -1.0771    2.4356 C   0  0  0  0  0  0  0  0  0  0  0  0
   -5.7866   -1.7267    1.3352 C   0  0  0  0  0  0  0  0  0  0  0  0
   -5.9387   -0.8791    0.0674 C   0  0  0  0  0  0  0  0  0  0  0  0
   -4.6863   -0.7175   -0.5962 O   0  0  0  0  0  0  0  0  0  0  0  0
   -4.5172   -0.1757   -1.8825 C   0  0  0  0  0  0  0  0  0  0  0  0
   -5.6182    0.3272   -2.6041 C   0  0  0  0  0  0  0  0  0  0  0  0
   -5.4474    0.8754   -3.8760 C   0  0  0  0  0  0  0  0  0  0  0  0
   -4.1770    0.9568   -4.4374 C   0  0  0  0  0  0  0  0  0  0  0  0
   -3.0759    0.4585   -3.7449 C   0  0  0  0  0  0  0  0  0  0  0  0
   -3.2219   -0.1275   -2.4716 C   0  0  0  0  0  0  0  0  0  0  0  0
   -2.0084   -0.6905   -1.8077 C   0  0  0  0  0  0  0  0  0  0  0  0
   -0.8681   -0.4792   -2.3146 O   0  0  0  0  0  0  0  0  0  0  0  0
   -2.1023   -1.5572   -0.6732 N   0  0  0  0  0  0  0  0  0  0  0  0
   -1.0462   -1.6847    0.3322 C   0  0  0  0  0  0  0  0  0  0  0  0
   -0.4878    0.7569    0.8634 C   0  0  0  0  0  0  0  0  0  0  0  0
    3.4802    0.2378   -1.9265 N   0  0  0  0  0  0  0  0  0  0  0  0
    4.8022    0.2375   -1.9053 N   0  0  0  0  0  0  0  0  0  0  0  0
    7.2200   -0.9471   -1.0534 H   0  0  0  0  0  0  0  0  0  0  0  0
    8.3048   -0.2407    0.2002 H   0  0  0  0  0  0  0  0  0  0  0  0
    6.6704   -0.8371    0.6577 H   0  0  0  0  0  0  0  0  0  0  0  0
    7.8882    2.0380    1.1354 H   0  0  0  0  0  0  0  0  0  0  0  0
    6.2827    1.4779    1.7206 H   0  0  0  0  0  0  0  0  0  0  0  0
    6.4001    2.9596    0.6907 H   0  0  0  0  0  0  0  0  0  0  0  0
    7.3730    1.1225   -2.4887 H   0  0  0  0  0  0  0  0  0  0  0  0
    7.0035    2.7413   -1.7906 H   0  0  0  0  0  0  0  0  0  0  0  0
    8.4998    1.8608   -1.2985 H   0  0  0  0  0  0  0  0  0  0  0  0
    4.0555    1.9329    0.8020 H   0  0  0  0  0  0  0  0  0  0  0  0
    2.2785   -0.8451    1.4378 H   0  0  0  0  0  0  0  0  0  0  0  0
    2.5573    0.8299    2.0664 H   0  0  0  0  0  0  0  0  0  0  0  0
    0.6135    0.7771    3.4658 H   0  0  0  0  0  0  0  0  0  0  0  0
    1.5730   -0.7087    3.7707 H   0  0  0  0  0  0  0  0  0  0  0  0
   -0.9115   -1.0590    3.6051 H   0  0  0  0  0  0  0  0  0  0  0  0
    0.0797   -2.0900    2.5669 H   0  0  0  0  0  0  0  0  0  0  0  0
   -3.0911    0.2500    0.9880 H   0  0  0  0  0  0  0  0  0  0  0  0
   -2.5637    0.5338    2.6494 H   0  0  0  0  0  0  0  0  0  0  0  0
   -3.2748   -2.3235    1.6931 H   0  0  0  0  0  0  0  0  0  0  0  0
   -3.0602   -1.7233    3.3439 H   0  0  0  0  0  0  0  0  0  0  0  0
   -5.2842   -1.4625    3.4135 H   0  0  0  0  0  0  0  0  0  0  0  0
   -5.0845    0.0243    2.4627 H   0  0  0  0  0  0  0  0  0  0  0  0
   -5.4100   -2.7410    1.0781 H   0  0  0  0  0  0  0  0  0  0  0  0
   -6.8068   -1.8747    1.7521 H   0  0  0  0  0  0  0  0  0  0  0  0
   -6.3647    0.1181    0.3208 H   0  0  0  0  0  0  0  0  0  0  0  0
   -6.6465   -1.4075   -0.6091 H   0  0  0  0  0  0  0  0  0  0  0  0
   -6.6142    0.3045   -2.1913 H   0  0  0  0  0  0  0  0  0  0  0  0
   -6.3017    1.2417   -4.4279 H   0  0  0  0  0  0  0  0  0  0  0  0
   -4.0427    1.3961   -5.4200 H   0  0  0  0  0  0  0  0  0  0  0  0
   -2.1039    0.5319   -4.2153 H   0  0  0  0  0  0  0  0  0  0  0  0
   -2.8839   -2.2465   -0.6437 H   0  0  0  0  0  0  0  0  0  0  0  0
   -1.1682   -2.6814    0.8098 H   0  0  0  0  0  0  0  0  0  0  0  0
   -0.0492   -1.7101   -0.1598 H   0  0  0  0  0  0  0  0  0  0  0  0
   -1.0023    1.0442   -0.0760 H   0  0  0  0  0  0  0  0  0  0  0  0
   -0.6711    1.5962    1.5711 H   0  0  0  0  0  0  0  0  0  0  0  0
    2.9070   -0.2158   -2.6720 H   0  0  0  0  0  0  0  0  0  0  0  0
  1  2  1  0
  2  3  1  0
  2  4  1  0
  2  5  1  0
  5  6  1  0
  6  7  2  0
  7  8  1  0
  8  9  2  0
  8 10  1  0
 10 11  1  0
 11 12  1  0
 12 13  1  0
 13 14  1  0
 14 15  1  0
 15 16  1  0
 16 17  1  0
 17 18  1  0
 18 19  1  0
 19 20  1  0
 20 21  1  0
 21 22  2  0
 22 23  1  0
 23 24  2  0
 24 25  1  0
 25 26  2  0
 26 27  1  0
 27 28  2  0
 27 29  1  0
 29 30  1  0
 14 31  1  0
  7 32  1  0
 32 33  1  0
 33  5  2  0
 31 10  1  0
 30 14  1  0
 26 21  1  0
  1 34  1  0
  1 35  1  0
  1 36  1  0
  3 37  1  0
  3 38  1  0
  3 39  1  0
  4 40  1  0
  4 41  1  0
  4 42  1  0
  6 43  1  0
 11 44  1  0
 11 45  1  0
 12 46  1  0
 12 47  1  0
 13 48  1  0
 13 49  1  0
 15 50  1  0
 15 51  1  0
 16 52  1  0
 16 53  1  0
 17 54  1  0
 17 55  1  0
 18 56  1  0
 18 57  1  0
 19 58  1  0
 19 59  1  0
 22 60  1  0
 23 61  1  0
 24 62  1  0
 25 63  1  0
 29 64  1  0
 30 65  1  0
 30 66  1  0
 31 67  1  0
 31 68  1  0
 32 69  1  0
M  END
$$$$
