
     RDKit          3D

 64 65  0  0  0  0  0  0  0  0999 V2000
   -5.4606   -1.0671    1.4710 C   0  0  0  0  0  0  0  0  0  0  0  0
   -4.8748   -0.9625    0.1913 O   0  0  0  0  0  0  0  0  0  0  0  0
   -3.5893   -0.3639    0.2665 C   0  0  0  0  0  0  0  0  0  0  0  0
   -2.6280   -1.1538   -0.6636 C   0  0  0  0  0  0  0  0  0  0  0  0
   -1.7338   -2.0251    0.1196 N   0  0  0  0  0  0  0  0  0  0  0  0
   -2.1705   -3.3167    0.5989 C   0  0  0  0  0  0  0  0  0  0  0  0
   -3.3071   -4.0520   -0.0451 C   0  0  0  0  0  0  0  0  0  0  0  0
   -1.5782   -3.8586    1.5718 O   0  0  0  0  0  0  0  0  0  0  0  0
   -0.4122   -1.5112    0.5143 C   0  0  0  0  0  0  0  0  0  0  0  0
    0.7015   -2.2528   -0.2375 C   0  0  0  0  0  0  0  0  0  0  0  0
    2.1060   -1.7017    0.0621 C   0  0  0  0  0  0  0  0  0  0  0  0
    2.3413   -0.4399   -0.6805 N   0  0  0  0  0  0  0  0  0  0  0  0
    3.5984   -0.4291   -1.4635 C   0  0  0  0  0  0  0  0  0  0  0  0
    4.8415   -0.4123   -0.6031 C   0  0  0  0  0  0  0  0  0  0  0  0
    5.6135    0.7546   -0.4826 C   0  0  0  0  0  0  0  0  0  0  0  0
    6.7598    0.7401    0.3147 C   0  0  0  0  0  0  0  0  0  0  0  0
    7.1281   -0.4304    0.9799 C   0  0  0  0  0  0  0  0  0  0  0  0
    8.2389   -0.4558    1.7569 F   0  0  0  0  0  0  0  0  0  0  0  0
    6.3395   -1.5744    0.8368 C   0  0  0  0  0  0  0  0  0  0  0  0
    5.2265   -1.5407    0.0558 N   0  0  0  0  0  0  0  0  0  0  0  0
    2.1333    0.7881    0.1222 C   0  0  0  0  0  0  0  0  0  0  0  0
    1.3673    1.8206   -0.7153 C   0  0  0  0  0  0  0  0  0  0  0  0
    0.7845    2.9459    0.1552 C   0  0  0  0  0  0  0  0  0  0  0  0
   -0.2154    3.8216   -0.6276 C   0  0  0  0  0  0  0  0  0  0  0  0
   -1.3396    4.1308    0.1851 O   0  0  0  0  0  0  0  0  0  0  0  0
   -2.4968    3.4110   -0.2140 C   0  0  0  0  0  0  0  0  0  0  0  0
   -2.4403    1.9394    0.2525 C   0  0  0  0  0  0  0  0  0  0  0  0
   -2.2138    1.8816    1.6400 O   0  0  0  0  0  0  0  0  0  0  0  0
   -3.7092    1.1364   -0.1333 C   0  0  0  0  0  0  0  0  0  0  0  0
   -3.9493    1.2536   -1.5136 O   0  0  0  0  0  0  0  0  0  0  0  0
   -6.4888   -1.4694    1.3595 H   0  0  0  0  0  0  0  0  0  0  0  0
   -4.8875   -1.7758    2.1087 H   0  0  0  0  0  0  0  0  0  0  0  0
   -5.5352   -0.0733    1.9656 H   0  0  0  0  0  0  0  0  0  0  0  0
   -3.1637   -0.4084    1.2997 H   0  0  0  0  0  0  0  0  0  0  0  0
   -3.2025   -1.7500   -1.4038 H   0  0  0  0  0  0  0  0  0  0  0  0
   -2.0153   -0.4741   -1.2928 H   0  0  0  0  0  0  0  0  0  0  0  0
   -3.3901   -5.0790    0.3699 H   0  0  0  0  0  0  0  0  0  0  0  0
   -3.1318   -4.1310   -1.1383 H   0  0  0  0  0  0  0  0  0  0  0  0
   -4.2613   -3.5220    0.1429 H   0  0  0  0  0  0  0  0  0  0  0  0
   -0.3493   -0.4315    0.2884 H   0  0  0  0  0  0  0  0  0  0  0  0
   -0.2737   -1.6198    1.6118 H   0  0  0  0  0  0  0  0  0  0  0  0
    0.5109   -2.2019   -1.3331 H   0  0  0  0  0  0  0  0  0  0  0  0
    0.6749   -3.3252    0.0586 H   0  0  0  0  0  0  0  0  0  0  0  0
    2.8192   -2.4905   -0.2619 H   0  0  0  0  0  0  0  0  0  0  0  0
    2.2618   -1.5785    1.1566 H   0  0  0  0  0  0  0  0  0  0  0  0
    3.5949    0.4463   -2.1492 H   0  0  0  0  0  0  0  0  0  0  0  0
    3.6316   -1.3210   -2.1265 H   0  0  0  0  0  0  0  0  0  0  0  0
    5.3292    1.6640   -0.9967 H   0  0  0  0  0  0  0  0  0  0  0  0
    7.3622    1.6339    0.4159 H   0  0  0  0  0  0  0  0  0  0  0  0
    6.6110   -2.4896    1.3458 H   0  0  0  0  0  0  0  0  0  0  0  0
    1.5502    0.5660    1.0419 H   0  0  0  0  0  0  0  0  0  0  0  0
    3.0896    1.2293    0.4718 H   0  0  0  0  0  0  0  0  0  0  0  0
    2.0447    2.2596   -1.4795 H   0  0  0  0  0  0  0  0  0  0  0  0
    0.5445    1.2980   -1.2499 H   0  0  0  0  0  0  0  0  0  0  0  0
    0.2771    2.5016    1.0376 H   0  0  0  0  0  0  0  0  0  0  0  0
    1.6131    3.5778    0.5443 H   0  0  0  0  0  0  0  0  0  0  0  0
   -0.4845    3.3623   -1.6078 H   0  0  0  0  0  0  0  0  0  0  0  0
    0.2886    4.7763   -0.8877 H   0  0  0  0  0  0  0  0  0  0  0  0
   -3.3768    3.8963    0.2596 H   0  0  0  0  0  0  0  0  0  0  0  0
   -2.6663    3.4830   -1.3125 H   0  0  0  0  0  0  0  0  0  0  0  0
   -1.5789    1.4705   -0.2524 H   0  0  0  0  0  0  0  0  0  0  0  0
   -2.9942    2.3031    2.0879 H   0  0  0  0  0  0  0  0  0  0  0  0
   -4.5644    1.5861    0.4239 H   0  0  0  0  0  0  0  0  0  0  0  0
   -4.9004    1.0110   -1.6625 H   0  0  0  0  0  0  0  0  0  0  0  0
  1  2  1  0
  2  3  1  0
  3  4  1  0
  4  5  1  0
  5  6  1  0
  6  7  1  0
  6  8  2  0
  5  9  1  0
  9 10  1  0
 10 11  1  0
 11 12  1  0
 12 13  1  0
 13 14  1  0
 14 15  2  0
 15 16  1  0
 16 17  2  0
 17 18  1  0
 17 19  1  0
 19 20  2  0
 12 21  1  0
 21 22  1  0
 22 23  1  0
 23 24  1  0
 24 25  1  0
 25 26  1  0
 26 27  1  0
 27 28  1  0
 27 29  1  0
 29 30  1  0
 29  3  1  0
 20 14  1  0
  1 31  1  0
  1 32  1  0
  1 33  1  0
  3 34  1  0
  4 35  1  0
  4 36  1  0
  7 37  1  0
  7 38  1  0
  7 39  1  0
  9 40  1  0
  9 41  1  0
 10 42  1  0
 10 43  1  0
 11 44  1  0
 11 45  1  0
 13 46  1  0
 13 47  1  0
 15 48  1  0
 16 49  1  0
 19 50  1  0
 21 51  1  0
 21 52  1  0
 22 53  1  0
 22 54  1  0
 23 55  1  0
 23 56  1  0
 24 57  1  0
 24 58  1  0
 26 59  1  0
 26 60  1  0
 27 61  1  0
 28 62  1  0
 29 63  1  0
 30 64  1  0
M  END
$$$$
