
     RDKit          3D

 62 65  0  0  0  0  0  0  0  0999 V2000
    4.6017   -0.2268   -2.4656 C   0  0  0  0  0  0  0  0  0  0  0  0
    3.8186   -0.2062   -1.2238 N   0  0  0  0  0  0  0  0  0  0  0  0
    3.5367    1.0773   -0.5645 C   0  0  0  0  0  0  0  0  0  0  0  0
    2.4659    1.8820   -1.3290 C   0  0  0  0  0  0  0  0  0  0  0  0
    1.0458    1.2899   -1.2341 C   0  0  0  0  0  0  0  0  0  0  0  0
    0.4128    1.5198    0.1486 C   0  0  0  0  0  0  0  0  0  0  0  0
   -0.9968    1.0775    0.2262 N   0  0  0  0  0  0  0  0  0  0  0  0
   -1.8412    1.8720    1.0843 C   0  0  0  0  0  0  0  0  0  0  0  0
   -2.1928    1.4073    2.2008 O   0  0  0  0  0  0  0  0  0  0  0  0
   -2.1773    3.2790    0.7451 C   0  0  0  0  0  0  0  0  0  0  0  0
   -2.3225    4.2143    1.7829 C   0  0  0  0  0  0  0  0  0  0  0  0
   -2.5916    5.5531    1.4992 C   0  0  0  0  0  0  0  0  0  0  0  0
   -2.7238    5.9550    0.1726 C   0  0  0  0  0  0  0  0  0  0  0  0
   -2.6157    5.0431   -0.8260 N   0  0  0  0  0  0  0  0  0  0  0  0
   -2.3537    3.7298   -0.5848 C   0  0  0  0  0  0  0  0  0  0  0  0
   -2.3237    2.6485   -1.9664 Cl  0  0  0  0  0  0  0  0  0  0  0  0
   -1.3561   -0.3326   -0.0810 C   0  0  0  0  0  0  0  0  0  0  0  0
   -2.8920   -0.5543   -0.1134 C   0  0  0  0  0  0  0  0  0  0  0  0
   -3.2634   -1.9096   -0.6671 C   0  0  0  0  0  0  0  0  0  0  0  0
   -3.7538   -2.9152    0.1841 C   0  0  0  0  0  0  0  0  0  0  0  0
   -4.0608   -4.1821   -0.3222 C   0  0  0  0  0  0  0  0  0  0  0  0
   -3.8761   -4.4569   -1.6788 C   0  0  0  0  0  0  0  0  0  0  0  0
   -3.3929   -3.4627   -2.5327 C   0  0  0  0  0  0  0  0  0  0  0  0
   -3.0961   -2.1900   -2.0329 C   0  0  0  0  0  0  0  0  0  0  0  0
   -0.6542   -1.2916    0.9044 C   0  0  0  0  0  0  0  0  0  0  0  0
    0.6867   -1.4840    0.4597 O   0  0  0  0  0  0  0  0  0  0  0  0
    1.7947   -1.7792    1.2644 C   0  0  0  0  0  0  0  0  0  0  0  0
    1.6725   -2.0972    2.6308 C   0  0  0  0  0  0  0  0  0  0  0  0
    2.8169   -2.3172    3.4052 C   0  0  0  0  0  0  0  0  0  0  0  0
    4.0864   -2.2237    2.8260 C   0  0  0  0  0  0  0  0  0  0  0  0
    4.2172   -1.9174    1.4705 C   0  0  0  0  0  0  0  0  0  0  0  0
    3.0744   -1.7120    0.6821 C   0  0  0  0  0  0  0  0  0  0  0  0
    3.2234   -1.4300   -0.7571 C   0  0  0  0  0  0  0  0  0  0  0  0
    2.8175   -2.2851   -1.5897 O   0  0  0  0  0  0  0  0  0  0  0  0
    4.0243   -0.6998   -3.2867 H   0  0  0  0  0  0  0  0  0  0  0  0
    5.5384   -0.7945   -2.2999 H   0  0  0  0  0  0  0  0  0  0  0  0
    4.8752    0.8022   -2.7817 H   0  0  0  0  0  0  0  0  0  0  0  0
    4.4721    1.6775   -0.5326 H   0  0  0  0  0  0  0  0  0  0  0  0
    3.2329    0.9303    0.4918 H   0  0  0  0  0  0  0  0  0  0  0  0
    2.4610    2.9272   -0.9478 H   0  0  0  0  0  0  0  0  0  0  0  0
    2.7500    1.9406   -2.4024 H   0  0  0  0  0  0  0  0  0  0  0  0
    1.0824    0.2114   -1.4824 H   0  0  0  0  0  0  0  0  0  0  0  0
    0.4130    1.7840   -2.0004 H   0  0  0  0  0  0  0  0  0  0  0  0
    0.9954    0.9955    0.9282 H   0  0  0  0  0  0  0  0  0  0  0  0
    0.4867    2.6038    0.3849 H   0  0  0  0  0  0  0  0  0  0  0  0
   -2.2047    3.9152    2.8159 H   0  0  0  0  0  0  0  0  0  0  0  0
   -2.6857    6.2738    2.3010 H   0  0  0  0  0  0  0  0  0  0  0  0
   -2.9244    6.9908   -0.0669 H   0  0  0  0  0  0  0  0  0  0  0  0
   -0.9967   -0.5653   -1.1068 H   0  0  0  0  0  0  0  0  0  0  0  0
   -3.3639    0.2213   -0.7529 H   0  0  0  0  0  0  0  0  0  0  0  0
   -3.3176   -0.4416    0.9062 H   0  0  0  0  0  0  0  0  0  0  0  0
   -3.8905   -2.7235    1.2409 H   0  0  0  0  0  0  0  0  0  0  0  0
   -4.4347   -4.9524    0.3415 H   0  0  0  0  0  0  0  0  0  0  0  0
   -4.1052   -5.4404   -2.0687 H   0  0  0  0  0  0  0  0  0  0  0  0
   -3.2447   -3.6805   -3.5812 H   0  0  0  0  0  0  0  0  0  0  0  0
   -2.7192   -1.4294   -2.7045 H   0  0  0  0  0  0  0  0  0  0  0  0
   -1.1524   -2.2812    0.9564 H   0  0  0  0  0  0  0  0  0  0  0  0
   -0.6781   -0.8318    1.9156 H   0  0  0  0  0  0  0  0  0  0  0  0
    0.7035   -2.1877    3.1021 H   0  0  0  0  0  0  0  0  0  0  0  0
    2.7180   -2.5681    4.4518 H   0  0  0  0  0  0  0  0  0  0  0  0
    4.9703   -2.3960    3.4275 H   0  0  0  0  0  0  0  0  0  0  0  0
    5.2077   -1.8560    1.0334 H   0  0  0  0  0  0  0  0  0  0  0  0
  1  2  1  0
  2  3  1  0
  3  4  1  0
  4  5  1  0
  5  6  1  0
  6  7  1  0
  7  8  1  0
  8  9  2  0
  8 10  1  0
 10 11  2  0
 11 12  1  0
 12 13  2  0
 13 14  1  0
 14 15  2  0
 15 16  1  0
  7 17  1  0
 17 18  1  0
 18 19  1  0
 19 20  2  0
 20 21  1  0
 21 22  2  0
 22 23  1  0
 23 24  2  0
 17 25  1  0
 25 26  1  0
 26 27  1  0
 27 28  2  0
 28 29  1  0
 29 30  2  0
 30 31  1  0
 31 32  2  0
 32 33  1  0
 33 34  2  0
 33  2  1  0
 15 10  1  0
 24 19  1  0
 32 27  1  0
  1 35  1  0
  1 36  1  0
  1 37  1  0
  3 38  1  0
  3 39  1  0
  4 40  1  0
  4 41  1  0
  5 42  1  0
  5 43  1  0
  6 44  1  0
  6 45  1  0
 11 46  1  0
 12 47  1  0
 13 48  1  0
 17 49  1  0
 18 50  1  0
 18 51  1  0
 20 52  1  0
 21 53  1  0
 22 54  1  0
 23 55  1  0
 24 56  1  0
 25 57  1  0
 25 58  1  0
 28 59  1  0
 29 60  1  0
 30 61  1  0
 31 62  1  0
M  END
$$$$
