
     RDKit          3D

 62 63  0  0  0  0  0  0  0  0999 V2000
    4.7444   -0.6493    1.1958 C   0  0  0  0  0  0  0  0  0  0  0  0
    4.4381   -1.0899   -0.1682 N   0  0  0  0  0  0  0  0  0  0  0  0
    4.3612   -0.0909   -1.2434 C   0  0  0  0  0  0  0  0  0  0  0  0
    2.9633    0.5214   -1.3277 C   0  0  0  0  0  0  0  0  0  0  0  0
    2.7216    1.3339   -0.1811 O   0  0  0  0  0  0  0  0  0  0  0  0
    1.7518    2.3466   -0.0678 C   0  0  0  0  0  0  0  0  0  0  0  0
    1.9839    3.3328    0.9009 C   0  0  0  0  0  0  0  0  0  0  0  0
    1.0983    4.3993    1.0661 C   0  0  0  0  0  0  0  0  0  0  0  0
   -0.0376    4.4934    0.2639 C   0  0  0  0  0  0  0  0  0  0  0  0
   -0.3001    3.5127   -0.6932 C   0  0  0  0  0  0  0  0  0  0  0  0
    0.5767    2.4297   -0.8639 C   0  0  0  0  0  0  0  0  0  0  0  0
    0.1628    1.3616   -1.7852 C   0  0  0  0  0  0  0  0  0  0  0  0
    0.3157    1.5268   -3.0250 O   0  0  0  0  0  0  0  0  0  0  0  0
   -0.4240    0.1450   -1.2985 N   0  0  0  0  0  0  0  0  0  0  0  0
   -1.0893    0.0557    0.0063 C   0  0  0  0  0  0  0  0  0  0  0  0
   -2.5347    0.4559   -0.1301 C   0  0  0  0  0  0  0  0  0  0  0  0
   -3.1658    0.1877   -1.1896 O   0  0  0  0  0  0  0  0  0  0  0  0
   -3.2048    1.0927    0.9668 N   0  0  0  0  0  0  0  0  0  0  0  0
   -4.6330    1.4054    0.9475 C   0  0  0  0  0  0  0  0  0  0  0  0
   -5.4758    0.1219    1.0760 C   0  0  0  0  0  0  0  0  0  0  0  0
   -5.0912   -0.6145    2.2104 O   0  0  0  0  0  0  0  0  0  0  0  0
   -6.9816    0.4350    1.1279 C   0  0  0  0  0  0  0  0  0  0  0  0
   -7.4098    1.0203   -0.0716 O   0  0  0  0  0  0  0  0  0  0  0  0
   -0.9868   -1.3709    0.5741 C   0  0  0  0  0  0  0  0  0  0  0  0
    0.3785   -1.6374    1.1561 C   0  0  0  0  0  0  0  0  0  0  0  0
    0.7000   -1.0523    2.2263 O   0  0  0  0  0  0  0  0  0  0  0  0
    1.3156   -2.5471    0.5579 N   0  0  0  0  0  0  0  0  0  0  0  0
    1.1241   -3.1650   -0.7538 C   0  0  0  0  0  0  0  0  0  0  0  0
    2.3663   -3.9519   -1.2052 C   0  0  0  0  0  0  0  0  0  0  0  0
    3.5448   -3.0489   -1.6153 C   0  0  0  0  0  0  0  0  0  0  0  0
    4.2943   -2.5053   -0.4220 C   0  0  0  0  0  0  0  0  0  0  0  0
    4.8064   -3.3306    0.3834 O   0  0  0  0  0  0  0  0  0  0  0  0
    5.7103   -1.0876    1.5265 H   0  0  0  0  0  0  0  0  0  0  0  0
    4.8253    0.4567    1.2572 H   0  0  0  0  0  0  0  0  0  0  0  0
    3.9376   -0.9767    1.8838 H   0  0  0  0  0  0  0  0  0  0  0  0
    5.1038    0.7178   -1.0661 H   0  0  0  0  0  0  0  0  0  0  0  0
    4.6414   -0.5440   -2.2178 H   0  0  0  0  0  0  0  0  0  0  0  0
    2.9154    1.1466   -2.2457 H   0  0  0  0  0  0  0  0  0  0  0  0
    2.2085   -0.2867   -1.3831 H   0  0  0  0  0  0  0  0  0  0  0  0
    2.8686    3.2763    1.5224 H   0  0  0  0  0  0  0  0  0  0  0  0
    1.2962    5.1553    1.8144 H   0  0  0  0  0  0  0  0  0  0  0  0
   -0.7251    5.3185    0.3956 H   0  0  0  0  0  0  0  0  0  0  0  0
   -1.2069    3.5808   -1.2830 H   0  0  0  0  0  0  0  0  0  0  0  0
   -0.6245   -0.6000   -2.0039 H   0  0  0  0  0  0  0  0  0  0  0  0
   -0.6088    0.7523    0.7266 H   0  0  0  0  0  0  0  0  0  0  0  0
   -2.6505    1.3650    1.8104 H   0  0  0  0  0  0  0  0  0  0  0  0
   -4.8655    2.0863    1.7955 H   0  0  0  0  0  0  0  0  0  0  0  0
   -4.8831    1.9408    0.0063 H   0  0  0  0  0  0  0  0  0  0  0  0
   -5.2909   -0.5156    0.1844 H   0  0  0  0  0  0  0  0  0  0  0  0
   -5.2673   -0.0516    3.0105 H   0  0  0  0  0  0  0  0  0  0  0  0
   -7.1943    1.1358    1.9634 H   0  0  0  0  0  0  0  0  0  0  0  0
   -7.5548   -0.5003    1.3218 H   0  0  0  0  0  0  0  0  0  0  0  0
   -7.4637    0.2890   -0.7399 H   0  0  0  0  0  0  0  0  0  0  0  0
   -1.2595   -2.1166   -0.2007 H   0  0  0  0  0  0  0  0  0  0  0  0
   -1.7243   -1.4933    1.3984 H   0  0  0  0  0  0  0  0  0  0  0  0
    2.1634   -2.7844    1.1193 H   0  0  0  0  0  0  0  0  0  0  0  0
    0.8865   -2.3893   -1.5086 H   0  0  0  0  0  0  0  0  0  0  0  0
    0.2663   -3.8672   -0.6965 H   0  0  0  0  0  0  0  0  0  0  0  0
    2.0772   -4.5540   -2.0940 H   0  0  0  0  0  0  0  0  0  0  0  0
    2.6733   -4.6737   -0.4167 H   0  0  0  0  0  0  0  0  0  0  0  0
    3.1715   -2.2498   -2.2851 H   0  0  0  0  0  0  0  0  0  0  0  0
    4.2607   -3.6540   -2.2131 H   0  0  0  0  0  0  0  0  0  0  0  0
  1  2  1  0
  2  3  1  0
  3  4  1  0
  4  5  1  0
  5  6  1  0
  6  7  2  0
  7  8  1  0
  8  9  2  0
  9 10  1  0
 10 11  2  0
 11 12  1  0
 12 13  2  0
 12 14  1  0
 14 15  1  0
 15 16  1  0
 16 17  2  0
 16 18  1  0
 18 19  1  0
 19 20  1  0
 20 21  1  0
 20 22  1  0
 22 23  1  0
 15 24  1  0
 24 25  1  0
 25 26  2  0
 25 27  1  0
 27 28  1  0
 28 29  1  0
 29 30  1  0
 30 31  1  0
 31 32  2  0
 31  2  1  0
 11  6  1  0
  1 33  1  0
  1 34  1  0
  1 35  1  0
  3 36  1  0
  3 37  1  0
  4 38  1  0
  4 39  1  0
  7 40  1  0
  8 41  1  0
  9 42  1  0
 10 43  1  0
 14 44  1  0
 15 45  1  0
 18 46  1  0
 19 47  1  0
 19 48  1  0
 20 49  1  0
 21 50  1  0
 22 51  1  0
 22 52  1  0
 23 53  1  0
 24 54  1  0
 24 55  1  0
 27 56  1  0
 28 57  1  0
 28 58  1  0
 29 59  1  0
 29 60  1  0
 30 61  1  0
 30 62  1  0
M  END
$$$$
