
     RDKit          3D

 71 75  0  0  0  0  0  0  0  0999 V2000
   -1.4280    2.2962    1.8365 O   0  0  0  0  0  0  0  0  0  0  0  0
   -2.3332    1.9879    1.0153 C   0  0  0  0  0  0  0  0  0  0  0  0
   -2.8622    3.0395    0.1319 C   0  0  0  0  0  0  0  0  0  0  0  0
   -3.9286    3.8047    0.6323 C   0  0  0  0  0  0  0  0  0  0  0  0
   -4.5097    4.8109   -0.1407 C   0  0  0  0  0  0  0  0  0  0  0  0
   -4.0330    5.0653   -1.4245 C   0  0  0  0  0  0  0  0  0  0  0  0
   -2.9724    4.3168   -1.9365 C   0  0  0  0  0  0  0  0  0  0  0  0
   -2.3675    3.3027   -1.1790 C   0  0  0  0  0  0  0  0  0  0  0  0
   -1.3182    2.6072   -1.8095 O   0  0  0  0  0  0  0  0  0  0  0  0
   -0.3715    1.7286   -1.2096 C   0  0  0  0  0  0  0  0  0  0  0  0
    0.5990    1.2397   -2.2856 C   0  0  0  0  0  0  0  0  0  0  0  0
    1.4494    0.1464   -1.7818 N   0  0  0  0  0  0  0  0  0  0  0  0
    2.5333    0.4709   -0.8702 C   0  0  0  0  0  0  0  0  0  0  0  0
    2.6342    1.6490   -0.4286 O   0  0  0  0  0  0  0  0  0  0  0  0
    3.5819   -0.5360   -0.4259 C   0  0  0  0  0  0  0  0  0  0  0  0
    5.0133   -0.0778   -0.8063 C   0  0  0  0  0  0  0  0  0  0  0  0
    5.7801   -0.2314    0.4524 C   0  0  0  0  0  0  0  0  0  0  0  0
    7.1510   -0.0202    0.6230 C   0  0  0  0  0  0  0  0  0  0  0  0
    7.7070   -0.1946    1.9000 C   0  0  0  0  0  0  0  0  0  0  0  0
    6.8892   -0.5687    2.9818 C   0  0  0  0  0  0  0  0  0  0  0  0
    5.5135   -0.7695    2.7891 C   0  0  0  0  0  0  0  0  0  0  0  0
    4.9818   -0.5966    1.5081 C   0  0  0  0  0  0  0  0  0  0  0  0
    3.5624   -0.7400    1.1111 C   0  0  0  0  0  0  0  0  0  0  0  0
    1.2599   -1.2149   -2.3236 C   0  0  0  0  0  0  0  0  0  0  0  0
    0.6928   -2.1713   -1.2573 C   0  0  0  0  0  0  0  0  0  0  0  0
   -0.8491   -2.1085   -1.1397 C   0  0  0  0  0  0  0  0  0  0  0  0
   -1.2883   -2.0304    0.3370 C   0  0  0  0  0  0  0  0  0  0  0  0
   -2.8298   -2.1493    0.6279 C   0  0  0  0  0  0  0  0  0  0  0  0
   -3.2584   -3.6476    0.5884 C   0  0  0  0  0  0  0  0  0  0  0  0
   -3.1731   -4.1887   -0.7025 O   0  0  0  0  0  0  0  0  0  0  0  0
   -3.1321   -1.6241    2.0529 C   0  0  0  0  0  0  0  0  0  0  0  0
   -2.7638   -0.1451    2.2419 C   0  0  0  0  0  0  0  0  0  0  0  0
   -2.8843    0.6524    1.0088 N   0  0  0  0  0  0  0  0  0  0  0  0
   -3.6566    0.1985   -0.1639 C   0  0  0  0  0  0  0  0  0  0  0  0
   -3.7248   -1.3330   -0.3395 C   0  0  0  0  0  0  0  0  0  0  0  0
   -4.3189    3.6145    1.6250 H   0  0  0  0  0  0  0  0  0  0  0  0
   -5.3354    5.3880    0.2535 H   0  0  0  0  0  0  0  0  0  0  0  0
   -4.4897    5.8391   -2.0270 H   0  0  0  0  0  0  0  0  0  0  0  0
   -2.6145    4.5230   -2.9374 H   0  0  0  0  0  0  0  0  0  0  0  0
   -0.8816    0.8497   -0.7835 H   0  0  0  0  0  0  0  0  0  0  0  0
    0.1762    2.2673   -0.4100 H   0  0  0  0  0  0  0  0  0  0  0  0
    1.2344    2.0841   -2.6302 H   0  0  0  0  0  0  0  0  0  0  0  0
    0.0066    0.9070   -3.1655 H   0  0  0  0  0  0  0  0  0  0  0  0
    3.4266   -1.5295   -0.8885 H   0  0  0  0  0  0  0  0  0  0  0  0
    5.4425   -0.7272   -1.6017 H   0  0  0  0  0  0  0  0  0  0  0  0
    5.0536    0.9851   -1.1349 H   0  0  0  0  0  0  0  0  0  0  0  0
    7.7739    0.2755   -0.2120 H   0  0  0  0  0  0  0  0  0  0  0  0
    8.7672   -0.0381    2.0536 H   0  0  0  0  0  0  0  0  0  0  0  0
    7.3222   -0.6984    3.9652 H   0  0  0  0  0  0  0  0  0  0  0  0
    4.8782   -1.0503    3.6189 H   0  0  0  0  0  0  0  0  0  0  0  0
    3.1901   -1.7539    1.3748 H   0  0  0  0  0  0  0  0  0  0  0  0
    2.9545    0.0277    1.6371 H   0  0  0  0  0  0  0  0  0  0  0  0
    2.2257   -1.6002   -2.7136 H   0  0  0  0  0  0  0  0  0  0  0  0
    0.5858   -1.2141   -3.2086 H   0  0  0  0  0  0  0  0  0  0  0  0
    0.9813   -3.2111   -1.5270 H   0  0  0  0  0  0  0  0  0  0  0  0
    1.1759   -1.9623   -0.2786 H   0  0  0  0  0  0  0  0  0  0  0  0
   -1.2438   -1.2253   -1.6826 H   0  0  0  0  0  0  0  0  0  0  0  0
   -1.2737   -3.0058   -1.6308 H   0  0  0  0  0  0  0  0  0  0  0  0
   -0.7579   -2.8223    0.9118 H   0  0  0  0  0  0  0  0  0  0  0  0
   -0.8863   -1.0718    0.7201 H   0  0  0  0  0  0  0  0  0  0  0  0
   -2.6041   -4.2454    1.2580 H   0  0  0  0  0  0  0  0  0  0  0  0
   -4.2945   -3.7716    0.9829 H   0  0  0  0  0  0  0  0  0  0  0  0
   -4.0452   -4.0254   -1.1445 H   0  0  0  0  0  0  0  0  0  0  0  0
   -2.5829   -2.2310    2.8074 H   0  0  0  0  0  0  0  0  0  0  0  0
   -4.2176   -1.7397    2.2732 H   0  0  0  0  0  0  0  0  0  0  0  0
   -1.7164   -0.1009    2.6068 H   0  0  0  0  0  0  0  0  0  0  0  0
   -3.4038    0.3010    3.0321 H   0  0  0  0  0  0  0  0  0  0  0  0
   -4.6867    0.6107   -0.0924 H   0  0  0  0  0  0  0  0  0  0  0  0
   -3.2102    0.6152   -1.0906 H   0  0  0  0  0  0  0  0  0  0  0  0
   -4.7851   -1.6344   -0.1771 H   0  0  0  0  0  0  0  0  0  0  0  0
   -3.5104   -1.5981   -1.3971 H   0  0  0  0  0  0  0  0  0  0  0  0
  1  2  2  0
  2  3  1  0
  3  4  2  0
  4  5  1  0
  5  6  2  0
  6  7  1  0
  7  8  2  0
  8  9  1  0
  9 10  1  0
 10 11  1  0
 11 12  1  0
 12 13  1  0
 13 14  2  0
 13 15  1  0
 15 16  1  0
 16 17  1  0
 17 18  2  0
 18 19  1  0
 19 20  2  0
 20 21  1  0
 21 22  2  0
 22 23  1  0
 12 24  1  0
 24 25  1  0
 25 26  1  0
 26 27  1  0
 27 28  1  0
 28 29  1  0
 29 30  1  0
 28 31  1  0
 31 32  1  0
 32 33  1  0
 33 34  1  0
 34 35  1  0
 33  2  1  0
  8  3  1  0
 23 15  1  0
 35 28  1  0
 22 17  1  0
  4 36  1  0
  5 37  1  0
  6 38  1  0
  7 39  1  0
 10 40  1  0
 10 41  1  0
 11 42  1  0
 11 43  1  0
 15 44  1  0
 16 45  1  0
 16 46  1  0
 18 47  1  0
 19 48  1  0
 20 49  1  0
 21 50  1  0
 23 51  1  0
 23 52  1  0
 24 53  1  0
 24 54  1  0
 25 55  1  0
 25 56  1  0
 26 57  1  0
 26 58  1  0
 27 59  1  0
 27 60  1  0
 29 61  1  0
 29 62  1  0
 30 63  1  0
 31 64  1  0
 31 65  1  0
 32 66  1  0
 32 67  1  0
 34 68  1  0
 34 69  1  0
 35 70  1  0
 35 71  1  0
M  END
$$$$
