
     RDKit          3D

 73 77  0  0  0  0  0  0  0  0999 V2000
   -4.1008   -3.8563   -0.2601 C   0  0  0  0  0  0  0  0  0  0  0  0
   -4.5733   -2.4187   -0.0719 C   0  0  0  0  0  0  0  0  0  0  0  0
   -3.4989   -1.5980    0.5273 N   0  0  0  0  0  0  0  0  0  0  0  0
   -3.5952   -1.3055    1.9750 C   0  0  0  0  0  0  0  0  0  0  0  0
   -3.4503    0.1793    2.3055 C   0  0  0  0  0  0  0  0  0  0  0  0
   -4.5093    0.9832    1.7792 O   0  0  0  0  0  0  0  0  0  0  0  0
   -4.7312    1.2229    0.4171 C   0  0  0  0  0  0  0  0  0  0  0  0
   -5.8456    0.6137   -0.1692 C   0  0  0  0  0  0  0  0  0  0  0  0
   -6.1840    0.8666   -1.5012 C   0  0  0  0  0  0  0  0  0  0  0  0
   -5.4116    1.7406   -2.2601 C   0  0  0  0  0  0  0  0  0  0  0  0
   -4.3081    2.3732   -1.6909 C   0  0  0  0  0  0  0  0  0  0  0  0
   -3.9293    2.1092   -0.3547 C   0  0  0  0  0  0  0  0  0  0  0  0
   -2.7789    2.8996    0.2417 C   0  0  0  0  0  0  0  0  0  0  0  0
   -1.4829    2.8868   -0.6069 C   0  0  0  0  0  0  0  0  0  0  0  0
   -1.0314    1.4942   -1.0894 C   0  0  0  0  0  0  0  0  0  0  0  0
   -0.5201    0.5859    0.0580 C   0  0  0  0  0  0  0  0  0  0  0  0
   -0.9613   -0.9339    0.0642 C   0  0  0  0  0  0  0  0  0  0  0  0
   -0.0828   -1.7270   -0.9470 C   0  0  0  0  0  0  0  0  0  0  0  0
    1.2978   -1.8187   -0.4540 N   0  0  0  0  0  0  0  0  0  0  0  0
    2.4208   -1.5641   -1.3327 C   0  0  0  0  0  0  0  0  0  0  0  0
    2.2180   -1.3693   -2.5630 O   0  0  0  0  0  0  0  0  0  0  0  0
    3.8412   -1.4914   -0.8352 C   0  0  0  0  0  0  0  0  0  0  0  0
    4.0915   -0.2158   -0.0177 C   0  0  0  0  0  0  0  0  0  0  0  0
    5.5339    0.0091    0.1352 N   0  0  0  0  0  0  0  0  0  0  0  0
    6.4276   -0.8292    0.7282 C   0  0  0  0  0  0  0  0  0  0  0  0
    7.7055   -0.3782    0.6700 N   0  0  0  0  0  0  0  0  0  0  0  0
    7.5852    0.7951    0.0188 C   0  0  0  0  0  0  0  0  0  0  0  0
    8.6039    1.6819   -0.3177 C   0  0  0  0  0  0  0  0  0  0  0  0
    8.2502    2.8558   -1.0083 C   0  0  0  0  0  0  0  0  0  0  0  0
    6.8994    3.1136   -1.3402 C   0  0  0  0  0  0  0  0  0  0  0  0
    5.8913    2.1951   -0.9918 C   0  0  0  0  0  0  0  0  0  0  0  0
    6.2804    1.0363   -0.3061 C   0  0  0  0  0  0  0  0  0  0  0  0
    1.4442   -2.3278    0.9097 C   0  0  0  0  0  0  0  0  0  0  0  0
    0.5342   -1.5228    1.8344 C   0  0  0  0  0  0  0  0  0  0  0  0
   -0.8032   -1.5015    1.3651 O   0  0  0  0  0  0  0  0  0  0  0  0
   -2.4318   -1.1424   -0.3588 C   0  0  0  0  0  0  0  0  0  0  0  0
   -2.6968   -1.0651   -1.5953 O   0  0  0  0  0  0  0  0  0  0  0  0
   -3.7839   -4.2922    0.7151 H   0  0  0  0  0  0  0  0  0  0  0  0
   -4.9314   -4.4639   -0.6790 H   0  0  0  0  0  0  0  0  0  0  0  0
   -3.2423   -3.8877   -0.9664 H   0  0  0  0  0  0  0  0  0  0  0  0
   -4.8857   -1.9973   -1.0547 H   0  0  0  0  0  0  0  0  0  0  0  0
   -5.4910   -2.4222    0.5571 H   0  0  0  0  0  0  0  0  0  0  0  0
   -2.8342   -1.8889    2.5317 H   0  0  0  0  0  0  0  0  0  0  0  0
   -4.5718   -1.6412    2.3900 H   0  0  0  0  0  0  0  0  0  0  0  0
   -3.4516    0.2839    3.4117 H   0  0  0  0  0  0  0  0  0  0  0  0
   -2.4780    0.5363    1.9678 H   0  0  0  0  0  0  0  0  0  0  0  0
   -6.4609   -0.0529    0.4170 H   0  0  0  0  0  0  0  0  0  0  0  0
   -7.0568    0.3977   -1.9353 H   0  0  0  0  0  0  0  0  0  0  0  0
   -5.6924    1.9651   -3.2868 H   0  0  0  0  0  0  0  0  0  0  0  0
   -3.7588    3.0843   -2.2956 H   0  0  0  0  0  0  0  0  0  0  0  0
   -2.5447    2.5789    1.2697 H   0  0  0  0  0  0  0  0  0  0  0  0
   -3.1128    3.9553    0.3396 H   0  0  0  0  0  0  0  0  0  0  0  0
   -1.6313    3.5281   -1.5034 H   0  0  0  0  0  0  0  0  0  0  0  0
   -0.6564    3.3639   -0.0359 H   0  0  0  0  0  0  0  0  0  0  0  0
   -1.8437    1.0559   -1.6861 H   0  0  0  0  0  0  0  0  0  0  0  0
   -0.2004    1.6360   -1.8168 H   0  0  0  0  0  0  0  0  0  0  0  0
   -0.7157    1.0528    1.0342 H   0  0  0  0  0  0  0  0  0  0  0  0
    0.5899    0.6339    0.0112 H   0  0  0  0  0  0  0  0  0  0  0  0
   -0.1267   -1.2345   -1.9446 H   0  0  0  0  0  0  0  0  0  0  0  0
   -0.4776   -2.7609   -1.0707 H   0  0  0  0  0  0  0  0  0  0  0  0
    4.5237   -1.4927   -1.7142 H   0  0  0  0  0  0  0  0  0  0  0  0
    4.0944   -2.3975   -0.2424 H   0  0  0  0  0  0  0  0  0  0  0  0
    3.6065    0.6537   -0.5137 H   0  0  0  0  0  0  0  0  0  0  0  0
    3.6357   -0.3013    0.9921 H   0  0  0  0  0  0  0  0  0  0  0  0
    6.1577   -1.7710    1.1918 H   0  0  0  0  0  0  0  0  0  0  0  0
    9.6354    1.4770   -0.0517 H   0  0  0  0  0  0  0  0  0  0  0  0
    9.0146    3.5677   -1.2885 H   0  0  0  0  0  0  0  0  0  0  0  0
    6.6414    4.0233   -1.8677 H   0  0  0  0  0  0  0  0  0  0  0  0
    4.8581    2.3920   -1.2525 H   0  0  0  0  0  0  0  0  0  0  0  0
    2.4829   -2.2609    1.2904 H   0  0  0  0  0  0  0  0  0  0  0  0
    1.1448   -3.3969    0.9332 H   0  0  0  0  0  0  0  0  0  0  0  0
    0.9309   -0.4941    1.9840 H   0  0  0  0  0  0  0  0  0  0  0  0
    0.5338   -2.0064    2.8334 H   0  0  0  0  0  0  0  0  0  0  0  0
  1  2  1  0
  2  3  1  0
  3  4  1  0
  4  5  1  0
  5  6  1  0
  6  7  1  0
  7  8  2  0
  8  9  1  0
  9 10  2  0
 10 11  1  0
 11 12  2  0
 12 13  1  0
 13 14  1  0
 14 15  1  0
 15 16  1  0
 16 17  1  0
 17 18  1  0
 18 19  1  0
 19 20  1  0
 20 21  2  0
 20 22  1  0
 22 23  1  0
 23 24  1  0
 24 25  1  0
 25 26  2  0
 26 27  1  0
 27 28  2  0
 28 29  1  0
 29 30  2  0
 30 31  1  0
 31 32  2  0
 19 33  1  0
 33 34  1  0
 34 35  1  0
 17 36  1  0
 36 37  2  0
 36  3  1  0
 12  7  1  0
 35 17  1  0
 32 24  1  0
 32 27  1  0
  1 38  1  0
  1 39  1  0
  1 40  1  0
  2 41  1  0
  2 42  1  0
  4 43  1  0
  4 44  1  0
  5 45  1  0
  5 46  1  0
  8 47  1  0
  9 48  1  0
 10 49  1  0
 11 50  1  0
 13 51  1  0
 13 52  1  0
 14 53  1  0
 14 54  1  0
 15 55  1  0
 15 56  1  0
 16 57  1  0
 16 58  1  0
 18 59  1  0
 18 60  1  0
 22 61  1  0
 22 62  1  0
 23 63  1  0
 23 64  1  0
 25 65  1  0
 28 66  1  0
 29 67  1  0
 30 68  1  0
 31 69  1  0
 33 70  1  0
 33 71  1  0
 34 72  1  0
 34 73  1  0
M  END
$$$$
