
     RDKit          3D

 60 62  0  0  0  0  0  0  0  0999 V2000
    6.0240   -2.3373    0.6313 C   0  0  0  0  0  0  0  0  0  0  0  0
    4.5568   -2.1539    0.2513 C   0  0  0  0  0  0  0  0  0  0  0  0
    4.3263   -0.7891   -0.3199 C   0  0  0  0  0  0  0  0  0  0  0  0
    4.2535   -0.5344   -1.6421 N   0  0  0  0  0  0  0  0  0  0  0  0
    4.0926    0.7517   -1.7248 O   0  0  0  0  0  0  0  0  0  0  0  0
    4.0795    1.2707   -0.5219 C   0  0  0  0  0  0  0  0  0  0  0  0
    3.8983    2.7316   -0.2400 C   0  0  0  0  0  0  0  0  0  0  0  0
    2.4727    3.0374    0.2323 C   0  0  0  0  0  0  0  0  0  0  0  0
    1.4641    2.7400   -0.8446 C   0  0  0  0  0  0  0  0  0  0  0  0
    1.3997    3.4996   -1.8495 O   0  0  0  0  0  0  0  0  0  0  0  0
    0.6429    1.5592   -0.7883 N   0  0  0  0  0  0  0  0  0  0  0  0
   -0.1298    1.2682    0.4304 C   0  0  0  0  0  0  0  0  0  0  0  0
    0.2243   -0.1033    1.0267 C   0  0  0  0  0  0  0  0  0  0  0  0
   -0.4735   -0.3621    2.3741 C   0  0  0  0  0  0  0  0  0  0  0  0
   -1.9558   -0.7780    2.2466 C   0  0  0  0  0  0  0  0  0  0  0  0
   -2.8256    0.3446    1.8512 N   0  0  0  0  0  0  0  0  0  0  0  0
   -2.9635    1.4975    2.7486 C   0  0  0  0  0  0  0  0  0  0  0  0
   -3.6255    0.3137    0.6445 C   0  0  0  0  0  0  0  0  0  0  0  0
   -4.1918    1.3663    0.2402 O   0  0  0  0  0  0  0  0  0  0  0  0
   -3.8702   -0.9337   -0.0989 C   0  0  0  0  0  0  0  0  0  0  0  0
   -4.9396   -1.7482    0.3020 C   0  0  0  0  0  0  0  0  0  0  0  0
   -5.1986   -2.9531   -0.3587 C   0  0  0  0  0  0  0  0  0  0  0  0
   -6.5344   -3.9669    0.1565 Cl  0  0  0  0  0  0  0  0  0  0  0  0
   -4.3897   -3.3520   -1.4257 C   0  0  0  0  0  0  0  0  0  0  0  0
   -3.3199   -2.5506   -1.8294 C   0  0  0  0  0  0  0  0  0  0  0  0
   -3.0540   -1.3380   -1.1805 C   0  0  0  0  0  0  0  0  0  0  0  0
   -1.9438   -0.5960   -1.5976 O   0  0  0  0  0  0  0  0  0  0  0  0
   -2.0470    0.6474   -2.2903 C   0  0  0  0  0  0  0  0  0  0  0  0
   -0.6837    1.0663   -2.8688 C   0  0  0  0  0  0  0  0  0  0  0  0
    0.5364    0.7177   -1.9926 C   0  0  0  0  0  0  0  0  0  0  0  0
    4.2276    0.3277    0.4313 N   0  0  0  0  0  0  0  0  0  0  0  0
    6.3119   -1.6136    1.4255 H   0  0  0  0  0  0  0  0  0  0  0  0
    6.6758   -2.1871   -0.2574 H   0  0  0  0  0  0  0  0  0  0  0  0
    6.1839   -3.3683    1.0175 H   0  0  0  0  0  0  0  0  0  0  0  0
    3.9190   -2.2901    1.1521 H   0  0  0  0  0  0  0  0  0  0  0  0
    4.2717   -2.9238   -0.4976 H   0  0  0  0  0  0  0  0  0  0  0  0
    4.1338    3.3220   -1.1537 H   0  0  0  0  0  0  0  0  0  0  0  0
    4.6157    3.0360    0.5518 H   0  0  0  0  0  0  0  0  0  0  0  0
    2.4013    4.1153    0.4988 H   0  0  0  0  0  0  0  0  0  0  0  0
    2.2648    2.4510    1.1531 H   0  0  0  0  0  0  0  0  0  0  0  0
    0.0387    2.0555    1.1969 H   0  0  0  0  0  0  0  0  0  0  0  0
   -1.1994    1.3225    0.1949 H   0  0  0  0  0  0  0  0  0  0  0  0
    1.3238   -0.1403    1.1897 H   0  0  0  0  0  0  0  0  0  0  0  0
   -0.0398   -0.9217    0.3264 H   0  0  0  0  0  0  0  0  0  0  0  0
   -0.3581    0.5164    3.0427 H   0  0  0  0  0  0  0  0  0  0  0  0
    0.0625   -1.2014    2.8702 H   0  0  0  0  0  0  0  0  0  0  0  0
   -2.3039   -1.1643    3.2297 H   0  0  0  0  0  0  0  0  0  0  0  0
   -2.0298   -1.6268    1.5371 H   0  0  0  0  0  0  0  0  0  0  0  0
   -4.0370    1.6696    2.9789 H   0  0  0  0  0  0  0  0  0  0  0  0
   -2.5424    2.4040    2.2606 H   0  0  0  0  0  0  0  0  0  0  0  0
   -2.4359    1.3265    3.7120 H   0  0  0  0  0  0  0  0  0  0  0  0
   -5.5674   -1.4498    1.1322 H   0  0  0  0  0  0  0  0  0  0  0  0
   -4.5847   -4.2854   -1.9382 H   0  0  0  0  0  0  0  0  0  0  0  0
   -2.6941   -2.8721   -2.6522 H   0  0  0  0  0  0  0  0  0  0  0  0
   -2.7736    0.5459   -3.1260 H   0  0  0  0  0  0  0  0  0  0  0  0
   -2.4286    1.4425   -1.6225 H   0  0  0  0  0  0  0  0  0  0  0  0
   -0.6944    2.1562   -3.0856 H   0  0  0  0  0  0  0  0  0  0  0  0
   -0.5529    0.5430   -3.8412 H   0  0  0  0  0  0  0  0  0  0  0  0
    1.4501    0.8540   -2.6133 H   0  0  0  0  0  0  0  0  0  0  0  0
    0.5366   -0.3585   -1.7303 H   0  0  0  0  0  0  0  0  0  0  0  0
  1  2  1  0
  2  3  1  0
  3  4  2  0
  4  5  1  0
  5  6  1  0
  6  7  1  0
  7  8  1  0
  8  9  1  0
  9 10  2  0
  9 11  1  0
 11 12  1  0
 12 13  1  0
 13 14  1  0
 14 15  1  0
 15 16  1  0
 16 17  1  0
 16 18  1  0
 18 19  2  0
 18 20  1  0
 20 21  2  0
 21 22  1  0
 22 23  1  0
 22 24  2  0
 24 25  1  0
 25 26  2  0
 26 27  1  0
 27 28  1  0
 28 29  1  0
 29 30  1  0
  6 31  2  0
 31  3  1  0
 30 11  1  0
 26 20  1  0
  1 32  1  0
  1 33  1  0
  1 34  1  0
  2 35  1  0
  2 36  1  0
  7 37  1  0
  7 38  1  0
  8 39  1  0
  8 40  1  0
 12 41  1  0
 12 42  1  0
 13 43  1  0
 13 44  1  0
 14 45  1  0
 14 46  1  0
 15 47  1  0
 15 48  1  0
 17 49  1  0
 17 50  1  0
 17 51  1  0
 21 52  1  0
 24 53  1  0
 25 54  1  0
 28 55  1  0
 28 56  1  0
 29 57  1  0
 29 58  1  0
 30 59  1  0
 30 60  1  0
M  END
$$$$
