
     RDKit          3D

 63 65  0  0  0  0  0  0  0  0999 V2000
   -1.8748    3.6818   -0.7428 C   0  0  0  0  0  0  0  0  0  0  0  0
   -1.2456    2.7060    0.2666 C   0  0  0  0  0  0  0  0  0  0  0  0
   -2.0253    2.7261    1.5896 C   0  0  0  0  0  0  0  0  0  0  0  0
   -1.0740    1.2618   -0.2890 C   0  0  0  0  0  0  0  0  0  0  0  0
   -2.4018    0.5158   -0.5467 C   0  0  0  0  0  0  0  0  0  0  0  0
   -2.8140   -0.1126    0.6664 O   0  0  0  0  0  0  0  0  0  0  0  0
   -3.8981   -0.9866    0.8184 C   0  0  0  0  0  0  0  0  0  0  0  0
   -4.7713   -0.7269    1.8830 C   0  0  0  0  0  0  0  0  0  0  0  0
   -5.8861   -1.5346    2.1087 C   0  0  0  0  0  0  0  0  0  0  0  0
   -6.1395   -2.6229    1.2742 C   0  0  0  0  0  0  0  0  0  0  0  0
   -7.5458   -3.6349    1.5540 Cl  0  0  0  0  0  0  0  0  0  0  0  0
   -5.2670   -2.9126    0.2227 C   0  0  0  0  0  0  0  0  0  0  0  0
   -4.1262   -2.1213   -0.0065 C   0  0  0  0  0  0  0  0  0  0  0  0
   -3.2366   -2.5205   -1.1186 C   0  0  0  0  0  0  0  0  0  0  0  0
   -3.7472   -2.7007   -2.2575 O   0  0  0  0  0  0  0  0  0  0  0  0
   -1.8256   -2.7387   -0.9553 N   0  0  0  0  0  0  0  0  0  0  0  0
   -1.1539   -2.8698    0.3417 C   0  0  0  0  0  0  0  0  0  0  0  0
    0.3156   -3.2816    0.1621 C   0  0  0  0  0  0  0  0  0  0  0  0
    1.1744   -2.1811   -0.4989 C   0  0  0  0  0  0  0  0  0  0  0  0
    1.8551   -1.2679    0.5344 C   0  0  0  0  0  0  0  0  0  0  0  0
    2.6284   -0.1962   -0.1177 N   0  0  0  0  0  0  0  0  0  0  0  0
    3.9412   -0.4837   -0.6488 C   0  0  0  0  0  0  0  0  0  0  0  0
    4.1782   -1.6146   -1.1503 O   0  0  0  0  0  0  0  0  0  0  0  0
    5.0371    0.5097   -0.5936 C   0  0  0  0  0  0  0  0  0  0  0  0
    5.2362    1.2802    0.5657 C   0  0  0  0  0  0  0  0  0  0  0  0
    6.2820    2.2069    0.6273 C   0  0  0  0  0  0  0  0  0  0  0  0
    7.1406    2.3685   -0.4632 C   0  0  0  0  0  0  0  0  0  0  0  0
    8.1513    3.2706   -0.4035 F   0  0  0  0  0  0  0  0  0  0  0  0
    6.9595    1.5982   -1.6154 C   0  0  0  0  0  0  0  0  0  0  0  0
    5.9175    0.6666   -1.6821 C   0  0  0  0  0  0  0  0  0  0  0  0
    5.7542   -0.0618   -2.8170 F   0  0  0  0  0  0  0  0  0  0  0  0
    2.0328    1.1418   -0.2778 C   0  0  0  0  0  0  0  0  0  0  0  0
    1.1884    1.1996   -1.5250 C   0  0  0  0  0  0  0  0  0  0  0  0
    1.7755    1.1756   -2.6396 O   0  0  0  0  0  0  0  0  0  0  0  0
   -0.2496    1.2727   -1.5040 N   0  0  0  0  0  0  0  0  0  0  0  0
   -1.8506    4.7129   -0.3291 H   0  0  0  0  0  0  0  0  0  0  0  0
   -1.3014    3.6901   -1.6940 H   0  0  0  0  0  0  0  0  0  0  0  0
   -2.9324    3.4249   -0.9574 H   0  0  0  0  0  0  0  0  0  0  0  0
   -0.2278    3.0949    0.4905 H   0  0  0  0  0  0  0  0  0  0  0  0
   -1.9897    3.7430    2.0356 H   0  0  0  0  0  0  0  0  0  0  0  0
   -3.0898    2.4519    1.4293 H   0  0  0  0  0  0  0  0  0  0  0  0
   -1.5725    2.0157    2.3139 H   0  0  0  0  0  0  0  0  0  0  0  0
   -0.5484    0.6616    0.4798 H   0  0  0  0  0  0  0  0  0  0  0  0
   -2.2341   -0.2338   -1.3383 H   0  0  0  0  0  0  0  0  0  0  0  0
   -3.2008    1.1941   -0.9056 H   0  0  0  0  0  0  0  0  0  0  0  0
   -4.5905    0.1218    2.5317 H   0  0  0  0  0  0  0  0  0  0  0  0
   -6.5547   -1.3100    2.9301 H   0  0  0  0  0  0  0  0  0  0  0  0
   -5.4688   -3.7719   -0.4067 H   0  0  0  0  0  0  0  0  0  0  0  0
   -1.2822   -2.9310   -1.8275 H   0  0  0  0  0  0  0  0  0  0  0  0
   -1.1915   -1.9156    0.8996 H   0  0  0  0  0  0  0  0  0  0  0  0
   -1.6741   -3.6467    0.9423 H   0  0  0  0  0  0  0  0  0  0  0  0
    0.7395   -3.5618    1.1510 H   0  0  0  0  0  0  0  0  0  0  0  0
    0.3484   -4.1974   -0.4683 H   0  0  0  0  0  0  0  0  0  0  0  0
    0.5640   -1.5656   -1.1910 H   0  0  0  0  0  0  0  0  0  0  0  0
    1.9516   -2.6804   -1.1112 H   0  0  0  0  0  0  0  0  0  0  0  0
    2.5341   -1.8702    1.1775 H   0  0  0  0  0  0  0  0  0  0  0  0
    1.0855   -0.8329    1.2057 H   0  0  0  0  0  0  0  0  0  0  0  0
    4.5875    1.1585    1.4241 H   0  0  0  0  0  0  0  0  0  0  0  0
    6.4275    2.7985    1.5219 H   0  0  0  0  0  0  0  0  0  0  0  0
    7.6267    1.7240   -2.4593 H   0  0  0  0  0  0  0  0  0  0  0  0
    1.4774    1.4253    0.6357 H   0  0  0  0  0  0  0  0  0  0  0  0
    2.8181    1.9179   -0.3745 H   0  0  0  0  0  0  0  0  0  0  0  0
   -0.7361    1.3691   -2.4249 H   0  0  0  0  0  0  0  0  0  0  0  0
  1  2  1  0
  2  3  1  0
  2  4  1  0
  4  5  1  0
  5  6  1  0
  6  7  1  0
  7  8  2  0
  8  9  1  0
  9 10  2  0
 10 11  1  0
 10 12  1  0
 12 13  2  0
 13 14  1  0
 14 15  2  0
 14 16  1  0
 16 17  1  0
 17 18  1  0
 18 19  1  0
 19 20  1  0
 20 21  1  0
 21 22  1  0
 22 23  2  0
 22 24  1  0
 24 25  2  0
 25 26  1  0
 26 27  2  0
 27 28  1  0
 27 29  1  0
 29 30  2  0
 30 31  1  0
 21 32  1  0
 32 33  1  0
 33 34  2  0
 33 35  1  0
 35  4  1  0
 13  7  1  0
 30 24  1  0
  1 36  1  0
  1 37  1  0
  1 38  1  0
  2 39  1  0
  3 40  1  0
  3 41  1  0
  3 42  1  0
  4 43  1  0
  5 44  1  0
  5 45  1  0
  8 46  1  0
  9 47  1  0
 12 48  1  0
 16 49  1  0
 17 50  1  0
 17 51  1  0
 18 52  1  0
 18 53  1  0
 19 54  1  0
 19 55  1  0
 20 56  1  0
 20 57  1  0
 25 58  1  0
 26 59  1  0
 29 60  1  0
 32 61  1  0
 32 62  1  0
 35 63  1  0
M  END
$$$$
