
     RDKit          3D

 79 83  0  0  0  0  0  0  0  0999 V2000
   -2.4469    0.8397   -2.9269 O   0  0  0  0  0  0  0  0  0  0  0  0
   -2.2455    0.3955   -1.7635 C   0  0  0  0  0  0  0  0  0  0  0  0
   -1.2410    1.0225   -0.9548 N   0  0  0  0  0  0  0  0  0  0  0  0
    0.1428    0.5451   -0.9638 C   0  0  0  0  0  0  0  0  0  0  0  0
    0.8337    1.0573   -2.2344 C   0  0  0  0  0  0  0  0  0  0  0  0
    2.2973    0.6287   -2.2675 C   0  0  0  0  0  0  0  0  0  0  0  0
    3.0078    1.0428   -1.0479 N   0  0  0  0  0  0  0  0  0  0  0  0
    4.4521    1.0580   -1.0400 C   0  0  0  0  0  0  0  0  0  0  0  0
    5.0685    1.7452   -0.1789 O   0  0  0  0  0  0  0  0  0  0  0  0
    5.2382    0.2933   -2.0752 C   0  0  0  0  0  0  0  0  0  0  0  0
    6.6386    0.2960   -1.7891 O   0  0  0  0  0  0  0  0  0  0  0  0
    7.2563   -0.3972   -0.7371 C   0  0  0  0  0  0  0  0  0  0  0  0
    8.6391   -0.2477   -0.5669 C   0  0  0  0  0  0  0  0  0  0  0  0
    9.3017   -0.9001    0.4775 C   0  0  0  0  0  0  0  0  0  0  0  0
    8.5859   -1.7069    1.3624 C   0  0  0  0  0  0  0  0  0  0  0  0
    7.2079   -1.8705    1.1942 C   0  0  0  0  0  0  0  0  0  0  0  0
    6.5413   -1.2247    0.1493 C   0  0  0  0  0  0  0  0  0  0  0  0
    2.2629    1.6471    0.0715 C   0  0  0  0  0  0  0  0  0  0  0  0
    0.9395    0.8927    0.3526 C   0  0  0  0  0  0  0  0  0  0  0  0
    0.1383    1.6621    1.4376 C   0  0  0  0  0  0  0  0  0  0  0  0
   -1.0582    0.8916    1.9290 C   0  0  0  0  0  0  0  0  0  0  0  0
   -2.1005    1.5189    2.4968 C   0  0  0  0  0  0  0  0  0  0  0  0
   -3.3972    0.7975    2.7978 C   0  0  0  0  0  0  0  0  0  0  0  0
   -4.5809    1.2589    1.8821 C   0  0  0  0  0  0  0  0  0  0  0  0
   -5.8351    0.3825    2.1660 C   0  0  0  0  0  0  0  0  0  0  0  0
   -6.5223    0.7470    3.4911 C   0  0  0  0  0  0  0  0  0  0  0  0
   -6.8742    2.1162    3.5200 O   0  0  0  0  0  0  0  0  0  0  0  0
   -5.7084    2.9132    3.4879 C   0  0  0  0  0  0  0  0  0  0  0  0
   -4.9718    2.7443    2.1546 C   0  0  0  0  0  0  0  0  0  0  0  0
   -4.1538    1.0901    0.4213 C   0  0  0  0  0  0  0  0  0  0  0  0
   -3.8022    2.1001   -0.2421 O   0  0  0  0  0  0  0  0  0  0  0  0
   -4.1018   -0.2146   -0.1862 N   0  0  0  0  0  0  0  0  0  0  0  0
   -3.1661   -0.6849   -1.2289 C   0  0  0  0  0  0  0  0  0  0  0  0
   -2.4129   -1.9321   -0.7101 C   0  0  0  0  0  0  0  0  0  0  0  0
   -1.5359   -2.6329   -1.7317 C   0  0  0  0  0  0  0  0  0  0  0  0
   -0.2621   -3.0951   -1.3516 C   0  0  0  0  0  0  0  0  0  0  0  0
    0.5521   -3.7708   -2.2631 C   0  0  0  0  0  0  0  0  0  0  0  0
    0.0863   -4.0339   -3.5541 C   0  0  0  0  0  0  0  0  0  0  0  0
   -1.1951   -3.6305   -3.9288 C   0  0  0  0  0  0  0  0  0  0  0  0
   -2.0112   -2.9468   -3.0203 C   0  0  0  0  0  0  0  0  0  0  0  0
   -1.3458    2.0566   -0.8471 H   0  0  0  0  0  0  0  0  0  0  0  0
    0.1274   -0.5551   -1.0382 H   0  0  0  0  0  0  0  0  0  0  0  0
    0.7734    2.1669   -2.2730 H   0  0  0  0  0  0  0  0  0  0  0  0
    0.3211    0.6588   -3.1351 H   0  0  0  0  0  0  0  0  0  0  0  0
    2.7638    1.1030   -3.1573 H   0  0  0  0  0  0  0  0  0  0  0  0
    2.3601   -0.4766   -2.3778 H   0  0  0  0  0  0  0  0  0  0  0  0
    5.0901    0.7860   -3.0596 H   0  0  0  0  0  0  0  0  0  0  0  0
    4.8686   -0.7520   -2.1481 H   0  0  0  0  0  0  0  0  0  0  0  0
    9.1980    0.3831   -1.2436 H   0  0  0  0  0  0  0  0  0  0  0  0
   10.3719   -0.7803    0.6023 H   0  0  0  0  0  0  0  0  0  0  0  0
    9.0985   -2.2098    2.1746 H   0  0  0  0  0  0  0  0  0  0  0  0
    6.6520   -2.4981    1.8796 H   0  0  0  0  0  0  0  0  0  0  0  0
    5.4729   -1.3674    0.0491 H   0  0  0  0  0  0  0  0  0  0  0  0
    2.0611    2.7180   -0.1622 H   0  0  0  0  0  0  0  0  0  0  0  0
    2.8808    1.6208    1.0002 H   0  0  0  0  0  0  0  0  0  0  0  0
    1.2403   -0.0780    0.8130 H   0  0  0  0  0  0  0  0  0  0  0  0
   -0.1805    2.6466    1.0313 H   0  0  0  0  0  0  0  0  0  0  0  0
    0.7922    1.8605    2.3158 H   0  0  0  0  0  0  0  0  0  0  0  0
   -1.0898   -0.1852    1.7786 H   0  0  0  0  0  0  0  0  0  0  0  0
   -2.0460    2.5873    2.6790 H   0  0  0  0  0  0  0  0  0  0  0  0
   -3.6317    0.9609    3.8718 H   0  0  0  0  0  0  0  0  0  0  0  0
   -3.2520   -0.3030    2.6818 H   0  0  0  0  0  0  0  0  0  0  0  0
   -6.5732    0.5151    1.3448 H   0  0  0  0  0  0  0  0  0  0  0  0
   -5.5686   -0.6966    2.2061 H   0  0  0  0  0  0  0  0  0  0  0  0
   -5.8826    0.4739    4.3565 H   0  0  0  0  0  0  0  0  0  0  0  0
   -7.4526    0.1425    3.5823 H   0  0  0  0  0  0  0  0  0  0  0  0
   -6.0125    3.9770    3.5796 H   0  0  0  0  0  0  0  0  0  0  0  0
   -5.0448    2.7019    4.3562 H   0  0  0  0  0  0  0  0  0  0  0  0
   -4.0864    3.4094    2.1389 H   0  0  0  0  0  0  0  0  0  0  0  0
   -5.6550    3.0952    1.3498 H   0  0  0  0  0  0  0  0  0  0  0  0
   -4.8210   -0.9181    0.1002 H   0  0  0  0  0  0  0  0  0  0  0  0
   -3.8066   -1.0109   -2.0788 H   0  0  0  0  0  0  0  0  0  0  0  0
   -3.1606   -2.6771   -0.3548 H   0  0  0  0  0  0  0  0  0  0  0  0
   -1.8140   -1.6357    0.1752 H   0  0  0  0  0  0  0  0  0  0  0  0
    0.1090   -2.9214   -0.3504 H   0  0  0  0  0  0  0  0  0  0  0  0
    1.5394   -4.0981   -1.9633 H   0  0  0  0  0  0  0  0  0  0  0  0
    0.7097   -4.5643   -4.2563 H   0  0  0  0  0  0  0  0  0  0  0  0
   -1.5606   -3.8568   -4.9223 H   0  0  0  0  0  0  0  0  0  0  0  0
   -3.0130   -2.6768   -3.3275 H   0  0  0  0  0  0  0  0  0  0  0  0
  1  2  2  0
  2  3  1  0
  3  4  1  0
  4  5  1  0
  5  6  1  0
  6  7  1  0
  7  8  1  0
  8  9  2  0
  8 10  1  0
 10 11  1  0
 11 12  1  0
 12 13  2  0
 13 14  1  0
 14 15  2  0
 15 16  1  0
 16 17  2  0
  7 18  1  0
 18 19  1  0
 19 20  1  0
 20 21  1  0
 21 22  2  0
 22 23  1  0
 23 24  1  0
 24 25  1  0
 25 26  1  0
 26 27  1  0
 27 28  1  0
 28 29  1  0
 24 30  1  0
 30 31  2  0
 30 32  1  0
 32 33  1  0
 33 34  1  0
 34 35  1  0
 35 36  2  0
 36 37  1  0
 37 38  2  0
 38 39  1  0
 39 40  2  0
 33  2  1  0
 40 35  1  0
 19  4  1  0
 29 24  1  0
 17 12  1  0
  3 41  1  0
  4 42  1  0
  5 43  1  0
  5 44  1  0
  6 45  1  0
  6 46  1  0
 10 47  1  0
 10 48  1  0
 13 49  1  0
 14 50  1  0
 15 51  1  0
 16 52  1  0
 17 53  1  0
 18 54  1  0
 18 55  1  0
 19 56  1  0
 20 57  1  0
 20 58  1  0
 21 59  1  0
 22 60  1  0
 23 61  1  0
 23 62  1  0
 25 63  1  0
 25 64  1  0
 26 65  1  0
 26 66  1  0
 28 67  1  0
 28 68  1  0
 29 69  1  0
 29 70  1  0
 32 71  1  0
 33 72  1  0
 34 73  1  0
 34 74  1  0
 36 75  1  0
 37 76  1  0
 38 77  1  0
 39 78  1  0
 40 79  1  0
M  END
$$$$
