
     RDKit          3D

 64 67  0  0  0  0  0  0  0  0999 V2000
    5.8819    2.2697    2.6043 C   0  0  0  0  0  0  0  0  0  0  0  0
    5.8467    1.8657    1.1374 C   0  0  0  0  0  0  0  0  0  0  0  0
    5.3259    0.5104    0.9944 N   0  0  0  0  0  0  0  0  0  0  0  0
    4.0533    0.1773    0.6955 C   0  0  0  0  0  0  0  0  0  0  0  0
    3.9683   -1.2014    0.6819 C   0  0  0  0  0  0  0  0  0  0  0  0
    2.7613   -2.0210    0.4769 C   0  0  0  0  0  0  0  0  0  0  0  0
    2.5552   -2.9992    1.2499 O   0  0  0  0  0  0  0  0  0  0  0  0
    1.8319   -1.7357   -0.5875 N   0  0  0  0  0  0  0  0  0  0  0  0
    2.2752   -1.0561   -1.8082 C   0  0  0  0  0  0  0  0  0  0  0  0
    1.1785   -1.1153   -2.8748 C   0  0  0  0  0  0  0  0  0  0  0  0
   -0.0566   -0.6552   -2.3601 O   0  0  0  0  0  0  0  0  0  0  0  0
   -0.5352   -1.3758   -1.2160 C   0  0  0  0  0  0  0  0  0  0  0  0
   -1.7786   -2.1982   -1.6589 C   0  0  0  0  0  0  0  0  0  0  0  0
   -2.9127   -1.3807   -2.3220 C   0  0  0  0  0  0  0  0  0  0  0  0
   -3.9714   -0.8461   -1.3239 C   0  0  0  0  0  0  0  0  0  0  0  0
   -4.0198    0.6856   -1.3114 C   0  0  0  0  0  0  0  0  0  0  0  0
   -4.8784    1.2035   -0.1825 C   0  0  0  0  0  0  0  0  0  0  0  0
   -6.2786    1.2472   -0.3303 C   0  0  0  0  0  0  0  0  0  0  0  0
   -7.0839    1.7197    0.7104 C   0  0  0  0  0  0  0  0  0  0  0  0
   -6.5036    2.1623    1.9025 C   0  0  0  0  0  0  0  0  0  0  0  0
   -5.1195    2.1202    2.0576 C   0  0  0  0  0  0  0  0  0  0  0  0
   -4.3005    1.6213    1.0363 C   0  0  0  0  0  0  0  0  0  0  0  0
   -2.9282    1.4920    1.2687 O   0  0  0  0  0  0  0  0  0  0  0  0
   -1.9973    2.5177    0.9404 C   0  0  0  0  0  0  0  0  0  0  0  0
   -0.5855    1.9327    0.9256 C   0  0  0  0  0  0  0  0  0  0  0  0
   -0.4220    0.9902   -0.1851 N   0  0  0  0  0  0  0  0  0  0  0  0
   -0.8851   -0.3716   -0.1225 C   0  0  0  0  0  0  0  0  0  0  0  0
   -1.5211   -0.7648    0.8957 O   0  0  0  0  0  0  0  0  0  0  0  0
    0.5097   -2.3618   -0.5976 C   0  0  0  0  0  0  0  0  0  0  0  0
    5.2436   -1.6417    0.9977 C   0  0  0  0  0  0  0  0  0  0  0  0
    5.6694   -3.0568    1.1994 C   0  0  0  0  0  0  0  0  0  0  0  0
    6.0489   -0.5821    1.1950 N   0  0  0  0  0  0  0  0  0  0  0  0
    6.3175    3.2884    2.6997 H   0  0  0  0  0  0  0  0  0  0  0  0
    4.8557    2.2786    3.0329 H   0  0  0  0  0  0  0  0  0  0  0  0
    6.5127    1.5633    3.1871 H   0  0  0  0  0  0  0  0  0  0  0  0
    5.2141    2.5803    0.5665 H   0  0  0  0  0  0  0  0  0  0  0  0
    6.8756    1.9110    0.7249 H   0  0  0  0  0  0  0  0  0  0  0  0
    3.2448    0.8839    0.5451 H   0  0  0  0  0  0  0  0  0  0  0  0
    2.4984    0.0096   -1.5778 H   0  0  0  0  0  0  0  0  0  0  0  0
    3.1950   -1.5487   -2.1995 H   0  0  0  0  0  0  0  0  0  0  0  0
    1.4730   -0.4624   -3.7242 H   0  0  0  0  0  0  0  0  0  0  0  0
    1.0767   -2.1489   -3.2782 H   0  0  0  0  0  0  0  0  0  0  0  0
   -1.4272   -2.9127   -2.4322 H   0  0  0  0  0  0  0  0  0  0  0  0
   -2.1701   -2.8229   -0.8281 H   0  0  0  0  0  0  0  0  0  0  0  0
   -3.4428   -2.0619   -3.0321 H   0  0  0  0  0  0  0  0  0  0  0  0
   -2.4902   -0.5735   -2.9642 H   0  0  0  0  0  0  0  0  0  0  0  0
   -4.9783   -1.2074   -1.6539 H   0  0  0  0  0  0  0  0  0  0  0  0
   -3.8051   -1.2372   -0.2906 H   0  0  0  0  0  0  0  0  0  0  0  0
   -2.9966    1.0943   -1.2501 H   0  0  0  0  0  0  0  0  0  0  0  0
   -4.4303    1.0446   -2.2794 H   0  0  0  0  0  0  0  0  0  0  0  0
   -6.7425    0.9043   -1.2458 H   0  0  0  0  0  0  0  0  0  0  0  0
   -8.1630    1.7492    0.5917 H   0  0  0  0  0  0  0  0  0  0  0  0
   -7.1254    2.5247    2.7089 H   0  0  0  0  0  0  0  0  0  0  0  0
   -4.6734    2.4458    2.9942 H   0  0  0  0  0  0  0  0  0  0  0  0
   -2.2298    2.9600   -0.0522 H   0  0  0  0  0  0  0  0  0  0  0  0
   -2.0569    3.3160    1.7092 H   0  0  0  0  0  0  0  0  0  0  0  0
   -0.3678    1.4281    1.8953 H   0  0  0  0  0  0  0  0  0  0  0  0
    0.1372    2.7730    0.7984 H   0  0  0  0  0  0  0  0  0  0  0  0
    0.2225    1.2742   -0.9502 H   0  0  0  0  0  0  0  0  0  0  0  0
    0.5672   -3.3019   -1.1920 H   0  0  0  0  0  0  0  0  0  0  0  0
    0.1990   -2.6579    0.4300 H   0  0  0  0  0  0  0  0  0  0  0  0
    5.4950   -3.3494    2.2536 H   0  0  0  0  0  0  0  0  0  0  0  0
    6.7498   -3.1638    0.9652 H   0  0  0  0  0  0  0  0  0  0  0  0
    5.0932   -3.7327    0.5398 H   0  0  0  0  0  0  0  0  0  0  0  0
  1  2  1  0
  2  3  1  0
  3  4  1  0
  4  5  2  0
  5  6  1  0
  6  7  2  0
  6  8  1  0
  8  9  1  0
  9 10  1  0
 10 11  1  0
 11 12  1  0
 12 13  1  0
 13 14  1  0
 14 15  1  0
 15 16  1  0
 16 17  1  0
 17 18  2  0
 18 19  1  0
 19 20  2  0
 20 21  1  0
 21 22  2  0
 22 23  1  0
 23 24  1  0
 24 25  1  0
 25 26  1  0
 26 27  1  0
 27 28  2  0
 12 29  1  0
  5 30  1  0
 30 31  1  0
 30 32  2  0
 32  3  1  0
 29  8  1  0
 27 12  1  0
 22 17  1  0
  1 33  1  0
  1 34  1  0
  1 35  1  0
  2 36  1  0
  2 37  1  0
  4 38  1  0
  9 39  1  0
  9 40  1  0
 10 41  1  0
 10 42  1  0
 13 43  1  0
 13 44  1  0
 14 45  1  0
 14 46  1  0
 15 47  1  0
 15 48  1  0
 16 49  1  0
 16 50  1  0
 18 51  1  0
 19 52  1  0
 20 53  1  0
 21 54  1  0
 24 55  1  0
 24 56  1  0
 25 57  1  0
 25 58  1  0
 26 59  1  0
 29 60  1  0
 29 61  1  0
 31 62  1  0
 31 63  1  0
 31 64  1  0
M  END
$$$$
