
     RDKit          3D

 84 87  0  0  0  0  0  0  0  0999 V2000
   -5.3438    2.8013    2.5106 C   0  0  0  0  0  0  0  0  0  0  0  0
   -5.0467    2.8415    1.0089 C   0  0  0  0  0  0  0  0  0  0  0  0
   -3.5951    2.4032    0.6761 C   0  0  0  0  0  0  0  0  0  0  0  0
   -2.6349    3.5818    0.9418 C   0  0  0  0  0  0  0  0  0  0  0  0
   -3.4856    1.8753   -0.8001 C   0  0  0  0  0  0  0  0  0  0  0  0
   -2.1556    2.1049   -1.3947 N   0  0  0  0  0  0  0  0  0  0  0  0
   -0.9244    1.4168   -1.0779 C   0  0  0  0  0  0  0  0  0  0  0  0
    0.0915    1.6503   -1.7863 O   0  0  0  0  0  0  0  0  0  0  0  0
   -0.7791    0.4743    0.0906 C   0  0  0  0  0  0  0  0  0  0  0  0
   -0.2630   -0.9203   -0.3220 C   0  0  0  0  0  0  0  0  0  0  0  0
    1.1855   -0.8867   -0.7374 C   0  0  0  0  0  0  0  0  0  0  0  0
    1.4984   -1.2369   -1.9087 O   0  0  0  0  0  0  0  0  0  0  0  0
    2.2021   -0.4926    0.1994 N   0  0  0  0  0  0  0  0  0  0  0  0
    3.6368   -0.6333   -0.0769 C   0  0  0  0  0  0  0  0  0  0  0  0
    4.4818    0.5896    0.4033 C   0  0  0  0  0  0  0  0  0  0  0  0
    5.9204    0.3773   -0.1438 C   0  0  0  0  0  0  0  0  0  0  0  0
    6.4871    1.1838   -1.1599 C   0  0  0  0  0  0  0  0  0  0  0  0
    7.7821    0.9467   -1.6293 C   0  0  0  0  0  0  0  0  0  0  0  0
    8.5303   -0.1160   -1.1280 C   0  0  0  0  0  0  0  0  0  0  0  0
    7.9808   -0.9550   -0.1634 C   0  0  0  0  0  0  0  0  0  0  0  0
    8.6939   -2.0087    0.3039 F   0  0  0  0  0  0  0  0  0  0  0  0
    6.6877   -0.7239    0.3111 C   0  0  0  0  0  0  0  0  0  0  0  0
    3.8159    1.9064   -0.1109 C   0  0  0  0  0  0  0  0  0  0  0  0
    4.5006    3.1777    0.4531 C   0  0  0  0  0  0  0  0  0  0  0  0
    5.3840    2.8965    1.5287 O   0  0  0  0  0  0  0  0  0  0  0  0
    4.7259    2.1028    2.4918 C   0  0  0  0  0  0  0  0  0  0  0  0
    4.5203    0.6675    1.9720 C   0  0  0  0  0  0  0  0  0  0  0  0
   -0.4174   -1.8572    0.7948 N   0  0  0  0  0  0  0  0  0  0  0  0
   -0.4139   -3.2786    0.6044 C   0  0  0  0  0  0  0  0  0  0  0  0
    0.2276   -4.0069    1.4106 O   0  0  0  0  0  0  0  0  0  0  0  0
   -1.1507   -3.9135   -0.5086 C   0  0  0  0  0  0  0  0  0  0  0  0
   -0.5295   -4.9410   -1.2382 C   0  0  0  0  0  0  0  0  0  0  0  0
   -1.2099   -5.5870   -2.2689 C   0  0  0  0  0  0  0  0  0  0  0  0
   -2.5225   -5.2249   -2.5752 C   0  0  0  0  0  0  0  0  0  0  0  0
   -3.1635   -4.2241   -1.8433 C   0  0  0  0  0  0  0  0  0  0  0  0
   -2.4888   -3.5592   -0.7985 C   0  0  0  0  0  0  0  0  0  0  0  0
   -3.1086   -2.5495   -0.0428 O   0  0  0  0  0  0  0  0  0  0  0  0
   -4.5081   -2.4673    0.2278 C   0  0  0  0  0  0  0  0  0  0  0  0
   -4.8462   -1.0796    0.7795 C   0  0  0  0  0  0  0  0  0  0  0  0
   -5.0419   -0.1186   -0.3133 N   0  0  0  0  0  0  0  0  0  0  0  0
   -6.3226   -0.0837   -1.0206 C   0  0  0  0  0  0  0  0  0  0  0  0
   -3.8993    0.4260   -0.9860 C   0  0  0  0  0  0  0  0  0  0  0  0
   -3.3241   -0.2745   -1.8610 O   0  0  0  0  0  0  0  0  0  0  0  0
   -6.4118    3.0551    2.6843 H   0  0  0  0  0  0  0  0  0  0  0  0
   -4.7204    3.5314    3.0632 H   0  0  0  0  0  0  0  0  0  0  0  0
   -5.1618    1.7817    2.9112 H   0  0  0  0  0  0  0  0  0  0  0  0
   -5.7808    2.1776    0.5161 H   0  0  0  0  0  0  0  0  0  0  0  0
   -5.2383    3.8680    0.6233 H   0  0  0  0  0  0  0  0  0  0  0  0
   -3.3161    1.5893    1.3758 H   0  0  0  0  0  0  0  0  0  0  0  0
   -2.7945    4.3890    0.1961 H   0  0  0  0  0  0  0  0  0  0  0  0
   -2.7871    4.0057    1.9530 H   0  0  0  0  0  0  0  0  0  0  0  0
   -1.5810    3.2409    0.8976 H   0  0  0  0  0  0  0  0  0  0  0  0
   -4.2085    2.4647   -1.4068 H   0  0  0  0  0  0  0  0  0  0  0  0
   -2.1264    2.7413   -2.2209 H   0  0  0  0  0  0  0  0  0  0  0  0
   -0.1025    0.9355    0.8383 H   0  0  0  0  0  0  0  0  0  0  0  0
   -1.7451    0.3213    0.5954 H   0  0  0  0  0  0  0  0  0  0  0  0
   -0.8768   -1.2749   -1.1808 H   0  0  0  0  0  0  0  0  0  0  0  0
    1.9001   -0.2828    1.1743 H   0  0  0  0  0  0  0  0  0  0  0  0
    3.9911   -1.5624    0.4177 H   0  0  0  0  0  0  0  0  0  0  0  0
    3.7998   -0.7649   -1.1710 H   0  0  0  0  0  0  0  0  0  0  0  0
    5.9512    1.9997   -1.6137 H   0  0  0  0  0  0  0  0  0  0  0  0
    8.2029    1.5882   -2.3898 H   0  0  0  0  0  0  0  0  0  0  0  0
    9.5283   -0.2987   -1.5017 H   0  0  0  0  0  0  0  0  0  0  0  0
    6.2851   -1.4233    1.0314 H   0  0  0  0  0  0  0  0  0  0  0  0
    3.7690    1.9364   -1.2208 H   0  0  0  0  0  0  0  0  0  0  0  0
    2.7594    1.9405    0.2358 H   0  0  0  0  0  0  0  0  0  0  0  0
    5.0887    3.6754   -0.3473 H   0  0  0  0  0  0  0  0  0  0  0  0
    3.7356    3.9242    0.7737 H   0  0  0  0  0  0  0  0  0  0  0  0
    5.3489    2.0807    3.4130 H   0  0  0  0  0  0  0  0  0  0  0  0
    3.7468    2.5552    2.7840 H   0  0  0  0  0  0  0  0  0  0  0  0
    3.5790    0.2907    2.4190 H   0  0  0  0  0  0  0  0  0  0  0  0
    5.3134    0.0222    2.4046 H   0  0  0  0  0  0  0  0  0  0  0  0
   -0.2020   -1.5133    1.7612 H   0  0  0  0  0  0  0  0  0  0  0  0
    0.4898   -5.2357   -1.0155 H   0  0  0  0  0  0  0  0  0  0  0  0
   -0.7205   -6.3687   -2.8347 H   0  0  0  0  0  0  0  0  0  0  0  0
   -3.0434   -5.7235   -3.3822 H   0  0  0  0  0  0  0  0  0  0  0  0
   -4.1761   -3.9682   -2.1175 H   0  0  0  0  0  0  0  0  0  0  0  0
   -5.1172   -2.6475   -0.6803 H   0  0  0  0  0  0  0  0  0  0  0  0
   -4.7657   -3.2395    0.9837 H   0  0  0  0  0  0  0  0  0  0  0  0
   -5.7729   -1.1426    1.3908 H   0  0  0  0  0  0  0  0  0  0  0  0
   -4.0397   -0.7313    1.4584 H   0  0  0  0  0  0  0  0  0  0  0  0
   -6.2737   -0.7341   -1.9212 H   0  0  0  0  0  0  0  0  0  0  0  0
   -6.5557    0.9535   -1.3425 H   0  0  0  0  0  0  0  0  0  0  0  0
   -7.1487   -0.4416   -0.3680 H   0  0  0  0  0  0  0  0  0  0  0  0
  1  2  1  0
  2  3  1  0
  3  4  1  0
  3  5  1  0
  5  6  1  0
  6  7  1  0
  7  8  2  0
  7  9  1  0
  9 10  1  0
 10 11  1  0
 11 12  2  0
 11 13  1  0
 13 14  1  0
 14 15  1  0
 15 16  1  0
 16 17  2  0
 17 18  1  0
 18 19  2  0
 19 20  1  0
 20 21  1  0
 20 22  2  0
 15 23  1  0
 23 24  1  0
 24 25  1  0
 25 26  1  0
 26 27  1  0
 10 28  1  0
 28 29  1  0
 29 30  2  0
 29 31  1  0
 31 32  2  0
 32 33  1  0
 33 34  2  0
 34 35  1  0
 35 36  2  0
 36 37  1  0
 37 38  1  0
 38 39  1  0
 39 40  1  0
 40 41  1  0
 40 42  1  0
 42 43  2  0
 42  5  1  0
 27 15  1  0
 36 31  1  0
 22 16  1  0
  1 44  1  0
  1 45  1  0
  1 46  1  0
  2 47  1  0
  2 48  1  0
  3 49  1  0
  4 50  1  0
  4 51  1  0
  4 52  1  0
  5 53  1  0
  6 54  1  0
  9 55  1  0
  9 56  1  0
 10 57  1  0
 13 58  1  0
 14 59  1  0
 14 60  1  0
 17 61  1  0
 18 62  1  0
 19 63  1  0
 22 64  1  0
 23 65  1  0
 23 66  1  0
 24 67  1  0
 24 68  1  0
 26 69  1  0
 26 70  1  0
 27 71  1  0
 27 72  1  0
 28 73  1  0
 32 74  1  0
 33 75  1  0
 34 76  1  0
 35 77  1  0
 38 78  1  0
 38 79  1  0
 39 80  1  0
 39 81  1  0
 41 82  1  0
 41 83  1  0
 41 84  1  0
M  END
$$$$
