
     RDKit          3D

 93 96  0  0  0  0  0  0  0  0999 V2000
    6.2585   -1.9093    3.4989 C   0  0  0  0  0  0  0  0  0  0  0  0
    6.3142   -0.8983    2.4982 O   0  0  0  0  0  0  0  0  0  0  0  0
    7.3445   -0.7581    1.5504 C   0  0  0  0  0  0  0  0  0  0  0  0
    8.4546   -1.6225    1.5332 C   0  0  0  0  0  0  0  0  0  0  0  0
    9.4732   -1.4513    0.5916 C   0  0  0  0  0  0  0  0  0  0  0  0
    9.4055   -0.4169   -0.3501 C   0  0  0  0  0  0  0  0  0  0  0  0
   10.4674   -0.2649   -1.3092 N   0  0  0  0  0  0  0  0  0  0  0  0
   10.8624    0.9941   -1.8828 C   0  0  0  0  0  0  0  0  0  0  0  0
   11.7961    1.0160   -3.0507 C   0  0  0  0  0  0  0  0  0  0  0  0
   10.4919    2.0849   -1.3658 O   0  0  0  0  0  0  0  0  0  0  0  0
    8.2825    0.4259   -0.3590 C   0  0  0  0  0  0  0  0  0  0  0  0
    7.2560    0.2696    0.5863 C   0  0  0  0  0  0  0  0  0  0  0  0
    6.0790    1.2170    0.5705 C   0  0  0  0  0  0  0  0  0  0  0  0
    4.8198    0.4791    0.4967 N   0  0  0  0  0  0  0  0  0  0  0  0
    4.4491   -0.3018   -0.6485 C   0  0  0  0  0  0  0  0  0  0  0  0
    5.1315   -0.2437   -1.7058 O   0  0  0  0  0  0  0  0  0  0  0  0
    3.2601   -1.2099   -0.5785 C   0  0  0  0  0  0  0  0  0  0  0  0
    2.0606   -0.4489   -0.1745 N   0  0  0  0  0  0  0  0  0  0  0  0
    1.5371    0.4069   -1.2758 C   0  0  0  0  0  0  0  0  0  0  0  0
    0.0450    0.1752   -1.5898 C   0  0  0  0  0  0  0  0  0  0  0  0
   -0.8659    0.2510   -0.3207 C   0  0  0  0  0  0  0  0  0  0  0  0
   -1.0004    1.7670    0.0592 C   0  0  0  0  0  0  0  0  0  0  0  0
   -2.0354    2.0455    1.1150 C   0  0  0  0  0  0  0  0  0  0  0  0
   -2.7963    3.1536    1.0594 C   0  0  0  0  0  0  0  0  0  0  0  0
   -4.0880    3.2216    1.8065 C   0  0  0  0  0  0  0  0  0  0  0  0
   -5.0944    2.6637    0.9692 O   0  0  0  0  0  0  0  0  0  0  0  0
   -6.4101    2.3673    1.3558 C   0  0  0  0  0  0  0  0  0  0  0  0
   -6.8551    2.5632    2.6802 C   0  0  0  0  0  0  0  0  0  0  0  0
   -8.1661    2.2413    3.0382 C   0  0  0  0  0  0  0  0  0  0  0  0
   -9.0543    1.7431    2.0832 C   0  0  0  0  0  0  0  0  0  0  0  0
  -10.7087    1.3728    2.5317 Cl  0  0  0  0  0  0  0  0  0  0  0  0
   -8.6308    1.5615    0.7627 C   0  0  0  0  0  0  0  0  0  0  0  0
   -7.3091    1.8570    0.3924 C   0  0  0  0  0  0  0  0  0  0  0  0
   -6.9163    1.7222   -1.0293 C   0  0  0  0  0  0  0  0  0  0  0  0
   -7.6754    2.1891   -1.9186 O   0  0  0  0  0  0  0  0  0  0  0  0
   -5.6821    1.1048   -1.4282 N   0  0  0  0  0  0  0  0  0  0  0  0
   -5.3379   -0.2949   -1.1381 C   0  0  0  0  0  0  0  0  0  0  0  0
   -6.5750   -1.2197   -1.2642 C   0  0  0  0  0  0  0  0  0  0  0  0
   -6.2370   -2.7306   -1.1647 C   0  0  0  0  0  0  0  0  0  0  0  0
   -5.4996   -3.2434   -2.4156 C   0  0  0  0  0  0  0  0  0  0  0  0
   -7.5287   -3.5315   -0.9555 C   0  0  0  0  0  0  0  0  0  0  0  0
   -4.6682   -0.4038    0.2138 C   0  0  0  0  0  0  0  0  0  0  0  0
   -5.3877   -0.4659    1.2485 O   0  0  0  0  0  0  0  0  0  0  0  0
   -3.2366   -0.4659    0.3661 N   0  0  0  0  0  0  0  0  0  0  0  0
   -2.2660   -0.3433   -0.7393 C   0  0  0  0  0  0  0  0  0  0  0  0
   -0.1875   -0.5536    0.8509 C   0  0  0  0  0  0  0  0  0  0  0  0
    1.0502   -1.3472    0.4151 C   0  0  0  0  0  0  0  0  0  0  0  0
    7.1256   -1.8187    4.1891 H   0  0  0  0  0  0  0  0  0  0  0  0
    5.3232   -1.7855    4.0864 H   0  0  0  0  0  0  0  0  0  0  0  0
    6.2471   -2.9148    3.0262 H   0  0  0  0  0  0  0  0  0  0  0  0
    8.5417   -2.4309    2.2452 H   0  0  0  0  0  0  0  0  0  0  0  0
   10.3242   -2.1211    0.6065 H   0  0  0  0  0  0  0  0  0  0  0  0
   11.0575   -1.1043   -1.5227 H   0  0  0  0  0  0  0  0  0  0  0  0
   11.5005    0.2273   -3.7754 H   0  0  0  0  0  0  0  0  0  0  0  0
   11.7441    2.0014   -3.5651 H   0  0  0  0  0  0  0  0  0  0  0  0
   12.8372    0.8212   -2.7096 H   0  0  0  0  0  0  0  0  0  0  0  0
    8.1910    1.1915   -1.1165 H   0  0  0  0  0  0  0  0  0  0  0  0
    6.0978    1.8206    1.5045 H   0  0  0  0  0  0  0  0  0  0  0  0
    6.1357    1.9253   -0.2855 H   0  0  0  0  0  0  0  0  0  0  0  0
    4.1885    0.4894    1.3280 H   0  0  0  0  0  0  0  0  0  0  0  0
    3.5027   -1.9946    0.1703 H   0  0  0  0  0  0  0  0  0  0  0  0
    3.0932   -1.7232   -1.5509 H   0  0  0  0  0  0  0  0  0  0  0  0
    1.6846    1.4676   -0.9832 H   0  0  0  0  0  0  0  0  0  0  0  0
    2.1060    0.2686   -2.2240 H   0  0  0  0  0  0  0  0  0  0  0  0
   -0.2769    0.9137   -2.3555 H   0  0  0  0  0  0  0  0  0  0  0  0
   -0.0483   -0.8271   -2.0717 H   0  0  0  0  0  0  0  0  0  0  0  0
   -1.2623    2.3429   -0.8614 H   0  0  0  0  0  0  0  0  0  0  0  0
   -0.0274    2.1735    0.4193 H   0  0  0  0  0  0  0  0  0  0  0  0
   -2.2210    1.3012    1.8864 H   0  0  0  0  0  0  0  0  0  0  0  0
   -2.6099    3.9043    0.2927 H   0  0  0  0  0  0  0  0  0  0  0  0
   -4.3287    4.2791    2.0267 H   0  0  0  0  0  0  0  0  0  0  0  0
   -4.0100    2.6528    2.7554 H   0  0  0  0  0  0  0  0  0  0  0  0
   -6.1994    2.9685    3.4389 H   0  0  0  0  0  0  0  0  0  0  0  0
   -8.4950    2.3830    4.0585 H   0  0  0  0  0  0  0  0  0  0  0  0
   -9.3357    1.1854    0.0283 H   0  0  0  0  0  0  0  0  0  0  0  0
   -5.1895    1.5477   -2.2365 H   0  0  0  0  0  0  0  0  0  0  0  0
   -4.6274   -0.6240   -1.9205 H   0  0  0  0  0  0  0  0  0  0  0  0
   -7.2942   -0.9553   -0.4607 H   0  0  0  0  0  0  0  0  0  0  0  0
   -7.0831   -1.0233   -2.2347 H   0  0  0  0  0  0  0  0  0  0  0  0
   -5.5866   -2.9107   -0.2787 H   0  0  0  0  0  0  0  0  0  0  0  0
   -5.3537   -4.3440   -2.3442 H   0  0  0  0  0  0  0  0  0  0  0  0
   -6.0888   -3.0210   -3.3334 H   0  0  0  0  0  0  0  0  0  0  0  0
   -4.4907   -2.7860   -2.5034 H   0  0  0  0  0  0  0  0  0  0  0  0
   -8.0279   -3.2122   -0.0146 H   0  0  0  0  0  0  0  0  0  0  0  0
   -7.3049   -4.6178   -0.8761 H   0  0  0  0  0  0  0  0  0  0  0  0
   -8.2323   -3.3646   -1.8017 H   0  0  0  0  0  0  0  0  0  0  0  0
   -2.9213   -0.8723    1.2761 H   0  0  0  0  0  0  0  0  0  0  0  0
   -2.1294   -1.3574   -1.1826 H   0  0  0  0  0  0  0  0  0  0  0  0
   -2.6781    0.3245   -1.5312 H   0  0  0  0  0  0  0  0  0  0  0  0
   -0.8711   -1.2914    1.3149 H   0  0  0  0  0  0  0  0  0  0  0  0
    0.1310    0.1350    1.6680 H   0  0  0  0  0  0  0  0  0  0  0  0
    1.4770   -1.8431    1.3157 H   0  0  0  0  0  0  0  0  0  0  0  0
    0.7584   -2.1492   -0.3002 H   0  0  0  0  0  0  0  0  0  0  0  0
  1  2  1  0
  2  3  1  0
  3  4  2  0
  4  5  1  0
  5  6  2  0
  6  7  1  0
  7  8  1  0
  8  9  1  0
  8 10  2  0
  6 11  1  0
 11 12  2  0
 12 13  1  0
 13 14  1  0
 14 15  1  0
 15 16  2  0
 15 17  1  0
 17 18  1  0
 18 19  1  0
 19 20  1  0
 20 21  1  0
 21 22  1  0
 22 23  1  0
 23 24  2  0
 24 25  1  0
 25 26  1  0
 26 27  1  0
 27 28  2  0
 28 29  1  0
 29 30  2  0
 30 31  1  0
 30 32  1  0
 32 33  2  0
 33 34  1  0
 34 35  2  0
 34 36  1  0
 36 37  1  0
 37 38  1  0
 38 39  1  0
 39 40  1  0
 39 41  1  0
 37 42  1  0
 42 43  2  0
 42 44  1  0
 44 45  1  0
 21 46  1  0
 46 47  1  0
 12  3  1  0
 47 18  1  0
 45 21  1  0
 33 27  1  0
  1 48  1  0
  1 49  1  0
  1 50  1  0
  4 51  1  0
  5 52  1  0
  7 53  1  0
  9 54  1  0
  9 55  1  0
  9 56  1  0
 11 57  1  0
 13 58  1  0
 13 59  1  0
 14 60  1  0
 17 61  1  0
 17 62  1  0
 19 63  1  0
 19 64  1  0
 20 65  1  0
 20 66  1  0
 22 67  1  0
 22 68  1  0
 23 69  1  0
 24 70  1  0
 25 71  1  0
 25 72  1  0
 28 73  1  0
 29 74  1  0
 32 75  1  0
 36 76  1  0
 37 77  1  0
 38 78  1  0
 38 79  1  0
 39 80  1  0
 40 81  1  0
 40 82  1  0
 40 83  1  0
 41 84  1  0
 41 85  1  0
 41 86  1  0
 44 87  1  0
 45 88  1  0
 45 89  1  0
 46 90  1  0
 46 91  1  0
 47 92  1  0
 47 93  1  0
M  END
$$$$
