
     RDKit          3D

 70 71  0  0  0  0  0  0  0  0999 V2000
    8.2020    2.4770   -0.6716 C   0  0  0  0  0  0  0  0  0  0  0  0
    6.8331    2.1340   -0.6547 O   0  0  0  0  0  0  0  0  0  0  0  0
    6.4808    1.5595   -1.8980 C   0  0  0  0  0  0  0  0  0  0  0  0
    4.9798    1.2588   -1.9232 C   0  0  0  0  0  0  0  0  0  0  0  0
    4.5969    0.1625   -0.9163 C   0  0  0  0  0  0  0  0  0  0  0  0
    3.1589   -0.0992   -0.9558 N   0  0  0  0  0  0  0  0  0  0  0  0
    2.5404   -1.0346   -0.0643 C   0  0  0  0  0  0  0  0  0  0  0  0
    3.2513   -1.7626    0.6822 O   0  0  0  0  0  0  0  0  0  0  0  0
    1.0367   -1.1132    0.0192 C   0  0  0  0  0  0  0  0  0  0  0  0
    0.5001   -0.2430    1.1798 C   0  0  0  0  0  0  0  0  0  0  0  0
    0.6813    1.2299    0.8921 C   0  0  0  0  0  0  0  0  0  0  0  0
    1.7069    1.8030    1.3511 O   0  0  0  0  0  0  0  0  0  0  0  0
   -0.2024    1.9832    0.0345 N   0  0  0  0  0  0  0  0  0  0  0  0
   -1.5456    1.5641   -0.4013 C   0  0  0  0  0  0  0  0  0  0  0  0
   -2.5216    2.7550   -0.2931 C   0  0  0  0  0  0  0  0  0  0  0  0
   -2.7412    3.2458    1.1594 C   0  0  0  0  0  0  0  0  0  0  0  0
   -3.5263    4.5670    1.1538 C   0  0  0  0  0  0  0  0  0  0  0  0
   -3.4839    2.1991    2.0105 C   0  0  0  0  0  0  0  0  0  0  0  0
   -1.5064    1.0655   -1.8345 C   0  0  0  0  0  0  0  0  0  0  0  0
   -0.4937    1.3109   -2.5436 O   0  0  0  0  0  0  0  0  0  0  0  0
   -2.6095    0.3567   -2.4389 N   0  0  0  0  0  0  0  0  0  0  0  0
   -3.6950   -0.3051   -1.7020 C   0  0  0  0  0  0  0  0  0  0  0  0
   -3.4567   -1.8205   -1.5835 C   0  0  0  0  0  0  0  0  0  0  0  0
   -2.0450   -2.1329   -1.0867 C   0  0  0  0  0  0  0  0  0  0  0  0
   -1.9206   -3.4831   -0.6472 O   0  0  0  0  0  0  0  0  0  0  0  0
   -2.0941   -3.8365    0.6961 C   0  0  0  0  0  0  0  0  0  0  0  0
   -3.3346   -4.3693    1.0748 C   0  0  0  0  0  0  0  0  0  0  0  0
   -3.5817   -4.7244    2.4025 C   0  0  0  0  0  0  0  0  0  0  0  0
   -2.5874   -4.5639    3.3646 C   0  0  0  0  0  0  0  0  0  0  0  0
   -1.3348   -4.0629    2.9990 C   0  0  0  0  0  0  0  0  0  0  0  0
   -1.0588   -3.6920    1.6643 C   0  0  0  0  0  0  0  0  0  0  0  0
    0.3116   -3.1834    1.3433 C   0  0  0  0  0  0  0  0  0  0  0  0
    1.2554   -3.3514    2.1708 O   0  0  0  0  0  0  0  0  0  0  0  0
    0.5976   -2.5132    0.1110 N   0  0  0  0  0  0  0  0  0  0  0  0
    8.4119    3.2533   -1.4417 H   0  0  0  0  0  0  0  0  0  0  0  0
    8.4746    2.9044    0.3183 H   0  0  0  0  0  0  0  0  0  0  0  0
    8.8417    1.5797   -0.8349 H   0  0  0  0  0  0  0  0  0  0  0  0
    6.6996    2.2663   -2.7338 H   0  0  0  0  0  0  0  0  0  0  0  0
    7.0393    0.6098   -2.0705 H   0  0  0  0  0  0  0  0  0  0  0  0
    4.4196    2.1936   -1.6919 H   0  0  0  0  0  0  0  0  0  0  0  0
    4.6937    0.9287   -2.9489 H   0  0  0  0  0  0  0  0  0  0  0  0
    5.1455   -0.7736   -1.1572 H   0  0  0  0  0  0  0  0  0  0  0  0
    4.8735    0.4901    0.1098 H   0  0  0  0  0  0  0  0  0  0  0  0
    2.5507    0.4646   -1.5929 H   0  0  0  0  0  0  0  0  0  0  0  0
    0.6158   -0.7084   -0.9250 H   0  0  0  0  0  0  0  0  0  0  0  0
   -0.5605   -0.4725    1.3918 H   0  0  0  0  0  0  0  0  0  0  0  0
    1.0502   -0.4985    2.1125 H   0  0  0  0  0  0  0  0  0  0  0  0
    0.1539    2.9046   -0.3145 H   0  0  0  0  0  0  0  0  0  0  0  0
   -1.9147    0.7555    0.2443 H   0  0  0  0  0  0  0  0  0  0  0  0
   -2.1178    3.5928   -0.9022 H   0  0  0  0  0  0  0  0  0  0  0  0
   -3.5013    2.4829   -0.7419 H   0  0  0  0  0  0  0  0  0  0  0  0
   -1.7550    3.4529    1.6346 H   0  0  0  0  0  0  0  0  0  0  0  0
   -2.9804    5.3402    0.5677 H   0  0  0  0  0  0  0  0  0  0  0  0
   -4.5326    4.4204    0.7044 H   0  0  0  0  0  0  0  0  0  0  0  0
   -3.6495    4.9449    2.1921 H   0  0  0  0  0  0  0  0  0  0  0  0
   -4.3856    1.8271    1.4818 H   0  0  0  0  0  0  0  0  0  0  0  0
   -3.7979    2.6310    2.9787 H   0  0  0  0  0  0  0  0  0  0  0  0
   -2.8233    1.3380    2.2334 H   0  0  0  0  0  0  0  0  0  0  0  0
   -2.5492    0.1679   -3.4622 H   0  0  0  0  0  0  0  0  0  0  0  0
   -4.6493   -0.1402   -2.2461 H   0  0  0  0  0  0  0  0  0  0  0  0
   -3.8318    0.1322   -0.6927 H   0  0  0  0  0  0  0  0  0  0  0  0
   -3.6098   -2.3016   -2.5756 H   0  0  0  0  0  0  0  0  0  0  0  0
   -4.2045   -2.2386   -0.8766 H   0  0  0  0  0  0  0  0  0  0  0  0
   -1.7953   -1.4515   -0.2526 H   0  0  0  0  0  0  0  0  0  0  0  0
   -1.3264   -1.9681   -1.9187 H   0  0  0  0  0  0  0  0  0  0  0  0
   -4.1147   -4.5006    0.3338 H   0  0  0  0  0  0  0  0  0  0  0  0
   -4.5484   -5.1197    2.6870 H   0  0  0  0  0  0  0  0  0  0  0  0
   -2.7872   -4.8303    4.3981 H   0  0  0  0  0  0  0  0  0  0  0  0
   -0.5794   -3.9572    3.7680 H   0  0  0  0  0  0  0  0  0  0  0  0
    0.6514   -3.1011   -0.7520 H   0  0  0  0  0  0  0  0  0  0  0  0
  1  2  1  0
  2  3  1  0
  3  4  1  0
  4  5  1  0
  5  6  1  0
  6  7  1  0
  7  8  2  0
  7  9  1  0
  9 10  1  0
 10 11  1  0
 11 12  2  0
 11 13  1  0
 13 14  1  0
 14 15  1  0
 15 16  1  0
 16 17  1  0
 16 18  1  0
 14 19  1  0
 19 20  2  0
 19 21  1  0
 21 22  1  0
 22 23  1  0
 23 24  1  0
 24 25  1  0
 25 26  1  0
 26 27  2  0
 27 28  1  0
 28 29  2  0
 29 30  1  0
 30 31  2  0
 31 32  1  0
 32 33  2  0
 32 34  1  0
 34  9  1  0
 31 26  1  0
  1 35  1  0
  1 36  1  0
  1 37  1  0
  3 38  1  0
  3 39  1  0
  4 40  1  0
  4 41  1  0
  5 42  1  0
  5 43  1  0
  6 44  1  0
  9 45  1  0
 10 46  1  0
 10 47  1  0
 13 48  1  0
 14 49  1  0
 15 50  1  0
 15 51  1  0
 16 52  1  0
 17 53  1  0
 17 54  1  0
 17 55  1  0
 18 56  1  0
 18 57  1  0
 18 58  1  0
 21 59  1  0
 22 60  1  0
 22 61  1  0
 23 62  1  0
 23 63  1  0
 24 64  1  0
 24 65  1  0
 27 66  1  0
 28 67  1  0
 29 68  1  0
 30 69  1  0
 34 70  1  0
M  END
$$$$
