
     RDKit          3D

 68 70  0  0  0  0  0  0  0  0999 V2000
    6.5624   -1.0429    1.7369 C   0  0  0  0  0  0  0  0  0  0  0  0
    6.2637    0.1575    0.8927 C   0  0  0  0  0  0  0  0  0  0  0  0
    7.2923    1.0122    0.4801 C   0  0  0  0  0  0  0  0  0  0  0  0
    6.9819    2.1307   -0.2953 C   0  0  0  0  0  0  0  0  0  0  0  0
    5.6601    2.3777   -0.6666 C   0  0  0  0  0  0  0  0  0  0  0  0
    4.6483    1.4918   -0.2575 C   0  0  0  0  0  0  0  0  0  0  0  0
    3.2326    1.7416   -0.6466 C   0  0  0  0  0  0  0  0  0  0  0  0
    2.9026    2.9332   -0.9100 O   0  0  0  0  0  0  0  0  0  0  0  0
    2.2288    0.6897   -0.7399 N   0  0  0  0  0  0  0  0  0  0  0  0
    2.6321   -0.7331   -0.6202 C   0  0  0  0  0  0  0  0  0  0  0  0
    1.6501   -1.7771   -1.1991 C   0  0  0  0  0  0  0  0  0  0  0  0
    0.6130   -2.2636   -0.1679 C   0  0  0  0  0  0  0  0  0  0  0  0
   -0.2275   -3.4357   -0.6889 C   0  0  0  0  0  0  0  0  0  0  0  0
   -1.1308   -3.0093   -1.7606 N   0  0  0  0  0  0  0  0  0  0  0  0
   -2.5561   -2.8913   -1.6141 C   0  0  0  0  0  0  0  0  0  0  0  0
   -3.2607   -2.6548   -2.6329 O   0  0  0  0  0  0  0  0  0  0  0  0
   -3.2296   -3.1100   -0.3227 C   0  0  0  0  0  0  0  0  0  0  0  0
   -3.7584   -4.3918   -0.0889 C   0  0  0  0  0  0  0  0  0  0  0  0
   -4.3347   -4.7127    1.1417 C   0  0  0  0  0  0  0  0  0  0  0  0
   -4.9571   -6.3293    1.4257 Cl  0  0  0  0  0  0  0  0  0  0  0  0
   -4.3925   -3.7517    2.1515 C   0  0  0  0  0  0  0  0  0  0  0  0
   -3.8860   -2.4688    1.9290 C   0  0  0  0  0  0  0  0  0  0  0  0
   -3.3142   -2.1201    0.6977 C   0  0  0  0  0  0  0  0  0  0  0  0
   -2.8505   -0.7954    0.5816 O   0  0  0  0  0  0  0  0  0  0  0  0
   -2.6109   -0.0733   -0.6266 C   0  0  0  0  0  0  0  0  0  0  0  0
   -2.1997    1.3732   -0.3053 C   0  0  0  0  0  0  0  0  0  0  0  0
   -3.4321    2.2204    0.0828 C   0  0  0  0  0  0  0  0  0  0  0  0
   -3.0977    3.6962    0.4166 C   0  0  0  0  0  0  0  0  0  0  0  0
   -2.4882    4.4402   -0.7826 C   0  0  0  0  0  0  0  0  0  0  0  0
   -4.3635    4.4222    0.8910 C   0  0  0  0  0  0  0  0  0  0  0  0
   -1.2046    1.3832    0.7765 N   0  0  0  0  0  0  0  0  0  0  0  0
    0.2107    1.2204    0.5816 C   0  0  0  0  0  0  0  0  0  0  0  0
    0.9676    1.2109    1.5916 O   0  0  0  0  0  0  0  0  0  0  0  0
    0.8089    1.1006   -0.7952 C   0  0  0  0  0  0  0  0  0  0  0  0
    4.9814    0.4244    0.5249 N   0  0  0  0  0  0  0  0  0  0  0  0
    6.9325   -0.7144    2.7328 H   0  0  0  0  0  0  0  0  0  0  0  0
    7.3399   -1.6659    1.2430 H   0  0  0  0  0  0  0  0  0  0  0  0
    5.6478   -1.6594    1.8776 H   0  0  0  0  0  0  0  0  0  0  0  0
    8.3203    0.8187    0.7594 H   0  0  0  0  0  0  0  0  0  0  0  0
    7.7658    2.8036   -0.6179 H   0  0  0  0  0  0  0  0  0  0  0  0
    5.4349    3.2460   -1.2784 H   0  0  0  0  0  0  0  0  0  0  0  0
    3.5814   -0.8704   -1.1836 H   0  0  0  0  0  0  0  0  0  0  0  0
    2.8415   -0.9690    0.4446 H   0  0  0  0  0  0  0  0  0  0  0  0
    2.2542   -2.6621   -1.4980 H   0  0  0  0  0  0  0  0  0  0  0  0
    1.1729   -1.4064   -2.1288 H   0  0  0  0  0  0  0  0  0  0  0  0
    1.1493   -2.6131    0.7416 H   0  0  0  0  0  0  0  0  0  0  0  0
   -0.0597   -1.4425    0.1413 H   0  0  0  0  0  0  0  0  0  0  0  0
    0.4400   -4.2361   -1.0733 H   0  0  0  0  0  0  0  0  0  0  0  0
   -0.7969   -3.8724    0.1569 H   0  0  0  0  0  0  0  0  0  0  0  0
   -0.7156   -2.7996   -2.6983 H   0  0  0  0  0  0  0  0  0  0  0  0
   -3.6936   -5.1524   -0.8602 H   0  0  0  0  0  0  0  0  0  0  0  0
   -4.8289   -3.9980    3.1106 H   0  0  0  0  0  0  0  0  0  0  0  0
   -3.9450   -1.7293    2.7187 H   0  0  0  0  0  0  0  0  0  0  0  0
   -1.7831   -0.5361   -1.1889 H   0  0  0  0  0  0  0  0  0  0  0  0
   -3.5209   -0.0916   -1.2667 H   0  0  0  0  0  0  0  0  0  0  0  0
   -1.7659    1.8091   -1.2294 H   0  0  0  0  0  0  0  0  0  0  0  0
   -3.9228    1.7537    0.9674 H   0  0  0  0  0  0  0  0  0  0  0  0
   -4.1653    2.1930   -0.7542 H   0  0  0  0  0  0  0  0  0  0  0  0
   -2.3655    3.7273    1.2534 H   0  0  0  0  0  0  0  0  0  0  0  0
   -2.3772    5.5214   -0.5512 H   0  0  0  0  0  0  0  0  0  0  0  0
   -3.1333    4.3304   -1.6800 H   0  0  0  0  0  0  0  0  0  0  0  0
   -1.4762    4.0498   -1.0156 H   0  0  0  0  0  0  0  0  0  0  0  0
   -4.7741    3.9237    1.7935 H   0  0  0  0  0  0  0  0  0  0  0  0
   -4.1282    5.4721    1.1618 H   0  0  0  0  0  0  0  0  0  0  0  0
   -5.1394    4.4194    0.0958 H   0  0  0  0  0  0  0  0  0  0  0  0
   -1.5481    1.4020    1.7629 H   0  0  0  0  0  0  0  0  0  0  0  0
    0.6982    2.0793   -1.3089 H   0  0  0  0  0  0  0  0  0  0  0  0
    0.2192    0.4041   -1.4090 H   0  0  0  0  0  0  0  0  0  0  0  0
  1  2  1  0
  2  3  2  0
  3  4  1  0
  4  5  2  0
  5  6  1  0
  6  7  1  0
  7  8  2  0
  7  9  1  0
  9 10  1  0
 10 11  1  0
 11 12  1  0
 12 13  1  0
 13 14  1  0
 14 15  1  0
 15 16  2  0
 15 17  1  0
 17 18  2  0
 18 19  1  0
 19 20  1  0
 19 21  2  0
 21 22  1  0
 22 23  2  0
 23 24  1  0
 24 25  1  0
 25 26  1  0
 26 27  1  0
 27 28  1  0
 28 29  1  0
 28 30  1  0
 26 31  1  0
 31 32  1  0
 32 33  2  0
 32 34  1  0
  6 35  2  0
 35  2  1  0
 34  9  1  0
 23 17  1  0
  1 36  1  0
  1 37  1  0
  1 38  1  0
  3 39  1  0
  4 40  1  0
  5 41  1  0
 10 42  1  0
 10 43  1  0
 11 44  1  0
 11 45  1  0
 12 46  1  0
 12 47  1  0
 13 48  1  0
 13 49  1  0
 14 50  1  0
 18 51  1  0
 21 52  1  0
 22 53  1  0
 25 54  1  0
 25 55  1  0
 26 56  1  0
 27 57  1  0
 27 58  1  0
 28 59  1  0
 29 60  1  0
 29 61  1  0
 29 62  1  0
 30 63  1  0
 30 64  1  0
 30 65  1  0
 31 66  1  0
 34 67  1  0
 34 68  1  0
M  END
$$$$
