
     RDKit          3D

 57 60  0  0  0  0  0  0  0  0999 V2000
    7.1830   -2.0792   -0.9319 C   0  0  0  0  0  0  0  0  0  0  0  0
    5.8468   -1.5733   -0.4913 C   0  0  0  0  0  0  0  0  0  0  0  0
    4.9344   -1.0629   -1.4213 C   0  0  0  0  0  0  0  0  0  0  0  0
    3.7283   -0.6078   -0.9930 N   0  0  0  0  0  0  0  0  0  0  0  0
    3.3800   -0.6376    0.3222 C   0  0  0  0  0  0  0  0  0  0  0  0
    2.0589   -0.1309    0.7436 C   0  0  0  0  0  0  0  0  0  0  0  0
    1.7056   -0.2062    1.9511 O   0  0  0  0  0  0  0  0  0  0  0  0
    1.1596    0.4534   -0.2138 N   0  0  0  0  0  0  0  0  0  0  0  0
    1.4249    1.8281   -0.6677 C   0  0  0  0  0  0  0  0  0  0  0  0
    1.5386    2.8198    0.5019 C   0  0  0  0  0  0  0  0  0  0  0  0
    0.2523    2.9313    1.3367 C   0  0  0  0  0  0  0  0  0  0  0  0
   -0.8801    3.6964    0.6152 C   0  0  0  0  0  0  0  0  0  0  0  0
   -2.0282    2.7941    0.1334 C   0  0  0  0  0  0  0  0  0  0  0  0
   -2.8067    2.1546    1.2949 C   0  0  0  0  0  0  0  0  0  0  0  0
   -4.1361    1.8294    0.8962 O   0  0  0  0  0  0  0  0  0  0  0  0
   -4.5733    0.7281    0.1380 C   0  0  0  0  0  0  0  0  0  0  0  0
   -5.9447    0.6849   -0.1520 C   0  0  0  0  0  0  0  0  0  0  0  0
   -6.4957   -0.3732   -0.8754 C   0  0  0  0  0  0  0  0  0  0  0  0
   -5.6802   -1.4080   -1.3247 C   0  0  0  0  0  0  0  0  0  0  0  0
   -4.3130   -1.3867   -1.0502 C   0  0  0  0  0  0  0  0  0  0  0  0
   -3.7395   -0.3289   -0.3152 C   0  0  0  0  0  0  0  0  0  0  0  0
   -2.3579   -0.3194   -0.0815 O   0  0  0  0  0  0  0  0  0  0  0  0
   -1.5999   -1.4765    0.1395 C   0  0  0  0  0  0  0  0  0  0  0  0
   -2.1508   -2.5280    0.8097 N   0  0  0  0  0  0  0  0  0  0  0  0
   -1.4610   -3.6728    1.0512 C   0  0  0  0  0  0  0  0  0  0  0  0
   -0.1461   -3.8011    0.6075 C   0  0  0  0  0  0  0  0  0  0  0  0
    0.4469   -2.7451   -0.0833 C   0  0  0  0  0  0  0  0  0  0  0  0
   -0.2718   -1.5623   -0.3228 C   0  0  0  0  0  0  0  0  0  0  0  0
    0.3780   -0.4332   -1.0899 C   0  0  0  0  0  0  0  0  0  0  0  0
    4.2955   -1.1538    1.2522 C   0  0  0  0  0  0  0  0  0  0  0  0
    5.5040   -1.6052    0.8239 N   0  0  0  0  0  0  0  0  0  0  0  0
    7.7392   -1.2693   -1.4501 H   0  0  0  0  0  0  0  0  0  0  0  0
    7.0488   -2.9344   -1.6276 H   0  0  0  0  0  0  0  0  0  0  0  0
    7.7788   -2.4188   -0.0585 H   0  0  0  0  0  0  0  0  0  0  0  0
    5.1795   -1.0246   -2.4752 H   0  0  0  0  0  0  0  0  0  0  0  0
    0.6315    2.1760   -1.3629 H   0  0  0  0  0  0  0  0  0  0  0  0
    2.3788    1.8428   -1.2376 H   0  0  0  0  0  0  0  0  0  0  0  0
    1.8132    3.8210    0.1033 H   0  0  0  0  0  0  0  0  0  0  0  0
    2.3736    2.5098    1.1665 H   0  0  0  0  0  0  0  0  0  0  0  0
    0.5075    3.4907    2.2632 H   0  0  0  0  0  0  0  0  0  0  0  0
   -0.0713    1.9232    1.6669 H   0  0  0  0  0  0  0  0  0  0  0  0
   -0.4811    4.2559   -0.2590 H   0  0  0  0  0  0  0  0  0  0  0  0
   -1.2968    4.4645    1.3031 H   0  0  0  0  0  0  0  0  0  0  0  0
   -1.6361    2.0153   -0.5484 H   0  0  0  0  0  0  0  0  0  0  0  0
   -2.7271    3.4255   -0.4571 H   0  0  0  0  0  0  0  0  0  0  0  0
   -2.2905    1.2698    1.7183 H   0  0  0  0  0  0  0  0  0  0  0  0
   -2.8905    2.8917    2.1213 H   0  0  0  0  0  0  0  0  0  0  0  0
   -6.5923    1.4814    0.1939 H   0  0  0  0  0  0  0  0  0  0  0  0
   -7.5571   -0.3887   -1.0887 H   0  0  0  0  0  0  0  0  0  0  0  0
   -6.1061   -2.2250   -1.8931 H   0  0  0  0  0  0  0  0  0  0  0  0
   -3.6947   -2.1884   -1.4327 H   0  0  0  0  0  0  0  0  0  0  0  0
   -1.9354   -4.4838    1.5872 H   0  0  0  0  0  0  0  0  0  0  0  0
    0.4080   -4.7121    0.7941 H   0  0  0  0  0  0  0  0  0  0  0  0
    1.4660   -2.8499   -0.4353 H   0  0  0  0  0  0  0  0  0  0  0  0
    1.0471   -0.8506   -1.8735 H   0  0  0  0  0  0  0  0  0  0  0  0
   -0.4031    0.1447   -1.6284 H   0  0  0  0  0  0  0  0  0  0  0  0
    4.0583   -1.1945    2.3069 H   0  0  0  0  0  0  0  0  0  0  0  0
  1  2  1  0
  2  3  2  0
  3  4  1  0
  4  5  2  0
  5  6  1  0
  6  7  2  0
  6  8  1  0
  8  9  1  0
  9 10  1  0
 10 11  1  0
 11 12  1  0
 12 13  1  0
 13 14  1  0
 14 15  1  0
 15 16  1  0
 16 17  2  0
 17 18  1  0
 18 19  2  0
 19 20  1  0
 20 21  2  0
 21 22  1  0
 22 23  1  0
 23 24  2  0
 24 25  1  0
 25 26  2  0
 26 27  1  0
 27 28  2  0
 28 29  1  0
  5 30  1  0
 30 31  2  0
 31  2  1  0
 29  8  1  0
 21 16  1  0
 28 23  1  0
  1 32  1  0
  1 33  1  0
  1 34  1  0
  3 35  1  0
  9 36  1  0
  9 37  1  0
 10 38  1  0
 10 39  1  0
 11 40  1  0
 11 41  1  0
 12 42  1  0
 12 43  1  0
 13 44  1  0
 13 45  1  0
 14 46  1  0
 14 47  1  0
 17 48  1  0
 18 49  1  0
 19 50  1  0
 20 51  1  0
 25 52  1  0
 26 53  1  0
 27 54  1  0
 29 55  1  0
 29 56  1  0
 30 57  1  0
M  END
$$$$
