
     RDKit          3D

 80 83  0  0  0  0  0  0  0  0999 V2000
   -8.2526   -0.1805    0.1138 C   0  0  0  0  0  0  0  0  0  0  0  0
   -6.9382   -0.1941   -0.5466 N   0  0  0  0  0  0  0  0  0  0  0  0
   -6.4966    1.0219   -1.2570 C   0  0  0  0  0  0  0  0  0  0  0  0
   -6.2734    2.2452   -0.3346 C   0  0  0  0  0  0  0  0  0  0  0  0
   -5.7099    2.0009    0.9678 O   0  0  0  0  0  0  0  0  0  0  0  0
   -4.9779    0.8883    1.4123 C   0  0  0  0  0  0  0  0  0  0  0  0
   -5.5797    0.0990    2.4058 C   0  0  0  0  0  0  0  0  0  0  0  0
   -4.9226   -1.0029    2.9461 C   0  0  0  0  0  0  0  0  0  0  0  0
   -3.6362   -1.3214    2.5188 C   0  0  0  0  0  0  0  0  0  0  0  0
   -3.0015   -0.5287    1.5623 C   0  0  0  0  0  0  0  0  0  0  0  0
   -3.6430    0.5996    1.0078 C   0  0  0  0  0  0  0  0  0  0  0  0
   -2.8900    1.4031    0.0106 C   0  0  0  0  0  0  0  0  0  0  0  0
   -3.4874    1.9062   -0.9775 O   0  0  0  0  0  0  0  0  0  0  0  0
   -1.4570    1.5046    0.0922 N   0  0  0  0  0  0  0  0  0  0  0  0
   -0.6169    1.4241   -1.1123 C   0  0  0  0  0  0  0  0  0  0  0  0
    0.6589    2.2114   -0.9223 C   0  0  0  0  0  0  0  0  0  0  0  0
    0.8676    2.8424    0.1495 O   0  0  0  0  0  0  0  0  0  0  0  0
    1.6304    2.2698   -1.9806 N   0  0  0  0  0  0  0  0  0  0  0  0
    2.9959    2.7339   -1.7552 C   0  0  0  0  0  0  0  0  0  0  0  0
    3.7342    1.7532   -0.8834 C   0  0  0  0  0  0  0  0  0  0  0  0
    4.1318    0.5143   -1.4058 C   0  0  0  0  0  0  0  0  0  0  0  0
    4.7783   -0.4193   -0.5911 C   0  0  0  0  0  0  0  0  0  0  0  0
    5.0450   -0.1271    0.7577 C   0  0  0  0  0  0  0  0  0  0  0  0
    5.7450   -1.1396    1.6410 C   0  0  0  0  0  0  0  0  0  0  0  0
    7.2119   -0.9683    1.7122 N   0  0  0  0  0  0  0  0  0  0  0  0
    7.8969   -1.2620    0.4388 C   0  0  0  0  0  0  0  0  0  0  0  0
    9.3947   -0.9162    0.5380 C   0  0  0  0  0  0  0  0  0  0  0  0
    9.7940   -0.7991    1.8903 O   0  0  0  0  0  0  0  0  0  0  0  0
    9.1600    0.3207    2.4916 C   0  0  0  0  0  0  0  0  0  0  0  0
    7.6336    0.3317    2.2589 C   0  0  0  0  0  0  0  0  0  0  0  0
    4.6245    1.1030    1.2841 C   0  0  0  0  0  0  0  0  0  0  0  0
    3.9788    2.0376    0.4684 C   0  0  0  0  0  0  0  0  0  0  0  0
   -0.2924   -0.0563   -1.4157 C   0  0  0  0  0  0  0  0  0  0  0  0
   -1.4911   -0.8145   -1.9347 C   0  0  0  0  0  0  0  0  0  0  0  0
   -2.1433   -0.3553   -2.9092 O   0  0  0  0  0  0  0  0  0  0  0  0
   -1.8513   -2.0818   -1.3567 N   0  0  0  0  0  0  0  0  0  0  0  0
   -2.8567   -2.9717   -1.9374 C   0  0  0  0  0  0  0  0  0  0  0  0
   -4.1827   -2.8982   -1.1663 C   0  0  0  0  0  0  0  0  0  0  0  0
   -4.9348   -1.5909   -1.4309 C   0  0  0  0  0  0  0  0  0  0  0  0
   -6.2021   -1.4431   -0.6067 C   0  0  0  0  0  0  0  0  0  0  0  0
   -6.6330   -2.4448    0.0311 O   0  0  0  0  0  0  0  0  0  0  0  0
   -8.6976    0.8394    0.1204 H   0  0  0  0  0  0  0  0  0  0  0  0
   -8.1549   -0.5329    1.1639 H   0  0  0  0  0  0  0  0  0  0  0  0
   -8.9481   -0.8551   -0.4300 H   0  0  0  0  0  0  0  0  0  0  0  0
   -5.5865    0.8507   -1.8626 H   0  0  0  0  0  0  0  0  0  0  0  0
   -7.2780    1.2964   -1.9988 H   0  0  0  0  0  0  0  0  0  0  0  0
   -7.2538    2.7489   -0.1792 H   0  0  0  0  0  0  0  0  0  0  0  0
   -5.6569    2.9978   -0.8697 H   0  0  0  0  0  0  0  0  0  0  0  0
   -6.5742    0.3439    2.7633 H   0  0  0  0  0  0  0  0  0  0  0  0
   -5.4080   -1.6074    3.7013 H   0  0  0  0  0  0  0  0  0  0  0  0
   -3.1264   -2.1837    2.9316 H   0  0  0  0  0  0  0  0  0  0  0  0
   -2.0007   -0.8072    1.2531 H   0  0  0  0  0  0  0  0  0  0  0  0
   -1.0046    1.2646    1.0012 H   0  0  0  0  0  0  0  0  0  0  0  0
   -1.1446    1.8806   -1.9813 H   0  0  0  0  0  0  0  0  0  0  0  0
    1.3712    1.9306   -2.9324 H   0  0  0  0  0  0  0  0  0  0  0  0
    3.5213    2.8184   -2.7319 H   0  0  0  0  0  0  0  0  0  0  0  0
    2.9786    3.7497   -1.3047 H   0  0  0  0  0  0  0  0  0  0  0  0
    3.9321    0.2639   -2.4431 H   0  0  0  0  0  0  0  0  0  0  0  0
    5.0769   -1.3683   -1.0112 H   0  0  0  0  0  0  0  0  0  0  0  0
    5.3257   -1.0827    2.6686 H   0  0  0  0  0  0  0  0  0  0  0  0
    5.5145   -2.1666    1.2836 H   0  0  0  0  0  0  0  0  0  0  0  0
    7.4587   -0.6787   -0.3952 H   0  0  0  0  0  0  0  0  0  0  0  0
    7.7842   -2.3411    0.2071 H   0  0  0  0  0  0  0  0  0  0  0  0
    9.9925   -1.7167    0.0509 H   0  0  0  0  0  0  0  0  0  0  0  0
    9.6090    0.0256   -0.0191 H   0  0  0  0  0  0  0  0  0  0  0  0
    9.6191    1.2643    2.1206 H   0  0  0  0  0  0  0  0  0  0  0  0
    9.3561    0.2807    3.5833 H   0  0  0  0  0  0  0  0  0  0  0  0
    7.1158    0.5262    3.2210 H   0  0  0  0  0  0  0  0  0  0  0  0
    7.3823    1.1522    1.5513 H   0  0  0  0  0  0  0  0  0  0  0  0
    4.7928    1.3393    2.3259 H   0  0  0  0  0  0  0  0  0  0  0  0
    3.6637    2.9834    0.8893 H   0  0  0  0  0  0  0  0  0  0  0  0
    0.0961   -0.5436   -0.4941 H   0  0  0  0  0  0  0  0  0  0  0  0
    0.5074   -0.1322   -2.1860 H   0  0  0  0  0  0  0  0  0  0  0  0
   -1.3375   -2.4226   -0.5131 H   0  0  0  0  0  0  0  0  0  0  0  0
   -3.0072   -2.7525   -3.0178 H   0  0  0  0  0  0  0  0  0  0  0  0
   -2.4772   -4.0126   -1.8677 H   0  0  0  0  0  0  0  0  0  0  0  0
   -3.9873   -3.0125   -0.0772 H   0  0  0  0  0  0  0  0  0  0  0  0
   -4.8229   -3.7453   -1.4890 H   0  0  0  0  0  0  0  0  0  0  0  0
   -5.1914   -1.5240   -2.5093 H   0  0  0  0  0  0  0  0  0  0  0  0
   -4.2508   -0.7658   -1.1834 H   0  0  0  0  0  0  0  0  0  0  0  0
  1  2  1  0
  2  3  1  0
  3  4  1  0
  4  5  1  0
  5  6  1  0
  6  7  2  0
  7  8  1  0
  8  9  2  0
  9 10  1  0
 10 11  2  0
 11 12  1  0
 12 13  2  0
 12 14  1  0
 14 15  1  0
 15 16  1  0
 16 17  2  0
 16 18  1  0
 18 19  1  0
 19 20  1  0
 20 21  2  0
 21 22  1  0
 22 23  2  0
 23 24  1  0
 24 25  1  0
 25 26  1  0
 26 27  1  0
 27 28  1  0
 28 29  1  0
 29 30  1  0
 23 31  1  0
 31 32  2  0
 15 33  1  0
 33 34  1  0
 34 35  2  0
 34 36  1  0
 36 37  1  0
 37 38  1  0
 38 39  1  0
 39 40  1  0
 40 41  2  0
 40  2  1  0
 11  6  1  0
 32 20  1  0
 30 25  1  0
  1 42  1  0
  1 43  1  0
  1 44  1  0
  3 45  1  0
  3 46  1  0
  4 47  1  0
  4 48  1  0
  7 49  1  0
  8 50  1  0
  9 51  1  0
 10 52  1  0
 14 53  1  0
 15 54  1  0
 18 55  1  0
 19 56  1  0
 19 57  1  0
 21 58  1  0
 22 59  1  0
 24 60  1  0
 24 61  1  0
 26 62  1  0
 26 63  1  0
 27 64  1  0
 27 65  1  0
 29 66  1  0
 29 67  1  0
 30 68  1  0
 30 69  1  0
 31 70  1  0
 32 71  1  0
 33 72  1  0
 33 73  1  0
 36 74  1  0
 37 75  1  0
 37 76  1  0
 38 77  1  0
 38 78  1  0
 39 79  1  0
 39 80  1  0
M  END
$$$$
