
     RDKit          3D

 56 58  0  0  0  0  0  0  0  0999 V2000
   -3.6148    0.1375   -3.5176 O   0  0  0  0  0  0  0  0  0  0  0  0
   -3.0296   -0.3122   -2.4951 C   0  0  0  0  0  0  0  0  0  0  0  0
   -1.6043   -0.2297   -2.3822 N   0  0  0  0  0  0  0  0  0  0  0  0
   -0.8221    0.6831   -3.2209 C   0  0  0  0  0  0  0  0  0  0  0  0
    0.7028    0.5225   -3.0413 C   0  0  0  0  0  0  0  0  0  0  0  0
    1.2185    0.4450   -1.5925 C   0  0  0  0  0  0  0  0  0  0  0  0
    0.7174    1.5729   -0.6827 C   0  0  0  0  0  0  0  0  0  0  0  0
    0.9480    1.2048    0.7174 N   0  0  0  0  0  0  0  0  0  0  0  0
    2.1961    1.5429    1.3489 C   0  0  0  0  0  0  0  0  0  0  0  0
    2.6715    2.7026    1.2063 O   0  0  0  0  0  0  0  0  0  0  0  0
    2.9915    0.5221    2.1132 C   0  0  0  0  0  0  0  0  0  0  0  0
    4.2717    0.2172    1.3849 C   0  0  0  0  0  0  0  0  0  0  0  0
    4.2850   -0.7238    0.3418 C   0  0  0  0  0  0  0  0  0  0  0  0
    5.4659   -0.9791   -0.3607 C   0  0  0  0  0  0  0  0  0  0  0  0
    6.6397   -0.2951   -0.0303 C   0  0  0  0  0  0  0  0  0  0  0  0
    7.7845   -0.5434   -0.7114 F   0  0  0  0  0  0  0  0  0  0  0  0
    6.6328    0.6486    0.9994 C   0  0  0  0  0  0  0  0  0  0  0  0
    5.4532    0.9082    1.7023 C   0  0  0  0  0  0  0  0  0  0  0  0
   -0.1455    0.5743    1.4694 C   0  0  0  0  0  0  0  0  0  0  0  0
   -0.9530    1.6375    2.2238 C   0  0  0  0  0  0  0  0  0  0  0  0
   -2.4137    1.2112    2.4528 C   0  0  0  0  0  0  0  0  0  0  0  0
   -3.3328    1.5990    1.2834 C   0  0  0  0  0  0  0  0  0  0  0  0
   -3.1305    0.7636    0.1404 O   0  0  0  0  0  0  0  0  0  0  0  0
   -3.8285   -0.4295   -0.1213 C   0  0  0  0  0  0  0  0  0  0  0  0
   -4.5697   -1.0940    0.8777 C   0  0  0  0  0  0  0  0  0  0  0  0
   -5.3054   -2.2388    0.5675 C   0  0  0  0  0  0  0  0  0  0  0  0
   -5.3179   -2.7350   -0.7376 C   0  0  0  0  0  0  0  0  0  0  0  0
   -6.2709   -4.1549   -1.1275 Cl  0  0  0  0  0  0  0  0  0  0  0  0
   -4.5786   -2.0940   -1.7347 C   0  0  0  0  0  0  0  0  0  0  0  0
   -3.8161   -0.9566   -1.4303 C   0  0  0  0  0  0  0  0  0  0  0  0
   -1.1472   -0.8341   -1.6653 H   0  0  0  0  0  0  0  0  0  0  0  0
   -1.0604    0.4894   -4.2890 H   0  0  0  0  0  0  0  0  0  0  0  0
   -1.1205    1.7308   -3.0045 H   0  0  0  0  0  0  0  0  0  0  0  0
    1.0218   -0.4028   -3.5664 H   0  0  0  0  0  0  0  0  0  0  0  0
    1.2038    1.3729   -3.5526 H   0  0  0  0  0  0  0  0  0  0  0  0
    0.9605   -0.5428   -1.1560 H   0  0  0  0  0  0  0  0  0  0  0  0
    2.3292    0.4839   -1.6168 H   0  0  0  0  0  0  0  0  0  0  0  0
    1.2371    2.5227   -0.9339 H   0  0  0  0  0  0  0  0  0  0  0  0
   -0.3674    1.7543   -0.8302 H   0  0  0  0  0  0  0  0  0  0  0  0
    3.2048    0.9151    3.1306 H   0  0  0  0  0  0  0  0  0  0  0  0
    2.4237   -0.4209    2.2412 H   0  0  0  0  0  0  0  0  0  0  0  0
    3.3812   -1.2552    0.0727 H   0  0  0  0  0  0  0  0  0  0  0  0
    5.4695   -1.7058   -1.1620 H   0  0  0  0  0  0  0  0  0  0  0  0
    7.5405    1.1831    1.2511 H   0  0  0  0  0  0  0  0  0  0  0  0
    5.4613    1.6485    2.4905 H   0  0  0  0  0  0  0  0  0  0  0  0
   -0.7961    0.0110    0.7679 H   0  0  0  0  0  0  0  0  0  0  0  0
    0.2384   -0.1768    2.1879 H   0  0  0  0  0  0  0  0  0  0  0  0
   -0.4678    1.8070    3.2077 H   0  0  0  0  0  0  0  0  0  0  0  0
   -0.9196    2.6064    1.6832 H   0  0  0  0  0  0  0  0  0  0  0  0
   -2.7871    1.7278    3.3652 H   0  0  0  0  0  0  0  0  0  0  0  0
   -2.4753    0.1182    2.6521 H   0  0  0  0  0  0  0  0  0  0  0  0
   -4.3969    1.5680    1.5996 H   0  0  0  0  0  0  0  0  0  0  0  0
   -3.1336    2.6509    0.9898 H   0  0  0  0  0  0  0  0  0  0  0  0
   -4.5849   -0.7340    1.8953 H   0  0  0  0  0  0  0  0  0  0  0  0
   -5.8736   -2.7339    1.3426 H   0  0  0  0  0  0  0  0  0  0  0  0
   -4.5869   -2.4890   -2.7440 H   0  0  0  0  0  0  0  0  0  0  0  0
  1  2  2  0
  2  3  1  0
  3  4  1  0
  4  5  1  0
  5  6  1  0
  6  7  1  0
  7  8  1  0
  8  9  1  0
  9 10  2  0
  9 11  1  0
 11 12  1  0
 12 13  2  0
 13 14  1  0
 14 15  2  0
 15 16  1  0
 15 17  1  0
 17 18  2  0
  8 19  1  0
 19 20  1  0
 20 21  1  0
 21 22  1  0
 22 23  1  0
 23 24  1  0
 24 25  2  0
 25 26  1  0
 26 27  2  0
 27 28  1  0
 27 29  1  0
 29 30  2  0
 30  2  1  0
 18 12  1  0
 30 24  1  0
  3 31  1  0
  4 32  1  0
  4 33  1  0
  5 34  1  0
  5 35  1  0
  6 36  1  0
  6 37  1  0
  7 38  1  0
  7 39  1  0
 11 40  1  0
 11 41  1  0
 13 42  1  0
 14 43  1  0
 17 44  1  0
 18 45  1  0
 19 46  1  0
 19 47  1  0
 20 48  1  0
 20 49  1  0
 21 50  1  0
 21 51  1  0
 22 52  1  0
 22 53  1  0
 25 54  1  0
 26 55  1  0
 29 56  1  0
M  END
$$$$
