
     RDKit          3D

 62 64  0  0  0  0  0  0  0  0999 V2000
    3.4860    1.4286   -1.1951 O   0  0  0  0  0  0  0  0  0  0  0  0
    3.0135    1.0256   -0.0979 C   0  0  0  0  0  0  0  0  0  0  0  0
    1.5437    1.1717    0.1633 C   0  0  0  0  0  0  0  0  0  0  0  0
    0.7602    0.5487   -0.9264 N   0  0  0  0  0  0  0  0  0  0  0  0
   -0.6075    1.1003   -1.0313 C   0  0  0  0  0  0  0  0  0  0  0  0
   -0.6153    2.4204   -1.8168 C   0  0  0  0  0  0  0  0  0  0  0  0
   -2.0280    2.8017   -2.3236 C   0  0  0  0  0  0  0  0  0  0  0  0
   -2.7495    3.8511   -1.4567 C   0  0  0  0  0  0  0  0  0  0  0  0
   -3.2533    3.3479   -0.0933 C   0  0  0  0  0  0  0  0  0  0  0  0
   -4.2707    2.1999   -0.1818 C   0  0  0  0  0  0  0  0  0  0  0  0
   -3.5856    0.9515   -0.1360 O   0  0  0  0  0  0  0  0  0  0  0  0
   -4.1913   -0.3025    0.0410 C   0  0  0  0  0  0  0  0  0  0  0  0
   -5.5854   -0.4632    0.1461 C   0  0  0  0  0  0  0  0  0  0  0  0
   -6.1338   -1.7333    0.3631 C   0  0  0  0  0  0  0  0  0  0  0  0
   -5.3014   -2.8466    0.4843 C   0  0  0  0  0  0  0  0  0  0  0  0
   -3.9163   -2.6974    0.3722 C   0  0  0  0  0  0  0  0  0  0  0  0
   -3.3596   -1.4290    0.1377 C   0  0  0  0  0  0  0  0  0  0  0  0
   -1.9872   -1.2665   -0.0681 O   0  0  0  0  0  0  0  0  0  0  0  0
   -0.9786   -1.7592    0.7639 C   0  0  0  0  0  0  0  0  0  0  0  0
   -1.2945   -2.3768    1.9377 N   0  0  0  0  0  0  0  0  0  0  0  0
   -0.3425   -2.8468    2.7847 C   0  0  0  0  0  0  0  0  0  0  0  0
    1.0068   -2.6919    2.4737 C   0  0  0  0  0  0  0  0  0  0  0  0
    1.3637   -2.0646    1.2801 C   0  0  0  0  0  0  0  0  0  0  0  0
    0.3764   -1.5821    0.4053 C   0  0  0  0  0  0  0  0  0  0  0  0
    0.7922   -0.9385   -0.9133 C   0  0  0  0  0  0  0  0  0  0  0  0
    3.8827    0.5040    0.9165 N   0  0  0  0  0  0  0  0  0  0  0  0
    5.2783    0.1545    0.6601 C   0  0  0  0  0  0  0  0  0  0  0  0
    5.4213   -1.3686    0.4947 C   0  0  0  0  0  0  0  0  0  0  0  0
    4.6466   -1.8364   -0.5817 O   0  0  0  0  0  0  0  0  0  0  0  0
    6.8909   -1.7959    0.3449 C   0  0  0  0  0  0  0  0  0  0  0  0
    7.4502   -1.2980   -0.8429 O   0  0  0  0  0  0  0  0  0  0  0  0
    1.2688    0.7530    1.1544 H   0  0  0  0  0  0  0  0  0  0  0  0
    1.3377    2.2606    0.2201 H   0  0  0  0  0  0  0  0  0  0  0  0
   -1.0455    1.2437   -0.0223 H   0  0  0  0  0  0  0  0  0  0  0  0
   -1.2478    0.4002   -1.6075 H   0  0  0  0  0  0  0  0  0  0  0  0
    0.0453    2.2952   -2.7033 H   0  0  0  0  0  0  0  0  0  0  0  0
   -0.1828    3.2414   -1.2069 H   0  0  0  0  0  0  0  0  0  0  0  0
   -1.9064    3.2435   -3.3369 H   0  0  0  0  0  0  0  0  0  0  0  0
   -2.6758    1.9119   -2.4674 H   0  0  0  0  0  0  0  0  0  0  0  0
   -2.0688    4.7149   -1.2763 H   0  0  0  0  0  0  0  0  0  0  0  0
   -3.6188    4.2524   -2.0266 H   0  0  0  0  0  0  0  0  0  0  0  0
   -3.7527    4.2048    0.4060 H   0  0  0  0  0  0  0  0  0  0  0  0
   -2.3958    3.0683    0.5509 H   0  0  0  0  0  0  0  0  0  0  0  0
   -4.8677    2.2696   -1.1204 H   0  0  0  0  0  0  0  0  0  0  0  0
   -4.9628    2.2750    0.6891 H   0  0  0  0  0  0  0  0  0  0  0  0
   -6.2543    0.3823    0.0593 H   0  0  0  0  0  0  0  0  0  0  0  0
   -7.2099   -1.8518    0.4400 H   0  0  0  0  0  0  0  0  0  0  0  0
   -5.7297   -3.8265    0.6549 H   0  0  0  0  0  0  0  0  0  0  0  0
   -3.2788   -3.5704    0.4374 H   0  0  0  0  0  0  0  0  0  0  0  0
   -0.6311   -3.3457    3.6979 H   0  0  0  0  0  0  0  0  0  0  0  0
    1.7685   -3.0610    3.1472 H   0  0  0  0  0  0  0  0  0  0  0  0
    2.4117   -1.9575    1.0368 H   0  0  0  0  0  0  0  0  0  0  0  0
    0.1599   -1.3436   -1.7333 H   0  0  0  0  0  0  0  0  0  0  0  0
    1.8201   -1.2664   -1.1816 H   0  0  0  0  0  0  0  0  0  0  0  0
    3.5014    0.3349    1.8772 H   0  0  0  0  0  0  0  0  0  0  0  0
    5.8938    0.5012    1.5196 H   0  0  0  0  0  0  0  0  0  0  0  0
    5.6549    0.6746   -0.2473 H   0  0  0  0  0  0  0  0  0  0  0  0
    5.0349   -1.8441    1.4250 H   0  0  0  0  0  0  0  0  0  0  0  0
    4.9797   -1.3994   -1.4084 H   0  0  0  0  0  0  0  0  0  0  0  0
    6.9403   -2.9058    0.3188 H   0  0  0  0  0  0  0  0  0  0  0  0
    7.4834   -1.4642    1.2315 H   0  0  0  0  0  0  0  0  0  0  0  0
    7.8160   -0.3998   -0.6326 H   0  0  0  0  0  0  0  0  0  0  0  0
  1  2  2  0
  2  3  1  0
  3  4  1  0
  4  5  1  0
  5  6  1  0
  6  7  1  0
  7  8  1  0
  8  9  1  0
  9 10  1  0
 10 11  1  0
 11 12  1  0
 12 13  2  0
 13 14  1  0
 14 15  2  0
 15 16  1  0
 16 17  2  0
 17 18  1  0
 18 19  1  0
 19 20  2  0
 20 21  1  0
 21 22  2  0
 22 23  1  0
 23 24  2  0
 24 25  1  0
  2 26  1  0
 26 27  1  0
 27 28  1  0
 28 29  1  0
 28 30  1  0
 30 31  1  0
 25  4  1  0
 17 12  1  0
 24 19  1  0
  3 32  1  0
  3 33  1  0
  5 34  1  0
  5 35  1  0
  6 36  1  0
  6 37  1  0
  7 38  1  0
  7 39  1  0
  8 40  1  0
  8 41  1  0
  9 42  1  0
  9 43  1  0
 10 44  1  0
 10 45  1  0
 13 46  1  0
 14 47  1  0
 15 48  1  0
 16 49  1  0
 21 50  1  0
 22 51  1  0
 23 52  1  0
 25 53  1  0
 25 54  1  0
 26 55  1  0
 27 56  1  0
 27 57  1  0
 28 58  1  0
 29 59  1  0
 30 60  1  0
 30 61  1  0
 31 62  1  0
M  END
$$$$
