
     RDKit          3D

 68 70  0  0  0  0  0  0  0  0999 V2000
   -3.9048    4.3394   -0.2383 C   0  0  0  0  0  0  0  0  0  0  0  0
   -4.2821    2.8774   -0.5280 C   0  0  0  0  0  0  0  0  0  0  0  0
   -5.0591    2.8120   -1.8524 C   0  0  0  0  0  0  0  0  0  0  0  0
   -3.0192    1.9694   -0.5655 C   0  0  0  0  0  0  0  0  0  0  0  0
   -2.2576    2.0527    0.6871 N   0  0  0  0  0  0  0  0  0  0  0  0
   -0.8254    2.1754    0.7319 C   0  0  0  0  0  0  0  0  0  0  0  0
   -0.2960    2.8440    1.6607 O   0  0  0  0  0  0  0  0  0  0  0  0
    0.0762    1.5134   -0.2853 C   0  0  0  0  0  0  0  0  0  0  0  0
    1.0631    0.5105    0.3787 C   0  0  0  0  0  0  0  0  0  0  0  0
    2.5000    0.9066    0.1386 C   0  0  0  0  0  0  0  0  0  0  0  0
    2.9448    0.9667   -1.0413 O   0  0  0  0  0  0  0  0  0  0  0  0
    3.3639    1.1880    1.2493 N   0  0  0  0  0  0  0  0  0  0  0  0
    4.8008    1.3994    1.0946 C   0  0  0  0  0  0  0  0  0  0  0  0
    5.5082    0.0678    0.8253 C   0  0  0  0  0  0  0  0  0  0  0  0
    6.9948    0.2620    0.7735 C   0  0  0  0  0  0  0  0  0  0  0  0
    7.7599    0.2662    1.9489 C   0  0  0  0  0  0  0  0  0  0  0  0
    9.0983    0.4870    1.8751 N   0  0  0  0  0  0  0  0  0  0  0  0
    9.7110    0.6993    0.6789 C   0  0  0  0  0  0  0  0  0  0  0  0
    8.9491    0.7113   -0.4916 C   0  0  0  0  0  0  0  0  0  0  0  0
    7.6092    0.4948   -0.4195 N   0  0  0  0  0  0  0  0  0  0  0  0
    0.8327   -0.8481   -0.1237 N   0  0  0  0  0  0  0  0  0  0  0  0
   -0.2857   -1.6285    0.3249 C   0  0  0  0  0  0  0  0  0  0  0  0
   -1.0849   -1.1490    1.1746 O   0  0  0  0  0  0  0  0  0  0  0  0
   -0.5123   -2.9958   -0.1827 C   0  0  0  0  0  0  0  0  0  0  0  0
    0.5558   -3.9025   -0.2723 C   0  0  0  0  0  0  0  0  0  0  0  0
    0.3230   -5.2275   -0.6474 C   0  0  0  0  0  0  0  0  0  0  0  0
   -0.9742   -5.6557   -0.9398 C   0  0  0  0  0  0  0  0  0  0  0  0
   -2.0421   -4.7568   -0.8794 C   0  0  0  0  0  0  0  0  0  0  0  0
   -1.8154   -3.4154   -0.5192 C   0  0  0  0  0  0  0  0  0  0  0  0
   -2.8369   -2.4566   -0.5164 O   0  0  0  0  0  0  0  0  0  0  0  0
   -4.2336   -2.7103   -0.6173 C   0  0  0  0  0  0  0  0  0  0  0  0
   -4.9915   -1.3830   -0.7827 C   0  0  0  0  0  0  0  0  0  0  0  0
   -4.2902   -0.2684   -0.1228 N   0  0  0  0  0  0  0  0  0  0  0  0
   -4.4004   -0.1377    1.3368 C   0  0  0  0  0  0  0  0  0  0  0  0
   -3.3522    0.5260   -0.8900 C   0  0  0  0  0  0  0  0  0  0  0  0
   -2.8220    0.0238   -1.9190 O   0  0  0  0  0  0  0  0  0  0  0  0
   -4.8138    4.9796   -0.2211 H   0  0  0  0  0  0  0  0  0  0  0  0
   -3.2139    4.7251   -1.0189 H   0  0  0  0  0  0  0  0  0  0  0  0
   -3.4099    4.4276    0.7509 H   0  0  0  0  0  0  0  0  0  0  0  0
   -4.9633    2.5436    0.2806 H   0  0  0  0  0  0  0  0  0  0  0  0
   -4.4175    3.1331   -2.7027 H   0  0  0  0  0  0  0  0  0  0  0  0
   -5.9555    3.4704   -1.8068 H   0  0  0  0  0  0  0  0  0  0  0  0
   -5.4163    1.7791   -2.0480 H   0  0  0  0  0  0  0  0  0  0  0  0
   -2.3832    2.3686   -1.3895 H   0  0  0  0  0  0  0  0  0  0  0  0
   -2.7804    2.2235    1.5769 H   0  0  0  0  0  0  0  0  0  0  0  0
    0.6271    2.3259   -0.8099 H   0  0  0  0  0  0  0  0  0  0  0  0
   -0.5141    1.0017   -1.0696 H   0  0  0  0  0  0  0  0  0  0  0  0
    0.9021    0.4963    1.4812 H   0  0  0  0  0  0  0  0  0  0  0  0
    2.9589    1.2461    2.2126 H   0  0  0  0  0  0  0  0  0  0  0  0
    4.9893    2.1183    0.2672 H   0  0  0  0  0  0  0  0  0  0  0  0
    5.2024    1.8419    2.0345 H   0  0  0  0  0  0  0  0  0  0  0  0
    5.2534   -0.6540    1.6314 H   0  0  0  0  0  0  0  0  0  0  0  0
    5.1620   -0.3668   -0.1365 H   0  0  0  0  0  0  0  0  0  0  0  0
    7.2952    0.0983    2.9124 H   0  0  0  0  0  0  0  0  0  0  0  0
   10.7762    0.8796    0.6456 H   0  0  0  0  0  0  0  0  0  0  0  0
    9.4176    0.9124   -1.4439 H   0  0  0  0  0  0  0  0  0  0  0  0
    1.4138   -1.2165   -0.9122 H   0  0  0  0  0  0  0  0  0  0  0  0
    1.5627   -3.5940   -0.0081 H   0  0  0  0  0  0  0  0  0  0  0  0
    1.1481   -5.9266   -0.6963 H   0  0  0  0  0  0  0  0  0  0  0  0
   -1.1515   -6.6872   -1.2114 H   0  0  0  0  0  0  0  0  0  0  0  0
   -3.0334   -5.1120   -1.1231 H   0  0  0  0  0  0  0  0  0  0  0  0
   -4.5759   -3.2294    0.3051 H   0  0  0  0  0  0  0  0  0  0  0  0
   -4.4491   -3.3527   -1.4965 H   0  0  0  0  0  0  0  0  0  0  0  0
   -6.0161   -1.4876   -0.3623 H   0  0  0  0  0  0  0  0  0  0  0  0
   -5.1214   -1.1586   -1.8644 H   0  0  0  0  0  0  0  0  0  0  0  0
   -4.9957    0.7592    1.6033 H   0  0  0  0  0  0  0  0  0  0  0  0
   -4.9094   -1.0247    1.7770 H   0  0  0  0  0  0  0  0  0  0  0  0
   -3.3933   -0.0777    1.7981 H   0  0  0  0  0  0  0  0  0  0  0  0
  1  2  1  0
  2  3  1  0
  2  4  1  0
  4  5  1  0
  5  6  1  0
  6  7  2  0
  6  8  1  0
  8  9  1  0
  9 10  1  0
 10 11  2  0
 10 12  1  0
 12 13  1  0
 13 14  1  0
 14 15  1  0
 15 16  2  0
 16 17  1  0
 17 18  2  0
 18 19  1  0
 19 20  2  0
  9 21  1  0
 21 22  1  0
 22 23  2  0
 22 24  1  0
 24 25  2  0
 25 26  1  0
 26 27  2  0
 27 28  1  0
 28 29  2  0
 29 30  1  0
 30 31  1  0
 31 32  1  0
 32 33  1  0
 33 34  1  0
 33 35  1  0
 35 36  2  0
 35  4  1  0
 20 15  1  0
 29 24  1  0
  1 37  1  0
  1 38  1  0
  1 39  1  0
  2 40  1  0
  3 41  1  0
  3 42  1  0
  3 43  1  0
  4 44  1  0
  5 45  1  0
  8 46  1  0
  8 47  1  0
  9 48  1  0
 12 49  1  0
 13 50  1  0
 13 51  1  0
 14 52  1  0
 14 53  1  0
 16 54  1  0
 18 55  1  0
 19 56  1  0
 21 57  1  0
 25 58  1  0
 26 59  1  0
 27 60  1  0
 28 61  1  0
 31 62  1  0
 31 63  1  0
 32 64  1  0
 32 65  1  0
 34 66  1  0
 34 67  1  0
 34 68  1  0
M  END
$$$$
