
     RDKit          3D

 76 78  0  0  0  0  0  0  0  0999 V2000
   -3.2926    4.7401    1.6882 C   0  0  0  0  0  0  0  0  0  0  0  0
   -3.7028    3.6646    0.6722 C   0  0  0  0  0  0  0  0  0  0  0  0
   -4.6416    4.2818   -0.3773 C   0  0  0  0  0  0  0  0  0  0  0  0
   -2.4369    3.0383    0.0323 C   0  0  0  0  0  0  0  0  0  0  0  0
   -2.6993    1.7693   -0.8206 C   0  0  0  0  0  0  0  0  0  0  0  0
   -3.0911    0.5313    0.0058 C   0  0  0  0  0  0  0  0  0  0  0  0
   -3.2531   -0.5851   -0.8690 O   0  0  0  0  0  0  0  0  0  0  0  0
   -4.1082   -1.6800   -0.6537 C   0  0  0  0  0  0  0  0  0  0  0  0
   -4.6449   -2.2954   -1.7925 C   0  0  0  0  0  0  0  0  0  0  0  0
   -5.5460   -3.3542   -1.6777 C   0  0  0  0  0  0  0  0  0  0  0  0
   -5.9175   -3.8224   -0.4167 C   0  0  0  0  0  0  0  0  0  0  0  0
   -7.0502   -5.1538   -0.2744 Cl  0  0  0  0  0  0  0  0  0  0  0  0
   -5.3705   -3.2431    0.7307 C   0  0  0  0  0  0  0  0  0  0  0  0
   -4.4530   -2.1851    0.6288 C   0  0  0  0  0  0  0  0  0  0  0  0
   -3.8217   -1.7066    1.8696 C   0  0  0  0  0  0  0  0  0  0  0  0
   -4.5095   -1.0408    2.6891 O   0  0  0  0  0  0  0  0  0  0  0  0
   -2.4556   -2.0149    2.1817 N   0  0  0  0  0  0  0  0  0  0  0  0
   -1.6896   -3.0242    1.4469 C   0  0  0  0  0  0  0  0  0  0  0  0
   -0.1950   -2.9740    1.8018 C   0  0  0  0  0  0  0  0  0  0  0  0
    0.4674   -1.6177    1.5027 C   0  0  0  0  0  0  0  0  0  0  0  0
    0.4896   -1.2801    0.0047 C   0  0  0  0  0  0  0  0  0  0  0  0
    1.2037   -0.0157   -0.2231 N   0  0  0  0  0  0  0  0  0  0  0  0
    2.6064    0.0183   -0.5809 C   0  0  0  0  0  0  0  0  0  0  0  0
    3.1297    1.1102   -0.9380 O   0  0  0  0  0  0  0  0  0  0  0  0
    3.4539   -1.2307   -0.5947 C   0  0  0  0  0  0  0  0  0  0  0  0
    4.8863   -0.8957   -0.5421 N   0  0  0  0  0  0  0  0  0  0  0  0
    5.5595   -0.8306    0.7670 C   0  0  0  0  0  0  0  0  0  0  0  0
    6.1557    0.5585    1.0244 C   0  0  0  0  0  0  0  0  0  0  0  0
    7.5920    0.7104    0.4934 C   0  0  0  0  0  0  0  0  0  0  0  0
    7.8426    0.0939   -0.8945 C   0  0  0  0  0  0  0  0  0  0  0  0
    6.7045    0.3540   -1.8874 C   0  0  0  0  0  0  0  0  0  0  0  0
    5.6048   -0.6706   -1.7758 C   0  0  0  0  0  0  0  0  0  0  0  0
    5.2647   -1.2973   -2.8157 O   0  0  0  0  0  0  0  0  0  0  0  0
    0.4403    1.2364   -0.1177 C   0  0  0  0  0  0  0  0  0  0  0  0
   -0.1684    1.5856   -1.4477 C   0  0  0  0  0  0  0  0  0  0  0  0
    0.6077    1.9185   -2.3841 O   0  0  0  0  0  0  0  0  0  0  0  0
   -1.5772    1.4762   -1.7299 N   0  0  0  0  0  0  0  0  0  0  0  0
   -4.1913    5.1681    2.1823 H   0  0  0  0  0  0  0  0  0  0  0  0
   -2.6489    4.2996    2.4797 H   0  0  0  0  0  0  0  0  0  0  0  0
   -2.7324    5.5595    1.1867 H   0  0  0  0  0  0  0  0  0  0  0  0
   -4.2637    2.8861    1.2307 H   0  0  0  0  0  0  0  0  0  0  0  0
   -5.1206    3.4954   -0.9947 H   0  0  0  0  0  0  0  0  0  0  0  0
   -4.0871    4.9809   -1.0397 H   0  0  0  0  0  0  0  0  0  0  0  0
   -5.4608    4.8431    0.1209 H   0  0  0  0  0  0  0  0  0  0  0  0
   -1.7276    2.7924    0.8465 H   0  0  0  0  0  0  0  0  0  0  0  0
   -1.9428    3.8051   -0.6044 H   0  0  0  0  0  0  0  0  0  0  0  0
   -3.5734    1.9794   -1.4710 H   0  0  0  0  0  0  0  0  0  0  0  0
   -2.3297    0.2986    0.7728 H   0  0  0  0  0  0  0  0  0  0  0  0
   -4.0560    0.7360    0.5160 H   0  0  0  0  0  0  0  0  0  0  0  0
   -4.3771   -1.9315   -2.7760 H   0  0  0  0  0  0  0  0  0  0  0  0
   -5.9586   -3.8069   -2.5707 H   0  0  0  0  0  0  0  0  0  0  0  0
   -5.6396   -3.6375    1.7035 H   0  0  0  0  0  0  0  0  0  0  0  0
   -2.0493   -1.5901    3.0461 H   0  0  0  0  0  0  0  0  0  0  0  0
   -1.8160   -2.8898    0.3543 H   0  0  0  0  0  0  0  0  0  0  0  0
   -2.0875   -4.0295    1.7008 H   0  0  0  0  0  0  0  0  0  0  0  0
   -0.0775   -3.1971    2.8849 H   0  0  0  0  0  0  0  0  0  0  0  0
    0.3370   -3.7728    1.2407 H   0  0  0  0  0  0  0  0  0  0  0  0
   -0.0508   -0.8104    2.0608 H   0  0  0  0  0  0  0  0  0  0  0  0
    1.5095   -1.6516    1.8841 H   0  0  0  0  0  0  0  0  0  0  0  0
   -0.5482   -1.1756   -0.3724 H   0  0  0  0  0  0  0  0  0  0  0  0
    0.9476   -2.1076   -0.5760 H   0  0  0  0  0  0  0  0  0  0  0  0
    3.1912   -1.8778    0.2682 H   0  0  0  0  0  0  0  0  0  0  0  0
    3.2214   -1.8195   -1.5077 H   0  0  0  0  0  0  0  0  0  0  0  0
    4.8336   -1.0424    1.5830 H   0  0  0  0  0  0  0  0  0  0  0  0
    6.3400   -1.6198    0.8305 H   0  0  0  0  0  0  0  0  0  0  0  0
    5.4999    1.3394    0.5819 H   0  0  0  0  0  0  0  0  0  0  0  0
    6.1756    0.7453    2.1208 H   0  0  0  0  0  0  0  0  0  0  0  0
    7.8367    1.7941    0.4578 H   0  0  0  0  0  0  0  0  0  0  0  0
    8.2961    0.2421    1.2156 H   0  0  0  0  0  0  0  0  0  0  0  0
    8.0279   -0.9990   -0.8015 H   0  0  0  0  0  0  0  0  0  0  0  0
    8.7774    0.5383   -1.3000 H   0  0  0  0  0  0  0  0  0  0  0  0
    6.2834    1.3726   -1.7497 H   0  0  0  0  0  0  0  0  0  0  0  0
    7.1260    0.3186   -2.9164 H   0  0  0  0  0  0  0  0  0  0  0  0
   -0.3213    1.1327    0.6692 H   0  0  0  0  0  0  0  0  0  0  0  0
    1.0992    2.0672    0.2145 H   0  0  0  0  0  0  0  0  0  0  0  0
   -1.8266    1.3955   -2.7427 H   0  0  0  0  0  0  0  0  0  0  0  0
  1  2  1  0
  2  3  1  0
  2  4  1  0
  4  5  1  0
  5  6  1  0
  6  7  1  0
  7  8  1  0
  8  9  2  0
  9 10  1  0
 10 11  2  0
 11 12  1  0
 11 13  1  0
 13 14  2  0
 14 15  1  0
 15 16  2  0
 15 17  1  0
 17 18  1  0
 18 19  1  0
 19 20  1  0
 20 21  1  0
 21 22  1  0
 22 23  1  0
 23 24  2  0
 23 25  1  0
 25 26  1  0
 26 27  1  0
 27 28  1  0
 28 29  1  0
 29 30  1  0
 30 31  1  0
 31 32  1  0
 32 33  2  0
 22 34  1  0
 34 35  1  0
 35 36  2  0
 35 37  1  0
 37  5  1  0
 14  8  1  0
 32 26  1  0
  1 38  1  0
  1 39  1  0
  1 40  1  0
  2 41  1  0
  3 42  1  0
  3 43  1  0
  3 44  1  0
  4 45  1  0
  4 46  1  0
  5 47  1  0
  6 48  1  0
  6 49  1  0
  9 50  1  0
 10 51  1  0
 13 52  1  0
 17 53  1  0
 18 54  1  0
 18 55  1  0
 19 56  1  0
 19 57  1  0
 20 58  1  0
 20 59  1  0
 21 60  1  0
 21 61  1  0
 25 62  1  0
 25 63  1  0
 27 64  1  0
 27 65  1  0
 28 66  1  0
 28 67  1  0
 29 68  1  0
 29 69  1  0
 30 70  1  0
 30 71  1  0
 31 72  1  0
 31 73  1  0
 34 74  1  0
 34 75  1  0
 37 76  1  0
M  END
$$$$
