
     RDKit          3D

 67 70  0  0  0  0  0  0  0  0999 V2000
    8.8944    1.2606    0.4132 C   0  0  0  0  0  0  0  0  0  0  0  0
    7.7430    1.6095   -0.3283 O   0  0  0  0  0  0  0  0  0  0  0  0
    7.3076    0.5076   -1.1003 C   0  0  0  0  0  0  0  0  0  0  0  0
    6.3286   -0.3290   -0.3172 C   0  0  0  0  0  0  0  0  0  0  0  0
    6.7162   -1.5732    0.2080 C   0  0  0  0  0  0  0  0  0  0  0  0
    5.8147   -2.3381    0.9466 C   0  0  0  0  0  0  0  0  0  0  0  0
    4.5223   -1.8621    1.1898 C   0  0  0  0  0  0  0  0  0  0  0  0
    4.1206   -0.6172    0.6829 C   0  0  0  0  0  0  0  0  0  0  0  0
    2.7663   -0.1065    0.9813 C   0  0  0  0  0  0  0  0  0  0  0  0
    2.3399   -0.2052    2.1668 O   0  0  0  0  0  0  0  0  0  0  0  0
    1.9254    0.4794   -0.0380 N   0  0  0  0  0  0  0  0  0  0  0  0
    2.0625    0.0617   -1.4425 C   0  0  0  0  0  0  0  0  0  0  0  0
    0.8918    0.5669   -2.2929 C   0  0  0  0  0  0  0  0  0  0  0  0
   -0.4603    0.2244   -1.6343 C   0  0  0  0  0  0  0  0  0  0  0  0
   -0.5663    0.5995   -0.1051 C   0  0  0  0  0  0  0  0  0  0  0  0
   -0.7065   -0.6911    0.7947 C   0  0  0  0  0  0  0  0  0  0  0  0
   -2.0820   -1.3692    0.9415 C   0  0  0  0  0  0  0  0  0  0  0  0
   -2.5280   -2.1757   -0.2922 C   0  0  0  0  0  0  0  0  0  0  0  0
   -3.8782   -2.8930   -0.0965 C   0  0  0  0  0  0  0  0  0  0  0  0
   -5.0062   -2.0269    0.4967 C   0  0  0  0  0  0  0  0  0  0  0  0
   -4.9790   -0.6859   -0.0072 O   0  0  0  0  0  0  0  0  0  0  0  0
   -5.8388    0.3333    0.4433 C   0  0  0  0  0  0  0  0  0  0  0  0
   -7.0874    0.0083    1.0208 C   0  0  0  0  0  0  0  0  0  0  0  0
   -7.9700    1.0053    1.4304 C   0  0  0  0  0  0  0  0  0  0  0  0
   -7.6315    2.3450    1.2663 C   0  0  0  0  0  0  0  0  0  0  0  0
   -6.3914    2.6907    0.7328 C   0  0  0  0  0  0  0  0  0  0  0  0
   -5.4713    1.7032    0.3153 C   0  0  0  0  0  0  0  0  0  0  0  0
   -4.1384    2.1624   -0.1879 C   0  0  0  0  0  0  0  0  0  0  0  0
   -3.9743    3.3792   -0.4921 O   0  0  0  0  0  0  0  0  0  0  0  0
   -3.0297    1.2721   -0.3418 N   0  0  0  0  0  0  0  0  0  0  0  0
   -1.7024    1.6527    0.1514 C   0  0  0  0  0  0  0  0  0  0  0  0
    0.7619    1.2964    0.3404 C   0  0  0  0  0  0  0  0  0  0  0  0
    5.0357    0.1538   -0.0556 C   0  0  0  0  0  0  0  0  0  0  0  0
    8.7095    0.3810    1.0611 H   0  0  0  0  0  0  0  0  0  0  0  0
    9.1631    2.1045    1.0750 H   0  0  0  0  0  0  0  0  0  0  0  0
    9.7574    1.0746   -0.2621 H   0  0  0  0  0  0  0  0  0  0  0  0
    8.1503   -0.1102   -1.5007 H   0  0  0  0  0  0  0  0  0  0  0  0
    6.7826    0.9024   -1.9963 H   0  0  0  0  0  0  0  0  0  0  0  0
    7.7148   -1.9503    0.0290 H   0  0  0  0  0  0  0  0  0  0  0  0
    6.1173   -3.2985    1.3418 H   0  0  0  0  0  0  0  0  0  0  0  0
    3.8339   -2.4712    1.7629 H   0  0  0  0  0  0  0  0  0  0  0  0
    2.0916   -1.0505   -1.4954 H   0  0  0  0  0  0  0  0  0  0  0  0
    3.0042    0.4636   -1.8714 H   0  0  0  0  0  0  0  0  0  0  0  0
    0.9478    0.1078   -3.3072 H   0  0  0  0  0  0  0  0  0  0  0  0
    0.9711    1.6714   -2.4185 H   0  0  0  0  0  0  0  0  0  0  0  0
   -1.2396    0.7460   -2.2303 H   0  0  0  0  0  0  0  0  0  0  0  0
   -0.6133   -0.8637   -1.7873 H   0  0  0  0  0  0  0  0  0  0  0  0
    0.0298   -1.4597    0.4627 H   0  0  0  0  0  0  0  0  0  0  0  0
   -0.4106   -0.4234    1.8335 H   0  0  0  0  0  0  0  0  0  0  0  0
   -2.8326   -0.6218    1.2497 H   0  0  0  0  0  0  0  0  0  0  0  0
   -2.0113   -2.0795    1.7904 H   0  0  0  0  0  0  0  0  0  0  0  0
   -2.6248   -1.5364   -1.1839 H   0  0  0  0  0  0  0  0  0  0  0  0
   -1.7531   -2.9375   -0.5262 H   0  0  0  0  0  0  0  0  0  0  0  0
   -4.2047   -3.2864   -1.0856 H   0  0  0  0  0  0  0  0  0  0  0  0
   -3.7289   -3.7718    0.5690 H   0  0  0  0  0  0  0  0  0  0  0  0
   -5.9787   -2.5100    0.2478 H   0  0  0  0  0  0  0  0  0  0  0  0
   -4.9001   -2.0078    1.6051 H   0  0  0  0  0  0  0  0  0  0  0  0
   -7.4043   -1.0168    1.1421 H   0  0  0  0  0  0  0  0  0  0  0  0
   -8.9261    0.7356    1.8598 H   0  0  0  0  0  0  0  0  0  0  0  0
   -8.3201    3.1175    1.5808 H   0  0  0  0  0  0  0  0  0  0  0  0
   -6.1475    3.7417    0.6642 H   0  0  0  0  0  0  0  0  0  0  0  0
   -3.1429    0.4980   -1.0213 H   0  0  0  0  0  0  0  0  0  0  0  0
   -1.4244    2.6095   -0.3408 H   0  0  0  0  0  0  0  0  0  0  0  0
   -1.7677    1.8618    1.2395 H   0  0  0  0  0  0  0  0  0  0  0  0
    0.7517    1.5110    1.4321 H   0  0  0  0  0  0  0  0  0  0  0  0
    0.8661    2.2944   -0.1443 H   0  0  0  0  0  0  0  0  0  0  0  0
    4.7503    1.1363   -0.4160 H   0  0  0  0  0  0  0  0  0  0  0  0
  1  2  1  0
  2  3  1  0
  3  4  1  0
  4  5  2  0
  5  6  1  0
  6  7  2  0
  7  8  1  0
  8  9  1  0
  9 10  2  0
  9 11  1  0
 11 12  1  0
 12 13  1  0
 13 14  1  0
 14 15  1  0
 15 16  1  0
 16 17  1  0
 17 18  1  0
 18 19  1  0
 19 20  1  0
 20 21  1  0
 21 22  1  0
 22 23  2  0
 23 24  1  0
 24 25  2  0
 25 26  1  0
 26 27  2  0
 27 28  1  0
 28 29  2  0
 28 30  1  0
 30 31  1  0
 15 32  1  0
  8 33  2  0
 33  4  1  0
 32 11  1  0
 31 15  1  0
 27 22  1  0
  1 34  1  0
  1 35  1  0
  1 36  1  0
  3 37  1  0
  3 38  1  0
  5 39  1  0
  6 40  1  0
  7 41  1  0
 12 42  1  0
 12 43  1  0
 13 44  1  0
 13 45  1  0
 14 46  1  0
 14 47  1  0
 16 48  1  0
 16 49  1  0
 17 50  1  0
 17 51  1  0
 18 52  1  0
 18 53  1  0
 19 54  1  0
 19 55  1  0
 20 56  1  0
 20 57  1  0
 23 58  1  0
 24 59  1  0
 25 60  1  0
 26 61  1  0
 30 62  1  0
 31 63  1  0
 31 64  1  0
 32 65  1  0
 32 66  1  0
 33 67  1  0
M  END
$$$$
