
     RDKit          3D

 76 79  0  0  0  0  0  0  0  0999 V2000
    7.2889    1.4926   -1.4757 C   0  0  0  0  0  0  0  0  0  0  0  0
    6.1687    1.1329   -0.4796 C   0  0  0  0  0  0  0  0  0  0  0  0
    6.8002    1.0248    0.9264 C   0  0  0  0  0  0  0  0  0  0  0  0
    5.0641    2.1453   -0.5241 N   0  0  0  0  0  0  0  0  0  0  0  0
    4.0231    1.9761    0.5171 C   0  0  0  0  0  0  0  0  0  0  0  0
    3.2212    0.6829    0.3252 C   0  0  0  0  0  0  0  0  0  0  0  0
    2.7100    0.5682   -1.0528 N   0  0  0  0  0  0  0  0  0  0  0  0
    1.5227   -0.2138   -1.3415 C   0  0  0  0  0  0  0  0  0  0  0  0
    0.9953   -0.1405   -2.4862 O   0  0  0  0  0  0  0  0  0  0  0  0
    0.9286   -1.1551   -0.3526 C   0  0  0  0  0  0  0  0  0  0  0  0
    1.7845   -2.0883    0.2525 C   0  0  0  0  0  0  0  0  0  0  0  0
    1.2957   -3.0275    1.1487 C   0  0  0  0  0  0  0  0  0  0  0  0
   -0.0699   -3.1133    1.3917 C   0  0  0  0  0  0  0  0  0  0  0  0
   -0.9769   -2.2682    0.7234 C   0  0  0  0  0  0  0  0  0  0  0  0
   -0.4770   -1.2166   -0.0965 C   0  0  0  0  0  0  0  0  0  0  0  0
   -1.4239   -0.2632   -0.8263 C   0  0  0  0  0  0  0  0  0  0  0  0
   -2.6814    0.0455   -0.1045 N   0  0  0  0  0  0  0  0  0  0  0  0
   -2.4747    0.7165    1.2091 C   0  0  0  0  0  0  0  0  0  0  0  0
   -1.8635    2.1029    1.1295 C   0  0  0  0  0  0  0  0  0  0  0  0
   -2.6810    3.2455    1.1702 C   0  0  0  0  0  0  0  0  0  0  0  0
   -2.1124    4.5220    1.1332 C   0  0  0  0  0  0  0  0  0  0  0  0
   -0.7251    4.6700    1.0773 C   0  0  0  0  0  0  0  0  0  0  0  0
    0.0959    3.5406    1.0479 C   0  0  0  0  0  0  0  0  0  0  0  0
   -0.4699    2.2632    1.0827 C   0  0  0  0  0  0  0  0  0  0  0  0
   -3.6078    0.7900   -0.9953 C   0  0  0  0  0  0  0  0  0  0  0  0
   -5.0381    0.6576   -0.5421 C   0  0  0  0  0  0  0  0  0  0  0  0
   -5.5460    1.5712    0.1636 O   0  0  0  0  0  0  0  0  0  0  0  0
   -5.8554   -0.4586   -0.9273 N   0  0  0  0  0  0  0  0  0  0  0  0
   -5.3260   -1.7755   -1.2838 C   0  0  0  0  0  0  0  0  0  0  0  0
   -5.7117   -2.7845   -0.1964 C   0  0  0  0  0  0  0  0  0  0  0  0
   -5.0841   -4.1771   -0.4024 C   0  0  0  0  0  0  0  0  0  0  0  0
   -3.5484   -4.2262   -0.2785 C   0  0  0  0  0  0  0  0  0  0  0  0
   -3.0160   -3.7071    1.0678 C   0  0  0  0  0  0  0  0  0  0  0  0
   -2.3643   -2.4435    0.8812 O   0  0  0  0  0  0  0  0  0  0  0  0
    3.5803    0.9673   -2.1731 C   0  0  0  0  0  0  0  0  0  0  0  0
    4.3869    2.2336   -1.8399 C   0  0  0  0  0  0  0  0  0  0  0  0
    8.1928    0.8721   -1.2995 H   0  0  0  0  0  0  0  0  0  0  0  0
    7.5666    2.5629   -1.3746 H   0  0  0  0  0  0  0  0  0  0  0  0
    6.9771    1.2893   -2.5232 H   0  0  0  0  0  0  0  0  0  0  0  0
    5.7921    0.1218   -0.7468 H   0  0  0  0  0  0  0  0  0  0  0  0
    6.1058    0.5311    1.6380 H   0  0  0  0  0  0  0  0  0  0  0  0
    7.0832    2.0295    1.3095 H   0  0  0  0  0  0  0  0  0  0  0  0
    7.7104    0.3844    0.9026 H   0  0  0  0  0  0  0  0  0  0  0  0
    3.3215    2.8369    0.4770 H   0  0  0  0  0  0  0  0  0  0  0  0
    4.4532    2.0189    1.5387 H   0  0  0  0  0  0  0  0  0  0  0  0
    2.3840    0.6841    1.0514 H   0  0  0  0  0  0  0  0  0  0  0  0
    3.8693   -0.1820    0.5653 H   0  0  0  0  0  0  0  0  0  0  0  0
    2.8379   -2.1139    0.0082 H   0  0  0  0  0  0  0  0  0  0  0  0
    1.9785   -3.7125    1.6341 H   0  0  0  0  0  0  0  0  0  0  0  0
   -0.4044   -3.8445    2.1111 H   0  0  0  0  0  0  0  0  0  0  0  0
   -0.9162    0.6897   -1.0813 H   0  0  0  0  0  0  0  0  0  0  0  0
   -1.6681   -0.7642   -1.7875 H   0  0  0  0  0  0  0  0  0  0  0  0
   -3.4459    0.7684    1.7433 H   0  0  0  0  0  0  0  0  0  0  0  0
   -1.8378    0.0856    1.8624 H   0  0  0  0  0  0  0  0  0  0  0  0
   -3.7559    3.1503    1.2362 H   0  0  0  0  0  0  0  0  0  0  0  0
   -2.7502    5.3960    1.1645 H   0  0  0  0  0  0  0  0  0  0  0  0
   -0.2854    5.6601    1.0582 H   0  0  0  0  0  0  0  0  0  0  0  0
    1.1688    3.6600    1.0086 H   0  0  0  0  0  0  0  0  0  0  0  0
    0.1759    1.3982    1.0849 H   0  0  0  0  0  0  0  0  0  0  0  0
   -3.5570    0.4023   -2.0381 H   0  0  0  0  0  0  0  0  0  0  0  0
   -3.3280    1.8630   -1.0693 H   0  0  0  0  0  0  0  0  0  0  0  0
   -6.8918   -0.3700   -0.8050 H   0  0  0  0  0  0  0  0  0  0  0  0
   -4.2254   -1.7383   -1.4083 H   0  0  0  0  0  0  0  0  0  0  0  0
   -5.7642   -2.0885   -2.2569 H   0  0  0  0  0  0  0  0  0  0  0  0
   -5.4493   -2.3795    0.8093 H   0  0  0  0  0  0  0  0  0  0  0  0
   -6.8208   -2.9070   -0.2123 H   0  0  0  0  0  0  0  0  0  0  0  0
   -5.5211   -4.8709    0.3495 H   0  0  0  0  0  0  0  0  0  0  0  0
   -5.3696   -4.5630   -1.4060 H   0  0  0  0  0  0  0  0  0  0  0  0
   -3.0729   -3.6830   -1.1240 H   0  0  0  0  0  0  0  0  0  0  0  0
   -3.2408   -5.2905   -0.3960 H   0  0  0  0  0  0  0  0  0  0  0  0
   -3.8280   -3.5859    1.8130 H   0  0  0  0  0  0  0  0  0  0  0  0
   -2.3386   -4.4693    1.4915 H   0  0  0  0  0  0  0  0  0  0  0  0
    2.9810    1.1781   -3.0845 H   0  0  0  0  0  0  0  0  0  0  0  0
    4.2637    0.1322   -2.4225 H   0  0  0  0  0  0  0  0  0  0  0  0
    3.6911    3.1027   -1.8324 H   0  0  0  0  0  0  0  0  0  0  0  0
    5.1062    2.4551   -2.6533 H   0  0  0  0  0  0  0  0  0  0  0  0
  1  2  1  0
  2  3  1  0
  2  4  1  0
  4  5  1  0
  5  6  1  0
  6  7  1  0
  7  8  1  0
  8  9  2  0
  8 10  1  0
 10 11  2  0
 11 12  1  0
 12 13  2  0
 13 14  1  0
 14 15  2  0
 15 16  1  0
 16 17  1  0
 17 18  1  0
 18 19  1  0
 19 20  2  0
 20 21  1  0
 21 22  2  0
 22 23  1  0
 23 24  2  0
 17 25  1  0
 25 26  1  0
 26 27  2  0
 26 28  1  0
 28 29  1  0
 29 30  1  0
 30 31  1  0
 31 32  1  0
 32 33  1  0
 33 34  1  0
  7 35  1  0
 35 36  1  0
 36  4  1  0
 15 10  1  0
 24 19  1  0
 34 14  1  0
  1 37  1  0
  1 38  1  0
  1 39  1  0
  2 40  1  0
  3 41  1  0
  3 42  1  0
  3 43  1  0
  5 44  1  0
  5 45  1  0
  6 46  1  0
  6 47  1  0
 11 48  1  0
 12 49  1  0
 13 50  1  0
 16 51  1  0
 16 52  1  0
 18 53  1  0
 18 54  1  0
 20 55  1  0
 21 56  1  0
 22 57  1  0
 23 58  1  0
 24 59  1  0
 25 60  1  0
 25 61  1  0
 28 62  1  0
 29 63  1  0
 29 64  1  0
 30 65  1  0
 30 66  1  0
 31 67  1  0
 31 68  1  0
 32 69  1  0
 32 70  1  0
 33 71  1  0
 33 72  1  0
 35 73  1  0
 35 74  1  0
 36 75  1  0
 36 76  1  0
M  END
$$$$
