
     RDKit          3D

 78 79  0  0  0  0  0  0  0  0999 V2000
   -6.8224    0.5542   -4.2999 C   0  0  0  0  0  0  0  0  0  0  0  0
   -6.6464    0.4045   -2.9085 O   0  0  0  0  0  0  0  0  0  0  0  0
   -5.2804    0.5593   -2.5547 C   0  0  0  0  0  0  0  0  0  0  0  0
   -5.0966    1.9445   -1.8912 C   0  0  0  0  0  0  0  0  0  0  0  0
   -3.6751    2.3233   -1.7615 N   0  0  0  0  0  0  0  0  0  0  0  0
   -3.0129    2.9107   -2.9099 C   0  0  0  0  0  0  0  0  0  0  0  0
   -1.7132    3.6546   -2.8021 C   0  0  0  0  0  0  0  0  0  0  0  0
   -3.5291    2.7933   -4.0561 O   0  0  0  0  0  0  0  0  0  0  0  0
   -3.0501    2.3042   -0.4235 C   0  0  0  0  0  0  0  0  0  0  0  0
   -1.7543    1.4701   -0.3990 C   0  0  0  0  0  0  0  0  0  0  0  0
   -1.4831    0.8961    1.0046 C   0  0  0  0  0  0  0  0  0  0  0  0
   -0.1603    0.2347    1.1121 N   0  0  0  0  0  0  0  0  0  0  0  0
    0.1169   -0.1557    2.5114 C   0  0  0  0  0  0  0  0  0  0  0  0
    1.5794   -0.4303    2.7211 C   0  0  0  0  0  0  0  0  0  0  0  0
    1.9439   -1.5863    3.0688 O   0  0  0  0  0  0  0  0  0  0  0  0
    2.5355    0.6274    2.5398 N   0  0  0  0  0  0  0  0  0  0  0  0
    3.9526    0.4978    2.7236 C   0  0  0  0  0  0  0  0  0  0  0  0
    4.7907    1.5551    2.6524 N   0  0  0  0  0  0  0  0  0  0  0  0
    6.0885    1.2060    2.8788 C   0  0  0  0  0  0  0  0  0  0  0  0
    7.1647    2.2499    2.8960 C   0  0  0  0  0  0  0  0  0  0  0  0
    6.2916   -0.1606    3.1221 C   0  0  0  0  0  0  0  0  0  0  0  0
    7.5575   -0.8469    3.4453 C   0  0  0  0  0  0  0  0  0  0  0  0
    7.5284   -1.8504    4.2064 O   0  0  0  0  0  0  0  0  0  0  0  0
    8.8138   -0.4110    2.9030 N   0  0  0  0  0  0  0  0  0  0  0  0
    8.9711   -0.2063    1.4607 C   0  0  0  0  0  0  0  0  0  0  0  0
   10.0034   -0.4173    3.7561 C   0  0  0  0  0  0  0  0  0  0  0  0
    4.7880   -0.9206    3.0801 S   0  0  0  0  0  0  0  0  0  0  0  0
    0.0618   -0.8783    0.1477 C   0  0  0  0  0  0  0  0  0  0  0  0
   -1.0340   -1.9696    0.1535 C   0  0  0  0  0  0  0  0  0  0  0  0
   -0.7249   -3.0665   -0.8850 C   0  0  0  0  0  0  0  0  0  0  0  0
   -1.9898   -3.8167   -1.3071 C   0  0  0  0  0  0  0  0  0  0  0  0
   -2.8316   -2.9291   -2.0200 O   0  0  0  0  0  0  0  0  0  0  0  0
   -4.1743   -3.0461   -1.5929 C   0  0  0  0  0  0  0  0  0  0  0  0
   -5.0143   -1.9765   -2.3091 C   0  0  0  0  0  0  0  0  0  0  0  0
   -6.3635   -2.3640   -2.3157 O   0  0  0  0  0  0  0  0  0  0  0  0
   -4.8776   -0.5979   -1.6105 C   0  0  0  0  0  0  0  0  0  0  0  0
   -5.6829   -0.5872   -0.4530 O   0  0  0  0  0  0  0  0  0  0  0  0
   -7.9043    0.4883   -4.5327 H   0  0  0  0  0  0  0  0  0  0  0  0
   -6.3086   -0.2647   -4.8483 H   0  0  0  0  0  0  0  0  0  0  0  0
   -6.4530    1.5477   -4.6452 H   0  0  0  0  0  0  0  0  0  0  0  0
   -4.5903    0.5065   -3.4333 H   0  0  0  0  0  0  0  0  0  0  0  0
   -5.6151    1.9710   -0.9119 H   0  0  0  0  0  0  0  0  0  0  0  0
   -5.6216    2.7138   -2.4971 H   0  0  0  0  0  0  0  0  0  0  0  0
   -0.8686    2.9361   -2.8538 H   0  0  0  0  0  0  0  0  0  0  0  0
   -1.6675    4.2401   -1.8600 H   0  0  0  0  0  0  0  0  0  0  0  0
   -1.6080    4.3689   -3.6480 H   0  0  0  0  0  0  0  0  0  0  0  0
   -3.7616    1.8833    0.3197 H   0  0  0  0  0  0  0  0  0  0  0  0
   -2.8365    3.3418   -0.0898 H   0  0  0  0  0  0  0  0  0  0  0  0
   -0.8922    2.1097   -0.6869 H   0  0  0  0  0  0  0  0  0  0  0  0
   -1.8351    0.6469   -1.1370 H   0  0  0  0  0  0  0  0  0  0  0  0
   -1.5119    1.7557    1.7118 H   0  0  0  0  0  0  0  0  0  0  0  0
   -2.3007    0.2027    1.3089 H   0  0  0  0  0  0  0  0  0  0  0  0
   -0.4949   -1.0315    2.8141 H   0  0  0  0  0  0  0  0  0  0  0  0
   -0.1468    0.6747    3.2047 H   0  0  0  0  0  0  0  0  0  0  0  0
    2.1693    1.5777    2.3064 H   0  0  0  0  0  0  0  0  0  0  0  0
    7.5855    2.3703    1.8749 H   0  0  0  0  0  0  0  0  0  0  0  0
    6.7388    3.2199    3.2244 H   0  0  0  0  0  0  0  0  0  0  0  0
    7.9689    1.9728    3.6079 H   0  0  0  0  0  0  0  0  0  0  0  0
    9.5818    0.7006    1.2732 H   0  0  0  0  0  0  0  0  0  0  0  0
    9.4734   -1.0911    1.0159 H   0  0  0  0  0  0  0  0  0  0  0  0
    7.9852   -0.0772    0.9622 H   0  0  0  0  0  0  0  0  0  0  0  0
    9.8555    0.2875    4.6026 H   0  0  0  0  0  0  0  0  0  0  0  0
   10.1850   -1.4361    4.1525 H   0  0  0  0  0  0  0  0  0  0  0  0
   10.9020   -0.0957    3.1890 H   0  0  0  0  0  0  0  0  0  0  0  0
    0.1539   -0.4485   -0.8739 H   0  0  0  0  0  0  0  0  0  0  0  0
    1.0424   -1.3606    0.3467 H   0  0  0  0  0  0  0  0  0  0  0  0
   -1.1056   -2.4495    1.1493 H   0  0  0  0  0  0  0  0  0  0  0  0
   -2.0138   -1.5132   -0.0779 H   0  0  0  0  0  0  0  0  0  0  0  0
    0.0104   -3.7824   -0.4553 H   0  0  0  0  0  0  0  0  0  0  0  0
   -0.2701   -2.6180   -1.7929 H   0  0  0  0  0  0  0  0  0  0  0  0
   -2.4561   -4.2803   -0.4032 H   0  0  0  0  0  0  0  0  0  0  0  0
   -1.6969   -4.6387   -1.9947 H   0  0  0  0  0  0  0  0  0  0  0  0
   -4.2611   -2.9013   -0.4847 H   0  0  0  0  0  0  0  0  0  0  0  0
   -4.5639   -4.0611   -1.8535 H   0  0  0  0  0  0  0  0  0  0  0  0
   -4.6457   -1.8918   -3.3570 H   0  0  0  0  0  0  0  0  0  0  0  0
   -6.4718   -3.0382   -3.0329 H   0  0  0  0  0  0  0  0  0  0  0  0
   -3.8081   -0.4589   -1.3358 H   0  0  0  0  0  0  0  0  0  0  0  0
   -5.2132   -0.0463    0.2356 H   0  0  0  0  0  0  0  0  0  0  0  0
  1  2  1  0
  2  3  1  0
  3  4  1  0
  4  5  1  0
  5  6  1  0
  6  7  1  0
  6  8  2  0
  5  9  1  0
  9 10  1  0
 10 11  1  0
 11 12  1  0
 12 13  1  0
 13 14  1  0
 14 15  2  0
 14 16  1  0
 16 17  1  0
 17 18  2  0
 18 19  1  0
 19 20  1  0
 19 21  2  0
 21 22  1  0
 22 23  2  0
 22 24  1  0
 24 25  1  0
 24 26  1  0
 21 27  1  0
 12 28  1  0
 28 29  1  0
 29 30  1  0
 30 31  1  0
 31 32  1  0
 32 33  1  0
 33 34  1  0
 34 35  1  0
 34 36  1  0
 36 37  1  0
 36  3  1  0
 27 17  1  0
  1 38  1  0
  1 39  1  0
  1 40  1  0
  3 41  1  0
  4 42  1  0
  4 43  1  0
  7 44  1  0
  7 45  1  0
  7 46  1  0
  9 47  1  0
  9 48  1  0
 10 49  1  0
 10 50  1  0
 11 51  1  0
 11 52  1  0
 13 53  1  0
 13 54  1  0
 16 55  1  0
 20 56  1  0
 20 57  1  0
 20 58  1  0
 25 59  1  0
 25 60  1  0
 25 61  1  0
 26 62  1  0
 26 63  1  0
 26 64  1  0
 28 65  1  0
 28 66  1  0
 29 67  1  0
 29 68  1  0
 30 69  1  0
 30 70  1  0
 31 71  1  0
 31 72  1  0
 33 73  1  0
 33 74  1  0
 34 75  1  0
 35 76  1  0
 36 77  1  0
 37 78  1  0
M  END
$$$$
