
     RDKit          3D

 67 70  0  0  0  0  0  0  0  0999 V2000
   -0.6142   -1.0509    1.5722 C   0  0  0  0  0  0  0  0  0  0  0  0
    0.6442   -0.5240    1.0474 N   0  0  0  0  0  0  0  0  0  0  0  0
    1.7076   -1.4726    0.6833 C   0  0  0  0  0  0  0  0  0  0  0  0
    1.9330   -1.4578   -0.8308 C   0  0  0  0  0  0  0  0  0  0  0  0
    3.1381   -2.1305   -1.2057 O   0  0  0  0  0  0  0  0  0  0  0  0
    4.4330   -1.8169   -0.7554 C   0  0  0  0  0  0  0  0  0  0  0  0
    5.1644   -2.8576   -0.1671 C   0  0  0  0  0  0  0  0  0  0  0  0
    6.4573   -2.6441    0.3116 C   0  0  0  0  0  0  0  0  0  0  0  0
    7.0430   -1.3852    0.1996 C   0  0  0  0  0  0  0  0  0  0  0  0
    6.3430   -0.3398   -0.4036 C   0  0  0  0  0  0  0  0  0  0  0  0
    5.0434   -0.5381   -0.9056 C   0  0  0  0  0  0  0  0  0  0  0  0
    4.3524    0.6380   -1.5550 C   0  0  0  0  0  0  0  0  0  0  0  0
    3.6839    1.5195   -0.4839 C   0  0  0  0  0  0  0  0  0  0  0  0
    2.5147    2.3489   -1.0428 C   0  0  0  0  0  0  0  0  0  0  0  0
    1.6029    2.9374    0.0645 C   0  0  0  0  0  0  0  0  0  0  0  0
    0.4284    2.0317    0.5738 C   0  0  0  0  0  0  0  0  0  0  0  0
   -0.4672    1.5742   -0.6403 C   0  0  0  0  0  0  0  0  0  0  0  0
   -1.8778    1.4330   -0.2557 N   0  0  0  0  0  0  0  0  0  0  0  0
   -2.7196    0.4649   -0.9212 C   0  0  0  0  0  0  0  0  0  0  0  0
   -2.2728   -0.1784   -1.9112 O   0  0  0  0  0  0  0  0  0  0  0  0
   -4.1513    0.2529   -0.4934 C   0  0  0  0  0  0  0  0  0  0  0  0
   -4.7150   -0.9832   -1.0838 N   0  0  0  0  0  0  0  0  0  0  0  0
   -4.2523   -2.2089   -0.3960 C   0  0  0  0  0  0  0  0  0  0  0  0
   -5.0072   -2.4573    0.9232 C   0  0  0  0  0  0  0  0  0  0  0  0
   -6.4048   -2.4764    0.7139 O   0  0  0  0  0  0  0  0  0  0  0  0
   -6.8259   -1.2236    0.2153 C   0  0  0  0  0  0  0  0  0  0  0  0
   -6.1900   -0.9498   -1.1549 C   0  0  0  0  0  0  0  0  0  0  0  0
   -2.4711    2.4517    0.6160 C   0  0  0  0  0  0  0  0  0  0  0  0
   -1.4136    3.4652    1.0368 C   0  0  0  0  0  0  0  0  0  0  0  0
   -0.2898    2.7860    1.5539 O   0  0  0  0  0  0  0  0  0  0  0  0
    0.9968    0.8405    1.3405 C   0  0  0  0  0  0  0  0  0  0  0  0
    1.7674    1.0641    2.3145 O   0  0  0  0  0  0  0  0  0  0  0  0
   -1.3539   -0.2394    1.7301 H   0  0  0  0  0  0  0  0  0  0  0  0
   -1.0381   -1.7854    0.8577 H   0  0  0  0  0  0  0  0  0  0  0  0
   -0.4312   -1.5523    2.5460 H   0  0  0  0  0  0  0  0  0  0  0  0
    1.4339   -2.5064    0.9892 H   0  0  0  0  0  0  0  0  0  0  0  0
    2.6442   -1.2165    1.2229 H   0  0  0  0  0  0  0  0  0  0  0  0
    1.9266   -0.4320   -1.2122 H   0  0  0  0  0  0  0  0  0  0  0  0
    1.0791   -1.9730   -1.3193 H   0  0  0  0  0  0  0  0  0  0  0  0
    4.7185   -3.8392   -0.0682 H   0  0  0  0  0  0  0  0  0  0  0  0
    7.0044   -3.4559    0.7733 H   0  0  0  0  0  0  0  0  0  0  0  0
    8.0443   -1.2197    0.5762 H   0  0  0  0  0  0  0  0  0  0  0  0
    6.8187    0.6301   -0.4851 H   0  0  0  0  0  0  0  0  0  0  0  0
    3.6411    0.2813   -2.3268 H   0  0  0  0  0  0  0  0  0  0  0  0
    5.0939    1.2532   -2.1108 H   0  0  0  0  0  0  0  0  0  0  0  0
    3.3366    0.8776    0.3404 H   0  0  0  0  0  0  0  0  0  0  0  0
    4.4430    2.2045   -0.0464 H   0  0  0  0  0  0  0  0  0  0  0  0
    2.9531    3.1929   -1.6197 H   0  0  0  0  0  0  0  0  0  0  0  0
    1.9175    1.7660   -1.7702 H   0  0  0  0  0  0  0  0  0  0  0  0
    1.1590    3.8704   -0.3451 H   0  0  0  0  0  0  0  0  0  0  0  0
    2.2287    3.2654    0.9236 H   0  0  0  0  0  0  0  0  0  0  0  0
   -0.4234    2.3327   -1.4525 H   0  0  0  0  0  0  0  0  0  0  0  0
   -0.0870    0.6334   -1.0824 H   0  0  0  0  0  0  0  0  0  0  0  0
   -4.2115    0.2286    0.6139 H   0  0  0  0  0  0  0  0  0  0  0  0
   -4.7213    1.1424   -0.8390 H   0  0  0  0  0  0  0  0  0  0  0  0
   -3.1614   -2.1634   -0.1953 H   0  0  0  0  0  0  0  0  0  0  0  0
   -4.4158   -3.0782   -1.0690 H   0  0  0  0  0  0  0  0  0  0  0  0
   -4.7304   -1.7096    1.6990 H   0  0  0  0  0  0  0  0  0  0  0  0
   -4.7010   -3.4486    1.3192 H   0  0  0  0  0  0  0  0  0  0  0  0
   -7.9293   -1.2476    0.0937 H   0  0  0  0  0  0  0  0  0  0  0  0
   -6.5956   -0.4052    0.9344 H   0  0  0  0  0  0  0  0  0  0  0  0
   -6.5323   -1.7288   -1.8707 H   0  0  0  0  0  0  0  0  0  0  0  0
   -6.5508    0.0238   -1.5530 H   0  0  0  0  0  0  0  0  0  0  0  0
   -3.2900    2.9810    0.0830 H   0  0  0  0  0  0  0  0  0  0  0  0
   -2.8824    1.9654    1.5264 H   0  0  0  0  0  0  0  0  0  0  0  0
   -1.8339    4.1158    1.8323 H   0  0  0  0  0  0  0  0  0  0  0  0
   -1.1341    4.1242    0.1849 H   0  0  0  0  0  0  0  0  0  0  0  0
  1  2  1  0
  2  3  1  0
  3  4  1  0
  4  5  1  0
  5  6  1  0
  6  7  2  0
  7  8  1  0
  8  9  2  0
  9 10  1  0
 10 11  2  0
 11 12  1  0
 12 13  1  0
 13 14  1  0
 14 15  1  0
 15 16  1  0
 16 17  1  0
 17 18  1  0
 18 19  1  0
 19 20  2  0
 19 21  1  0
 21 22  1  0
 22 23  1  0
 23 24  1  0
 24 25  1  0
 25 26  1  0
 26 27  1  0
 18 28  1  0
 28 29  1  0
 29 30  1  0
 16 31  1  0
 31 32  2  0
 31  2  1  0
 11  6  1  0
 30 16  1  0
 27 22  1  0
  1 33  1  0
  1 34  1  0
  1 35  1  0
  3 36  1  0
  3 37  1  0
  4 38  1  0
  4 39  1  0
  7 40  1  0
  8 41  1  0
  9 42  1  0
 10 43  1  0
 12 44  1  0
 12 45  1  0
 13 46  1  0
 13 47  1  0
 14 48  1  0
 14 49  1  0
 15 50  1  0
 15 51  1  0
 17 52  1  0
 17 53  1  0
 21 54  1  0
 21 55  1  0
 23 56  1  0
 23 57  1  0
 24 58  1  0
 24 59  1  0
 26 60  1  0
 26 61  1  0
 27 62  1  0
 27 63  1  0
 28 64  1  0
 28 65  1  0
 29 66  1  0
 29 67  1  0
M  END
$$$$
