
     RDKit          3D

 54 56  0  0  0  0  0  0  0  0999 V2000
    6.2478    2.0587   -1.6897 C   0  0  0  0  0  0  0  0  0  0  0  0
    5.2409    1.4220   -0.8504 N   0  0  0  0  0  0  0  0  0  0  0  0
    3.8423    1.5119   -1.1516 C   0  0  0  0  0  0  0  0  0  0  0  0
    3.4506    2.1574   -2.1615 O   0  0  0  0  0  0  0  0  0  0  0  0
    2.8315    0.8249   -0.2816 C   0  0  0  0  0  0  0  0  0  0  0  0
    2.2139   -0.3010   -1.0117 N   0  0  0  0  0  0  0  0  0  0  0  0
    3.0976   -1.4859   -1.0982 C   0  0  0  0  0  0  0  0  0  0  0  0
    2.7884   -2.5267   -0.0127 C   0  0  0  0  0  0  0  0  0  0  0  0
    2.2528   -1.8984    1.1341 O   0  0  0  0  0  0  0  0  0  0  0  0
    0.9384   -1.3944    0.9002 C   0  0  0  0  0  0  0  0  0  0  0  0
    0.6600   -0.3963    2.0689 C   0  0  0  0  0  0  0  0  0  0  0  0
   -0.7975   -0.1141    2.3322 C   0  0  0  0  0  0  0  0  0  0  0  0
   -1.4661    0.8592    1.7006 C   0  0  0  0  0  0  0  0  0  0  0  0
   -2.9434    1.0658    1.9017 C   0  0  0  0  0  0  0  0  0  0  0  0
   -3.6282    1.2099    0.5659 C   0  0  0  0  0  0  0  0  0  0  0  0
   -3.5937    2.4720   -0.0574 C   0  0  0  0  0  0  0  0  0  0  0  0
   -4.2400    2.6857   -1.2753 C   0  0  0  0  0  0  0  0  0  0  0  0
   -4.9338    1.6450   -1.8885 C   0  0  0  0  0  0  0  0  0  0  0  0
   -4.9698    0.3841   -1.2928 C   0  0  0  0  0  0  0  0  0  0  0  0
   -4.3054    0.1404   -0.0831 C   0  0  0  0  0  0  0  0  0  0  0  0
   -4.3806   -1.1658    0.4293 O   0  0  0  0  0  0  0  0  0  0  0  0
   -3.2695   -2.0061    0.7570 C   0  0  0  0  0  0  0  0  0  0  0  0
   -2.1486   -1.9193   -0.2838 C   0  0  0  0  0  0  0  0  0  0  0  0
   -1.0704   -2.8526    0.0453 N   0  0  0  0  0  0  0  0  0  0  0  0
   -0.0394   -2.5737    1.0100 C   0  0  0  0  0  0  0  0  0  0  0  0
    0.1079   -3.3777    1.9702 O   0  0  0  0  0  0  0  0  0  0  0  0
    0.8765   -0.6577   -0.4933 C   0  0  0  0  0  0  0  0  0  0  0  0
    6.1947    1.6464   -2.7194 H   0  0  0  0  0  0  0  0  0  0  0  0
    6.0755    3.1552   -1.7187 H   0  0  0  0  0  0  0  0  0  0  0  0
    7.2604    1.8650   -1.2771 H   0  0  0  0  0  0  0  0  0  0  0  0
    5.5547    0.8815   -0.0130 H   0  0  0  0  0  0  0  0  0  0  0  0
    2.0662    1.5868   -0.0162 H   0  0  0  0  0  0  0  0  0  0  0  0
    3.3043    0.4778    0.6634 H   0  0  0  0  0  0  0  0  0  0  0  0
    2.9621   -1.9577   -2.0949 H   0  0  0  0  0  0  0  0  0  0  0  0
    4.1700   -1.1969   -1.0348 H   0  0  0  0  0  0  0  0  0  0  0  0
    2.0975   -3.3061   -0.4070 H   0  0  0  0  0  0  0  0  0  0  0  0
    3.7266   -3.0478    0.2722 H   0  0  0  0  0  0  0  0  0  0  0  0
    1.2068    0.5579    1.9284 H   0  0  0  0  0  0  0  0  0  0  0  0
    1.0685   -0.8347    3.0062 H   0  0  0  0  0  0  0  0  0  0  0  0
   -1.3088   -0.7389    3.0586 H   0  0  0  0  0  0  0  0  0  0  0  0
   -0.9369    1.5323    1.0326 H   0  0  0  0  0  0  0  0  0  0  0  0
   -3.0832    1.9964    2.4931 H   0  0  0  0  0  0  0  0  0  0  0  0
   -3.4114    0.2585    2.5011 H   0  0  0  0  0  0  0  0  0  0  0  0
   -3.0700    3.2983    0.4083 H   0  0  0  0  0  0  0  0  0  0  0  0
   -4.2089    3.6626   -1.7403 H   0  0  0  0  0  0  0  0  0  0  0  0
   -5.4415    1.8138   -2.8294 H   0  0  0  0  0  0  0  0  0  0  0  0
   -5.5043   -0.4192   -1.7842 H   0  0  0  0  0  0  0  0  0  0  0  0
   -3.6363   -3.0535    0.7972 H   0  0  0  0  0  0  0  0  0  0  0  0
   -2.8916   -1.7740    1.7658 H   0  0  0  0  0  0  0  0  0  0  0  0
   -1.7706   -0.8851   -0.3434 H   0  0  0  0  0  0  0  0  0  0  0  0
   -2.5588   -2.1805   -1.2827 H   0  0  0  0  0  0  0  0  0  0  0  0
   -1.2754   -3.8620   -0.1320 H   0  0  0  0  0  0  0  0  0  0  0  0
    0.4123   -1.3157   -1.2576 H   0  0  0  0  0  0  0  0  0  0  0  0
    0.2360    0.2457   -0.4603 H   0  0  0  0  0  0  0  0  0  0  0  0
  1  2  1  0
  2  3  1  0
  3  4  2  0
  3  5  1  0
  5  6  1  0
  6  7  1  0
  7  8  1  0
  8  9  1  0
  9 10  1  0
 10 11  1  0
 11 12  1  0
 12 13  2  0
 13 14  1  0
 14 15  1  0
 15 16  2  0
 16 17  1  0
 17 18  2  0
 18 19  1  0
 19 20  2  0
 20 21  1  0
 21 22  1  0
 22 23  1  0
 23 24  1  0
 24 25  1  0
 25 26  2  0
 10 27  1  0
 27  6  1  0
 25 10  1  0
 20 15  1  0
  1 28  1  0
  1 29  1  0
  1 30  1  0
  2 31  1  0
  5 32  1  0
  5 33  1  0
  7 34  1  0
  7 35  1  0
  8 36  1  0
  8 37  1  0
 11 38  1  0
 11 39  1  0
 12 40  1  0
 13 41  1  0
 14 42  1  0
 14 43  1  0
 16 44  1  0
 17 45  1  0
 18 46  1  0
 19 47  1  0
 22 48  1  0
 22 49  1  0
 23 50  1  0
 23 51  1  0
 24 52  1  0
 27 53  1  0
 27 54  1  0
M  END
$$$$
