
     RDKit          3D

 71 73  0  0  0  0  0  0  0  0999 V2000
   -2.0364    4.4318    1.4539 C   0  0  0  0  0  0  0  0  0  0  0  0
   -1.6144    3.1421    0.7583 C   0  0  0  0  0  0  0  0  0  0  0  0
   -2.7050    2.6509   -0.2037 C   0  0  0  0  0  0  0  0  0  0  0  0
   -2.4042    1.3053   -0.7220 N   0  0  0  0  0  0  0  0  0  0  0  0
   -1.9717    1.1499   -2.1251 C   0  0  0  0  0  0  0  0  0  0  0  0
   -0.5983    1.7973   -2.3889 C   0  0  0  0  0  0  0  0  0  0  0  0
    0.5162    1.2780   -1.4647 C   0  0  0  0  0  0  0  0  0  0  0  0
    1.0541   -0.1018   -1.8653 C   0  0  0  0  0  0  0  0  0  0  0  0
    1.7183   -0.7443   -0.7167 N   0  0  0  0  0  0  0  0  0  0  0  0
    3.1023   -0.4011   -0.5148 C   0  0  0  0  0  0  0  0  0  0  0  0
    3.9635   -0.9013   -1.2905 O   0  0  0  0  0  0  0  0  0  0  0  0
    3.5695    0.4055    0.6867 C   0  0  0  0  0  0  0  0  0  0  0  0
    2.4202    1.1724    1.3967 C   0  0  0  0  0  0  0  0  0  0  0  0
    2.8001    1.6526    2.7990 C   0  0  0  0  0  0  0  0  0  0  0  0
    4.7625    1.3238    0.3100 C   0  0  0  0  0  0  0  0  0  0  0  0
    4.4246    2.4016   -0.7243 C   0  0  0  0  0  0  0  0  0  0  0  0
    1.1618   -2.0040   -0.1517 C   0  0  0  0  0  0  0  0  0  0  0  0
    1.9828   -2.5333    1.0541 C   0  0  0  0  0  0  0  0  0  0  0  0
    1.4529   -3.8813    1.5851 C   0  0  0  0  0  0  0  0  0  0  0  0
   -0.0658   -4.0496    1.4191 C   0  0  0  0  0  0  0  0  0  0  0  0
   -0.7733   -2.6946    1.4413 C   0  0  0  0  0  0  0  0  0  0  0  0
   -0.3471   -1.8302    0.2299 C   0  0  0  0  0  0  0  0  0  0  0  0
   -1.1378   -2.1750   -0.9139 O   0  0  0  0  0  0  0  0  0  0  0  0
   -2.5378   -2.1289   -1.0247 C   0  0  0  0  0  0  0  0  0  0  0  0
   -3.1514   -3.2009   -1.6858 C   0  0  0  0  0  0  0  0  0  0  0  0
   -4.5378   -3.2492   -1.8395 C   0  0  0  0  0  0  0  0  0  0  0  0
   -5.3297   -2.2144   -1.3442 C   0  0  0  0  0  0  0  0  0  0  0  0
   -4.7361   -1.1246   -0.7059 C   0  0  0  0  0  0  0  0  0  0  0  0
   -3.3429   -1.0602   -0.5465 C   0  0  0  0  0  0  0  0  0  0  0  0
   -2.7916    0.1583    0.0718 C   0  0  0  0  0  0  0  0  0  0  0  0
   -2.7691    0.2291    1.3295 O   0  0  0  0  0  0  0  0  0  0  0  0
   -2.9409    4.2567    2.0733 H   0  0  0  0  0  0  0  0  0  0  0  0
   -2.2526    5.2223    0.7039 H   0  0  0  0  0  0  0  0  0  0  0  0
   -1.2159    4.7840    2.1139 H   0  0  0  0  0  0  0  0  0  0  0  0
   -0.6800    3.3428    0.1963 H   0  0  0  0  0  0  0  0  0  0  0  0
   -1.3965    2.3745    1.5302 H   0  0  0  0  0  0  0  0  0  0  0  0
   -2.7968    3.3772   -1.0411 H   0  0  0  0  0  0  0  0  0  0  0  0
   -3.6901    2.6351    0.3118 H   0  0  0  0  0  0  0  0  0  0  0  0
   -1.9163    0.0850   -2.4189 H   0  0  0  0  0  0  0  0  0  0  0  0
   -2.7273    1.6159   -2.7931 H   0  0  0  0  0  0  0  0  0  0  0  0
   -0.6889    2.8963   -2.2543 H   0  0  0  0  0  0  0  0  0  0  0  0
   -0.3094    1.6277   -3.4494 H   0  0  0  0  0  0  0  0  0  0  0  0
    0.1487    1.2463   -0.4229 H   0  0  0  0  0  0  0  0  0  0  0  0
    1.3588    1.9998   -1.4926 H   0  0  0  0  0  0  0  0  0  0  0  0
    0.2417   -0.7417   -2.2579 H   0  0  0  0  0  0  0  0  0  0  0  0
    1.7691    0.0131   -2.7107 H   0  0  0  0  0  0  0  0  0  0  0  0
    3.9611   -0.3388    1.4125 H   0  0  0  0  0  0  0  0  0  0  0  0
    1.5378    0.5103    1.5158 H   0  0  0  0  0  0  0  0  0  0  0  0
    2.0907    2.0451    0.7982 H   0  0  0  0  0  0  0  0  0  0  0  0
    1.9191    2.1374    3.2739 H   0  0  0  0  0  0  0  0  0  0  0  0
    3.6184    2.4004    2.7594 H   0  0  0  0  0  0  0  0  0  0  0  0
    3.1057    0.7919    3.4306 H   0  0  0  0  0  0  0  0  0  0  0  0
    5.5887    0.6992   -0.0944 H   0  0  0  0  0  0  0  0  0  0  0  0
    5.1740    1.8126    1.2155 H   0  0  0  0  0  0  0  0  0  0  0  0
    3.9660    1.9562   -1.6328 H   0  0  0  0  0  0  0  0  0  0  0  0
    5.3585    2.9192   -1.0291 H   0  0  0  0  0  0  0  0  0  0  0  0
    3.7402    3.1610   -0.2946 H   0  0  0  0  0  0  0  0  0  0  0  0
    1.2377   -2.7865   -0.9406 H   0  0  0  0  0  0  0  0  0  0  0  0
    3.0475   -2.6761    0.7715 H   0  0  0  0  0  0  0  0  0  0  0  0
    1.9473   -1.7892    1.8774 H   0  0  0  0  0  0  0  0  0  0  0  0
    1.7114   -3.9551    2.6626 H   0  0  0  0  0  0  0  0  0  0  0  0
    1.9693   -4.7181    1.0678 H   0  0  0  0  0  0  0  0  0  0  0  0
   -0.2820   -4.5582    0.4537 H   0  0  0  0  0  0  0  0  0  0  0  0
   -0.4602   -4.6917    2.2361 H   0  0  0  0  0  0  0  0  0  0  0  0
   -1.8732   -2.8507    1.4489 H   0  0  0  0  0  0  0  0  0  0  0  0
   -0.5196   -2.1637    2.3856 H   0  0  0  0  0  0  0  0  0  0  0  0
   -0.5043   -0.7732    0.5046 H   0  0  0  0  0  0  0  0  0  0  0  0
   -2.5459   -4.0111   -2.0708 H   0  0  0  0  0  0  0  0  0  0  0  0
   -4.9983   -4.0898   -2.3406 H   0  0  0  0  0  0  0  0  0  0  0  0
   -6.4056   -2.2501   -1.4631 H   0  0  0  0  0  0  0  0  0  0  0  0
   -5.3663   -0.3199   -0.3439 H   0  0  0  0  0  0  0  0  0  0  0  0
  1  2  1  0
  2  3  1  0
  3  4  1  0
  4  5  1  0
  5  6  1  0
  6  7  1  0
  7  8  1  0
  8  9  1  0
  9 10  1  0
 10 11  2  0
 10 12  1  0
 12 13  1  0
 13 14  1  0
 12 15  1  0
 15 16  1  0
  9 17  1  0
 17 18  1  0
 18 19  1  0
 19 20  1  0
 20 21  1  0
 21 22  1  0
 22 23  1  0
 23 24  1  0
 24 25  2  0
 25 26  1  0
 26 27  2  0
 27 28  1  0
 28 29  2  0
 29 30  1  0
 30 31  2  0
 30  4  1  0
 22 17  1  0
 29 24  1  0
  1 32  1  0
  1 33  1  0
  1 34  1  0
  2 35  1  0
  2 36  1  0
  3 37  1  0
  3 38  1  0
  5 39  1  0
  5 40  1  0
  6 41  1  0
  6 42  1  0
  7 43  1  0
  7 44  1  0
  8 45  1  0
  8 46  1  0
 12 47  1  0
 13 48  1  0
 13 49  1  0
 14 50  1  0
 14 51  1  0
 14 52  1  0
 15 53  1  0
 15 54  1  0
 16 55  1  0
 16 56  1  0
 16 57  1  0
 17 58  1  0
 18 59  1  0
 18 60  1  0
 19 61  1  0
 19 62  1  0
 20 63  1  0
 20 64  1  0
 21 65  1  0
 21 66  1  0
 22 67  1  0
 25 68  1  0
 26 69  1  0
 27 70  1  0
 28 71  1  0
M  END
$$$$
