
     RDKit          3D

 65 67  0  0  0  0  0  0  0  0999 V2000
    0.9409    1.7202   -2.8546 C   0  0  0  0  0  0  0  0  0  0  0  0
   -0.4614    1.9845   -2.3185 C   0  0  0  0  0  0  0  0  0  0  0  0
   -1.0104    0.7726   -1.6963 N   0  0  0  0  0  0  0  0  0  0  0  0
   -2.2011    0.1238   -2.2662 C   0  0  0  0  0  0  0  0  0  0  0  0
   -3.4503    0.4581   -1.4445 C   0  0  0  0  0  0  0  0  0  0  0  0
   -3.5775   -0.4602   -0.3604 O   0  0  0  0  0  0  0  0  0  0  0  0
   -4.4904   -0.3415    0.7013 C   0  0  0  0  0  0  0  0  0  0  0  0
   -5.3112    0.7947    0.8520 C   0  0  0  0  0  0  0  0  0  0  0  0
   -6.1681    0.9093    1.9490 C   0  0  0  0  0  0  0  0  0  0  0  0
   -6.2188   -0.1022    2.9065 C   0  0  0  0  0  0  0  0  0  0  0  0
   -5.4283   -1.2426    2.7611 C   0  0  0  0  0  0  0  0  0  0  0  0
   -4.5739   -1.3829    1.6538 C   0  0  0  0  0  0  0  0  0  0  0  0
   -3.7744   -2.6575    1.4988 C   0  0  0  0  0  0  0  0  0  0  0  0
   -2.4438   -2.6275    2.2722 C   0  0  0  0  0  0  0  0  0  0  0  0
   -1.4189   -1.6153    1.7322 C   0  0  0  0  0  0  0  0  0  0  0  0
   -0.8494   -2.0259    0.3565 C   0  0  0  0  0  0  0  0  0  0  0  0
    0.1664   -1.0245   -0.2590 C   0  0  0  0  0  0  0  0  0  0  0  0
    1.4297   -0.8946    0.6638 C   0  0  0  0  0  0  0  0  0  0  0  0
    2.5989   -0.5235   -0.1405 N   0  0  0  0  0  0  0  0  0  0  0  0
    3.4540    0.5771    0.2425 C   0  0  0  0  0  0  0  0  0  0  0  0
    3.0741    1.3859    1.1340 O   0  0  0  0  0  0  0  0  0  0  0  0
    4.7645    0.8402   -0.4581 C   0  0  0  0  0  0  0  0  0  0  0  0
    5.7215    1.5195    0.4410 N   0  0  0  0  0  0  0  0  0  0  0  0
    6.2780    0.5705    1.4233 C   0  0  0  0  0  0  0  0  0  0  0  0
    6.8169    2.1124   -0.3442 C   0  0  0  0  0  0  0  0  0  0  0  0
    2.8746   -1.3233   -1.3388 C   0  0  0  0  0  0  0  0  0  0  0  0
    1.6833   -2.2315   -1.6507 C   0  0  0  0  0  0  0  0  0  0  0  0
    0.4827   -1.4884   -1.5776 O   0  0  0  0  0  0  0  0  0  0  0  0
   -0.4798    0.3481   -0.4275 C   0  0  0  0  0  0  0  0  0  0  0  0
   -0.5287    1.1516    0.5440 O   0  0  0  0  0  0  0  0  0  0  0  0
    1.6391    1.5208   -2.0153 H   0  0  0  0  0  0  0  0  0  0  0  0
    1.3027    2.6095   -3.4111 H   0  0  0  0  0  0  0  0  0  0  0  0
    0.9290    0.8478   -3.5400 H   0  0  0  0  0  0  0  0  0  0  0  0
   -0.4279    2.8100   -1.5742 H   0  0  0  0  0  0  0  0  0  0  0  0
   -1.1049    2.3283   -3.1568 H   0  0  0  0  0  0  0  0  0  0  0  0
   -2.3646    0.4716   -3.3091 H   0  0  0  0  0  0  0  0  0  0  0  0
   -2.0535   -0.9740   -2.3287 H   0  0  0  0  0  0  0  0  0  0  0  0
   -3.3669    1.5011   -1.0687 H   0  0  0  0  0  0  0  0  0  0  0  0
   -4.3519    0.3785   -2.0896 H   0  0  0  0  0  0  0  0  0  0  0  0
   -5.2939    1.5999    0.1316 H   0  0  0  0  0  0  0  0  0  0  0  0
   -6.7900    1.7886    2.0602 H   0  0  0  0  0  0  0  0  0  0  0  0
   -6.8802   -0.0076    3.7581 H   0  0  0  0  0  0  0  0  0  0  0  0
   -5.4910   -2.0252    3.5072 H   0  0  0  0  0  0  0  0  0  0  0  0
   -3.6112   -2.8942    0.4282 H   0  0  0  0  0  0  0  0  0  0  0  0
   -4.3776   -3.5059    1.8897 H   0  0  0  0  0  0  0  0  0  0  0  0
   -2.6542   -2.3883    3.3373 H   0  0  0  0  0  0  0  0  0  0  0  0
   -1.9943   -3.6440    2.2530 H   0  0  0  0  0  0  0  0  0  0  0  0
   -0.5841   -1.5579    2.4623 H   0  0  0  0  0  0  0  0  0  0  0  0
   -1.8873   -0.6134    1.6925 H   0  0  0  0  0  0  0  0  0  0  0  0
   -1.6736   -2.1700   -0.3658 H   0  0  0  0  0  0  0  0  0  0  0  0
   -0.3594   -3.0184    0.4615 H   0  0  0  0  0  0  0  0  0  0  0  0
    1.2615   -0.1887    1.5040 H   0  0  0  0  0  0  0  0  0  0  0  0
    1.6508   -1.8718    1.1478 H   0  0  0  0  0  0  0  0  0  0  0  0
    5.2063   -0.1035   -0.8458 H   0  0  0  0  0  0  0  0  0  0  0  0
    4.5317    1.4852   -1.3341 H   0  0  0  0  0  0  0  0  0  0  0  0
    5.4650    0.1241    2.0358 H   0  0  0  0  0  0  0  0  0  0  0  0
    6.9590    1.1016    2.1225 H   0  0  0  0  0  0  0  0  0  0  0  0
    6.8419   -0.2496    0.9246 H   0  0  0  0  0  0  0  0  0  0  0  0
    7.3474    1.3389   -0.9436 H   0  0  0  0  0  0  0  0  0  0  0  0
    7.5461    2.6147    0.3280 H   0  0  0  0  0  0  0  0  0  0  0  0
    6.4167    2.8914   -1.0280 H   0  0  0  0  0  0  0  0  0  0  0  0
    3.0401   -0.6467   -2.2050 H   0  0  0  0  0  0  0  0  0  0  0  0
    3.7817   -1.9444   -1.1821 H   0  0  0  0  0  0  0  0  0  0  0  0
    1.7938   -2.6306   -2.6806 H   0  0  0  0  0  0  0  0  0  0  0  0
    1.6548   -3.1042   -0.9611 H   0  0  0  0  0  0  0  0  0  0  0  0
  1  2  1  0
  2  3  1  0
  3  4  1  0
  4  5  1  0
  5  6  1  0
  6  7  1  0
  7  8  2  0
  8  9  1  0
  9 10  2  0
 10 11  1  0
 11 12  2  0
 12 13  1  0
 13 14  1  0
 14 15  1  0
 15 16  1  0
 16 17  1  0
 17 18  1  0
 18 19  1  0
 19 20  1  0
 20 21  2  0
 20 22  1  0
 22 23  1  0
 23 24  1  0
 23 25  1  0
 19 26  1  0
 26 27  1  0
 27 28  1  0
 17 29  1  0
 29 30  2  0
 29  3  1  0
 12  7  1  0
 28 17  1  0
  1 31  1  0
  1 32  1  0
  1 33  1  0
  2 34  1  0
  2 35  1  0
  4 36  1  0
  4 37  1  0
  5 38  1  0
  5 39  1  0
  8 40  1  0
  9 41  1  0
 10 42  1  0
 11 43  1  0
 13 44  1  0
 13 45  1  0
 14 46  1  0
 14 47  1  0
 15 48  1  0
 15 49  1  0
 16 50  1  0
 16 51  1  0
 18 52  1  0
 18 53  1  0
 22 54  1  0
 22 55  1  0
 24 56  1  0
 24 57  1  0
 24 58  1  0
 25 59  1  0
 25 60  1  0
 25 61  1  0
 26 62  1  0
 26 63  1  0
 27 64  1  0
 27 65  1  0
M  END
$$$$
