
     RDKit          3D

 69 72  0  0  0  0  0  0  0  0999 V2000
   -3.2314   -5.0209    0.8353 C   0  0  0  0  0  0  0  0  0  0  0  0
   -2.7128   -3.7088    0.8621 O   0  0  0  0  0  0  0  0  0  0  0  0
   -3.4145   -2.9021   -0.0651 C   0  0  0  0  0  0  0  0  0  0  0  0
   -2.8086   -1.4691   -0.1254 C   0  0  0  0  0  0  0  0  0  0  0  0
   -1.4017   -1.5001   -0.7936 C   0  0  0  0  0  0  0  0  0  0  0  0
   -0.3528   -2.4570   -0.1998 C   0  0  0  0  0  0  0  0  0  0  0  0
    1.0667   -2.0736   -0.6535 C   0  0  0  0  0  0  0  0  0  0  0  0
    1.5849   -0.8052    0.0611 C   0  0  0  0  0  0  0  0  0  0  0  0
    2.1948    0.1275   -0.9021 N   0  0  0  0  0  0  0  0  0  0  0  0
    3.6323    0.2107   -1.0883 C   0  0  0  0  0  0  0  0  0  0  0  0
    4.1125    0.9644   -1.9802 O   0  0  0  0  0  0  0  0  0  0  0  0
    4.5789   -0.5373   -0.2398 C   0  0  0  0  0  0  0  0  0  0  0  0
    4.7724   -0.1262    1.0881 C   0  0  0  0  0  0  0  0  0  0  0  0
    5.7125   -0.7825    1.8846 C   0  0  0  0  0  0  0  0  0  0  0  0
    6.4418   -1.8087    1.3733 N   0  0  0  0  0  0  0  0  0  0  0  0
    6.2817   -2.2288    0.0880 C   0  0  0  0  0  0  0  0  0  0  0  0
    5.3416   -1.6080   -0.7542 C   0  0  0  0  0  0  0  0  0  0  0  0
    5.1917   -2.0679   -2.1801 C   0  0  0  0  0  0  0  0  0  0  0  0
    1.3104    1.0669   -1.6214 C   0  0  0  0  0  0  0  0  0  0  0  0
    1.0610    2.3307   -0.7795 C   0  0  0  0  0  0  0  0  0  0  0  0
   -0.3186    2.5019   -0.3830 O   0  0  0  0  0  0  0  0  0  0  0  0
   -0.7696    3.6750    0.2723 C   0  0  0  0  0  0  0  0  0  0  0  0
    0.1519    4.7223    0.5381 C   0  0  0  0  0  0  0  0  0  0  0  0
   -0.2549    5.9430    1.0718 C   0  0  0  0  0  0  0  0  0  0  0  0
   -1.5905    6.1582    1.3565 C   0  0  0  0  0  0  0  0  0  0  0  0
   -2.5161    5.1365    1.1565 C   0  0  0  0  0  0  0  0  0  0  0  0
   -2.1343    3.8593    0.6646 C   0  0  0  0  0  0  0  0  0  0  0  0
   -3.2095    2.8013    0.6604 C   0  0  0  0  0  0  0  0  0  0  0  0
   -4.3646    3.1183    1.0803 O   0  0  0  0  0  0  0  0  0  0  0  0
   -2.9966    1.4169    0.3351 N   0  0  0  0  0  0  0  0  0  0  0  0
   -2.2979    0.6049    1.3429 C   0  0  0  0  0  0  0  0  0  0  0  0
   -2.7376   -0.8705    1.3165 C   0  0  0  0  0  0  0  0  0  0  0  0
   -4.0925    0.7981   -0.4319 C   0  0  0  0  0  0  0  0  0  0  0  0
   -3.7277   -0.5702   -1.0266 C   0  0  0  0  0  0  0  0  0  0  0  0
   -3.1038   -5.4829   -0.1686 H   0  0  0  0  0  0  0  0  0  0  0  0
   -2.6716   -5.6322    1.5729 H   0  0  0  0  0  0  0  0  0  0  0  0
   -4.3085   -5.0331    1.1288 H   0  0  0  0  0  0  0  0  0  0  0  0
   -3.3783   -3.3421   -1.0919 H   0  0  0  0  0  0  0  0  0  0  0  0
   -4.4818   -2.8240    0.2554 H   0  0  0  0  0  0  0  0  0  0  0  0
   -1.0230   -0.4769   -0.7591 H   0  0  0  0  0  0  0  0  0  0  0  0
   -1.5061   -1.7591   -1.8716 H   0  0  0  0  0  0  0  0  0  0  0  0
   -0.5680   -3.4795   -0.5680 H   0  0  0  0  0  0  0  0  0  0  0  0
   -0.3888   -2.4915    0.9121 H   0  0  0  0  0  0  0  0  0  0  0  0
    1.0754   -1.9367   -1.7591 H   0  0  0  0  0  0  0  0  0  0  0  0
    1.7554   -2.9209   -0.4307 H   0  0  0  0  0  0  0  0  0  0  0  0
    2.2915   -1.0999    0.8598 H   0  0  0  0  0  0  0  0  0  0  0  0
    0.7840   -0.2670    0.6041 H   0  0  0  0  0  0  0  0  0  0  0  0
    4.2006    0.6946    1.5017 H   0  0  0  0  0  0  0  0  0  0  0  0
    5.8594   -0.4727    2.9110 H   0  0  0  0  0  0  0  0  0  0  0  0
    6.8956   -3.0420   -0.2769 H   0  0  0  0  0  0  0  0  0  0  0  0
    4.1128   -2.1523   -2.4398 H   0  0  0  0  0  0  0  0  0  0  0  0
    5.6682   -3.0626   -2.3365 H   0  0  0  0  0  0  0  0  0  0  0  0
    5.6783   -1.3306   -2.8554 H   0  0  0  0  0  0  0  0  0  0  0  0
    0.3655    0.5833   -1.9298 H   0  0  0  0  0  0  0  0  0  0  0  0
    1.7813    1.3595   -2.5835 H   0  0  0  0  0  0  0  0  0  0  0  0
    1.3797    3.2071   -1.3942 H   0  0  0  0  0  0  0  0  0  0  0  0
    1.6966    2.3113    0.1381 H   0  0  0  0  0  0  0  0  0  0  0  0
    1.2076    4.6200    0.3280 H   0  0  0  0  0  0  0  0  0  0  0  0
    0.4756    6.7233    1.2614 H   0  0  0  0  0  0  0  0  0  0  0  0
   -1.9065    7.1130    1.7624 H   0  0  0  0  0  0  0  0  0  0  0  0
   -3.5399    5.3432    1.4444 H   0  0  0  0  0  0  0  0  0  0  0  0
   -2.5037    1.0045    2.3561 H   0  0  0  0  0  0  0  0  0  0  0  0
   -1.2078    0.6822    1.1892 H   0  0  0  0  0  0  0  0  0  0  0  0
   -2.0582   -1.4537    1.9708 H   0  0  0  0  0  0  0  0  0  0  0  0
   -3.7428   -0.9334    1.7878 H   0  0  0  0  0  0  0  0  0  0  0  0
   -4.4045    1.4758   -1.2592 H   0  0  0  0  0  0  0  0  0  0  0  0
   -4.9687    0.6621    0.2453 H   0  0  0  0  0  0  0  0  0  0  0  0
   -4.6880   -1.0857   -1.2394 H   0  0  0  0  0  0  0  0  0  0  0  0
   -3.2806   -0.3997   -2.0289 H   0  0  0  0  0  0  0  0  0  0  0  0
  1  2  1  0
  2  3  1  0
  3  4  1  0
  4  5  1  0
  5  6  1  0
  6  7  1  0
  7  8  1  0
  8  9  1  0
  9 10  1  0
 10 11  2  0
 10 12  1  0
 12 13  2  0
 13 14  1  0
 14 15  2  0
 15 16  1  0
 16 17  2  0
 17 18  1  0
  9 19  1  0
 19 20  1  0
 20 21  1  0
 21 22  1  0
 22 23  2  0
 23 24  1  0
 24 25  2  0
 25 26  1  0
 26 27  2  0
 27 28  1  0
 28 29  2  0
 28 30  1  0
 30 31  1  0
 31 32  1  0
 30 33  1  0
 33 34  1  0
 32  4  1  0
 34  4  1  0
 17 12  1  0
 27 22  1  0
  1 35  1  0
  1 36  1  0
  1 37  1  0
  3 38  1  0
  3 39  1  0
  5 40  1  0
  5 41  1  0
  6 42  1  0
  6 43  1  0
  7 44  1  0
  7 45  1  0
  8 46  1  0
  8 47  1  0
 13 48  1  0
 14 49  1  0
 16 50  1  0
 18 51  1  0
 18 52  1  0
 18 53  1  0
 19 54  1  0
 19 55  1  0
 20 56  1  0
 20 57  1  0
 23 58  1  0
 24 59  1  0
 25 60  1  0
 26 61  1  0
 31 62  1  0
 31 63  1  0
 32 64  1  0
 32 65  1  0
 33 66  1  0
 33 67  1  0
 34 68  1  0
 34 69  1  0
M  END
$$$$
