
     RDKit          3D

 69 70  0  0  0  0  0  0  0  0999 V2000
    6.7986    1.3007    2.5528 C   0  0  0  0  0  0  0  0  0  0  0  0
    7.0707    2.3098    1.4354 C   0  0  0  0  0  0  0  0  0  0  0  0
    7.0905    1.6564    0.0461 C   0  0  0  0  0  0  0  0  0  0  0  0
    5.7191    1.2461   -0.3952 C   0  0  0  0  0  0  0  0  0  0  0  0
    5.1134    0.0274   -0.1769 C   0  0  0  0  0  0  0  0  0  0  0  0
    3.8668    0.1721   -0.7576 C   0  0  0  0  0  0  0  0  0  0  0  0
    2.8255   -0.8822   -0.8201 C   0  0  0  0  0  0  0  0  0  0  0  0
    3.1186   -2.0189   -0.3581 O   0  0  0  0  0  0  0  0  0  0  0  0
    1.5193   -0.6848   -1.4208 N   0  0  0  0  0  0  0  0  0  0  0  0
    0.8050   -1.8638   -1.9441 C   0  0  0  0  0  0  0  0  0  0  0  0
    0.0725   -2.6074   -0.8176 C   0  0  0  0  0  0  0  0  0  0  0  0
   -1.0759   -3.4678   -1.3654 C   0  0  0  0  0  0  0  0  0  0  0  0
   -2.0111   -3.9616   -0.2584 C   0  0  0  0  0  0  0  0  0  0  0  0
   -2.5142   -2.8535    0.4729 O   0  0  0  0  0  0  0  0  0  0  0  0
   -3.8987   -2.9688    0.7449 C   0  0  0  0  0  0  0  0  0  0  0  0
   -4.7267   -2.0951   -0.2215 C   0  0  0  0  0  0  0  0  0  0  0  0
   -4.1791   -2.1382   -1.5136 O   0  0  0  0  0  0  0  0  0  0  0  0
   -4.9069   -0.6276    0.2650 C   0  0  0  0  0  0  0  0  0  0  0  0
   -5.6866    0.0934   -0.6591 O   0  0  0  0  0  0  0  0  0  0  0  0
   -3.5996    0.1585    0.5612 C   0  0  0  0  0  0  0  0  0  0  0  0
   -3.9573    1.4146    1.1209 O   0  0  0  0  0  0  0  0  0  0  0  0
   -3.7897    1.4094    2.5227 C   0  0  0  0  0  0  0  0  0  0  0  0
   -2.7422    0.4109   -0.7007 C   0  0  0  0  0  0  0  0  0  0  0  0
   -1.7430    1.4623   -0.4472 N   0  0  0  0  0  0  0  0  0  0  0  0
   -2.0126    2.8057   -0.8907 C   0  0  0  0  0  0  0  0  0  0  0  0
   -1.8121    3.9753    0.0213 C   0  0  0  0  0  0  0  0  0  0  0  0
   -2.4213    3.0064   -2.0664 O   0  0  0  0  0  0  0  0  0  0  0  0
   -0.5729    1.1771    0.3994 C   0  0  0  0  0  0  0  0  0  0  0  0
    0.7503    1.4521   -0.3354 C   0  0  0  0  0  0  0  0  0  0  0  0
    0.9288    0.6510   -1.6435 C   0  0  0  0  0  0  0  0  0  0  0  0
    3.7670    1.4071   -1.2889 N   0  0  0  0  0  0  0  0  0  0  0  0
    4.8873    2.0226   -1.0477 O   0  0  0  0  0  0  0  0  0  0  0  0
    6.8890    1.8051    3.5368 H   0  0  0  0  0  0  0  0  0  0  0  0
    5.7715    0.8892    2.4639 H   0  0  0  0  0  0  0  0  0  0  0  0
    7.5379    0.4709    2.5125 H   0  0  0  0  0  0  0  0  0  0  0  0
    6.3061    3.1200    1.4703 H   0  0  0  0  0  0  0  0  0  0  0  0
    8.0634    2.7756    1.6176 H   0  0  0  0  0  0  0  0  0  0  0  0
    7.4908    2.3944   -0.6864 H   0  0  0  0  0  0  0  0  0  0  0  0
    7.7721    0.7764    0.0385 H   0  0  0  0  0  0  0  0  0  0  0  0
    5.5214   -0.8367    0.3310 H   0  0  0  0  0  0  0  0  0  0  0  0
    0.0837   -1.5543   -2.7320 H   0  0  0  0  0  0  0  0  0  0  0  0
    1.5207   -2.5523   -2.4445 H   0  0  0  0  0  0  0  0  0  0  0  0
    0.7856   -3.2567   -0.2650 H   0  0  0  0  0  0  0  0  0  0  0  0
   -0.3300   -1.8683   -0.1043 H   0  0  0  0  0  0  0  0  0  0  0  0
   -1.6824   -2.8814   -2.0899 H   0  0  0  0  0  0  0  0  0  0  0  0
   -0.6526   -4.3425   -1.9074 H   0  0  0  0  0  0  0  0  0  0  0  0
   -1.4501   -4.6253    0.4345 H   0  0  0  0  0  0  0  0  0  0  0  0
   -2.7990   -4.5719   -0.7597 H   0  0  0  0  0  0  0  0  0  0  0  0
   -4.0752   -2.6278    1.7880 H   0  0  0  0  0  0  0  0  0  0  0  0
   -4.2695   -4.0202    0.7281 H   0  0  0  0  0  0  0  0  0  0  0  0
   -5.7458   -2.5489   -0.2469 H   0  0  0  0  0  0  0  0  0  0  0  0
   -4.9153   -1.9523   -2.1552 H   0  0  0  0  0  0  0  0  0  0  0  0
   -5.4700   -0.6798    1.2282 H   0  0  0  0  0  0  0  0  0  0  0  0
   -6.6139   -0.2572   -0.5944 H   0  0  0  0  0  0  0  0  0  0  0  0
   -2.9685   -0.4479    1.2534 H   0  0  0  0  0  0  0  0  0  0  0  0
   -2.7163    1.2947    2.7908 H   0  0  0  0  0  0  0  0  0  0  0  0
   -4.1345    2.3815    2.9267 H   0  0  0  0  0  0  0  0  0  0  0  0
   -4.3979    0.6096    3.0001 H   0  0  0  0  0  0  0  0  0  0  0  0
   -3.3916    0.7018   -1.5546 H   0  0  0  0  0  0  0  0  0  0  0  0
   -2.2212   -0.5216   -1.0015 H   0  0  0  0  0  0  0  0  0  0  0  0
   -0.7370    4.2428    0.0735 H   0  0  0  0  0  0  0  0  0  0  0  0
   -2.1799    3.7253    1.0383 H   0  0  0  0  0  0  0  0  0  0  0  0
   -2.3799    4.8538   -0.3490 H   0  0  0  0  0  0  0  0  0  0  0  0
   -0.6135    1.8101    1.3116 H   0  0  0  0  0  0  0  0  0  0  0  0
   -0.5870    0.1300    0.7567 H   0  0  0  0  0  0  0  0  0  0  0  0
    0.8061    2.5334   -0.5808 H   0  0  0  0  0  0  0  0  0  0  0  0
    1.5841    1.2487    0.3682 H   0  0  0  0  0  0  0  0  0  0  0  0
    1.5648    1.2183   -2.3521 H   0  0  0  0  0  0  0  0  0  0  0  0
   -0.0497    0.5741   -2.1628 H   0  0  0  0  0  0  0  0  0  0  0  0
  1  2  1  0
  2  3  1  0
  3  4  1  0
  4  5  2  0
  5  6  1  0
  6  7  1  0
  7  8  2  0
  7  9  1  0
  9 10  1  0
 10 11  1  0
 11 12  1  0
 12 13  1  0
 13 14  1  0
 14 15  1  0
 15 16  1  0
 16 17  1  0
 16 18  1  0
 18 19  1  0
 18 20  1  0
 20 21  1  0
 21 22  1  0
 20 23  1  0
 23 24  1  0
 24 25  1  0
 25 26  1  0
 25 27  2  0
 24 28  1  0
 28 29  1  0
 29 30  1  0
  6 31  2  0
 31 32  1  0
 32  4  1  0
 30  9  1  0
  1 33  1  0
  1 34  1  0
  1 35  1  0
  2 36  1  0
  2 37  1  0
  3 38  1  0
  3 39  1  0
  5 40  1  0
 10 41  1  0
 10 42  1  0
 11 43  1  0
 11 44  1  0
 12 45  1  0
 12 46  1  0
 13 47  1  0
 13 48  1  0
 15 49  1  0
 15 50  1  0
 16 51  1  0
 17 52  1  0
 18 53  1  0
 19 54  1  0
 20 55  1  0
 22 56  1  0
 22 57  1  0
 22 58  1  0
 23 59  1  0
 23 60  1  0
 26 61  1  0
 26 62  1  0
 26 63  1  0
 28 64  1  0
 28 65  1  0
 29 66  1  0
 29 67  1  0
 30 68  1  0
 30 69  1  0
M  END
$$$$
