
     RDKit          3D

 78 81  0  0  0  0  0  0  0  0999 V2000
    2.3569    2.0875    1.4140 C   0  0  0  0  0  0  0  0  0  0  0  0
    3.0572    1.0200    2.0139 O   0  0  0  0  0  0  0  0  0  0  0  0
    2.5849   -0.2240    1.5271 C   0  0  0  0  0  0  0  0  0  0  0  0
    3.3187   -0.6505    0.2369 C   0  0  0  0  0  0  0  0  0  0  0  0
    4.8394   -0.6118    0.4239 C   0  0  0  0  0  0  0  0  0  0  0  0
    5.2180   -2.0165    0.8655 C   0  0  0  0  0  0  0  0  0  0  0  0
    4.1528   -2.9180    0.2599 C   0  0  0  0  0  0  0  0  0  0  0  0
    3.0322   -2.0494   -0.0862 N   0  0  0  0  0  0  0  0  0  0  0  0
    1.9943   -2.5154   -0.9780 C   0  0  0  0  0  0  0  0  0  0  0  0
    2.1527   -3.6168   -1.5758 O   0  0  0  0  0  0  0  0  0  0  0  0
    0.6918   -1.7776   -1.1994 C   0  0  0  0  0  0  0  0  0  0  0  0
    0.6542   -1.1457   -2.6093 C   0  0  0  0  0  0  0  0  0  0  0  0
    1.4489    0.1279   -2.7322 C   0  0  0  0  0  0  0  0  0  0  0  0
    2.6242    0.0578   -3.1857 O   0  0  0  0  0  0  0  0  0  0  0  0
    0.8908    1.4218   -2.4141 N   0  0  0  0  0  0  0  0  0  0  0  0
    1.4495    2.6465   -2.9642 C   0  0  0  0  0  0  0  0  0  0  0  0
    0.5566    3.7729   -2.4652 C   0  0  0  0  0  0  0  0  0  0  0  0
   -0.1886    3.2091   -1.2603 C   0  0  0  0  0  0  0  0  0  0  0  0
   -0.1464    1.6855   -1.4182 C   0  0  0  0  0  0  0  0  0  0  0  0
   -1.4824    1.1526   -1.8623 C   0  0  0  0  0  0  0  0  0  0  0  0
   -1.8390    1.2792   -3.0642 O   0  0  0  0  0  0  0  0  0  0  0  0
   -2.3507    0.4837   -0.9414 N   0  0  0  0  0  0  0  0  0  0  0  0
   -2.6984    1.0480    0.3696 C   0  0  0  0  0  0  0  0  0  0  0  0
   -4.2065    0.8649    0.6533 C   0  0  0  0  0  0  0  0  0  0  0  0
   -5.1332    1.4758   -0.4279 C   0  0  0  0  0  0  0  0  0  0  0  0
   -4.9245    2.9894   -0.5840 C   0  0  0  0  0  0  0  0  0  0  0  0
   -6.5988    1.1847   -0.0819 C   0  0  0  0  0  0  0  0  0  0  0  0
   -1.8490    0.4163    1.4888 C   0  0  0  0  0  0  0  0  0  0  0  0
   -1.5836   -0.9591    1.2203 O   0  0  0  0  0  0  0  0  0  0  0  0
   -0.7117   -1.7542    1.9833 C   0  0  0  0  0  0  0  0  0  0  0  0
   -0.2678   -1.3564    3.2611 C   0  0  0  0  0  0  0  0  0  0  0  0
    0.5964   -2.1732    3.9946 C   0  0  0  0  0  0  0  0  0  0  0  0
    1.0263   -3.3916    3.4663 C   0  0  0  0  0  0  0  0  0  0  0  0
    0.5901   -3.7994    2.2048 C   0  0  0  0  0  0  0  0  0  0  0  0
   -0.2694   -2.9822    1.4556 C   0  0  0  0  0  0  0  0  0  0  0  0
   -0.7331   -3.4429    0.1378 C   0  0  0  0  0  0  0  0  0  0  0  0
   -1.4274   -4.4913    0.0731 O   0  0  0  0  0  0  0  0  0  0  0  0
   -0.4258   -2.7270   -1.0685 N   0  0  0  0  0  0  0  0  0  0  0  0
    2.4757    2.0857    0.3099 H   0  0  0  0  0  0  0  0  0  0  0  0
    2.7783    3.0406    1.7922 H   0  0  0  0  0  0  0  0  0  0  0  0
    1.2821    2.0686    1.6949 H   0  0  0  0  0  0  0  0  0  0  0  0
    2.7781   -0.9864    2.3121 H   0  0  0  0  0  0  0  0  0  0  0  0
    1.4883   -0.2176    1.3737 H   0  0  0  0  0  0  0  0  0  0  0  0
    3.0385    0.0133   -0.6011 H   0  0  0  0  0  0  0  0  0  0  0  0
    5.3211   -0.4020   -0.5575 H   0  0  0  0  0  0  0  0  0  0  0  0
    5.1914    0.1485    1.1535 H   0  0  0  0  0  0  0  0  0  0  0  0
    5.1770   -2.0812    1.9752 H   0  0  0  0  0  0  0  0  0  0  0  0
    6.2374   -2.2919    0.5162 H   0  0  0  0  0  0  0  0  0  0  0  0
    3.8265   -3.6926    0.9877 H   0  0  0  0  0  0  0  0  0  0  0  0
    4.5577   -3.4063   -0.6539 H   0  0  0  0  0  0  0  0  0  0  0  0
    0.5614   -0.9844   -0.4493 H   0  0  0  0  0  0  0  0  0  0  0  0
    1.0234   -1.8803   -3.3575 H   0  0  0  0  0  0  0  0  0  0  0  0
   -0.3903   -0.9420   -2.9076 H   0  0  0  0  0  0  0  0  0  0  0  0
    2.4885    2.7848   -2.5916 H   0  0  0  0  0  0  0  0  0  0  0  0
    1.4472    2.6079   -4.0752 H   0  0  0  0  0  0  0  0  0  0  0  0
   -0.1756    4.0445   -3.2571 H   0  0  0  0  0  0  0  0  0  0  0  0
    1.1512    4.6707   -2.1894 H   0  0  0  0  0  0  0  0  0  0  0  0
    0.3480    3.5025   -0.3311 H   0  0  0  0  0  0  0  0  0  0  0  0
   -1.2243    3.6151   -1.2086 H   0  0  0  0  0  0  0  0  0  0  0  0
    0.1495    1.2267   -0.4561 H   0  0  0  0  0  0  0  0  0  0  0  0
   -2.8970   -0.3307   -1.3018 H   0  0  0  0  0  0  0  0  0  0  0  0
   -2.4840    2.1380    0.3789 H   0  0  0  0  0  0  0  0  0  0  0  0
   -4.4496    1.3272    1.6360 H   0  0  0  0  0  0  0  0  0  0  0  0
   -4.4208   -0.2244    0.7356 H   0  0  0  0  0  0  0  0  0  0  0  0
   -4.9239    0.9927   -1.4070 H   0  0  0  0  0  0  0  0  0  0  0  0
   -4.9910    3.4996    0.4005 H   0  0  0  0  0  0  0  0  0  0  0  0
   -3.9370    3.2011   -1.0429 H   0  0  0  0  0  0  0  0  0  0  0  0
   -5.6942    3.4178   -1.2606 H   0  0  0  0  0  0  0  0  0  0  0  0
   -7.2685    1.5720   -0.8802 H   0  0  0  0  0  0  0  0  0  0  0  0
   -6.7639    0.0893    0.0023 H   0  0  0  0  0  0  0  0  0  0  0  0
   -6.8761    1.6638    0.8817 H   0  0  0  0  0  0  0  0  0  0  0  0
   -0.8867    0.9627    1.5673 H   0  0  0  0  0  0  0  0  0  0  0  0
   -2.3652    0.5144    2.4691 H   0  0  0  0  0  0  0  0  0  0  0  0
   -0.5846   -0.4184    3.6963 H   0  0  0  0  0  0  0  0  0  0  0  0
    0.9343   -1.8610    4.9747 H   0  0  0  0  0  0  0  0  0  0  0  0
    1.6946   -4.0237    4.0378 H   0  0  0  0  0  0  0  0  0  0  0  0
    0.9297   -4.7479    1.8070 H   0  0  0  0  0  0  0  0  0  0  0  0
   -0.9466   -3.0174   -1.9280 H   0  0  0  0  0  0  0  0  0  0  0  0
  1  2  1  0
  2  3  1  0
  3  4  1  0
  4  5  1  0
  5  6  1  0
  6  7  1  0
  7  8  1  0
  8  9  1  0
  9 10  2  0
  9 11  1  0
 11 12  1  0
 12 13  1  0
 13 14  2  0
 13 15  1  0
 15 16  1  0
 16 17  1  0
 17 18  1  0
 18 19  1  0
 19 20  1  0
 20 21  2  0
 20 22  1  0
 22 23  1  0
 23 24  1  0
 24 25  1  0
 25 26  1  0
 25 27  1  0
 23 28  1  0
 28 29  1  0
 29 30  1  0
 30 31  2  0
 31 32  1  0
 32 33  2  0
 33 34  1  0
 34 35  2  0
 35 36  1  0
 36 37  2  0
 36 38  1  0
  8  4  1  0
 38 11  1  0
 19 15  1  0
 35 30  1  0
  1 39  1  0
  1 40  1  0
  1 41  1  0
  3 42  1  0
  3 43  1  0
  4 44  1  0
  5 45  1  0
  5 46  1  0
  6 47  1  0
  6 48  1  0
  7 49  1  0
  7 50  1  0
 11 51  1  0
 12 52  1  0
 12 53  1  0
 16 54  1  0
 16 55  1  0
 17 56  1  0
 17 57  1  0
 18 58  1  0
 18 59  1  0
 19 60  1  0
 22 61  1  0
 23 62  1  0
 24 63  1  0
 24 64  1  0
 25 65  1  0
 26 66  1  0
 26 67  1  0
 26 68  1  0
 27 69  1  0
 27 70  1  0
 27 71  1  0
 28 72  1  0
 28 73  1  0
 31 74  1  0
 32 75  1  0
 33 76  1  0
 34 77  1  0
 38 78  1  0
M  END
$$$$
