
     RDKit          3D

 93 95  0  0  0  0  0  0  0  0999 V2000
   -3.8372   -1.2124    2.4062 C   0  0  0  0  0  0  0  0  0  0  0  0
   -4.6697   -0.6911    1.3890 O   0  0  0  0  0  0  0  0  0  0  0  0
   -3.9924   -0.6444    0.1406 C   0  0  0  0  0  0  0  0  0  0  0  0
   -3.7827    0.8306   -0.2809 C   0  0  0  0  0  0  0  0  0  0  0  0
   -2.7357    1.4840    0.5313 N   0  0  0  0  0  0  0  0  0  0  0  0
   -3.1491    2.1632    1.7474 C   0  0  0  0  0  0  0  0  0  0  0  0
   -4.2256    1.8350    2.3178 O   0  0  0  0  0  0  0  0  0  0  0  0
   -2.3649    3.2608    2.3504 C   0  0  0  0  0  0  0  0  0  0  0  0
   -2.0625    4.4125    1.6048 C   0  0  0  0  0  0  0  0  0  0  0  0
   -1.3180    5.4475    2.1800 C   0  0  0  0  0  0  0  0  0  0  0  0
   -0.8820    5.3444    3.5045 C   0  0  0  0  0  0  0  0  0  0  0  0
   -1.1959    4.2101    4.2581 C   0  0  0  0  0  0  0  0  0  0  0  0
   -1.9424    3.1747    3.6890 C   0  0  0  0  0  0  0  0  0  0  0  0
   -2.2330    2.0781    4.4370 F   0  0  0  0  0  0  0  0  0  0  0  0
   -1.4010    1.7748   -0.0525 C   0  0  0  0  0  0  0  0  0  0  0  0
   -0.7096    0.5663   -0.7662 C   0  0  0  0  0  0  0  0  0  0  0  0
   -0.0411    0.9700   -2.1143 C   0  0  0  0  0  0  0  0  0  0  0  0
   -0.9907    0.9554   -3.3481 C   0  0  0  0  0  0  0  0  0  0  0  0
   -1.7388    2.2875   -3.5248 C   0  0  0  0  0  0  0  0  0  0  0  0
   -0.1949    0.6474   -4.6239 C   0  0  0  0  0  0  0  0  0  0  0  0
    0.2999   -0.0700    0.1243 N   0  0  0  0  0  0  0  0  0  0  0  0
    1.5127    0.6468    0.5014 C   0  0  0  0  0  0  0  0  0  0  0  0
    1.6447    1.8559    0.1716 O   0  0  0  0  0  0  0  0  0  0  0  0
    2.5944    0.0129    1.3648 C   0  0  0  0  0  0  0  0  0  0  0  0
    3.9570    0.5517    1.1420 N   0  0  0  0  0  0  0  0  0  0  0  0
    4.1468    1.9021    1.7085 C   0  0  0  0  0  0  0  0  0  0  0  0
    4.3820    0.4548   -0.2734 C   0  0  0  0  0  0  0  0  0  0  0  0
    5.9093    0.4624   -0.4086 C   0  0  0  0  0  0  0  0  0  0  0  0
    6.5373   -0.6576    0.3694 C   0  0  0  0  0  0  0  0  0  0  0  0
    6.6121   -1.9512   -0.1691 C   0  0  0  0  0  0  0  0  0  0  0  0
    7.1878   -2.9766    0.5866 C   0  0  0  0  0  0  0  0  0  0  0  0
    7.6728   -2.7057    1.8673 C   0  0  0  0  0  0  0  0  0  0  0  0
    7.5733   -1.4092    2.3751 C   0  0  0  0  0  0  0  0  0  0  0  0
    7.0104   -0.4240    1.6239 N   0  0  0  0  0  0  0  0  0  0  0  0
    0.0681   -1.4491    0.6032 C   0  0  0  0  0  0  0  0  0  0  0  0
    0.7368   -2.5025   -0.3042 C   0  0  0  0  0  0  0  0  0  0  0  0
   -0.0461   -2.8423   -1.5916 C   0  0  0  0  0  0  0  0  0  0  0  0
   -1.2303   -3.8033   -1.3822 C   0  0  0  0  0  0  0  0  0  0  0  0
   -2.3448   -3.1043   -0.8606 O   0  0  0  0  0  0  0  0  0  0  0  0
   -3.5551   -3.7121   -1.2687 C   0  0  0  0  0  0  0  0  0  0  0  0
   -4.7782   -2.9925   -0.6538 C   0  0  0  0  0  0  0  0  0  0  0  0
   -5.9387   -3.5796   -1.1850 O   0  0  0  0  0  0  0  0  0  0  0  0
   -4.8191   -1.4513   -0.9051 C   0  0  0  0  0  0  0  0  0  0  0  0
   -4.4624   -1.1570   -2.2338 O   0  0  0  0  0  0  0  0  0  0  0  0
   -4.3972   -1.2110    3.3610 H   0  0  0  0  0  0  0  0  0  0  0  0
   -3.5381   -2.2584    2.1849 H   0  0  0  0  0  0  0  0  0  0  0  0
   -2.9313   -0.5877    2.5436 H   0  0  0  0  0  0  0  0  0  0  0  0
   -2.9976   -1.1025    0.1850 H   0  0  0  0  0  0  0  0  0  0  0  0
   -4.7419    1.3865   -0.2035 H   0  0  0  0  0  0  0  0  0  0  0  0
   -3.4998    0.8927   -1.3469 H   0  0  0  0  0  0  0  0  0  0  0  0
   -2.4103    4.5124    0.5833 H   0  0  0  0  0  0  0  0  0  0  0  0
   -1.0792    6.3316    1.6031 H   0  0  0  0  0  0  0  0  0  0  0  0
   -0.3047    6.1469    3.9487 H   0  0  0  0  0  0  0  0  0  0  0  0
   -0.8582    4.1340    5.2827 H   0  0  0  0  0  0  0  0  0  0  0  0
   -1.4997    2.6420   -0.7394 H   0  0  0  0  0  0  0  0  0  0  0  0
   -0.7243    2.1214    0.7533 H   0  0  0  0  0  0  0  0  0  0  0  0
   -1.4665   -0.1882   -1.0256 H   0  0  0  0  0  0  0  0  0  0  0  0
    0.4538    1.9630   -2.0291 H   0  0  0  0  0  0  0  0  0  0  0  0
    0.7793    0.2414   -2.3033 H   0  0  0  0  0  0  0  0  0  0  0  0
   -1.7432    0.1466   -3.2408 H   0  0  0  0  0  0  0  0  0  0  0  0
   -1.0264    3.1415   -3.5352 H   0  0  0  0  0  0  0  0  0  0  0  0
   -2.4823    2.4355   -2.7184 H   0  0  0  0  0  0  0  0  0  0  0  0
   -2.3052    2.2938   -4.4822 H   0  0  0  0  0  0  0  0  0  0  0  0
    0.6083    1.3997   -4.7751 H   0  0  0  0  0  0  0  0  0  0  0  0
    0.2645   -0.3629   -4.5527 H   0  0  0  0  0  0  0  0  0  0  0  0
   -0.8649    0.6511   -5.5101 H   0  0  0  0  0  0  0  0  0  0  0  0
    2.6450   -1.0797    1.1915 H   0  0  0  0  0  0  0  0  0  0  0  0
    2.3054    0.1297    2.4315 H   0  0  0  0  0  0  0  0  0  0  0  0
    5.2183    2.0555    1.9421 H   0  0  0  0  0  0  0  0  0  0  0  0
    3.5920    2.0214    2.6655 H   0  0  0  0  0  0  0  0  0  0  0  0
    3.8250    2.6984    1.0053 H   0  0  0  0  0  0  0  0  0  0  0  0
    3.9635    1.2893   -0.8773 H   0  0  0  0  0  0  0  0  0  0  0  0
    4.0047   -0.4921   -0.7227 H   0  0  0  0  0  0  0  0  0  0  0  0
    6.1779    0.3640   -1.4831 H   0  0  0  0  0  0  0  0  0  0  0  0
    6.3187    1.4362   -0.0662 H   0  0  0  0  0  0  0  0  0  0  0  0
    6.2303   -2.1594   -1.1611 H   0  0  0  0  0  0  0  0  0  0  0  0
    7.2549   -3.9778    0.1814 H   0  0  0  0  0  0  0  0  0  0  0  0
    8.1222   -3.4919    2.4608 H   0  0  0  0  0  0  0  0  0  0  0  0
    7.9511   -1.1837    3.3638 H   0  0  0  0  0  0  0  0  0  0  0  0
    0.4504   -1.5553    1.6421 H   0  0  0  0  0  0  0  0  0  0  0  0
   -1.0059   -1.6639    0.7012 H   0  0  0  0  0  0  0  0  0  0  0  0
    1.7435   -2.1391   -0.6063 H   0  0  0  0  0  0  0  0  0  0  0  0
    0.8989   -3.4351    0.2840 H   0  0  0  0  0  0  0  0  0  0  0  0
    0.6668   -3.3397   -2.2870 H   0  0  0  0  0  0  0  0  0  0  0  0
   -0.3924   -1.9242   -2.1026 H   0  0  0  0  0  0  0  0  0  0  0  0
   -1.4445   -4.2669   -2.3747 H   0  0  0  0  0  0  0  0  0  0  0  0
   -0.9459   -4.6219   -0.6861 H   0  0  0  0  0  0  0  0  0  0  0  0
   -3.6475   -3.6849   -2.3801 H   0  0  0  0  0  0  0  0  0  0  0  0
   -3.5808   -4.7758   -0.9376 H   0  0  0  0  0  0  0  0  0  0  0  0
   -4.7586   -3.1838    0.4410 H   0  0  0  0  0  0  0  0  0  0  0  0
   -6.6812   -3.3758   -0.5590 H   0  0  0  0  0  0  0  0  0  0  0  0
   -5.8704   -1.1140   -0.7842 H   0  0  0  0  0  0  0  0  0  0  0  0
   -3.4801   -1.2519   -2.3121 H   0  0  0  0  0  0  0  0  0  0  0  0
  1  2  1  0
  2  3  1  0
  3  4  1  0
  4  5  1  0
  5  6  1  0
  6  7  2  0
  6  8  1  0
  8  9  2  0
  9 10  1  0
 10 11  2  0
 11 12  1  0
 12 13  2  0
 13 14  1  0
  5 15  1  0
 15 16  1  0
 16 17  1  0
 17 18  1  0
 18 19  1  0
 18 20  1  0
 16 21  1  0
 21 22  1  0
 22 23  2  0
 22 24  1  0
 24 25  1  0
 25 26  1  0
 25 27  1  0
 27 28  1  0
 28 29  1  0
 29 30  2  0
 30 31  1  0
 31 32  2  0
 32 33  1  0
 33 34  2  0
 21 35  1  0
 35 36  1  0
 36 37  1  0
 37 38  1  0
 38 39  1  0
 39 40  1  0
 40 41  1  0
 41 42  1  0
 41 43  1  0
 43 44  1  0
 43  3  1  0
 13  8  1  0
 34 29  1  0
  1 45  1  0
  1 46  1  0
  1 47  1  0
  3 48  1  0
  4 49  1  0
  4 50  1  0
  9 51  1  0
 10 52  1  0
 11 53  1  0
 12 54  1  0
 15 55  1  0
 15 56  1  0
 16 57  1  0
 17 58  1  0
 17 59  1  0
 18 60  1  0
 19 61  1  0
 19 62  1  0
 19 63  1  0
 20 64  1  0
 20 65  1  0
 20 66  1  0
 24 67  1  0
 24 68  1  0
 26 69  1  0
 26 70  1  0
 26 71  1  0
 27 72  1  0
 27 73  1  0
 28 74  1  0
 28 75  1  0
 30 76  1  0
 31 77  1  0
 32 78  1  0
 33 79  1  0
 35 80  1  0
 35 81  1  0
 36 82  1  0
 36 83  1  0
 37 84  1  0
 37 85  1  0
 38 86  1  0
 38 87  1  0
 40 88  1  0
 40 89  1  0
 41 90  1  0
 42 91  1  0
 43 92  1  0
 44 93  1  0
M  END
$$$$
