
     RDKit          3D

 73 76  0  0  0  0  0  0  0  0999 V2000
   -1.7096   -4.3261    1.2269 C   0  0  0  0  0  0  0  0  0  0  0  0
   -2.7621   -3.2252    1.2921 C   0  0  0  0  0  0  0  0  0  0  0  0
   -2.5056   -2.2065    0.2618 N   0  0  0  0  0  0  0  0  0  0  0  0
   -3.5443   -1.9700   -0.7634 C   0  0  0  0  0  0  0  0  0  0  0  0
   -4.6337   -0.9955   -0.2642 C   0  0  0  0  0  0  0  0  0  0  0  0
   -4.6136    0.2235   -1.0198 O   0  0  0  0  0  0  0  0  0  0  0  0
   -5.0559    1.4634   -0.5222 C   0  0  0  0  0  0  0  0  0  0  0  0
   -6.0131    1.5207    0.5093 C   0  0  0  0  0  0  0  0  0  0  0  0
   -6.4019    2.7471    1.0510 C   0  0  0  0  0  0  0  0  0  0  0  0
   -5.8405    3.9307    0.5753 C   0  0  0  0  0  0  0  0  0  0  0  0
   -4.9032    3.8956   -0.4580 C   0  0  0  0  0  0  0  0  0  0  0  0
   -4.5143    2.6731   -1.0346 C   0  0  0  0  0  0  0  0  0  0  0  0
   -3.5066    2.6945   -2.1704 C   0  0  0  0  0  0  0  0  0  0  0  0
   -2.0532    2.4677   -1.7026 C   0  0  0  0  0  0  0  0  0  0  0  0
   -1.8740    1.0221   -1.2549 C   0  0  0  0  0  0  0  0  0  0  0  0
   -0.4468    0.5910   -0.9230 C   0  0  0  0  0  0  0  0  0  0  0  0
   -0.3823   -0.9354   -0.5961 C   0  0  0  0  0  0  0  0  0  0  0  0
    1.0480   -1.2456   -0.0385 C   0  0  0  0  0  0  0  0  0  0  0  0
    1.9839   -1.4883   -1.1451 N   0  0  0  0  0  0  0  0  0  0  0  0
    3.3362   -0.9794   -1.1522 C   0  0  0  0  0  0  0  0  0  0  0  0
    4.0617   -1.1754   -2.1665 O   0  0  0  0  0  0  0  0  0  0  0  0
    3.8907   -0.1965    0.0153 C   0  0  0  0  0  0  0  0  0  0  0  0
    5.3972    0.0703   -0.1025 C   0  0  0  0  0  0  0  0  0  0  0  0
    5.8974    0.8133    1.1034 C   0  0  0  0  0  0  0  0  0  0  0  0
    6.3329    0.2846    2.3088 C   0  0  0  0  0  0  0  0  0  0  0  0
    6.4343   -1.1639    2.6614 C   0  0  0  0  0  0  0  0  0  0  0  0
    6.6337    1.2852    3.1618 N   0  0  0  0  0  0  0  0  0  0  0  0
    6.3992    2.4296    2.5384 N   0  0  0  0  0  0  0  0  0  0  0  0
    5.9387    2.1818    1.2975 C   0  0  0  0  0  0  0  0  0  0  0  0
    5.5817    3.2397    0.3021 C   0  0  0  0  0  0  0  0  0  0  0  0
    1.5565   -2.4000   -2.2106 C   0  0  0  0  0  0  0  0  0  0  0  0
    0.0926   -2.7935   -2.0126 C   0  0  0  0  0  0  0  0  0  0  0  0
   -0.6917   -1.6368   -1.8049 O   0  0  0  0  0  0  0  0  0  0  0  0
   -1.4120   -1.2818    0.4811 C   0  0  0  0  0  0  0  0  0  0  0  0
   -1.2802   -0.7604    1.6230 O   0  0  0  0  0  0  0  0  0  0  0  0
   -0.6973   -3.9045    1.3991 H   0  0  0  0  0  0  0  0  0  0  0  0
   -1.9157   -5.0841    2.0129 H   0  0  0  0  0  0  0  0  0  0  0  0
   -1.7386   -4.8241    0.2327 H   0  0  0  0  0  0  0  0  0  0  0  0
   -2.7533   -2.7599    2.3025 H   0  0  0  0  0  0  0  0  0  0  0  0
   -3.7652   -3.6858    1.1569 H   0  0  0  0  0  0  0  0  0  0  0  0
   -3.1044   -1.6232   -1.7144 H   0  0  0  0  0  0  0  0  0  0  0  0
   -4.0251   -2.9393   -1.0235 H   0  0  0  0  0  0  0  0  0  0  0  0
   -5.6366   -1.4649   -0.3736 H   0  0  0  0  0  0  0  0  0  0  0  0
   -4.4671   -0.7778    0.8142 H   0  0  0  0  0  0  0  0  0  0  0  0
   -6.4623    0.6159    0.8963 H   0  0  0  0  0  0  0  0  0  0  0  0
   -7.1373    2.7787    1.8457 H   0  0  0  0  0  0  0  0  0  0  0  0
   -6.1368    4.8798    1.0036 H   0  0  0  0  0  0  0  0  0  0  0  0
   -4.4830    4.8274   -0.8143 H   0  0  0  0  0  0  0  0  0  0  0  0
   -3.7893    1.9372   -2.9337 H   0  0  0  0  0  0  0  0  0  0  0  0
   -3.5526    3.6755   -2.6918 H   0  0  0  0  0  0  0  0  0  0  0  0
   -1.3685    2.6734   -2.5531 H   0  0  0  0  0  0  0  0  0  0  0  0
   -1.8010    3.1628   -0.8732 H   0  0  0  0  0  0  0  0  0  0  0  0
   -2.4583    0.9020   -0.3248 H   0  0  0  0  0  0  0  0  0  0  0  0
   -2.2539    0.3714   -2.0673 H   0  0  0  0  0  0  0  0  0  0  0  0
    0.2176    0.8107   -1.7881 H   0  0  0  0  0  0  0  0  0  0  0  0
   -0.0929    1.1965   -0.0587 H   0  0  0  0  0  0  0  0  0  0  0  0
    1.3868   -0.4230    0.6230 H   0  0  0  0  0  0  0  0  0  0  0  0
    1.0263   -2.1598    0.5952 H   0  0  0  0  0  0  0  0  0  0  0  0
    3.6988   -0.7671    0.9502 H   0  0  0  0  0  0  0  0  0  0  0  0
    3.3551    0.7746    0.0754 H   0  0  0  0  0  0  0  0  0  0  0  0
    5.6026    0.6709   -1.0151 H   0  0  0  0  0  0  0  0  0  0  0  0
    5.9446   -0.8924   -0.1956 H   0  0  0  0  0  0  0  0  0  0  0  0
    7.0583   -1.6926    1.9119 H   0  0  0  0  0  0  0  0  0  0  0  0
    6.8988   -1.2835    3.6622 H   0  0  0  0  0  0  0  0  0  0  0  0
    5.4201   -1.6156    2.6769 H   0  0  0  0  0  0  0  0  0  0  0  0
    6.5511    3.3698    2.9671 H   0  0  0  0  0  0  0  0  0  0  0  0
    4.5848    3.0260   -0.1357 H   0  0  0  0  0  0  0  0  0  0  0  0
    5.5455    4.2346    0.7945 H   0  0  0  0  0  0  0  0  0  0  0  0
    6.3443    3.2598   -0.5051 H   0  0  0  0  0  0  0  0  0  0  0  0
    1.6628   -1.8938   -3.1941 H   0  0  0  0  0  0  0  0  0  0  0  0
    2.1898   -3.3136   -2.2015 H   0  0  0  0  0  0  0  0  0  0  0  0
   -0.2700   -3.3111   -2.9250 H   0  0  0  0  0  0  0  0  0  0  0  0
   -0.0180   -3.5047   -1.1632 H   0  0  0  0  0  0  0  0  0  0  0  0
  1  2  1  0
  2  3  1  0
  3  4  1  0
  4  5  1  0
  5  6  1  0
  6  7  1  0
  7  8  2  0
  8  9  1  0
  9 10  2  0
 10 11  1  0
 11 12  2  0
 12 13  1  0
 13 14  1  0
 14 15  1  0
 15 16  1  0
 16 17  1  0
 17 18  1  0
 18 19  1  0
 19 20  1  0
 20 21  2  0
 20 22  1  0
 22 23  1  0
 23 24  1  0
 24 25  1  0
 25 26  1  0
 25 27  2  0
 27 28  1  0
 28 29  1  0
 29 30  1  0
 19 31  1  0
 31 32  1  0
 32 33  1  0
 17 34  1  0
 34 35  2  0
 34  3  1  0
 12  7  1  0
 33 17  1  0
 29 24  2  0
  1 36  1  0
  1 37  1  0
  1 38  1  0
  2 39  1  0
  2 40  1  0
  4 41  1  0
  4 42  1  0
  5 43  1  0
  5 44  1  0
  8 45  1  0
  9 46  1  0
 10 47  1  0
 11 48  1  0
 13 49  1  0
 13 50  1  0
 14 51  1  0
 14 52  1  0
 15 53  1  0
 15 54  1  0
 16 55  1  0
 16 56  1  0
 18 57  1  0
 18 58  1  0
 22 59  1  0
 22 60  1  0
 23 61  1  0
 23 62  1  0
 26 63  1  0
 26 64  1  0
 26 65  1  0
 28 66  1  0
 30 67  1  0
 30 68  1  0
 30 69  1  0
 31 70  1  0
 31 71  1  0
 32 72  1  0
 32 73  1  0
M  END
$$$$
