
     RDKit          3D

 72 74  0  0  0  0  0  0  0  0999 V2000
    4.9377    1.2639    1.5425 C   0  0  0  0  0  0  0  0  0  0  0  0
    5.8533    0.6362    0.5380 C   0  0  0  0  0  0  0  0  0  0  0  0
    7.0124    1.1942    0.1358 N   0  0  0  0  0  0  0  0  0  0  0  0
    7.6129    0.3422   -0.6837 N   0  0  0  0  0  0  0  0  0  0  0  0
    6.8591   -0.7651   -0.8193 C   0  0  0  0  0  0  0  0  0  0  0  0
    7.2748   -1.9732   -1.6009 C   0  0  0  0  0  0  0  0  0  0  0  0
    5.7278   -0.6262   -0.0323 C   0  0  0  0  0  0  0  0  0  0  0  0
    4.6144   -1.6206    0.1639 C   0  0  0  0  0  0  0  0  0  0  0  0
    3.5734   -1.5629   -0.9673 C   0  0  0  0  0  0  0  0  0  0  0  0
    2.8704   -0.2283   -1.0228 C   0  0  0  0  0  0  0  0  0  0  0  0
    3.4193    0.6985   -1.6797 O   0  0  0  0  0  0  0  0  0  0  0  0
    1.6194    0.0278   -0.3300 N   0  0  0  0  0  0  0  0  0  0  0  0
    0.9287    1.3148   -0.5310 C   0  0  0  0  0  0  0  0  0  0  0  0
    0.3378    1.4169   -1.9435 C   0  0  0  0  0  0  0  0  0  0  0  0
   -0.3719    2.7634   -2.1893 C   0  0  0  0  0  0  0  0  0  0  0  0
   -1.8274    2.7917   -1.6881 C   0  0  0  0  0  0  0  0  0  0  0  0
   -1.8952    2.9843   -0.2394 N   0  0  0  0  0  0  0  0  0  0  0  0
   -3.0309    2.5793    0.5444 C   0  0  0  0  0  0  0  0  0  0  0  0
   -2.9504    2.5937    1.8024 O   0  0  0  0  0  0  0  0  0  0  0  0
   -4.3172    2.2231   -0.0790 C   0  0  0  0  0  0  0  0  0  0  0  0
   -5.0067    3.2321   -0.7727 C   0  0  0  0  0  0  0  0  0  0  0  0
   -6.3043    3.0172   -1.2406 C   0  0  0  0  0  0  0  0  0  0  0  0
   -7.1639    4.3008   -2.0677 Cl  0  0  0  0  0  0  0  0  0  0  0  0
   -6.9321    1.7966   -1.0105 C   0  0  0  0  0  0  0  0  0  0  0  0
   -6.2505    0.7764   -0.3475 C   0  0  0  0  0  0  0  0  0  0  0  0
   -4.9308    0.9552    0.0925 C   0  0  0  0  0  0  0  0  0  0  0  0
   -4.2909   -0.1690    0.6498 O   0  0  0  0  0  0  0  0  0  0  0  0
   -2.8847   -0.3923    0.6866 C   0  0  0  0  0  0  0  0  0  0  0  0
   -2.5671   -1.8982    0.7878 C   0  0  0  0  0  0  0  0  0  0  0  0
   -3.4592   -2.6409    1.8299 C   0  0  0  0  0  0  0  0  0  0  0  0
   -3.2157   -4.1580    1.7962 C   0  0  0  0  0  0  0  0  0  0  0  0
   -3.3063   -2.1101    3.2705 C   0  0  0  0  0  0  0  0  0  0  0  0
   -1.1355   -2.0642    1.0698 N   0  0  0  0  0  0  0  0  0  0  0  0
   -0.1367   -1.6127    0.1547 C   0  0  0  0  0  0  0  0  0  0  0  0
   -0.2606   -1.8423   -1.0788 O   0  0  0  0  0  0  0  0  0  0  0  0
    1.0768   -0.9007    0.6762 C   0  0  0  0  0  0  0  0  0  0  0  0
    5.1017    0.7812    2.5264 H   0  0  0  0  0  0  0  0  0  0  0  0
    3.8874    1.1363    1.2275 H   0  0  0  0  0  0  0  0  0  0  0  0
    5.1571    2.3473    1.6252 H   0  0  0  0  0  0  0  0  0  0  0  0
    8.5400    0.5238   -1.1299 H   0  0  0  0  0  0  0  0  0  0  0  0
    6.4250   -2.3712   -2.1905 H   0  0  0  0  0  0  0  0  0  0  0  0
    8.0859   -1.7005   -2.3090 H   0  0  0  0  0  0  0  0  0  0  0  0
    7.6337   -2.7583   -0.9030 H   0  0  0  0  0  0  0  0  0  0  0  0
    5.0430   -2.6468    0.2020 H   0  0  0  0  0  0  0  0  0  0  0  0
    4.1311   -1.4360    1.1456 H   0  0  0  0  0  0  0  0  0  0  0  0
    2.8370   -2.3840   -0.8393 H   0  0  0  0  0  0  0  0  0  0  0  0
    4.0738   -1.7515   -1.9423 H   0  0  0  0  0  0  0  0  0  0  0  0
    0.1075    1.4279    0.2110 H   0  0  0  0  0  0  0  0  0  0  0  0
    1.6480    2.1482   -0.3591 H   0  0  0  0  0  0  0  0  0  0  0  0
    1.1568    1.3205   -2.6853 H   0  0  0  0  0  0  0  0  0  0  0  0
   -0.3631    0.5769   -2.1245 H   0  0  0  0  0  0  0  0  0  0  0  0
    0.2134    3.6011   -1.7379 H   0  0  0  0  0  0  0  0  0  0  0  0
   -0.3942    2.9418   -3.2891 H   0  0  0  0  0  0  0  0  0  0  0  0
   -2.3555    3.6358   -2.1760 H   0  0  0  0  0  0  0  0  0  0  0  0
   -2.3388    1.8480   -1.9846 H   0  0  0  0  0  0  0  0  0  0  0  0
   -1.1118    3.4805    0.2451 H   0  0  0  0  0  0  0  0  0  0  0  0
   -4.5598    4.2133   -0.8964 H   0  0  0  0  0  0  0  0  0  0  0  0
   -7.9494    1.6383   -1.3376 H   0  0  0  0  0  0  0  0  0  0  0  0
   -6.7393   -0.1740   -0.1943 H   0  0  0  0  0  0  0  0  0  0  0  0
   -2.4440    0.1302    1.5621 H   0  0  0  0  0  0  0  0  0  0  0  0
   -2.4203    0.0050   -0.2450 H   0  0  0  0  0  0  0  0  0  0  0  0
   -2.7869   -2.3467   -0.2023 H   0  0  0  0  0  0  0  0  0  0  0  0
   -4.5235   -2.4860    1.5377 H   0  0  0  0  0  0  0  0  0  0  0  0
   -3.9940   -4.6780    2.3923 H   0  0  0  0  0  0  0  0  0  0  0  0
   -3.2740   -4.5343    0.7549 H   0  0  0  0  0  0  0  0  0  0  0  0
   -2.2167   -4.4171    2.2092 H   0  0  0  0  0  0  0  0  0  0  0  0
   -2.2934   -2.2934    3.6742 H   0  0  0  0  0  0  0  0  0  0  0  0
   -3.5341   -1.0217    3.3227 H   0  0  0  0  0  0  0  0  0  0  0  0
   -4.0318   -2.6170    3.9330 H   0  0  0  0  0  0  0  0  0  0  0  0
   -0.8012   -2.5112    1.9559 H   0  0  0  0  0  0  0  0  0  0  0  0
    1.8174   -1.6497    1.0181 H   0  0  0  0  0  0  0  0  0  0  0  0
    0.7926   -0.3228    1.5862 H   0  0  0  0  0  0  0  0  0  0  0  0
  1  2  1  0
  2  3  2  0
  3  4  1  0
  4  5  1  0
  5  6  1  0
  5  7  2  0
  7  8  1  0
  8  9  1  0
  9 10  1  0
 10 11  2  0
 10 12  1  0
 12 13  1  0
 13 14  1  0
 14 15  1  0
 15 16  1  0
 16 17  1  0
 17 18  1  0
 18 19  2  0
 18 20  1  0
 20 21  2  0
 21 22  1  0
 22 23  1  0
 22 24  2  0
 24 25  1  0
 25 26  2  0
 26 27  1  0
 27 28  1  0
 28 29  1  0
 29 30  1  0
 30 31  1  0
 30 32  1  0
 29 33  1  0
 33 34  1  0
 34 35  2  0
 34 36  1  0
  7  2  1  0
 36 12  1  0
 26 20  1  0
  1 37  1  0
  1 38  1  0
  1 39  1  0
  4 40  1  0
  6 41  1  0
  6 42  1  0
  6 43  1  0
  8 44  1  0
  8 45  1  0
  9 46  1  0
  9 47  1  0
 13 48  1  0
 13 49  1  0
 14 50  1  0
 14 51  1  0
 15 52  1  0
 15 53  1  0
 16 54  1  0
 16 55  1  0
 17 56  1  0
 21 57  1  0
 24 58  1  0
 25 59  1  0
 28 60  1  0
 28 61  1  0
 29 62  1  0
 30 63  1  0
 31 64  1  0
 31 65  1  0
 31 66  1  0
 32 67  1  0
 32 68  1  0
 32 69  1  0
 33 70  1  0
 36 71  1  0
 36 72  1  0
M  END
$$$$
