
     RDKit          3D

 70 73  0  0  0  0  0  0  0  0999 V2000
   -3.1151    3.8096   -0.7929 C   0  0  0  0  0  0  0  0  0  0  0  0
   -2.9459    3.0839   -2.1257 C   0  0  0  0  0  0  0  0  0  0  0  0
   -2.4735    1.7038   -1.9215 N   0  0  0  0  0  0  0  0  0  0  0  0
   -3.3189    0.6198   -2.4631 C   0  0  0  0  0  0  0  0  0  0  0  0
   -2.8759   -0.8091   -2.0528 C   0  0  0  0  0  0  0  0  0  0  0  0
   -3.9549   -1.6264   -1.5881 O   0  0  0  0  0  0  0  0  0  0  0  0
   -4.8642   -1.2695   -0.5801 C   0  0  0  0  0  0  0  0  0  0  0  0
   -6.1582   -0.9042   -0.9809 C   0  0  0  0  0  0  0  0  0  0  0  0
   -7.1398   -0.5958   -0.0373 C   0  0  0  0  0  0  0  0  0  0  0  0
   -6.8587   -0.6954    1.3198 C   0  0  0  0  0  0  0  0  0  0  0  0
   -5.5846   -1.0752    1.7362 C   0  0  0  0  0  0  0  0  0  0  0  0
   -4.5542   -1.3248    0.8066 C   0  0  0  0  0  0  0  0  0  0  0  0
   -3.1983   -1.7513    1.3441 C   0  0  0  0  0  0  0  0  0  0  0  0
   -2.6010   -0.7326    2.3589 C   0  0  0  0  0  0  0  0  0  0  0  0
   -1.3112   -0.0556    1.8624 C   0  0  0  0  0  0  0  0  0  0  0  0
   -1.5874    0.9609    0.7175 C   0  0  0  0  0  0  0  0  0  0  0  0
   -0.4363    1.2256   -0.3506 C   0  0  0  0  0  0  0  0  0  0  0  0
    0.5416    0.0266   -0.5443 C   0  0  0  0  0  0  0  0  0  0  0  0
    1.6668    0.0544    0.3975 N   0  0  0  0  0  0  0  0  0  0  0  0
    2.6422   -1.0020    0.3100 C   0  0  0  0  0  0  0  0  0  0  0  0
    2.2651   -2.1988    0.4355 O   0  0  0  0  0  0  0  0  0  0  0  0
    4.0715   -0.7010    0.0432 C   0  0  0  0  0  0  0  0  0  0  0  0
    4.4488    0.5246   -0.5258 C   0  0  0  0  0  0  0  0  0  0  0  0
    5.7958    0.7839   -0.7851 C   0  0  0  0  0  0  0  0  0  0  0  0
    6.7361   -0.1525   -0.5021 N   0  0  0  0  0  0  0  0  0  0  0  0
    6.4142   -1.3558    0.0457 C   0  0  0  0  0  0  0  0  0  0  0  0
    7.4328   -2.3341    0.3195 N   0  0  0  0  0  0  0  0  0  0  0  0
    8.8390   -2.1105    0.1219 C   0  0  0  0  0  0  0  0  0  0  0  0
    9.7982   -3.2469    0.2934 C   0  0  0  0  0  0  0  0  0  0  0  0
    9.2743   -0.9746   -0.2103 O   0  0  0  0  0  0  0  0  0  0  0  0
    5.0678   -1.6535    0.3174 C   0  0  0  0  0  0  0  0  0  0  0  0
    1.7987    1.0513    1.4662 C   0  0  0  0  0  0  0  0  0  0  0  0
    0.9472    2.3145    1.2378 C   0  0  0  0  0  0  0  0  0  0  0  0
    0.3217    2.3841   -0.0303 O   0  0  0  0  0  0  0  0  0  0  0  0
   -1.0569    1.5256   -1.7248 C   0  0  0  0  0  0  0  0  0  0  0  0
   -0.2934    1.7282   -2.7083 O   0  0  0  0  0  0  0  0  0  0  0  0
   -2.1256    3.9232   -0.2874 H   0  0  0  0  0  0  0  0  0  0  0  0
   -3.8013    3.2398   -0.1333 H   0  0  0  0  0  0  0  0  0  0  0  0
   -3.5522    4.8195   -0.9729 H   0  0  0  0  0  0  0  0  0  0  0  0
   -2.2246    3.6473   -2.7712 H   0  0  0  0  0  0  0  0  0  0  0  0
   -3.9310    3.0880   -2.6488 H   0  0  0  0  0  0  0  0  0  0  0  0
   -3.3313    0.6933   -3.5781 H   0  0  0  0  0  0  0  0  0  0  0  0
   -4.3631    0.7994   -2.1324 H   0  0  0  0  0  0  0  0  0  0  0  0
   -2.0724   -0.8191   -1.3139 H   0  0  0  0  0  0  0  0  0  0  0  0
   -2.4481   -1.3039   -2.9494 H   0  0  0  0  0  0  0  0  0  0  0  0
   -6.4000   -0.8480   -2.0360 H   0  0  0  0  0  0  0  0  0  0  0  0
   -8.1277   -0.2949   -0.3604 H   0  0  0  0  0  0  0  0  0  0  0  0
   -7.6311   -0.4828    2.0502 H   0  0  0  0  0  0  0  0  0  0  0  0
   -5.3926   -1.1652    2.7985 H   0  0  0  0  0  0  0  0  0  0  0  0
   -3.3296   -2.7294    1.8547 H   0  0  0  0  0  0  0  0  0  0  0  0
   -2.4858   -1.9610    0.5301 H   0  0  0  0  0  0  0  0  0  0  0  0
   -3.3265    0.0604    2.6399 H   0  0  0  0  0  0  0  0  0  0  0  0
   -2.3627   -1.2792    3.2970 H   0  0  0  0  0  0  0  0  0  0  0  0
   -0.8675    0.4909    2.7183 H   0  0  0  0  0  0  0  0  0  0  0  0
   -0.5989   -0.8544    1.5978 H   0  0  0  0  0  0  0  0  0  0  0  0
   -1.8872    1.9318    1.1736 H   0  0  0  0  0  0  0  0  0  0  0  0
   -2.5205    0.6459    0.2276 H   0  0  0  0  0  0  0  0  0  0  0  0
    0.0131   -0.9577   -0.4806 H   0  0  0  0  0  0  0  0  0  0  0  0
    0.9844    0.0410   -1.5701 H   0  0  0  0  0  0  0  0  0  0  0  0
    3.7123    1.2709   -0.7875 H   0  0  0  0  0  0  0  0  0  0  0  0
    6.0937    1.7365   -1.2047 H   0  0  0  0  0  0  0  0  0  0  0  0
    7.1363   -3.2707    0.6805 H   0  0  0  0  0  0  0  0  0  0  0  0
    9.5801   -4.0259   -0.4665 H   0  0  0  0  0  0  0  0  0  0  0  0
    9.6762   -3.6849    1.3090 H   0  0  0  0  0  0  0  0  0  0  0  0
   10.8482   -2.8989    0.1812 H   0  0  0  0  0  0  0  0  0  0  0  0
    4.8069   -2.6155    0.7391 H   0  0  0  0  0  0  0  0  0  0  0  0
    2.8643    1.3601    1.5751 H   0  0  0  0  0  0  0  0  0  0  0  0
    1.5114    0.5726    2.4293 H   0  0  0  0  0  0  0  0  0  0  0  0
    1.6146    3.2026    1.3260 H   0  0  0  0  0  0  0  0  0  0  0  0
    0.2050    2.4409    2.0504 H   0  0  0  0  0  0  0  0  0  0  0  0
  1  2  1  0
  2  3  1  0
  3  4  1  0
  4  5  1  0
  5  6  1  0
  6  7  1  0
  7  8  2  0
  8  9  1  0
  9 10  2  0
 10 11  1  0
 11 12  2  0
 12 13  1  0
 13 14  1  0
 14 15  1  0
 15 16  1  0
 16 17  1  0
 17 18  1  0
 18 19  1  0
 19 20  1  0
 20 21  2  0
 20 22  1  0
 22 23  2  0
 23 24  1  0
 24 25  2  0
 25 26  1  0
 26 27  1  0
 27 28  1  0
 28 29  1  0
 28 30  2  0
 26 31  2  0
 19 32  1  0
 32 33  1  0
 33 34  1  0
 17 35  1  0
 35 36  2  0
 35  3  1  0
 12  7  1  0
 34 17  1  0
 31 22  1  0
  1 37  1  0
  1 38  1  0
  1 39  1  0
  2 40  1  0
  2 41  1  0
  4 42  1  0
  4 43  1  0
  5 44  1  0
  5 45  1  0
  8 46  1  0
  9 47  1  0
 10 48  1  0
 11 49  1  0
 13 50  1  0
 13 51  1  0
 14 52  1  0
 14 53  1  0
 15 54  1  0
 15 55  1  0
 16 56  1  0
 16 57  1  0
 18 58  1  0
 18 59  1  0
 23 60  1  0
 24 61  1  0
 27 62  1  0
 29 63  1  0
 29 64  1  0
 29 65  1  0
 31 66  1  0
 32 67  1  0
 32 68  1  0
 33 69  1  0
 33 70  1  0
M  END
$$$$
