
     RDKit          3D

 80 84  0  0  0  0  0  0  0  0999 V2000
    7.9925   -0.7026    4.2673 C   0  0  0  0  0  0  0  0  0  0  0  0
    7.2913   -1.3168    3.0583 C   0  0  0  0  0  0  0  0  0  0  0  0
    7.5306   -0.4919    1.7936 C   0  0  0  0  0  0  0  0  0  0  0  0
    6.8144   -1.0845    0.6696 N   0  0  0  0  0  0  0  0  0  0  0  0
    7.3201   -1.9606   -0.2191 C   0  0  0  0  0  0  0  0  0  0  0  0
    6.3058   -2.3604   -1.0634 C   0  0  0  0  0  0  0  0  0  0  0  0
    5.1907   -1.6691   -0.6160 C   0  0  0  0  0  0  0  0  0  0  0  0
    3.8232   -1.7926   -1.1562 C   0  0  0  0  0  0  0  0  0  0  0  0
    3.5736   -2.7224   -1.9708 O   0  0  0  0  0  0  0  0  0  0  0  0
    2.7644   -0.9021   -0.7509 N   0  0  0  0  0  0  0  0  0  0  0  0
    1.3863   -1.4092   -0.7230 C   0  0  0  0  0  0  0  0  0  0  0  0
    0.4935   -0.5690    0.1981 C   0  0  0  0  0  0  0  0  0  0  0  0
    0.5795    0.9586   -0.0565 C   0  0  0  0  0  0  0  0  0  0  0  0
   -0.6837    1.4976   -0.6394 N   0  0  0  0  0  0  0  0  0  0  0  0
   -0.8772    1.1876   -2.0831 C   0  0  0  0  0  0  0  0  0  0  0  0
   -2.3516    0.8941   -2.4142 C   0  0  0  0  0  0  0  0  0  0  0  0
   -2.7176   -0.5670   -2.0855 C   0  0  0  0  0  0  0  0  0  0  0  0
   -4.2280   -0.9289   -2.2076 C   0  0  0  0  0  0  0  0  0  0  0  0
   -4.7136   -0.7151   -3.6587 C   0  0  0  0  0  0  0  0  0  0  0  0
   -4.3776   -2.4353   -1.8910 C   0  0  0  0  0  0  0  0  0  0  0  0
   -5.1265   -0.0947   -1.2372 C   0  0  0  0  0  0  0  0  0  0  0  0
   -4.4267    0.3714   -0.0844 O   0  0  0  0  0  0  0  0  0  0  0  0
   -4.0685   -0.3698    1.0524 C   0  0  0  0  0  0  0  0  0  0  0  0
   -4.7134   -1.5759    1.3958 C   0  0  0  0  0  0  0  0  0  0  0  0
   -4.2747   -2.3247    2.4889 C   0  0  0  0  0  0  0  0  0  0  0  0
   -3.2080   -1.8650    3.2647 C   0  0  0  0  0  0  0  0  0  0  0  0
   -2.5847   -0.6505    2.9545 C   0  0  0  0  0  0  0  0  0  0  0  0
   -3.0123    0.1090    1.8615 C   0  0  0  0  0  0  0  0  0  0  0  0
   -2.3330    1.3030    1.5659 O   0  0  0  0  0  0  0  0  0  0  0  0
   -2.9442    2.4456    1.0356 C   0  0  0  0  0  0  0  0  0  0  0  0
   -4.2035    2.7784    1.4310 N   0  0  0  0  0  0  0  0  0  0  0  0
   -4.8416    3.8769    0.9572 C   0  0  0  0  0  0  0  0  0  0  0  0
   -4.2044    4.7117    0.0426 C   0  0  0  0  0  0  0  0  0  0  0  0
   -2.9124    4.4048   -0.3789 C   0  0  0  0  0  0  0  0  0  0  0  0
   -2.2652    3.2557    0.1032 C   0  0  0  0  0  0  0  0  0  0  0  0
   -0.8553    2.9482   -0.3402 C   0  0  0  0  0  0  0  0  0  0  0  0
    1.8523    1.3884   -0.8320 C   0  0  0  0  0  0  0  0  0  0  0  0
    3.0455    0.5114   -0.4506 C   0  0  0  0  0  0  0  0  0  0  0  0
    5.5202   -0.9118    0.4495 N   0  0  0  0  0  0  0  0  0  0  0  0
    7.6170    0.3253    4.4550 H   0  0  0  0  0  0  0  0  0  0  0  0
    9.0912   -0.6683    4.1047 H   0  0  0  0  0  0  0  0  0  0  0  0
    7.7890   -1.3213    5.1648 H   0  0  0  0  0  0  0  0  0  0  0  0
    6.2013   -1.3709    3.2673 H   0  0  0  0  0  0  0  0  0  0  0  0
    7.6744   -2.3499    2.9076 H   0  0  0  0  0  0  0  0  0  0  0  0
    7.1711    0.5488    1.9454 H   0  0  0  0  0  0  0  0  0  0  0  0
    8.6182   -0.4524    1.5703 H   0  0  0  0  0  0  0  0  0  0  0  0
    8.3524   -2.2984   -0.2409 H   0  0  0  0  0  0  0  0  0  0  0  0
    6.3706   -3.0717   -1.8766 H   0  0  0  0  0  0  0  0  0  0  0  0
    1.3852   -2.4503   -0.3349 H   0  0  0  0  0  0  0  0  0  0  0  0
    0.9784   -1.4417   -1.7546 H   0  0  0  0  0  0  0  0  0  0  0  0
   -0.5481   -0.9292    0.1501 H   0  0  0  0  0  0  0  0  0  0  0  0
    0.8236   -0.7703    1.2394 H   0  0  0  0  0  0  0  0  0  0  0  0
    0.6968    1.3826    0.9665 H   0  0  0  0  0  0  0  0  0  0  0  0
   -0.5177    2.0195   -2.7266 H   0  0  0  0  0  0  0  0  0  0  0  0
   -0.2822    0.3085   -2.3960 H   0  0  0  0  0  0  0  0  0  0  0  0
   -2.4882    1.0587   -3.5058 H   0  0  0  0  0  0  0  0  0  0  0  0
   -3.0156    1.6072   -1.8873 H   0  0  0  0  0  0  0  0  0  0  0  0
   -2.1253   -1.2281   -2.7577 H   0  0  0  0  0  0  0  0  0  0  0  0
   -2.3870   -0.7966   -1.0566 H   0  0  0  0  0  0  0  0  0  0  0  0
   -4.6958    0.3600   -3.9435 H   0  0  0  0  0  0  0  0  0  0  0  0
   -5.7624   -1.0706   -3.7794 H   0  0  0  0  0  0  0  0  0  0  0  0
   -4.0697   -1.2741   -4.3740 H   0  0  0  0  0  0  0  0  0  0  0  0
   -3.8432   -3.0488   -2.6461 H   0  0  0  0  0  0  0  0  0  0  0  0
   -5.4446   -2.7404   -1.8940 H   0  0  0  0  0  0  0  0  0  0  0  0
   -3.9398   -2.6818   -0.9034 H   0  0  0  0  0  0  0  0  0  0  0  0
   -6.0501   -0.6374   -0.9465 H   0  0  0  0  0  0  0  0  0  0  0  0
   -5.4779    0.8168   -1.7644 H   0  0  0  0  0  0  0  0  0  0  0  0
   -5.5516   -1.9415    0.8229 H   0  0  0  0  0  0  0  0  0  0  0  0
   -4.7654   -3.2547    2.7442 H   0  0  0  0  0  0  0  0  0  0  0  0
   -2.8690   -2.4448    4.1116 H   0  0  0  0  0  0  0  0  0  0  0  0
   -1.7621   -0.2990    3.5665 H   0  0  0  0  0  0  0  0  0  0  0  0
   -5.8410    4.1076    1.3017 H   0  0  0  0  0  0  0  0  0  0  0  0
   -4.7040    5.5958   -0.3296 H   0  0  0  0  0  0  0  0  0  0  0  0
   -2.4189    5.0666   -1.0795 H   0  0  0  0  0  0  0  0  0  0  0  0
   -0.1872    3.3034    0.4718 H   0  0  0  0  0  0  0  0  0  0  0  0
   -0.5849    3.5701   -1.2177 H   0  0  0  0  0  0  0  0  0  0  0  0
    1.7173    1.3150   -1.9305 H   0  0  0  0  0  0  0  0  0  0  0  0
    2.0907    2.4488   -0.6002 H   0  0  0  0  0  0  0  0  0  0  0  0
    3.9286    0.8589   -1.0320 H   0  0  0  0  0  0  0  0  0  0  0  0
    3.2659    0.6259    0.6328 H   0  0  0  0  0  0  0  0  0  0  0  0
  1  2  1  0
  2  3  1  0
  3  4  1  0
  4  5  1  0
  5  6  2  0
  6  7  1  0
  7  8  1  0
  8  9  2  0
  8 10  1  0
 10 11  1  0
 11 12  1  0
 12 13  1  0
 13 14  1  0
 14 15  1  0
 15 16  1  0
 16 17  1  0
 17 18  1  0
 18 19  1  0
 18 20  1  0
 18 21  1  0
 21 22  1  0
 22 23  1  0
 23 24  2  0
 24 25  1  0
 25 26  2  0
 26 27  1  0
 27 28  2  0
 28 29  1  0
 29 30  1  0
 30 31  2  0
 31 32  1  0
 32 33  2  0
 33 34  1  0
 34 35  2  0
 35 36  1  0
 13 37  1  0
 37 38  1  0
  7 39  2  0
 39  4  1  0
 38 10  1  0
 36 14  1  0
 28 23  1  0
 35 30  1  0
  1 40  1  0
  1 41  1  0
  1 42  1  0
  2 43  1  0
  2 44  1  0
  3 45  1  0
  3 46  1  0
  5 47  1  0
  6 48  1  0
 11 49  1  0
 11 50  1  0
 12 51  1  0
 12 52  1  0
 13 53  1  0
 15 54  1  0
 15 55  1  0
 16 56  1  0
 16 57  1  0
 17 58  1  0
 17 59  1  0
 19 60  1  0
 19 61  1  0
 19 62  1  0
 20 63  1  0
 20 64  1  0
 20 65  1  0
 21 66  1  0
 21 67  1  0
 24 68  1  0
 25 69  1  0
 26 70  1  0
 27 71  1  0
 32 72  1  0
 33 73  1  0
 34 74  1  0
 36 75  1  0
 36 76  1  0
 37 77  1  0
 37 78  1  0
 38 79  1  0
 38 80  1  0
M  END
$$$$
