
     RDKit          3D

 78 80  0  0  0  0  0  0  0  0999 V2000
    9.2840   -1.8662   -1.1389 C   0  0  0  0  0  0  0  0  0  0  0  0
    9.0519   -0.3566   -1.0309 C   0  0  0  0  0  0  0  0  0  0  0  0
   10.3880    0.3751   -0.9133 C   0  0  0  0  0  0  0  0  0  0  0  0
    8.3872    0.1079   -2.1947 O   0  0  0  0  0  0  0  0  0  0  0  0
    6.9854    0.1764   -2.0039 C   0  0  0  0  0  0  0  0  0  0  0  0
    6.5805    1.5632   -1.4747 C   0  0  0  0  0  0  0  0  0  0  0  0
    7.0194    2.5396   -2.3836 O   0  0  0  0  0  0  0  0  0  0  0  0
    5.0537    1.6703   -1.3035 C   0  0  0  0  0  0  0  0  0  0  0  0
    4.5712    0.8215   -0.2126 N   0  0  0  0  0  0  0  0  0  0  0  0
    3.1723    0.6864    0.0660 C   0  0  0  0  0  0  0  0  0  0  0  0
    2.3272    1.3187   -0.6272 O   0  0  0  0  0  0  0  0  0  0  0  0
    2.7251   -0.2369    1.1672 C   0  0  0  0  0  0  0  0  0  0  0  0
    1.2418   -0.1509    1.4238 C   0  0  0  0  0  0  0  0  0  0  0  0
    0.7398    0.7407    2.3795 C   0  0  0  0  0  0  0  0  0  0  0  0
   -0.6351    0.8430    2.5894 C   0  0  0  0  0  0  0  0  0  0  0  0
   -1.5306    0.0680    1.8443 C   0  0  0  0  0  0  0  0  0  0  0  0
   -1.0416   -0.8106    0.8475 C   0  0  0  0  0  0  0  0  0  0  0  0
    0.3489   -0.9175    0.6603 C   0  0  0  0  0  0  0  0  0  0  0  0
   -1.9536   -1.6642   -0.0148 C   0  0  0  0  0  0  0  0  0  0  0  0
   -3.1256   -0.9228   -0.5420 N   0  0  0  0  0  0  0  0  0  0  0  0
   -2.6960    0.1593   -1.4621 C   0  0  0  0  0  0  0  0  0  0  0  0
   -3.7959    1.1760   -1.6371 C   0  0  0  0  0  0  0  0  0  0  0  0
   -4.5340    1.2334   -2.8319 C   0  0  0  0  0  0  0  0  0  0  0  0
   -5.5785    2.1526   -2.9712 C   0  0  0  0  0  0  0  0  0  0  0  0
   -5.8933    3.0200   -1.9217 C   0  0  0  0  0  0  0  0  0  0  0  0
   -5.1613    2.9725   -0.7325 C   0  0  0  0  0  0  0  0  0  0  0  0
   -4.1151    2.0563   -0.5900 C   0  0  0  0  0  0  0  0  0  0  0  0
   -4.0332   -1.8527   -1.2619 C   0  0  0  0  0  0  0  0  0  0  0  0
   -4.7061   -2.8259   -0.3285 C   0  0  0  0  0  0  0  0  0  0  0  0
   -4.3294   -4.0286   -0.3286 O   0  0  0  0  0  0  0  0  0  0  0  0
   -5.7533   -2.4242    0.5663 N   0  0  0  0  0  0  0  0  0  0  0  0
   -6.2588   -1.0528    0.6395 C   0  0  0  0  0  0  0  0  0  0  0  0
   -7.0348   -0.8091    1.9411 C   0  0  0  0  0  0  0  0  0  0  0  0
   -6.1890   -0.9891    3.2186 C   0  0  0  0  0  0  0  0  0  0  0  0
   -4.9730   -0.0427    3.2875 C   0  0  0  0  0  0  0  0  0  0  0  0
   -3.6645   -0.7075    2.8242 C   0  0  0  0  0  0  0  0  0  0  0  0
   -2.8949    0.2330    2.0860 O   0  0  0  0  0  0  0  0  0  0  0  0
    9.8701   -2.1046   -2.0521 H   0  0  0  0  0  0  0  0  0  0  0  0
    8.3113   -2.3985   -1.1928 H   0  0  0  0  0  0  0  0  0  0  0  0
    9.8340   -2.2367   -0.2473 H   0  0  0  0  0  0  0  0  0  0  0  0
    8.4868   -0.1491   -0.0906 H   0  0  0  0  0  0  0  0  0  0  0  0
   11.0148    0.1894   -1.8117 H   0  0  0  0  0  0  0  0  0  0  0  0
   10.9384    0.0355   -0.0096 H   0  0  0  0  0  0  0  0  0  0  0  0
   10.2088    1.4680   -0.8256 H   0  0  0  0  0  0  0  0  0  0  0  0
    6.5042    0.0196   -2.9931 H   0  0  0  0  0  0  0  0  0  0  0  0
    6.6025   -0.6375   -1.3456 H   0  0  0  0  0  0  0  0  0  0  0  0
    7.0679    1.7296   -0.4860 H   0  0  0  0  0  0  0  0  0  0  0  0
    7.0245    3.4052   -1.8971 H   0  0  0  0  0  0  0  0  0  0  0  0
    4.7841    2.7248   -1.0775 H   0  0  0  0  0  0  0  0  0  0  0  0
    4.5507    1.3820   -2.2526 H   0  0  0  0  0  0  0  0  0  0  0  0
    5.2499    0.3005    0.3881 H   0  0  0  0  0  0  0  0  0  0  0  0
    3.2839    0.0119    2.0952 H   0  0  0  0  0  0  0  0  0  0  0  0
    2.9987   -1.2785    0.8928 H   0  0  0  0  0  0  0  0  0  0  0  0
    1.4130    1.3576    2.9619 H   0  0  0  0  0  0  0  0  0  0  0  0
   -1.0106    1.5318    3.3355 H   0  0  0  0  0  0  0  0  0  0  0  0
    0.7429   -1.5905   -0.0923 H   0  0  0  0  0  0  0  0  0  0  0  0
   -1.3829   -2.1096   -0.8620 H   0  0  0  0  0  0  0  0  0  0  0  0
   -2.2843   -2.5095    0.6241 H   0  0  0  0  0  0  0  0  0  0  0  0
   -1.8156    0.7062   -1.0612 H   0  0  0  0  0  0  0  0  0  0  0  0
   -2.3754   -0.2570   -2.4448 H   0  0  0  0  0  0  0  0  0  0  0  0
   -4.3084    0.5608   -3.6499 H   0  0  0  0  0  0  0  0  0  0  0  0
   -6.1461    2.1897   -3.8918 H   0  0  0  0  0  0  0  0  0  0  0  0
   -6.7034    3.7296   -2.0303 H   0  0  0  0  0  0  0  0  0  0  0  0
   -5.4046    3.6458    0.0793 H   0  0  0  0  0  0  0  0  0  0  0  0
   -3.5552    2.0335    0.3346 H   0  0  0  0  0  0  0  0  0  0  0  0
   -3.4782   -2.4119   -2.0499 H   0  0  0  0  0  0  0  0  0  0  0  0
   -4.8398   -1.2939   -1.7807 H   0  0  0  0  0  0  0  0  0  0  0  0
   -6.1724   -3.1571    1.1821 H   0  0  0  0  0  0  0  0  0  0  0  0
   -5.4252   -0.3263    0.5748 H   0  0  0  0  0  0  0  0  0  0  0  0
   -6.9302   -0.8702   -0.2266 H   0  0  0  0  0  0  0  0  0  0  0  0
   -7.4455    0.2239    1.9213 H   0  0  0  0  0  0  0  0  0  0  0  0
   -7.9006   -1.5050    1.9825 H   0  0  0  0  0  0  0  0  0  0  0  0
   -6.8512   -0.7648    4.0833 H   0  0  0  0  0  0  0  0  0  0  0  0
   -5.8774   -2.0498    3.3357 H   0  0  0  0  0  0  0  0  0  0  0  0
   -4.8362    0.2901    4.3397 H   0  0  0  0  0  0  0  0  0  0  0  0
   -5.1746    0.8783    2.6966 H   0  0  0  0  0  0  0  0  0  0  0  0
   -3.0926   -1.0467    3.7161 H   0  0  0  0  0  0  0  0  0  0  0  0
   -3.8547   -1.5948    2.1917 H   0  0  0  0  0  0  0  0  0  0  0  0
  1  2  1  0
  2  3  1  0
  2  4  1  0
  4  5  1  0
  5  6  1  0
  6  7  1  0
  6  8  1  0
  8  9  1  0
  9 10  1  0
 10 11  2  0
 10 12  1  0
 12 13  1  0
 13 14  2  0
 14 15  1  0
 15 16  2  0
 16 17  1  0
 17 18  2  0
 17 19  1  0
 19 20  1  0
 20 21  1  0
 21 22  1  0
 22 23  2  0
 23 24  1  0
 24 25  2  0
 25 26  1  0
 26 27  2  0
 20 28  1  0
 28 29  1  0
 29 30  2  0
 29 31  1  0
 31 32  1  0
 32 33  1  0
 33 34  1  0
 34 35  1  0
 35 36  1  0
 36 37  1  0
 18 13  1  0
 27 22  1  0
 37 16  1  0
  1 38  1  0
  1 39  1  0
  1 40  1  0
  2 41  1  0
  3 42  1  0
  3 43  1  0
  3 44  1  0
  5 45  1  0
  5 46  1  0
  6 47  1  0
  7 48  1  0
  8 49  1  0
  8 50  1  0
  9 51  1  0
 12 52  1  0
 12 53  1  0
 14 54  1  0
 15 55  1  0
 18 56  1  0
 19 57  1  0
 19 58  1  0
 21 59  1  0
 21 60  1  0
 23 61  1  0
 24 62  1  0
 25 63  1  0
 26 64  1  0
 27 65  1  0
 28 66  1  0
 28 67  1  0
 31 68  1  0
 32 69  1  0
 32 70  1  0
 33 71  1  0
 33 72  1  0
 34 73  1  0
 34 74  1  0
 35 75  1  0
 35 76  1  0
 36 77  1  0
 36 78  1  0
M  END
$$$$
