
     RDKit          3D

 76 79  0  0  0  0  0  0  0  0999 V2000
   -4.8697    2.0977    0.7131 O   0  0  0  0  0  0  0  0  0  0  0  0
   -4.5618    1.1147   -0.0181 C   0  0  0  0  0  0  0  0  0  0  0  0
   -5.5561    0.6060   -1.0341 C   0  0  0  0  0  0  0  0  0  0  0  0
   -6.9488    1.1326   -0.7882 C   0  0  0  0  0  0  0  0  0  0  0  0
   -7.4219    2.2497   -1.4990 C   0  0  0  0  0  0  0  0  0  0  0  0
   -8.7043    2.7516   -1.2502 C   0  0  0  0  0  0  0  0  0  0  0  0
   -9.5176    2.1524   -0.2831 C   0  0  0  0  0  0  0  0  0  0  0  0
  -10.7596    2.6423   -0.0435 F   0  0  0  0  0  0  0  0  0  0  0  0
   -9.0497    1.0487    0.4368 C   0  0  0  0  0  0  0  0  0  0  0  0
   -7.7686    0.5410    0.1879 C   0  0  0  0  0  0  0  0  0  0  0  0
   -3.2531    0.5156    0.1133 N   0  0  0  0  0  0  0  0  0  0  0  0
   -2.4740    0.7420    1.3448 C   0  0  0  0  0  0  0  0  0  0  0  0
   -1.4552    1.8993    1.1713 C   0  0  0  0  0  0  0  0  0  0  0  0
   -0.0095    1.5086    1.5473 C   0  0  0  0  0  0  0  0  0  0  0  0
    0.5618    0.4773    0.5548 C   0  0  0  0  0  0  0  0  0  0  0  0
    2.0537    0.0446    0.6914 C   0  0  0  0  0  0  0  0  0  0  0  0
    2.9792    1.1281    0.0595 C   0  0  0  0  0  0  0  0  0  0  0  0
    4.3789    1.1914    0.7000 C   0  0  0  0  0  0  0  0  0  0  0  0
    4.7671   -0.1330    1.2195 N   0  0  0  0  0  0  0  0  0  0  0  0
    6.1993   -0.1698    1.5760 C   0  0  0  0  0  0  0  0  0  0  0  0
    7.0534   -0.2115    0.3390 C   0  0  0  0  0  0  0  0  0  0  0  0
    8.1121    0.6951    0.1671 C   0  0  0  0  0  0  0  0  0  0  0  0
    8.8992    0.6191   -0.9833 C   0  0  0  0  0  0  0  0  0  0  0  0
    8.6338   -0.3616   -1.9428 C   0  0  0  0  0  0  0  0  0  0  0  0
    7.5753   -1.2500   -1.7367 C   0  0  0  0  0  0  0  0  0  0  0  0
    6.8198   -1.1617   -0.6081 N   0  0  0  0  0  0  0  0  0  0  0  0
    3.9416   -0.4820    2.3969 C   0  0  0  0  0  0  0  0  0  0  0  0
    2.4386   -0.1704    2.1845 C   0  0  0  0  0  0  0  0  0  0  0  0
    2.1739   -1.2654   -0.0991 C   0  0  0  0  0  0  0  0  0  0  0  0
    2.9579   -2.1835    0.2776 O   0  0  0  0  0  0  0  0  0  0  0  0
    1.4113   -1.4437   -1.2680 O   0  0  0  0  0  0  0  0  0  0  0  0
    0.9074   -2.7152   -1.6833 C   0  0  0  0  0  0  0  0  0  0  0  0
   -0.4895   -2.9736   -1.0528 C   0  0  0  0  0  0  0  0  0  0  0  0
   -0.6591   -4.3494   -0.8186 O   0  0  0  0  0  0  0  0  0  0  0  0
   -1.7051   -2.4209   -1.8792 C   0  0  0  0  0  0  0  0  0  0  0  0
   -1.2768   -1.6052   -2.9447 O   0  0  0  0  0  0  0  0  0  0  0  0
   -2.7526   -1.6765   -0.9923 C   0  0  0  0  0  0  0  0  0  0  0  0
   -2.6062   -0.1434   -1.0354 C   0  0  0  0  0  0  0  0  0  0  0  0
   -5.5822   -0.5024   -0.9938 H   0  0  0  0  0  0  0  0  0  0  0  0
   -5.2220    0.8997   -2.0521 H   0  0  0  0  0  0  0  0  0  0  0  0
   -6.7993    2.7321   -2.2449 H   0  0  0  0  0  0  0  0  0  0  0  0
   -9.0653    3.6080   -1.8055 H   0  0  0  0  0  0  0  0  0  0  0  0
   -9.6794    0.5868    1.1889 H   0  0  0  0  0  0  0  0  0  0  0  0
   -7.4137   -0.3097    0.7564 H   0  0  0  0  0  0  0  0  0  0  0  0
   -1.9909   -0.2080    1.6522 H   0  0  0  0  0  0  0  0  0  0  0  0
   -3.1547    0.9831    2.1899 H   0  0  0  0  0  0  0  0  0  0  0  0
   -1.4694    2.2943    0.1302 H   0  0  0  0  0  0  0  0  0  0  0  0
   -1.7670    2.7439    1.8248 H   0  0  0  0  0  0  0  0  0  0  0  0
    0.6213    2.4223    1.5384 H   0  0  0  0  0  0  0  0  0  0  0  0
   -0.0144    1.0988    2.5803 H   0  0  0  0  0  0  0  0  0  0  0  0
   -0.0593   -0.4312    0.6601 H   0  0  0  0  0  0  0  0  0  0  0  0
    0.4231    0.8772   -0.4749 H   0  0  0  0  0  0  0  0  0  0  0  0
    2.5252    2.1389    0.1601 H   0  0  0  0  0  0  0  0  0  0  0  0
    3.0842    0.9467   -1.0331 H   0  0  0  0  0  0  0  0  0  0  0  0
    4.3841    1.9452    1.5217 H   0  0  0  0  0  0  0  0  0  0  0  0
    5.0965    1.5406   -0.0733 H   0  0  0  0  0  0  0  0  0  0  0  0
    6.4634    0.6999    2.2202 H   0  0  0  0  0  0  0  0  0  0  0  0
    6.4296   -1.0925    2.1570 H   0  0  0  0  0  0  0  0  0  0  0  0
    8.3282    1.4506    0.9134 H   0  0  0  0  0  0  0  0  0  0  0  0
    9.7174    1.3176   -1.1260 H   0  0  0  0  0  0  0  0  0  0  0  0
    9.2409   -0.4279   -2.8358 H   0  0  0  0  0  0  0  0  0  0  0  0
    7.3595   -2.0137   -2.4722 H   0  0  0  0  0  0  0  0  0  0  0  0
    4.2973    0.0598    3.3040 H   0  0  0  0  0  0  0  0  0  0  0  0
    4.0527   -1.5694    2.6023 H   0  0  0  0  0  0  0  0  0  0  0  0
    2.2301    0.7620    2.7527 H   0  0  0  0  0  0  0  0  0  0  0  0
    1.8146   -0.9761    2.6328 H   0  0  0  0  0  0  0  0  0  0  0  0
    1.6191   -3.5192   -1.3942 H   0  0  0  0  0  0  0  0  0  0  0  0
    0.8498   -2.7385   -2.7892 H   0  0  0  0  0  0  0  0  0  0  0  0
   -0.4794   -2.4981   -0.0518 H   0  0  0  0  0  0  0  0  0  0  0  0
   -0.5766   -4.8119   -1.6918 H   0  0  0  0  0  0  0  0  0  0  0  0
   -2.2282   -3.3028   -2.3196 H   0  0  0  0  0  0  0  0  0  0  0  0
   -2.0341   -1.5436   -3.5867 H   0  0  0  0  0  0  0  0  0  0  0  0
   -2.7073   -2.0371    0.0569 H   0  0  0  0  0  0  0  0  0  0  0  0
   -3.7658   -1.9314   -1.3625 H   0  0  0  0  0  0  0  0  0  0  0  0
   -1.5384    0.1172   -1.0596 H   0  0  0  0  0  0  0  0  0  0  0  0
   -3.0147    0.2479   -1.9904 H   0  0  0  0  0  0  0  0  0  0  0  0
  1  2  2  0
  2  3  1  0
  3  4  1  0
  4  5  2  0
  5  6  1  0
  6  7  2  0
  7  8  1  0
  7  9  1  0
  9 10  2  0
  2 11  1  0
 11 12  1  0
 12 13  1  0
 13 14  1  0
 14 15  1  0
 15 16  1  0
 16 17  1  0
 17 18  1  0
 18 19  1  0
 19 20  1  0
 20 21  1  0
 21 22  2  0
 22 23  1  0
 23 24  2  0
 24 25  1  0
 25 26  2  0
 19 27  1  0
 27 28  1  0
 16 29  1  0
 29 30  2  0
 29 31  1  0
 31 32  1  0
 32 33  1  0
 33 34  1  0
 33 35  1  0
 35 36  1  0
 35 37  1  0
 37 38  1  0
 10  4  1  0
 38 11  1  0
 28 16  1  0
 26 21  1  0
  3 39  1  0
  3 40  1  0
  5 41  1  0
  6 42  1  0
  9 43  1  0
 10 44  1  0
 12 45  1  0
 12 46  1  0
 13 47  1  0
 13 48  1  0
 14 49  1  0
 14 50  1  0
 15 51  1  0
 15 52  1  0
 17 53  1  0
 17 54  1  0
 18 55  1  0
 18 56  1  0
 20 57  1  0
 20 58  1  0
 22 59  1  0
 23 60  1  0
 24 61  1  0
 25 62  1  0
 27 63  1  0
 27 64  1  0
 28 65  1  0
 28 66  1  0
 32 67  1  0
 32 68  1  0
 33 69  1  0
 34 70  1  0
 35 71  1  0
 36 72  1  0
 37 73  1  0
 37 74  1  0
 38 75  1  0
 38 76  1  0
M  END
$$$$
