
     RDKit          3D

 62 65  0  0  0  0  0  0  0  0999 V2000
    8.0056    1.3018    0.1951 C   0  0  0  0  0  0  0  0  0  0  0  0
    7.1787    0.0671    0.0830 C   0  0  0  0  0  0  0  0  0  0  0  0
    6.3253   -0.1672   -0.9369 N   0  0  0  0  0  0  0  0  0  0  0  0
    5.6358   -1.3287   -0.7649 C   0  0  0  0  0  0  0  0  0  0  0  0
    4.6375   -1.8100   -1.7747 C   0  0  0  0  0  0  0  0  0  0  0  0
    3.5916   -0.7567   -2.0193 C   0  0  0  0  0  0  0  0  0  0  0  0
    3.6176   -0.1259   -3.1102 O   0  0  0  0  0  0  0  0  0  0  0  0
    2.5897   -0.4400   -1.0277 N   0  0  0  0  0  0  0  0  0  0  0  0
    2.2194   -1.4277   -0.0015 C   0  0  0  0  0  0  0  0  0  0  0  0
    1.0325   -0.9455    0.8458 C   0  0  0  0  0  0  0  0  0  0  0  0
   -0.1201   -0.3671   -0.0332 C   0  0  0  0  0  0  0  0  0  0  0  0
   -1.2332    0.2331    0.8843 C   0  0  0  0  0  0  0  0  0  0  0  0
   -0.7798    1.2256    1.9698 C   0  0  0  0  0  0  0  0  0  0  0  0
   -1.9314    2.1283    2.4580 C   0  0  0  0  0  0  0  0  0  0  0  0
   -3.1077    1.3688    3.1242 C   0  0  0  0  0  0  0  0  0  0  0  0
   -4.3588    1.2862    2.2342 C   0  0  0  0  0  0  0  0  0  0  0  0
   -4.1799    0.2941    1.2257 O   0  0  0  0  0  0  0  0  0  0  0  0
   -4.9302    0.1932    0.0415 C   0  0  0  0  0  0  0  0  0  0  0  0
   -6.1008    0.9473   -0.1687 C   0  0  0  0  0  0  0  0  0  0  0  0
   -6.7799    0.8676   -1.3880 C   0  0  0  0  0  0  0  0  0  0  0  0
   -6.3003    0.0411   -2.4068 C   0  0  0  0  0  0  0  0  0  0  0  0
   -5.1491   -0.7240   -2.2048 C   0  0  0  0  0  0  0  0  0  0  0  0
   -4.4739   -0.6682   -0.9776 C   0  0  0  0  0  0  0  0  0  0  0  0
   -3.2795   -1.4980   -0.7593 C   0  0  0  0  0  0  0  0  0  0  0  0
   -3.3269   -2.4261    0.0925 O   0  0  0  0  0  0  0  0  0  0  0  0
   -2.0499   -1.1967   -1.4393 N   0  0  0  0  0  0  0  0  0  0  0  0
   -0.7433   -1.5448   -0.8644 C   0  0  0  0  0  0  0  0  0  0  0  0
    0.4193    0.7349   -1.0191 C   0  0  0  0  0  0  0  0  0  0  0  0
    1.9471    0.8817   -1.0141 C   0  0  0  0  0  0  0  0  0  0  0  0
    5.9413   -2.0291    0.4004 C   0  0  0  0  0  0  0  0  0  0  0  0
    7.0959   -1.1444    1.2458 S   0  0  0  0  0  0  0  0  0  0  0  0
    8.3785    1.5979   -0.8082 H   0  0  0  0  0  0  0  0  0  0  0  0
    8.8747    1.1214    0.8638 H   0  0  0  0  0  0  0  0  0  0  0  0
    7.3876    2.1237    0.6133 H   0  0  0  0  0  0  0  0  0  0  0  0
    4.1576   -2.7534   -1.4386 H   0  0  0  0  0  0  0  0  0  0  0  0
    5.1747   -2.0362   -2.7211 H   0  0  0  0  0  0  0  0  0  0  0  0
    3.0850   -1.6141    0.6697 H   0  0  0  0  0  0  0  0  0  0  0  0
    1.9486   -2.3879   -0.4916 H   0  0  0  0  0  0  0  0  0  0  0  0
    1.4210   -0.1704    1.5405 H   0  0  0  0  0  0  0  0  0  0  0  0
    0.6621   -1.7836    1.4761 H   0  0  0  0  0  0  0  0  0  0  0  0
   -1.9590    0.7595    0.2282 H   0  0  0  0  0  0  0  0  0  0  0  0
   -1.7580   -0.6001    1.3998 H   0  0  0  0  0  0  0  0  0  0  0  0
   -0.3632    0.6685    2.8371 H   0  0  0  0  0  0  0  0  0  0  0  0
    0.0229    1.8829    1.5731 H   0  0  0  0  0  0  0  0  0  0  0  0
   -2.2848    2.7637    1.6161 H   0  0  0  0  0  0  0  0  0  0  0  0
   -1.5016    2.8269    3.2097 H   0  0  0  0  0  0  0  0  0  0  0  0
   -3.3956    1.9196    4.0467 H   0  0  0  0  0  0  0  0  0  0  0  0
   -2.8012    0.3504    3.4478 H   0  0  0  0  0  0  0  0  0  0  0  0
   -5.2387    1.0125    2.8547 H   0  0  0  0  0  0  0  0  0  0  0  0
   -4.5522    2.2803    1.7750 H   0  0  0  0  0  0  0  0  0  0  0  0
   -6.4919    1.5954    0.6031 H   0  0  0  0  0  0  0  0  0  0  0  0
   -7.6767    1.4520   -1.5465 H   0  0  0  0  0  0  0  0  0  0  0  0
   -6.8277   -0.0122   -3.3512 H   0  0  0  0  0  0  0  0  0  0  0  0
   -4.7909   -1.3683   -2.9979 H   0  0  0  0  0  0  0  0  0  0  0  0
   -2.0749   -0.5278   -2.2420 H   0  0  0  0  0  0  0  0  0  0  0  0
   -0.0602   -1.8313   -1.6934 H   0  0  0  0  0  0  0  0  0  0  0  0
   -0.8473   -2.4509   -0.2288 H   0  0  0  0  0  0  0  0  0  0  0  0
    0.1100    0.5165   -2.0651 H   0  0  0  0  0  0  0  0  0  0  0  0
   -0.0161    1.7327   -0.7926 H   0  0  0  0  0  0  0  0  0  0  0  0
    2.2559    1.5004   -1.8844 H   0  0  0  0  0  0  0  0  0  0  0  0
    2.2638    1.4287   -0.0989 H   0  0  0  0  0  0  0  0  0  0  0  0
    5.5050   -2.9673    0.7153 H   0  0  0  0  0  0  0  0  0  0  0  0
  1  2  1  0
  2  3  2  0
  3  4  1  0
  4  5  1  0
  5  6  1  0
  6  7  2  0
  6  8  1  0
  8  9  1  0
  9 10  1  0
 10 11  1  0
 11 12  1  0
 12 13  1  0
 13 14  1  0
 14 15  1  0
 15 16  1  0
 16 17  1  0
 17 18  1  0
 18 19  2  0
 19 20  1  0
 20 21  2  0
 21 22  1  0
 22 23  2  0
 23 24  1  0
 24 25  2  0
 24 26  1  0
 26 27  1  0
 11 28  1  0
 28 29  1  0
  4 30  2  0
 30 31  1  0
 31  2  1  0
 29  8  1  0
 27 11  1  0
 23 18  1  0
  1 32  1  0
  1 33  1  0
  1 34  1  0
  5 35  1  0
  5 36  1  0
  9 37  1  0
  9 38  1  0
 10 39  1  0
 10 40  1  0
 12 41  1  0
 12 42  1  0
 13 43  1  0
 13 44  1  0
 14 45  1  0
 14 46  1  0
 15 47  1  0
 15 48  1  0
 16 49  1  0
 16 50  1  0
 19 51  1  0
 20 52  1  0
 21 53  1  0
 22 54  1  0
 26 55  1  0
 27 56  1  0
 27 57  1  0
 28 58  1  0
 28 59  1  0
 29 60  1  0
 29 61  1  0
 30 62  1  0
M  END
$$$$
