
     RDKit          3D

 69 72  0  0  0  0  0  0  0  0999 V2000
   -4.4169   -4.8618    0.2718 C   0  0  0  0  0  0  0  0  0  0  0  0
   -3.8391   -3.6595   -0.1866 O   0  0  0  0  0  0  0  0  0  0  0  0
   -3.9223   -2.6815    0.8309 C   0  0  0  0  0  0  0  0  0  0  0  0
   -3.1802   -1.3844    0.4100 C   0  0  0  0  0  0  0  0  0  0  0  0
   -1.6411   -1.6565    0.3030 C   0  0  0  0  0  0  0  0  0  0  0  0
   -1.1542   -2.5362   -0.8674 C   0  0  0  0  0  0  0  0  0  0  0  0
    0.3631   -2.3686   -1.0889 C   0  0  0  0  0  0  0  0  0  0  0  0
    0.7148   -1.1189   -1.9293 C   0  0  0  0  0  0  0  0  0  0  0  0
    1.9801   -0.5028   -1.4738 N   0  0  0  0  0  0  0  0  0  0  0  0
    3.1940   -1.2762   -1.6250 C   0  0  0  0  0  0  0  0  0  0  0  0
    3.2148   -2.2754   -2.3952 O   0  0  0  0  0  0  0  0  0  0  0  0
    4.4053   -0.9769   -0.8440 C   0  0  0  0  0  0  0  0  0  0  0  0
    5.2402    0.0922   -1.1866 C   0  0  0  0  0  0  0  0  0  0  0  0
    6.3879    0.3480   -0.4346 C   0  0  0  0  0  0  0  0  0  0  0  0
    6.7031   -0.4869    0.6470 C   0  0  0  0  0  0  0  0  0  0  0  0
    7.9105   -0.2306    1.4936 C   0  0  0  0  0  0  0  0  0  0  0  0
    5.8803   -1.5252    0.9577 N   0  0  0  0  0  0  0  0  0  0  0  0
    4.7554   -1.7899    0.2409 C   0  0  0  0  0  0  0  0  0  0  0  0
    2.0772    0.8625   -0.8956 C   0  0  0  0  0  0  0  0  0  0  0  0
    0.7469    1.6112   -0.7441 C   0  0  0  0  0  0  0  0  0  0  0  0
    0.9615    2.8680   -0.1137 O   0  0  0  0  0  0  0  0  0  0  0  0
   -0.0226    3.6692    0.4996 C   0  0  0  0  0  0  0  0  0  0  0  0
    0.4488    4.6686    1.3640 C   0  0  0  0  0  0  0  0  0  0  0  0
   -0.4340    5.4983    2.0550 C   0  0  0  0  0  0  0  0  0  0  0  0
   -1.8086    5.3472    1.8868 C   0  0  0  0  0  0  0  0  0  0  0  0
   -2.3040    4.3741    1.0188 C   0  0  0  0  0  0  0  0  0  0  0  0
   -1.4321    3.5244    0.3190 C   0  0  0  0  0  0  0  0  0  0  0  0
   -2.0405    2.6053   -0.6635 C   0  0  0  0  0  0  0  0  0  0  0  0
   -1.9855    2.9263   -1.8838 O   0  0  0  0  0  0  0  0  0  0  0  0
   -2.7200    1.3880   -0.2640 N   0  0  0  0  0  0  0  0  0  0  0  0
   -2.8116    1.0623    1.1762 C   0  0  0  0  0  0  0  0  0  0  0  0
   -3.4306   -0.3136    1.4984 C   0  0  0  0  0  0  0  0  0  0  0  0
   -3.1713    0.4923   -1.3479 C   0  0  0  0  0  0  0  0  0  0  0  0
   -3.8148   -0.8183   -0.8788 C   0  0  0  0  0  0  0  0  0  0  0  0
   -5.4759   -4.7157    0.5821 H   0  0  0  0  0  0  0  0  0  0  0  0
   -4.4107   -5.5946   -0.5601 H   0  0  0  0  0  0  0  0  0  0  0  0
   -3.8225   -5.2954    1.1052 H   0  0  0  0  0  0  0  0  0  0  0  0
   -4.9929   -2.4420    1.0289 H   0  0  0  0  0  0  0  0  0  0  0  0
   -3.4718   -3.0568    1.7799 H   0  0  0  0  0  0  0  0  0  0  0  0
   -1.1154   -0.6975    0.2352 H   0  0  0  0  0  0  0  0  0  0  0  0
   -1.2851   -2.1148    1.2522 H   0  0  0  0  0  0  0  0  0  0  0  0
   -1.3547   -3.6001   -0.6200 H   0  0  0  0  0  0  0  0  0  0  0  0
   -1.6830   -2.3020   -1.8133 H   0  0  0  0  0  0  0  0  0  0  0  0
    0.7434   -3.2667   -1.6195 H   0  0  0  0  0  0  0  0  0  0  0  0
    0.8778   -2.3347   -0.1046 H   0  0  0  0  0  0  0  0  0  0  0  0
    0.8154   -1.4131   -2.9961 H   0  0  0  0  0  0  0  0  0  0  0  0
   -0.1213   -0.4054   -1.9188 H   0  0  0  0  0  0  0  0  0  0  0  0
    5.0070    0.7227   -2.0348 H   0  0  0  0  0  0  0  0  0  0  0  0
    7.0252    1.1837   -0.6953 H   0  0  0  0  0  0  0  0  0  0  0  0
    8.6194    0.4609    0.9883 H   0  0  0  0  0  0  0  0  0  0  0  0
    8.4393   -1.1885    1.6909 H   0  0  0  0  0  0  0  0  0  0  0  0
    7.5955    0.2155    2.4612 H   0  0  0  0  0  0  0  0  0  0  0  0
    4.1338   -2.6338    0.5171 H   0  0  0  0  0  0  0  0  0  0  0  0
    2.7397    1.4796   -1.5412 H   0  0  0  0  0  0  0  0  0  0  0  0
    2.5428    0.7954    0.1132 H   0  0  0  0  0  0  0  0  0  0  0  0
    0.3019    1.7817   -1.7456 H   0  0  0  0  0  0  0  0  0  0  0  0
    0.0864    1.0162   -0.0973 H   0  0  0  0  0  0  0  0  0  0  0  0
    1.5137    4.7919    1.5116 H   0  0  0  0  0  0  0  0  0  0  0  0
   -0.0496    6.2584    2.7220 H   0  0  0  0  0  0  0  0  0  0  0  0
   -2.4929    5.9955    2.4167 H   0  0  0  0  0  0  0  0  0  0  0  0
   -3.3756    4.2940    0.8773 H   0  0  0  0  0  0  0  0  0  0  0  0
   -3.4114    1.8429    1.6907 H   0  0  0  0  0  0  0  0  0  0  0  0
   -1.7915    1.0940    1.6171 H   0  0  0  0  0  0  0  0  0  0  0  0
   -4.5256   -0.1735    1.6433 H   0  0  0  0  0  0  0  0  0  0  0  0
   -3.0285   -0.6631    2.4757 H   0  0  0  0  0  0  0  0  0  0  0  0
   -3.9032    1.0324   -1.9878 H   0  0  0  0  0  0  0  0  0  0  0  0
   -2.3052    0.2422   -1.9928 H   0  0  0  0  0  0  0  0  0  0  0  0
   -4.8976   -0.6266   -0.6999 H   0  0  0  0  0  0  0  0  0  0  0  0
   -3.7811   -1.5573   -1.7068 H   0  0  0  0  0  0  0  0  0  0  0  0
  1  2  1  0
  2  3  1  0
  3  4  1  0
  4  5  1  0
  5  6  1  0
  6  7  1  0
  7  8  1  0
  8  9  1  0
  9 10  1  0
 10 11  2  0
 10 12  1  0
 12 13  2  0
 13 14  1  0
 14 15  2  0
 15 16  1  0
 15 17  1  0
 17 18  2  0
  9 19  1  0
 19 20  1  0
 20 21  1  0
 21 22  1  0
 22 23  2  0
 23 24  1  0
 24 25  2  0
 25 26  1  0
 26 27  2  0
 27 28  1  0
 28 29  2  0
 28 30  1  0
 30 31  1  0
 31 32  1  0
 30 33  1  0
 33 34  1  0
 32  4  1  0
 34  4  1  0
 18 12  1  0
 27 22  1  0
  1 35  1  0
  1 36  1  0
  1 37  1  0
  3 38  1  0
  3 39  1  0
  5 40  1  0
  5 41  1  0
  6 42  1  0
  6 43  1  0
  7 44  1  0
  7 45  1  0
  8 46  1  0
  8 47  1  0
 13 48  1  0
 14 49  1  0
 16 50  1  0
 16 51  1  0
 16 52  1  0
 18 53  1  0
 19 54  1  0
 19 55  1  0
 20 56  1  0
 20 57  1  0
 23 58  1  0
 24 59  1  0
 25 60  1  0
 26 61  1  0
 31 62  1  0
 31 63  1  0
 32 64  1  0
 32 65  1  0
 33 66  1  0
 33 67  1  0
 34 68  1  0
 34 69  1  0
M  END
$$$$
