
     RDKit          3D

 70 73  0  0  0  0  0  0  0  0999 V2000
    5.9208   -0.0309   -2.0728 C   0  0  0  0  0  0  0  0  0  0  0  0
    6.0207   -0.0719   -0.5701 C   0  0  0  0  0  0  0  0  0  0  0  0
    7.1231    0.5324    0.0603 C   0  0  0  0  0  0  0  0  0  0  0  0
    7.2533    0.4990    1.4505 C   0  0  0  0  0  0  0  0  0  0  0  0
    6.2939   -0.1487    2.2278 C   0  0  0  0  0  0  0  0  0  0  0  0
    5.1993   -0.7638    1.6176 C   0  0  0  0  0  0  0  0  0  0  0  0
    5.0436   -0.7254    0.2212 C   0  0  0  0  0  0  0  0  0  0  0  0
    3.8779   -1.4060   -0.3846 C   0  0  0  0  0  0  0  0  0  0  0  0
    4.0840   -2.2941   -1.2574 O   0  0  0  0  0  0  0  0  0  0  0  0
    2.5259   -1.1032    0.0294 N   0  0  0  0  0  0  0  0  0  0  0  0
    2.1817    0.2157    0.5871 C   0  0  0  0  0  0  0  0  0  0  0  0
    2.1610    1.2841   -0.5136 C   0  0  0  0  0  0  0  0  0  0  0  0
    1.6947    2.6638   -0.0099 C   0  0  0  0  0  0  0  0  0  0  0  0
    0.1674    2.7716    0.1602 C   0  0  0  0  0  0  0  0  0  0  0  0
   -0.2796    2.2236    1.4438 N   0  0  0  0  0  0  0  0  0  0  0  0
   -1.6638    2.0669    1.7953 C   0  0  0  0  0  0  0  0  0  0  0  0
   -1.9600    1.6560    2.9497 O   0  0  0  0  0  0  0  0  0  0  0  0
   -2.7551    2.4437    0.8770 C   0  0  0  0  0  0  0  0  0  0  0  0
   -3.5467    3.5480    1.2336 C   0  0  0  0  0  0  0  0  0  0  0  0
   -4.5540    4.0068    0.3819 C   0  0  0  0  0  0  0  0  0  0  0  0
   -5.5274    5.3922    0.8407 Cl  0  0  0  0  0  0  0  0  0  0  0  0
   -4.7783    3.3694   -0.8388 C   0  0  0  0  0  0  0  0  0  0  0  0
   -4.0104    2.2617   -1.1998 C   0  0  0  0  0  0  0  0  0  0  0  0
   -3.0172    1.7666   -0.3447 C   0  0  0  0  0  0  0  0  0  0  0  0
   -2.3389    0.6134   -0.7668 O   0  0  0  0  0  0  0  0  0  0  0  0
   -1.9005   -0.4452    0.0825 C   0  0  0  0  0  0  0  0  0  0  0  0
   -1.6375   -1.7099   -0.7502 C   0  0  0  0  0  0  0  0  0  0  0  0
   -2.9034   -2.1838   -1.4968 C   0  0  0  0  0  0  0  0  0  0  0  0
   -4.0137   -2.5745   -0.5535 C   0  0  0  0  0  0  0  0  0  0  0  0
   -5.0754   -1.6890   -0.2987 C   0  0  0  0  0  0  0  0  0  0  0  0
   -6.0877   -2.0428    0.5989 C   0  0  0  0  0  0  0  0  0  0  0  0
   -6.0472   -3.2799    1.2485 C   0  0  0  0  0  0  0  0  0  0  0  0
   -4.9928   -4.1641    1.0041 C   0  0  0  0  0  0  0  0  0  0  0  0
   -3.9764   -3.8126    0.1097 C   0  0  0  0  0  0  0  0  0  0  0  0
   -0.5733   -1.4427   -1.7255 N   0  0  0  0  0  0  0  0  0  0  0  0
    0.8103   -1.8062   -1.5693 C   0  0  0  0  0  0  0  0  0  0  0  0
    1.5329   -1.8808   -2.5993 O   0  0  0  0  0  0  0  0  0  0  0  0
    1.4453   -2.0698   -0.2269 C   0  0  0  0  0  0  0  0  0  0  0  0
    6.6156    0.7187   -2.5050 H   0  0  0  0  0  0  0  0  0  0  0  0
    6.1834   -1.0268   -2.4875 H   0  0  0  0  0  0  0  0  0  0  0  0
    4.8895    0.2359   -2.3878 H   0  0  0  0  0  0  0  0  0  0  0  0
    7.8849    1.0326   -0.5246 H   0  0  0  0  0  0  0  0  0  0  0  0
    8.1032    0.9721    1.9254 H   0  0  0  0  0  0  0  0  0  0  0  0
    6.4013   -0.1814    3.3053 H   0  0  0  0  0  0  0  0  0  0  0  0
    4.4723   -1.2767    2.2363 H   0  0  0  0  0  0  0  0  0  0  0  0
    2.8980    0.5091    1.3791 H   0  0  0  0  0  0  0  0  0  0  0  0
    1.1969    0.1583    1.0775 H   0  0  0  0  0  0  0  0  0  0  0  0
    1.5190    0.9525   -1.3588 H   0  0  0  0  0  0  0  0  0  0  0  0
    3.1925    1.3938   -0.9106 H   0  0  0  0  0  0  0  0  0  0  0  0
    1.9963    3.4134   -0.7737 H   0  0  0  0  0  0  0  0  0  0  0  0
    2.2195    2.9378    0.9313 H   0  0  0  0  0  0  0  0  0  0  0  0
   -0.3322    2.2477   -0.6797 H   0  0  0  0  0  0  0  0  0  0  0  0
   -0.1276    3.8427    0.1131 H   0  0  0  0  0  0  0  0  0  0  0  0
    0.4267    2.0040    2.1819 H   0  0  0  0  0  0  0  0  0  0  0  0
   -3.3677    4.0666    2.1685 H   0  0  0  0  0  0  0  0  0  0  0  0
   -5.5538    3.7261   -1.5046 H   0  0  0  0  0  0  0  0  0  0  0  0
   -4.2052    1.7648   -2.1418 H   0  0  0  0  0  0  0  0  0  0  0  0
   -0.9643   -0.1606    0.5886 H   0  0  0  0  0  0  0  0  0  0  0  0
   -2.6648   -0.6532    0.8610 H   0  0  0  0  0  0  0  0  0  0  0  0
   -1.3299   -2.5343   -0.0717 H   0  0  0  0  0  0  0  0  0  0  0  0
   -3.2544   -1.3920   -2.1953 H   0  0  0  0  0  0  0  0  0  0  0  0
   -2.6425   -3.0650   -2.1233 H   0  0  0  0  0  0  0  0  0  0  0  0
   -5.1139   -0.7235   -0.7886 H   0  0  0  0  0  0  0  0  0  0  0  0
   -6.9017   -1.3566    0.7940 H   0  0  0  0  0  0  0  0  0  0  0  0
   -6.8311   -3.5516    1.9427 H   0  0  0  0  0  0  0  0  0  0  0  0
   -4.9604   -5.1202    1.5105 H   0  0  0  0  0  0  0  0  0  0  0  0
   -3.1594   -4.5021   -0.0644 H   0  0  0  0  0  0  0  0  0  0  0  0
   -0.8398   -0.9740   -2.6221 H   0  0  0  0  0  0  0  0  0  0  0  0
    1.8452   -3.1062   -0.2141 H   0  0  0  0  0  0  0  0  0  0  0  0
    0.7085   -2.0216    0.5970 H   0  0  0  0  0  0  0  0  0  0  0  0
  1  2  1  0
  2  3  2  0
  3  4  1  0
  4  5  2  0
  5  6  1  0
  6  7  2  0
  7  8  1  0
  8  9  2  0
  8 10  1  0
 10 11  1  0
 11 12  1  0
 12 13  1  0
 13 14  1  0
 14 15  1  0
 15 16  1  0
 16 17  2  0
 16 18  1  0
 18 19  2  0
 19 20  1  0
 20 21  1  0
 20 22  2  0
 22 23  1  0
 23 24  2  0
 24 25  1  0
 25 26  1  0
 26 27  1  0
 27 28  1  0
 28 29  1  0
 29 30  2  0
 30 31  1  0
 31 32  2  0
 32 33  1  0
 33 34  2  0
 27 35  1  0
 35 36  1  0
 36 37  2  0
 36 38  1  0
  7  2  1  0
 38 10  1  0
 24 18  1  0
 34 29  1  0
  1 39  1  0
  1 40  1  0
  1 41  1  0
  3 42  1  0
  4 43  1  0
  5 44  1  0
  6 45  1  0
 11 46  1  0
 11 47  1  0
 12 48  1  0
 12 49  1  0
 13 50  1  0
 13 51  1  0
 14 52  1  0
 14 53  1  0
 15 54  1  0
 19 55  1  0
 22 56  1  0
 23 57  1  0
 26 58  1  0
 26 59  1  0
 27 60  1  0
 28 61  1  0
 28 62  1  0
 30 63  1  0
 31 64  1  0
 32 65  1  0
 33 66  1  0
 34 67  1  0
 35 68  1  0
 38 69  1  0
 38 70  1  0
M  END
$$$$
