
     RDKit          3D

 84 87  0  0  0  0  0  0  0  0999 V2000
   -3.8810    5.4110    1.9555 C   0  0  0  0  0  0  0  0  0  0  0  0
   -3.4907    4.0345    1.4018 C   0  0  0  0  0  0  0  0  0  0  0  0
   -2.7242    4.2055    0.0803 C   0  0  0  0  0  0  0  0  0  0  0  0
   -4.7570    3.1587    1.2336 C   0  0  0  0  0  0  0  0  0  0  0  0
   -4.4673    1.6833    0.8826 C   0  0  0  0  0  0  0  0  0  0  0  0
   -3.7245    1.0337    1.9715 N   0  0  0  0  0  0  0  0  0  0  0  0
   -2.2978    0.8492    1.9866 C   0  0  0  0  0  0  0  0  0  0  0  0
   -1.6778    1.0225    3.0692 O   0  0  0  0  0  0  0  0  0  0  0  0
   -1.5182    0.3947    0.7739 C   0  0  0  0  0  0  0  0  0  0  0  0
   -1.0596   -1.0763    0.8698 C   0  0  0  0  0  0  0  0  0  0  0  0
   -0.0308   -1.2716    1.9566 C   0  0  0  0  0  0  0  0  0  0  0  0
   -0.3232   -1.9211    3.0000 O   0  0  0  0  0  0  0  0  0  0  0  0
    1.2807   -0.7106    1.8062 N   0  0  0  0  0  0  0  0  0  0  0  0
    2.3313   -0.8904    2.8053 C   0  0  0  0  0  0  0  0  0  0  0  0
    2.9575   -2.2824    2.6823 C   0  0  0  0  0  0  0  0  0  0  0  0
    3.4487   -2.5063    1.3590 O   0  0  0  0  0  0  0  0  0  0  0  0
    4.5615   -1.8689    0.7865 C   0  0  0  0  0  0  0  0  0  0  0  0
    5.4786   -1.1162    1.5432 C   0  0  0  0  0  0  0  0  0  0  0  0
    6.5502   -0.4731    0.9170 C   0  0  0  0  0  0  0  0  0  0  0  0
    6.7316   -0.5735   -0.4738 C   0  0  0  0  0  0  0  0  0  0  0  0
    7.8520    0.1385   -1.1421 C   0  0  0  0  0  0  0  0  0  0  0  0
    8.2031    1.4454   -0.7500 C   0  0  0  0  0  0  0  0  0  0  0  0
    9.2545    2.1160   -1.3821 C   0  0  0  0  0  0  0  0  0  0  0  0
    9.9662    1.4941   -2.4105 C   0  0  0  0  0  0  0  0  0  0  0  0
    9.6292    0.1979   -2.8079 C   0  0  0  0  0  0  0  0  0  0  0  0
    8.5785   -0.4785   -2.1793 C   0  0  0  0  0  0  0  0  0  0  0  0
    5.8282   -1.3501   -1.2211 C   0  0  0  0  0  0  0  0  0  0  0  0
    4.7570   -1.9925   -0.5929 C   0  0  0  0  0  0  0  0  0  0  0  0
   -2.2115   -1.9667    1.0790 N   0  0  0  0  0  0  0  0  0  0  0  0
   -2.6357   -2.9825    0.1537 C   0  0  0  0  0  0  0  0  0  0  0  0
   -3.5003   -3.8257    0.5195 O   0  0  0  0  0  0  0  0  0  0  0  0
   -2.0612   -3.0979   -1.1965 C   0  0  0  0  0  0  0  0  0  0  0  0
   -1.1601   -4.1523   -1.4211 C   0  0  0  0  0  0  0  0  0  0  0  0
   -0.4889   -4.2675   -2.6399 C   0  0  0  0  0  0  0  0  0  0  0  0
   -0.6991   -3.3239   -3.6420 C   0  0  0  0  0  0  0  0  0  0  0  0
   -1.6034   -2.2795   -3.4411 C   0  0  0  0  0  0  0  0  0  0  0  0
   -2.3165   -2.1625   -2.2393 C   0  0  0  0  0  0  0  0  0  0  0  0
   -3.2497   -1.1117   -2.1668 O   0  0  0  0  0  0  0  0  0  0  0  0
   -4.3698   -1.0264   -1.2892 C   0  0  0  0  0  0  0  0  0  0  0  0
   -5.2538    0.1475   -1.7105 C   0  0  0  0  0  0  0  0  0  0  0  0
   -6.2095    0.4918   -0.6436 N   0  0  0  0  0  0  0  0  0  0  0  0
   -7.6351    0.2240   -0.8606 C   0  0  0  0  0  0  0  0  0  0  0  0
   -5.7803    0.9542    0.6613 C   0  0  0  0  0  0  0  0  0  0  0  0
   -6.5440    0.7893    1.6520 O   0  0  0  0  0  0  0  0  0  0  0  0
   -2.9757    6.0372    2.1072 H   0  0  0  0  0  0  0  0  0  0  0  0
   -4.3880    5.3011    2.9368 H   0  0  0  0  0  0  0  0  0  0  0  0
   -4.5671    5.9340    1.2560 H   0  0  0  0  0  0  0  0  0  0  0  0
   -2.8098    3.5648    2.1429 H   0  0  0  0  0  0  0  0  0  0  0  0
   -3.3945    4.5884   -0.7179 H   0  0  0  0  0  0  0  0  0  0  0  0
   -1.8870    4.9224    0.2123 H   0  0  0  0  0  0  0  0  0  0  0  0
   -2.2778    3.2450   -0.2471 H   0  0  0  0  0  0  0  0  0  0  0  0
   -5.3991    3.6012    0.4393 H   0  0  0  0  0  0  0  0  0  0  0  0
   -5.3418    3.1862    2.1802 H   0  0  0  0  0  0  0  0  0  0  0  0
   -3.8815    1.6713   -0.0444 H   0  0  0  0  0  0  0  0  0  0  0  0
   -4.2091    0.9621    2.8961 H   0  0  0  0  0  0  0  0  0  0  0  0
   -2.1000    0.5097   -0.1571 H   0  0  0  0  0  0  0  0  0  0  0  0
   -0.6329    1.0562    0.6566 H   0  0  0  0  0  0  0  0  0  0  0  0
   -0.5533   -1.3238   -0.0872 H   0  0  0  0  0  0  0  0  0  0  0  0
    1.4913   -0.1264    0.9664 H   0  0  0  0  0  0  0  0  0  0  0  0
    1.9150   -0.7517    3.8259 H   0  0  0  0  0  0  0  0  0  0  0  0
    3.1091   -0.1129    2.6572 H   0  0  0  0  0  0  0  0  0  0  0  0
    2.1835   -3.0475    2.9020 H   0  0  0  0  0  0  0  0  0  0  0  0
    3.7675   -2.4154    3.4300 H   0  0  0  0  0  0  0  0  0  0  0  0
    5.3767   -1.0193    2.6150 H   0  0  0  0  0  0  0  0  0  0  0  0
    7.2456    0.0943    1.5232 H   0  0  0  0  0  0  0  0  0  0  0  0
    7.6539    1.9564    0.0320 H   0  0  0  0  0  0  0  0  0  0  0  0
    9.5145    3.1207   -1.0749 H   0  0  0  0  0  0  0  0  0  0  0  0
   10.7792    2.0158   -2.8987 H   0  0  0  0  0  0  0  0  0  0  0  0
   10.1860   -0.2844   -3.6009 H   0  0  0  0  0  0  0  0  0  0  0  0
    8.3460   -1.4888   -2.4916 H   0  0  0  0  0  0  0  0  0  0  0  0
    5.9331   -1.4398   -2.2952 H   0  0  0  0  0  0  0  0  0  0  0  0
    4.0611   -2.5740   -1.1850 H   0  0  0  0  0  0  0  0  0  0  0  0
   -2.7469   -1.8809    1.9737 H   0  0  0  0  0  0  0  0  0  0  0  0
   -0.9579   -4.8762   -0.6400 H   0  0  0  0  0  0  0  0  0  0  0  0
    0.2090   -5.0801   -2.7989 H   0  0  0  0  0  0  0  0  0  0  0  0
   -0.1688   -3.4069   -4.5818 H   0  0  0  0  0  0  0  0  0  0  0  0
   -1.7671   -1.5638   -4.2370 H   0  0  0  0  0  0  0  0  0  0  0  0
   -4.0255   -0.8531   -0.2568 H   0  0  0  0  0  0  0  0  0  0  0  0
   -4.9619   -1.9674   -1.3277 H   0  0  0  0  0  0  0  0  0  0  0  0
   -5.7850   -0.1448   -2.6430 H   0  0  0  0  0  0  0  0  0  0  0  0
   -4.6429    1.0347   -1.9776 H   0  0  0  0  0  0  0  0  0  0  0  0
   -8.2560    0.9810   -0.3317 H   0  0  0  0  0  0  0  0  0  0  0  0
   -7.8868   -0.7895   -0.4781 H   0  0  0  0  0  0  0  0  0  0  0  0
   -7.8931    0.2803   -1.9428 H   0  0  0  0  0  0  0  0  0  0  0  0
  1  2  1  0
  2  3  1  0
  2  4  1  0
  4  5  1  0
  5  6  1  0
  6  7  1  0
  7  8  2  0
  7  9  1  0
  9 10  1  0
 10 11  1  0
 11 12  2  0
 11 13  1  0
 13 14  1  0
 14 15  1  0
 15 16  1  0
 16 17  1  0
 17 18  2  0
 18 19  1  0
 19 20  2  0
 20 21  1  0
 21 22  2  0
 22 23  1  0
 23 24  2  0
 24 25  1  0
 25 26  2  0
 20 27  1  0
 27 28  2  0
 10 29  1  0
 29 30  1  0
 30 31  2  0
 30 32  1  0
 32 33  2  0
 33 34  1  0
 34 35  2  0
 35 36  1  0
 36 37  2  0
 37 38  1  0
 38 39  1  0
 39 40  1  0
 40 41  1  0
 41 42  1  0
 41 43  1  0
 43 44  2  0
 43  5  1  0
 28 17  1  0
 37 32  1  0
 26 21  1  0
  1 45  1  0
  1 46  1  0
  1 47  1  0
  2 48  1  0
  3 49  1  0
  3 50  1  0
  3 51  1  0
  4 52  1  0
  4 53  1  0
  5 54  1  0
  6 55  1  0
  9 56  1  0
  9 57  1  0
 10 58  1  0
 13 59  1  0
 14 60  1  0
 14 61  1  0
 15 62  1  0
 15 63  1  0
 18 64  1  0
 19 65  1  0
 22 66  1  0
 23 67  1  0
 24 68  1  0
 25 69  1  0
 26 70  1  0
 27 71  1  0
 28 72  1  0
 29 73  1  0
 33 74  1  0
 34 75  1  0
 35 76  1  0
 36 77  1  0
 39 78  1  0
 39 79  1  0
 40 80  1  0
 40 81  1  0
 42 82  1  0
 42 83  1  0
 42 84  1  0
M  END
$$$$
