
     RDKit          3D

 81 84  0  0  0  0  0  0  0  0999 V2000
   -7.1085    1.4977    2.9611 C   0  0  0  0  0  0  0  0  0  0  0  0
   -6.3312    0.8990    1.9500 O   0  0  0  0  0  0  0  0  0  0  0  0
   -5.0337    0.6284    2.4472 C   0  0  0  0  0  0  0  0  0  0  0  0
   -4.1935   -0.1413    1.3848 C   0  0  0  0  0  0  0  0  0  0  0  0
   -2.7896   -0.5175    1.9736 C   0  0  0  0  0  0  0  0  0  0  0  0
   -2.0580    0.6303    2.7034 C   0  0  0  0  0  0  0  0  0  0  0  0
   -0.5316    0.4306    2.7112 C   0  0  0  0  0  0  0  0  0  0  0  0
    0.1487    1.0207    1.4549 C   0  0  0  0  0  0  0  0  0  0  0  0
    0.9959    0.0279    0.7748 N   0  0  0  0  0  0  0  0  0  0  0  0
    2.1149   -0.5905    1.4452 C   0  0  0  0  0  0  0  0  0  0  0  0
    2.4457   -1.7687    1.1377 O   0  0  0  0  0  0  0  0  0  0  0  0
    2.8664    0.1286    2.5419 C   0  0  0  0  0  0  0  0  0  0  0  0
    4.3309   -0.3219    2.6743 C   0  0  0  0  0  0  0  0  0  0  0  0
    5.1206   -0.0636    1.4125 C   0  0  0  0  0  0  0  0  0  0  0  0
    5.4811   -1.1273    0.5738 C   0  0  0  0  0  0  0  0  0  0  0  0
    6.1875   -0.8880   -0.6059 C   0  0  0  0  0  0  0  0  0  0  0  0
    6.5478    0.4240   -0.9676 C   0  0  0  0  0  0  0  0  0  0  0  0
    7.2551    0.7033   -2.1476 O   0  0  0  0  0  0  0  0  0  0  0  0
    7.6752   -0.2797   -3.0894 C   0  0  0  0  0  0  0  0  0  0  0  0
    6.1957    1.4949   -0.1307 C   0  0  0  0  0  0  0  0  0  0  0  0
    6.5705    2.7911   -0.5171 O   0  0  0  0  0  0  0  0  0  0  0  0
    6.2921    3.9701    0.2307 C   0  0  0  0  0  0  0  0  0  0  0  0
    5.4822    1.2455    1.0593 C   0  0  0  0  0  0  0  0  0  0  0  0
    0.7697   -0.2655   -0.6490 C   0  0  0  0  0  0  0  0  0  0  0  0
    0.1118   -1.6416   -0.8502 C   0  0  0  0  0  0  0  0  0  0  0  0
   -1.1639   -1.5319   -1.4847 O   0  0  0  0  0  0  0  0  0  0  0  0
   -1.3851   -1.2127   -2.8375 C   0  0  0  0  0  0  0  0  0  0  0  0
   -0.3464   -0.7708   -3.6835 C   0  0  0  0  0  0  0  0  0  0  0  0
   -0.6052   -0.4538   -5.0190 C   0  0  0  0  0  0  0  0  0  0  0  0
   -1.8924   -0.5941   -5.5347 C   0  0  0  0  0  0  0  0  0  0  0  0
   -2.9241   -1.0650   -4.7194 C   0  0  0  0  0  0  0  0  0  0  0  0
   -2.6818   -1.3626   -3.3698 C   0  0  0  0  0  0  0  0  0  0  0  0
   -3.7744   -1.9050   -2.5440 C   0  0  0  0  0  0  0  0  0  0  0  0
   -4.4227   -2.9037   -2.9597 O   0  0  0  0  0  0  0  0  0  0  0  0
   -4.0944   -1.3238   -1.2699 N   0  0  0  0  0  0  0  0  0  0  0  0
   -4.3406   -2.2154   -0.1334 C   0  0  0  0  0  0  0  0  0  0  0  0
   -4.9564   -1.4600    1.0483 C   0  0  0  0  0  0  0  0  0  0  0  0
   -4.4900    0.0893   -1.2040 C   0  0  0  0  0  0  0  0  0  0  0  0
   -3.9991    0.7433    0.0973 C   0  0  0  0  0  0  0  0  0  0  0  0
   -8.1118    1.7251    2.5461 H   0  0  0  0  0  0  0  0  0  0  0  0
   -6.6591    2.4554    3.3030 H   0  0  0  0  0  0  0  0  0  0  0  0
   -7.2501    0.8058    3.8202 H   0  0  0  0  0  0  0  0  0  0  0  0
   -5.0887    0.0075    3.3730 H   0  0  0  0  0  0  0  0  0  0  0  0
   -4.5349    1.5912    2.7008 H   0  0  0  0  0  0  0  0  0  0  0  0
   -2.1465   -0.8908    1.1462 H   0  0  0  0  0  0  0  0  0  0  0  0
   -2.8911   -1.3594    2.6922 H   0  0  0  0  0  0  0  0  0  0  0  0
   -2.4162    0.6584    3.7558 H   0  0  0  0  0  0  0  0  0  0  0  0
   -2.2972    1.6169    2.2540 H   0  0  0  0  0  0  0  0  0  0  0  0
   -0.1155    0.9485    3.6032 H   0  0  0  0  0  0  0  0  0  0  0  0
   -0.2948   -0.6495    2.8340 H   0  0  0  0  0  0  0  0  0  0  0  0
    0.7618    1.9007    1.7401 H   0  0  0  0  0  0  0  0  0  0  0  0
   -0.6136    1.4184    0.7522 H   0  0  0  0  0  0  0  0  0  0  0  0
    2.3485   -0.0581    3.5061 H   0  0  0  0  0  0  0  0  0  0  0  0
    2.8526    1.2226    2.3540 H   0  0  0  0  0  0  0  0  0  0  0  0
    4.3665   -1.3993    2.9498 H   0  0  0  0  0  0  0  0  0  0  0  0
    4.8014    0.2365    3.5135 H   0  0  0  0  0  0  0  0  0  0  0  0
    5.2105   -2.1447    0.8279 H   0  0  0  0  0  0  0  0  0  0  0  0
    6.4481   -1.7309   -1.2308 H   0  0  0  0  0  0  0  0  0  0  0  0
    8.3667   -1.0016   -2.6062 H   0  0  0  0  0  0  0  0  0  0  0  0
    8.2090    0.2226   -3.9213 H   0  0  0  0  0  0  0  0  0  0  0  0
    6.7935   -0.8125   -3.5030 H   0  0  0  0  0  0  0  0  0  0  0  0
    5.1958    4.1047    0.3387 H   0  0  0  0  0  0  0  0  0  0  0  0
    6.7696    3.9108    1.2313 H   0  0  0  0  0  0  0  0  0  0  0  0
    6.7064    4.8450   -0.3094 H   0  0  0  0  0  0  0  0  0  0  0  0
    5.1994    2.0622    1.7108 H   0  0  0  0  0  0  0  0  0  0  0  0
    1.7453   -0.2365   -1.1839 H   0  0  0  0  0  0  0  0  0  0  0  0
    0.1444    0.5247   -1.1160 H   0  0  0  0  0  0  0  0  0  0  0  0
   -0.0410   -2.1406    0.1299 H   0  0  0  0  0  0  0  0  0  0  0  0
    0.7730   -2.3025   -1.4507 H   0  0  0  0  0  0  0  0  0  0  0  0
    0.6661   -0.6688   -3.3244 H   0  0  0  0  0  0  0  0  0  0  0  0
    0.1947   -0.0991   -5.6558 H   0  0  0  0  0  0  0  0  0  0  0  0
   -2.0898   -0.3502   -6.5701 H   0  0  0  0  0  0  0  0  0  0  0  0
   -3.9156   -1.1820   -5.1373 H   0  0  0  0  0  0  0  0  0  0  0  0
   -5.0399   -3.0252   -0.4324 H   0  0  0  0  0  0  0  0  0  0  0  0
   -3.3859   -2.6896    0.1768 H   0  0  0  0  0  0  0  0  0  0  0  0
   -4.9919   -2.1315    1.9330 H   0  0  0  0  0  0  0  0  0  0  0  0
   -6.0114   -1.2375    0.7824 H   0  0  0  0  0  0  0  0  0  0  0  0
   -5.5988    0.1546   -1.2537 H   0  0  0  0  0  0  0  0  0  0  0  0
   -4.0826    0.6566   -2.0703 H   0  0  0  0  0  0  0  0  0  0  0  0
   -2.9282    0.9997   -0.0485 H   0  0  0  0  0  0  0  0  0  0  0  0
   -4.5180    1.7220    0.2009 H   0  0  0  0  0  0  0  0  0  0  0  0
  1  2  1  0
  2  3  1  0
  3  4  1  0
  4  5  1  0
  5  6  1  0
  6  7  1  0
  7  8  1  0
  8  9  1  0
  9 10  1  0
 10 11  2  0
 10 12  1  0
 12 13  1  0
 13 14  1  0
 14 15  2  0
 15 16  1  0
 16 17  2  0
 17 18  1  0
 18 19  1  0
 17 20  1  0
 20 21  1  0
 21 22  1  0
 20 23  2  0
  9 24  1  0
 24 25  1  0
 25 26  1  0
 26 27  1  0
 27 28  2  0
 28 29  1  0
 29 30  2  0
 30 31  1  0
 31 32  2  0
 32 33  1  0
 33 34  2  0
 33 35  1  0
 35 36  1  0
 36 37  1  0
 35 38  1  0
 38 39  1  0
 37  4  1  0
 39  4  1  0
 23 14  1  0
 32 27  1  0
  1 40  1  0
  1 41  1  0
  1 42  1  0
  3 43  1  0
  3 44  1  0
  5 45  1  0
  5 46  1  0
  6 47  1  0
  6 48  1  0
  7 49  1  0
  7 50  1  0
  8 51  1  0
  8 52  1  0
 12 53  1  0
 12 54  1  0
 13 55  1  0
 13 56  1  0
 15 57  1  0
 16 58  1  0
 19 59  1  0
 19 60  1  0
 19 61  1  0
 22 62  1  0
 22 63  1  0
 22 64  1  0
 23 65  1  0
 24 66  1  0
 24 67  1  0
 25 68  1  0
 25 69  1  0
 28 70  1  0
 29 71  1  0
 30 72  1  0
 31 73  1  0
 36 74  1  0
 36 75  1  0
 37 76  1  0
 37 77  1  0
 38 78  1  0
 38 79  1  0
 39 80  1  0
 39 81  1  0
M  END
$$$$
