
     RDKit          3D

 66 69  0  0  0  0  0  0  0  0999 V2000
   -1.6295    0.8929   -3.6752 C   0  0  0  0  0  0  0  0  0  0  0  0
   -1.3358   -0.0499   -2.5947 N   0  0  0  0  0  0  0  0  0  0  0  0
   -1.8367   -1.4274   -2.7113 C   0  0  0  0  0  0  0  0  0  0  0  0
   -2.7042   -1.8646   -1.5210 C   0  0  0  0  0  0  0  0  0  0  0  0
   -3.5543   -0.8166   -1.0476 O   0  0  0  0  0  0  0  0  0  0  0  0
   -4.4347   -0.9463    0.0475 C   0  0  0  0  0  0  0  0  0  0  0  0
   -4.6129   -2.1867    0.6994 C   0  0  0  0  0  0  0  0  0  0  0  0
   -5.4752   -2.3025    1.7884 C   0  0  0  0  0  0  0  0  0  0  0  0
   -6.1882   -1.1946    2.2390 C   0  0  0  0  0  0  0  0  0  0  0  0
   -6.0352    0.0379    1.6064 C   0  0  0  0  0  0  0  0  0  0  0  0
   -5.1603    0.1798    0.5144 C   0  0  0  0  0  0  0  0  0  0  0  0
   -4.9749    1.5568   -0.0845 C   0  0  0  0  0  0  0  0  0  0  0  0
   -4.0230    2.4519    0.7462 C   0  0  0  0  0  0  0  0  0  0  0  0
   -2.6220    1.8537    0.9907 C   0  0  0  0  0  0  0  0  0  0  0  0
   -1.8104    1.7317   -0.3158 C   0  0  0  0  0  0  0  0  0  0  0  0
   -0.5879    0.7594   -0.2512 C   0  0  0  0  0  0  0  0  0  0  0  0
    0.6052    1.5494    0.3587 C   0  0  0  0  0  0  0  0  0  0  0  0
    1.7063    0.6504    0.7135 N   0  0  0  0  0  0  0  0  0  0  0  0
    3.0490    1.1696    0.7720 C   0  0  0  0  0  0  0  0  0  0  0  0
    3.2304    2.4139    0.8793 O   0  0  0  0  0  0  0  0  0  0  0  0
    4.2382    0.2448    0.7267 C   0  0  0  0  0  0  0  0  0  0  0  0
    5.4904    0.9284    0.1623 C   0  0  0  0  0  0  0  0  0  0  0  0
    6.6187   -0.0590    0.0353 C   0  0  0  0  0  0  0  0  0  0  0  0
    7.4901   -0.2923    1.1088 C   0  0  0  0  0  0  0  0  0  0  0  0
    8.5108   -1.2369    0.9859 C   0  0  0  0  0  0  0  0  0  0  0  0
    8.6461   -1.9468   -0.2093 C   0  0  0  0  0  0  0  0  0  0  0  0
    7.7856   -1.7206   -1.2368 N   0  0  0  0  0  0  0  0  0  0  0  0
    6.7831   -0.8067   -1.1412 C   0  0  0  0  0  0  0  0  0  0  0  0
    1.3546   -0.5743    1.4352 C   0  0  0  0  0  0  0  0  0  0  0  0
    0.1658   -1.2486    0.7561 C   0  0  0  0  0  0  0  0  0  0  0  0
   -0.9192   -0.3506    0.5805 O   0  0  0  0  0  0  0  0  0  0  0  0
   -0.2784    0.2809   -1.6768 C   0  0  0  0  0  0  0  0  0  0  0  0
    0.9174    0.1858   -2.0716 O   0  0  0  0  0  0  0  0  0  0  0  0
   -1.2560    1.9089   -3.4291 H   0  0  0  0  0  0  0  0  0  0  0  0
   -1.1409    0.5513   -4.6120 H   0  0  0  0  0  0  0  0  0  0  0  0
   -2.7275    0.9495   -3.8344 H   0  0  0  0  0  0  0  0  0  0  0  0
   -2.4472   -1.5323   -3.6374 H   0  0  0  0  0  0  0  0  0  0  0  0
   -0.9766   -2.1271   -2.8075 H   0  0  0  0  0  0  0  0  0  0  0  0
   -3.3261   -2.7256   -1.8458 H   0  0  0  0  0  0  0  0  0  0  0  0
   -2.0484   -2.2147   -0.6986 H   0  0  0  0  0  0  0  0  0  0  0  0
   -4.0726   -3.0680    0.3853 H   0  0  0  0  0  0  0  0  0  0  0  0
   -5.5750   -3.2511    2.2933 H   0  0  0  0  0  0  0  0  0  0  0  0
   -6.8575   -1.2896    3.0856 H   0  0  0  0  0  0  0  0  0  0  0  0
   -6.5846    0.8940    1.9810 H   0  0  0  0  0  0  0  0  0  0  0  0
   -5.9662    2.0634   -0.1292 H   0  0  0  0  0  0  0  0  0  0  0  0
   -4.6549    1.4885   -1.1431 H   0  0  0  0  0  0  0  0  0  0  0  0
   -3.9130    3.4289    0.2332 H   0  0  0  0  0  0  0  0  0  0  0  0
   -4.4940    2.6537    1.7310 H   0  0  0  0  0  0  0  0  0  0  0  0
   -2.7448    0.8726    1.4957 H   0  0  0  0  0  0  0  0  0  0  0  0
   -2.0676    2.5149    1.6925 H   0  0  0  0  0  0  0  0  0  0  0  0
   -2.5017    1.4068   -1.1039 H   0  0  0  0  0  0  0  0  0  0  0  0
   -1.4823    2.7433   -0.6356 H   0  0  0  0  0  0  0  0  0  0  0  0
    0.2828    2.0811    1.2808 H   0  0  0  0  0  0  0  0  0  0  0  0
    0.9512    2.3180   -0.3690 H   0  0  0  0  0  0  0  0  0  0  0  0
    4.4465   -0.1207    1.7553 H   0  0  0  0  0  0  0  0  0  0  0  0
    3.9877   -0.6254    0.0813 H   0  0  0  0  0  0  0  0  0  0  0  0
    5.2617    1.3677   -0.8346 H   0  0  0  0  0  0  0  0  0  0  0  0
    5.7979    1.7610    0.8324 H   0  0  0  0  0  0  0  0  0  0  0  0
    7.3794    0.2545    2.0368 H   0  0  0  0  0  0  0  0  0  0  0  0
    9.1885   -1.4188    1.8091 H   0  0  0  0  0  0  0  0  0  0  0  0
    9.4322   -2.6821   -0.3193 H   0  0  0  0  0  0  0  0  0  0  0  0
    6.1144   -0.6642   -1.9810 H   0  0  0  0  0  0  0  0  0  0  0  0
    2.2010   -1.2933    1.4566 H   0  0  0  0  0  0  0  0  0  0  0  0
    1.0877   -0.3168    2.4834 H   0  0  0  0  0  0  0  0  0  0  0  0
   -0.1773   -2.0821    1.4054 H   0  0  0  0  0  0  0  0  0  0  0  0
    0.4745   -1.7092   -0.2081 H   0  0  0  0  0  0  0  0  0  0  0  0
  1  2  1  0
  2  3  1  0
  3  4  1  0
  4  5  1  0
  5  6  1  0
  6  7  2  0
  7  8  1  0
  8  9  2  0
  9 10  1  0
 10 11  2  0
 11 12  1  0
 12 13  1  0
 13 14  1  0
 14 15  1  0
 15 16  1  0
 16 17  1  0
 17 18  1  0
 18 19  1  0
 19 20  2  0
 19 21  1  0
 21 22  1  0
 22 23  1  0
 23 24  2  0
 24 25  1  0
 25 26  2  0
 26 27  1  0
 27 28  2  0
 18 29  1  0
 29 30  1  0
 30 31  1  0
 16 32  1  0
 32 33  2  0
 32  2  1  0
 11  6  1  0
 31 16  1  0
 28 23  1  0
  1 34  1  0
  1 35  1  0
  1 36  1  0
  3 37  1  0
  3 38  1  0
  4 39  1  0
  4 40  1  0
  7 41  1  0
  8 42  1  0
  9 43  1  0
 10 44  1  0
 12 45  1  0
 12 46  1  0
 13 47  1  0
 13 48  1  0
 14 49  1  0
 14 50  1  0
 15 51  1  0
 15 52  1  0
 17 53  1  0
 17 54  1  0
 21 55  1  0
 21 56  1  0
 22 57  1  0
 22 58  1  0
 24 59  1  0
 25 60  1  0
 26 61  1  0
 28 62  1  0
 29 63  1  0
 29 64  1  0
 30 65  1  0
 30 66  1  0
M  END
$$$$
