
     RDKit          3D

 75 78  0  0  0  0  0  0  0  0999 V2000
   -3.6008   -2.9142   -1.7975 C   0  0  0  0  0  0  0  0  0  0  0  0
   -3.0186   -3.5639   -0.5479 C   0  0  0  0  0  0  0  0  0  0  0  0
   -4.0821   -4.5339   -0.0806 C   0  0  0  0  0  0  0  0  0  0  0  0
   -2.9875   -2.4785    0.4971 C   0  0  0  0  0  0  0  0  0  0  0  0
   -2.2160   -1.2088    0.1510 C   0  0  0  0  0  0  0  0  0  0  0  0
   -2.3283   -0.2958    1.2971 C   0  0  0  0  0  0  0  0  0  0  0  0
   -3.2446    0.7929    1.3215 O   0  0  0  0  0  0  0  0  0  0  0  0
   -4.1404    1.1067    0.2724 C   0  0  0  0  0  0  0  0  0  0  0  0
   -5.4745    0.7036    0.4961 C   0  0  0  0  0  0  0  0  0  0  0  0
   -6.5036    0.8783   -0.4543 C   0  0  0  0  0  0  0  0  0  0  0  0
   -6.1827    1.4533   -1.5773 C   0  0  0  0  0  0  0  0  0  0  0  0
   -4.8510    1.9256   -1.8747 C   0  0  0  0  0  0  0  0  0  0  0  0
   -3.8774    1.7116   -0.8842 C   0  0  0  0  0  0  0  0  0  0  0  0
   -2.6240    2.4331   -1.2962 C   0  0  0  0  0  0  0  0  0  0  0  0
   -1.7002    2.8768   -0.2194 C   0  0  0  0  0  0  0  0  0  0  0  0
   -0.3330    3.2369   -0.6590 C   0  0  0  0  0  0  0  0  0  0  0  0
    0.4989    2.2843   -1.4226 C   0  0  0  0  0  0  0  0  0  0  0  0
    0.3439    0.8483   -1.3067 C   0  0  0  0  0  0  0  0  0  0  0  0
    1.1545    0.0956   -0.2704 C   0  0  0  0  0  0  0  0  0  0  0  0
    2.3849   -0.4407   -0.9530 C   0  0  0  0  0  0  0  0  0  0  0  0
    3.6656    0.3191   -0.5897 C   0  0  0  0  0  0  0  0  0  0  0  0
    3.7855    0.3263    0.8311 N   0  0  0  0  0  0  0  0  0  0  0  0
    4.3808    0.1830    1.9522 C   0  0  0  0  0  0  0  0  0  0  0  0
    3.3972    0.1705    2.9244 O   0  0  0  0  0  0  0  0  0  0  0  0
    5.6392    0.0452    2.6980 C   0  0  0  0  0  0  0  0  0  0  0  0
    6.5138   -0.0388    1.2244 C   0  0  0  0  0  0  0  0  0  0  0  0
    7.8095   -0.1921    1.6215 N   0  0  0  0  0  0  0  0  0  0  0  0
    8.8400   -0.6056    0.6246 C   0  0  0  0  0  0  0  0  0  0  0  0
    7.8915   -0.1991    2.8480 C   0  0  0  0  0  0  0  0  0  0  0  0
    6.6761   -0.0684    3.3126 N   0  0  0  0  0  0  0  0  0  0  0  0
    2.6241    1.5815    1.1537 C   0  0  0  0  0  0  0  0  0  0  0  0
    1.3899    0.8626    0.9904 C   0  0  0  0  0  0  0  0  0  0  0  0
    0.3762   -1.1146    0.1069 C   0  0  0  0  0  0  0  0  0  0  0  0
    1.0943   -1.8176    0.9898 O   0  0  0  0  0  0  0  0  0  0  0  0
   -0.8340   -1.6490   -0.1852 N   0  0  0  0  0  0  0  0  0  0  0  0
   -2.8194   -2.4519   -2.4103 H   0  0  0  0  0  0  0  0  0  0  0  0
   -4.2128   -3.6552   -2.3553 H   0  0  0  0  0  0  0  0  0  0  0  0
   -4.2829   -2.1312   -1.4177 H   0  0  0  0  0  0  0  0  0  0  0  0
   -2.0944   -4.1005   -0.6846 H   0  0  0  0  0  0  0  0  0  0  0  0
   -3.9436   -4.6132    1.0321 H   0  0  0  0  0  0  0  0  0  0  0  0
   -5.0864   -4.1066   -0.3246 H   0  0  0  0  0  0  0  0  0  0  0  0
   -3.8977   -5.5309   -0.4947 H   0  0  0  0  0  0  0  0  0  0  0  0
   -4.0677   -2.1541    0.5802 H   0  0  0  0  0  0  0  0  0  0  0  0
   -2.6738   -2.8320    1.4845 H   0  0  0  0  0  0  0  0  0  0  0  0
   -2.6830   -0.7533   -0.7251 H   0  0  0  0  0  0  0  0  0  0  0  0
   -1.2919    0.1156    1.4560 H   0  0  0  0  0  0  0  0  0  0  0  0
   -2.4770   -0.8755    2.2794 H   0  0  0  0  0  0  0  0  0  0  0  0
   -5.8521    0.3177    1.4574 H   0  0  0  0  0  0  0  0  0  0  0  0
   -7.5282    0.6205   -0.2171 H   0  0  0  0  0  0  0  0  0  0  0  0
   -6.9280    1.5271   -2.4439 H   0  0  0  0  0  0  0  0  0  0  0  0
   -4.7149    2.3673   -2.7930 H   0  0  0  0  0  0  0  0  0  0  0  0
   -2.2362    1.9054   -2.1437 H   0  0  0  0  0  0  0  0  0  0  0  0
   -2.9792    3.4274   -1.7688 H   0  0  0  0  0  0  0  0  0  0  0  0
   -2.1145    3.8620    0.2243 H   0  0  0  0  0  0  0  0  0  0  0  0
   -1.6429    2.2775    0.6790 H   0  0  0  0  0  0  0  0  0  0  0  0
   -0.4627    4.2090   -1.2686 H   0  0  0  0  0  0  0  0  0  0  0  0
    0.2225    3.6193    0.2205 H   0  0  0  0  0  0  0  0  0  0  0  0
    0.2919    2.5548   -2.5274 H   0  0  0  0  0  0  0  0  0  0  0  0
    1.5649    2.6676   -1.3578 H   0  0  0  0  0  0  0  0  0  0  0  0
   -0.7013    0.6159   -0.9828 H   0  0  0  0  0  0  0  0  0  0  0  0
    0.4732    0.3014   -2.2911 H   0  0  0  0  0  0  0  0  0  0  0  0
    2.6010   -1.4474   -0.3789 H   0  0  0  0  0  0  0  0  0  0  0  0
    2.2747   -0.6828   -1.9742 H   0  0  0  0  0  0  0  0  0  0  0  0
    4.5163    0.0805   -1.1986 H   0  0  0  0  0  0  0  0  0  0  0  0
    3.3870    1.3775   -0.9100 H   0  0  0  0  0  0  0  0  0  0  0  0
    6.0809    0.0741    0.3558 H   0  0  0  0  0  0  0  0  0  0  0  0
    8.4027   -0.4981   -0.3648 H   0  0  0  0  0  0  0  0  0  0  0  0
    8.9761   -1.7295    0.8215 H   0  0  0  0  0  0  0  0  0  0  0  0
    9.7320   -0.0868    0.8429 H   0  0  0  0  0  0  0  0  0  0  0  0
    8.8133   -0.2559    3.4358 H   0  0  0  0  0  0  0  0  0  0  0  0
    2.9730    2.3212    0.4487 H   0  0  0  0  0  0  0  0  0  0  0  0
    2.9346    1.7581    2.2129 H   0  0  0  0  0  0  0  0  0  0  0  0
    0.5261    1.5600    1.2474 H   0  0  0  0  0  0  0  0  0  0  0  0
    1.3187    0.1343    1.8971 H   0  0  0  0  0  0  0  0  0  0  0  0
   -0.8656   -2.5035   -0.8367 H   0  0  0  0  0  0  0  0  0  0  0  0
  1  2  1  0
  2  3  1  0
  2  4  1  0
  4  5  1  0
  5  6  1  0
  6  7  1  0
  7  8  1  0
  8  9  2  0
  9 10  1  0
 10 11  2  0
 11 12  1  0
 12 13  2  0
 13 14  1  0
 14 15  1  0
 15 16  1  0
 16 17  1  0
 17 18  1  0
 18 19  1  0
 19 20  1  0
 20 21  1  0
 21 22  1  0
 22 23  1  0
 23 24  2  0
 23 25  1  0
 25 26  2  0
 26 27  1  0
 27 28  1  0
 27 29  1  0
 29 30  2  0
 22 31  1  0
 31 32  1  0
 19 33  1  0
 33 34  2  0
 33 35  1  0
 35  5  1  0
 13  8  1  0
 32 19  1  0
 30 25  1  0
  1 36  1  0
  1 37  1  0
  1 38  1  0
  2 39  1  0
  3 40  1  0
  3 41  1  0
  3 42  1  0
  4 43  1  0
  4 44  1  0
  5 45  1  0
  6 46  1  0
  6 47  1  0
  9 48  1  0
 10 49  1  0
 11 50  1  0
 12 51  1  0
 14 52  1  0
 14 53  1  0
 15 54  1  0
 15 55  1  0
 16 56  1  0
 16 57  1  0
 17 58  1  0
 17 59  1  0
 18 60  1  0
 18 61  1  0
 20 62  1  0
 20 63  1  0
 21 64  1  0
 21 65  1  0
 26 66  1  0
 28 67  1  0
 28 68  1  0
 28 69  1  0
 29 70  1  0
 31 71  1  0
 31 72  1  0
 32 73  1  0
 32 74  1  0
 35 75  1  0
M  END
$$$$
