
     RDKit          3D

 70 73  0  0  0  0  0  0  0  0999 V2000
    6.3225    1.5318    1.7168 C   0  0  0  0  0  0  0  0  0  0  0  0
    5.3368    0.8163    0.8923 N   0  0  0  0  0  0  0  0  0  0  0  0
    5.2852    1.3894   -0.4620 C   0  0  0  0  0  0  0  0  0  0  0  0
    4.4822    0.4492   -1.3639 C   0  0  0  0  0  0  0  0  0  0  0  0
    3.2936   -0.0697   -0.6712 N   0  0  0  0  0  0  0  0  0  0  0  0
    2.4729   -1.0501   -1.3470 C   0  0  0  0  0  0  0  0  0  0  0  0
    2.6904   -1.3114   -2.5628 O   0  0  0  0  0  0  0  0  0  0  0  0
    1.4299   -1.8257   -0.6363 C   0  0  0  0  0  0  0  0  0  0  0  0
    1.8213   -2.5675    0.4883 C   0  0  0  0  0  0  0  0  0  0  0  0
    0.9072   -3.3727    1.1620 C   0  0  0  0  0  0  0  0  0  0  0  0
   -0.4077   -3.4673    0.7152 C   0  0  0  0  0  0  0  0  0  0  0  0
   -0.8332   -2.7402   -0.4108 C   0  0  0  0  0  0  0  0  0  0  0  0
    0.0847   -1.9037   -1.0926 C   0  0  0  0  0  0  0  0  0  0  0  0
   -0.4339   -1.0542   -2.2376 C   0  0  0  0  0  0  0  0  0  0  0  0
   -1.1954    0.0989   -1.6959 N   0  0  0  0  0  0  0  0  0  0  0  0
   -0.3412    1.3079   -1.5688 C   0  0  0  0  0  0  0  0  0  0  0  0
   -0.5833    1.9854   -0.2450 C   0  0  0  0  0  0  0  0  0  0  0  0
   -0.7904    3.3745   -0.1798 C   0  0  0  0  0  0  0  0  0  0  0  0
   -0.9663    4.0050    1.0564 C   0  0  0  0  0  0  0  0  0  0  0  0
   -0.9285    3.2569    2.2348 C   0  0  0  0  0  0  0  0  0  0  0  0
   -0.7075    1.8789    2.1813 C   0  0  0  0  0  0  0  0  0  0  0  0
   -0.5281    1.2461    0.9489 C   0  0  0  0  0  0  0  0  0  0  0  0
   -2.4164    0.3453   -2.4963 C   0  0  0  0  0  0  0  0  0  0  0  0
   -3.3178    1.3707   -1.8659 C   0  0  0  0  0  0  0  0  0  0  0  0
   -3.2090    2.5825   -2.1912 O   0  0  0  0  0  0  0  0  0  0  0  0
   -4.3519    0.9785   -0.9574 N   0  0  0  0  0  0  0  0  0  0  0  0
   -4.1087    0.8792    0.4811 C   0  0  0  0  0  0  0  0  0  0  0  0
   -3.5161   -0.4818    0.8590 C   0  0  0  0  0  0  0  0  0  0  0  0
   -4.4869   -1.6372    0.5829 C   0  0  0  0  0  0  0  0  0  0  0  0
   -3.8475   -3.0081    0.8769 C   0  0  0  0  0  0  0  0  0  0  0  0
   -3.1953   -3.6417   -0.3599 C   0  0  0  0  0  0  0  0  0  0  0  0
   -2.1517   -2.8278   -0.8950 O   0  0  0  0  0  0  0  0  0  0  0  0
    2.8406    0.6026    0.5561 C   0  0  0  0  0  0  0  0  0  0  0  0
    4.0053    0.8395    1.5417 C   0  0  0  0  0  0  0  0  0  0  0  0
    7.3393    1.4154    1.2832 H   0  0  0  0  0  0  0  0  0  0  0  0
    6.0798    2.6169    1.7850 H   0  0  0  0  0  0  0  0  0  0  0  0
    6.3484    1.1007    2.7415 H   0  0  0  0  0  0  0  0  0  0  0  0
    4.8158    2.4009   -0.4462 H   0  0  0  0  0  0  0  0  0  0  0  0
    6.3102    1.4904   -0.8849 H   0  0  0  0  0  0  0  0  0  0  0  0
    5.1320   -0.4061   -1.6507 H   0  0  0  0  0  0  0  0  0  0  0  0
    4.1775    0.9893   -2.2866 H   0  0  0  0  0  0  0  0  0  0  0  0
    2.8455   -2.5293    0.8413 H   0  0  0  0  0  0  0  0  0  0  0  0
    1.2251   -3.9373    2.0307 H   0  0  0  0  0  0  0  0  0  0  0  0
   -1.0825   -4.1132    1.2569 H   0  0  0  0  0  0  0  0  0  0  0  0
   -1.0686   -1.7094   -2.8764 H   0  0  0  0  0  0  0  0  0  0  0  0
    0.3644   -0.7221   -2.9327 H   0  0  0  0  0  0  0  0  0  0  0  0
   -0.5073    2.0085   -2.4191 H   0  0  0  0  0  0  0  0  0  0  0  0
    0.7397    1.0589   -1.5968 H   0  0  0  0  0  0  0  0  0  0  0  0
   -0.8121    3.9709   -1.0831 H   0  0  0  0  0  0  0  0  0  0  0  0
   -1.1272    5.0752    1.1001 H   0  0  0  0  0  0  0  0  0  0  0  0
   -1.0612    3.7452    3.1909 H   0  0  0  0  0  0  0  0  0  0  0  0
   -0.6722    1.3017    3.0956 H   0  0  0  0  0  0  0  0  0  0  0  0
   -0.3474    0.1790    0.9267 H   0  0  0  0  0  0  0  0  0  0  0  0
   -3.0082   -0.5953   -2.5700 H   0  0  0  0  0  0  0  0  0  0  0  0
   -2.1506    0.6558   -3.5322 H   0  0  0  0  0  0  0  0  0  0  0  0
   -5.3394    1.1239   -1.2675 H   0  0  0  0  0  0  0  0  0  0  0  0
   -3.4171    1.6889    0.7983 H   0  0  0  0  0  0  0  0  0  0  0  0
   -5.0657    1.0279    1.0297 H   0  0  0  0  0  0  0  0  0  0  0  0
   -2.5751   -0.6359    0.3069 H   0  0  0  0  0  0  0  0  0  0  0  0
   -3.2722   -0.4682    1.9443 H   0  0  0  0  0  0  0  0  0  0  0  0
   -5.3736   -1.5097    1.2425 H   0  0  0  0  0  0  0  0  0  0  0  0
   -4.8513   -1.5995   -0.4659 H   0  0  0  0  0  0  0  0  0  0  0  0
   -4.6518   -3.6988    1.2131 H   0  0  0  0  0  0  0  0  0  0  0  0
   -3.1190   -2.9405    1.7159 H   0  0  0  0  0  0  0  0  0  0  0  0
   -3.9724   -3.7656   -1.1443 H   0  0  0  0  0  0  0  0  0  0  0  0
   -2.8181   -4.6598   -0.1269 H   0  0  0  0  0  0  0  0  0  0  0  0
    2.4014    1.5838    0.2741 H   0  0  0  0  0  0  0  0  0  0  0  0
    2.0501    0.0286    1.0756 H   0  0  0  0  0  0  0  0  0  0  0  0
    3.8252    1.8085    2.0622 H   0  0  0  0  0  0  0  0  0  0  0  0
    3.9830    0.0404    2.3145 H   0  0  0  0  0  0  0  0  0  0  0  0
  1  2  1  0
  2  3  1  0
  3  4  1  0
  4  5  1  0
  5  6  1  0
  6  7  2  0
  6  8  1  0
  8  9  2  0
  9 10  1  0
 10 11  2  0
 11 12  1  0
 12 13  2  0
 13 14  1  0
 14 15  1  0
 15 16  1  0
 16 17  1  0
 17 18  2  0
 18 19  1  0
 19 20  2  0
 20 21  1  0
 21 22  2  0
 15 23  1  0
 23 24  1  0
 24 25  2  0
 24 26  1  0
 26 27  1  0
 27 28  1  0
 28 29  1  0
 29 30  1  0
 30 31  1  0
 31 32  1  0
  5 33  1  0
 33 34  1  0
 34  2  1  0
 13  8  1  0
 22 17  1  0
 32 12  1  0
  1 35  1  0
  1 36  1  0
  1 37  1  0
  3 38  1  0
  3 39  1  0
  4 40  1  0
  4 41  1  0
  9 42  1  0
 10 43  1  0
 11 44  1  0
 14 45  1  0
 14 46  1  0
 16 47  1  0
 16 48  1  0
 18 49  1  0
 19 50  1  0
 20 51  1  0
 21 52  1  0
 22 53  1  0
 23 54  1  0
 23 55  1  0
 26 56  1  0
 27 57  1  0
 27 58  1  0
 28 59  1  0
 28 60  1  0
 29 61  1  0
 29 62  1  0
 30 63  1  0
 30 64  1  0
 31 65  1  0
 31 66  1  0
 33 67  1  0
 33 68  1  0
 34 69  1  0
 34 70  1  0
M  END
$$$$
