
     RDKit          3D

 67 70  0  0  0  0  0  0  0  0999 V2000
   -2.5931   -2.8676   -0.9642 C   0  0  0  0  0  0  0  0  0  0  0  0
   -3.3106   -2.5882    0.3660 C   0  0  0  0  0  0  0  0  0  0  0  0
   -4.6371   -1.8343    0.1203 C   0  0  0  0  0  0  0  0  0  0  0  0
   -4.4076   -0.6074   -0.5815 O   0  0  0  0  0  0  0  0  0  0  0  0
   -5.3373    0.4392   -0.7105 C   0  0  0  0  0  0  0  0  0  0  0  0
   -6.6930    0.2520   -0.3731 C   0  0  0  0  0  0  0  0  0  0  0  0
   -7.6050    1.3028   -0.4888 C   0  0  0  0  0  0  0  0  0  0  0  0
   -7.1819    2.5512   -0.9401 C   0  0  0  0  0  0  0  0  0  0  0  0
   -5.8442    2.7549   -1.2837 C   0  0  0  0  0  0  0  0  0  0  0  0
   -4.9113    1.7072   -1.1871 C   0  0  0  0  0  0  0  0  0  0  0  0
   -3.4661    1.9924   -1.5530 C   0  0  0  0  0  0  0  0  0  0  0  0
   -2.7043    2.7199   -0.4087 C   0  0  0  0  0  0  0  0  0  0  0  0
   -1.3573    2.0514   -0.0594 C   0  0  0  0  0  0  0  0  0  0  0  0
   -1.6041    0.7137    0.6650 C   0  0  0  0  0  0  0  0  0  0  0  0
   -0.4446   -0.3273    0.7542 C   0  0  0  0  0  0  0  0  0  0  0  0
    0.2288   -0.5472   -0.6427 C   0  0  0  0  0  0  0  0  0  0  0  0
    1.5595    0.1985   -0.7917 C   0  0  0  0  0  0  0  0  0  0  0  0
    2.4873   -0.2201    0.2669 N   0  0  0  0  0  0  0  0  0  0  0  0
    3.8970   -0.3275   -0.0224 C   0  0  0  0  0  0  0  0  0  0  0  0
    4.3670    0.2414   -1.0446 O   0  0  0  0  0  0  0  0  0  0  0  0
    4.8309   -1.0711    0.8985 C   0  0  0  0  0  0  0  0  0  0  0  0
    5.9474   -1.6064    0.1823 O   0  0  0  0  0  0  0  0  0  0  0  0
    7.0771   -0.8829   -0.2389 C   0  0  0  0  0  0  0  0  0  0  0  0
    7.2609    0.4865    0.0490 C   0  0  0  0  0  0  0  0  0  0  0  0
    8.4047    1.1548   -0.4046 C   0  0  0  0  0  0  0  0  0  0  0  0
    9.3741    0.4648   -1.1431 C   0  0  0  0  0  0  0  0  0  0  0  0
   10.8094    1.3001   -1.7094 Cl  0  0  0  0  0  0  0  0  0  0  0  0
    9.1982   -0.8940   -1.4297 C   0  0  0  0  0  0  0  0  0  0  0  0
    8.0548   -1.5624   -0.9779 C   0  0  0  0  0  0  0  0  0  0  0  0
    1.9855   -0.4411    1.6335 C   0  0  0  0  0  0  0  0  0  0  0  0
    0.5827    0.1572    1.8233 C   0  0  0  0  0  0  0  0  0  0  0  0
   -1.0472   -1.6696    1.2021 C   0  0  0  0  0  0  0  0  0  0  0  0
   -0.2920   -2.6522    1.4371 O   0  0  0  0  0  0  0  0  0  0  0  0
   -2.4711   -1.8485    1.3269 N   0  0  0  0  0  0  0  0  0  0  0  0
   -1.6936   -3.4956   -0.7940 H   0  0  0  0  0  0  0  0  0  0  0  0
   -3.2671   -3.4257   -1.6481 H   0  0  0  0  0  0  0  0  0  0  0  0
   -2.2940   -1.9207   -1.4570 H   0  0  0  0  0  0  0  0  0  0  0  0
   -3.5624   -3.5697    0.8214 H   0  0  0  0  0  0  0  0  0  0  0  0
   -5.3280   -2.4741   -0.4748 H   0  0  0  0  0  0  0  0  0  0  0  0
   -5.1127   -1.6238    1.1050 H   0  0  0  0  0  0  0  0  0  0  0  0
   -7.0533   -0.7061   -0.0258 H   0  0  0  0  0  0  0  0  0  0  0  0
   -8.6431    1.1467   -0.2268 H   0  0  0  0  0  0  0  0  0  0  0  0
   -7.8908    3.3649   -1.0236 H   0  0  0  0  0  0  0  0  0  0  0  0
   -5.5307    3.7351   -1.6250 H   0  0  0  0  0  0  0  0  0  0  0  0
   -3.4434    2.6377   -2.4585 H   0  0  0  0  0  0  0  0  0  0  0  0
   -2.9581    1.0555   -1.8690 H   0  0  0  0  0  0  0  0  0  0  0  0
   -2.5037    3.7695   -0.7205 H   0  0  0  0  0  0  0  0  0  0  0  0
   -3.3289    2.7792    0.5116 H   0  0  0  0  0  0  0  0  0  0  0  0
   -0.7844    1.9246   -0.9991 H   0  0  0  0  0  0  0  0  0  0  0  0
   -0.7814    2.7290    0.6063 H   0  0  0  0  0  0  0  0  0  0  0  0
   -1.9965    0.9257    1.6846 H   0  0  0  0  0  0  0  0  0  0  0  0
   -2.4070    0.2266    0.1153 H   0  0  0  0  0  0  0  0  0  0  0  0
   -0.4540   -0.2684   -1.4736 H   0  0  0  0  0  0  0  0  0  0  0  0
    0.4567   -1.6250   -0.8064 H   0  0  0  0  0  0  0  0  0  0  0  0
    1.4120    1.2962   -0.7370 H   0  0  0  0  0  0  0  0  0  0  0  0
    1.9757   -0.0418   -1.7941 H   0  0  0  0  0  0  0  0  0  0  0  0
    5.1671   -0.4174    1.7312 H   0  0  0  0  0  0  0  0  0  0  0  0
    4.2875   -1.9282    1.3466 H   0  0  0  0  0  0  0  0  0  0  0  0
    6.5257    1.0449    0.6116 H   0  0  0  0  0  0  0  0  0  0  0  0
    8.5373    2.2069   -0.1826 H   0  0  0  0  0  0  0  0  0  0  0  0
    9.9462   -1.4345   -2.0012 H   0  0  0  0  0  0  0  0  0  0  0  0
    7.9249   -2.6147   -1.2043 H   0  0  0  0  0  0  0  0  0  0  0  0
    1.9717   -1.5294    1.8516 H   0  0  0  0  0  0  0  0  0  0  0  0
    2.6650    0.0480    2.3654 H   0  0  0  0  0  0  0  0  0  0  0  0
    0.6922    1.2626    1.7739 H   0  0  0  0  0  0  0  0  0  0  0  0
    0.2192   -0.0767    2.8489 H   0  0  0  0  0  0  0  0  0  0  0  0
   -2.9055   -1.5416    2.2274 H   0  0  0  0  0  0  0  0  0  0  0  0
  1  2  1  0
  2  3  1  0
  3  4  1  0
  4  5  1  0
  5  6  2  0
  6  7  1  0
  7  8  2  0
  8  9  1  0
  9 10  2  0
 10 11  1  0
 11 12  1  0
 12 13  1  0
 13 14  1  0
 14 15  1  0
 15 16  1  0
 16 17  1  0
 17 18  1  0
 18 19  1  0
 19 20  2  0
 19 21  1  0
 21 22  1  0
 22 23  1  0
 23 24  2  0
 24 25  1  0
 25 26  2  0
 26 27  1  0
 26 28  1  0
 28 29  2  0
 18 30  1  0
 30 31  1  0
 15 32  1  0
 32 33  2  0
 32 34  1  0
 34  2  1  0
 10  5  1  0
 31 15  1  0
 29 23  1  0
  1 35  1  0
  1 36  1  0
  1 37  1  0
  2 38  1  0
  3 39  1  0
  3 40  1  0
  6 41  1  0
  7 42  1  0
  8 43  1  0
  9 44  1  0
 11 45  1  0
 11 46  1  0
 12 47  1  0
 12 48  1  0
 13 49  1  0
 13 50  1  0
 14 51  1  0
 14 52  1  0
 16 53  1  0
 16 54  1  0
 17 55  1  0
 17 56  1  0
 21 57  1  0
 21 58  1  0
 24 59  1  0
 25 60  1  0
 28 61  1  0
 29 62  1  0
 30 63  1  0
 30 64  1  0
 31 65  1  0
 31 66  1  0
 34 67  1  0
M  END
$$$$
