
     RDKit          3D

 63 65  0  0  0  0  0  0  0  0999 V2000
   -3.3421    3.3544    0.9191 C   0  0  0  0  0  0  0  0  0  0  0  0
   -2.1472    3.0531    1.8423 C   0  0  0  0  0  0  0  0  0  0  0  0
   -1.2939    4.3152    2.0364 C   0  0  0  0  0  0  0  0  0  0  0  0
   -1.2715    1.8504    1.3790 C   0  0  0  0  0  0  0  0  0  0  0  0
   -2.0869    0.5460    1.2506 C   0  0  0  0  0  0  0  0  0  0  0  0
   -2.6390    0.4359   -0.0600 O   0  0  0  0  0  0  0  0  0  0  0  0
   -3.5348   -0.5429   -0.5270 C   0  0  0  0  0  0  0  0  0  0  0  0
   -4.2978   -0.1912   -1.6488 C   0  0  0  0  0  0  0  0  0  0  0  0
   -5.2419   -1.0686   -2.1824 C   0  0  0  0  0  0  0  0  0  0  0  0
   -5.4352   -2.3218   -1.6039 C   0  0  0  0  0  0  0  0  0  0  0  0
   -6.6254   -3.4233   -2.2730 Cl  0  0  0  0  0  0  0  0  0  0  0  0
   -4.6717   -2.7040   -0.4992 C   0  0  0  0  0  0  0  0  0  0  0  0
   -3.7070   -1.8379    0.0425 C   0  0  0  0  0  0  0  0  0  0  0  0
   -2.9016   -2.3584    1.1623 C   0  0  0  0  0  0  0  0  0  0  0  0
   -3.4479   -2.4971    2.2889 O   0  0  0  0  0  0  0  0  0  0  0  0
   -1.5385   -2.7766    0.9871 N   0  0  0  0  0  0  0  0  0  0  0  0
   -0.7991   -2.5715   -0.2596 C   0  0  0  0  0  0  0  0  0  0  0  0
    0.6986   -2.8488   -0.0573 C   0  0  0  0  0  0  0  0  0  0  0  0
    1.5533   -2.4321   -1.2667 C   0  0  0  0  0  0  0  0  0  0  0  0
    1.6697   -0.9071   -1.4604 C   0  0  0  0  0  0  0  0  0  0  0  0
    2.2862   -0.2399   -0.2970 N   0  0  0  0  0  0  0  0  0  0  0  0
    3.6509   -0.5257    0.0716 C   0  0  0  0  0  0  0  0  0  0  0  0
    3.9494   -0.6556    1.2909 O   0  0  0  0  0  0  0  0  0  0  0  0
    4.7164   -0.7194   -0.9754 C   0  0  0  0  0  0  0  0  0  0  0  0
    6.0839   -0.2291   -0.4748 C   0  0  0  0  0  0  0  0  0  0  0  0
    6.3548    1.2557   -0.6642 C   0  0  0  0  0  0  0  0  0  0  0  0
    7.0445    0.2364   -1.5587 C   0  0  0  0  0  0  0  0  0  0  0  0
    1.4706    0.6135    0.5859 C   0  0  0  0  0  0  0  0  0  0  0  0
    0.7769    1.7058   -0.1865 C   0  0  0  0  0  0  0  0  0  0  0  0
    1.3984    2.2708   -1.1266 O   0  0  0  0  0  0  0  0  0  0  0  0
   -0.5557    2.1483    0.1259 N   0  0  0  0  0  0  0  0  0  0  0  0
   -3.9406    4.1900    1.3409 H   0  0  0  0  0  0  0  0  0  0  0  0
   -3.0131    3.6489   -0.0978 H   0  0  0  0  0  0  0  0  0  0  0  0
   -4.0156    2.4762    0.8437 H   0  0  0  0  0  0  0  0  0  0  0  0
   -2.5663    2.7943    2.8407 H   0  0  0  0  0  0  0  0  0  0  0  0
   -0.4487    4.1063    2.7262 H   0  0  0  0  0  0  0  0  0  0  0  0
   -0.8864    4.6722    1.0667 H   0  0  0  0  0  0  0  0  0  0  0  0
   -1.9078    5.1270    2.4819 H   0  0  0  0  0  0  0  0  0  0  0  0
   -0.5239    1.6923    2.1886 H   0  0  0  0  0  0  0  0  0  0  0  0
   -1.4070   -0.2961    1.4477 H   0  0  0  0  0  0  0  0  0  0  0  0
   -2.8983    0.5106    2.0096 H   0  0  0  0  0  0  0  0  0  0  0  0
   -4.1671    0.7835   -2.1024 H   0  0  0  0  0  0  0  0  0  0  0  0
   -5.8259   -0.7700   -3.0437 H   0  0  0  0  0  0  0  0  0  0  0  0
   -4.8179   -3.6896   -0.0723 H   0  0  0  0  0  0  0  0  0  0  0  0
   -1.0467   -3.1824    1.8160 H   0  0  0  0  0  0  0  0  0  0  0  0
   -0.9397   -1.5269   -0.5904 H   0  0  0  0  0  0  0  0  0  0  0  0
   -1.2057   -3.2444   -1.0449 H   0  0  0  0  0  0  0  0  0  0  0  0
    1.0670   -2.3374    0.8566 H   0  0  0  0  0  0  0  0  0  0  0  0
    0.8309   -3.9403    0.1071 H   0  0  0  0  0  0  0  0  0  0  0  0
    2.5705   -2.8598   -1.1430 H   0  0  0  0  0  0  0  0  0  0  0  0
    1.1252   -2.8810   -2.1892 H   0  0  0  0  0  0  0  0  0  0  0  0
    0.6688   -0.4825   -1.6760 H   0  0  0  0  0  0  0  0  0  0  0  0
    2.2700   -0.7050   -2.3708 H   0  0  0  0  0  0  0  0  0  0  0  0
    4.7953   -1.8003   -1.2132 H   0  0  0  0  0  0  0  0  0  0  0  0
    4.4265   -0.1829   -1.9039 H   0  0  0  0  0  0  0  0  0  0  0  0
    6.5638   -0.7017    0.4091 H   0  0  0  0  0  0  0  0  0  0  0  0
    7.0180    1.7025    0.1063 H   0  0  0  0  0  0  0  0  0  0  0  0
    5.5551    1.8377   -1.1712 H   0  0  0  0  0  0  0  0  0  0  0  0
    8.1183    0.0850   -1.3193 H   0  0  0  0  0  0  0  0  0  0  0  0
    6.6608    0.2190   -2.6013 H   0  0  0  0  0  0  0  0  0  0  0  0
    0.7453   -0.0247    1.1160 H   0  0  0  0  0  0  0  0  0  0  0  0
    2.1037    1.1035    1.3567 H   0  0  0  0  0  0  0  0  0  0  0  0
   -1.0251    2.7418   -0.5930 H   0  0  0  0  0  0  0  0  0  0  0  0
  1  2  1  0
  2  3  1  0
  2  4  1  0
  4  5  1  0
  5  6  1  0
  6  7  1  0
  7  8  2  0
  8  9  1  0
  9 10  2  0
 10 11  1  0
 10 12  1  0
 12 13  2  0
 13 14  1  0
 14 15  2  0
 14 16  1  0
 16 17  1  0
 17 18  1  0
 18 19  1  0
 19 20  1  0
 20 21  1  0
 21 22  1  0
 22 23  2  0
 22 24  1  0
 24 25  1  0
 25 26  1  0
 26 27  1  0
 21 28  1  0
 28 29  1  0
 29 30  2  0
 29 31  1  0
 31  4  1  0
 13  7  1  0
 27 25  1  0
  1 32  1  0
  1 33  1  0
  1 34  1  0
  2 35  1  0
  3 36  1  0
  3 37  1  0
  3 38  1  0
  4 39  1  0
  5 40  1  0
  5 41  1  0
  8 42  1  0
  9 43  1  0
 12 44  1  0
 16 45  1  0
 17 46  1  0
 17 47  1  0
 18 48  1  0
 18 49  1  0
 19 50  1  0
 19 51  1  0
 20 52  1  0
 20 53  1  0
 24 54  1  0
 24 55  1  0
 25 56  1  0
 26 57  1  0
 26 58  1  0
 27 59  1  0
 27 60  1  0
 28 61  1  0
 28 62  1  0
 31 63  1  0
M  END
$$$$
