
     RDKit          3D

 56 58  0  0  0  0  0  0  0  0999 V2000
   -4.2630   -2.8461   -0.9473 O   0  0  0  0  0  0  0  0  0  0  0  0
   -3.7424   -1.7155   -1.1456 C   0  0  0  0  0  0  0  0  0  0  0  0
   -2.4678   -1.6386   -1.8044 N   0  0  0  0  0  0  0  0  0  0  0  0
   -2.1579   -0.5707   -2.7574 C   0  0  0  0  0  0  0  0  0  0  0  0
   -0.6459   -0.4549   -3.0118 C   0  0  0  0  0  0  0  0  0  0  0  0
    0.1240    0.2163   -1.8587 C   0  0  0  0  0  0  0  0  0  0  0  0
    0.5919   -0.7867   -0.7876 C   0  0  0  0  0  0  0  0  0  0  0  0
    1.2208   -0.1148    0.3630 N   0  0  0  0  0  0  0  0  0  0  0  0
    2.1572    0.9612    0.1708 C   0  0  0  0  0  0  0  0  0  0  0  0
    1.9837    2.0543    0.7741 O   0  0  0  0  0  0  0  0  0  0  0  0
    3.3475    0.7993   -0.7282 C   0  0  0  0  0  0  0  0  0  0  0  0
    4.6187    0.8690    0.0742 C   0  0  0  0  0  0  0  0  0  0  0  0
    5.3065    2.0876    0.2107 C   0  0  0  0  0  0  0  0  0  0  0  0
    6.4706    2.1572    0.9829 C   0  0  0  0  0  0  0  0  0  0  0  0
    6.9505    1.0151    1.6304 C   0  0  0  0  0  0  0  0  0  0  0  0
    6.2650   -0.1981    1.5094 C   0  0  0  0  0  0  0  0  0  0  0  0
    5.1001   -0.2724    0.7387 C   0  0  0  0  0  0  0  0  0  0  0  0
    1.1882   -0.7706    1.6792 C   0  0  0  0  0  0  0  0  0  0  0  0
    0.3010   -0.0180    2.6843 C   0  0  0  0  0  0  0  0  0  0  0  0
   -1.2020   -0.1412    2.3693 C   0  0  0  0  0  0  0  0  0  0  0  0
   -1.7117    0.9433    1.4040 C   0  0  0  0  0  0  0  0  0  0  0  0
   -2.4357    0.3248    0.3387 O   0  0  0  0  0  0  0  0  0  0  0  0
   -3.7956    0.5051    0.0340 C   0  0  0  0  0  0  0  0  0  0  0  0
   -4.5086    1.6576    0.4194 C   0  0  0  0  0  0  0  0  0  0  0  0
   -5.8712    1.7743    0.1318 C   0  0  0  0  0  0  0  0  0  0  0  0
   -6.5373    0.7516   -0.5444 C   0  0  0  0  0  0  0  0  0  0  0  0
   -8.2502    0.9008   -0.8929 Cl  0  0  0  0  0  0  0  0  0  0  0  0
   -5.8357   -0.3835   -0.9552 C   0  0  0  0  0  0  0  0  0  0  0  0
   -4.4613   -0.5041   -0.6932 C   0  0  0  0  0  0  0  0  0  0  0  0
   -1.9327   -2.5322   -1.8951 H   0  0  0  0  0  0  0  0  0  0  0  0
   -2.5560    0.4062   -2.4113 H   0  0  0  0  0  0  0  0  0  0  0  0
   -2.6600   -0.8069   -3.7200 H   0  0  0  0  0  0  0  0  0  0  0  0
   -0.2122   -1.4507   -3.2533 H   0  0  0  0  0  0  0  0  0  0  0  0
   -0.5137    0.1771   -3.9182 H   0  0  0  0  0  0  0  0  0  0  0  0
    1.0194    0.7051   -2.2976 H   0  0  0  0  0  0  0  0  0  0  0  0
   -0.4888    1.0189   -1.3972 H   0  0  0  0  0  0  0  0  0  0  0  0
    1.3124   -1.5045   -1.2339 H   0  0  0  0  0  0  0  0  0  0  0  0
   -0.2834   -1.3680   -0.4337 H   0  0  0  0  0  0  0  0  0  0  0  0
    3.3301    1.5979   -1.5020 H   0  0  0  0  0  0  0  0  0  0  0  0
    3.3033   -0.1727   -1.2634 H   0  0  0  0  0  0  0  0  0  0  0  0
    4.9408    2.9820   -0.2788 H   0  0  0  0  0  0  0  0  0  0  0  0
    6.9986    3.0971    1.0835 H   0  0  0  0  0  0  0  0  0  0  0  0
    7.8508    1.0711    2.2297 H   0  0  0  0  0  0  0  0  0  0  0  0
    6.6319   -1.0809    2.0192 H   0  0  0  0  0  0  0  0  0  0  0  0
    4.5714   -1.2152    0.6614 H   0  0  0  0  0  0  0  0  0  0  0  0
    0.8331   -1.8217    1.5884 H   0  0  0  0  0  0  0  0  0  0  0  0
    2.2233   -0.8322    2.0874 H   0  0  0  0  0  0  0  0  0  0  0  0
    0.4774   -0.4746    3.6842 H   0  0  0  0  0  0  0  0  0  0  0  0
    0.6064    1.0471    2.7670 H   0  0  0  0  0  0  0  0  0  0  0  0
   -1.7698   -0.0524    3.3229 H   0  0  0  0  0  0  0  0  0  0  0  0
   -1.4255   -1.1577    1.9741 H   0  0  0  0  0  0  0  0  0  0  0  0
   -0.8750    1.5244    0.9626 H   0  0  0  0  0  0  0  0  0  0  0  0
   -2.3321    1.6602    1.9787 H   0  0  0  0  0  0  0  0  0  0  0  0
   -4.0232    2.4833    0.9177 H   0  0  0  0  0  0  0  0  0  0  0  0
   -6.4082    2.6634    0.4345 H   0  0  0  0  0  0  0  0  0  0  0  0
   -6.3580   -1.1643   -1.4950 H   0  0  0  0  0  0  0  0  0  0  0  0
  1  2  2  0
  2  3  1  0
  3  4  1  0
  4  5  1  0
  5  6  1  0
  6  7  1  0
  7  8  1  0
  8  9  1  0
  9 10  2  0
  9 11  1  0
 11 12  1  0
 12 13  2  0
 13 14  1  0
 14 15  2  0
 15 16  1  0
 16 17  2  0
  8 18  1  0
 18 19  1  0
 19 20  1  0
 20 21  1  0
 21 22  1  0
 22 23  1  0
 23 24  2  0
 24 25  1  0
 25 26  2  0
 26 27  1  0
 26 28  1  0
 28 29  2  0
 29  2  1  0
 17 12  1  0
 29 23  1  0
  3 30  1  0
  4 31  1  0
  4 32  1  0
  5 33  1  0
  5 34  1  0
  6 35  1  0
  6 36  1  0
  7 37  1  0
  7 38  1  0
 11 39  1  0
 11 40  1  0
 13 41  1  0
 14 42  1  0
 15 43  1  0
 16 44  1  0
 17 45  1  0
 18 46  1  0
 18 47  1  0
 19 48  1  0
 19 49  1  0
 20 50  1  0
 20 51  1  0
 21 52  1  0
 21 53  1  0
 24 54  1  0
 25 55  1  0
 28 56  1  0
M  END
$$$$
