
     RDKit          3D

 66 69  0  0  0  0  0  0  0  0999 V2000
    0.6216    2.8083    2.4843 C   0  0  0  0  0  0  0  0  0  0  0  0
   -0.8194    2.4138    2.1773 C   0  0  0  0  0  0  0  0  0  0  0  0
   -0.8837    1.6189    0.9421 N   0  0  0  0  0  0  0  0  0  0  0  0
   -1.6156    2.1717   -0.2107 C   0  0  0  0  0  0  0  0  0  0  0  0
   -3.1155    1.9042   -0.0980 C   0  0  0  0  0  0  0  0  0  0  0  0
   -3.3323    0.5042    0.0351 O   0  0  0  0  0  0  0  0  0  0  0  0
   -4.5743   -0.1427   -0.0465 C   0  0  0  0  0  0  0  0  0  0  0  0
   -5.7661    0.5508   -0.3336 C   0  0  0  0  0  0  0  0  0  0  0  0
   -6.9732   -0.1430   -0.4501 C   0  0  0  0  0  0  0  0  0  0  0  0
   -7.0045   -1.5292   -0.2827 C   0  0  0  0  0  0  0  0  0  0  0  0
   -5.8312   -2.2252    0.0181 C   0  0  0  0  0  0  0  0  0  0  0  0
   -4.6158   -1.5364    0.1570 C   0  0  0  0  0  0  0  0  0  0  0  0
   -3.3547   -2.2867    0.5034 C   0  0  0  0  0  0  0  0  0  0  0  0
   -2.5588   -2.6854   -0.7560 C   0  0  0  0  0  0  0  0  0  0  0  0
   -1.0368   -2.4968   -0.5775 C   0  0  0  0  0  0  0  0  0  0  0  0
   -0.5186   -1.1337   -1.1141 C   0  0  0  0  0  0  0  0  0  0  0  0
    0.4529   -0.3667   -0.1510 C   0  0  0  0  0  0  0  0  0  0  0  0
    1.2514    0.7493   -0.9058 C   0  0  0  0  0  0  0  0  0  0  0  0
    2.5992    0.3080   -1.2734 N   0  0  0  0  0  0  0  0  0  0  0  0
    3.5836    1.2943   -1.6448 C   0  0  0  0  0  0  0  0  0  0  0  0
    3.2066    2.4293   -2.0479 O   0  0  0  0  0  0  0  0  0  0  0  0
    5.0586    1.0419   -1.4837 C   0  0  0  0  0  0  0  0  0  0  0  0
    5.3883    0.7435   -0.0441 C   0  0  0  0  0  0  0  0  0  0  0  0
    5.8129   -0.5346    0.3514 C   0  0  0  0  0  0  0  0  0  0  0  0
    6.0968   -0.7916    1.6948 C   0  0  0  0  0  0  0  0  0  0  0  0
    5.9560    0.2337    2.6331 C   0  0  0  0  0  0  0  0  0  0  0  0
    5.5430    1.4672    2.2373 N   0  0  0  0  0  0  0  0  0  0  0  0
    5.2591    1.7423    0.9352 C   0  0  0  0  0  0  0  0  0  0  0  0
    2.7975   -1.1121   -1.5522 C   0  0  0  0  0  0  0  0  0  0  0  0
    2.2268   -1.9603   -0.4085 C   0  0  0  0  0  0  0  0  0  0  0  0
    1.3795   -1.2490    0.4843 O   0  0  0  0  0  0  0  0  0  0  0  0
   -0.3851    0.2566    0.9701 C   0  0  0  0  0  0  0  0  0  0  0  0
   -0.6076   -0.4408    1.9991 O   0  0  0  0  0  0  0  0  0  0  0  0
    1.2462    1.9035    2.6429 H   0  0  0  0  0  0  0  0  0  0  0  0
    0.6517    3.4279    3.4054 H   0  0  0  0  0  0  0  0  0  0  0  0
    1.0413    3.3980    1.6418 H   0  0  0  0  0  0  0  0  0  0  0  0
   -1.2406    1.8369    3.0272 H   0  0  0  0  0  0  0  0  0  0  0  0
   -1.4247    3.3413    2.0835 H   0  0  0  0  0  0  0  0  0  0  0  0
   -1.4457    3.2687   -0.2722 H   0  0  0  0  0  0  0  0  0  0  0  0
   -1.2519    1.7540   -1.1651 H   0  0  0  0  0  0  0  0  0  0  0  0
   -3.6102    2.2850   -1.0180 H   0  0  0  0  0  0  0  0  0  0  0  0
   -3.5304    2.4306    0.7888 H   0  0  0  0  0  0  0  0  0  0  0  0
   -5.7716    1.6234   -0.4718 H   0  0  0  0  0  0  0  0  0  0  0  0
   -7.8852    0.3954   -0.6770 H   0  0  0  0  0  0  0  0  0  0  0  0
   -7.9398   -2.0646   -0.3815 H   0  0  0  0  0  0  0  0  0  0  0  0
   -5.8717   -3.2988    0.1513 H   0  0  0  0  0  0  0  0  0  0  0  0
   -3.6041   -3.1997    1.0869 H   0  0  0  0  0  0  0  0  0  0  0  0
   -2.7440   -1.6596    1.1853 H   0  0  0  0  0  0  0  0  0  0  0  0
   -2.7597   -3.7598   -0.9577 H   0  0  0  0  0  0  0  0  0  0  0  0
   -2.9108   -2.1386   -1.6580 H   0  0  0  0  0  0  0  0  0  0  0  0
   -0.7527   -2.6616    0.4848 H   0  0  0  0  0  0  0  0  0  0  0  0
   -0.5338   -3.3040   -1.1539 H   0  0  0  0  0  0  0  0  0  0  0  0
   -0.0149   -1.3205   -2.0857 H   0  0  0  0  0  0  0  0  0  0  0  0
   -1.3722   -0.4774   -1.3713 H   0  0  0  0  0  0  0  0  0  0  0  0
    1.3602    1.6478   -0.2603 H   0  0  0  0  0  0  0  0  0  0  0  0
    0.7261    1.0617   -1.8326 H   0  0  0  0  0  0  0  0  0  0  0  0
    5.3809    0.2198   -2.1559 H   0  0  0  0  0  0  0  0  0  0  0  0
    5.6294    1.9435   -1.7999 H   0  0  0  0  0  0  0  0  0  0  0  0
    5.9270   -1.3297   -0.3751 H   0  0  0  0  0  0  0  0  0  0  0  0
    6.4229   -1.7768    2.0056 H   0  0  0  0  0  0  0  0  0  0  0  0
    6.1732    0.0487    3.6770 H   0  0  0  0  0  0  0  0  0  0  0  0
    4.9285    2.7366    0.6617 H   0  0  0  0  0  0  0  0  0  0  0  0
    3.8659   -1.3650   -1.6918 H   0  0  0  0  0  0  0  0  0  0  0  0
    2.2830   -1.3661   -2.5045 H   0  0  0  0  0  0  0  0  0  0  0  0
    3.0771   -2.3518    0.1903 H   0  0  0  0  0  0  0  0  0  0  0  0
    1.7098   -2.8527   -0.8138 H   0  0  0  0  0  0  0  0  0  0  0  0
  1  2  1  0
  2  3  1  0
  3  4  1  0
  4  5  1  0
  5  6  1  0
  6  7  1  0
  7  8  2  0
  8  9  1  0
  9 10  2  0
 10 11  1  0
 11 12  2  0
 12 13  1  0
 13 14  1  0
 14 15  1  0
 15 16  1  0
 16 17  1  0
 17 18  1  0
 18 19  1  0
 19 20  1  0
 20 21  2  0
 20 22  1  0
 22 23  1  0
 23 24  2  0
 24 25  1  0
 25 26  2  0
 26 27  1  0
 27 28  2  0
 19 29  1  0
 29 30  1  0
 30 31  1  0
 17 32  1  0
 32 33  2  0
 32  3  1  0
 12  7  1  0
 31 17  1  0
 28 23  1  0
  1 34  1  0
  1 35  1  0
  1 36  1  0
  2 37  1  0
  2 38  1  0
  4 39  1  0
  4 40  1  0
  5 41  1  0
  5 42  1  0
  8 43  1  0
  9 44  1  0
 10 45  1  0
 11 46  1  0
 13 47  1  0
 13 48  1  0
 14 49  1  0
 14 50  1  0
 15 51  1  0
 15 52  1  0
 16 53  1  0
 16 54  1  0
 18 55  1  0
 18 56  1  0
 22 57  1  0
 22 58  1  0
 24 59  1  0
 25 60  1  0
 26 61  1  0
 28 62  1  0
 29 63  1  0
 29 64  1  0
 30 65  1  0
 30 66  1  0
M  END
$$$$
