
     RDKit          3D

 77 80  0  0  0  0  0  0  0  0999 V2000
    9.3702   -2.3709    0.5134 C   0  0  0  0  0  0  0  0  0  0  0  0
    8.3369   -2.2708   -0.4543 O   0  0  0  0  0  0  0  0  0  0  0  0
    7.4548   -1.1795   -0.5547 C   0  0  0  0  0  0  0  0  0  0  0  0
    7.5394   -0.0505    0.2879 C   0  0  0  0  0  0  0  0  0  0  0  0
    6.6309    1.0007    0.1488 C   0  0  0  0  0  0  0  0  0  0  0  0
    5.6226    0.9516   -0.8373 C   0  0  0  0  0  0  0  0  0  0  0  0
    4.6854    1.9864   -1.0039 O   0  0  0  0  0  0  0  0  0  0  0  0
    4.5968    3.1259   -0.1434 C   0  0  0  0  0  0  0  0  0  0  0  0
    3.4169    4.0103   -0.5554 C   0  0  0  0  0  0  0  0  0  0  0  0
    2.1963    3.2215   -0.7014 N   0  0  0  0  0  0  0  0  0  0  0  0
    1.5280    2.6175    0.4214 C   0  0  0  0  0  0  0  0  0  0  0  0
    1.9450    2.8154    1.5968 O   0  0  0  0  0  0  0  0  0  0  0  0
    0.2854    1.7958    0.1946 C   0  0  0  0  0  0  0  0  0  0  0  0
   -0.9537    2.7132    0.1580 C   0  0  0  0  0  0  0  0  0  0  0  0
   -2.2226    1.9441   -0.1332 C   0  0  0  0  0  0  0  0  0  0  0  0
   -2.1746    0.9325   -0.8806 O   0  0  0  0  0  0  0  0  0  0  0  0
   -3.4749    2.3974    0.4111 N   0  0  0  0  0  0  0  0  0  0  0  0
   -4.6353    1.5263    0.6360 C   0  0  0  0  0  0  0  0  0  0  0  0
   -5.4417    1.2932   -0.6801 C   0  0  0  0  0  0  0  0  0  0  0  0
   -4.8627    0.2538   -1.6619 C   0  0  0  0  0  0  0  0  0  0  0  0
   -5.6721    2.5188   -1.3352 O   0  0  0  0  0  0  0  0  0  0  0  0
   -4.2019    0.3115    1.4649 C   0  0  0  0  0  0  0  0  0  0  0  0
   -3.3011    0.5026    2.3345 O   0  0  0  0  0  0  0  0  0  0  0  0
   -4.8024   -1.0001    1.3767 N   0  0  0  0  0  0  0  0  0  0  0  0
   -6.2362   -1.2456    1.2638 C   0  0  0  0  0  0  0  0  0  0  0  0
   -6.4570   -2.7101    1.6290 C   0  0  0  0  0  0  0  0  0  0  0  0
   -5.1544   -3.2017    2.2491 C   0  0  0  0  0  0  0  0  0  0  0  0
   -4.0800   -2.1893    1.8387 C   0  0  0  0  0  0  0  0  0  0  0  0
   -3.1698   -2.7039    0.7125 C   0  0  0  0  0  0  0  0  0  0  0  0
   -2.0203   -1.8621    0.6189 O   0  0  0  0  0  0  0  0  0  0  0  0
   -1.0339   -1.9387   -0.3833 C   0  0  0  0  0  0  0  0  0  0  0  0
   -1.2536   -2.6420   -1.5914 C   0  0  0  0  0  0  0  0  0  0  0  0
   -0.2525   -2.6905   -2.5612 C   0  0  0  0  0  0  0  0  0  0  0  0
    0.9795   -2.0459   -2.3409 C   0  0  0  0  0  0  0  0  0  0  0  0
    1.2106   -1.3603   -1.1452 C   0  0  0  0  0  0  0  0  0  0  0  0
    0.2066   -1.2895   -0.1729 C   0  0  0  0  0  0  0  0  0  0  0  0
    0.4795   -0.5894    1.0905 C   0  0  0  0  0  0  0  0  0  0  0  0
    0.9506   -1.2464    2.0620 O   0  0  0  0  0  0  0  0  0  0  0  0
    0.1544    0.7989    1.2618 N   0  0  0  0  0  0  0  0  0  0  0  0
    5.5478   -0.1648   -1.6776 C   0  0  0  0  0  0  0  0  0  0  0  0
    6.4503   -1.2271   -1.5307 C   0  0  0  0  0  0  0  0  0  0  0  0
    8.9467   -2.3179    1.5414 H   0  0  0  0  0  0  0  0  0  0  0  0
   10.1244   -1.5654    0.3638 H   0  0  0  0  0  0  0  0  0  0  0  0
    9.8679   -3.3581    0.3832 H   0  0  0  0  0  0  0  0  0  0  0  0
    8.2946    0.0275    1.0558 H   0  0  0  0  0  0  0  0  0  0  0  0
    6.7251    1.8478    0.8109 H   0  0  0  0  0  0  0  0  0  0  0  0
    4.4678    2.7909    0.9096 H   0  0  0  0  0  0  0  0  0  0  0  0
    5.5291    3.7251   -0.2188 H   0  0  0  0  0  0  0  0  0  0  0  0
    3.2624    4.8267    0.1903 H   0  0  0  0  0  0  0  0  0  0  0  0
    3.6562    4.4821   -1.5344 H   0  0  0  0  0  0  0  0  0  0  0  0
    1.7778    3.1300   -1.6551 H   0  0  0  0  0  0  0  0  0  0  0  0
    0.3678    1.2945   -0.7943 H   0  0  0  0  0  0  0  0  0  0  0  0
   -1.0479    3.2321    1.1433 H   0  0  0  0  0  0  0  0  0  0  0  0
   -0.8286    3.4854   -0.6243 H   0  0  0  0  0  0  0  0  0  0  0  0
   -3.4653    3.3164    0.9141 H   0  0  0  0  0  0  0  0  0  0  0  0
   -5.3347    2.0968    1.2960 H   0  0  0  0  0  0  0  0  0  0  0  0
   -6.4471    0.9341   -0.3822 H   0  0  0  0  0  0  0  0  0  0  0  0
   -5.6877   -0.1633   -2.2776 H   0  0  0  0  0  0  0  0  0  0  0  0
   -4.1385    0.7190   -2.3601 H   0  0  0  0  0  0  0  0  0  0  0  0
   -4.3860   -0.5941   -1.1381 H   0  0  0  0  0  0  0  0  0  0  0  0
   -4.8029    2.8420   -1.6966 H   0  0  0  0  0  0  0  0  0  0  0  0
   -6.5768   -1.0985    0.2234 H   0  0  0  0  0  0  0  0  0  0  0  0
   -6.7936   -0.5869    1.9614 H   0  0  0  0  0  0  0  0  0  0  0  0
   -6.6632   -3.2973    0.7016 H   0  0  0  0  0  0  0  0  0  0  0  0
   -7.3057   -2.8383    2.3378 H   0  0  0  0  0  0  0  0  0  0  0  0
   -5.2526   -3.1927    3.3600 H   0  0  0  0  0  0  0  0  0  0  0  0
   -4.9187   -4.2393    1.9263 H   0  0  0  0  0  0  0  0  0  0  0  0
   -3.4621   -1.9492    2.7409 H   0  0  0  0  0  0  0  0  0  0  0  0
   -2.8399   -3.7429    0.9302 H   0  0  0  0  0  0  0  0  0  0  0  0
   -3.7392   -2.7022   -0.2385 H   0  0  0  0  0  0  0  0  0  0  0  0
   -2.1883   -3.1381   -1.8046 H   0  0  0  0  0  0  0  0  0  0  0  0
   -0.4221   -3.2168   -3.4947 H   0  0  0  0  0  0  0  0  0  0  0  0
    1.7531   -2.0703   -3.1102 H   0  0  0  0  0  0  0  0  0  0  0  0
    2.1713   -0.8809   -0.9812 H   0  0  0  0  0  0  0  0  0  0  0  0
    0.0084    1.1476    2.2378 H   0  0  0  0  0  0  0  0  0  0  0  0
    4.7869   -0.2065   -2.4518 H   0  0  0  0  0  0  0  0  0  0  0  0
    6.3737   -2.0804   -2.1908 H   0  0  0  0  0  0  0  0  0  0  0  0
  1  2  1  0
  2  3  1  0
  3  4  2  0
  4  5  1  0
  5  6  2  0
  6  7  1  0
  7  8  1  0
  8  9  1  0
  9 10  1  0
 10 11  1  0
 11 12  2  0
 11 13  1  0
 13 14  1  0
 14 15  1  0
 15 16  2  0
 15 17  1  0
 17 18  1  0
 18 19  1  0
 19 20  1  0
 19 21  1  0
 18 22  1  0
 22 23  2  0
 22 24  1  0
 24 25  1  0
 25 26  1  0
 26 27  1  0
 27 28  1  0
 28 29  1  0
 29 30  1  0
 30 31  1  0
 31 32  2  0
 32 33  1  0
 33 34  2  0
 34 35  1  0
 35 36  2  0
 36 37  1  0
 37 38  2  0
 37 39  1  0
  6 40  1  0
 40 41  2  0
 41  3  1  0
 39 13  1  0
 28 24  1  0
 36 31  1  0
  1 42  1  0
  1 43  1  0
  1 44  1  0
  4 45  1  0
  5 46  1  0
  8 47  1  0
  8 48  1  0
  9 49  1  0
  9 50  1  0
 10 51  1  0
 13 52  1  0
 14 53  1  0
 14 54  1  0
 17 55  1  0
 18 56  1  0
 19 57  1  0
 20 58  1  0
 20 59  1  0
 20 60  1  0
 21 61  1  0
 25 62  1  0
 25 63  1  0
 26 64  1  0
 26 65  1  0
 27 66  1  0
 27 67  1  0
 28 68  1  0
 29 69  1  0
 29 70  1  0
 32 71  1  0
 33 72  1  0
 34 73  1  0
 35 74  1  0
 39 75  1  0
 40 76  1  0
 41 77  1  0
M  END
$$$$
