
     RDKit          3D

 69 71  0  0  0  0  0  0  0  0999 V2000
    6.6043   -2.6194   -1.0795 C   0  0  0  0  0  0  0  0  0  0  0  0
    5.6488   -2.2638    0.0589 C   0  0  0  0  0  0  0  0  0  0  0  0
    5.1439   -0.8805   -0.0920 N   0  0  0  0  0  0  0  0  0  0  0  0
    4.7639   -0.3291    1.2298 C   0  0  0  0  0  0  0  0  0  0  0  0
    4.3075    1.1284    1.0970 C   0  0  0  0  0  0  0  0  0  0  0  0
    3.2697    1.2239    0.0725 N   0  0  0  0  0  0  0  0  0  0  0  0
    2.0586    1.9559    0.3412 C   0  0  0  0  0  0  0  0  0  0  0  0
    2.1279    3.0860    0.9109 O   0  0  0  0  0  0  0  0  0  0  0  0
    0.7130    1.2948    0.1573 C   0  0  0  0  0  0  0  0  0  0  0  0
    0.3693    0.4439    1.4114 C   0  0  0  0  0  0  0  0  0  0  0  0
    0.0454   -0.9758    1.0460 C   0  0  0  0  0  0  0  0  0  0  0  0
    0.8537   -1.9043    1.3149 O   0  0  0  0  0  0  0  0  0  0  0  0
   -1.1700   -1.2570    0.3397 N   0  0  0  0  0  0  0  0  0  0  0  0
   -1.9084   -2.5237    0.4480 C   0  0  0  0  0  0  0  0  0  0  0  0
   -2.0367   -3.0439    1.9151 C   0  0  0  0  0  0  0  0  0  0  0  0
   -2.6878   -2.0487    2.8879 C   0  0  0  0  0  0  0  0  0  0  0  0
   -2.7670   -4.3965    1.9722 C   0  0  0  0  0  0  0  0  0  0  0  0
   -3.2492   -2.4410   -0.2694 C   0  0  0  0  0  0  0  0  0  0  0  0
   -3.5019   -3.3154   -1.1459 O   0  0  0  0  0  0  0  0  0  0  0  0
   -4.2882   -1.5021    0.0847 N   0  0  0  0  0  0  0  0  0  0  0  0
   -4.0748   -0.1097    0.4815 C   0  0  0  0  0  0  0  0  0  0  0  0
   -4.0293    0.7970   -0.7587 C   0  0  0  0  0  0  0  0  0  0  0  0
   -3.1126    1.8743   -0.5411 O   0  0  0  0  0  0  0  0  0  0  0  0
   -3.0543    3.0269   -1.3413 C   0  0  0  0  0  0  0  0  0  0  0  0
   -4.2320    3.6914   -1.7315 C   0  0  0  0  0  0  0  0  0  0  0  0
   -4.1709    4.8203   -2.5514 C   0  0  0  0  0  0  0  0  0  0  0  0
   -2.9388    5.2974   -2.9962 C   0  0  0  0  0  0  0  0  0  0  0  0
   -1.7597    4.6549   -2.6115 C   0  0  0  0  0  0  0  0  0  0  0  0
   -1.8017    3.5292   -1.7674 C   0  0  0  0  0  0  0  0  0  0  0  0
   -0.5370    2.8423   -1.4217 C   0  0  0  0  0  0  0  0  0  0  0  0
    0.3508    2.7038   -2.3005 O   0  0  0  0  0  0  0  0  0  0  0  0
   -0.3251    2.3073   -0.1049 N   0  0  0  0  0  0  0  0  0  0  0  0
    3.5345    0.6071   -1.2326 C   0  0  0  0  0  0  0  0  0  0  0  0
    3.9866   -0.8398   -1.0191 C   0  0  0  0  0  0  0  0  0  0  0  0
    6.0701   -2.6739   -2.0502 H   0  0  0  0  0  0  0  0  0  0  0  0
    7.0662   -3.6103   -0.8802 H   0  0  0  0  0  0  0  0  0  0  0  0
    7.4142   -1.8619   -1.1432 H   0  0  0  0  0  0  0  0  0  0  0  0
    6.2246   -2.3774    1.0061 H   0  0  0  0  0  0  0  0  0  0  0  0
    4.8132   -3.0035    0.1008 H   0  0  0  0  0  0  0  0  0  0  0  0
    5.6436   -0.3475    1.9178 H   0  0  0  0  0  0  0  0  0  0  0  0
    3.9510   -0.9383    1.6910 H   0  0  0  0  0  0  0  0  0  0  0  0
    3.9225    1.4756    2.0810 H   0  0  0  0  0  0  0  0  0  0  0  0
    5.1671    1.7627    0.8068 H   0  0  0  0  0  0  0  0  0  0  0  0
    0.7578    0.6233   -0.7285 H   0  0  0  0  0  0  0  0  0  0  0  0
   -0.5127    0.8586    1.9494 H   0  0  0  0  0  0  0  0  0  0  0  0
    1.2021    0.4506    2.1565 H   0  0  0  0  0  0  0  0  0  0  0  0
   -1.5162   -0.5152   -0.3081 H   0  0  0  0  0  0  0  0  0  0  0  0
   -1.2970   -3.2831   -0.0935 H   0  0  0  0  0  0  0  0  0  0  0  0
   -1.0115   -3.2422    2.3001 H   0  0  0  0  0  0  0  0  0  0  0  0
   -2.6327   -2.4508    3.9212 H   0  0  0  0  0  0  0  0  0  0  0  0
   -3.7594   -1.8857    2.6477 H   0  0  0  0  0  0  0  0  0  0  0  0
   -2.1446   -1.0819    2.8823 H   0  0  0  0  0  0  0  0  0  0  0  0
   -2.2421   -5.1437    1.3324 H   0  0  0  0  0  0  0  0  0  0  0  0
   -3.8196   -4.3009    1.6260 H   0  0  0  0  0  0  0  0  0  0  0  0
   -2.7740   -4.7814    3.0161 H   0  0  0  0  0  0  0  0  0  0  0  0
   -5.2601   -1.7474   -0.2163 H   0  0  0  0  0  0  0  0  0  0  0  0
   -4.9165    0.2081    1.1375 H   0  0  0  0  0  0  0  0  0  0  0  0
   -3.1634    0.0062    1.0896 H   0  0  0  0  0  0  0  0  0  0  0  0
   -3.6976    0.2266   -1.6552 H   0  0  0  0  0  0  0  0  0  0  0  0
   -5.0560    1.1771   -0.9467 H   0  0  0  0  0  0  0  0  0  0  0  0
   -5.1992    3.3522   -1.3796 H   0  0  0  0  0  0  0  0  0  0  0  0
   -5.0824    5.3265   -2.8401 H   0  0  0  0  0  0  0  0  0  0  0  0
   -2.8969    6.1691   -3.6385 H   0  0  0  0  0  0  0  0  0  0  0  0
   -0.8103    5.0433   -2.9702 H   0  0  0  0  0  0  0  0  0  0  0  0
   -0.9607    2.6142    0.6561 H   0  0  0  0  0  0  0  0  0  0  0  0
    2.6437    0.6344   -1.8950 H   0  0  0  0  0  0  0  0  0  0  0  0
    4.3439    1.1769   -1.7460 H   0  0  0  0  0  0  0  0  0  0  0  0
    3.1336   -1.4383   -0.6217 H   0  0  0  0  0  0  0  0  0  0  0  0
    4.2670   -1.2564   -2.0099 H   0  0  0  0  0  0  0  0  0  0  0  0
  1  2  1  0
  2  3  1  0
  3  4  1  0
  4  5  1  0
  5  6  1  0
  6  7  1  0
  7  8  2  0
  7  9  1  0
  9 10  1  0
 10 11  1  0
 11 12  2  0
 11 13  1  0
 13 14  1  0
 14 15  1  0
 15 16  1  0
 15 17  1  0
 14 18  1  0
 18 19  2  0
 18 20  1  0
 20 21  1  0
 21 22  1  0
 22 23  1  0
 23 24  1  0
 24 25  2  0
 25 26  1  0
 26 27  2  0
 27 28  1  0
 28 29  2  0
 29 30  1  0
 30 31  2  0
 30 32  1  0
  6 33  1  0
 33 34  1  0
 34  3  1  0
 32  9  1  0
 29 24  1  0
  1 35  1  0
  1 36  1  0
  1 37  1  0
  2 38  1  0
  2 39  1  0
  4 40  1  0
  4 41  1  0
  5 42  1  0
  5 43  1  0
  9 44  1  0
 10 45  1  0
 10 46  1  0
 13 47  1  0
 14 48  1  0
 15 49  1  0
 16 50  1  0
 16 51  1  0
 16 52  1  0
 17 53  1  0
 17 54  1  0
 17 55  1  0
 20 56  1  0
 21 57  1  0
 21 58  1  0
 22 59  1  0
 22 60  1  0
 25 61  1  0
 26 62  1  0
 27 63  1  0
 28 64  1  0
 32 65  1  0
 33 66  1  0
 33 67  1  0
 34 68  1  0
 34 69  1  0
M  END
$$$$
