
     RDKit          3D

 62 65  0  0  0  0  0  0  0  0999 V2000
   -1.8826    3.1732   -0.4137 C   0  0  0  0  0  0  0  0  0  0  0  0
   -2.0192    1.7394   -0.6907 N   0  0  0  0  0  0  0  0  0  0  0  0
   -1.4477    0.7628    0.2557 C   0  0  0  0  0  0  0  0  0  0  0  0
    0.0609    0.3848    0.0136 C   0  0  0  0  0  0  0  0  0  0  0  0
    0.3406   -1.0280    0.6560 C   0  0  0  0  0  0  0  0  0  0  0  0
   -0.4986   -2.2266    0.1215 C   0  0  0  0  0  0  0  0  0  0  0  0
   -1.7463   -2.5685    0.9793 C   0  0  0  0  0  0  0  0  0  0  0  0
   -3.0581   -2.7403    0.1584 C   0  0  0  0  0  0  0  0  0  0  0  0
   -4.1100   -1.7137    0.5324 C   0  0  0  0  0  0  0  0  0  0  0  0
   -4.6134   -1.7192    1.8472 C   0  0  0  0  0  0  0  0  0  0  0  0
   -5.5585   -0.7758    2.2543 C   0  0  0  0  0  0  0  0  0  0  0  0
   -6.0258    0.1789    1.3526 C   0  0  0  0  0  0  0  0  0  0  0  0
   -5.5577    0.1857    0.0384 C   0  0  0  0  0  0  0  0  0  0  0  0
   -4.6057   -0.7506   -0.3859 C   0  0  0  0  0  0  0  0  0  0  0  0
   -4.2189   -0.7269   -1.7316 O   0  0  0  0  0  0  0  0  0  0  0  0
   -3.0212   -0.1150   -2.2131 C   0  0  0  0  0  0  0  0  0  0  0  0
   -2.8941    1.3248   -1.7736 C   0  0  0  0  0  0  0  0  0  0  0  0
   -3.5807    2.1876   -2.3859 O   0  0  0  0  0  0  0  0  0  0  0  0
    0.9324    1.4356    0.7798 C   0  0  0  0  0  0  0  0  0  0  0  0
    2.4448    1.2360    0.5747 C   0  0  0  0  0  0  0  0  0  0  0  0
    2.7609    0.9267   -0.8264 N   0  0  0  0  0  0  0  0  0  0  0  0
    3.9762    0.2291   -1.1769 C   0  0  0  0  0  0  0  0  0  0  0  0
    3.9929   -0.5187   -2.1925 O   0  0  0  0  0  0  0  0  0  0  0  0
    5.2135    0.3596   -0.3813 C   0  0  0  0  0  0  0  0  0  0  0  0
    6.3757   -0.3634   -0.5542 C   0  0  0  0  0  0  0  0  0  0  0  0
    7.2414    0.1005    0.3614 N   0  0  0  0  0  0  0  0  0  0  0  0
    8.6317   -0.2994    0.5231 C   0  0  0  0  0  0  0  0  0  0  0  0
    6.6571    1.0735    1.0413 N   0  0  0  0  0  0  0  0  0  0  0  0
    5.4158    1.2509    0.6115 N   0  0  0  0  0  0  0  0  0  0  0  0
    1.7306    1.1743   -1.8405 C   0  0  0  0  0  0  0  0  0  0  0  0
    0.4684    0.3642   -1.5146 C   0  0  0  0  0  0  0  0  0  0  0  0
   -2.8852    3.6483   -0.3569 H   0  0  0  0  0  0  0  0  0  0  0  0
   -1.2927    3.6534   -1.2223 H   0  0  0  0  0  0  0  0  0  0  0  0
   -1.3820    3.3573    0.5587 H   0  0  0  0  0  0  0  0  0  0  0  0
   -2.0733   -0.1265    0.2424 H   0  0  0  0  0  0  0  0  0  0  0  0
   -1.5854    1.1343    1.2955 H   0  0  0  0  0  0  0  0  0  0  0  0
    0.2411   -0.9690    1.7622 H   0  0  0  0  0  0  0  0  0  0  0  0
    1.4054   -1.2870    0.4702 H   0  0  0  0  0  0  0  0  0  0  0  0
    0.1580   -3.1251    0.1262 H   0  0  0  0  0  0  0  0  0  0  0  0
   -0.7553   -2.0864   -0.9411 H   0  0  0  0  0  0  0  0  0  0  0  0
   -1.5459   -3.5230    1.5148 H   0  0  0  0  0  0  0  0  0  0  0  0
   -1.8823   -1.8196    1.7892 H   0  0  0  0  0  0  0  0  0  0  0  0
   -2.8718   -2.7424   -0.9342 H   0  0  0  0  0  0  0  0  0  0  0  0
   -3.4809   -3.7456    0.3760 H   0  0  0  0  0  0  0  0  0  0  0  0
   -4.2634   -2.4529    2.5631 H   0  0  0  0  0  0  0  0  0  0  0  0
   -5.9293   -0.7857    3.2711 H   0  0  0  0  0  0  0  0  0  0  0  0
   -6.7597    0.9085    1.6695 H   0  0  0  0  0  0  0  0  0  0  0  0
   -5.9395    0.9203   -0.6593 H   0  0  0  0  0  0  0  0  0  0  0  0
   -3.0443   -0.1415   -3.3227 H   0  0  0  0  0  0  0  0  0  0  0  0
   -2.1464   -0.7119   -1.9222 H   0  0  0  0  0  0  0  0  0  0  0  0
    0.7133    1.4116    1.8703 H   0  0  0  0  0  0  0  0  0  0  0  0
    0.6851    2.4565    0.4249 H   0  0  0  0  0  0  0  0  0  0  0  0
    2.7914    0.4098    1.2327 H   0  0  0  0  0  0  0  0  0  0  0  0
    2.9751    2.1633    0.8788 H   0  0  0  0  0  0  0  0  0  0  0  0
    6.5785   -1.1403   -1.2806 H   0  0  0  0  0  0  0  0  0  0  0  0
    9.2629    0.2485   -0.2075 H   0  0  0  0  0  0  0  0  0  0  0  0
    8.7361   -1.3921    0.3519 H   0  0  0  0  0  0  0  0  0  0  0  0
    8.9768   -0.0642    1.5523 H   0  0  0  0  0  0  0  0  0  0  0  0
    1.4837    2.2584   -1.8512 H   0  0  0  0  0  0  0  0  0  0  0  0
    2.0889    0.9213   -2.8620 H   0  0  0  0  0  0  0  0  0  0  0  0
    0.6632   -0.6707   -1.8633 H   0  0  0  0  0  0  0  0  0  0  0  0
   -0.3269    0.7513   -2.1749 H   0  0  0  0  0  0  0  0  0  0  0  0
  1  2  1  0
  2  3  1  0
  3  4  1  0
  4  5  1  0
  5  6  1  0
  6  7  1  0
  7  8  1  0
  8  9  1  0
  9 10  2  0
 10 11  1  0
 11 12  2  0
 12 13  1  0
 13 14  2  0
 14 15  1  0
 15 16  1  0
 16 17  1  0
 17 18  2  0
  4 19  1  0
 19 20  1  0
 20 21  1  0
 21 22  1  0
 22 23  2  0
 22 24  1  0
 24 25  2  0
 25 26  1  0
 26 27  1  0
 26 28  1  0
 28 29  2  0
 21 30  1  0
 30 31  1  0
 17  2  1  0
 29 24  1  0
 31  4  1  0
 14  9  1  0
  1 32  1  0
  1 33  1  0
  1 34  1  0
  3 35  1  0
  3 36  1  0
  5 37  1  0
  5 38  1  0
  6 39  1  0
  6 40  1  0
  7 41  1  0
  7 42  1  0
  8 43  1  0
  8 44  1  0
 10 45  1  0
 11 46  1  0
 12 47  1  0
 13 48  1  0
 16 49  1  0
 16 50  1  0
 19 51  1  0
 19 52  1  0
 20 53  1  0
 20 54  1  0
 25 55  1  0
 27 56  1  0
 27 57  1  0
 27 58  1  0
 30 59  1  0
 30 60  1  0
 31 61  1  0
 31 62  1  0
M  END
$$$$
