
     RDKit          3D

 70 71  0  0  0  0  0  0  0  0999 V2000
    8.4640   -0.2531   -1.4576 C   0  0  0  0  0  0  0  0  0  0  0  0
    7.6620   -0.6092   -0.2124 C   0  0  0  0  0  0  0  0  0  0  0  0
    7.0613    0.5534    0.3297 O   0  0  0  0  0  0  0  0  0  0  0  0
    5.7146    0.6820   -0.0892 C   0  0  0  0  0  0  0  0  0  0  0  0
    4.7787    0.0298    0.9330 C   0  0  0  0  0  0  0  0  0  0  0  0
    3.3801    0.1725    0.5304 N   0  0  0  0  0  0  0  0  0  0  0  0
    2.3122   -0.3137    1.3546 C   0  0  0  0  0  0  0  0  0  0  0  0
    2.5546   -0.7398    2.5176 O   0  0  0  0  0  0  0  0  0  0  0  0
    0.8929   -0.2623    0.8468 C   0  0  0  0  0  0  0  0  0  0  0  0
    0.2738    1.1358    1.0988 C   0  0  0  0  0  0  0  0  0  0  0  0
   -0.5412    1.6073   -0.0792 C   0  0  0  0  0  0  0  0  0  0  0  0
    0.0601    1.8166   -1.1695 O   0  0  0  0  0  0  0  0  0  0  0  0
   -1.9477    1.8979   -0.0064 N   0  0  0  0  0  0  0  0  0  0  0  0
   -2.8311    1.5937    1.1290 C   0  0  0  0  0  0  0  0  0  0  0  0
   -4.2145    2.2716    0.9738 C   0  0  0  0  0  0  0  0  0  0  0  0
   -4.1603    3.8205    1.0150 C   0  0  0  0  0  0  0  0  0  0  0  0
   -5.4743    4.4049    0.4792 C   0  0  0  0  0  0  0  0  0  0  0  0
   -3.9046    4.3484    2.4363 C   0  0  0  0  0  0  0  0  0  0  0  0
   -3.0072    0.0992    1.3269 C   0  0  0  0  0  0  0  0  0  0  0  0
   -2.6730   -0.3751    2.4475 O   0  0  0  0  0  0  0  0  0  0  0  0
   -3.6568   -0.7727    0.3662 N   0  0  0  0  0  0  0  0  0  0  0  0
   -4.2215   -2.0363    0.8525 C   0  0  0  0  0  0  0  0  0  0  0  0
   -3.6584   -0.5287   -1.0862 C   0  0  0  0  0  0  0  0  0  0  0  0
   -2.6618   -1.4414   -1.8097 C   0  0  0  0  0  0  0  0  0  0  0  0
   -1.4936   -1.6455   -1.0164 O   0  0  0  0  0  0  0  0  0  0  0  0
   -0.4745   -2.5538   -1.3465 C   0  0  0  0  0  0  0  0  0  0  0  0
   -0.2717   -2.9813   -2.6745 C   0  0  0  0  0  0  0  0  0  0  0  0
    0.7267   -3.9111   -2.9736 C   0  0  0  0  0  0  0  0  0  0  0  0
    1.5256   -4.4320   -1.9551 C   0  0  0  0  0  0  0  0  0  0  0  0
    1.3341   -4.0194   -0.6351 C   0  0  0  0  0  0  0  0  0  0  0  0
    0.3510   -3.0667   -0.3240 C   0  0  0  0  0  0  0  0  0  0  0  0
    0.1430   -2.6814    1.0855 C   0  0  0  0  0  0  0  0  0  0  0  0
    0.0205   -3.5863    1.9537 O   0  0  0  0  0  0  0  0  0  0  0  0
    0.0932   -1.3070    1.4980 N   0  0  0  0  0  0  0  0  0  0  0  0
    7.7941    0.1451   -2.2470 H   0  0  0  0  0  0  0  0  0  0  0  0
    8.9781   -1.1584   -1.8427 H   0  0  0  0  0  0  0  0  0  0  0  0
    9.2283    0.5164   -1.2108 H   0  0  0  0  0  0  0  0  0  0  0  0
    6.9370   -1.4244   -0.4460 H   0  0  0  0  0  0  0  0  0  0  0  0
    8.3582   -1.0228    0.5461 H   0  0  0  0  0  0  0  0  0  0  0  0
    5.5320    0.2740   -1.1122 H   0  0  0  0  0  0  0  0  0  0  0  0
    5.4746    1.7663   -0.1380 H   0  0  0  0  0  0  0  0  0  0  0  0
    4.9299    0.5157    1.9218 H   0  0  0  0  0  0  0  0  0  0  0  0
    5.0210   -1.0509    1.0276 H   0  0  0  0  0  0  0  0  0  0  0  0
    3.1421    0.6196   -0.3850 H   0  0  0  0  0  0  0  0  0  0  0  0
    0.9352   -0.4565   -0.2464 H   0  0  0  0  0  0  0  0  0  0  0  0
   -0.3099    1.1425    2.0392 H   0  0  0  0  0  0  0  0  0  0  0  0
    1.0771    1.8907    1.2474 H   0  0  0  0  0  0  0  0  0  0  0  0
   -2.3505    2.4047   -0.8276 H   0  0  0  0  0  0  0  0  0  0  0  0
   -2.3683    2.0070    2.0479 H   0  0  0  0  0  0  0  0  0  0  0  0
   -4.6653    1.9477    0.0117 H   0  0  0  0  0  0  0  0  0  0  0  0
   -4.8948    1.9143    1.7799 H   0  0  0  0  0  0  0  0  0  0  0  0
   -3.3421    4.1862    0.3574 H   0  0  0  0  0  0  0  0  0  0  0  0
   -5.6485    4.0671   -0.5651 H   0  0  0  0  0  0  0  0  0  0  0  0
   -5.4303    5.5162    0.4742 H   0  0  0  0  0  0  0  0  0  0  0  0
   -6.3324    4.0816    1.1082 H   0  0  0  0  0  0  0  0  0  0  0  0
   -4.6723    3.9646    3.1447 H   0  0  0  0  0  0  0  0  0  0  0  0
   -3.9377    5.4589    2.4439 H   0  0  0  0  0  0  0  0  0  0  0  0
   -2.8989    4.0518    2.7963 H   0  0  0  0  0  0  0  0  0  0  0  0
   -4.9841   -1.8294    1.6329 H   0  0  0  0  0  0  0  0  0  0  0  0
   -3.4152   -2.6680    1.2832 H   0  0  0  0  0  0  0  0  0  0  0  0
   -4.7115   -2.6040    0.0326 H   0  0  0  0  0  0  0  0  0  0  0  0
   -4.6783   -0.7120   -1.4895 H   0  0  0  0  0  0  0  0  0  0  0  0
   -3.4349    0.5181   -1.3339 H   0  0  0  0  0  0  0  0  0  0  0  0
   -3.1439   -2.4240   -2.0074 H   0  0  0  0  0  0  0  0  0  0  0  0
   -2.3875   -0.9762   -2.7807 H   0  0  0  0  0  0  0  0  0  0  0  0
   -0.8817   -2.6012   -3.4811 H   0  0  0  0  0  0  0  0  0  0  0  0
    0.8747   -4.2376   -3.9950 H   0  0  0  0  0  0  0  0  0  0  0  0
    2.2902   -5.1616   -2.1869 H   0  0  0  0  0  0  0  0  0  0  0  0
    1.9555   -4.4411    0.1476 H   0  0  0  0  0  0  0  0  0  0  0  0
   -0.1960   -1.1373    2.4876 H   0  0  0  0  0  0  0  0  0  0  0  0
  1  2  1  0
  2  3  1  0
  3  4  1  0
  4  5  1  0
  5  6  1  0
  6  7  1  0
  7  8  2  0
  7  9  1  0
  9 10  1  0
 10 11  1  0
 11 12  2  0
 11 13  1  0
 13 14  1  0
 14 15  1  0
 15 16  1  0
 16 17  1  0
 16 18  1  0
 14 19  1  0
 19 20  2  0
 19 21  1  0
 21 22  1  0
 21 23  1  0
 23 24  1  0
 24 25  1  0
 25 26  1  0
 26 27  2  0
 27 28  1  0
 28 29  2  0
 29 30  1  0
 30 31  2  0
 31 32  1  0
 32 33  2  0
 32 34  1  0
 34  9  1  0
 31 26  1  0
  1 35  1  0
  1 36  1  0
  1 37  1  0
  2 38  1  0
  2 39  1  0
  4 40  1  0
  4 41  1  0
  5 42  1  0
  5 43  1  0
  6 44  1  0
  9 45  1  0
 10 46  1  0
 10 47  1  0
 13 48  1  0
 14 49  1  0
 15 50  1  0
 15 51  1  0
 16 52  1  0
 17 53  1  0
 17 54  1  0
 17 55  1  0
 18 56  1  0
 18 57  1  0
 18 58  1  0
 22 59  1  0
 22 60  1  0
 22 61  1  0
 23 62  1  0
 23 63  1  0
 24 64  1  0
 24 65  1  0
 27 66  1  0
 28 67  1  0
 29 68  1  0
 30 69  1  0
 34 70  1  0
M  END
$$$$
