
     RDKit          3D

 74 76  0  0  0  0  0  0  0  0999 V2000
    6.0395   -3.1189   -0.7068 C   0  0  0  0  0  0  0  0  0  0  0  0
    5.2174   -2.9946    0.5885 C   0  0  0  0  0  0  0  0  0  0  0  0
    4.1394   -4.0872    0.6533 C   0  0  0  0  0  0  0  0  0  0  0  0
    4.6440   -1.5686    0.8225 C   0  0  0  0  0  0  0  0  0  0  0  0
    3.8641   -0.9447   -0.3675 C   0  0  0  0  0  0  0  0  0  0  0  0
    2.6284   -1.6691   -0.7005 N   0  0  0  0  0  0  0  0  0  0  0  0
    1.4553   -1.8769    0.1147 C   0  0  0  0  0  0  0  0  0  0  0  0
    0.6163   -2.7459   -0.2584 O   0  0  0  0  0  0  0  0  0  0  0  0
    1.1338   -1.0902    1.3617 C   0  0  0  0  0  0  0  0  0  0  0  0
    0.3905    0.2247    1.0699 C   0  0  0  0  0  0  0  0  0  0  0  0
   -0.9937    0.0583    0.3937 C   0  0  0  0  0  0  0  0  0  0  0  0
   -2.0619   -0.5616    1.2803 C   0  0  0  0  0  0  0  0  0  0  0  0
   -1.8588   -0.6193    2.5211 O   0  0  0  0  0  0  0  0  0  0  0  0
   -3.3543   -0.9325    0.7445 N   0  0  0  0  0  0  0  0  0  0  0  0
   -4.5586   -0.7588    1.5615 C   0  0  0  0  0  0  0  0  0  0  0  0
   -5.6813   -1.7219    1.1004 C   0  0  0  0  0  0  0  0  0  0  0  0
   -5.4065   -3.1516    1.5726 C   0  0  0  0  0  0  0  0  0  0  0  0
   -5.9493   -1.7412   -0.3021 O   0  0  0  0  0  0  0  0  0  0  0  0
   -4.9687   -1.1017   -1.1109 C   0  0  0  0  0  0  0  0  0  0  0  0
   -5.1482   -1.5712   -2.5563 C   0  0  0  0  0  0  0  0  0  0  0  0
   -3.5237   -1.3643   -0.6491 C   0  0  0  0  0  0  0  0  0  0  0  0
   -1.4593    1.3647   -0.0766 N   0  0  0  0  0  0  0  0  0  0  0  0
   -1.5917    2.4969    0.7972 C   0  0  0  0  0  0  0  0  0  0  0  0
   -2.1139    2.3420    1.9353 O   0  0  0  0  0  0  0  0  0  0  0  0
   -1.0544    3.8305    0.4108 C   0  0  0  0  0  0  0  0  0  0  0  0
   -1.5150    4.9728    1.0916 C   0  0  0  0  0  0  0  0  0  0  0  0
   -1.0119    6.2380    0.7815 C   0  0  0  0  0  0  0  0  0  0  0  0
   -0.0121    6.3774   -0.1814 C   0  0  0  0  0  0  0  0  0  0  0  0
    0.4756    5.2542   -0.8509 C   0  0  0  0  0  0  0  0  0  0  0  0
   -0.0430    3.9689   -0.5761 C   0  0  0  0  0  0  0  0  0  0  0  0
    0.4285    2.8240   -1.2508 O   0  0  0  0  0  0  0  0  0  0  0  0
    1.5334    2.7752   -2.1490 C   0  0  0  0  0  0  0  0  0  0  0  0
    2.8632    2.7007   -1.3790 C   0  0  0  0  0  0  0  0  0  0  0  0
    3.3863    1.3307   -1.3949 N   0  0  0  0  0  0  0  0  0  0  0  0
    3.5973    0.5322   -0.2166 C   0  0  0  0  0  0  0  0  0  0  0  0
    3.5594    1.0593    0.9272 O   0  0  0  0  0  0  0  0  0  0  0  0
    6.6383   -4.0592   -0.6821 H   0  0  0  0  0  0  0  0  0  0  0  0
    5.3777   -3.1534   -1.6001 H   0  0  0  0  0  0  0  0  0  0  0  0
    6.7392   -2.2601   -0.8080 H   0  0  0  0  0  0  0  0  0  0  0  0
    5.9153   -3.1942    1.4344 H   0  0  0  0  0  0  0  0  0  0  0  0
    4.6197   -5.0911    0.6454 H   0  0  0  0  0  0  0  0  0  0  0  0
    3.4535   -4.0346   -0.2140 H   0  0  0  0  0  0  0  0  0  0  0  0
    3.5468   -3.9885    1.5847 H   0  0  0  0  0  0  0  0  0  0  0  0
    4.0452   -1.5795    1.7533 H   0  0  0  0  0  0  0  0  0  0  0  0
    5.5025   -0.8970    1.0416 H   0  0  0  0  0  0  0  0  0  0  0  0
    4.5404   -1.0145   -1.2497 H   0  0  0  0  0  0  0  0  0  0  0  0
    2.6153   -2.1293   -1.6426 H   0  0  0  0  0  0  0  0  0  0  0  0
    0.5163   -1.7251    2.0351 H   0  0  0  0  0  0  0  0  0  0  0  0
    2.0472   -0.8538    1.9363 H   0  0  0  0  0  0  0  0  0  0  0  0
    0.2763    0.7782    2.0288 H   0  0  0  0  0  0  0  0  0  0  0  0
    1.0249    0.8554    0.4180 H   0  0  0  0  0  0  0  0  0  0  0  0
   -0.8441   -0.5907   -0.4920 H   0  0  0  0  0  0  0  0  0  0  0  0
   -4.3359   -0.9502    2.6379 H   0  0  0  0  0  0  0  0  0  0  0  0
   -4.9087    0.2951    1.4666 H   0  0  0  0  0  0  0  0  0  0  0  0
   -6.6112   -1.3884    1.6088 H   0  0  0  0  0  0  0  0  0  0  0  0
   -4.4348   -3.5257    1.1799 H   0  0  0  0  0  0  0  0  0  0  0  0
   -6.2171   -3.8241    1.2158 H   0  0  0  0  0  0  0  0  0  0  0  0
   -5.3912   -3.1964    2.6852 H   0  0  0  0  0  0  0  0  0  0  0  0
   -5.1489   -0.0030   -1.0968 H   0  0  0  0  0  0  0  0  0  0  0  0
   -5.0155   -2.6744   -2.6162 H   0  0  0  0  0  0  0  0  0  0  0  0
   -4.4039   -1.0775   -3.2172 H   0  0  0  0  0  0  0  0  0  0  0  0
   -6.1710   -1.3161   -2.9146 H   0  0  0  0  0  0  0  0  0  0  0  0
   -3.2749   -2.4462   -0.7288 H   0  0  0  0  0  0  0  0  0  0  0  0
   -2.8542   -0.7964   -1.3274 H   0  0  0  0  0  0  0  0  0  0  0  0
   -1.7515    1.4741   -1.0766 H   0  0  0  0  0  0  0  0  0  0  0  0
   -2.2723    4.8959    1.8641 H   0  0  0  0  0  0  0  0  0  0  0  0
   -1.3781    7.1114    1.3043 H   0  0  0  0  0  0  0  0  0  0  0  0
    0.3847    7.3573   -0.4136 H   0  0  0  0  0  0  0  0  0  0  0  0
    1.2583    5.4066   -1.5800 H   0  0  0  0  0  0  0  0  0  0  0  0
    1.5184    3.6458   -2.8380 H   0  0  0  0  0  0  0  0  0  0  0  0
    1.4145    1.8832   -2.7991 H   0  0  0  0  0  0  0  0  0  0  0  0
    3.6067    3.3613   -1.8765 H   0  0  0  0  0  0  0  0  0  0  0  0
    2.7246    3.0752   -0.3387 H   0  0  0  0  0  0  0  0  0  0  0  0
    3.5812    0.8997   -2.3295 H   0  0  0  0  0  0  0  0  0  0  0  0
  1  2  1  0
  2  3  1  0
  2  4  1  0
  4  5  1  0
  5  6  1  0
  6  7  1  0
  7  8  2  0
  7  9  1  0
  9 10  1  0
 10 11  1  0
 11 12  1  0
 12 13  2  0
 12 14  1  0
 14 15  1  0
 15 16  1  0
 16 17  1  0
 16 18  1  0
 18 19  1  0
 19 20  1  0
 19 21  1  0
 11 22  1  0
 22 23  1  0
 23 24  2  0
 23 25  1  0
 25 26  2  0
 26 27  1  0
 27 28  2  0
 28 29  1  0
 29 30  2  0
 30 31  1  0
 31 32  1  0
 32 33  1  0
 33 34  1  0
 34 35  1  0
 35 36  2  0
 35  5  1  0
 21 14  1  0
 30 25  1  0
  1 37  1  0
  1 38  1  0
  1 39  1  0
  2 40  1  0
  3 41  1  0
  3 42  1  0
  3 43  1  0
  4 44  1  0
  4 45  1  0
  5 46  1  0
  6 47  1  0
  9 48  1  0
  9 49  1  0
 10 50  1  0
 10 51  1  0
 11 52  1  0
 15 53  1  0
 15 54  1  0
 16 55  1  0
 17 56  1  0
 17 57  1  0
 17 58  1  0
 19 59  1  0
 20 60  1  0
 20 61  1  0
 20 62  1  0
 21 63  1  0
 21 64  1  0
 22 65  1  0
 26 66  1  0
 27 67  1  0
 28 68  1  0
 29 69  1  0
 32 70  1  0
 32 71  1  0
 33 72  1  0
 33 73  1  0
 34 74  1  0
M  END
$$$$
