
     RDKit          3D

 68 71  0  0  0  0  0  0  0  0999 V2000
    5.8534   -1.6357   -1.0521 C   0  0  0  0  0  0  0  0  0  0  0  0
    6.5226   -0.3921   -0.5651 C   0  0  0  0  0  0  0  0  0  0  0  0
    7.7077   -0.3812    0.0770 N   0  0  0  0  0  0  0  0  0  0  0  0
    8.0009    0.8652    0.3168 O   0  0  0  0  0  0  0  0  0  0  0  0
    7.0726    1.6705   -0.1462 C   0  0  0  0  0  0  0  0  0  0  0  0
    7.1102    3.1568   -0.0086 C   0  0  0  0  0  0  0  0  0  0  0  0
    6.0798    0.9075   -0.7339 C   0  0  0  0  0  0  0  0  0  0  0  0
    4.7979    1.3775   -1.3697 C   0  0  0  0  0  0  0  0  0  0  0  0
    3.7727    1.8568   -0.3325 C   0  0  0  0  0  0  0  0  0  0  0  0
    3.2524    0.7223    0.5137 C   0  0  0  0  0  0  0  0  0  0  0  0
    4.0008    0.2336    1.4026 O   0  0  0  0  0  0  0  0  0  0  0  0
    1.9364    0.1733    0.3167 N   0  0  0  0  0  0  0  0  0  0  0  0
    1.7037   -1.2496    0.5920 C   0  0  0  0  0  0  0  0  0  0  0  0
    0.4366   -1.7313   -0.1233 C   0  0  0  0  0  0  0  0  0  0  0  0
   -0.8488   -0.9399    0.3055 C   0  0  0  0  0  0  0  0  0  0  0  0
   -1.8560   -0.8873   -0.8946 C   0  0  0  0  0  0  0  0  0  0  0  0
   -2.2894   -2.2376   -1.5243 C   0  0  0  0  0  0  0  0  0  0  0  0
   -3.6337   -2.7757   -1.0070 C   0  0  0  0  0  0  0  0  0  0  0  0
   -4.8483   -1.9188   -1.4407 C   0  0  0  0  0  0  0  0  0  0  0  0
   -5.8558   -1.7395   -0.2997 C   0  0  0  0  0  0  0  0  0  0  0  0
   -5.2885   -0.9560    0.7544 O   0  0  0  0  0  0  0  0  0  0  0  0
   -5.0819    0.4347    0.7328 C   0  0  0  0  0  0  0  0  0  0  0  0
   -5.8822    1.2793   -0.0639 C   0  0  0  0  0  0  0  0  0  0  0  0
   -5.7112    2.6631   -0.0265 C   0  0  0  0  0  0  0  0  0  0  0  0
   -4.7431    3.2262    0.8009 C   0  0  0  0  0  0  0  0  0  0  0  0
   -3.9304    2.4069    1.5850 C   0  0  0  0  0  0  0  0  0  0  0  0
   -4.0741    1.0060    1.5534 C   0  0  0  0  0  0  0  0  0  0  0  0
   -3.0973    0.1743    2.3074 C   0  0  0  0  0  0  0  0  0  0  0  0
   -2.4581    0.6735    3.2730 O   0  0  0  0  0  0  0  0  0  0  0  0
   -2.8150   -1.1701    1.9095 N   0  0  0  0  0  0  0  0  0  0  0  0
   -1.4712   -1.6438    1.5608 C   0  0  0  0  0  0  0  0  0  0  0  0
   -0.4686    0.5381    0.6788 C   0  0  0  0  0  0  0  0  0  0  0  0
    0.7986    1.0389   -0.0236 C   0  0  0  0  0  0  0  0  0  0  0  0
    5.9070   -1.6765   -2.1599 H   0  0  0  0  0  0  0  0  0  0  0  0
    4.7909   -1.6433   -0.7362 H   0  0  0  0  0  0  0  0  0  0  0  0
    6.3572   -2.5311   -0.6319 H   0  0  0  0  0  0  0  0  0  0  0  0
    8.1574    3.4923    0.1506 H   0  0  0  0  0  0  0  0  0  0  0  0
    6.7170    3.6402   -0.9277 H   0  0  0  0  0  0  0  0  0  0  0  0
    6.4953    3.4658    0.8617 H   0  0  0  0  0  0  0  0  0  0  0  0
    4.3541    0.5682   -1.9902 H   0  0  0  0  0  0  0  0  0  0  0  0
    5.0324    2.2195   -2.0568 H   0  0  0  0  0  0  0  0  0  0  0  0
    2.9444    2.3484   -0.8822 H   0  0  0  0  0  0  0  0  0  0  0  0
    4.2240    2.6284    0.3270 H   0  0  0  0  0  0  0  0  0  0  0  0
    2.5612   -1.8515    0.2226 H   0  0  0  0  0  0  0  0  0  0  0  0
    1.6106   -1.4075    1.6877 H   0  0  0  0  0  0  0  0  0  0  0  0
    0.3234   -2.8227    0.0551 H   0  0  0  0  0  0  0  0  0  0  0  0
    0.6140   -1.6115   -1.2155 H   0  0  0  0  0  0  0  0  0  0  0  0
   -2.7461   -0.2974   -0.6059 H   0  0  0  0  0  0  0  0  0  0  0  0
   -1.3800   -0.2937   -1.7061 H   0  0  0  0  0  0  0  0  0  0  0  0
   -2.3853   -2.0981   -2.6247 H   0  0  0  0  0  0  0  0  0  0  0  0
   -1.5111   -3.0161   -1.3839 H   0  0  0  0  0  0  0  0  0  0  0  0
   -3.5865   -2.9000    0.0889 H   0  0  0  0  0  0  0  0  0  0  0  0
   -3.7725   -3.8011   -1.4148 H   0  0  0  0  0  0  0  0  0  0  0  0
   -4.5459   -0.9178   -1.8141 H   0  0  0  0  0  0  0  0  0  0  0  0
   -5.3593   -2.4218   -2.2901 H   0  0  0  0  0  0  0  0  0  0  0  0
   -6.7954   -1.2896   -0.6759 H   0  0  0  0  0  0  0  0  0  0  0  0
   -6.1252   -2.7376    0.1058 H   0  0  0  0  0  0  0  0  0  0  0  0
   -6.6566    0.8855   -0.7036 H   0  0  0  0  0  0  0  0  0  0  0  0
   -6.3349    3.3022   -0.6393 H   0  0  0  0  0  0  0  0  0  0  0  0
   -4.6119    4.3003    0.8241 H   0  0  0  0  0  0  0  0  0  0  0  0
   -3.1628    2.8703    2.1927 H   0  0  0  0  0  0  0  0  0  0  0  0
   -3.5360   -1.8921    2.1302 H   0  0  0  0  0  0  0  0  0  0  0  0
   -1.5331   -2.7386    1.3791 H   0  0  0  0  0  0  0  0  0  0  0  0
   -0.8052   -1.5200    2.4420 H   0  0  0  0  0  0  0  0  0  0  0  0
   -0.2767    0.6284    1.7703 H   0  0  0  0  0  0  0  0  0  0  0  0
   -1.2982    1.2419    0.4499 H   0  0  0  0  0  0  0  0  0  0  0  0
    0.9862    2.0782    0.3253 H   0  0  0  0  0  0  0  0  0  0  0  0
    0.6548    1.0529   -1.1250 H   0  0  0  0  0  0  0  0  0  0  0  0
  1  2  1  0
  2  3  2  0
  3  4  1  0
  4  5  1  0
  5  6  1  0
  5  7  2  0
  7  8  1  0
  8  9  1  0
  9 10  1  0
 10 11  2  0
 10 12  1  0
 12 13  1  0
 13 14  1  0
 14 15  1  0
 15 16  1  0
 16 17  1  0
 17 18  1  0
 18 19  1  0
 19 20  1  0
 20 21  1  0
 21 22  1  0
 22 23  2  0
 23 24  1  0
 24 25  2  0
 25 26  1  0
 26 27  2  0
 27 28  1  0
 28 29  2  0
 28 30  1  0
 30 31  1  0
 15 32  1  0
 32 33  1  0
  7  2  1  0
 33 12  1  0
 31 15  1  0
 27 22  1  0
  1 34  1  0
  1 35  1  0
  1 36  1  0
  6 37  1  0
  6 38  1  0
  6 39  1  0
  8 40  1  0
  8 41  1  0
  9 42  1  0
  9 43  1  0
 13 44  1  0
 13 45  1  0
 14 46  1  0
 14 47  1  0
 16 48  1  0
 16 49  1  0
 17 50  1  0
 17 51  1  0
 18 52  1  0
 18 53  1  0
 19 54  1  0
 19 55  1  0
 20 56  1  0
 20 57  1  0
 23 58  1  0
 24 59  1  0
 25 60  1  0
 26 61  1  0
 30 62  1  0
 31 63  1  0
 31 64  1  0
 32 65  1  0
 32 66  1  0
 33 67  1  0
 33 68  1  0
M  END
$$$$
