
     RDKit          3D

 75 77  0  0  0  0  0  0  0  0999 V2000
    5.1269   -1.0781   -3.1560 C   0  0  0  0  0  0  0  0  0  0  0  0
    5.7154   -0.4747   -1.9225 C   0  0  0  0  0  0  0  0  0  0  0  0
    6.9977   -0.6430   -1.5430 N   0  0  0  0  0  0  0  0  0  0  0  0
    7.1667    0.0081   -0.4013 N   0  0  0  0  0  0  0  0  0  0  0  0
    8.4325    0.0367    0.3233 C   0  0  0  0  0  0  0  0  0  0  0  0
    6.0112    0.6114   -0.0422 C   0  0  0  0  0  0  0  0  0  0  0  0
    5.7832    1.3688    1.2327 C   0  0  0  0  0  0  0  0  0  0  0  0
    5.0543    0.3203   -0.9998 C   0  0  0  0  0  0  0  0  0  0  0  0
    3.5870    0.6518   -0.9710 C   0  0  0  0  0  0  0  0  0  0  0  0
    2.7735   -0.4332   -0.3093 C   0  0  0  0  0  0  0  0  0  0  0  0
    3.3388   -1.2490    0.4711 O   0  0  0  0  0  0  0  0  0  0  0  0
    1.3507   -0.5373   -0.5326 N   0  0  0  0  0  0  0  0  0  0  0  0
    0.6824   -1.8319   -0.3351 C   0  0  0  0  0  0  0  0  0  0  0  0
    0.1275   -1.9455    1.0898 C   0  0  0  0  0  0  0  0  0  0  0  0
   -0.7078   -3.2219    1.2546 C   0  0  0  0  0  0  0  0  0  0  0  0
   -1.4014   -3.3014    2.6229 C   0  0  0  0  0  0  0  0  0  0  0  0
   -2.1684   -2.0911    2.9392 N   0  0  0  0  0  0  0  0  0  0  0  0
   -3.4795   -1.8199    2.4199 C   0  0  0  0  0  0  0  0  0  0  0  0
   -4.2927   -1.1480    3.1113 O   0  0  0  0  0  0  0  0  0  0  0  0
   -3.9037   -2.3057    1.0994 C   0  0  0  0  0  0  0  0  0  0  0  0
   -4.6903   -3.4644    1.0206 C   0  0  0  0  0  0  0  0  0  0  0  0
   -5.0622   -3.9807   -0.2252 C   0  0  0  0  0  0  0  0  0  0  0  0
   -6.0356   -5.4373   -0.3164 Cl  0  0  0  0  0  0  0  0  0  0  0  0
   -4.6484   -3.3423   -1.3977 C   0  0  0  0  0  0  0  0  0  0  0  0
   -3.8732   -2.1820   -1.3272 C   0  0  0  0  0  0  0  0  0  0  0  0
   -3.5117   -1.6454   -0.0864 C   0  0  0  0  0  0  0  0  0  0  0  0
   -2.7382   -0.4812   -0.0628 O   0  0  0  0  0  0  0  0  0  0  0  0
   -3.2627    0.7732    0.3637 C   0  0  0  0  0  0  0  0  0  0  0  0
   -2.2392    1.8860    0.0852 C   0  0  0  0  0  0  0  0  0  0  0  0
   -2.8384    3.2893    0.3720 C   0  0  0  0  0  0  0  0  0  0  0  0
   -3.2966    4.0505   -0.8976 C   0  0  0  0  0  0  0  0  0  0  0  0
   -3.7221    5.4777   -0.5289 C   0  0  0  0  0  0  0  0  0  0  0  0
   -4.4436    3.3372   -1.6280 C   0  0  0  0  0  0  0  0  0  0  0  0
   -1.0627    1.6721    0.9375 N   0  0  0  0  0  0  0  0  0  0  0  0
    0.2668    1.4265    0.4493 C   0  0  0  0  0  0  0  0  0  0  0  0
    1.2458    1.8244    1.1349 O   0  0  0  0  0  0  0  0  0  0  0  0
    0.5320    0.6533   -0.8182 C   0  0  0  0  0  0  0  0  0  0  0  0
    4.2168   -1.6565   -2.8939 H   0  0  0  0  0  0  0  0  0  0  0  0
    4.8595   -0.2735   -3.8726 H   0  0  0  0  0  0  0  0  0  0  0  0
    5.8600   -1.7578   -3.6389 H   0  0  0  0  0  0  0  0  0  0  0  0
    8.8398    1.0698    0.3236 H   0  0  0  0  0  0  0  0  0  0  0  0
    9.1689   -0.6402   -0.1631 H   0  0  0  0  0  0  0  0  0  0  0  0
    8.2790   -0.3015    1.3708 H   0  0  0  0  0  0  0  0  0  0  0  0
    5.2179    2.2993    1.0200 H   0  0  0  0  0  0  0  0  0  0  0  0
    6.7429    1.6538    1.7106 H   0  0  0  0  0  0  0  0  0  0  0  0
    5.2030    0.7372    1.9378 H   0  0  0  0  0  0  0  0  0  0  0  0
    3.4271    1.6106   -0.4387 H   0  0  0  0  0  0  0  0  0  0  0  0
    3.2401    0.7835   -2.0170 H   0  0  0  0  0  0  0  0  0  0  0  0
   -0.1425   -1.9402   -1.0735 H   0  0  0  0  0  0  0  0  0  0  0  0
    1.3928   -2.6651   -0.5286 H   0  0  0  0  0  0  0  0  0  0  0  0
    0.9652   -1.9528    1.8200 H   0  0  0  0  0  0  0  0  0  0  0  0
   -0.5061   -1.0612    1.2995 H   0  0  0  0  0  0  0  0  0  0  0  0
   -0.0407   -4.1044    1.1472 H   0  0  0  0  0  0  0  0  0  0  0  0
   -1.4630   -3.2911    0.4484 H   0  0  0  0  0  0  0  0  0  0  0  0
   -0.6240   -3.4490    3.4050 H   0  0  0  0  0  0  0  0  0  0  0  0
   -2.0721   -4.1879    2.6516 H   0  0  0  0  0  0  0  0  0  0  0  0
   -1.8438   -1.5195    3.7523 H   0  0  0  0  0  0  0  0  0  0  0  0
   -4.9987   -3.9744    1.9254 H   0  0  0  0  0  0  0  0  0  0  0  0
   -4.9283   -3.7433   -2.3644 H   0  0  0  0  0  0  0  0  0  0  0  0
   -3.5586   -1.6905   -2.2385 H   0  0  0  0  0  0  0  0  0  0  0  0
   -3.4911    0.7427    1.4509 H   0  0  0  0  0  0  0  0  0  0  0  0
   -4.2107    0.9728   -0.1794 H   0  0  0  0  0  0  0  0  0  0  0  0
   -1.9481    1.8426   -0.9837 H   0  0  0  0  0  0  0  0  0  0  0  0
   -2.0586    3.9118    0.8649 H   0  0  0  0  0  0  0  0  0  0  0  0
   -3.6801    3.2189    1.0977 H   0  0  0  0  0  0  0  0  0  0  0  0
   -2.4338    4.1299   -1.5963 H   0  0  0  0  0  0  0  0  0  0  0  0
   -2.8765    6.0194   -0.0538 H   0  0  0  0  0  0  0  0  0  0  0  0
   -4.0185    6.0379   -1.4409 H   0  0  0  0  0  0  0  0  0  0  0  0
   -4.5810    5.4605    0.1764 H   0  0  0  0  0  0  0  0  0  0  0  0
   -5.2850    3.1337   -0.9296 H   0  0  0  0  0  0  0  0  0  0  0  0
   -4.0880    2.3812   -2.0664 H   0  0  0  0  0  0  0  0  0  0  0  0
   -4.8181    3.9624   -2.4674 H   0  0  0  0  0  0  0  0  0  0  0  0
   -1.1760    1.8226    1.9661 H   0  0  0  0  0  0  0  0  0  0  0  0
   -0.4166    0.3334   -1.2913 H   0  0  0  0  0  0  0  0  0  0  0  0
    1.0331    1.3117   -1.5564 H   0  0  0  0  0  0  0  0  0  0  0  0
  1  2  1  0
  2  3  2  0
  3  4  1  0
  4  5  1  0
  4  6  1  0
  6  7  1  0
  6  8  2  0
  8  9  1  0
  9 10  1  0
 10 11  2  0
 10 12  1  0
 12 13  1  0
 13 14  1  0
 14 15  1  0
 15 16  1  0
 16 17  1  0
 17 18  1  0
 18 19  2  0
 18 20  1  0
 20 21  2  0
 21 22  1  0
 22 23  1  0
 22 24  2  0
 24 25  1  0
 25 26  2  0
 26 27  1  0
 27 28  1  0
 28 29  1  0
 29 30  1  0
 30 31  1  0
 31 32  1  0
 31 33  1  0
 29 34  1  0
 34 35  1  0
 35 36  2  0
 35 37  1  0
  8  2  1  0
 37 12  1  0
 26 20  1  0
  1 38  1  0
  1 39  1  0
  1 40  1  0
  5 41  1  0
  5 42  1  0
  5 43  1  0
  7 44  1  0
  7 45  1  0
  7 46  1  0
  9 47  1  0
  9 48  1  0
 13 49  1  0
 13 50  1  0
 14 51  1  0
 14 52  1  0
 15 53  1  0
 15 54  1  0
 16 55  1  0
 16 56  1  0
 17 57  1  0
 21 58  1  0
 24 59  1  0
 25 60  1  0
 28 61  1  0
 28 62  1  0
 29 63  1  0
 30 64  1  0
 30 65  1  0
 31 66  1  0
 32 67  1  0
 32 68  1  0
 32 69  1  0
 33 70  1  0
 33 71  1  0
 33 72  1  0
 34 73  1  0
 37 74  1  0
 37 75  1  0
M  END
$$$$
