
     RDKit          3D

 71 73  0  0  0  0  0  0  0  0999 V2000
    5.4954    1.6018    3.8651 C   0  0  0  0  0  0  0  0  0  0  0  0
    5.9721    1.5730    2.5197 O   0  0  0  0  0  0  0  0  0  0  0  0
    5.3904    0.8222    1.4870 C   0  0  0  0  0  0  0  0  0  0  0  0
    5.9742    0.8832    0.2150 C   0  0  0  0  0  0  0  0  0  0  0  0
    5.4430    0.1399   -0.8589 C   0  0  0  0  0  0  0  0  0  0  0  0
    5.9959    0.1737   -2.1506 O   0  0  0  0  0  0  0  0  0  0  0  0
    7.0739    1.0115   -2.5395 C   0  0  0  0  0  0  0  0  0  0  0  0
    4.3121   -0.6573   -0.6439 C   0  0  0  0  0  0  0  0  0  0  0  0
    3.6902   -0.6922    0.6125 C   0  0  0  0  0  0  0  0  0  0  0  0
    2.4371   -1.4513    0.7762 C   0  0  0  0  0  0  0  0  0  0  0  0
    2.4846   -2.7098    0.6681 O   0  0  0  0  0  0  0  0  0  0  0  0
    1.1575   -0.7858    0.9357 N   0  0  0  0  0  0  0  0  0  0  0  0
    1.0745    0.6274    1.3537 C   0  0  0  0  0  0  0  0  0  0  0  0
    1.4848    1.5822    0.2092 C   0  0  0  0  0  0  0  0  0  0  0  0
    0.3827    2.5828   -0.1773 C   0  0  0  0  0  0  0  0  0  0  0  0
   -0.8115    1.8846   -0.8267 C   0  0  0  0  0  0  0  0  0  0  0  0
   -1.7998    2.8612   -1.2743 N   0  0  0  0  0  0  0  0  0  0  0  0
   -3.1984    2.5534   -1.2995 C   0  0  0  0  0  0  0  0  0  0  0  0
   -3.8340    2.6582   -2.3833 O   0  0  0  0  0  0  0  0  0  0  0  0
   -3.9466    2.2771   -0.0603 C   0  0  0  0  0  0  0  0  0  0  0  0
   -4.6867    3.3170    0.5200 C   0  0  0  0  0  0  0  0  0  0  0  0
   -5.5115    3.0689    1.6212 C   0  0  0  0  0  0  0  0  0  0  0  0
   -6.4341    4.3760    2.3385 Cl  0  0  0  0  0  0  0  0  0  0  0  0
   -5.6232    1.7741    2.1316 C   0  0  0  0  0  0  0  0  0  0  0  0
   -4.8912    0.7324    1.5592 C   0  0  0  0  0  0  0  0  0  0  0  0
   -4.0420    0.9764    0.4727 C   0  0  0  0  0  0  0  0  0  0  0  0
   -3.2617   -0.0593   -0.0389 O   0  0  0  0  0  0  0  0  0  0  0  0
   -3.8211   -1.1808   -0.7257 C   0  0  0  0  0  0  0  0  0  0  0  0
   -2.7469   -2.2774   -0.8299 C   0  0  0  0  0  0  0  0  0  0  0  0
   -3.2597   -3.5330   -1.5891 C   0  0  0  0  0  0  0  0  0  0  0  0
   -4.4514   -4.1927   -0.8771 C   0  0  0  0  0  0  0  0  0  0  0  0
   -2.1389   -4.5770   -1.7629 C   0  0  0  0  0  0  0  0  0  0  0  0
   -1.5741   -1.7225   -1.5174 N   0  0  0  0  0  0  0  0  0  0  0  0
   -0.2800   -1.5403   -0.9192 C   0  0  0  0  0  0  0  0  0  0  0  0
    0.7185   -1.4166   -1.6783 O   0  0  0  0  0  0  0  0  0  0  0  0
   -0.0795   -1.5083    0.5801 C   0  0  0  0  0  0  0  0  0  0  0  0
    4.2466    0.0252    1.6850 C   0  0  0  0  0  0  0  0  0  0  0  0
    6.1728    2.2284    4.4769 H   0  0  0  0  0  0  0  0  0  0  0  0
    4.4707    2.0254    3.9136 H   0  0  0  0  0  0  0  0  0  0  0  0
    5.5068    0.5742    4.2817 H   0  0  0  0  0  0  0  0  0  0  0  0
    6.8473    1.5082    0.0810 H   0  0  0  0  0  0  0  0  0  0  0  0
    7.2845    0.8427   -3.6154 H   0  0  0  0  0  0  0  0  0  0  0  0
    7.9804    0.7662   -1.9450 H   0  0  0  0  0  0  0  0  0  0  0  0
    6.8049    2.0775   -2.3895 H   0  0  0  0  0  0  0  0  0  0  0  0
    3.8921   -1.2227   -1.4676 H   0  0  0  0  0  0  0  0  0  0  0  0
    1.7236    0.7971    2.2368 H   0  0  0  0  0  0  0  0  0  0  0  0
    0.0566    0.8563    1.7300 H   0  0  0  0  0  0  0  0  0  0  0  0
    2.3749    2.1609    0.5362 H   0  0  0  0  0  0  0  0  0  0  0  0
    1.7865    1.0112   -0.6948 H   0  0  0  0  0  0  0  0  0  0  0  0
    0.8091    3.3108   -0.9048 H   0  0  0  0  0  0  0  0  0  0  0  0
    0.0462    3.1441    0.7261 H   0  0  0  0  0  0  0  0  0  0  0  0
   -1.2567    1.1953   -0.0901 H   0  0  0  0  0  0  0  0  0  0  0  0
   -0.4710    1.2933   -1.7053 H   0  0  0  0  0  0  0  0  0  0  0  0
   -1.4720    3.5953   -1.9425 H   0  0  0  0  0  0  0  0  0  0  0  0
   -4.6318    4.3171    0.1110 H   0  0  0  0  0  0  0  0  0  0  0  0
   -6.2700    1.5678    2.9733 H   0  0  0  0  0  0  0  0  0  0  0  0
   -4.9628   -0.2595    1.9832 H   0  0  0  0  0  0  0  0  0  0  0  0
   -4.7022   -1.5584   -0.1558 H   0  0  0  0  0  0  0  0  0  0  0  0
   -4.1545   -0.8565   -1.7410 H   0  0  0  0  0  0  0  0  0  0  0  0
   -2.4735   -2.5897    0.2007 H   0  0  0  0  0  0  0  0  0  0  0  0
   -3.5908   -3.2251   -2.6077 H   0  0  0  0  0  0  0  0  0  0  0  0
   -4.7006   -5.1651   -1.3500 H   0  0  0  0  0  0  0  0  0  0  0  0
   -5.3580   -3.5540   -0.9438 H   0  0  0  0  0  0  0  0  0  0  0  0
   -4.2105   -4.3719    0.1915 H   0  0  0  0  0  0  0  0  0  0  0  0
   -2.5138   -5.4511   -2.3490 H   0  0  0  0  0  0  0  0  0  0  0  0
   -1.7754   -4.9410   -0.7702 H   0  0  0  0  0  0  0  0  0  0  0  0
   -1.2758   -4.1499   -2.3232 H   0  0  0  0  0  0  0  0  0  0  0  0
   -1.6685   -1.5090   -2.5358 H   0  0  0  0  0  0  0  0  0  0  0  0
   -0.0440   -2.5490    0.9706 H   0  0  0  0  0  0  0  0  0  0  0  0
   -0.9540   -1.0210    1.0549 H   0  0  0  0  0  0  0  0  0  0  0  0
    3.7882   -0.0456    2.6659 H   0  0  0  0  0  0  0  0  0  0  0  0
  1  2  1  0
  2  3  1  0
  3  4  2  0
  4  5  1  0
  5  6  1  0
  6  7  1  0
  5  8  2  0
  8  9  1  0
  9 10  1  0
 10 11  2  0
 10 12  1  0
 12 13  1  0
 13 14  1  0
 14 15  1  0
 15 16  1  0
 16 17  1  0
 17 18  1  0
 18 19  2  0
 18 20  1  0
 20 21  2  0
 21 22  1  0
 22 23  1  0
 22 24  2  0
 24 25  1  0
 25 26  2  0
 26 27  1  0
 27 28  1  0
 28 29  1  0
 29 30  1  0
 30 31  1  0
 30 32  1  0
 29 33  1  0
 33 34  1  0
 34 35  2  0
 34 36  1  0
  9 37  2  0
 37  3  1  0
 36 12  1  0
 26 20  1  0
  1 38  1  0
  1 39  1  0
  1 40  1  0
  4 41  1  0
  7 42  1  0
  7 43  1  0
  7 44  1  0
  8 45  1  0
 13 46  1  0
 13 47  1  0
 14 48  1  0
 14 49  1  0
 15 50  1  0
 15 51  1  0
 16 52  1  0
 16 53  1  0
 17 54  1  0
 21 55  1  0
 24 56  1  0
 25 57  1  0
 28 58  1  0
 28 59  1  0
 29 60  1  0
 30 61  1  0
 31 62  1  0
 31 63  1  0
 31 64  1  0
 32 65  1  0
 32 66  1  0
 32 67  1  0
 33 68  1  0
 36 69  1  0
 36 70  1  0
 37 71  1  0
M  END
$$$$
