
     RDKit          3D

 76 78  0  0  0  0  0  0  0  0999 V2000
   10.0790   -0.9167   -1.7070 C   0  0  0  0  0  0  0  0  0  0  0  0
    9.1319    0.0402   -1.0006 C   0  0  0  0  0  0  0  0  0  0  0  0
    7.8165   -0.5085   -0.9978 O   0  0  0  0  0  0  0  0  0  0  0  0
    6.7086    0.0814   -0.3694 C   0  0  0  0  0  0  0  0  0  0  0  0
    6.7985    1.3198    0.2943 C   0  0  0  0  0  0  0  0  0  0  0  0
    5.6816    1.8621    0.9316 C   0  0  0  0  0  0  0  0  0  0  0  0
    4.4619    1.1721    0.9306 C   0  0  0  0  0  0  0  0  0  0  0  0
    3.2644    1.7464    1.6366 C   0  0  0  0  0  0  0  0  0  0  0  0
    2.4591    2.6499    0.6963 C   0  0  0  0  0  0  0  0  0  0  0  0
    1.2228    3.2359    1.3887 C   0  0  0  0  0  0  0  0  0  0  0  0
    0.2973    2.1801    1.7934 N   0  0  0  0  0  0  0  0  0  0  0  0
   -0.4887    1.4383    0.8492 C   0  0  0  0  0  0  0  0  0  0  0  0
   -0.6195    1.8708   -0.3266 O   0  0  0  0  0  0  0  0  0  0  0  0
   -1.1945    0.1767    1.2913 C   0  0  0  0  0  0  0  0  0  0  0  0
   -2.6733    0.4379    1.6434 C   0  0  0  0  0  0  0  0  0  0  0  0
   -3.2822   -0.6790    2.4691 C   0  0  0  0  0  0  0  0  0  0  0  0
   -2.5344   -1.3996    3.1860 O   0  0  0  0  0  0  0  0  0  0  0  0
   -4.7026   -0.8685    2.5729 N   0  0  0  0  0  0  0  0  0  0  0  0
   -5.6886   -0.3846    1.6050 C   0  0  0  0  0  0  0  0  0  0  0  0
   -6.1895    1.0055    2.0317 C   0  0  0  0  0  0  0  0  0  0  0  0
   -7.1065    1.5103    1.0975 O   0  0  0  0  0  0  0  0  0  0  0  0
   -6.8048   -1.4018    1.4768 C   0  0  0  0  0  0  0  0  0  0  0  0
   -7.9287   -1.1683    2.0038 O   0  0  0  0  0  0  0  0  0  0  0  0
   -6.6136   -2.6566    0.7945 N   0  0  0  0  0  0  0  0  0  0  0  0
   -5.3167   -3.2206    0.4095 C   0  0  0  0  0  0  0  0  0  0  0  0
   -4.8507   -2.6799   -0.9460 C   0  0  0  0  0  0  0  0  0  0  0  0
   -3.8251   -1.6996   -0.7658 O   0  0  0  0  0  0  0  0  0  0  0  0
   -3.5537   -0.6489   -1.6578 C   0  0  0  0  0  0  0  0  0  0  0  0
   -4.5775   -0.0217   -2.3979 C   0  0  0  0  0  0  0  0  0  0  0  0
   -4.2751    0.9929   -3.3074 C   0  0  0  0  0  0  0  0  0  0  0  0
   -2.9569    1.3978   -3.4902 C   0  0  0  0  0  0  0  0  0  0  0  0
   -1.9346    0.7961   -2.7554 C   0  0  0  0  0  0  0  0  0  0  0  0
   -2.2278   -0.1961   -1.8038 C   0  0  0  0  0  0  0  0  0  0  0  0
   -1.1090   -0.8528   -1.0951 C   0  0  0  0  0  0  0  0  0  0  0  0
   -0.1872   -1.3763   -1.7805 O   0  0  0  0  0  0  0  0  0  0  0  0
   -1.0392   -0.9433    0.3406 N   0  0  0  0  0  0  0  0  0  0  0  0
    4.3581   -0.0451    0.2411 C   0  0  0  0  0  0  0  0  0  0  0  0
    5.4801   -0.5975   -0.4083 C   0  0  0  0  0  0  0  0  0  0  0  0
    5.4158   -1.8203   -1.0955 O   0  0  0  0  0  0  0  0  0  0  0  0
    4.2416   -2.6172   -1.2133 C   0  0  0  0  0  0  0  0  0  0  0  0
   11.1052   -0.4932   -1.7145 H   0  0  0  0  0  0  0  0  0  0  0  0
   10.0999   -1.8894   -1.1723 H   0  0  0  0  0  0  0  0  0  0  0  0
    9.7478   -1.0828   -2.7546 H   0  0  0  0  0  0  0  0  0  0  0  0
    9.1308    1.0141   -1.5353 H   0  0  0  0  0  0  0  0  0  0  0  0
    9.4801    0.1864    0.0456 H   0  0  0  0  0  0  0  0  0  0  0  0
    7.7297    1.8685    0.3265 H   0  0  0  0  0  0  0  0  0  0  0  0
    5.7707    2.8156    1.4365 H   0  0  0  0  0  0  0  0  0  0  0  0
    3.5976    2.3298    2.5225 H   0  0  0  0  0  0  0  0  0  0  0  0
    2.6228    0.9182    2.0104 H   0  0  0  0  0  0  0  0  0  0  0  0
    3.1033    3.4900    0.3571 H   0  0  0  0  0  0  0  0  0  0  0  0
    2.1463    2.0739   -0.2001 H   0  0  0  0  0  0  0  0  0  0  0  0
    1.5429    3.8070    2.2856 H   0  0  0  0  0  0  0  0  0  0  0  0
    0.7084    3.9429    0.7051 H   0  0  0  0  0  0  0  0  0  0  0  0
    0.2260    1.9517    2.8087 H   0  0  0  0  0  0  0  0  0  0  0  0
   -0.6784   -0.1255    2.2296 H   0  0  0  0  0  0  0  0  0  0  0  0
   -2.7400    1.3675    2.2505 H   0  0  0  0  0  0  0  0  0  0  0  0
   -3.2425    0.6210    0.7157 H   0  0  0  0  0  0  0  0  0  0  0  0
   -5.0467   -1.4427    3.3764 H   0  0  0  0  0  0  0  0  0  0  0  0
   -5.2350   -0.2792    0.6069 H   0  0  0  0  0  0  0  0  0  0  0  0
   -5.3287    1.7029    2.1385 H   0  0  0  0  0  0  0  0  0  0  0  0
   -6.6835    0.9404    3.0257 H   0  0  0  0  0  0  0  0  0  0  0  0
   -6.5699    1.8931    0.3526 H   0  0  0  0  0  0  0  0  0  0  0  0
   -7.4519   -3.2742    0.6865 H   0  0  0  0  0  0  0  0  0  0  0  0
   -5.4296   -4.3241    0.3224 H   0  0  0  0  0  0  0  0  0  0  0  0
   -4.5591   -3.0517    1.2005 H   0  0  0  0  0  0  0  0  0  0  0  0
   -4.4265   -3.5122   -1.5470 H   0  0  0  0  0  0  0  0  0  0  0  0
   -5.7246   -2.2946   -1.5094 H   0  0  0  0  0  0  0  0  0  0  0  0
   -5.6157   -0.2866   -2.2656 H   0  0  0  0  0  0  0  0  0  0  0  0
   -5.0690    1.4704   -3.8696 H   0  0  0  0  0  0  0  0  0  0  0  0
   -2.7239    2.1738   -4.2061 H   0  0  0  0  0  0  0  0  0  0  0  0
   -0.9120    1.1125   -2.9221 H   0  0  0  0  0  0  0  0  0  0  0  0
   -0.5295   -1.7746    0.7113 H   0  0  0  0  0  0  0  0  0  0  0  0
    3.4041   -0.5566    0.2246 H   0  0  0  0  0  0  0  0  0  0  0  0
    3.4451   -2.0461   -1.7356 H   0  0  0  0  0  0  0  0  0  0  0  0
    4.4766   -3.5227   -1.8093 H   0  0  0  0  0  0  0  0  0  0  0  0
    3.8924   -2.9348   -0.2081 H   0  0  0  0  0  0  0  0  0  0  0  0
  1  2  1  0
  2  3  1  0
  3  4  1  0
  4  5  2  0
  5  6  1  0
  6  7  2  0
  7  8  1  0
  8  9  1  0
  9 10  1  0
 10 11  1  0
 11 12  1  0
 12 13  2  0
 12 14  1  0
 14 15  1  0
 15 16  1  0
 16 17  2  0
 16 18  1  0
 18 19  1  0
 19 20  1  0
 20 21  1  0
 19 22  1  0
 22 23  2  0
 22 24  1  0
 24 25  1  0
 25 26  1  0
 26 27  1  0
 27 28  1  0
 28 29  2  0
 29 30  1  0
 30 31  2  0
 31 32  1  0
 32 33  2  0
 33 34  1  0
 34 35  2  0
 34 36  1  0
  7 37  1  0
 37 38  2  0
 38 39  1  0
 39 40  1  0
 38  4  1  0
 36 14  1  0
 33 28  1  0
  1 41  1  0
  1 42  1  0
  1 43  1  0
  2 44  1  0
  2 45  1  0
  5 46  1  0
  6 47  1  0
  8 48  1  0
  8 49  1  0
  9 50  1  0
  9 51  1  0
 10 52  1  0
 10 53  1  0
 11 54  1  0
 14 55  1  0
 15 56  1  0
 15 57  1  0
 18 58  1  0
 19 59  1  0
 20 60  1  0
 20 61  1  0
 21 62  1  0
 24 63  1  0
 25 64  1  0
 25 65  1  0
 26 66  1  0
 26 67  1  0
 29 68  1  0
 30 69  1  0
 31 70  1  0
 32 71  1  0
 36 72  1  0
 37 73  1  0
 40 74  1  0
 40 75  1  0
 40 76  1  0
M  END
$$$$
