
     RDKit          3D

 74 76  0  0  0  0  0  0  0  0999 V2000
    6.3006   -0.1509    1.6836 C   0  0  0  0  0  0  0  0  0  0  0  0
    5.4467    0.3498    0.6789 O   0  0  0  0  0  0  0  0  0  0  0  0
    4.9080   -0.7284   -0.0603 C   0  0  0  0  0  0  0  0  0  0  0  0
    4.0897   -0.1987   -1.2543 C   0  0  0  0  0  0  0  0  0  0  0  0
    5.0055    0.4179   -2.3176 C   0  0  0  0  0  0  0  0  0  0  0  0
    4.9472    1.9210   -2.0840 C   0  0  0  0  0  0  0  0  0  0  0  0
    3.6155    2.1695   -1.3960 C   0  0  0  0  0  0  0  0  0  0  0  0
    3.1852    0.8818   -0.8605 N   0  0  0  0  0  0  0  0  0  0  0  0
    1.8153    0.6898   -0.4440 C   0  0  0  0  0  0  0  0  0  0  0  0
    0.9277    1.4695   -0.8879 O   0  0  0  0  0  0  0  0  0  0  0  0
    1.3962   -0.4208    0.5000 C   0  0  0  0  0  0  0  0  0  0  0  0
    0.8724   -1.6559   -0.2661 C   0  0  0  0  0  0  0  0  0  0  0  0
   -0.2382   -1.3018   -1.2726 C   0  0  0  0  0  0  0  0  0  0  0  0
   -1.1830   -2.4382   -1.4939 C   0  0  0  0  0  0  0  0  0  0  0  0
   -1.1002   -3.1363   -2.5395 O   0  0  0  0  0  0  0  0  0  0  0  0
   -2.2280   -2.6802   -0.5447 N   0  0  0  0  0  0  0  0  0  0  0  0
   -3.6141   -2.8443   -0.9866 C   0  0  0  0  0  0  0  0  0  0  0  0
   -4.5116   -3.3937    0.1615 C   0  0  0  0  0  0  0  0  0  0  0  0
   -6.0080   -3.3449   -0.1952 C   0  0  0  0  0  0  0  0  0  0  0  0
   -4.1160   -4.8380    0.5078 C   0  0  0  0  0  0  0  0  0  0  0  0
   -4.1145   -1.5485   -1.6122 C   0  0  0  0  0  0  0  0  0  0  0  0
   -4.5505   -1.6007   -2.7950 O   0  0  0  0  0  0  0  0  0  0  0  0
   -4.0717   -0.2608   -0.9633 N   0  0  0  0  0  0  0  0  0  0  0  0
   -3.8050   -0.0364    0.4605 C   0  0  0  0  0  0  0  0  0  0  0  0
   -4.0170    1.4328    0.8532 C   0  0  0  0  0  0  0  0  0  0  0  0
   -2.8918    2.3628    0.3890 C   0  0  0  0  0  0  0  0  0  0  0  0
   -1.6872    2.0753    1.1028 O   0  0  0  0  0  0  0  0  0  0  0  0
   -0.5927    2.9503    1.2421 C   0  0  0  0  0  0  0  0  0  0  0  0
   -0.6072    4.2608    0.7228 C   0  0  0  0  0  0  0  0  0  0  0  0
    0.4591    5.1285    0.9637 C   0  0  0  0  0  0  0  0  0  0  0  0
    1.5528    4.7048    1.7186 C   0  0  0  0  0  0  0  0  0  0  0  0
    1.6000    3.3999    2.2076 C   0  0  0  0  0  0  0  0  0  0  0  0
    0.5459    2.5104    1.9513 C   0  0  0  0  0  0  0  0  0  0  0  0
    0.6669    1.1061    2.3744 C   0  0  0  0  0  0  0  0  0  0  0  0
    1.0406    0.8272    3.5410 O   0  0  0  0  0  0  0  0  0  0  0  0
    0.3799    0.0522    1.4520 N   0  0  0  0  0  0  0  0  0  0  0  0
    5.7653   -0.8496    2.3641 H   0  0  0  0  0  0  0  0  0  0  0  0
    7.1901   -0.6474    1.2373 H   0  0  0  0  0  0  0  0  0  0  0  0
    6.6643    0.6995    2.2957 H   0  0  0  0  0  0  0  0  0  0  0  0
    5.7149   -1.3893   -0.4546 H   0  0  0  0  0  0  0  0  0  0  0  0
    4.2658   -1.3624    0.5836 H   0  0  0  0  0  0  0  0  0  0  0  0
    3.5213   -1.0336   -1.7165 H   0  0  0  0  0  0  0  0  0  0  0  0
    4.5970    0.1926   -3.3292 H   0  0  0  0  0  0  0  0  0  0  0  0
    6.0555    0.0500   -2.2720 H   0  0  0  0  0  0  0  0  0  0  0  0
    5.0248    2.4804   -3.0412 H   0  0  0  0  0  0  0  0  0  0  0  0
    5.7804    2.2295   -1.4133 H   0  0  0  0  0  0  0  0  0  0  0  0
    3.7222    2.9118   -0.5747 H   0  0  0  0  0  0  0  0  0  0  0  0
    2.8780    2.5408   -2.1415 H   0  0  0  0  0  0  0  0  0  0  0  0
    2.2729   -0.7310    1.0979 H   0  0  0  0  0  0  0  0  0  0  0  0
    0.5030   -2.3968    0.4760 H   0  0  0  0  0  0  0  0  0  0  0  0
    1.7074   -2.1468   -0.8070 H   0  0  0  0  0  0  0  0  0  0  0  0
    0.2180   -0.9935   -2.2394 H   0  0  0  0  0  0  0  0  0  0  0  0
   -0.8401   -0.4435   -0.9047 H   0  0  0  0  0  0  0  0  0  0  0  0
   -2.0402   -2.4402    0.4532 H   0  0  0  0  0  0  0  0  0  0  0  0
   -3.6193   -3.6159   -1.7886 H   0  0  0  0  0  0  0  0  0  0  0  0
   -4.3567   -2.7968    1.0825 H   0  0  0  0  0  0  0  0  0  0  0  0
   -6.2056   -3.8933   -1.1426 H   0  0  0  0  0  0  0  0  0  0  0  0
   -6.3449   -2.2897   -0.3015 H   0  0  0  0  0  0  0  0  0  0  0  0
   -6.6104   -3.8079    0.6157 H   0  0  0  0  0  0  0  0  0  0  0  0
   -4.7012   -5.1986    1.3798 H   0  0  0  0  0  0  0  0  0  0  0  0
   -4.3033   -5.5160   -0.3535 H   0  0  0  0  0  0  0  0  0  0  0  0
   -3.0399   -4.8917    0.7741 H   0  0  0  0  0  0  0  0  0  0  0  0
   -4.3319    0.5615   -1.5546 H   0  0  0  0  0  0  0  0  0  0  0  0
   -2.7719   -0.3376    0.7138 H   0  0  0  0  0  0  0  0  0  0  0  0
   -4.5198   -0.6307    1.0586 H   0  0  0  0  0  0  0  0  0  0  0  0
   -4.9855    1.7925    0.4402 H   0  0  0  0  0  0  0  0  0  0  0  0
   -4.0869    1.4974    1.9613 H   0  0  0  0  0  0  0  0  0  0  0  0
   -3.2284    3.3990    0.6070 H   0  0  0  0  0  0  0  0  0  0  0  0
   -2.7127    2.2626   -0.7025 H   0  0  0  0  0  0  0  0  0  0  0  0
   -1.4409    4.6272    0.1436 H   0  0  0  0  0  0  0  0  0  0  0  0
    0.4317    6.1357    0.5706 H   0  0  0  0  0  0  0  0  0  0  0  0
    2.3742    5.3813    1.9115 H   0  0  0  0  0  0  0  0  0  0  0  0
    2.4710    3.0752    2.7611 H   0  0  0  0  0  0  0  0  0  0  0  0
   -0.4362   -0.5566    1.6731 H   0  0  0  0  0  0  0  0  0  0  0  0
  1  2  1  0
  2  3  1  0
  3  4  1  0
  4  5  1  0
  5  6  1  0
  6  7  1  0
  7  8  1  0
  8  9  1  0
  9 10  2  0
  9 11  1  0
 11 12  1  0
 12 13  1  0
 13 14  1  0
 14 15  2  0
 14 16  1  0
 16 17  1  0
 17 18  1  0
 18 19  1  0
 18 20  1  0
 17 21  1  0
 21 22  2  0
 21 23  1  0
 23 24  1  0
 24 25  1  0
 25 26  1  0
 26 27  1  0
 27 28  1  0
 28 29  2  0
 29 30  1  0
 30 31  2  0
 31 32  1  0
 32 33  2  0
 33 34  1  0
 34 35  2  0
 34 36  1  0
  8  4  1  0
 36 11  1  0
 33 28  1  0
  1 37  1  0
  1 38  1  0
  1 39  1  0
  3 40  1  0
  3 41  1  0
  4 42  1  0
  5 43  1  0
  5 44  1  0
  6 45  1  0
  6 46  1  0
  7 47  1  0
  7 48  1  0
 11 49  1  0
 12 50  1  0
 12 51  1  0
 13 52  1  0
 13 53  1  0
 16 54  1  0
 17 55  1  0
 18 56  1  0
 19 57  1  0
 19 58  1  0
 19 59  1  0
 20 60  1  0
 20 61  1  0
 20 62  1  0
 23 63  1  0
 24 64  1  0
 24 65  1  0
 25 66  1  0
 25 67  1  0
 26 68  1  0
 26 69  1  0
 29 70  1  0
 30 71  1  0
 31 72  1  0
 32 73  1  0
 36 74  1  0
M  END
$$$$
