
     RDKit          3D

 70 71  0  0  0  0  0  0  0  0999 V2000
    7.5128    0.4162    2.0662 C   0  0  0  0  0  0  0  0  0  0  0  0
    7.3336   -0.8754    1.2729 C   0  0  0  0  0  0  0  0  0  0  0  0
    6.1372   -0.8016    0.4193 N   0  0  0  0  0  0  0  0  0  0  0  0
    6.3077   -0.8097   -1.0437 C   0  0  0  0  0  0  0  0  0  0  0  0
    6.8804    0.5173   -1.5449 C   0  0  0  0  0  0  0  0  0  0  0  0
    6.0443    1.5776   -1.1740 O   0  0  0  0  0  0  0  0  0  0  0  0
    4.8259   -0.8358    1.0311 C   0  0  0  0  0  0  0  0  0  0  0  0
    4.7040   -1.2767    2.2084 O   0  0  0  0  0  0  0  0  0  0  0  0
    3.5893   -0.4038    0.2796 C   0  0  0  0  0  0  0  0  0  0  0  0
    2.4808    0.0934    1.2170 C   0  0  0  0  0  0  0  0  0  0  0  0
    1.3020    0.5960    0.4260 C   0  0  0  0  0  0  0  0  0  0  0  0
    1.1963    1.9521    0.1026 C   0  0  0  0  0  0  0  0  0  0  0  0
    0.1403    2.4034   -0.6856 C   0  0  0  0  0  0  0  0  0  0  0  0
   -0.8448    1.5206   -1.1432 C   0  0  0  0  0  0  0  0  0  0  0  0
   -0.7795    0.1435   -0.7881 C   0  0  0  0  0  0  0  0  0  0  0  0
    0.3377   -0.3022   -0.0516 C   0  0  0  0  0  0  0  0  0  0  0  0
   -1.7714   -0.8925   -1.3014 C   0  0  0  0  0  0  0  0  0  0  0  0
   -2.9130   -1.1382   -0.3653 N   0  0  0  0  0  0  0  0  0  0  0  0
   -2.4887   -1.9604    0.8175 C   0  0  0  0  0  0  0  0  0  0  0  0
   -3.3261   -1.6582    2.0685 C   0  0  0  0  0  0  0  0  0  0  0  0
   -2.4034   -3.4785    0.5577 C   0  0  0  0  0  0  0  0  0  0  0  0
   -4.0593   -1.7024   -1.1373 C   0  0  0  0  0  0  0  0  0  0  0  0
   -5.3316   -1.8729   -0.3354 C   0  0  0  0  0  0  0  0  0  0  0  0
   -5.7094   -3.0432   -0.0607 O   0  0  0  0  0  0  0  0  0  0  0  0
   -6.1402   -0.7734    0.1220 N   0  0  0  0  0  0  0  0  0  0  0  0
   -6.0824    0.5944   -0.3889 C   0  0  0  0  0  0  0  0  0  0  0  0
   -5.2667    1.4802    0.5610 C   0  0  0  0  0  0  0  0  0  0  0  0
   -4.9552    2.8682   -0.0398 C   0  0  0  0  0  0  0  0  0  0  0  0
   -3.4981    2.9926   -0.5151 C   0  0  0  0  0  0  0  0  0  0  0  0
   -3.2050    2.0841   -1.7130 C   0  0  0  0  0  0  0  0  0  0  0  0
   -1.8142    2.0476   -2.0066 O   0  0  0  0  0  0  0  0  0  0  0  0
    6.6472    0.5833    2.7403 H   0  0  0  0  0  0  0  0  0  0  0  0
    7.6068    1.2802    1.3752 H   0  0  0  0  0  0  0  0  0  0  0  0
    8.4339    0.3497    2.6824 H   0  0  0  0  0  0  0  0  0  0  0  0
    7.2504   -1.7370    1.9702 H   0  0  0  0  0  0  0  0  0  0  0  0
    8.2459   -1.0407    0.6590 H   0  0  0  0  0  0  0  0  0  0  0  0
    5.3507   -1.0189   -1.5653 H   0  0  0  0  0  0  0  0  0  0  0  0
    6.9986   -1.6325   -1.3291 H   0  0  0  0  0  0  0  0  0  0  0  0
    6.9627    0.4758   -2.6536 H   0  0  0  0  0  0  0  0  0  0  0  0
    7.8983    0.6719   -1.1235 H   0  0  0  0  0  0  0  0  0  0  0  0
    6.4671    2.4003   -1.5331 H   0  0  0  0  0  0  0  0  0  0  0  0
    3.2146   -1.2657   -0.3133 H   0  0  0  0  0  0  0  0  0  0  0  0
    3.8495    0.4197   -0.4177 H   0  0  0  0  0  0  0  0  0  0  0  0
    2.1499   -0.7333    1.8838 H   0  0  0  0  0  0  0  0  0  0  0  0
    2.8769    0.9058    1.8661 H   0  0  0  0  0  0  0  0  0  0  0  0
    1.9467    2.6573    0.4379 H   0  0  0  0  0  0  0  0  0  0  0  0
    0.0908    3.4507   -0.9560 H   0  0  0  0  0  0  0  0  0  0  0  0
    0.4781   -1.3603    0.1342 H   0  0  0  0  0  0  0  0  0  0  0  0
   -1.2363   -1.8413   -1.5214 H   0  0  0  0  0  0  0  0  0  0  0  0
   -2.1286   -0.5502   -2.2973 H   0  0  0  0  0  0  0  0  0  0  0  0
   -1.4754   -1.6558    1.1284 H   0  0  0  0  0  0  0  0  0  0  0  0
   -4.3456   -2.0819    2.0125 H   0  0  0  0  0  0  0  0  0  0  0  0
   -2.8377   -2.1060    2.9607 H   0  0  0  0  0  0  0  0  0  0  0  0
   -3.3841   -0.5648    2.2380 H   0  0  0  0  0  0  0  0  0  0  0  0
   -3.4068   -3.9345    0.4523 H   0  0  0  0  0  0  0  0  0  0  0  0
   -1.9001   -3.9755    1.4144 H   0  0  0  0  0  0  0  0  0  0  0  0
   -1.8087   -3.6977   -0.3518 H   0  0  0  0  0  0  0  0  0  0  0  0
   -3.7748   -2.6779   -1.5904 H   0  0  0  0  0  0  0  0  0  0  0  0
   -4.3016   -1.0541   -2.0033 H   0  0  0  0  0  0  0  0  0  0  0  0
   -6.8913   -0.9865    0.8169 H   0  0  0  0  0  0  0  0  0  0  0  0
   -7.1172    0.9980   -0.4419 H   0  0  0  0  0  0  0  0  0  0  0  0
   -5.6992    0.6104   -1.4263 H   0  0  0  0  0  0  0  0  0  0  0  0
   -5.8503    1.6115    1.4990 H   0  0  0  0  0  0  0  0  0  0  0  0
   -4.3270    0.9629    0.8392 H   0  0  0  0  0  0  0  0  0  0  0  0
   -5.6503    3.1158   -0.8723 H   0  0  0  0  0  0  0  0  0  0  0  0
   -5.1162    3.6357    0.7485 H   0  0  0  0  0  0  0  0  0  0  0  0
   -3.2998    4.0462   -0.8086 H   0  0  0  0  0  0  0  0  0  0  0  0
   -2.8177    2.7463    0.3292 H   0  0  0  0  0  0  0  0  0  0  0  0
   -3.5542    1.0677   -1.5159 H   0  0  0  0  0  0  0  0  0  0  0  0
   -3.7486    2.4635   -2.6037 H   0  0  0  0  0  0  0  0  0  0  0  0
  1  2  1  0
  2  3  1  0
  3  4  1  0
  4  5  1  0
  5  6  1  0
  3  7  1  0
  7  8  2  0
  7  9  1  0
  9 10  1  0
 10 11  1  0
 11 12  2  0
 12 13  1  0
 13 14  2  0
 14 15  1  0
 15 16  2  0
 15 17  1  0
 17 18  1  0
 18 19  1  0
 19 20  1  0
 19 21  1  0
 18 22  1  0
 22 23  1  0
 23 24  2  0
 23 25  1  0
 25 26  1  0
 26 27  1  0
 27 28  1  0
 28 29  1  0
 29 30  1  0
 30 31  1  0
 16 11  1  0
 31 14  1  0
  1 32  1  0
  1 33  1  0
  1 34  1  0
  2 35  1  0
  2 36  1  0
  4 37  1  0
  4 38  1  0
  5 39  1  0
  5 40  1  0
  6 41  1  0
  9 42  1  0
  9 43  1  0
 10 44  1  0
 10 45  1  0
 12 46  1  0
 13 47  1  0
 16 48  1  0
 17 49  1  0
 17 50  1  0
 19 51  1  0
 20 52  1  0
 20 53  1  0
 20 54  1  0
 21 55  1  0
 21 56  1  0
 21 57  1  0
 22 58  1  0
 22 59  1  0
 25 60  1  0
 26 61  1  0
 26 62  1  0
 27 63  1  0
 27 64  1  0
 28 65  1  0
 28 66  1  0
 29 67  1  0
 29 68  1  0
 30 69  1  0
 30 70  1  0
M  END
$$$$
