
     RDKit          3D

 67 68  0  0  0  0  0  0  0  0999 V2000
   -3.3024    2.9877   -1.9176 C   0  0  0  0  0  0  0  0  0  0  0  0
   -1.8947    2.6681   -1.3822 C   0  0  0  0  0  0  0  0  0  0  0  0
   -1.3444    3.8260   -0.5363 C   0  0  0  0  0  0  0  0  0  0  0  0
   -1.8293    1.3788   -0.6396 N   0  0  0  0  0  0  0  0  0  0  0  0
   -2.8058    1.2716    0.4728 C   0  0  0  0  0  0  0  0  0  0  0  0
   -2.3308    0.2913    1.5132 C   0  0  0  0  0  0  0  0  0  0  0  0
   -1.1020    0.2577    1.7959 O   0  0  0  0  0  0  0  0  0  0  0  0
   -3.2374   -0.5262    2.2737 N   0  0  0  0  0  0  0  0  0  0  0  0
   -4.6910   -0.5441    2.0973 C   0  0  0  0  0  0  0  0  0  0  0  0
   -5.0872   -1.4665    0.9363 C   0  0  0  0  0  0  0  0  0  0  0  0
   -4.8943   -2.9560    1.2902 C   0  0  0  0  0  0  0  0  0  0  0  0
   -4.3589   -3.7908    0.1129 C   0  0  0  0  0  0  0  0  0  0  0  0
   -2.8321   -3.7220   -0.0119 C   0  0  0  0  0  0  0  0  0  0  0  0
   -2.4170   -2.4377   -0.4733 O   0  0  0  0  0  0  0  0  0  0  0  0
   -1.0787   -2.0576   -0.6769 C   0  0  0  0  0  0  0  0  0  0  0  0
   -0.0122   -2.9272   -0.3743 C   0  0  0  0  0  0  0  0  0  0  0  0
    1.3096   -2.5303   -0.5799 C   0  0  0  0  0  0  0  0  0  0  0  0
    1.5960   -1.2627   -1.1001 C   0  0  0  0  0  0  0  0  0  0  0  0
    3.0248   -0.8345   -1.3097 C   0  0  0  0  0  0  0  0  0  0  0  0
    3.5855   -0.1712   -0.0440 C   0  0  0  0  0  0  0  0  0  0  0  0
    5.0390    0.2249   -0.1821 C   0  0  0  0  0  0  0  0  0  0  0  0
    5.6063    0.1283   -1.3069 O   0  0  0  0  0  0  0  0  0  0  0  0
    5.7830    0.7283    0.9511 N   0  0  0  0  0  0  0  0  0  0  0  0
    5.0928    1.0883    2.1942 C   0  0  0  0  0  0  0  0  0  0  0  0
    7.2311    0.9625    0.8465 C   0  0  0  0  0  0  0  0  0  0  0  0
    7.5302    2.4301    0.5338 C   0  0  0  0  0  0  0  0  0  0  0  0
    7.0287    2.7823   -0.7268 O   0  0  0  0  0  0  0  0  0  0  0  0
    0.5427   -0.3847   -1.3894 C   0  0  0  0  0  0  0  0  0  0  0  0
   -0.7930   -0.7735   -1.1915 C   0  0  0  0  0  0  0  0  0  0  0  0
   -1.8863    0.2028   -1.5464 C   0  0  0  0  0  0  0  0  0  0  0  0
   -3.2653    3.8968   -2.5555 H   0  0  0  0  0  0  0  0  0  0  0  0
   -4.0187    3.1731   -1.0894 H   0  0  0  0  0  0  0  0  0  0  0  0
   -3.6794    2.1466   -2.5379 H   0  0  0  0  0  0  0  0  0  0  0  0
   -1.2122    2.6101   -2.2604 H   0  0  0  0  0  0  0  0  0  0  0  0
   -2.0651    4.1496    0.2426 H   0  0  0  0  0  0  0  0  0  0  0  0
   -0.3936    3.5213   -0.0488 H   0  0  0  0  0  0  0  0  0  0  0  0
   -1.1366    4.7007   -1.1885 H   0  0  0  0  0  0  0  0  0  0  0  0
   -2.9287    2.2411    0.9944 H   0  0  0  0  0  0  0  0  0  0  0  0
   -3.8067    1.0033    0.0793 H   0  0  0  0  0  0  0  0  0  0  0  0
   -2.8351   -1.1140    3.0382 H   0  0  0  0  0  0  0  0  0  0  0  0
   -5.1713   -0.9065    3.0334 H   0  0  0  0  0  0  0  0  0  0  0  0
   -5.0707    0.4856    1.9246 H   0  0  0  0  0  0  0  0  0  0  0  0
   -6.1588   -1.2916    0.6940 H   0  0  0  0  0  0  0  0  0  0  0  0
   -4.5161   -1.1885    0.0297 H   0  0  0  0  0  0  0  0  0  0  0  0
   -5.8816   -3.3667    1.5945 H   0  0  0  0  0  0  0  0  0  0  0  0
   -4.2259   -3.0862    2.1691 H   0  0  0  0  0  0  0  0  0  0  0  0
   -4.8395   -3.4869   -0.8416 H   0  0  0  0  0  0  0  0  0  0  0  0
   -4.6307   -4.8515    0.2967 H   0  0  0  0  0  0  0  0  0  0  0  0
   -2.3669   -3.9468    0.9730 H   0  0  0  0  0  0  0  0  0  0  0  0
   -2.5009   -4.4934   -0.7390 H   0  0  0  0  0  0  0  0  0  0  0  0
   -0.1924   -3.9169    0.0221 H   0  0  0  0  0  0  0  0  0  0  0  0
    2.1127   -3.2147   -0.3339 H   0  0  0  0  0  0  0  0  0  0  0  0
    3.6444   -1.7204   -1.5737 H   0  0  0  0  0  0  0  0  0  0  0  0
    3.0814   -0.1215   -2.1614 H   0  0  0  0  0  0  0  0  0  0  0  0
    2.9855    0.7361    0.1864 H   0  0  0  0  0  0  0  0  0  0  0  0
    3.4887   -0.8827    0.8051 H   0  0  0  0  0  0  0  0  0  0  0  0
    4.3087    1.8451    1.9838 H   0  0  0  0  0  0  0  0  0  0  0  0
    5.7977    1.5222    2.9355 H   0  0  0  0  0  0  0  0  0  0  0  0
    4.6303    0.1866    2.6455 H   0  0  0  0  0  0  0  0  0  0  0  0
    7.6830    0.3140    0.0653 H   0  0  0  0  0  0  0  0  0  0  0  0
    7.7237    0.6892    1.8041 H   0  0  0  0  0  0  0  0  0  0  0  0
    7.1116    3.0894    1.3283 H   0  0  0  0  0  0  0  0  0  0  0  0
    8.6314    2.5757    0.5263 H   0  0  0  0  0  0  0  0  0  0  0  0
    6.0796    3.0441   -0.5940 H   0  0  0  0  0  0  0  0  0  0  0  0
    0.7609    0.6037   -1.7791 H   0  0  0  0  0  0  0  0  0  0  0  0
   -1.7287    0.4895   -2.6104 H   0  0  0  0  0  0  0  0  0  0  0  0
   -2.8871   -0.2789   -1.5373 H   0  0  0  0  0  0  0  0  0  0  0  0
  1  2  1  0
  2  3  1  0
  2  4  1  0
  4  5  1  0
  5  6  1  0
  6  7  2  0
  6  8  1  0
  8  9  1  0
  9 10  1  0
 10 11  1  0
 11 12  1  0
 12 13  1  0
 13 14  1  0
 14 15  1  0
 15 16  2  0
 16 17  1  0
 17 18  2  0
 18 19  1  0
 19 20  1  0
 20 21  1  0
 21 22  2  0
 21 23  1  0
 23 24  1  0
 23 25  1  0
 25 26  1  0
 26 27  1  0
 18 28  1  0
 28 29  2  0
 29 30  1  0
 30  4  1  0
 29 15  1  0
  1 31  1  0
  1 32  1  0
  1 33  1  0
  2 34  1  0
  3 35  1  0
  3 36  1  0
  3 37  1  0
  5 38  1  0
  5 39  1  0
  8 40  1  0
  9 41  1  0
  9 42  1  0
 10 43  1  0
 10 44  1  0
 11 45  1  0
 11 46  1  0
 12 47  1  0
 12 48  1  0
 13 49  1  0
 13 50  1  0
 16 51  1  0
 17 52  1  0
 19 53  1  0
 19 54  1  0
 20 55  1  0
 20 56  1  0
 24 57  1  0
 24 58  1  0
 24 59  1  0
 25 60  1  0
 25 61  1  0
 26 62  1  0
 26 63  1  0
 27 64  1  0
 28 65  1  0
 30 66  1  0
 30 67  1  0
M  END
$$$$
