
     RDKit          3D

 73 75  0  0  0  0  0  0  0  0999 V2000
   -2.5647   -0.3333    3.4274 C   0  0  0  0  0  0  0  0  0  0  0  0
   -3.1472   -1.2104    2.3096 C   0  0  0  0  0  0  0  0  0  0  0  0
   -2.9864   -2.6972    2.6701 C   0  0  0  0  0  0  0  0  0  0  0  0
   -2.5391   -0.8277    0.9315 C   0  0  0  0  0  0  0  0  0  0  0  0
   -1.0899   -1.0788    0.8900 N   0  0  0  0  0  0  0  0  0  0  0  0
   -0.0969   -0.0435    0.7896 C   0  0  0  0  0  0  0  0  0  0  0  0
    0.9778   -0.1640    1.4368 O   0  0  0  0  0  0  0  0  0  0  0  0
   -0.2405    1.1079   -0.1732 C   0  0  0  0  0  0  0  0  0  0  0  0
    0.2384    0.7132   -1.5884 C   0  0  0  0  0  0  0  0  0  0  0  0
    1.7442    0.6950   -1.6488 C   0  0  0  0  0  0  0  0  0  0  0  0
    2.3763    1.7557   -1.9102 O   0  0  0  0  0  0  0  0  0  0  0  0
    2.4566   -0.5146   -1.3481 N   0  0  0  0  0  0  0  0  0  0  0  0
    3.9094   -0.5614   -1.1970 C   0  0  0  0  0  0  0  0  0  0  0  0
    4.3329    0.1171    0.1126 C   0  0  0  0  0  0  0  0  0  0  0  0
    5.8431    0.0025    0.3660 C   0  0  0  0  0  0  0  0  0  0  0  0
    6.2381   -1.3943    0.7735 C   0  0  0  0  0  0  0  0  0  0  0  0
    6.8113   -2.2764   -0.1575 C   0  0  0  0  0  0  0  0  0  0  0  0
    7.1553   -3.5775    0.2235 C   0  0  0  0  0  0  0  0  0  0  0  0
    6.9262   -4.0076    1.5341 C   0  0  0  0  0  0  0  0  0  0  0  0
    6.3500   -3.1382    2.4644 C   0  0  0  0  0  0  0  0  0  0  0  0
    6.0046   -1.8371    2.0866 C   0  0  0  0  0  0  0  0  0  0  0  0
   -0.3084    1.5804   -2.6463 N   0  0  0  0  0  0  0  0  0  0  0  0
   -0.4912    2.9947   -2.5055 C   0  0  0  0  0  0  0  0  0  0  0  0
    0.2943    3.7757   -3.1070 O   0  0  0  0  0  0  0  0  0  0  0  0
   -1.5860    3.5586   -1.6864 C   0  0  0  0  0  0  0  0  0  0  0  0
   -1.2916    4.6221   -0.8159 C   0  0  0  0  0  0  0  0  0  0  0  0
   -2.2910    5.1891   -0.0230 C   0  0  0  0  0  0  0  0  0  0  0  0
   -3.6001    4.7154   -0.1036 C   0  0  0  0  0  0  0  0  0  0  0  0
   -3.9135    3.6726   -0.9774 C   0  0  0  0  0  0  0  0  0  0  0  0
   -2.9164    3.0756   -1.7634 C   0  0  0  0  0  0  0  0  0  0  0  0
   -3.2805    2.0698   -2.6684 O   0  0  0  0  0  0  0  0  0  0  0  0
   -3.3802    0.6868   -2.3204 C   0  0  0  0  0  0  0  0  0  0  0  0
   -4.4584    0.4082   -1.2662 C   0  0  0  0  0  0  0  0  0  0  0  0
   -4.4051   -1.0035   -0.8507 N   0  0  0  0  0  0  0  0  0  0  0  0
   -5.4983   -1.9149   -1.1996 C   0  0  0  0  0  0  0  0  0  0  0  0
   -3.2364   -1.5530   -0.2022 C   0  0  0  0  0  0  0  0  0  0  0  0
   -2.8235   -2.6951   -0.5457 O   0  0  0  0  0  0  0  0  0  0  0  0
   -2.7118    0.7419    3.1922 H   0  0  0  0  0  0  0  0  0  0  0  0
   -1.4783   -0.5275    3.5543 H   0  0  0  0  0  0  0  0  0  0  0  0
   -3.0788   -0.5475    4.3884 H   0  0  0  0  0  0  0  0  0  0  0  0
   -4.2396   -0.9976    2.2662 H   0  0  0  0  0  0  0  0  0  0  0  0
   -3.4398   -3.3456    1.8917 H   0  0  0  0  0  0  0  0  0  0  0  0
   -1.9186   -2.9707    2.8010 H   0  0  0  0  0  0  0  0  0  0  0  0
   -3.5142   -2.9095    3.6250 H   0  0  0  0  0  0  0  0  0  0  0  0
   -2.7246    0.2524    0.8213 H   0  0  0  0  0  0  0  0  0  0  0  0
   -0.7453   -2.0477    1.0751 H   0  0  0  0  0  0  0  0  0  0  0  0
   -1.2920    1.4271   -0.2051 H   0  0  0  0  0  0  0  0  0  0  0  0
    0.3387    1.9824    0.1981 H   0  0  0  0  0  0  0  0  0  0  0  0
   -0.1254   -0.3169   -1.8014 H   0  0  0  0  0  0  0  0  0  0  0  0
    1.9212   -1.4052   -1.2429 H   0  0  0  0  0  0  0  0  0  0  0  0
    4.3945   -0.0657   -2.0655 H   0  0  0  0  0  0  0  0  0  0  0  0
    4.2301   -1.6249   -1.1858 H   0  0  0  0  0  0  0  0  0  0  0  0
    4.0682    1.1950    0.0630 H   0  0  0  0  0  0  0  0  0  0  0  0
    3.7725   -0.3265    0.9650 H   0  0  0  0  0  0  0  0  0  0  0  0
    6.4054    0.3247   -0.5379 H   0  0  0  0  0  0  0  0  0  0  0  0
    6.1223    0.7052    1.1815 H   0  0  0  0  0  0  0  0  0  0  0  0
    6.9893   -1.9573   -1.1768 H   0  0  0  0  0  0  0  0  0  0  0  0
    7.5997   -4.2520   -0.4969 H   0  0  0  0  0  0  0  0  0  0  0  0
    7.1932   -5.0148    1.8277 H   0  0  0  0  0  0  0  0  0  0  0  0
    6.1701   -3.4721    3.4785 H   0  0  0  0  0  0  0  0  0  0  0  0
    5.5557   -1.1739    2.8155 H   0  0  0  0  0  0  0  0  0  0  0  0
   -0.1907    1.2315   -3.6245 H   0  0  0  0  0  0  0  0  0  0  0  0
   -0.2806    5.0032   -0.7391 H   0  0  0  0  0  0  0  0  0  0  0  0
   -2.0510    6.0016    0.6512 H   0  0  0  0  0  0  0  0  0  0  0  0
   -4.3759    5.1656    0.5028 H   0  0  0  0  0  0  0  0  0  0  0  0
   -4.9396    3.3369   -1.0557 H   0  0  0  0  0  0  0  0  0  0  0  0
   -2.4083    0.3214   -1.9565 H   0  0  0  0  0  0  0  0  0  0  0  0
   -3.6213    0.1106   -3.2385 H   0  0  0  0  0  0  0  0  0  0  0  0
   -5.4473    0.6601   -1.7046 H   0  0  0  0  0  0  0  0  0  0  0  0
   -4.3364    1.0609   -0.3816 H   0  0  0  0  0  0  0  0  0  0  0  0
   -5.1459   -2.6567   -1.9464 H   0  0  0  0  0  0  0  0  0  0  0  0
   -6.3654   -1.3718   -1.6293 H   0  0  0  0  0  0  0  0  0  0  0  0
   -5.8434   -2.4484   -0.2894 H   0  0  0  0  0  0  0  0  0  0  0  0
  1  2  1  0
  2  3  1  0
  2  4  1  0
  4  5  1  0
  5  6  1  0
  6  7  2  0
  6  8  1  0
  8  9  1  0
  9 10  1  0
 10 11  2  0
 10 12  1  0
 12 13  1  0
 13 14  1  0
 14 15  1  0
 15 16  1  0
 16 17  2  0
 17 18  1  0
 18 19  2  0
 19 20  1  0
 20 21  2  0
  9 22  1  0
 22 23  1  0
 23 24  2  0
 23 25  1  0
 25 26  2  0
 26 27  1  0
 27 28  2  0
 28 29  1  0
 29 30  2  0
 30 31  1  0
 31 32  1  0
 32 33  1  0
 33 34  1  0
 34 35  1  0
 34 36  1  0
 36 37  2  0
 36  4  1  0
 21 16  1  0
 30 25  1  0
  1 38  1  0
  1 39  1  0
  1 40  1  0
  2 41  1  0
  3 42  1  0
  3 43  1  0
  3 44  1  0
  4 45  1  0
  5 46  1  0
  8 47  1  0
  8 48  1  0
  9 49  1  0
 12 50  1  0
 13 51  1  0
 13 52  1  0
 14 53  1  0
 14 54  1  0
 15 55  1  0
 15 56  1  0
 17 57  1  0
 18 58  1  0
 19 59  1  0
 20 60  1  0
 21 61  1  0
 22 62  1  0
 26 63  1  0
 27 64  1  0
 28 65  1  0
 29 66  1  0
 32 67  1  0
 32 68  1  0
 33 69  1  0
 33 70  1  0
 35 71  1  0
 35 72  1  0
 35 73  1  0
M  END
$$$$
