
     RDKit          3D

 92 96  0  0  0  0  0  0  0  0999 V2000
   10.1003    2.9456   -0.5981 C   0  0  0  0  0  0  0  0  0  0  0  0
   10.2959    1.4999   -1.0582 C   0  0  0  0  0  0  0  0  0  0  0  0
    9.3835    0.5923   -0.3325 N   0  0  0  0  0  0  0  0  0  0  0  0
    9.6537   -0.1384    0.7706 C   0  0  0  0  0  0  0  0  0  0  0  0
   10.7748   -0.1459    1.3319 O   0  0  0  0  0  0  0  0  0  0  0  0
    8.5930   -0.8789    1.1940 N   0  0  0  0  0  0  0  0  0  0  0  0
    8.5467   -1.8254    2.3007 C   0  0  0  0  0  0  0  0  0  0  0  0
    8.8639   -3.2285    1.8092 C   0  0  0  0  0  0  0  0  0  0  0  0
    7.6173   -0.5892    0.3110 C   0  0  0  0  0  0  0  0  0  0  0  0
    6.3055   -1.0707    0.2658 C   0  0  0  0  0  0  0  0  0  0  0  0
    5.4623   -0.5879   -0.7642 C   0  0  0  0  0  0  0  0  0  0  0  0
    4.1011   -1.0352   -0.8733 N   0  0  0  0  0  0  0  0  0  0  0  0
    3.2302   -1.2547    0.2492 C   0  0  0  0  0  0  0  0  0  0  0  0
    3.6265   -1.0372    1.4341 O   0  0  0  0  0  0  0  0  0  0  0  0
    1.8216   -1.7109    0.0178 C   0  0  0  0  0  0  0  0  0  0  0  0
    1.0447   -0.7015   -0.7273 N   0  0  0  0  0  0  0  0  0  0  0  0
    0.9413    0.5753    0.0108 C   0  0  0  0  0  0  0  0  0  0  0  0
   -0.1530    1.4895   -0.5688 C   0  0  0  0  0  0  0  0  0  0  0  0
   -1.5868    0.8448   -0.4711 C   0  0  0  0  0  0  0  0  0  0  0  0
   -2.3660    1.2499   -1.7778 C   0  0  0  0  0  0  0  0  0  0  0  0
   -3.7641    0.7047   -1.9658 C   0  0  0  0  0  0  0  0  0  0  0  0
   -4.0218   -0.5071   -2.4845 C   0  0  0  0  0  0  0  0  0  0  0  0
   -5.4266   -1.0101   -2.6463 C   0  0  0  0  0  0  0  0  0  0  0  0
   -5.8218   -1.7614   -1.4409 N   0  0  0  0  0  0  0  0  0  0  0  0
   -7.0795   -1.6631   -0.7575 C   0  0  0  0  0  0  0  0  0  0  0  0
   -7.4123   -2.5885    0.0047 O   0  0  0  0  0  0  0  0  0  0  0  0
   -7.9360   -0.4688   -0.8569 C   0  0  0  0  0  0  0  0  0  0  0  0
   -9.2492   -0.5954   -1.3349 C   0  0  0  0  0  0  0  0  0  0  0  0
  -10.0557    0.5456   -1.4666 C   0  0  0  0  0  0  0  0  0  0  0  0
   -9.5756    1.8132   -1.0969 C   0  0  0  0  0  0  0  0  0  0  0  0
   -8.2891    1.9401   -0.5690 C   0  0  0  0  0  0  0  0  0  0  0  0
   -7.4684    0.7926   -0.4358 C   0  0  0  0  0  0  0  0  0  0  0  0
   -6.2064    0.9069    0.1394 O   0  0  0  0  0  0  0  0  0  0  0  0
   -6.0639    1.2825    1.5202 C   0  0  0  0  0  0  0  0  0  0  0  0
   -4.5778    1.2205    1.9600 C   0  0  0  0  0  0  0  0  0  0  0  0
   -4.1934   -0.1569    2.5930 C   0  0  0  0  0  0  0  0  0  0  0  0
   -4.8090   -0.3152    3.9967 C   0  0  0  0  0  0  0  0  0  0  0  0
   -4.5598   -1.3496    1.7091 C   0  0  0  0  0  0  0  0  0  0  0  0
   -3.7102    1.5802    0.8263 N   0  0  0  0  0  0  0  0  0  0  0  0
   -2.2876    1.3539    0.7963 C   0  0  0  0  0  0  0  0  0  0  0  0
   -1.6189    1.5433    1.8466 O   0  0  0  0  0  0  0  0  0  0  0  0
   -1.4417   -0.7035   -0.3388 C   0  0  0  0  0  0  0  0  0  0  0  0
   -0.2656   -1.2355   -1.1777 C   0  0  0  0  0  0  0  0  0  0  0  0
    5.9717    0.3378   -1.7089 C   0  0  0  0  0  0  0  0  0  0  0  0
    7.2963    0.8026   -1.6403 C   0  0  0  0  0  0  0  0  0  0  0  0
    8.0953    0.3097   -0.6091 C   0  0  0  0  0  0  0  0  0  0  0  0
   10.2585    3.0292    0.5039 H   0  0  0  0  0  0  0  0  0  0  0  0
    9.0707    3.2865   -0.8555 H   0  0  0  0  0  0  0  0  0  0  0  0
   10.8362    3.6035   -1.1217 H   0  0  0  0  0  0  0  0  0  0  0  0
   10.1060    1.4322   -2.1466 H   0  0  0  0  0  0  0  0  0  0  0  0
   11.3436    1.1964   -0.8803 H   0  0  0  0  0  0  0  0  0  0  0  0
    7.5475   -1.7919    2.7819 H   0  0  0  0  0  0  0  0  0  0  0  0
    9.2862   -1.5425    3.0698 H   0  0  0  0  0  0  0  0  0  0  0  0
    8.0236   -3.6077    1.1787 H   0  0  0  0  0  0  0  0  0  0  0  0
    9.7996   -3.2284    1.1935 H   0  0  0  0  0  0  0  0  0  0  0  0
    8.9995   -3.9168    2.6745 H   0  0  0  0  0  0  0  0  0  0  0  0
    5.9659   -1.8306    0.9557 H   0  0  0  0  0  0  0  0  0  0  0  0
    3.6448   -0.9655   -1.8220 H   0  0  0  0  0  0  0  0  0  0  0  0
    1.3348   -1.9633    0.9829 H   0  0  0  0  0  0  0  0  0  0  0  0
    1.8869   -2.6490   -0.5649 H   0  0  0  0  0  0  0  0  0  0  0  0
    1.9076    1.1161   -0.0586 H   0  0  0  0  0  0  0  0  0  0  0  0
    0.7420    0.4106    1.0915 H   0  0  0  0  0  0  0  0  0  0  0  0
   -0.1241    2.4729   -0.0436 H   0  0  0  0  0  0  0  0  0  0  0  0
    0.1165    1.6961   -1.6268 H   0  0  0  0  0  0  0  0  0  0  0  0
   -2.4583    2.3621   -1.7821 H   0  0  0  0  0  0  0  0  0  0  0  0
   -1.7719    0.9958   -2.6779 H   0  0  0  0  0  0  0  0  0  0  0  0
   -4.5904    1.3840   -1.7960 H   0  0  0  0  0  0  0  0  0  0  0  0
   -3.2064   -1.1729   -2.7575 H   0  0  0  0  0  0  0  0  0  0  0  0
   -6.1342   -0.1785   -2.8840 H   0  0  0  0  0  0  0  0  0  0  0  0
   -5.4390   -1.7121   -3.5035 H   0  0  0  0  0  0  0  0  0  0  0  0
   -5.2126   -2.5709   -1.1858 H   0  0  0  0  0  0  0  0  0  0  0  0
   -9.6344   -1.5768   -1.6341 H   0  0  0  0  0  0  0  0  0  0  0  0
  -11.0633    0.4317   -1.8426 H   0  0  0  0  0  0  0  0  0  0  0  0
  -10.2116    2.6942   -1.2186 H   0  0  0  0  0  0  0  0  0  0  0  0
   -7.9228    2.9173   -0.2669 H   0  0  0  0  0  0  0  0  0  0  0  0
   -6.4253    2.3296    1.6600 H   0  0  0  0  0  0  0  0  0  0  0  0
   -6.7124    0.6096    2.1341 H   0  0  0  0  0  0  0  0  0  0  0  0
   -4.4232    2.0009    2.7325 H   0  0  0  0  0  0  0  0  0  0  0  0
   -3.0919   -0.2162    2.7385 H   0  0  0  0  0  0  0  0  0  0  0  0
   -4.5440    0.5526    4.6366 H   0  0  0  0  0  0  0  0  0  0  0  0
   -4.4157   -1.2464    4.4658 H   0  0  0  0  0  0  0  0  0  0  0  0
   -5.9093   -0.3868    3.9587 H   0  0  0  0  0  0  0  0  0  0  0  0
   -4.1790   -1.2047    0.6819 H   0  0  0  0  0  0  0  0  0  0  0  0
   -4.1241   -2.2880    2.1308 H   0  0  0  0  0  0  0  0  0  0  0  0
   -5.6548   -1.4674    1.6583 H   0  0  0  0  0  0  0  0  0  0  0  0
   -4.0460    2.3609    0.2078 H   0  0  0  0  0  0  0  0  0  0  0  0
   -1.2651   -0.9953    0.7249 H   0  0  0  0  0  0  0  0  0  0  0  0
   -2.3736   -1.2209   -0.6233 H   0  0  0  0  0  0  0  0  0  0  0  0
   -0.2953   -2.3442   -1.1384 H   0  0  0  0  0  0  0  0  0  0  0  0
   -0.4186   -0.9504   -2.2455 H   0  0  0  0  0  0  0  0  0  0  0  0
    5.3283    0.6916   -2.5002 H   0  0  0  0  0  0  0  0  0  0  0  0
    7.6633    1.5150   -2.3724 H   0  0  0  0  0  0  0  0  0  0  0  0
  1  2  1  0
  2  3  1  0
  3  4  1  0
  4  5  2  0
  4  6  1  0
  6  7  1  0
  7  8  1  0
  6  9  1  0
  9 10  2  0
 10 11  1  0
 11 12  1  0
 12 13  1  0
 13 14  2  0
 13 15  1  0
 15 16  1  0
 16 17  1  0
 17 18  1  0
 18 19  1  0
 19 20  1  0
 20 21  1  0
 21 22  2  0
 22 23  1  0
 23 24  1  0
 24 25  1  0
 25 26  2  0
 25 27  1  0
 27 28  2  0
 28 29  1  0
 29 30  2  0
 30 31  1  0
 31 32  2  0
 32 33  1  0
 33 34  1  0
 34 35  1  0
 35 36  1  0
 36 37  1  0
 36 38  1  0
 35 39  1  0
 39 40  1  0
 40 41  2  0
 19 42  1  0
 42 43  1  0
 11 44  2  0
 44 45  1  0
 45 46  2  0
 46  3  1  0
 46  9  1  0
 43 16  1  0
 40 19  1  0
 32 27  1  0
  1 47  1  0
  1 48  1  0
  1 49  1  0
  2 50  1  0
  2 51  1  0
  7 52  1  0
  7 53  1  0
  8 54  1  0
  8 55  1  0
  8 56  1  0
 10 57  1  0
 12 58  1  0
 15 59  1  0
 15 60  1  0
 17 61  1  0
 17 62  1  0
 18 63  1  0
 18 64  1  0
 20 65  1  0
 20 66  1  0
 21 67  1  0
 22 68  1  0
 23 69  1  0
 23 70  1  0
 24 71  1  0
 28 72  1  0
 29 73  1  0
 30 74  1  0
 31 75  1  0
 34 76  1  0
 34 77  1  0
 35 78  1  0
 36 79  1  0
 37 80  1  0
 37 81  1  0
 37 82  1  0
 38 83  1  0
 38 84  1  0
 38 85  1  0
 39 86  1  0
 42 87  1  0
 42 88  1  0
 43 89  1  0
 43 90  1  0
 44 91  1  0
 45 92  1  0
M  END
$$$$
