
     RDKit          3D

 57 60  0  0  0  0  0  0  0  0999 V2000
    6.7377    2.0692   -0.1309 C   0  0  0  0  0  0  0  0  0  0  0  0
    5.6266    1.3352    0.5591 C   0  0  0  0  0  0  0  0  0  0  0  0
    5.5301   -0.0593    0.4495 C   0  0  0  0  0  0  0  0  0  0  0  0
    4.5055   -0.7479    1.1044 C   0  0  0  0  0  0  0  0  0  0  0  0
    3.5658   -0.0512    1.8830 C   0  0  0  0  0  0  0  0  0  0  0  0
    2.4404   -0.7965    2.5515 C   0  0  0  0  0  0  0  0  0  0  0  0
    1.6559   -1.5367    1.5591 N   0  0  0  0  0  0  0  0  0  0  0  0
    0.8841   -1.0306    0.6384 C   0  0  0  0  0  0  0  0  0  0  0  0
    0.6779    0.3975    0.5424 N   0  0  0  0  0  0  0  0  0  0  0  0
    0.3191    1.0801   -0.7057 C   0  0  0  0  0  0  0  0  0  0  0  0
   -0.7603    2.1355   -0.4305 C   0  0  0  0  0  0  0  0  0  0  0  0
   -1.5791    2.4829   -1.6945 C   0  0  0  0  0  0  0  0  0  0  0  0
   -2.9719    3.0729   -1.3606 C   0  0  0  0  0  0  0  0  0  0  0  0
   -4.0343    1.9864   -1.1245 C   0  0  0  0  0  0  0  0  0  0  0  0
   -3.6279    1.1456   -0.0536 O   0  0  0  0  0  0  0  0  0  0  0  0
   -4.2098   -0.0928    0.2130 C   0  0  0  0  0  0  0  0  0  0  0  0
   -5.6045   -0.2342    0.3453 C   0  0  0  0  0  0  0  0  0  0  0  0
   -6.1573   -1.4793    0.6554 C   0  0  0  0  0  0  0  0  0  0  0  0
   -5.3221   -2.5873    0.8381 C   0  0  0  0  0  0  0  0  0  0  0  0
   -3.9364   -2.4594    0.6908 C   0  0  0  0  0  0  0  0  0  0  0  0
   -3.3733   -1.2115    0.3696 C   0  0  0  0  0  0  0  0  0  0  0  0
   -1.9854   -1.0610    0.2120 O   0  0  0  0  0  0  0  0  0  0  0  0
   -1.1760   -1.9764   -0.4770 C   0  0  0  0  0  0  0  0  0  0  0  0
   -1.7368   -2.8686   -1.3400 N   0  0  0  0  0  0  0  0  0  0  0  0
   -0.9962   -3.7861   -2.0087 C   0  0  0  0  0  0  0  0  0  0  0  0
    0.3849   -3.8423   -1.8213 C   0  0  0  0  0  0  0  0  0  0  0  0
    0.9928   -2.9342   -0.9599 C   0  0  0  0  0  0  0  0  0  0  0  0
    0.2214   -1.9711   -0.2928 C   0  0  0  0  0  0  0  0  0  0  0  0
    3.6831    1.3410    2.0200 C   0  0  0  0  0  0  0  0  0  0  0  0
    4.7111    2.0289    1.3678 C   0  0  0  0  0  0  0  0  0  0  0  0
    7.6336    2.0901    0.5272 H   0  0  0  0  0  0  0  0  0  0  0  0
    7.0017    1.5657   -1.0865 H   0  0  0  0  0  0  0  0  0  0  0  0
    6.4342    3.1113   -0.3642 H   0  0  0  0  0  0  0  0  0  0  0  0
    6.2420   -0.6103   -0.1529 H   0  0  0  0  0  0  0  0  0  0  0  0
    4.4361   -1.8242    0.9957 H   0  0  0  0  0  0  0  0  0  0  0  0
    1.7825   -0.1227    3.1411 H   0  0  0  0  0  0  0  0  0  0  0  0
    2.8768   -1.5271    3.2688 H   0  0  0  0  0  0  0  0  0  0  0  0
    0.9009    1.0039    1.3669 H   0  0  0  0  0  0  0  0  0  0  0  0
    1.2225    1.5701   -1.1245 H   0  0  0  0  0  0  0  0  0  0  0  0
   -0.0347    0.3472   -1.4632 H   0  0  0  0  0  0  0  0  0  0  0  0
   -1.4131    1.7628    0.3799 H   0  0  0  0  0  0  0  0  0  0  0  0
   -0.2830    3.0543   -0.0322 H   0  0  0  0  0  0  0  0  0  0  0  0
   -1.7098    1.5842   -2.3489 H   0  0  0  0  0  0  0  0  0  0  0  0
   -0.9950    3.2344   -2.2930 H   0  0  0  0  0  0  0  0  0  0  0  0
   -3.3018    3.6943   -2.2209 H   0  0  0  0  0  0  0  0  0  0  0  0
   -2.9108    3.7444   -0.4753 H   0  0  0  0  0  0  0  0  0  0  0  0
   -5.0124    2.4577   -0.8896 H   0  0  0  0  0  0  0  0  0  0  0  0
   -4.1359    1.3721   -2.0493 H   0  0  0  0  0  0  0  0  0  0  0  0
   -6.2541    0.6263    0.2332 H   0  0  0  0  0  0  0  0  0  0  0  0
   -7.2299   -1.5809    0.7785 H   0  0  0  0  0  0  0  0  0  0  0  0
   -5.7480   -3.5503    1.0966 H   0  0  0  0  0  0  0  0  0  0  0  0
   -3.2968   -3.3217    0.8502 H   0  0  0  0  0  0  0  0  0  0  0  0
   -1.4808   -4.4765   -2.6837 H   0  0  0  0  0  0  0  0  0  0  0  0
    0.9781   -4.5814   -2.3430 H   0  0  0  0  0  0  0  0  0  0  0  0
    2.0680   -2.9706   -0.8209 H   0  0  0  0  0  0  0  0  0  0  0  0
    2.9753    1.8952    2.6250 H   0  0  0  0  0  0  0  0  0  0  0  0
    4.7889    3.1026    1.4860 H   0  0  0  0  0  0  0  0  0  0  0  0
  1  2  1  0
  2  3  2  0
  3  4  1  0
  4  5  2  0
  5  6  1  0
  6  7  1  0
  7  8  2  3
  8  9  1  0
  9 10  1  0
 10 11  1  0
 11 12  1  0
 12 13  1  0
 13 14  1  0
 14 15  1  0
 15 16  1  0
 16 17  2  0
 17 18  1  0
 18 19  2  0
 19 20  1  0
 20 21  2  0
 21 22  1  0
 22 23  1  0
 23 24  2  0
 24 25  1  0
 25 26  2  0
 26 27  1  0
 27 28  2  0
  5 29  1  0
 29 30  2  0
 30  2  1  0
 28  8  1  0
 21 16  1  0
 28 23  1  0
  1 31  1  0
  1 32  1  0
  1 33  1  0
  3 34  1  0
  4 35  1  0
  6 36  1  0
  6 37  1  0
  9 38  1  0
 10 39  1  0
 10 40  1  0
 11 41  1  0
 11 42  1  0
 12 43  1  0
 12 44  1  0
 13 45  1  0
 13 46  1  0
 14 47  1  0
 14 48  1  0
 17 49  1  0
 18 50  1  0
 19 51  1  0
 20 52  1  0
 25 53  1  0
 26 54  1  0
 27 55  1  0
 29 56  1  0
 30 57  1  0
M  END
$$$$
