
     RDKit          3D

 84 87  0  0  0  0  0  0  0  0999 V2000
   -2.8044   -1.9121   -1.5011 C   0  0  0  0  0  0  0  0  0  0  0  0
   -3.6498   -2.7465   -0.5239 C   0  0  0  0  0  0  0  0  0  0  0  0
   -3.5864   -4.2278   -0.9218 C   0  0  0  0  0  0  0  0  0  0  0  0
   -3.1738   -2.5691    0.9380 C   0  0  0  0  0  0  0  0  0  0  0  0
   -3.5663   -1.2045    1.5480 C   0  0  0  0  0  0  0  0  0  0  0  0
   -2.8537   -0.9974    2.8113 N   0  0  0  0  0  0  0  0  0  0  0  0
   -1.7416   -0.1026    2.9442 C   0  0  0  0  0  0  0  0  0  0  0  0
   -1.7134    0.6915    3.9223 O   0  0  0  0  0  0  0  0  0  0  0  0
   -0.5567   -0.1645    2.0142 C   0  0  0  0  0  0  0  0  0  0  0  0
   -0.5304    0.9696    0.9627 C   0  0  0  0  0  0  0  0  0  0  0  0
    0.6911    0.9127    0.0576 C   0  0  0  0  0  0  0  0  0  0  0  0
    0.7282    1.6722   -0.9468 O   0  0  0  0  0  0  0  0  0  0  0  0
    1.8023    0.0306    0.2997 N   0  0  0  0  0  0  0  0  0  0  0  0
    3.1015    0.2722   -0.3406 C   0  0  0  0  0  0  0  0  0  0  0  0
    4.1536   -0.8594   -0.1062 C   0  0  0  0  0  0  0  0  0  0  0  0
    5.4565   -0.4105   -0.8265 C   0  0  0  0  0  0  0  0  0  0  0  0
    5.9424   -1.0273   -2.0076 C   0  0  0  0  0  0  0  0  0  0  0  0
    7.1083   -0.5734   -2.6326 C   0  0  0  0  0  0  0  0  0  0  0  0
    7.8029    0.5187   -2.1178 C   0  0  0  0  0  0  0  0  0  0  0  0
    7.3238    1.1748   -0.9864 C   0  0  0  0  0  0  0  0  0  0  0  0
    7.9828    2.2575   -0.5024 F   0  0  0  0  0  0  0  0  0  0  0  0
    6.1585    0.7279   -0.3572 C   0  0  0  0  0  0  0  0  0  0  0  0
    3.5811   -2.2009   -0.6724 C   0  0  0  0  0  0  0  0  0  0  0  0
    4.4789   -3.4183   -0.3365 C   0  0  0  0  0  0  0  0  0  0  0  0
    5.4192   -3.1539    0.6913 O   0  0  0  0  0  0  0  0  0  0  0  0
    4.7777   -2.5225    1.7782 C   0  0  0  0  0  0  0  0  0  0  0  0
    4.4383   -1.0625    1.4276 C   0  0  0  0  0  0  0  0  0  0  0  0
   -0.5966    2.2772    1.6293 N   0  0  0  0  0  0  0  0  0  0  0  0
   -1.1873    3.4625    1.0662 C   0  0  0  0  0  0  0  0  0  0  0  0
   -1.4763    4.4214    1.8295 O   0  0  0  0  0  0  0  0  0  0  0  0
   -1.3270    3.6554   -0.3890 C   0  0  0  0  0  0  0  0  0  0  0  0
   -0.3985    4.4991   -1.0224 C   0  0  0  0  0  0  0  0  0  0  0  0
   -0.3920    4.6319   -2.4122 C   0  0  0  0  0  0  0  0  0  0  0  0
   -1.3071    3.9192   -3.1852 C   0  0  0  0  0  0  0  0  0  0  0  0
   -2.2523    3.0968   -2.5671 C   0  0  0  0  0  0  0  0  0  0  0  0
   -2.3026    2.9871   -1.1713 C   0  0  0  0  0  0  0  0  0  0  0  0
   -3.3398    2.2192   -0.6264 O   0  0  0  0  0  0  0  0  0  0  0  0
   -4.0617    2.5534    0.5572 C   0  0  0  0  0  0  0  0  0  0  0  0
   -5.5383    2.2077    0.3577 C   0  0  0  0  0  0  0  0  0  0  0  0
   -5.7776    0.7012    0.1997 C   0  0  0  0  0  0  0  0  0  0  0  0
   -5.8101    0.0494    1.5061 N   0  0  0  0  0  0  0  0  0  0  0  0
   -5.0536   -1.1271    1.8178 C   0  0  0  0  0  0  0  0  0  0  0  0
   -5.6174   -2.0616    2.4505 O   0  0  0  0  0  0  0  0  0  0  0  0
   -1.7252   -2.1538   -1.3948 H   0  0  0  0  0  0  0  0  0  0  0  0
   -3.1129   -2.1182   -2.5475 H   0  0  0  0  0  0  0  0  0  0  0  0
   -2.9461   -0.8265   -1.3271 H   0  0  0  0  0  0  0  0  0  0  0  0
   -4.7110   -2.4244   -0.6095 H   0  0  0  0  0  0  0  0  0  0  0  0
   -2.5432   -4.6081   -0.8534 H   0  0  0  0  0  0  0  0  0  0  0  0
   -3.9533   -4.3639   -1.9619 H   0  0  0  0  0  0  0  0  0  0  0  0
   -4.2339   -4.8337   -0.2523 H   0  0  0  0  0  0  0  0  0  0  0  0
   -3.5942   -3.3784    1.5741 H   0  0  0  0  0  0  0  0  0  0  0  0
   -2.0733   -2.7018    0.9748 H   0  0  0  0  0  0  0  0  0  0  0  0
   -3.2834   -0.3974    0.8501 H   0  0  0  0  0  0  0  0  0  0  0  0
   -3.2801   -1.3619    3.6937 H   0  0  0  0  0  0  0  0  0  0  0  0
   -0.5450   -1.1444    1.4984 H   0  0  0  0  0  0  0  0  0  0  0  0
    0.3596   -0.1092    2.6424 H   0  0  0  0  0  0  0  0  0  0  0  0
   -1.4221    0.8376    0.3220 H   0  0  0  0  0  0  0  0  0  0  0  0
    1.6816   -0.7841    0.9353 H   0  0  0  0  0  0  0  0  0  0  0  0
    2.9463    0.3845   -1.4368 H   0  0  0  0  0  0  0  0  0  0  0  0
    3.4899    1.2417    0.0369 H   0  0  0  0  0  0  0  0  0  0  0  0
    5.4354   -1.8513   -2.4798 H   0  0  0  0  0  0  0  0  0  0  0  0
    7.4678   -1.0653   -3.5286 H   0  0  0  0  0  0  0  0  0  0  0  0
    8.7040    0.8655   -2.6077 H   0  0  0  0  0  0  0  0  0  0  0  0
    5.8006    1.2907    0.4945 H   0  0  0  0  0  0  0  0  0  0  0  0
    3.3840   -2.1372   -1.7634 H   0  0  0  0  0  0  0  0  0  0  0  0
    2.5909   -2.4107   -0.2203 H   0  0  0  0  0  0  0  0  0  0  0  0
    5.0392   -3.7270   -1.2428 H   0  0  0  0  0  0  0  0  0  0  0  0
    3.8480   -4.2916   -0.0540 H   0  0  0  0  0  0  0  0  0  0  0  0
    3.8560   -3.0764    2.0812 H   0  0  0  0  0  0  0  0  0  0  0  0
    5.4592   -2.5405    2.6559 H   0  0  0  0  0  0  0  0  0  0  0  0
    5.2758   -0.4301    1.7838 H   0  0  0  0  0  0  0  0  0  0  0  0
    3.5761   -0.7587    2.0551 H   0  0  0  0  0  0  0  0  0  0  0  0
   -0.1757    2.3696    2.5813 H   0  0  0  0  0  0  0  0  0  0  0  0
    0.3462    5.0297   -0.4399 H   0  0  0  0  0  0  0  0  0  0  0  0
    0.3346    5.2773   -2.8897 H   0  0  0  0  0  0  0  0  0  0  0  0
   -1.2928    4.0114   -4.2636 H   0  0  0  0  0  0  0  0  0  0  0  0
   -2.9757    2.5701   -3.1763 H   0  0  0  0  0  0  0  0  0  0  0  0
   -3.9936    3.6463    0.7544 H   0  0  0  0  0  0  0  0  0  0  0  0
   -3.6440    2.0031    1.4272 H   0  0  0  0  0  0  0  0  0  0  0  0
   -5.8965    2.7256   -0.5586 H   0  0  0  0  0  0  0  0  0  0  0  0
   -6.1299    2.5993    1.2144 H   0  0  0  0  0  0  0  0  0  0  0  0
   -5.0188    0.2432   -0.4689 H   0  0  0  0  0  0  0  0  0  0  0  0
   -6.7642    0.5466   -0.2883 H   0  0  0  0  0  0  0  0  0  0  0  0
   -6.6121    0.2855    2.1340 H   0  0  0  0  0  0  0  0  0  0  0  0
  1  2  1  0
  2  3  1  0
  2  4  1  0
  4  5  1  0
  5  6  1  0
  6  7  1  0
  7  8  2  0
  7  9  1  0
  9 10  1  0
 10 11  1  0
 11 12  2  0
 11 13  1  0
 13 14  1  0
 14 15  1  0
 15 16  1  0
 16 17  2  0
 17 18  1  0
 18 19  2  0
 19 20  1  0
 20 21  1  0
 20 22  2  0
 15 23  1  0
 23 24  1  0
 24 25  1  0
 25 26  1  0
 26 27  1  0
 10 28  1  0
 28 29  1  0
 29 30  2  0
 29 31  1  0
 31 32  2  0
 32 33  1  0
 33 34  2  0
 34 35  1  0
 35 36  2  0
 36 37  1  0
 37 38  1  0
 38 39  1  0
 39 40  1  0
 40 41  1  0
 41 42  1  0
 42 43  2  0
 42  5  1  0
 27 15  1  0
 36 31  1  0
 22 16  1  0
  1 44  1  0
  1 45  1  0
  1 46  1  0
  2 47  1  0
  3 48  1  0
  3 49  1  0
  3 50  1  0
  4 51  1  0
  4 52  1  0
  5 53  1  0
  6 54  1  0
  9 55  1  0
  9 56  1  0
 10 57  1  0
 13 58  1  0
 14 59  1  0
 14 60  1  0
 17 61  1  0
 18 62  1  0
 19 63  1  0
 22 64  1  0
 23 65  1  0
 23 66  1  0
 24 67  1  0
 24 68  1  0
 26 69  1  0
 26 70  1  0
 27 71  1  0
 27 72  1  0
 28 73  1  0
 32 74  1  0
 33 75  1  0
 34 76  1  0
 35 77  1  0
 38 78  1  0
 38 79  1  0
 39 80  1  0
 39 81  1  0
 40 82  1  0
 40 83  1  0
 41 84  1  0
M  END
$$$$
