
     RDKit          3D

 81 83  0  0  0  0  0  0  0  0999 V2000
   -3.3547    0.6790   -1.1954 C   0  0  0  0  0  0  0  0  0  0  0  0
   -3.8709    0.8418    0.1134 O   0  0  0  0  0  0  0  0  0  0  0  0
   -2.8761    1.2609    1.0455 C   0  0  0  0  0  0  0  0  0  0  0  0
   -2.5559    0.1070    2.0273 C   0  0  0  0  0  0  0  0  0  0  0  0
   -1.9789   -1.0684    1.3471 N   0  0  0  0  0  0  0  0  0  0  0  0
   -2.8762   -2.1460    0.9747 C   0  0  0  0  0  0  0  0  0  0  0  0
   -4.0929   -1.8864    0.7408 O   0  0  0  0  0  0  0  0  0  0  0  0
   -2.4464   -3.5609    0.9014 C   0  0  0  0  0  0  0  0  0  0  0  0
   -1.7402   -4.1560    1.9616 C   0  0  0  0  0  0  0  0  0  0  0  0
   -1.3306   -5.4921    1.8739 C   0  0  0  0  0  0  0  0  0  0  0  0
   -1.6467   -6.2513    0.7413 C   0  0  0  0  0  0  0  0  0  0  0  0
   -2.3862   -5.6789   -0.2993 C   0  0  0  0  0  0  0  0  0  0  0  0
   -2.7961   -4.3434   -0.2181 C   0  0  0  0  0  0  0  0  0  0  0  0
   -3.4953   -3.8003   -1.2495 F   0  0  0  0  0  0  0  0  0  0  0  0
   -0.5068   -1.1759    1.2246 C   0  0  0  0  0  0  0  0  0  0  0  0
    0.0075   -0.8146   -0.1961 C   0  0  0  0  0  0  0  0  0  0  0  0
    0.0635   -2.0478   -1.1346 C   0  0  0  0  0  0  0  0  0  0  0  0
    0.0304   -1.7079   -2.6472 C   0  0  0  0  0  0  0  0  0  0  0  0
    1.3786   -1.1783   -3.1533 C   0  0  0  0  0  0  0  0  0  0  0  0
   -0.3675   -2.9531   -3.4528 C   0  0  0  0  0  0  0  0  0  0  0  0
    1.3243   -0.1373   -0.1088 N   0  0  0  0  0  0  0  0  0  0  0  0
    2.4777   -0.8202    0.4511 C   0  0  0  0  0  0  0  0  0  0  0  0
    2.3213   -1.8810    1.1130 O   0  0  0  0  0  0  0  0  0  0  0  0
    3.8485   -0.2937    0.3428 C   0  0  0  0  0  0  0  0  0  0  0  0
    4.4039    0.0123   -0.8339 C   0  0  0  0  0  0  0  0  0  0  0  0
    5.7867    0.5092   -0.9692 C   0  0  0  0  0  0  0  0  0  0  0  0
    6.7217    0.7504    0.0378 C   0  0  0  0  0  0  0  0  0  0  0  0
    7.9355    1.2590   -0.4431 C   0  0  0  0  0  0  0  0  0  0  0  0
    7.9654    1.4308   -1.8197 C   0  0  0  0  0  0  0  0  0  0  0  0
    6.4799    0.9457   -2.4386 S   0  0  0  0  0  0  0  0  0  0  0  0
    1.3927    1.3029   -0.4293 C   0  0  0  0  0  0  0  0  0  0  0  0
    1.4090    2.1523    0.8478 C   0  0  0  0  0  0  0  0  0  0  0  0
    1.4022    3.6644    0.5300 C   0  0  0  0  0  0  0  0  0  0  0  0
    0.2351    4.3939    1.1925 C   0  0  0  0  0  0  0  0  0  0  0  0
   -0.9850    3.8459    0.7421 O   0  0  0  0  0  0  0  0  0  0  0  0
   -2.0602    4.5768    1.2944 C   0  0  0  0  0  0  0  0  0  0  0  0
   -3.3894    3.8288    1.0878 C   0  0  0  0  0  0  0  0  0  0  0  0
   -3.6439    3.6510   -0.2805 O   0  0  0  0  0  0  0  0  0  0  0  0
   -3.4394    2.4709    1.8490 C   0  0  0  0  0  0  0  0  0  0  0  0
   -4.7724    2.1870    2.1987 O   0  0  0  0  0  0  0  0  0  0  0  0
   -4.1929    0.7430   -1.9125 H   0  0  0  0  0  0  0  0  0  0  0  0
   -2.6307    1.4734   -1.4851 H   0  0  0  0  0  0  0  0  0  0  0  0
   -2.8999   -0.3268   -1.3063 H   0  0  0  0  0  0  0  0  0  0  0  0
   -1.9171    1.5647    0.5762 H   0  0  0  0  0  0  0  0  0  0  0  0
   -3.4769   -0.1915    2.5795 H   0  0  0  0  0  0  0  0  0  0  0  0
   -1.8485    0.4752    2.8016 H   0  0  0  0  0  0  0  0  0  0  0  0
   -1.5058   -3.5895    2.8569 H   0  0  0  0  0  0  0  0  0  0  0  0
   -0.7646   -5.9385    2.6831 H   0  0  0  0  0  0  0  0  0  0  0  0
   -1.3218   -7.2840    0.6709 H   0  0  0  0  0  0  0  0  0  0  0  0
   -2.6324   -6.2680   -1.1749 H   0  0  0  0  0  0  0  0  0  0  0  0
   -0.1542   -2.1820    1.5180 H   0  0  0  0  0  0  0  0  0  0  0  0
   -0.0295   -0.4914    1.9579 H   0  0  0  0  0  0  0  0  0  0  0  0
   -0.7298   -0.1171   -0.6289 H   0  0  0  0  0  0  0  0  0  0  0  0
   -0.8276   -2.6621   -0.9252 H   0  0  0  0  0  0  0  0  0  0  0  0
    0.9386   -2.6908   -0.9072 H   0  0  0  0  0  0  0  0  0  0  0  0
   -0.7415   -0.9312   -2.8367 H   0  0  0  0  0  0  0  0  0  0  0  0
    1.5861   -0.1738   -2.7361 H   0  0  0  0  0  0  0  0  0  0  0  0
    1.3622   -1.0693   -4.2582 H   0  0  0  0  0  0  0  0  0  0  0  0
    2.2023   -1.8724   -2.8742 H   0  0  0  0  0  0  0  0  0  0  0  0
    0.3698   -3.7667   -3.3045 H   0  0  0  0  0  0  0  0  0  0  0  0
   -0.4239   -2.7108   -4.5340 H   0  0  0  0  0  0  0  0  0  0  0  0
   -1.3670   -3.3116   -3.1354 H   0  0  0  0  0  0  0  0  0  0  0  0
    4.4363   -0.2519    1.2528 H   0  0  0  0  0  0  0  0  0  0  0  0
    3.8277   -0.1164   -1.7389 H   0  0  0  0  0  0  0  0  0  0  0  0
    6.5512    0.5681    1.0916 H   0  0  0  0  0  0  0  0  0  0  0  0
    8.7704    1.4979    0.2035 H   0  0  0  0  0  0  0  0  0  0  0  0
    8.7989    1.8122   -2.3871 H   0  0  0  0  0  0  0  0  0  0  0  0
    0.5251    1.6104   -1.0545 H   0  0  0  0  0  0  0  0  0  0  0  0
    2.2849    1.5267   -1.0400 H   0  0  0  0  0  0  0  0  0  0  0  0
    0.5358    1.8744    1.4742 H   0  0  0  0  0  0  0  0  0  0  0  0
    2.3199    1.9171    1.4378 H   0  0  0  0  0  0  0  0  0  0  0  0
    1.3577    3.8493   -0.5658 H   0  0  0  0  0  0  0  0  0  0  0  0
    2.3556    4.1205    0.8900 H   0  0  0  0  0  0  0  0  0  0  0  0
    0.3049    5.4725    0.9255 H   0  0  0  0  0  0  0  0  0  0  0  0
    0.3352    4.2894    2.2969 H   0  0  0  0  0  0  0  0  0  0  0  0
   -1.9268    4.7551    2.3881 H   0  0  0  0  0  0  0  0  0  0  0  0
   -2.1274    5.5666    0.7881 H   0  0  0  0  0  0  0  0  0  0  0  0
   -4.1860    4.4810    1.5170 H   0  0  0  0  0  0  0  0  0  0  0  0
   -3.8979    4.5400   -0.6451 H   0  0  0  0  0  0  0  0  0  0  0  0
   -2.8431    2.5811    2.7850 H   0  0  0  0  0  0  0  0  0  0  0  0
   -4.9897    2.7504    2.9868 H   0  0  0  0  0  0  0  0  0  0  0  0
  1  2  1  0
  2  3  1  0
  3  4  1  0
  4  5  1  0
  5  6  1  0
  6  7  2  0
  6  8  1  0
  8  9  2  0
  9 10  1  0
 10 11  2  0
 11 12  1  0
 12 13  2  0
 13 14  1  0
  5 15  1  0
 15 16  1  0
 16 17  1  0
 17 18  1  0
 18 19  1  0
 18 20  1  0
 16 21  1  0
 21 22  1  0
 22 23  2  0
 22 24  1  0
 24 25  2  0
 25 26  1  0
 26 27  2  0
 27 28  1  0
 28 29  2  0
 29 30  1  0
 21 31  1  0
 31 32  1  0
 32 33  1  0
 33 34  1  0
 34 35  1  0
 35 36  1  0
 36 37  1  0
 37 38  1  0
 37 39  1  0
 39 40  1  0
 39  3  1  0
 13  8  1  0
 30 26  1  0
  1 41  1  0
  1 42  1  0
  1 43  1  0
  3 44  1  0
  4 45  1  0
  4 46  1  0
  9 47  1  0
 10 48  1  0
 11 49  1  0
 12 50  1  0
 15 51  1  0
 15 52  1  0
 16 53  1  0
 17 54  1  0
 17 55  1  0
 18 56  1  0
 19 57  1  0
 19 58  1  0
 19 59  1  0
 20 60  1  0
 20 61  1  0
 20 62  1  0
 24 63  1  0
 25 64  1  0
 27 65  1  0
 28 66  1  0
 29 67  1  0
 31 68  1  0
 31 69  1  0
 32 70  1  0
 32 71  1  0
 33 72  1  0
 33 73  1  0
 34 74  1  0
 34 75  1  0
 36 76  1  0
 36 77  1  0
 37 78  1  0
 38 79  1  0
 39 80  1  0
 40 81  1  0
M  END
$$$$
