
     RDKit          3D

 66 70  0  0  0  0  0  0  0  0999 V2000
   -4.3496    2.9704   -0.6116 C   0  0  0  0  0  0  0  0  0  0  0  0
   -3.6192    1.8814    0.0402 N   0  0  0  0  0  0  0  0  0  0  0  0
   -3.3150    1.9682    1.4737 C   0  0  0  0  0  0  0  0  0  0  0  0
   -2.2398    3.0323    1.7685 C   0  0  0  0  0  0  0  0  0  0  0  0
   -0.9872    2.9424    0.8733 C   0  0  0  0  0  0  0  0  0  0  0  0
   -0.1461    1.6581    1.0767 C   0  0  0  0  0  0  0  0  0  0  0  0
   -0.0588    0.8686   -0.1799 N   0  0  0  0  0  0  0  0  0  0  0  0
    1.1038    1.6338   -1.2717 S   0  0  0  0  0  6  0  0  0  0  0  0
    0.9962    3.1320   -1.2084 O   0  0  0  0  0  0  0  0  0  0  0  0
    0.8027    1.2297   -2.6877 O   0  0  0  0  0  0  0  0  0  0  0  0
    2.7742    1.2038   -0.8792 C   0  0  0  0  0  0  0  0  0  0  0  0
    3.4485    1.8766    0.1478 C   0  0  0  0  0  0  0  0  0  0  0  0
    4.7601    1.5276    0.4800 C   0  0  0  0  0  0  0  0  0  0  0  0
    5.4244    0.4993   -0.2115 C   0  0  0  0  0  0  0  0  0  0  0  0
    6.7726    0.1404    0.1527 N   0  0  0  0  0  0  0  0  0  0  0  0
    7.5389   -0.8622   -0.3174 C   0  0  0  0  0  0  0  0  0  0  0  0
    8.7307   -0.8551    0.3072 N   0  0  0  0  0  0  0  0  0  0  0  0
    8.6749    0.1602    1.1581 N   0  0  0  0  0  0  0  0  0  0  0  0
    7.4982    0.7594    1.0683 N   0  0  0  0  0  0  0  0  0  0  0  0
    4.7504   -0.1573   -1.2582 C   0  0  0  0  0  0  0  0  0  0  0  0
    3.4397    0.1967   -1.5912 C   0  0  0  0  0  0  0  0  0  0  0  0
    0.2515   -0.5906   -0.0260 C   0  0  0  0  0  0  0  0  0  0  0  0
   -0.0317   -1.3370   -1.3656 C   0  0  0  0  0  0  0  0  0  0  0  0
   -0.2663   -2.8528   -1.2465 C   0  0  0  0  0  0  0  0  0  0  0  0
    0.4120   -3.4328   -0.0143 C   0  0  0  0  0  0  0  0  0  0  0  0
   -0.1510   -2.8147    1.2704 C   0  0  0  0  0  0  0  0  0  0  0  0
   -0.4740   -1.2970    1.1612 C   0  0  0  0  0  0  0  0  0  0  0  0
   -1.8786   -0.9781    1.2290 O   0  0  0  0  0  0  0  0  0  0  0  0
   -2.9050   -1.4269    0.3820 C   0  0  0  0  0  0  0  0  0  0  0  0
   -3.4550   -2.7080    0.5698 C   0  0  0  0  0  0  0  0  0  0  0  0
   -4.4687   -3.1801   -0.2651 C   0  0  0  0  0  0  0  0  0  0  0  0
   -4.9748   -2.3678   -1.2769 C   0  0  0  0  0  0  0  0  0  0  0  0
   -4.4939   -1.0681   -1.4312 C   0  0  0  0  0  0  0  0  0  0  0  0
   -3.4825   -0.5732   -0.5917 C   0  0  0  0  0  0  0  0  0  0  0  0
   -3.0798    0.8328   -0.7841 C   0  0  0  0  0  0  0  0  0  0  0  0
   -2.4438    1.1386   -1.8281 O   0  0  0  0  0  0  0  0  0  0  0  0
   -3.6836    3.5004   -1.3249 H   0  0  0  0  0  0  0  0  0  0  0  0
   -5.2199    2.5565   -1.1639 H   0  0  0  0  0  0  0  0  0  0  0  0
   -4.7240    3.7051    0.1326 H   0  0  0  0  0  0  0  0  0  0  0  0
   -4.2409    2.2347    2.0278 H   0  0  0  0  0  0  0  0  0  0  0  0
   -2.9992    0.9937    1.8781 H   0  0  0  0  0  0  0  0  0  0  0  0
   -1.9377    2.9573    2.8362 H   0  0  0  0  0  0  0  0  0  0  0  0
   -2.6909    4.0390    1.6304 H   0  0  0  0  0  0  0  0  0  0  0  0
   -1.2984    3.0587   -0.1854 H   0  0  0  0  0  0  0  0  0  0  0  0
   -0.3449    3.8200    1.1064 H   0  0  0  0  0  0  0  0  0  0  0  0
    0.8695    1.9170    1.4440 H   0  0  0  0  0  0  0  0  0  0  0  0
   -0.6151    1.1029    1.9022 H   0  0  0  0  0  0  0  0  0  0  0  0
    2.9633    2.6768    0.6906 H   0  0  0  0  0  0  0  0  0  0  0  0
    5.2556    2.0615    1.2813 H   0  0  0  0  0  0  0  0  0  0  0  0
    7.2549   -1.5804   -1.0735 H   0  0  0  0  0  0  0  0  0  0  0  0
    5.2299   -0.9412   -1.8267 H   0  0  0  0  0  0  0  0  0  0  0  0
    2.9501   -0.3174   -2.4067 H   0  0  0  0  0  0  0  0  0  0  0  0
    1.3348   -0.7058    0.1963 H   0  0  0  0  0  0  0  0  0  0  0  0
    0.8353   -1.1952   -2.0395 H   0  0  0  0  0  0  0  0  0  0  0  0
   -0.9084   -0.8934   -1.8772 H   0  0  0  0  0  0  0  0  0  0  0  0
   -1.3535   -3.0718   -1.2098 H   0  0  0  0  0  0  0  0  0  0  0  0
    0.1315   -3.3614   -2.1524 H   0  0  0  0  0  0  0  0  0  0  0  0
    0.2621   -4.5340    0.0083 H   0  0  0  0  0  0  0  0  0  0  0  0
    1.5064   -3.2410   -0.0753 H   0  0  0  0  0  0  0  0  0  0  0  0
    0.6140   -2.9711    2.0646 H   0  0  0  0  0  0  0  0  0  0  0  0
   -1.0255   -3.3907    1.6112 H   0  0  0  0  0  0  0  0  0  0  0  0
   -0.0252   -0.8910    2.0921 H   0  0  0  0  0  0  0  0  0  0  0  0
   -3.1393   -3.3348    1.3884 H   0  0  0  0  0  0  0  0  0  0  0  0
   -4.8724   -4.1737   -0.1168 H   0  0  0  0  0  0  0  0  0  0  0  0
   -5.7611   -2.7352   -1.9237 H   0  0  0  0  0  0  0  0  0  0  0  0
   -4.9256   -0.4362   -2.1983 H   0  0  0  0  0  0  0  0  0  0  0  0
  1  2  1  0
  2  3  1  0
  3  4  1  0
  4  5  1  0
  5  6  1  0
  6  7  1  0
  7  8  1  0
  8  9  2  0
  8 10  2  0
  8 11  1  0
 11 12  2  0
 12 13  1  0
 13 14  2  0
 14 15  1  0
 15 16  1  0
 16 17  2  0
 17 18  1  0
 18 19  2  0
 14 20  1  0
 20 21  2  0
  7 22  1  0
 22 23  1  0
 23 24  1  0
 24 25  1  0
 25 26  1  0
 26 27  1  0
 27 28  1  0
 28 29  1  0
 29 30  2  0
 30 31  1  0
 31 32  2  0
 32 33  1  0
 33 34  2  0
 34 35  1  0
 35 36  2  0
 35  2  1  0
 21 11  1  0
 27 22  1  0
 34 29  1  0
 19 15  1  0
  1 37  1  0
  1 38  1  0
  1 39  1  0
  3 40  1  0
  3 41  1  0
  4 42  1  0
  4 43  1  0
  5 44  1  0
  5 45  1  0
  6 46  1  0
  6 47  1  0
 12 48  1  0
 13 49  1  0
 16 50  1  0
 20 51  1  0
 21 52  1  0
 22 53  1  0
 23 54  1  0
 23 55  1  0
 24 56  1  0
 24 57  1  0
 25 58  1  0
 25 59  1  0
 26 60  1  0
 26 61  1  0
 27 62  1  0
 30 63  1  0
 31 64  1  0
 32 65  1  0
 33 66  1  0
M  END
$$$$
