
     RDKit          3D

 76 79  0  0  0  0  0  0  0  0999 V2000
    6.8035    0.5775   -3.7267 C   0  0  0  0  0  0  0  0  0  0  0  0
    7.0518   -0.3701   -2.7097 O   0  0  0  0  0  0  0  0  0  0  0  0
    5.8320   -0.8625   -2.1815 C   0  0  0  0  0  0  0  0  0  0  0  0
    5.2861    0.0576   -1.0683 C   0  0  0  0  0  0  0  0  0  0  0  0
    6.3712    0.4278   -0.0481 C   0  0  0  0  0  0  0  0  0  0  0  0
    5.6967    0.3721    1.3178 C   0  0  0  0  0  0  0  0  0  0  0  0
    4.4762   -0.5227    1.1426 C   0  0  0  0  0  0  0  0  0  0  0  0
    4.2333   -0.5887   -0.2894 N   0  0  0  0  0  0  0  0  0  0  0  0
    2.9744   -1.0004   -0.8550 C   0  0  0  0  0  0  0  0  0  0  0  0
    2.9625   -1.7471   -1.8717 O   0  0  0  0  0  0  0  0  0  0  0  0
    1.6667   -0.5399   -0.2578 C   0  0  0  0  0  0  0  0  0  0  0  0
    1.0749   -1.6117    0.6891 C   0  0  0  0  0  0  0  0  0  0  0  0
    0.4233   -1.0052    1.9087 C   0  0  0  0  0  0  0  0  0  0  0  0
    1.0987   -0.2283    2.6379 O   0  0  0  0  0  0  0  0  0  0  0  0
   -0.8800   -1.4087    2.3552 N   0  0  0  0  0  0  0  0  0  0  0  0
   -2.0273   -1.6113    1.4680 C   0  0  0  0  0  0  0  0  0  0  0  0
   -2.3842   -3.1041    1.4049 C   0  0  0  0  0  0  0  0  0  0  0  0
   -2.6400   -3.6149    2.6865 O   0  0  0  0  0  0  0  0  0  0  0  0
   -3.1927   -0.7836    1.9738 C   0  0  0  0  0  0  0  0  0  0  0  0
   -3.6665   -1.0563    3.1138 O   0  0  0  0  0  0  0  0  0  0  0  0
   -3.7044    0.3832    1.2954 N   0  0  0  0  0  0  0  0  0  0  0  0
   -3.6877    0.6855   -0.1460 C   0  0  0  0  0  0  0  0  0  0  0  0
   -4.3272   -0.4439   -0.9770 C   0  0  0  0  0  0  0  0  0  0  0  0
   -5.7933   -0.5890   -0.6560 C   0  0  0  0  0  0  0  0  0  0  0  0
   -6.7340    0.2667   -1.2539 C   0  0  0  0  0  0  0  0  0  0  0  0
   -8.0882    0.1724   -0.9150 C   0  0  0  0  0  0  0  0  0  0  0  0
   -8.5129   -0.7754    0.0222 C   0  0  0  0  0  0  0  0  0  0  0  0
   -7.5829   -1.6282    0.6224 C   0  0  0  0  0  0  0  0  0  0  0  0
   -6.2272   -1.5368    0.2879 C   0  0  0  0  0  0  0  0  0  0  0  0
   -2.2920    1.0760   -0.6627 C   0  0  0  0  0  0  0  0  0  0  0  0
   -1.5325    1.7047    0.3702 O   0  0  0  0  0  0  0  0  0  0  0  0
   -0.3460    2.4420    0.1975 C   0  0  0  0  0  0  0  0  0  0  0  0
   -0.0672    3.4261    1.1554 C   0  0  0  0  0  0  0  0  0  0  0  0
    1.0701    4.2277    1.0440 C   0  0  0  0  0  0  0  0  0  0  0  0
    1.9465    4.0580   -0.0293 C   0  0  0  0  0  0  0  0  0  0  0  0
    1.6978    3.0730   -0.9845 C   0  0  0  0  0  0  0  0  0  0  0  0
    0.5683    2.2471   -0.8744 C   0  0  0  0  0  0  0  0  0  0  0  0
    0.4709    1.1058   -1.7922 C   0  0  0  0  0  0  0  0  0  0  0  0
    0.1397    1.3056   -2.9907 O   0  0  0  0  0  0  0  0  0  0  0  0
    0.7225   -0.2324   -1.3383 N   0  0  0  0  0  0  0  0  0  0  0  0
    7.7780    0.9354   -4.1179 H   0  0  0  0  0  0  0  0  0  0  0  0
    6.2650    1.4648   -3.3284 H   0  0  0  0  0  0  0  0  0  0  0  0
    6.2443    0.1263   -4.5773 H   0  0  0  0  0  0  0  0  0  0  0  0
    5.0658   -1.0155   -2.9745 H   0  0  0  0  0  0  0  0  0  0  0  0
    6.0312   -1.8663   -1.7429 H   0  0  0  0  0  0  0  0  0  0  0  0
    4.8686    0.9855   -1.5183 H   0  0  0  0  0  0  0  0  0  0  0  0
    7.2056   -0.3067   -0.0616 H   0  0  0  0  0  0  0  0  0  0  0  0
    6.7841    1.4387   -0.2494 H   0  0  0  0  0  0  0  0  0  0  0  0
    6.3842   -0.0325    2.0927 H   0  0  0  0  0  0  0  0  0  0  0  0
    5.3719    1.3949    1.6140 H   0  0  0  0  0  0  0  0  0  0  0  0
    4.6807   -1.5438    1.5309 H   0  0  0  0  0  0  0  0  0  0  0  0
    3.6159   -0.0871    1.6880 H   0  0  0  0  0  0  0  0  0  0  0  0
    1.8806    0.3838    0.3166 H   0  0  0  0  0  0  0  0  0  0  0  0
    1.8840   -2.2844    1.0568 H   0  0  0  0  0  0  0  0  0  0  0  0
    0.3618   -2.2625    0.1391 H   0  0  0  0  0  0  0  0  0  0  0  0
   -1.0387   -1.4383    3.3907 H   0  0  0  0  0  0  0  0  0  0  0  0
   -1.7578   -1.3079    0.4468 H   0  0  0  0  0  0  0  0  0  0  0  0
   -3.2767   -3.2505    0.7557 H   0  0  0  0  0  0  0  0  0  0  0  0
   -1.5351   -3.6601    0.9496 H   0  0  0  0  0  0  0  0  0  0  0  0
   -2.8369   -4.5792    2.5650 H   0  0  0  0  0  0  0  0  0  0  0  0
   -4.2889    1.0244    1.8804 H   0  0  0  0  0  0  0  0  0  0  0  0
   -4.3161    1.5915   -0.2978 H   0  0  0  0  0  0  0  0  0  0  0  0
   -3.7978   -1.4042   -0.8079 H   0  0  0  0  0  0  0  0  0  0  0  0
   -4.2168   -0.2075   -2.0581 H   0  0  0  0  0  0  0  0  0  0  0  0
   -6.4177    1.0142   -1.9721 H   0  0  0  0  0  0  0  0  0  0  0  0
   -8.8060    0.8383   -1.3745 H   0  0  0  0  0  0  0  0  0  0  0  0
   -9.5624   -0.8440    0.2851 H   0  0  0  0  0  0  0  0  0  0  0  0
   -7.9137   -2.3583    1.3514 H   0  0  0  0  0  0  0  0  0  0  0  0
   -5.5174   -2.1970    0.7703 H   0  0  0  0  0  0  0  0  0  0  0  0
   -1.7738    0.1861   -1.0482 H   0  0  0  0  0  0  0  0  0  0  0  0
   -2.4101    1.7822   -1.5154 H   0  0  0  0  0  0  0  0  0  0  0  0
   -0.7442    3.5710    1.9883 H   0  0  0  0  0  0  0  0  0  0  0  0
    1.2744    4.9828    1.7910 H   0  0  0  0  0  0  0  0  0  0  0  0
    2.8332    4.6774   -0.1042 H   0  0  0  0  0  0  0  0  0  0  0  0
    2.4140    2.9214   -1.7845 H   0  0  0  0  0  0  0  0  0  0  0  0
    0.3859   -1.0208   -1.9397 H   0  0  0  0  0  0  0  0  0  0  0  0
  1  2  1  0
  2  3  1  0
  3  4  1  0
  4  5  1  0
  5  6  1  0
  6  7  1  0
  7  8  1  0
  8  9  1  0
  9 10  2  0
  9 11  1  0
 11 12  1  0
 12 13  1  0
 13 14  2  0
 13 15  1  0
 15 16  1  0
 16 17  1  0
 17 18  1  0
 16 19  1  0
 19 20  2  0
 19 21  1  0
 21 22  1  0
 22 23  1  0
 23 24  1  0
 24 25  2  0
 25 26  1  0
 26 27  2  0
 27 28  1  0
 28 29  2  0
 22 30  1  0
 30 31  1  0
 31 32  1  0
 32 33  2  0
 33 34  1  0
 34 35  2  0
 35 36  1  0
 36 37  2  0
 37 38  1  0
 38 39  2  0
 38 40  1  0
  8  4  1  0
 40 11  1  0
 29 24  1  0
 37 32  1  0
  1 41  1  0
  1 42  1  0
  1 43  1  0
  3 44  1  0
  3 45  1  0
  4 46  1  0
  5 47  1  0
  5 48  1  0
  6 49  1  0
  6 50  1  0
  7 51  1  0
  7 52  1  0
 11 53  1  0
 12 54  1  0
 12 55  1  0
 15 56  1  0
 16 57  1  0
 17 58  1  0
 17 59  1  0
 18 60  1  0
 21 61  1  0
 22 62  1  0
 23 63  1  0
 23 64  1  0
 25 65  1  0
 26 66  1  0
 27 67  1  0
 28 68  1  0
 29 69  1  0
 30 70  1  0
 30 71  1  0
 33 72  1  0
 34 73  1  0
 35 74  1  0
 36 75  1  0
 40 76  1  0
M  END
$$$$
