
     RDKit          3D

 61 64  0  0  0  0  0  0  0  0999 V2000
   -1.4359   -3.9794   -0.0465 C   0  0  0  0  0  0  0  0  0  0  0  0
   -1.2225   -2.5528    0.2136 N   0  0  0  0  0  0  0  0  0  0  0  0
   -1.6751   -2.0052    1.5008 C   0  0  0  0  0  0  0  0  0  0  0  0
   -3.0931   -1.4365    1.4043 C   0  0  0  0  0  0  0  0  0  0  0  0
   -3.0388   -0.0995    0.9138 O   0  0  0  0  0  0  0  0  0  0  0  0
   -4.1542    0.6965    0.6145 C   0  0  0  0  0  0  0  0  0  0  0  0
   -5.4618    0.1773    0.6240 C   0  0  0  0  0  0  0  0  0  0  0  0
   -6.5442    0.9835    0.2683 C   0  0  0  0  0  0  0  0  0  0  0  0
   -6.3378    2.3068   -0.1174 C   0  0  0  0  0  0  0  0  0  0  0  0
   -5.0485    2.8383   -0.1161 C   0  0  0  0  0  0  0  0  0  0  0  0
   -3.9544    2.0558    0.2903 C   0  0  0  0  0  0  0  0  0  0  0  0
   -2.5904    2.6983    0.4045 C   0  0  0  0  0  0  0  0  0  0  0  0
   -1.7995    2.6810   -0.9148 C   0  0  0  0  0  0  0  0  0  0  0  0
   -1.3418    1.2825   -1.3625 C   0  0  0  0  0  0  0  0  0  0  0  0
   -0.2390    0.6883   -0.4566 C   0  0  0  0  0  0  0  0  0  0  0  0
    0.2461   -0.7159   -0.9075 C   0  0  0  0  0  0  0  0  0  0  0  0
    1.3632   -1.2005    0.0829 C   0  0  0  0  0  0  0  0  0  0  0  0
    2.6646   -0.6611   -0.3256 N   0  0  0  0  0  0  0  0  0  0  0  0
    3.4679    0.1158    0.5926 C   0  0  0  0  0  0  0  0  0  0  0  0
    2.9443    0.5918    1.6386 O   0  0  0  0  0  0  0  0  0  0  0  0
    4.8972    0.3894    0.3412 C   0  0  0  0  0  0  0  0  0  0  0  0
    5.7801   -0.6475   -0.0026 C   0  0  0  0  0  0  0  0  0  0  0  0
    7.1376   -0.3773   -0.2071 C   0  0  0  0  0  0  0  0  0  0  0  0
    7.6252    0.9236   -0.0566 C   0  0  0  0  0  0  0  0  0  0  0  0
    6.7573    1.9551    0.3160 C   0  0  0  0  0  0  0  0  0  0  0  0
    5.4005    1.6891    0.5221 C   0  0  0  0  0  0  0  0  0  0  0  0
    3.0522   -0.8228   -1.7332 C   0  0  0  0  0  0  0  0  0  0  0  0
    1.8626   -1.3341   -2.5498 C   0  0  0  0  0  0  0  0  0  0  0  0
    0.7146   -0.5639   -2.2543 O   0  0  0  0  0  0  0  0  0  0  0  0
   -0.9182   -1.7028   -0.9113 C   0  0  0  0  0  0  0  0  0  0  0  0
   -1.6057   -1.8245   -1.9642 O   0  0  0  0  0  0  0  0  0  0  0  0
   -0.8379   -4.3115   -0.9236 H   0  0  0  0  0  0  0  0  0  0  0  0
   -2.5108   -4.1644   -0.2536 H   0  0  0  0  0  0  0  0  0  0  0  0
   -1.1158   -4.5830    0.8284 H   0  0  0  0  0  0  0  0  0  0  0  0
   -1.6655   -2.8101    2.2710 H   0  0  0  0  0  0  0  0  0  0  0  0
   -0.9790   -1.2301    1.8720 H   0  0  0  0  0  0  0  0  0  0  0  0
   -3.5444   -1.4223    2.4211 H   0  0  0  0  0  0  0  0  0  0  0  0
   -3.7154   -2.0864    0.7485 H   0  0  0  0  0  0  0  0  0  0  0  0
   -5.6560   -0.8492    0.8952 H   0  0  0  0  0  0  0  0  0  0  0  0
   -7.5459    0.5744    0.2762 H   0  0  0  0  0  0  0  0  0  0  0  0
   -7.1742    2.9228   -0.4263 H   0  0  0  0  0  0  0  0  0  0  0  0
   -4.9055    3.8734   -0.4030 H   0  0  0  0  0  0  0  0  0  0  0  0
   -2.7229    3.7606    0.7065 H   0  0  0  0  0  0  0  0  0  0  0  0
   -2.0088    2.2377    1.2259 H   0  0  0  0  0  0  0  0  0  0  0  0
   -2.4319    3.1188   -1.7167 H   0  0  0  0  0  0  0  0  0  0  0  0
   -0.9107    3.3384   -0.8119 H   0  0  0  0  0  0  0  0  0  0  0  0
   -2.2191    0.6129   -1.4171 H   0  0  0  0  0  0  0  0  0  0  0  0
   -0.9430    1.3799   -2.3959 H   0  0  0  0  0  0  0  0  0  0  0  0
    0.6344    1.3820   -0.4771 H   0  0  0  0  0  0  0  0  0  0  0  0
   -0.5852    0.6447    0.5939 H   0  0  0  0  0  0  0  0  0  0  0  0
    1.4373   -2.3115    0.0629 H   0  0  0  0  0  0  0  0  0  0  0  0
    1.1253   -0.9322    1.1323 H   0  0  0  0  0  0  0  0  0  0  0  0
    5.4284   -1.6681   -0.0861 H   0  0  0  0  0  0  0  0  0  0  0  0
    7.8129   -1.1800   -0.4694 H   0  0  0  0  0  0  0  0  0  0  0  0
    8.6773    1.1271   -0.2125 H   0  0  0  0  0  0  0  0  0  0  0  0
    7.1362    2.9611    0.4475 H   0  0  0  0  0  0  0  0  0  0  0  0
    4.7411    2.4957    0.8168 H   0  0  0  0  0  0  0  0  0  0  0  0
    3.3719    0.1598   -2.1453 H   0  0  0  0  0  0  0  0  0  0  0  0
    3.8870   -1.5446   -1.8241 H   0  0  0  0  0  0  0  0  0  0  0  0
    2.0946   -1.2305   -3.6308 H   0  0  0  0  0  0  0  0  0  0  0  0
    1.6729   -2.4146   -2.3560 H   0  0  0  0  0  0  0  0  0  0  0  0
  1  2  1  0
  2  3  1  0
  3  4  1  0
  4  5  1  0
  5  6  1  0
  6  7  2  0
  7  8  1  0
  8  9  2  0
  9 10  1  0
 10 11  2  0
 11 12  1  0
 12 13  1  0
 13 14  1  0
 14 15  1  0
 15 16  1  0
 16 17  1  0
 17 18  1  0
 18 19  1  0
 19 20  2  0
 19 21  1  0
 21 22  2  0
 22 23  1  0
 23 24  2  0
 24 25  1  0
 25 26  2  0
 18 27  1  0
 27 28  1  0
 28 29  1  0
 16 30  1  0
 30 31  2  0
 30  2  1  0
 11  6  1  0
 29 16  1  0
 26 21  1  0
  1 32  1  0
  1 33  1  0
  1 34  1  0
  3 35  1  0
  3 36  1  0
  4 37  1  0
  4 38  1  0
  7 39  1  0
  8 40  1  0
  9 41  1  0
 10 42  1  0
 12 43  1  0
 12 44  1  0
 13 45  1  0
 13 46  1  0
 14 47  1  0
 14 48  1  0
 15 49  1  0
 15 50  1  0
 17 51  1  0
 17 52  1  0
 22 53  1  0
 23 54  1  0
 24 55  1  0
 25 56  1  0
 26 57  1  0
 27 58  1  0
 27 59  1  0
 28 60  1  0
 28 61  1  0
M  END
$$$$
