
     RDKit          3D

 78 81  0  0  0  0  0  0  0  0999 V2000
    9.9805   -1.0092   -0.5186 C   0  0  0  0  0  0  0  0  0  0  0  0
    8.7222   -0.5536    0.1665 C   0  0  0  0  0  0  0  0  0  0  0  0
    7.5959   -1.3941    0.1783 C   0  0  0  0  0  0  0  0  0  0  0  0
    6.3991   -0.9840    0.7761 C   0  0  0  0  0  0  0  0  0  0  0  0
    5.3055   -1.8644    0.7389 O   0  0  0  0  0  0  0  0  0  0  0  0
    3.9613   -1.5316    1.0868 C   0  0  0  0  0  0  0  0  0  0  0  0
    3.3541   -0.5904    0.0392 C   0  0  0  0  0  0  0  0  0  0  0  0
    1.9201   -0.4181    0.2574 N   0  0  0  0  0  0  0  0  0  0  0  0
    1.3914    0.4230    1.2941 C   0  0  0  0  0  0  0  0  0  0  0  0
    2.1087    0.7496    2.2763 O   0  0  0  0  0  0  0  0  0  0  0  0
   -0.0278    0.9153    1.2083 C   0  0  0  0  0  0  0  0  0  0  0  0
   -0.9677    0.1461    2.1542 C   0  0  0  0  0  0  0  0  0  0  0  0
   -1.1192   -1.3035    1.7708 C   0  0  0  0  0  0  0  0  0  0  0  0
   -0.2687   -2.1242    2.2102 O   0  0  0  0  0  0  0  0  0  0  0  0
   -2.1902   -1.7964    0.9402 N   0  0  0  0  0  0  0  0  0  0  0  0
   -3.0750   -0.9684    0.1002 C   0  0  0  0  0  0  0  0  0  0  0  0
   -3.7624   -1.8367   -0.9866 C   0  0  0  0  0  0  0  0  0  0  0  0
   -4.7992   -2.7980   -0.4436 C   0  0  0  0  0  0  0  0  0  0  0  0
   -6.1217   -2.3654   -0.2330 C   0  0  0  0  0  0  0  0  0  0  0  0
   -7.0777   -3.2407    0.2881 C   0  0  0  0  0  0  0  0  0  0  0  0
   -6.7257   -4.5561    0.5986 C   0  0  0  0  0  0  0  0  0  0  0  0
   -5.4191   -5.0017    0.3763 C   0  0  0  0  0  0  0  0  0  0  0  0
   -4.4592   -4.1294   -0.1449 C   0  0  0  0  0  0  0  0  0  0  0  0
   -4.1063   -0.2354    0.9414 C   0  0  0  0  0  0  0  0  0  0  0  0
   -4.4448   -0.7458    2.0461 O   0  0  0  0  0  0  0  0  0  0  0  0
   -4.7698    0.9736    0.4896 N   0  0  0  0  0  0  0  0  0  0  0  0
   -5.9114    1.4748    1.2630 C   0  0  0  0  0  0  0  0  0  0  0  0
   -4.3129    1.7391   -0.6826 C   0  0  0  0  0  0  0  0  0  0  0  0
   -3.1050    2.5948   -0.3188 C   0  0  0  0  0  0  0  0  0  0  0  0
   -2.5227    3.1379   -1.5034 O   0  0  0  0  0  0  0  0  0  0  0  0
   -1.1506    3.1227   -1.8258 C   0  0  0  0  0  0  0  0  0  0  0  0
   -0.8198    3.0612   -3.1873 C   0  0  0  0  0  0  0  0  0  0  0  0
    0.5110    2.9444   -3.5976 C   0  0  0  0  0  0  0  0  0  0  0  0
    1.5298    2.8977   -2.6504 C   0  0  0  0  0  0  0  0  0  0  0  0
    1.2268    2.9991   -1.2910 C   0  0  0  0  0  0  0  0  0  0  0  0
   -0.1041    3.1414   -0.8649 C   0  0  0  0  0  0  0  0  0  0  0  0
   -0.3441    3.3658    0.5700 C   0  0  0  0  0  0  0  0  0  0  0  0
   -0.7845    4.4837    0.9534 O   0  0  0  0  0  0  0  0  0  0  0  0
   -0.0726    2.3443    1.5389 N   0  0  0  0  0  0  0  0  0  0  0  0
    6.3347    0.2833    1.3845 C   0  0  0  0  0  0  0  0  0  0  0  0
    7.4445    1.1314    1.3631 C   0  0  0  0  0  0  0  0  0  0  0  0
    8.6349    0.7252    0.7515 C   0  0  0  0  0  0  0  0  0  0  0  0
    9.9893    1.8480    0.7187 Cl  0  0  0  0  0  0  0  0  0  0  0  0
   10.0895   -0.4764   -1.4874 H   0  0  0  0  0  0  0  0  0  0  0  0
    9.9609   -2.1046   -0.7172 H   0  0  0  0  0  0  0  0  0  0  0  0
   10.8651   -0.7984    0.1198 H   0  0  0  0  0  0  0  0  0  0  0  0
    7.6414   -2.3715   -0.2893 H   0  0  0  0  0  0  0  0  0  0  0  0
    3.9224   -1.0911    2.1056 H   0  0  0  0  0  0  0  0  0  0  0  0
    3.3675   -2.4725    1.1082 H   0  0  0  0  0  0  0  0  0  0  0  0
    3.8528    0.4016    0.0604 H   0  0  0  0  0  0  0  0  0  0  0  0
    3.5185   -1.0269   -0.9703 H   0  0  0  0  0  0  0  0  0  0  0  0
    1.2672   -0.8095   -0.4585 H   0  0  0  0  0  0  0  0  0  0  0  0
   -0.3851    0.7589    0.1688 H   0  0  0  0  0  0  0  0  0  0  0  0
   -0.5722    0.2042    3.1931 H   0  0  0  0  0  0  0  0  0  0  0  0
   -1.9601    0.6398    2.1763 H   0  0  0  0  0  0  0  0  0  0  0  0
   -2.2249   -2.8315    0.8264 H   0  0  0  0  0  0  0  0  0  0  0  0
   -2.4372   -0.2394   -0.4342 H   0  0  0  0  0  0  0  0  0  0  0  0
   -4.2487   -1.1813   -1.7388 H   0  0  0  0  0  0  0  0  0  0  0  0
   -2.9812   -2.3999   -1.5426 H   0  0  0  0  0  0  0  0  0  0  0  0
   -6.4095   -1.3487   -0.4668 H   0  0  0  0  0  0  0  0  0  0  0  0
   -8.0920   -2.9000    0.4526 H   0  0  0  0  0  0  0  0  0  0  0  0
   -7.4666   -5.2314    1.0027 H   0  0  0  0  0  0  0  0  0  0  0  0
   -5.1511   -6.0249    0.6045 H   0  0  0  0  0  0  0  0  0  0  0  0
   -3.4547   -4.4937   -0.3174 H   0  0  0  0  0  0  0  0  0  0  0  0
   -6.7356    0.7317    1.2389 H   0  0  0  0  0  0  0  0  0  0  0  0
   -5.6049    1.6545    2.3160 H   0  0  0  0  0  0  0  0  0  0  0  0
   -6.2950    2.4331    0.8556 H   0  0  0  0  0  0  0  0  0  0  0  0
   -5.1218    2.4003   -1.0624 H   0  0  0  0  0  0  0  0  0  0  0  0
   -4.0576    1.0574   -1.5176 H   0  0  0  0  0  0  0  0  0  0  0  0
   -3.4104    3.4189    0.3597 H   0  0  0  0  0  0  0  0  0  0  0  0
   -2.3947    1.9435    0.2066 H   0  0  0  0  0  0  0  0  0  0  0  0
   -1.6042    3.0667   -3.9322 H   0  0  0  0  0  0  0  0  0  0  0  0
    0.7500    2.8758   -4.6526 H   0  0  0  0  0  0  0  0  0  0  0  0
    2.5597    2.7927   -2.9680 H   0  0  0  0  0  0  0  0  0  0  0  0
    2.0348    2.9957   -0.5702 H   0  0  0  0  0  0  0  0  0  0  0  0
    0.0192    2.6311    2.5392 H   0  0  0  0  0  0  0  0  0  0  0  0
    5.4342    0.6282    1.8746 H   0  0  0  0  0  0  0  0  0  0  0  0
    7.3766    2.1121    1.8189 H   0  0  0  0  0  0  0  0  0  0  0  0
  1  2  1  0
  2  3  2  0
  3  4  1  0
  4  5  1  0
  5  6  1  0
  6  7  1  0
  7  8  1  0
  8  9  1  0
  9 10  2  0
  9 11  1  0
 11 12  1  0
 12 13  1  0
 13 14  2  0
 13 15  1  0
 15 16  1  0
 16 17  1  0
 17 18  1  0
 18 19  2  0
 19 20  1  0
 20 21  2  0
 21 22  1  0
 22 23  2  0
 16 24  1  0
 24 25  2  0
 24 26  1  0
 26 27  1  0
 26 28  1  0
 28 29  1  0
 29 30  1  0
 30 31  1  0
 31 32  2  0
 32 33  1  0
 33 34  2  0
 34 35  1  0
 35 36  2  0
 36 37  1  0
 37 38  2  0
 37 39  1  0
  4 40  2  0
 40 41  1  0
 41 42  2  0
 42 43  1  0
 42  2  1  0
 39 11  1  0
 23 18  1  0
 36 31  1  0
  1 44  1  0
  1 45  1  0
  1 46  1  0
  3 47  1  0
  6 48  1  0
  6 49  1  0
  7 50  1  0
  7 51  1  0
  8 52  1  0
 11 53  1  0
 12 54  1  0
 12 55  1  0
 15 56  1  0
 16 57  1  0
 17 58  1  0
 17 59  1  0
 19 60  1  0
 20 61  1  0
 21 62  1  0
 22 63  1  0
 23 64  1  0
 27 65  1  0
 27 66  1  0
 27 67  1  0
 28 68  1  0
 28 69  1  0
 29 70  1  0
 29 71  1  0
 32 72  1  0
 33 73  1  0
 34 74  1  0
 35 75  1  0
 39 76  1  0
 40 77  1  0
 41 78  1  0
M  END
$$$$
