
     RDKit          3D

 77 78  0  0  0  0  0  0  0  0999 V2000
   -4.1008    0.3140    3.1491 C   0  0  0  0  0  0  0  0  0  0  0  0
   -4.2802    0.9367    1.8961 O   0  0  0  0  0  0  0  0  0  0  0  0
   -3.9397    0.0524    0.8368 C   0  0  0  0  0  0  0  0  0  0  0  0
   -3.1352    0.8504   -0.2124 C   0  0  0  0  0  0  0  0  0  0  0  0
   -2.0519    1.6309    0.4195 N   0  0  0  0  0  0  0  0  0  0  0  0
   -2.2060    3.0443    0.7080 C   0  0  0  0  0  0  0  0  0  0  0  0
   -3.4150    3.8199    0.2753 C   0  0  0  0  0  0  0  0  0  0  0  0
   -1.3002    3.6633    1.3309 O   0  0  0  0  0  0  0  0  0  0  0  0
   -0.8339    0.9245    0.8598 C   0  0  0  0  0  0  0  0  0  0  0  0
    0.1864    0.7701   -0.2915 C   0  0  0  0  0  0  0  0  0  0  0  0
    0.9145    2.1034   -0.5883 C   0  0  0  0  0  0  0  0  0  0  0  0
    1.9257    2.0179   -1.7584 C   0  0  0  0  0  0  0  0  0  0  0  0
    2.8036    3.2757   -1.7843 C   0  0  0  0  0  0  0  0  0  0  0  0
    1.2210    1.8491   -3.1134 C   0  0  0  0  0  0  0  0  0  0  0  0
    1.1517   -0.3124    0.0057 N   0  0  0  0  0  0  0  0  0  0  0  0
    2.1156   -0.1646    1.0704 C   0  0  0  0  0  0  0  0  0  0  0  0
    1.7369    0.2222    2.2094 O   0  0  0  0  0  0  0  0  0  0  0  0
    3.5493   -0.4280    0.8223 C   0  0  0  0  0  0  0  0  0  0  0  0
    4.4699   -0.3456    1.7931 C   0  0  0  0  0  0  0  0  0  0  0  0
    5.9186   -0.5812    1.5743 C   0  0  0  0  0  0  0  0  0  0  0  0
    6.4064   -1.3529    0.4993 C   0  0  0  0  0  0  0  0  0  0  0  0
    7.7807   -1.5515    0.3392 C   0  0  0  0  0  0  0  0  0  0  0  0
    8.6817   -0.9958    1.2501 C   0  0  0  0  0  0  0  0  0  0  0  0
    8.2097   -0.2429    2.3286 C   0  0  0  0  0  0  0  0  0  0  0  0
    9.4418    0.5069    3.5800 Br  0  0  0  0  0  0  0  0  0  0  0  0
    6.8349   -0.0412    2.4931 C   0  0  0  0  0  0  0  0  0  0  0  0
    1.2010   -1.5075   -0.8584 C   0  0  0  0  0  0  0  0  0  0  0  0
   -0.0729   -2.3675   -0.7193 C   0  0  0  0  0  0  0  0  0  0  0  0
   -0.9297   -2.3422   -1.9943 C   0  0  0  0  0  0  0  0  0  0  0  0
   -2.2647   -3.0618   -1.8057 C   0  0  0  0  0  0  0  0  0  0  0  0
   -3.0293   -2.3968   -0.8188 O   0  0  0  0  0  0  0  0  0  0  0  0
   -4.3950   -2.7146   -0.9751 C   0  0  0  0  0  0  0  0  0  0  0  0
   -5.2283   -2.1324    0.1804 C   0  0  0  0  0  0  0  0  0  0  0  0
   -4.7987   -2.6528    1.4133 O   0  0  0  0  0  0  0  0  0  0  0  0
   -5.2344   -0.5765    0.2107 C   0  0  0  0  0  0  0  0  0  0  0  0
   -6.3636   -0.1462    0.9334 O   0  0  0  0  0  0  0  0  0  0  0  0
   -4.4432    1.0090    3.9426 H   0  0  0  0  0  0  0  0  0  0  0  0
   -3.0245    0.0981    3.3307 H   0  0  0  0  0  0  0  0  0  0  0  0
   -4.7050   -0.6163    3.2283 H   0  0  0  0  0  0  0  0  0  0  0  0
   -3.2580   -0.7624    1.1745 H   0  0  0  0  0  0  0  0  0  0  0  0
   -2.7015    0.1504   -0.9544 H   0  0  0  0  0  0  0  0  0  0  0  0
   -3.8119    1.5108   -0.7915 H   0  0  0  0  0  0  0  0  0  0  0  0
   -3.4652    3.8506   -0.8330 H   0  0  0  0  0  0  0  0  0  0  0  0
   -4.3360    3.3545    0.6825 H   0  0  0  0  0  0  0  0  0  0  0  0
   -3.3620    4.8641    0.6507 H   0  0  0  0  0  0  0  0  0  0  0  0
   -0.3745    1.4456    1.7250 H   0  0  0  0  0  0  0  0  0  0  0  0
   -1.1068   -0.0779    1.2429 H   0  0  0  0  0  0  0  0  0  0  0  0
   -0.3903    0.5049   -1.1966 H   0  0  0  0  0  0  0  0  0  0  0  0
    1.4451    2.4304    0.3330 H   0  0  0  0  0  0  0  0  0  0  0  0
    0.1638    2.8882   -0.8257 H   0  0  0  0  0  0  0  0  0  0  0  0
    2.6013    1.1493   -1.6069 H   0  0  0  0  0  0  0  0  0  0  0  0
    2.1827    4.1841   -1.9390 H   0  0  0  0  0  0  0  0  0  0  0  0
    3.3569    3.3778   -0.8259 H   0  0  0  0  0  0  0  0  0  0  0  0
    3.5505    3.2077   -2.6038 H   0  0  0  0  0  0  0  0  0  0  0  0
    1.9674    1.8533   -3.9359 H   0  0  0  0  0  0  0  0  0  0  0  0
    0.4957    2.6735   -3.2845 H   0  0  0  0  0  0  0  0  0  0  0  0
    0.6835    0.8802   -3.1625 H   0  0  0  0  0  0  0  0  0  0  0  0
    3.8478   -0.6530   -0.1921 H   0  0  0  0  0  0  0  0  0  0  0  0
    4.1594   -0.0476    2.7882 H   0  0  0  0  0  0  0  0  0  0  0  0
    5.7361   -1.8239   -0.2063 H   0  0  0  0  0  0  0  0  0  0  0  0
    8.1475   -2.1447   -0.4889 H   0  0  0  0  0  0  0  0  0  0  0  0
    9.7441   -1.1567    1.1210 H   0  0  0  0  0  0  0  0  0  0  0  0
    6.4829    0.5454    3.3331 H   0  0  0  0  0  0  0  0  0  0  0  0
    2.0661   -2.1487   -0.5838 H   0  0  0  0  0  0  0  0  0  0  0  0
    1.3753   -1.1960   -1.9112 H   0  0  0  0  0  0  0  0  0  0  0  0
   -0.6708   -2.0390    0.1547 H   0  0  0  0  0  0  0  0  0  0  0  0
    0.2211   -3.4219   -0.5209 H   0  0  0  0  0  0  0  0  0  0  0  0
   -0.3685   -2.8371   -2.8167 H   0  0  0  0  0  0  0  0  0  0  0  0
   -1.1352   -1.2991   -2.3090 H   0  0  0  0  0  0  0  0  0  0  0  0
   -2.7724   -3.0701   -2.7999 H   0  0  0  0  0  0  0  0  0  0  0  0
   -2.0810   -4.1140   -1.4935 H   0  0  0  0  0  0  0  0  0  0  0  0
   -4.5420   -3.8198   -0.9857 H   0  0  0  0  0  0  0  0  0  0  0  0
   -4.7816   -2.2999   -1.9342 H   0  0  0  0  0  0  0  0  0  0  0  0
   -6.2800   -2.4610    0.0010 H   0  0  0  0  0  0  0  0  0  0  0  0
   -5.0903   -3.6014    1.4448 H   0  0  0  0  0  0  0  0  0  0  0  0
   -5.3458   -0.2213   -0.8421 H   0  0  0  0  0  0  0  0  0  0  0  0
   -7.1504   -0.2332    0.3336 H   0  0  0  0  0  0  0  0  0  0  0  0
  1  2  1  0
  2  3  1  0
  3  4  1  0
  4  5  1  0
  5  6  1  0
  6  7  1  0
  6  8  2  0
  5  9  1  0
  9 10  1  0
 10 11  1  0
 11 12  1  0
 12 13  1  0
 12 14  1  0
 10 15  1  0
 15 16  1  0
 16 17  2  0
 16 18  1  0
 18 19  2  0
 19 20  1  0
 20 21  2  0
 21 22  1  0
 22 23  2  0
 23 24  1  0
 24 25  1  0
 24 26  2  0
 15 27  1  0
 27 28  1  0
 28 29  1  0
 29 30  1  0
 30 31  1  0
 31 32  1  0
 32 33  1  0
 33 34  1  0
 33 35  1  0
 35 36  1  0
 35  3  1  0
 26 20  1  0
  1 37  1  0
  1 38  1  0
  1 39  1  0
  3 40  1  0
  4 41  1  0
  4 42  1  0
  7 43  1  0
  7 44  1  0
  7 45  1  0
  9 46  1  0
  9 47  1  0
 10 48  1  0
 11 49  1  0
 11 50  1  0
 12 51  1  0
 13 52  1  0
 13 53  1  0
 13 54  1  0
 14 55  1  0
 14 56  1  0
 14 57  1  0
 18 58  1  0
 19 59  1  0
 21 60  1  0
 22 61  1  0
 23 62  1  0
 26 63  1  0
 27 64  1  0
 27 65  1  0
 28 66  1  0
 28 67  1  0
 29 68  1  0
 29 69  1  0
 30 70  1  0
 30 71  1  0
 32 72  1  0
 32 73  1  0
 33 74  1  0
 34 75  1  0
 35 76  1  0
 36 77  1  0
M  END
$$$$
