
     RDKit          3D

 67 70  0  0  0  0  0  0  0  0999 V2000
   -3.1149   -2.2866   -2.1363 C   0  0  0  0  0  0  0  0  0  0  0  0
   -2.4991   -2.3649   -0.7193 C   0  0  0  0  0  0  0  0  0  0  0  0
   -2.4014   -3.8643   -0.3425 C   0  0  0  0  0  0  0  0  0  0  0  0
   -1.0823   -1.7153   -0.7637 C   0  0  0  0  0  0  0  0  0  0  0  0
   -0.1801   -2.0660    0.4378 C   0  0  0  0  0  0  0  0  0  0  0  0
    0.9964   -1.0932    0.5668 C   0  0  0  0  0  0  0  0  0  0  0  0
    0.5337    0.2189    1.0686 N   0  0  0  0  0  0  0  0  0  0  0  0
    1.2746    1.3637    0.4820 C   0  0  0  0  0  0  0  0  0  0  0  0
    2.7736    1.1739    0.4476 C   0  0  0  0  0  0  0  0  0  0  0  0
    3.3982    0.8870    1.5070 O   0  0  0  0  0  0  0  0  0  0  0  0
    3.4849    1.3140   -0.7903 N   0  0  0  0  0  0  0  0  0  0  0  0
    4.9125    1.0300   -0.9139 C   0  0  0  0  0  0  0  0  0  0  0  0
    5.1703   -0.4814   -0.9562 C   0  0  0  0  0  0  0  0  0  0  0  0
    4.6235   -1.0896   -2.2144 C   0  0  0  0  0  0  0  0  0  0  0  0
    5.2304   -1.0769   -3.4505 C   0  0  0  0  0  0  0  0  0  0  0  0
    4.4173   -1.7017   -4.3137 N   0  0  0  0  0  0  0  0  0  0  0  0
    3.3386   -2.0657   -3.5935 C   0  0  0  0  0  0  0  0  0  0  0  0
    3.4258   -1.7008   -2.2964 N   0  0  0  0  0  0  0  0  0  0  0  0
    0.4533    0.2603    2.5463 C   0  0  0  0  0  0  0  0  0  0  0  0
   -0.4368    1.3821    3.0297 C   0  0  0  0  0  0  0  0  0  0  0  0
   -0.0269    2.1665    4.1191 C   0  0  0  0  0  0  0  0  0  0  0  0
   -0.8350    3.2037    4.5856 C   0  0  0  0  0  0  0  0  0  0  0  0
   -2.0543    3.4524    3.9591 C   0  0  0  0  0  0  0  0  0  0  0  0
   -2.4463    2.6878    2.9080 N   0  0  0  0  0  0  0  0  0  0  0  0
   -1.6856    1.6598    2.4338 C   0  0  0  0  0  0  0  0  0  0  0  0
   -2.1522    0.9014    1.3522 O   0  0  0  0  0  0  0  0  0  0  0  0
   -2.7456    1.4713    0.2189 C   0  0  0  0  0  0  0  0  0  0  0  0
   -2.3739    2.7723   -0.1865 C   0  0  0  0  0  0  0  0  0  0  0  0
   -2.9721    3.3705   -1.2961 C   0  0  0  0  0  0  0  0  0  0  0  0
   -3.9206    2.6742   -2.0399 C   0  0  0  0  0  0  0  0  0  0  0  0
   -4.2718    1.3767   -1.6763 C   0  0  0  0  0  0  0  0  0  0  0  0
   -3.6947    0.7565   -0.5552 C   0  0  0  0  0  0  0  0  0  0  0  0
   -4.1434   -0.5409   -0.2670 O   0  0  0  0  0  0  0  0  0  0  0  0
   -3.4180   -1.6300    0.3146 C   0  0  0  0  0  0  0  0  0  0  0  0
   -3.1087   -1.2466   -2.5201 H   0  0  0  0  0  0  0  0  0  0  0  0
   -2.5382   -2.9116   -2.8512 H   0  0  0  0  0  0  0  0  0  0  0  0
   -4.1652   -2.6522   -2.1274 H   0  0  0  0  0  0  0  0  0  0  0  0
   -1.6879   -4.3944   -1.0125 H   0  0  0  0  0  0  0  0  0  0  0  0
   -3.3953   -4.3544   -0.4357 H   0  0  0  0  0  0  0  0  0  0  0  0
   -2.0693   -3.9992    0.7095 H   0  0  0  0  0  0  0  0  0  0  0  0
   -1.1930   -0.6130   -0.8513 H   0  0  0  0  0  0  0  0  0  0  0  0
   -0.5487   -2.0466   -1.6830 H   0  0  0  0  0  0  0  0  0  0  0  0
   -0.7592   -2.0813    1.3810 H   0  0  0  0  0  0  0  0  0  0  0  0
    0.2351   -3.0892    0.2874 H   0  0  0  0  0  0  0  0  0  0  0  0
    1.4740   -0.9990   -0.4334 H   0  0  0  0  0  0  0  0  0  0  0  0
    1.7561   -1.5283    1.2534 H   0  0  0  0  0  0  0  0  0  0  0  0
    1.0444    2.3129    1.0192 H   0  0  0  0  0  0  0  0  0  0  0  0
    0.9008    1.5073   -0.5587 H   0  0  0  0  0  0  0  0  0  0  0  0
    2.9833    1.6873   -1.6293 H   0  0  0  0  0  0  0  0  0  0  0  0
    5.3042    1.4969   -1.8449 H   0  0  0  0  0  0  0  0  0  0  0  0
    5.4618    1.4834   -0.0628 H   0  0  0  0  0  0  0  0  0  0  0  0
    4.7107   -0.9752   -0.0740 H   0  0  0  0  0  0  0  0  0  0  0  0
    6.2647   -0.6613   -0.9112 H   0  0  0  0  0  0  0  0  0  0  0  0
    6.1942   -0.6505   -3.6981 H   0  0  0  0  0  0  0  0  0  0  0  0
    4.5838   -1.8646   -5.3317 H   0  0  0  0  0  0  0  0  0  0  0  0
    2.4905   -2.5932   -4.0079 H   0  0  0  0  0  0  0  0  0  0  0  0
    0.0324   -0.6870    2.9476 H   0  0  0  0  0  0  0  0  0  0  0  0
    1.4697    0.3611    2.9831 H   0  0  0  0  0  0  0  0  0  0  0  0
    0.9152    1.9710    4.6171 H   0  0  0  0  0  0  0  0  0  0  0  0
   -0.5172    3.8128    5.4236 H   0  0  0  0  0  0  0  0  0  0  0  0
   -2.6874    4.2576    4.3028 H   0  0  0  0  0  0  0  0  0  0  0  0
   -1.6112    3.3250    0.3520 H   0  0  0  0  0  0  0  0  0  0  0  0
   -2.6785    4.3702   -1.5934 H   0  0  0  0  0  0  0  0  0  0  0  0
   -4.3808    3.1394   -2.9005 H   0  0  0  0  0  0  0  0  0  0  0  0
   -4.9975    0.8430   -2.2715 H   0  0  0  0  0  0  0  0  0  0  0  0
   -4.1873   -2.3457    0.6819 H   0  0  0  0  0  0  0  0  0  0  0  0
   -2.8735   -1.3206    1.2241 H   0  0  0  0  0  0  0  0  0  0  0  0
  1  2  1  0
  2  3  1  0
  2  4  1  0
  4  5  1  0
  5  6  1  0
  6  7  1  0
  7  8  1  0
  8  9  1  0
  9 10  2  0
  9 11  1  0
 11 12  1  0
 12 13  1  0
 13 14  1  0
 14 15  2  0
 15 16  1  0
 16 17  1  0
 17 18  2  0
  7 19  1  0
 19 20  1  0
 20 21  2  0
 21 22  1  0
 22 23  2  0
 23 24  1  0
 24 25  2  0
 25 26  1  0
 26 27  1  0
 27 28  2  0
 28 29  1  0
 29 30  2  0
 30 31  1  0
 31 32  2  0
 32 33  1  0
 33 34  1  0
 34  2  1  0
 18 14  1  0
 25 20  1  0
 32 27  1  0
  1 35  1  0
  1 36  1  0
  1 37  1  0
  3 38  1  0
  3 39  1  0
  3 40  1  0
  4 41  1  0
  4 42  1  0
  5 43  1  0
  5 44  1  0
  6 45  1  0
  6 46  1  0
  8 47  1  0
  8 48  1  0
 11 49  1  0
 12 50  1  0
 12 51  1  0
 13 52  1  0
 13 53  1  0
 15 54  1  0
 16 55  1  0
 17 56  1  0
 19 57  1  0
 19 58  1  0
 21 59  1  0
 22 60  1  0
 23 61  1  0
 28 62  1  0
 29 63  1  0
 30 64  1  0
 31 65  1  0
 34 66  1  0
 34 67  1  0
M  END
$$$$
