
     RDKit          3D

 87 91  0  0  0  0  0  0  0  0999 V2000
   10.1637   -1.2662    0.2240 N   0  0  0  0  0  0  0  0  0  0  0  0
    8.9318   -1.0312   -0.4483 C   0  0  0  0  0  0  0  0  0  0  0  0
    8.9467   -0.8701   -1.6993 O   0  0  0  0  0  0  0  0  0  0  0  0
    7.6438   -0.9003    0.3289 C   0  0  0  0  0  0  0  0  0  0  0  0
    7.4752    0.5764    0.7694 C   0  0  0  0  0  0  0  0  0  0  0  0
    6.0044    0.9660    0.9713 C   0  0  0  0  0  0  0  0  0  0  0  0
    5.2172    0.7060   -0.2531 N   0  0  0  0  0  0  0  0  0  0  0  0
    4.0118    1.4774   -0.5286 C   0  0  0  0  0  0  0  0  0  0  0  0
    3.7332    2.4737    0.2142 O   0  0  0  0  0  0  0  0  0  0  0  0
    3.1373    1.2166   -1.7341 C   0  0  0  0  0  0  0  0  0  0  0  0
    2.3190   -0.0327   -1.7013 N   0  0  0  0  0  0  0  0  0  0  0  0
    2.1499   -0.7594   -0.4286 C   0  0  0  0  0  0  0  0  0  0  0  0
    1.9268   -2.2564   -0.6064 C   0  0  0  0  0  0  0  0  0  0  0  0
    0.7652   -2.9256   -0.4097 C   0  0  0  0  0  0  0  0  0  0  0  0
   -0.6372   -2.3414   -0.3956 C   0  0  0  0  0  0  0  0  0  0  0  0
   -1.0516   -1.9852    0.9119 O   0  0  0  0  0  0  0  0  0  0  0  0
   -2.3973   -1.9873    1.3841 C   0  0  0  0  0  0  0  0  0  0  0  0
   -2.6113   -2.6714    2.5715 C   0  0  0  0  0  0  0  0  0  0  0  0
   -3.8868   -2.7567    3.1351 C   0  0  0  0  0  0  0  0  0  0  0  0
   -4.9736   -2.1834    2.5036 C   0  0  0  0  0  0  0  0  0  0  0  0
   -4.7875   -1.4881    1.3113 C   0  0  0  0  0  0  0  0  0  0  0  0
   -3.5069   -1.3479    0.7403 C   0  0  0  0  0  0  0  0  0  0  0  0
   -3.4374   -0.5695   -0.5569 C   0  0  0  0  0  0  0  0  0  0  0  0
   -3.9464    0.8063   -0.4262 N   0  0  0  0  0  0  0  0  0  0  0  0
   -5.0055    1.2681   -1.3402 C   0  0  0  0  0  0  0  0  0  0  0  0
   -6.3445    1.3222   -0.6528 C   0  0  0  0  0  0  0  0  0  0  0  0
   -6.5309    2.1056    0.5067 C   0  0  0  0  0  0  0  0  0  0  0  0
   -7.7953    2.2035    1.0966 C   0  0  0  0  0  0  0  0  0  0  0  0
   -8.8894    1.5332    0.5384 C   0  0  0  0  0  0  0  0  0  0  0  0
   -8.7132    0.7794   -0.6261 C   0  0  0  0  0  0  0  0  0  0  0  0
   -7.4494    0.6512   -1.2025 C   0  0  0  0  0  0  0  0  0  0  0  0
   -3.2486    1.8011    0.3666 C   0  0  0  0  0  0  0  0  0  0  0  0
   -3.3390    3.0279    0.0878 O   0  0  0  0  0  0  0  0  0  0  0  0
   -2.4475    1.4218    1.5250 C   0  0  0  0  0  0  0  0  0  0  0  0
   -3.0154    1.4877    2.7937 C   0  0  0  0  0  0  0  0  0  0  0  0
   -2.2686    1.1173    3.9236 C   0  0  0  0  0  0  0  0  0  0  0  0
   -3.0266    1.0831    5.4807 Cl  0  0  0  0  0  0  0  0  0  0  0  0
   -0.9303    0.7387    3.7727 C   0  0  0  0  0  0  0  0  0  0  0  0
   -0.3693    0.6728    2.4902 C   0  0  0  0  0  0  0  0  0  0  0  0
   -1.1340    0.9875    1.3535 C   0  0  0  0  0  0  0  0  0  0  0  0
   -0.6382    0.7406    0.0780 O   0  0  0  0  0  0  0  0  0  0  0  0
   -0.0037    1.7152   -0.7157 C   0  0  0  0  0  0  0  0  0  0  0  0
    0.0880    1.2235   -2.1857 C   0  0  0  0  0  0  0  0  0  0  0  0
    1.0937    0.0592   -2.5252 C   0  0  0  0  0  0  0  0  0  0  0  0
    5.7261   -0.2764   -1.2254 C   0  0  0  0  0  0  0  0  0  0  0  0
    6.4242   -1.4299   -0.4845 C   0  0  0  0  0  0  0  0  0  0  0  0
   10.1833   -1.5315    1.2464 H   0  0  0  0  0  0  0  0  0  0  0  0
   11.0716   -1.1001   -0.2746 H   0  0  0  0  0  0  0  0  0  0  0  0
    7.7378   -1.5496    1.2436 H   0  0  0  0  0  0  0  0  0  0  0  0
    7.9078    1.2437   -0.0130 H   0  0  0  0  0  0  0  0  0  0  0  0
    8.0488    0.7386    1.7222 H   0  0  0  0  0  0  0  0  0  0  0  0
    5.5554    0.3945    1.8273 H   0  0  0  0  0  0  0  0  0  0  0  0
    5.9831    2.0422    1.2432 H   0  0  0  0  0  0  0  0  0  0  0  0
    3.7796    1.1708   -2.6355 H   0  0  0  0  0  0  0  0  0  0  0  0
    2.5088    2.1272   -1.9095 H   0  0  0  0  0  0  0  0  0  0  0  0
    3.0709   -0.6934    0.1744 H   0  0  0  0  0  0  0  0  0  0  0  0
    1.3922   -0.3284    0.2418 H   0  0  0  0  0  0  0  0  0  0  0  0
    2.8364   -2.8431   -0.6059 H   0  0  0  0  0  0  0  0  0  0  0  0
    0.8156   -3.9891   -0.2689 H   0  0  0  0  0  0  0  0  0  0  0  0
   -1.3284   -3.0641   -0.8590 H   0  0  0  0  0  0  0  0  0  0  0  0
   -0.6283   -1.4714   -1.0313 H   0  0  0  0  0  0  0  0  0  0  0  0
   -1.7811   -3.1568    3.0814 H   0  0  0  0  0  0  0  0  0  0  0  0
   -4.0466   -3.2809    4.0572 H   0  0  0  0  0  0  0  0  0  0  0  0
   -5.9546   -2.2583    2.9301 H   0  0  0  0  0  0  0  0  0  0  0  0
   -5.6331   -1.0171    0.8393 H   0  0  0  0  0  0  0  0  0  0  0  0
   -2.4410   -0.5125   -0.9966 H   0  0  0  0  0  0  0  0  0  0  0  0
   -4.0468   -1.1574   -1.2891 H   0  0  0  0  0  0  0  0  0  0  0  0
   -5.0432    0.6109   -2.2339 H   0  0  0  0  0  0  0  0  0  0  0  0
   -4.7844    2.2735   -1.7338 H   0  0  0  0  0  0  0  0  0  0  0  0
   -5.7224    2.6587    0.9511 H   0  0  0  0  0  0  0  0  0  0  0  0
   -7.9293    2.8241    1.9836 H   0  0  0  0  0  0  0  0  0  0  0  0
   -9.8780    1.6322    0.9795 H   0  0  0  0  0  0  0  0  0  0  0  0
   -9.5613    0.3074   -1.0911 H   0  0  0  0  0  0  0  0  0  0  0  0
   -7.3395    0.0070   -2.0734 H   0  0  0  0  0  0  0  0  0  0  0  0
   -4.0624    1.7789    2.9178 H   0  0  0  0  0  0  0  0  0  0  0  0
   -0.3517    0.4502    4.6220 H   0  0  0  0  0  0  0  0  0  0  0  0
    0.6461    0.3209    2.3721 H   0  0  0  0  0  0  0  0  0  0  0  0
   -0.5912    2.6536   -0.6950 H   0  0  0  0  0  0  0  0  0  0  0  0
    0.9966    1.9603   -0.2829 H   0  0  0  0  0  0  0  0  0  0  0  0
    0.3283    2.1077   -2.8190 H   0  0  0  0  0  0  0  0  0  0  0  0
   -0.9268    0.8843   -2.4821 H   0  0  0  0  0  0  0  0  0  0  0  0
    0.6116   -0.9355   -2.5865 H   0  0  0  0  0  0  0  0  0  0  0  0
    1.4164    0.2110   -3.5732 H   0  0  0  0  0  0  0  0  0  0  0  0
    4.9183   -0.7062   -1.8497 H   0  0  0  0  0  0  0  0  0  0  0  0
    6.4514    0.2371   -1.8965 H   0  0  0  0  0  0  0  0  0  0  0  0
    5.6931   -1.8749    0.2288 H   0  0  0  0  0  0  0  0  0  0  0  0
    6.7243   -2.2478   -1.1846 H   0  0  0  0  0  0  0  0  0  0  0  0
  1  2  1  0
  2  3  2  0
  2  4  1  0
  4  5  1  0
  5  6  1  0
  6  7  1  0
  7  8  1  0
  8  9  2  0
  8 10  1  0
 10 11  1  0
 11 12  1  0
 12 13  1  0
 13 14  2  0
 14 15  1  0
 15 16  1  0
 16 17  1  0
 17 18  2  0
 18 19  1  0
 19 20  2  0
 20 21  1  0
 21 22  2  0
 22 23  1  0
 23 24  1  0
 24 25  1  0
 25 26  1  0
 26 27  2  0
 27 28  1  0
 28 29  2  0
 29 30  1  0
 30 31  2  0
 24 32  1  0
 32 33  2  0
 32 34  1  0
 34 35  2  0
 35 36  1  0
 36 37  1  0
 36 38  2  0
 38 39  1  0
 39 40  2  0
 40 41  1  0
 41 42  1  0
 42 43  1  0
 43 44  1  0
  7 45  1  0
 45 46  1  0
 46  4  1  0
 44 11  1  0
 22 17  1  0
 31 26  1  0
 40 34  1  0
  1 47  1  0
  1 48  1  0
  4 49  1  0
  5 50  1  0
  5 51  1  0
  6 52  1  0
  6 53  1  0
 10 54  1  0
 10 55  1  0
 12 56  1  0
 12 57  1  0
 13 58  1  0
 14 59  1  0
 15 60  1  0
 15 61  1  0
 18 62  1  0
 19 63  1  0
 20 64  1  0
 21 65  1  0
 23 66  1  0
 23 67  1  0
 25 68  1  0
 25 69  1  0
 27 70  1  0
 28 71  1  0
 29 72  1  0
 30 73  1  0
 31 74  1  0
 35 75  1  0
 38 76  1  0
 39 77  1  0
 42 78  1  0
 42 79  1  0
 43 80  1  0
 43 81  1  0
 44 82  1  0
 44 83  1  0
 45 84  1  0
 45 85  1  0
 46 86  1  0
 46 87  1  0
M  END
$$$$
