
     RDKit          3D

 63 65  0  0  0  0  0  0  0  0999 V2000
   -6.5290    2.5864    0.4242 C   0  0  0  0  0  0  0  0  0  0  0  0
   -5.1169    3.1478    0.4186 C   0  0  0  0  0  0  0  0  0  0  0  0
   -4.1968    2.1052    0.1085 O   0  0  0  0  0  0  0  0  0  0  0  0
   -2.8070    2.2727    0.0077 C   0  0  0  0  0  0  0  0  0  0  0  0
   -2.1887    3.5194    0.2148 C   0  0  0  0  0  0  0  0  0  0  0  0
   -0.8014    3.6409    0.1227 C   0  0  0  0  0  0  0  0  0  0  0  0
   -0.0164    2.5261   -0.1714 C   0  0  0  0  0  0  0  0  0  0  0  0
   -0.6110    1.2711   -0.3797 C   0  0  0  0  0  0  0  0  0  0  0  0
   -2.0154    1.1508   -0.2969 C   0  0  0  0  0  0  0  0  0  0  0  0
   -2.6259   -0.0889   -0.4968 O   0  0  0  0  0  0  0  0  0  0  0  0
   -3.3441   -0.3973   -1.6880 C   0  0  0  0  0  0  0  0  0  0  0  0
   -4.0364   -1.7617   -1.5673 C   0  0  0  0  0  0  0  0  0  0  0  0
   -3.0578   -2.9007   -1.2223 C   0  0  0  0  0  0  0  0  0  0  0  0
   -2.9157   -3.0922    0.2999 C   0  0  0  0  0  0  0  0  0  0  0  0
   -1.7791   -4.0480    0.7058 C   0  0  0  0  0  0  0  0  0  0  0  0
   -0.5562   -3.8527   -0.0782 N   0  0  0  0  0  0  0  0  0  0  0  0
    0.4653   -2.8780    0.1929 C   0  0  0  0  0  0  0  0  0  0  0  0
    1.5895   -3.0123   -0.3609 O   0  0  0  0  0  0  0  0  0  0  0  0
    0.2602   -1.7120    1.1241 C   0  0  0  0  0  0  0  0  0  0  0  0
    0.8304   -0.4891    0.5435 N   0  0  0  0  0  0  0  0  0  0  0  0
    1.9185    0.1659    1.2175 C   0  0  0  0  0  0  0  0  0  0  0  0
    1.8107    0.4479    2.4423 O   0  0  0  0  0  0  0  0  0  0  0  0
    3.1820    0.5204    0.4832 C   0  0  0  0  0  0  0  0  0  0  0  0
    4.4196    0.0254    1.2422 C   0  0  0  0  0  0  0  0  0  0  0  0
    5.6674    0.2834    0.4414 C   0  0  0  0  0  0  0  0  0  0  0  0
    6.3201    1.5243    0.5232 C   0  0  0  0  0  0  0  0  0  0  0  0
    7.4572    1.7737   -0.2520 C   0  0  0  0  0  0  0  0  0  0  0  0
    7.9444    0.7913   -1.1185 C   0  0  0  0  0  0  0  0  0  0  0  0
    7.2916   -0.4402   -1.2152 C   0  0  0  0  0  0  0  0  0  0  0  0
    6.1549   -0.6937   -0.4421 C   0  0  0  0  0  0  0  0  0  0  0  0
    0.2639    0.0798   -0.6902 C   0  0  0  0  0  0  0  0  0  0  0  0
   -6.6143    1.7825    1.1854 H   0  0  0  0  0  0  0  0  0  0  0  0
   -6.7756    2.1687   -0.5746 H   0  0  0  0  0  0  0  0  0  0  0  0
   -7.2517    3.3931    0.6668 H   0  0  0  0  0  0  0  0  0  0  0  0
   -5.0472    3.9526   -0.3451 H   0  0  0  0  0  0  0  0  0  0  0  0
   -4.8865    3.5675    1.4222 H   0  0  0  0  0  0  0  0  0  0  0  0
   -2.7706    4.3999    0.4506 H   0  0  0  0  0  0  0  0  0  0  0  0
   -0.3322    4.6038    0.2818 H   0  0  0  0  0  0  0  0  0  0  0  0
    1.0576    2.6444   -0.2426 H   0  0  0  0  0  0  0  0  0  0  0  0
   -4.1145    0.3799   -1.8819 H   0  0  0  0  0  0  0  0  0  0  0  0
   -2.6399   -0.4101   -2.5482 H   0  0  0  0  0  0  0  0  0  0  0  0
   -4.8529   -1.7023   -0.8142 H   0  0  0  0  0  0  0  0  0  0  0  0
   -4.5132   -1.9884   -2.5462 H   0  0  0  0  0  0  0  0  0  0  0  0
   -2.0755   -2.6913   -1.6972 H   0  0  0  0  0  0  0  0  0  0  0  0
   -3.4393   -3.8501   -1.6573 H   0  0  0  0  0  0  0  0  0  0  0  0
   -3.8700   -3.5068    0.6925 H   0  0  0  0  0  0  0  0  0  0  0  0
   -2.7901   -2.1213    0.8085 H   0  0  0  0  0  0  0  0  0  0  0  0
   -1.5576   -3.9395    1.7893 H   0  0  0  0  0  0  0  0  0  0  0  0
   -2.1349   -5.0899    0.5501 H   0  0  0  0  0  0  0  0  0  0  0  0
   -0.3405   -4.5768   -0.8002 H   0  0  0  0  0  0  0  0  0  0  0  0
   -0.8036   -1.5314    1.3439 H   0  0  0  0  0  0  0  0  0  0  0  0
    0.7511   -1.9575    2.0917 H   0  0  0  0  0  0  0  0  0  0  0  0
    3.1729    0.0509   -0.5245 H   0  0  0  0  0  0  0  0  0  0  0  0
    3.2339    1.6239    0.3576 H   0  0  0  0  0  0  0  0  0  0  0  0
    4.4939    0.5415    2.2250 H   0  0  0  0  0  0  0  0  0  0  0  0
    4.3215   -1.0651    1.4459 H   0  0  0  0  0  0  0  0  0  0  0  0
    5.9471    2.2978    1.1833 H   0  0  0  0  0  0  0  0  0  0  0  0
    7.9583    2.7299   -0.1835 H   0  0  0  0  0  0  0  0  0  0  0  0
    8.8238    0.9855   -1.7195 H   0  0  0  0  0  0  0  0  0  0  0  0
    7.6646   -1.1975   -1.8919 H   0  0  0  0  0  0  0  0  0  0  0  0
    5.6532   -1.6487   -0.5340 H   0  0  0  0  0  0  0  0  0  0  0  0
   -0.3197   -0.6909   -1.2367 H   0  0  0  0  0  0  0  0  0  0  0  0
    1.0741    0.3798   -1.3875 H   0  0  0  0  0  0  0  0  0  0  0  0
  1  2  1  0
  2  3  1  0
  3  4  1  0
  4  5  2  0
  5  6  1  0
  6  7  2  0
  7  8  1  0
  8  9  2  0
  9 10  1  0
 10 11  1  0
 11 12  1  0
 12 13  1  0
 13 14  1  0
 14 15  1  0
 15 16  1  0
 16 17  1  0
 17 18  2  0
 17 19  1  0
 19 20  1  0
 20 21  1  0
 21 22  2  0
 21 23  1  0
 23 24  1  0
 24 25  1  0
 25 26  2  0
 26 27  1  0
 27 28  2  0
 28 29  1  0
 29 30  2  0
 20 31  1  0
  9  4  1  0
 30 25  1  0
 31  8  1  0
  1 32  1  0
  1 33  1  0
  1 34  1  0
  2 35  1  0
  2 36  1  0
  5 37  1  0
  6 38  1  0
  7 39  1  0
 11 40  1  0
 11 41  1  0
 12 42  1  0
 12 43  1  0
 13 44  1  0
 13 45  1  0
 14 46  1  0
 14 47  1  0
 15 48  1  0
 15 49  1  0
 16 50  1  0
 19 51  1  0
 19 52  1  0
 23 53  1  0
 23 54  1  0
 24 55  1  0
 24 56  1  0
 26 57  1  0
 27 58  1  0
 28 59  1  0
 29 60  1  0
 30 61  1  0
 31 62  1  0
 31 63  1  0
M  END
$$$$
