
     RDKit          3D

 67 68  0  0  0  0  0  0  0  0999 V2000
   -4.6368   -1.6562   -2.3164 C   0  0  0  0  0  0  0  0  0  0  0  0
   -3.4721   -0.8792   -2.1458 O   0  0  0  0  0  0  0  0  0  0  0  0
   -3.4880   -0.2060   -0.8947 C   0  0  0  0  0  0  0  0  0  0  0  0
   -2.0851   -0.3143   -0.2773 C   0  0  0  0  0  0  0  0  0  0  0  0
   -1.6309   -1.7123   -0.1854 N   0  0  0  0  0  0  0  0  0  0  0  0
   -2.3444   -2.6336    0.6720 C   0  0  0  0  0  0  0  0  0  0  0  0
   -2.2254   -4.1179    0.5071 C   0  0  0  0  0  0  0  0  0  0  0  0
   -3.0816   -2.1893    1.5954 O   0  0  0  0  0  0  0  0  0  0  0  0
   -0.3594   -2.0992   -0.8269 C   0  0  0  0  0  0  0  0  0  0  0  0
    0.8321   -1.2734   -0.3052 C   0  0  0  0  0  0  0  0  0  0  0  0
    0.9596   -1.2796    1.2281 C   0  0  0  0  0  0  0  0  0  0  0  0
    1.5858   -0.0407    1.7199 N   0  0  0  0  0  0  0  0  0  0  0  0
    3.0082   -0.0395    1.9487 C   0  0  0  0  0  0  0  0  0  0  0  0
    3.4520    0.2151    3.1009 O   0  0  0  0  0  0  0  0  0  0  0  0
    3.9582   -0.3396    0.8561 C   0  0  0  0  0  0  0  0  0  0  0  0
    3.7744    0.2362   -0.4070 C   0  0  0  0  0  0  0  0  0  0  0  0
    4.6712   -0.0319   -1.4387 C   0  0  0  0  0  0  0  0  0  0  0  0
    5.7711   -0.8632   -1.1987 C   0  0  0  0  0  0  0  0  0  0  0  0
    6.7240   -1.1902   -2.3095 C   0  0  0  0  0  0  0  0  0  0  0  0
    5.9396   -1.4213    0.0347 N   0  0  0  0  0  0  0  0  0  0  0  0
    5.0735   -1.1755    1.0592 C   0  0  0  0  0  0  0  0  0  0  0  0
    5.2709   -1.7158    2.1818 O   0  0  0  0  0  0  0  0  0  0  0  0
    0.7442    0.9688    2.3898 C   0  0  0  0  0  0  0  0  0  0  0  0
    1.1472    2.4085    2.0238 C   0  0  0  0  0  0  0  0  0  0  0  0
    0.7785    2.8128    0.5823 C   0  0  0  0  0  0  0  0  0  0  0  0
   -0.5938    3.4903    0.4588 C   0  0  0  0  0  0  0  0  0  0  0  0
   -1.6297    2.5298    0.5072 O   0  0  0  0  0  0  0  0  0  0  0  0
   -2.8790    3.1772    0.3631 C   0  0  0  0  0  0  0  0  0  0  0  0
   -4.0260    2.1584    0.1687 C   0  0  0  0  0  0  0  0  0  0  0  0
   -4.1796    1.3671    1.3202 O   0  0  0  0  0  0  0  0  0  0  0  0
   -3.9143    1.2729   -1.1210 C   0  0  0  0  0  0  0  0  0  0  0  0
   -3.0742    1.8651   -2.0818 O   0  0  0  0  0  0  0  0  0  0  0  0
   -5.5539   -1.0332   -2.2404 H   0  0  0  0  0  0  0  0  0  0  0  0
   -4.6678   -2.4867   -1.5778 H   0  0  0  0  0  0  0  0  0  0  0  0
   -4.6167   -2.1077   -3.3299 H   0  0  0  0  0  0  0  0  0  0  0  0
   -4.2050   -0.6632   -0.1708 H   0  0  0  0  0  0  0  0  0  0  0  0
   -2.0845    0.1135    0.7429 H   0  0  0  0  0  0  0  0  0  0  0  0
   -1.3887    0.2815   -0.9013 H   0  0  0  0  0  0  0  0  0  0  0  0
   -1.2730   -4.4689    0.9564 H   0  0  0  0  0  0  0  0  0  0  0  0
   -3.0687   -4.6313    1.0179 H   0  0  0  0  0  0  0  0  0  0  0  0
   -2.2563   -4.3847   -0.5706 H   0  0  0  0  0  0  0  0  0  0  0  0
   -0.1306   -3.1724   -0.6709 H   0  0  0  0  0  0  0  0  0  0  0  0
   -0.4480   -1.9461   -1.9242 H   0  0  0  0  0  0  0  0  0  0  0  0
    1.7629   -1.6909   -0.7449 H   0  0  0  0  0  0  0  0  0  0  0  0
    0.7486   -0.2372   -0.6799 H   0  0  0  0  0  0  0  0  0  0  0  0
    1.5563   -2.1638    1.5451 H   0  0  0  0  0  0  0  0  0  0  0  0
   -0.0300   -1.4072    1.7122 H   0  0  0  0  0  0  0  0  0  0  0  0
    2.9432    0.9014   -0.5939 H   0  0  0  0  0  0  0  0  0  0  0  0
    4.5126    0.4114   -2.4141 H   0  0  0  0  0  0  0  0  0  0  0  0
    6.3837   -2.1108   -2.8281 H   0  0  0  0  0  0  0  0  0  0  0  0
    6.7758   -0.3574   -3.0430 H   0  0  0  0  0  0  0  0  0  0  0  0
    7.7451   -1.3563   -1.9050 H   0  0  0  0  0  0  0  0  0  0  0  0
    6.7529   -2.0567    0.2034 H   0  0  0  0  0  0  0  0  0  0  0  0
    0.8410    0.8415    3.4893 H   0  0  0  0  0  0  0  0  0  0  0  0
   -0.3272    0.8224    2.1434 H   0  0  0  0  0  0  0  0  0  0  0  0
    2.2436    2.5245    2.1590 H   0  0  0  0  0  0  0  0  0  0  0  0
    0.6775    3.1074    2.7485 H   0  0  0  0  0  0  0  0  0  0  0  0
    1.5419    3.5417    0.2311 H   0  0  0  0  0  0  0  0  0  0  0  0
    0.8302    1.9464   -0.1047 H   0  0  0  0  0  0  0  0  0  0  0  0
   -0.7124    4.2483    1.2659 H   0  0  0  0  0  0  0  0  0  0  0  0
   -0.6110    4.0187   -0.5219 H   0  0  0  0  0  0  0  0  0  0  0  0
   -2.8849    3.8766   -0.5055 H   0  0  0  0  0  0  0  0  0  0  0  0
   -3.0936    3.7779    1.2767 H   0  0  0  0  0  0  0  0  0  0  0  0
   -4.9515    2.7702    0.0433 H   0  0  0  0  0  0  0  0  0  0  0  0
   -4.5492    1.9532    2.0315 H   0  0  0  0  0  0  0  0  0  0  0  0
   -4.9440    1.2106   -1.5473 H   0  0  0  0  0  0  0  0  0  0  0  0
   -3.5883    2.6038   -2.5018 H   0  0  0  0  0  0  0  0  0  0  0  0
  1  2  1  0
  2  3  1  0
  3  4  1  0
  4  5  1  0
  5  6  1  0
  6  7  1  0
  6  8  2  0
  5  9  1  0
  9 10  1  0
 10 11  1  0
 11 12  1  0
 12 13  1  0
 13 14  2  0
 13 15  1  0
 15 16  2  0
 16 17  1  0
 17 18  2  0
 18 19  1  0
 18 20  1  0
 20 21  1  0
 21 22  2  0
 12 23  1  0
 23 24  1  0
 24 25  1  0
 25 26  1  0
 26 27  1  0
 27 28  1  0
 28 29  1  0
 29 30  1  0
 29 31  1  0
 31 32  1  0
 31  3  1  0
 21 15  1  0
  1 33  1  0
  1 34  1  0
  1 35  1  0
  3 36  1  0
  4 37  1  0
  4 38  1  0
  7 39  1  0
  7 40  1  0
  7 41  1  0
  9 42  1  0
  9 43  1  0
 10 44  1  0
 10 45  1  0
 11 46  1  0
 11 47  1  0
 16 48  1  0
 17 49  1  0
 19 50  1  0
 19 51  1  0
 19 52  1  0
 20 53  1  0
 23 54  1  0
 23 55  1  0
 24 56  1  0
 24 57  1  0
 25 58  1  0
 25 59  1  0
 26 60  1  0
 26 61  1  0
 28 62  1  0
 28 63  1  0
 29 64  1  0
 30 65  1  0
 31 66  1  0
 32 67  1  0
M  END
$$$$
