
     RDKit          3D

 68 70  0  0  0  0  0  0  0  0999 V2000
    5.3513   -2.2932    1.5474 C   0  0  0  0  0  0  0  0  0  0  0  0
    4.6790   -1.0579    1.6520 O   0  0  0  0  0  0  0  0  0  0  0  0
    5.2305   -0.1424    0.7299 C   0  0  0  0  0  0  0  0  0  0  0  0
    4.4880    1.2019    0.8227 C   0  0  0  0  0  0  0  0  0  0  0  0
    5.0837    2.2315   -0.1409 C   0  0  0  0  0  0  0  0  0  0  0  0
    4.1908    2.1982   -1.3763 C   0  0  0  0  0  0  0  0  0  0  0  0
    2.8461    1.6702   -0.8953 C   0  0  0  0  0  0  0  0  0  0  0  0
    3.0997    1.0519    0.3983 N   0  0  0  0  0  0  0  0  0  0  0  0
    2.0635    0.5230    1.2503 C   0  0  0  0  0  0  0  0  0  0  0  0
    2.3243    0.2638    2.4574 O   0  0  0  0  0  0  0  0  0  0  0  0
    0.6847    0.2128    0.7174 C   0  0  0  0  0  0  0  0  0  0  0  0
    0.6213   -1.2472    0.2368 C   0  0  0  0  0  0  0  0  0  0  0  0
   -0.6776   -1.5268   -0.5372 C   0  0  0  0  0  0  0  0  0  0  0  0
   -0.8287   -2.9848   -0.9095 C   0  0  0  0  0  0  0  0  0  0  0  0
    0.2103   -3.6818   -1.0794 O   0  0  0  0  0  0  0  0  0  0  0  0
   -2.1280   -3.5810   -1.1402 N   0  0  0  0  0  0  0  0  0  0  0  0
   -2.2156   -5.0319   -1.3374 C   0  0  0  0  0  0  0  0  0  0  0  0
   -3.3525   -2.7669   -1.1944 C   0  0  0  0  0  0  0  0  0  0  0  0
   -3.8274   -2.4339    0.1937 C   0  0  0  0  0  0  0  0  0  0  0  0
   -3.7895   -3.3336    1.0781 O   0  0  0  0  0  0  0  0  0  0  0  0
   -4.3169   -1.1210    0.5363 N   0  0  0  0  0  0  0  0  0  0  0  0
   -4.2373   -0.6871    1.9340 C   0  0  0  0  0  0  0  0  0  0  0  0
   -4.9949   -0.2628   -0.4486 C   0  0  0  0  0  0  0  0  0  0  0  0
   -4.0592    0.7966   -1.0492 C   0  0  0  0  0  0  0  0  0  0  0  0
   -3.1484    1.2879   -0.0696 O   0  0  0  0  0  0  0  0  0  0  0  0
   -2.2177    2.3178   -0.2847 C   0  0  0  0  0  0  0  0  0  0  0  0
   -2.2400    3.1193   -1.4435 C   0  0  0  0  0  0  0  0  0  0  0  0
   -1.3033    4.1427   -1.6106 C   0  0  0  0  0  0  0  0  0  0  0  0
   -0.3372    4.3775   -0.6297 C   0  0  0  0  0  0  0  0  0  0  0  0
   -0.3035    3.5889    0.5208 C   0  0  0  0  0  0  0  0  0  0  0  0
   -1.2351    2.5552    0.6929 C   0  0  0  0  0  0  0  0  0  0  0  0
   -1.1106    1.6487    1.8424 C   0  0  0  0  0  0  0  0  0  0  0  0
   -1.7463    1.9075    2.8988 O   0  0  0  0  0  0  0  0  0  0  0  0
   -0.3174    0.4542    1.7656 N   0  0  0  0  0  0  0  0  0  0  0  0
    5.2183   -2.7380    0.5361 H   0  0  0  0  0  0  0  0  0  0  0  0
    4.9133   -2.9980    2.2845 H   0  0  0  0  0  0  0  0  0  0  0  0
    6.4337   -2.1848    1.7866 H   0  0  0  0  0  0  0  0  0  0  0  0
    5.1430   -0.5295   -0.3115 H   0  0  0  0  0  0  0  0  0  0  0  0
    6.3054    0.0353    0.9660 H   0  0  0  0  0  0  0  0  0  0  0  0
    4.5399    1.5938    1.8634 H   0  0  0  0  0  0  0  0  0  0  0  0
    6.1449    2.0260   -0.4020 H   0  0  0  0  0  0  0  0  0  0  0  0
    5.0239    3.2412    0.3217 H   0  0  0  0  0  0  0  0  0  0  0  0
    4.0923    3.2076   -1.8308 H   0  0  0  0  0  0  0  0  0  0  0  0
    4.6217    1.4986   -2.1253 H   0  0  0  0  0  0  0  0  0  0  0  0
    2.1314    2.5121   -0.7749 H   0  0  0  0  0  0  0  0  0  0  0  0
    2.4401    0.9225   -1.6100 H   0  0  0  0  0  0  0  0  0  0  0  0
    0.4767    0.8576   -0.1584 H   0  0  0  0  0  0  0  0  0  0  0  0
    1.4853   -1.4470   -0.4356 H   0  0  0  0  0  0  0  0  0  0  0  0
    0.6970   -1.9331    1.1099 H   0  0  0  0  0  0  0  0  0  0  0  0
   -0.6951   -0.9183   -1.4670 H   0  0  0  0  0  0  0  0  0  0  0  0
   -1.5276   -1.2116    0.0967 H   0  0  0  0  0  0  0  0  0  0  0  0
   -1.7637   -5.5555   -0.4682 H   0  0  0  0  0  0  0  0  0  0  0  0
   -1.6717   -5.3188   -2.2621 H   0  0  0  0  0  0  0  0  0  0  0  0
   -3.2698   -5.3703   -1.4301 H   0  0  0  0  0  0  0  0  0  0  0  0
   -3.1537   -1.8543   -1.7867 H   0  0  0  0  0  0  0  0  0  0  0  0
   -4.1665   -3.3104   -1.7198 H   0  0  0  0  0  0  0  0  0  0  0  0
   -3.1811   -0.7177    2.2750 H   0  0  0  0  0  0  0  0  0  0  0  0
   -4.8475   -1.3575    2.5743 H   0  0  0  0  0  0  0  0  0  0  0  0
   -4.6118    0.3513    2.0569 H   0  0  0  0  0  0  0  0  0  0  0  0
   -5.4338   -0.8780   -1.2647 H   0  0  0  0  0  0  0  0  0  0  0  0
   -5.8505    0.2522    0.0415 H   0  0  0  0  0  0  0  0  0  0  0  0
   -3.4881    0.3734   -1.8995 H   0  0  0  0  0  0  0  0  0  0  0  0
   -4.6870    1.6289   -1.4330 H   0  0  0  0  0  0  0  0  0  0  0  0
   -2.9753    2.9627   -2.2210 H   0  0  0  0  0  0  0  0  0  0  0  0
   -1.3239    4.7518   -2.5045 H   0  0  0  0  0  0  0  0  0  0  0  0
    0.3916    5.1657   -0.7667 H   0  0  0  0  0  0  0  0  0  0  0  0
    0.4681    3.7587    1.2615 H   0  0  0  0  0  0  0  0  0  0  0  0
   -0.3658   -0.2139    2.5695 H   0  0  0  0  0  0  0  0  0  0  0  0
  1  2  1  0
  2  3  1  0
  3  4  1  0
  4  5  1  0
  5  6  1  0
  6  7  1  0
  7  8  1  0
  8  9  1  0
  9 10  2  0
  9 11  1  0
 11 12  1  0
 12 13  1  0
 13 14  1  0
 14 15  2  0
 14 16  1  0
 16 17  1  0
 16 18  1  0
 18 19  1  0
 19 20  2  0
 19 21  1  0
 21 22  1  0
 21 23  1  0
 23 24  1  0
 24 25  1  0
 25 26  1  0
 26 27  2  0
 27 28  1  0
 28 29  2  0
 29 30  1  0
 30 31  2  0
 31 32  1  0
 32 33  2  0
 32 34  1  0
  8  4  1  0
 34 11  1  0
 31 26  1  0
  1 35  1  0
  1 36  1  0
  1 37  1  0
  3 38  1  0
  3 39  1  0
  4 40  1  0
  5 41  1  0
  5 42  1  0
  6 43  1  0
  6 44  1  0
  7 45  1  0
  7 46  1  0
 11 47  1  0
 12 48  1  0
 12 49  1  0
 13 50  1  0
 13 51  1  0
 17 52  1  0
 17 53  1  0
 17 54  1  0
 18 55  1  0
 18 56  1  0
 22 57  1  0
 22 58  1  0
 22 59  1  0
 23 60  1  0
 23 61  1  0
 24 62  1  0
 24 63  1  0
 27 64  1  0
 28 65  1  0
 29 66  1  0
 30 67  1  0
 34 68  1  0
M  END
$$$$
