
     RDKit          3D

 60 63  0  0  0  0  0  0  0  0999 V2000
    7.5234    1.0751   -1.6919 C   0  0  0  0  0  0  0  0  0  0  0  0
    6.0461    1.0480   -1.4598 C   0  0  0  0  0  0  0  0  0  0  0  0
    5.1381    1.4330   -2.3862 N   0  0  0  0  0  0  0  0  0  0  0  0
    3.9377    1.3291   -1.7868 C   0  0  0  0  0  0  0  0  0  0  0  0
    2.6996    1.6468   -2.3354 C   0  0  0  0  0  0  0  0  0  0  0  0
    1.5637    1.4995   -1.5203 C   0  0  0  0  0  0  0  0  0  0  0  0
    1.6794    1.0300   -0.1921 C   0  0  0  0  0  0  0  0  0  0  0  0
    0.4714    0.8228    0.6335 C   0  0  0  0  0  0  0  0  0  0  0  0
   -0.1091    1.8197    1.1432 O   0  0  0  0  0  0  0  0  0  0  0  0
   -0.0560   -0.5040    0.8554 N   0  0  0  0  0  0  0  0  0  0  0  0
   -0.3540   -0.9278    2.2405 C   0  0  0  0  0  0  0  0  0  0  0  0
   -1.7306   -1.6051    2.3679 C   0  0  0  0  0  0  0  0  0  0  0  0
   -2.8833   -0.5992    2.2185 C   0  0  0  0  0  0  0  0  0  0  0  0
   -4.2370   -1.2568    1.8869 C   0  0  0  0  0  0  0  0  0  0  0  0
   -4.2447   -1.9511    0.5836 N   0  0  0  0  0  0  0  0  0  0  0  0
   -4.4448   -3.4039    0.5480 C   0  0  0  0  0  0  0  0  0  0  0  0
   -4.2491   -1.2301   -0.6751 C   0  0  0  0  0  0  0  0  0  0  0  0
   -4.5073   -1.8354   -1.7525 O   0  0  0  0  0  0  0  0  0  0  0  0
   -3.8902    0.1909   -0.7450 C   0  0  0  0  0  0  0  0  0  0  0  0
   -4.8880    1.1155   -0.3903 C   0  0  0  0  0  0  0  0  0  0  0  0
   -4.6320    2.4868   -0.4136 C   0  0  0  0  0  0  0  0  0  0  0  0
   -5.8861    3.6239    0.0442 Cl  0  0  0  0  0  0  0  0  0  0  0  0
   -3.3814    2.9523   -0.8112 C   0  0  0  0  0  0  0  0  0  0  0  0
   -2.3898    2.0485   -1.1939 C   0  0  0  0  0  0  0  0  0  0  0  0
   -2.6075    0.6591   -1.1573 C   0  0  0  0  0  0  0  0  0  0  0  0
   -1.5227   -0.1586   -1.5591 O   0  0  0  0  0  0  0  0  0  0  0  0
   -1.1842   -1.4831   -1.1285 C   0  0  0  0  0  0  0  0  0  0  0  0
    0.0469   -1.5043   -0.2154 C   0  0  0  0  0  0  0  0  0  0  0  0
    2.9542    0.7287    0.3405 C   0  0  0  0  0  0  0  0  0  0  0  0
    4.0649    0.8889   -0.4923 C   0  0  0  0  0  0  0  0  0  0  0  0
    5.4168    0.6930   -0.2656 C   0  0  0  0  0  0  0  0  0  0  0  0
    6.0794    0.3004    1.0207 C   0  0  0  0  0  0  0  0  0  0  0  0
    7.9815    1.8688   -1.0650 H   0  0  0  0  0  0  0  0  0  0  0  0
    7.9624    0.0900   -1.4275 H   0  0  0  0  0  0  0  0  0  0  0  0
    7.7435    1.2902   -2.7595 H   0  0  0  0  0  0  0  0  0  0  0  0
    5.3275    1.7816   -3.3505 H   0  0  0  0  0  0  0  0  0  0  0  0
    2.6145    1.9914   -3.3590 H   0  0  0  0  0  0  0  0  0  0  0  0
    0.5954    1.7024   -1.9493 H   0  0  0  0  0  0  0  0  0  0  0  0
    0.4361   -1.6354    2.5751 H   0  0  0  0  0  0  0  0  0  0  0  0
   -0.3172   -0.0585    2.9385 H   0  0  0  0  0  0  0  0  0  0  0  0
   -1.7991   -2.0653    3.3833 H   0  0  0  0  0  0  0  0  0  0  0  0
   -1.8200   -2.4342    1.6411 H   0  0  0  0  0  0  0  0  0  0  0  0
   -2.9923   -0.0536    3.1830 H   0  0  0  0  0  0  0  0  0  0  0  0
   -2.6264    0.1688    1.4709 H   0  0  0  0  0  0  0  0  0  0  0  0
   -4.4896   -1.9633    2.7096 H   0  0  0  0  0  0  0  0  0  0  0  0
   -5.0448   -0.4927    1.9030 H   0  0  0  0  0  0  0  0  0  0  0  0
   -4.1265   -3.8762    1.5036 H   0  0  0  0  0  0  0  0  0  0  0  0
   -5.5197   -3.6237    0.3716 H   0  0  0  0  0  0  0  0  0  0  0  0
   -3.8362   -3.8590   -0.2647 H   0  0  0  0  0  0  0  0  0  0  0  0
   -5.8717    0.7686   -0.0922 H   0  0  0  0  0  0  0  0  0  0  0  0
   -3.1743    4.0166   -0.8326 H   0  0  0  0  0  0  0  0  0  0  0  0
   -1.4356    2.4397   -1.5088 H   0  0  0  0  0  0  0  0  0  0  0  0
   -1.9959   -1.9934   -0.6092 H   0  0  0  0  0  0  0  0  0  0  0  0
   -0.9577   -2.0949   -2.0280 H   0  0  0  0  0  0  0  0  0  0  0  0
    0.1324   -2.5299    0.2216 H   0  0  0  0  0  0  0  0  0  0  0  0
    0.9651   -1.3590   -0.8212 H   0  0  0  0  0  0  0  0  0  0  0  0
    3.0684    0.3848    1.3609 H   0  0  0  0  0  0  0  0  0  0  0  0
    5.3488   -0.1496    1.7260 H   0  0  0  0  0  0  0  0  0  0  0  0
    6.5308    1.1970    1.4939 H   0  0  0  0  0  0  0  0  0  0  0  0
    6.8770   -0.4443    0.8204 H   0  0  0  0  0  0  0  0  0  0  0  0
  1  2  1  0
  2  3  1  0
  3  4  1  0
  4  5  2  0
  5  6  1  0
  6  7  2  0
  7  8  1  0
  8  9  2  0
  8 10  1  0
 10 11  1  0
 11 12  1  0
 12 13  1  0
 13 14  1  0
 14 15  1  0
 15 16  1  0
 15 17  1  0
 17 18  2  0
 17 19  1  0
 19 20  2  0
 20 21  1  0
 21 22  1  0
 21 23  2  0
 23 24  1  0
 24 25  2  0
 25 26  1  0
 26 27  1  0
 27 28  1  0
  7 29  1  0
 29 30  2  0
 30 31  1  0
 31 32  1  0
 31  2  2  0
 30  4  1  0
 28 10  1  0
 25 19  1  0
  1 33  1  0
  1 34  1  0
  1 35  1  0
  3 36  1  0
  5 37  1  0
  6 38  1  0
 11 39  1  0
 11 40  1  0
 12 41  1  0
 12 42  1  0
 13 43  1  0
 13 44  1  0
 14 45  1  0
 14 46  1  0
 16 47  1  0
 16 48  1  0
 16 49  1  0
 20 50  1  0
 23 51  1  0
 24 52  1  0
 27 53  1  0
 27 54  1  0
 28 55  1  0
 28 56  1  0
 29 57  1  0
 32 58  1  0
 32 59  1  0
 32 60  1  0
M  END
$$$$
