
     RDKit          3D

 61 64  0  0  0  0  0  0  0  0999 V2000
   -1.7300   -2.2093    2.6563 C   0  0  0  0  0  0  0  0  0  0  0  0
   -2.2531   -1.7307    1.3710 N   0  0  0  0  0  0  0  0  0  0  0  0
   -1.9659   -2.5067    0.1492 C   0  0  0  0  0  0  0  0  0  0  0  0
   -1.1368   -1.7339   -0.8961 C   0  0  0  0  0  0  0  0  0  0  0  0
    0.3948   -1.7656   -0.7073 C   0  0  0  0  0  0  0  0  0  0  0  0
    0.9920   -0.8987    0.4352 C   0  0  0  0  0  0  0  0  0  0  0  0
    1.3317    0.5168    0.0940 N   0  0  0  0  0  0  0  0  0  0  0  0
    2.6074    0.5809   -1.1231 S   0  0  0  0  0  6  0  0  0  0  0  0
    3.4327    1.8217   -0.9263 O   0  0  0  0  0  0  0  0  0  0  0  0
    2.0031    0.6267   -2.5003 O   0  0  0  0  0  0  0  0  0  0  0  0
    3.7161   -0.7901   -1.0129 C   0  0  0  0  0  0  0  0  0  0  0  0
    3.7330   -1.7842   -2.0032 C   0  0  0  0  0  0  0  0  0  0  0  0
    4.6093   -2.8681   -1.8949 C   0  0  0  0  0  0  0  0  0  0  0  0
    5.4749   -2.9636   -0.8017 C   0  0  0  0  0  0  0  0  0  0  0  0
    5.4667   -1.9730    0.1859 C   0  0  0  0  0  0  0  0  0  0  0  0
    6.5516   -2.0932    1.5589 Cl  0  0  0  0  0  0  0  0  0  0  0  0
    4.5905   -0.8873    0.0793 C   0  0  0  0  0  0  0  0  0  0  0  0
    0.1642    1.4067   -0.2089 C   0  0  0  0  0  0  0  0  0  0  0  0
    0.5665    2.8609   -0.5864 C   0  0  0  0  0  0  0  0  0  0  0  0
    1.1849    3.6186    0.5927 C   0  0  0  0  0  0  0  0  0  0  0  0
    0.1951    3.6906    1.7546 C   0  0  0  0  0  0  0  0  0  0  0  0
   -0.2443    2.2865    2.1736 C   0  0  0  0  0  0  0  0  0  0  0  0
   -0.8302    1.4871    0.9963 C   0  0  0  0  0  0  0  0  0  0  0  0
   -2.0834    2.0554    0.6001 O   0  0  0  0  0  0  0  0  0  0  0  0
   -3.0564    1.3907   -0.1683 C   0  0  0  0  0  0  0  0  0  0  0  0
   -3.5470    2.0556   -1.2991 C   0  0  0  0  0  0  0  0  0  0  0  0
   -4.5037    1.4560   -2.1201 C   0  0  0  0  0  0  0  0  0  0  0  0
   -4.9979    0.1895   -1.8088 C   0  0  0  0  0  0  0  0  0  0  0  0
   -4.5428   -0.4793   -0.6712 C   0  0  0  0  0  0  0  0  0  0  0  0
   -3.5717    0.1042    0.1578 C   0  0  0  0  0  0  0  0  0  0  0  0
   -3.1754   -0.6094    1.3862 C   0  0  0  0  0  0  0  0  0  0  0  0
   -3.6038   -0.1665    2.4867 O   0  0  0  0  0  0  0  0  0  0  0  0
   -2.5613   -2.6121    3.2725 H   0  0  0  0  0  0  0  0  0  0  0  0
   -0.9698   -3.0071    2.5209 H   0  0  0  0  0  0  0  0  0  0  0  0
   -1.2463   -1.3716    3.2022 H   0  0  0  0  0  0  0  0  0  0  0  0
   -2.9314   -2.8059   -0.3107 H   0  0  0  0  0  0  0  0  0  0  0  0
   -1.4489   -3.4607    0.3892 H   0  0  0  0  0  0  0  0  0  0  0  0
   -1.5097   -0.7162   -1.0264 H   0  0  0  0  0  0  0  0  0  0  0  0
   -1.3357   -2.2264   -1.8734 H   0  0  0  0  0  0  0  0  0  0  0  0
    0.8565   -1.4888   -1.6732 H   0  0  0  0  0  0  0  0  0  0  0  0
    0.6932   -2.8221   -0.5306 H   0  0  0  0  0  0  0  0  0  0  0  0
    0.3891   -0.9775    1.3505 H   0  0  0  0  0  0  0  0  0  0  0  0
    1.9230   -1.3995    0.7695 H   0  0  0  0  0  0  0  0  0  0  0  0
    3.0695   -1.7256   -2.8559 H   0  0  0  0  0  0  0  0  0  0  0  0
    4.6174   -3.6348   -2.6589 H   0  0  0  0  0  0  0  0  0  0  0  0
    6.1504   -3.8059   -0.7234 H   0  0  0  0  0  0  0  0  0  0  0  0
    4.5829   -0.1254    0.8490 H   0  0  0  0  0  0  0  0  0  0  0  0
   -0.3547    1.0216   -1.1039 H   0  0  0  0  0  0  0  0  0  0  0  0
    1.2427    2.8994   -1.4613 H   0  0  0  0  0  0  0  0  0  0  0  0
   -0.3449    3.4085   -0.9157 H   0  0  0  0  0  0  0  0  0  0  0  0
    1.4455    4.6496    0.2705 H   0  0  0  0  0  0  0  0  0  0  0  0
    2.1179    3.1171    0.9276 H   0  0  0  0  0  0  0  0  0  0  0  0
   -0.6929    4.2910    1.4580 H   0  0  0  0  0  0  0  0  0  0  0  0
    0.6779    4.1974    2.6177 H   0  0  0  0  0  0  0  0  0  0  0  0
    0.6290    1.7393    2.5929 H   0  0  0  0  0  0  0  0  0  0  0  0
   -1.0057    2.3679    2.9796 H   0  0  0  0  0  0  0  0  0  0  0  0
   -1.0234    0.5020    1.4031 H   0  0  0  0  0  0  0  0  0  0  0  0
   -3.1696    3.0386   -1.5514 H   0  0  0  0  0  0  0  0  0  0  0  0
   -4.8652    1.9764   -2.9977 H   0  0  0  0  0  0  0  0  0  0  0  0
   -5.7457   -0.2694   -2.4426 H   0  0  0  0  0  0  0  0  0  0  0  0
   -4.9619   -1.4478   -0.4271 H   0  0  0  0  0  0  0  0  0  0  0  0
  1  2  1  0
  2  3  1  0
  3  4  1  0
  4  5  1  0
  5  6  1  0
  6  7  1  0
  7  8  1  0
  8  9  2  0
  8 10  2  0
  8 11  1  0
 11 12  2  0
 12 13  1  0
 13 14  2  0
 14 15  1  0
 15 16  1  0
 15 17  2  0
  7 18  1  0
 18 19  1  0
 19 20  1  0
 20 21  1  0
 21 22  1  0
 22 23  1  0
 23 24  1  0
 24 25  1  0
 25 26  2  0
 26 27  1  0
 27 28  2  0
 28 29  1  0
 29 30  2  0
 30 31  1  0
 31 32  2  0
 31  2  1  0
 17 11  1  0
 23 18  1  0
 30 25  1  0
  1 33  1  0
  1 34  1  0
  1 35  1  0
  3 36  1  0
  3 37  1  0
  4 38  1  0
  4 39  1  0
  5 40  1  0
  5 41  1  0
  6 42  1  0
  6 43  1  0
 12 44  1  0
 13 45  1  0
 14 46  1  0
 17 47  1  0
 18 48  1  0
 19 49  1  0
 19 50  1  0
 20 51  1  0
 20 52  1  0
 21 53  1  0
 21 54  1  0
 22 55  1  0
 22 56  1  0
 23 57  1  0
 26 58  1  0
 27 59  1  0
 28 60  1  0
 29 61  1  0
M  END
$$$$
