
     RDKit          3D

 73 76  0  0  0  0  0  0  0  0999 V2000
   -3.6787   -4.6766   -0.0391 C   0  0  0  0  0  0  0  0  0  0  0  0
   -2.7532   -3.5713   -0.2526 N   0  0  0  0  0  0  0  0  0  0  0  0
   -3.0505   -2.2419    0.2081 C   0  0  0  0  0  0  0  0  0  0  0  0
   -4.1395   -2.0360    0.8134 O   0  0  0  0  0  0  0  0  0  0  0  0
   -2.0665   -1.0898   -0.0169 C   0  0  0  0  0  0  0  0  0  0  0  0
   -0.6953   -1.4275    0.6622 C   0  0  0  0  0  0  0  0  0  0  0  0
   -0.6487   -1.3660    2.2059 C   0  0  0  0  0  0  0  0  0  0  0  0
   -0.1022   -0.0389    2.7911 C   0  0  0  0  0  0  0  0  0  0  0  0
    1.3761    0.2573    2.4499 C   0  0  0  0  0  0  0  0  0  0  0  0
    1.5472    1.0397    1.2016 N   0  0  0  0  0  0  0  0  0  0  0  0
    2.4096    0.5780    0.1301 C   0  0  0  0  0  0  0  0  0  0  0  0
    2.3816    1.1693   -0.9840 O   0  0  0  0  0  0  0  0  0  0  0  0
    3.3326   -0.6063    0.3074 C   0  0  0  0  0  0  0  0  0  0  0  0
    4.3364   -0.7651   -0.8442 C   0  0  0  0  0  0  0  0  0  0  0  0
    5.2825   -1.9095   -0.5705 C   0  0  0  0  0  0  0  0  0  0  0  0
    4.9661   -3.1916   -1.0548 C   0  0  0  0  0  0  0  0  0  0  0  0
    5.8065   -4.2763   -0.7924 C   0  0  0  0  0  0  0  0  0  0  0  0
    6.9648   -4.0965   -0.0346 C   0  0  0  0  0  0  0  0  0  0  0  0
    7.2840   -2.8320    0.4663 C   0  0  0  0  0  0  0  0  0  0  0  0
    6.4497   -1.7371    0.2084 C   0  0  0  0  0  0  0  0  0  0  0  0
    6.8973   -0.1724    0.8816 Cl  0  0  0  0  0  0  0  0  0  0  0  0
    1.0860    2.4422    1.1715 C   0  0  0  0  0  0  0  0  0  0  0  0
    0.0946    2.7225    0.0204 C   0  0  0  0  0  0  0  0  0  0  0  0
   -1.0868    3.3214    0.5516 O   0  0  0  0  0  0  0  0  0  0  0  0
   -2.0465    4.0333   -0.1861 C   0  0  0  0  0  0  0  0  0  0  0  0
   -2.4713    5.2582    0.3463 C   0  0  0  0  0  0  0  0  0  0  0  0
   -3.4311    6.0300   -0.3090 C   0  0  0  0  0  0  0  0  0  0  0  0
   -3.9889    5.5817   -1.5049 C   0  0  0  0  0  0  0  0  0  0  0  0
   -3.5978    4.3543   -2.0406 C   0  0  0  0  0  0  0  0  0  0  0  0
   -2.6352    3.5647   -1.3918 C   0  0  0  0  0  0  0  0  0  0  0  0
   -2.3454    2.2428   -1.9720 C   0  0  0  0  0  0  0  0  0  0  0  0
   -1.4368    2.1588   -2.8429 O   0  0  0  0  0  0  0  0  0  0  0  0
   -3.1394    1.0801   -1.6319 N   0  0  0  0  0  0  0  0  0  0  0  0
   -2.8929   -0.1932   -2.3071 C   0  0  0  0  0  0  0  0  0  0  0  0
   -1.7836   -0.9297   -1.5550 C   0  0  0  0  0  0  0  0  0  0  0  0
   -3.6898    0.9286   -0.2869 C   0  0  0  0  0  0  0  0  0  0  0  0
   -2.6347    0.2443    0.5855 C   0  0  0  0  0  0  0  0  0  0  0  0
   -3.8353   -4.8298    1.0487 H   0  0  0  0  0  0  0  0  0  0  0  0
   -3.2631   -5.6085   -0.4766 H   0  0  0  0  0  0  0  0  0  0  0  0
   -4.6509   -4.4531   -0.5265 H   0  0  0  0  0  0  0  0  0  0  0  0
   -1.8595   -3.7724   -0.7536 H   0  0  0  0  0  0  0  0  0  0  0  0
    0.0857   -0.7633    0.2578 H   0  0  0  0  0  0  0  0  0  0  0  0
   -0.3712   -2.4429    0.3509 H   0  0  0  0  0  0  0  0  0  0  0  0
   -1.6565   -1.5665    2.6270 H   0  0  0  0  0  0  0  0  0  0  0  0
    0.0019   -2.1911    2.5699 H   0  0  0  0  0  0  0  0  0  0  0  0
   -0.7479    0.8216    2.5472 H   0  0  0  0  0  0  0  0  0  0  0  0
   -0.1673   -0.1377    3.8966 H   0  0  0  0  0  0  0  0  0  0  0  0
    1.8255    0.8371    3.2856 H   0  0  0  0  0  0  0  0  0  0  0  0
    1.9234   -0.7043    2.4261 H   0  0  0  0  0  0  0  0  0  0  0  0
    2.7185   -1.5307    0.3801 H   0  0  0  0  0  0  0  0  0  0  0  0
    3.8989   -0.4723    1.2545 H   0  0  0  0  0  0  0  0  0  0  0  0
    4.9070    0.1769   -0.9880 H   0  0  0  0  0  0  0  0  0  0  0  0
    3.7842   -0.9535   -1.7915 H   0  0  0  0  0  0  0  0  0  0  0  0
    4.0665   -3.3516   -1.6361 H   0  0  0  0  0  0  0  0  0  0  0  0
    5.5566   -5.2585   -1.1738 H   0  0  0  0  0  0  0  0  0  0  0  0
    7.6146   -4.9384    0.1686 H   0  0  0  0  0  0  0  0  0  0  0  0
    8.1809   -2.7045    1.0594 H   0  0  0  0  0  0  0  0  0  0  0  0
    0.6233    2.7158    2.1457 H   0  0  0  0  0  0  0  0  0  0  0  0
    1.9691    3.1094    1.0629 H   0  0  0  0  0  0  0  0  0  0  0  0
   -0.1528    1.7882   -0.5182 H   0  0  0  0  0  0  0  0  0  0  0  0
    0.5653    3.4194   -0.7067 H   0  0  0  0  0  0  0  0  0  0  0  0
   -2.0457    5.6167    1.2747 H   0  0  0  0  0  0  0  0  0  0  0  0
   -3.7438    6.9759    0.1124 H   0  0  0  0  0  0  0  0  0  0  0  0
   -4.7358    6.1793   -2.0113 H   0  0  0  0  0  0  0  0  0  0  0  0
   -4.0606    4.0091   -2.9574 H   0  0  0  0  0  0  0  0  0  0  0  0
   -2.5995   -0.0305   -3.3674 H   0  0  0  0  0  0  0  0  0  0  0  0
   -3.8188   -0.8100   -2.3109 H   0  0  0  0  0  0  0  0  0  0  0  0
   -1.6100   -1.9112   -2.0416 H   0  0  0  0  0  0  0  0  0  0  0  0
   -0.8523   -0.3432   -1.7134 H   0  0  0  0  0  0  0  0  0  0  0  0
   -3.9716    1.9088    0.1516 H   0  0  0  0  0  0  0  0  0  0  0  0
   -4.6152    0.3145   -0.3227 H   0  0  0  0  0  0  0  0  0  0  0  0
   -1.8142    0.9613    0.6865 H   0  0  0  0  0  0  0  0  0  0  0  0
   -3.0492    0.0904    1.6051 H   0  0  0  0  0  0  0  0  0  0  0  0
  1  2  1  0
  2  3  1  0
  3  4  2  0
  3  5  1  0
  5  6  1  0
  6  7  1  0
  7  8  1  0
  8  9  1  0
  9 10  1  0
 10 11  1  0
 11 12  2  0
 11 13  1  0
 13 14  1  0
 14 15  1  0
 15 16  2  0
 16 17  1  0
 17 18  2  0
 18 19  1  0
 19 20  2  0
 20 21  1  0
 10 22  1  0
 22 23  1  0
 23 24  1  0
 24 25  1  0
 25 26  2  0
 26 27  1  0
 27 28  2  0
 28 29  1  0
 29 30  2  0
 30 31  1  0
 31 32  2  0
 31 33  1  0
 33 34  1  0
 34 35  1  0
 33 36  1  0
 36 37  1  0
 35  5  1  0
 37  5  1  0
 20 15  1  0
 30 25  1  0
  1 38  1  0
  1 39  1  0
  1 40  1  0
  2 41  1  0
  6 42  1  0
  6 43  1  0
  7 44  1  0
  7 45  1  0
  8 46  1  0
  8 47  1  0
  9 48  1  0
  9 49  1  0
 13 50  1  0
 13 51  1  0
 14 52  1  0
 14 53  1  0
 16 54  1  0
 17 55  1  0
 18 56  1  0
 19 57  1  0
 22 58  1  0
 22 59  1  0
 23 60  1  0
 23 61  1  0
 26 62  1  0
 27 63  1  0
 28 64  1  0
 29 65  1  0
 34 66  1  0
 34 67  1  0
 35 68  1  0
 35 69  1  0
 36 70  1  0
 36 71  1  0
 37 72  1  0
 37 73  1  0
M  END
$$$$
