
     RDKit          3D

 71 73  0  0  0  0  0  0  0  0999 V2000
   -4.7211    1.4682   -2.4774 C   0  0  0  0  0  0  0  0  0  0  0  0
   -3.5603    2.2812   -1.8876 C   0  0  0  0  0  0  0  0  0  0  0  0
   -3.5660    3.6976   -2.4765 C   0  0  0  0  0  0  0  0  0  0  0  0
   -3.6159    2.3484   -0.3425 C   0  0  0  0  0  0  0  0  0  0  0  0
   -3.3928    0.9757    0.3456 C   0  0  0  0  0  0  0  0  0  0  0  0
   -2.7307    1.1687    1.6416 N   0  0  0  0  0  0  0  0  0  0  0  0
   -1.3108    1.3276    1.8256 C   0  0  0  0  0  0  0  0  0  0  0  0
   -0.8584    1.3779    3.0011 O   0  0  0  0  0  0  0  0  0  0  0  0
   -0.3283    1.4227    0.6816 C   0  0  0  0  0  0  0  0  0  0  0  0
    0.4308    0.0943    0.4676 C   0  0  0  0  0  0  0  0  0  0  0  0
    1.7995    0.3525   -0.1048 C   0  0  0  0  0  0  0  0  0  0  0  0
    1.9299    0.5642   -1.3425 O   0  0  0  0  0  0  0  0  0  0  0  0
    2.9460    0.3785    0.7592 N   0  0  0  0  0  0  0  0  0  0  0  0
    4.3139    0.4407    0.2494 C   0  0  0  0  0  0  0  0  0  0  0  0
    4.6467    1.8533   -0.2392 C   0  0  0  0  0  0  0  0  0  0  0  0
    6.0853    1.9353   -0.6620 C   0  0  0  0  0  0  0  0  0  0  0  0
    7.0399    2.5852    0.1334 C   0  0  0  0  0  0  0  0  0  0  0  0
    8.3383    2.6124   -0.2678 N   0  0  0  0  0  0  0  0  0  0  0  0
    8.7321    2.0126   -1.4224 C   0  0  0  0  0  0  0  0  0  0  0  0
    7.7865    1.3569   -2.2123 C   0  0  0  0  0  0  0  0  0  0  0  0
    6.4874    1.3309   -1.8145 N   0  0  0  0  0  0  0  0  0  0  0  0
   -0.3111   -0.7919   -0.4367 N   0  0  0  0  0  0  0  0  0  0  0  0
   -0.2657   -2.2261   -0.3499 C   0  0  0  0  0  0  0  0  0  0  0  0
   -0.7282   -2.9157   -1.2975 O   0  0  0  0  0  0  0  0  0  0  0  0
    0.3922   -2.9128    0.7743 C   0  0  0  0  0  0  0  0  0  0  0  0
    1.7745   -3.1325    0.6488 C   0  0  0  0  0  0  0  0  0  0  0  0
    2.4801   -3.8253    1.6316 C   0  0  0  0  0  0  0  0  0  0  0  0
    1.8127   -4.3194    2.7487 C   0  0  0  0  0  0  0  0  0  0  0  0
    0.4409   -4.1099    2.8925 C   0  0  0  0  0  0  0  0  0  0  0  0
   -0.2913   -3.3977    1.9308 C   0  0  0  0  0  0  0  0  0  0  0  0
   -1.6627   -3.2243    2.2156 O   0  0  0  0  0  0  0  0  0  0  0  0
   -2.5798   -2.3167    1.6112 C   0  0  0  0  0  0  0  0  0  0  0  0
   -3.3929   -3.0176    0.5183 C   0  0  0  0  0  0  0  0  0  0  0  0
   -4.0083   -2.0329   -0.4839 C   0  0  0  0  0  0  0  0  0  0  0  0
   -4.9485   -1.1229    0.1765 N   0  0  0  0  0  0  0  0  0  0  0  0
   -4.7098    0.2459    0.5661 C   0  0  0  0  0  0  0  0  0  0  0  0
   -5.6345    0.8575    1.1691 O   0  0  0  0  0  0  0  0  0  0  0  0
   -4.6820    1.4988   -3.5857 H   0  0  0  0  0  0  0  0  0  0  0  0
   -5.6986    1.8730   -2.1399 H   0  0  0  0  0  0  0  0  0  0  0  0
   -4.6441    0.4047   -2.1795 H   0  0  0  0  0  0  0  0  0  0  0  0
   -2.6044    1.7979   -2.1902 H   0  0  0  0  0  0  0  0  0  0  0  0
   -2.7110    4.2837   -2.0772 H   0  0  0  0  0  0  0  0  0  0  0  0
   -3.4640    3.6561   -3.5820 H   0  0  0  0  0  0  0  0  0  0  0  0
   -4.5104    4.2231   -2.2209 H   0  0  0  0  0  0  0  0  0  0  0  0
   -4.5720    2.8134   -0.0151 H   0  0  0  0  0  0  0  0  0  0  0  0
   -2.8158    3.0439   -0.0063 H   0  0  0  0  0  0  0  0  0  0  0  0
   -2.7268    0.3776   -0.2895 H   0  0  0  0  0  0  0  0  0  0  0  0
   -3.3220    1.2034    2.5038 H   0  0  0  0  0  0  0  0  0  0  0  0
    0.3968    2.2253    0.9451 H   0  0  0  0  0  0  0  0  0  0  0  0
   -0.8154    1.7559   -0.2568 H   0  0  0  0  0  0  0  0  0  0  0  0
    0.5573   -0.4000    1.4556 H   0  0  0  0  0  0  0  0  0  0  0  0
    2.8105    0.2318    1.7849 H   0  0  0  0  0  0  0  0  0  0  0  0
    4.4404   -0.2965   -0.5745 H   0  0  0  0  0  0  0  0  0  0  0  0
    5.0156    0.1633    1.0667 H   0  0  0  0  0  0  0  0  0  0  0  0
    4.4363    2.5836    0.5730 H   0  0  0  0  0  0  0  0  0  0  0  0
    4.0054    2.1181   -1.1053 H   0  0  0  0  0  0  0  0  0  0  0  0
    6.7576    3.0658    1.0620 H   0  0  0  0  0  0  0  0  0  0  0  0
    9.7704    2.0431   -1.7226 H   0  0  0  0  0  0  0  0  0  0  0  0
    8.0831    0.8695   -3.1322 H   0  0  0  0  0  0  0  0  0  0  0  0
   -0.7190   -0.3815   -1.3077 H   0  0  0  0  0  0  0  0  0  0  0  0
    2.3097   -2.7695   -0.2207 H   0  0  0  0  0  0  0  0  0  0  0  0
    3.5451   -3.9838    1.5230 H   0  0  0  0  0  0  0  0  0  0  0  0
    2.3605   -4.8615    3.5087 H   0  0  0  0  0  0  0  0  0  0  0  0
   -0.0613   -4.4925    3.7724 H   0  0  0  0  0  0  0  0  0  0  0  0
   -3.2847   -1.9692    2.3955 H   0  0  0  0  0  0  0  0  0  0  0  0
   -2.0615   -1.4137    1.2568 H   0  0  0  0  0  0  0  0  0  0  0  0
   -2.7482   -3.7318   -0.0340 H   0  0  0  0  0  0  0  0  0  0  0  0
   -4.2013   -3.6164    0.9930 H   0  0  0  0  0  0  0  0  0  0  0  0
   -3.2246   -1.5019   -1.0530 H   0  0  0  0  0  0  0  0  0  0  0  0
   -4.5708   -2.6221   -1.2394 H   0  0  0  0  0  0  0  0  0  0  0  0
   -5.8708   -1.5344    0.4486 H   0  0  0  0  0  0  0  0  0  0  0  0
  1  2  1  0
  2  3  1  0
  2  4  1  0
  4  5  1  0
  5  6  1  0
  6  7  1  0
  7  8  2  0
  7  9  1  0
  9 10  1  0
 10 11  1  0
 11 12  2  0
 11 13  1  0
 13 14  1  0
 14 15  1  0
 15 16  1  0
 16 17  2  0
 17 18  1  0
 18 19  2  0
 19 20  1  0
 20 21  2  0
 10 22  1  0
 22 23  1  0
 23 24  2  0
 23 25  1  0
 25 26  2  0
 26 27  1  0
 27 28  2  0
 28 29  1  0
 29 30  2  0
 30 31  1  0
 31 32  1  0
 32 33  1  0
 33 34  1  0
 34 35  1  0
 35 36  1  0
 36 37  2  0
 36  5  1  0
 21 16  1  0
 30 25  1  0
  1 38  1  0
  1 39  1  0
  1 40  1  0
  2 41  1  0
  3 42  1  0
  3 43  1  0
  3 44  1  0
  4 45  1  0
  4 46  1  0
  5 47  1  0
  6 48  1  0
  9 49  1  0
  9 50  1  0
 10 51  1  0
 13 52  1  0
 14 53  1  0
 14 54  1  0
 15 55  1  0
 15 56  1  0
 17 57  1  0
 19 58  1  0
 20 59  1  0
 22 60  1  0
 26 61  1  0
 27 62  1  0
 28 63  1  0
 29 64  1  0
 32 65  1  0
 32 66  1  0
 33 67  1  0
 33 68  1  0
 34 69  1  0
 34 70  1  0
 35 71  1  0
M  END
$$$$
