
     RDKit          3D

 80 82  0  0  0  0  0  0  0  0999 V2000
   10.9563    1.2142   -0.0187 C   0  0  0  0  0  0  0  0  0  0  0  0
    9.9592    0.2562    0.3253 O   0  0  0  0  0  0  0  0  0  0  0  0
    8.8704   -0.0817   -0.4919 C   0  0  0  0  0  0  0  0  0  0  0  0
    8.6852    0.4747   -1.7725 C   0  0  0  0  0  0  0  0  0  0  0  0
    7.5787    0.1103   -2.5446 C   0  0  0  0  0  0  0  0  0  0  0  0
    6.6503   -0.8097   -2.0515 C   0  0  0  0  0  0  0  0  0  0  0  0
    6.8269   -1.3798   -0.7809 C   0  0  0  0  0  0  0  0  0  0  0  0
    5.7965   -2.3259   -0.2252 C   0  0  0  0  0  0  0  0  0  0  0  0
    4.6379   -1.5444    0.4007 C   0  0  0  0  0  0  0  0  0  0  0  0
    3.6103   -2.4856    1.0351 C   0  0  0  0  0  0  0  0  0  0  0  0
    2.4876   -1.7187    1.5715 N   0  0  0  0  0  0  0  0  0  0  0  0
    1.4768   -1.1476    0.7287 C   0  0  0  0  0  0  0  0  0  0  0  0
    1.4781   -1.3919   -0.5088 O   0  0  0  0  0  0  0  0  0  0  0  0
    0.4094   -0.2640    1.3291 C   0  0  0  0  0  0  0  0  0  0  0  0
   -0.5866   -0.9947    2.2789 C   0  0  0  0  0  0  0  0  0  0  0  0
   -1.1333   -2.3281    1.8038 C   0  0  0  0  0  0  0  0  0  0  0  0
   -0.3319   -3.1856    1.3461 O   0  0  0  0  0  0  0  0  0  0  0  0
   -2.5125   -2.7141    1.9707 N   0  0  0  0  0  0  0  0  0  0  0  0
   -3.5974   -1.8409    2.4410 C   0  0  0  0  0  0  0  0  0  0  0  0
   -4.7673   -2.6813    2.9603 C   0  0  0  0  0  0  0  0  0  0  0  0
   -4.0756   -0.9641    1.3174 C   0  0  0  0  0  0  0  0  0  0  0  0
   -4.1491   -1.4341    0.1494 O   0  0  0  0  0  0  0  0  0  0  0  0
   -4.5093    0.3787    1.5762 N   0  0  0  0  0  0  0  0  0  0  0  0
   -4.2888    1.4399    0.5894 C   0  0  0  0  0  0  0  0  0  0  0  0
   -5.4639    2.4466    0.5859 C   0  0  0  0  0  0  0  0  0  0  0  0
   -6.7359    1.9828   -0.1663 C   0  0  0  0  0  0  0  0  0  0  0  0
   -7.3475    0.7054    0.4226 C   0  0  0  0  0  0  0  0  0  0  0  0
   -6.5052    1.8352   -1.6782 C   0  0  0  0  0  0  0  0  0  0  0  0
   -2.9637    2.1474    0.9312 C   0  0  0  0  0  0  0  0  0  0  0  0
   -2.3911    2.8212   -0.1927 O   0  0  0  0  0  0  0  0  0  0  0  0
   -2.2027    2.2810   -1.4764 C   0  0  0  0  0  0  0  0  0  0  0  0
   -2.5657    3.1018   -2.5522 C   0  0  0  0  0  0  0  0  0  0  0  0
   -2.5183    2.6296   -3.8631 C   0  0  0  0  0  0  0  0  0  0  0  0
   -2.0931    1.3294   -4.1197 C   0  0  0  0  0  0  0  0  0  0  0  0
   -1.6911    0.5059   -3.0690 C   0  0  0  0  0  0  0  0  0  0  0  0
   -1.7118    0.9679   -1.7379 C   0  0  0  0  0  0  0  0  0  0  0  0
   -1.1585    0.0653   -0.6999 C   0  0  0  0  0  0  0  0  0  0  0  0
   -1.3993   -1.1685   -0.7781 O   0  0  0  0  0  0  0  0  0  0  0  0
   -0.2587    0.5597    0.3065 N   0  0  0  0  0  0  0  0  0  0  0  0
    7.9367   -1.0052   -0.0055 C   0  0  0  0  0  0  0  0  0  0  0  0
   11.6832    1.2950    0.8135 H   0  0  0  0  0  0  0  0  0  0  0  0
   10.4910    2.2083   -0.1800 H   0  0  0  0  0  0  0  0  0  0  0  0
   11.4976    0.8904   -0.9336 H   0  0  0  0  0  0  0  0  0  0  0  0
    9.3876    1.1906   -2.1775 H   0  0  0  0  0  0  0  0  0  0  0  0
    7.4376    0.5477   -3.5252 H   0  0  0  0  0  0  0  0  0  0  0  0
    5.7899   -1.0731   -2.6544 H   0  0  0  0  0  0  0  0  0  0  0  0
    6.2608   -2.9864    0.5400 H   0  0  0  0  0  0  0  0  0  0  0  0
    5.4109   -2.9787   -1.0389 H   0  0  0  0  0  0  0  0  0  0  0  0
    5.0305   -0.8597    1.1843 H   0  0  0  0  0  0  0  0  0  0  0  0
    4.1468   -0.9307   -0.3861 H   0  0  0  0  0  0  0  0  0  0  0  0
    4.0949   -3.0510    1.8616 H   0  0  0  0  0  0  0  0  0  0  0  0
    3.2390   -3.2219    0.2895 H   0  0  0  0  0  0  0  0  0  0  0  0
    2.4092   -1.6114    2.6087 H   0  0  0  0  0  0  0  0  0  0  0  0
    0.9622    0.4475    1.9827 H   0  0  0  0  0  0  0  0  0  0  0  0
   -1.4018   -0.2931    2.5240 H   0  0  0  0  0  0  0  0  0  0  0  0
   -0.0645   -1.1940    3.2400 H   0  0  0  0  0  0  0  0  0  0  0  0
   -2.7640   -3.6810    1.6615 H   0  0  0  0  0  0  0  0  0  0  0  0
   -3.2420   -1.2229    3.2917 H   0  0  0  0  0  0  0  0  0  0  0  0
   -4.4245   -3.3387    3.7860 H   0  0  0  0  0  0  0  0  0  0  0  0
   -5.1853   -3.3141    2.1494 H   0  0  0  0  0  0  0  0  0  0  0  0
   -5.5705   -2.0190    3.3498 H   0  0  0  0  0  0  0  0  0  0  0  0
   -4.6884    0.6563    2.5680 H   0  0  0  0  0  0  0  0  0  0  0  0
   -4.2003    0.9892   -0.4170 H   0  0  0  0  0  0  0  0  0  0  0  0
   -5.1254    3.3965    0.1147 H   0  0  0  0  0  0  0  0  0  0  0  0
   -5.7337    2.7013    1.6348 H   0  0  0  0  0  0  0  0  0  0  0  0
   -7.4892    2.7914   -0.0344 H   0  0  0  0  0  0  0  0  0  0  0  0
   -6.7180   -0.1797    0.1940 H   0  0  0  0  0  0  0  0  0  0  0  0
   -7.4587    0.8021    1.5239 H   0  0  0  0  0  0  0  0  0  0  0  0
   -8.3543    0.5326   -0.0146 H   0  0  0  0  0  0  0  0  0  0  0  0
   -6.0026    2.7389   -2.0846 H   0  0  0  0  0  0  0  0  0  0  0  0
   -5.8884    0.9420   -1.9118 H   0  0  0  0  0  0  0  0  0  0  0  0
   -7.4820    1.7205   -2.1957 H   0  0  0  0  0  0  0  0  0  0  0  0
   -2.2463    1.4300    1.3491 H   0  0  0  0  0  0  0  0  0  0  0  0
   -3.1325    2.8915    1.7393 H   0  0  0  0  0  0  0  0  0  0  0  0
   -2.9290    4.1049   -2.3660 H   0  0  0  0  0  0  0  0  0  0  0  0
   -2.8233    3.2706   -4.6805 H   0  0  0  0  0  0  0  0  0  0  0  0
   -2.0600    0.9615   -5.1375 H   0  0  0  0  0  0  0  0  0  0  0  0
   -1.3308   -0.4892   -3.3009 H   0  0  0  0  0  0  0  0  0  0  0  0
   -0.0004    1.5725    0.2695 H   0  0  0  0  0  0  0  0  0  0  0  0
    8.0729   -1.4241    0.9844 H   0  0  0  0  0  0  0  0  0  0  0  0
  1  2  1  0
  2  3  1  0
  3  4  2  0
  4  5  1  0
  5  6  2  0
  6  7  1  0
  7  8  1  0
  8  9  1  0
  9 10  1  0
 10 11  1  0
 11 12  1  0
 12 13  2  0
 12 14  1  0
 14 15  1  0
 15 16  1  0
 16 17  2  0
 16 18  1  0
 18 19  1  0
 19 20  1  0
 19 21  1  0
 21 22  2  0
 21 23  1  0
 23 24  1  0
 24 25  1  0
 25 26  1  0
 26 27  1  0
 26 28  1  0
 24 29  1  0
 29 30  1  0
 30 31  1  0
 31 32  2  0
 32 33  1  0
 33 34  2  0
 34 35  1  0
 35 36  2  0
 36 37  1  0
 37 38  2  0
 37 39  1  0
  7 40  2  0
 40  3  1  0
 39 14  1  0
 36 31  1  0
  1 41  1  0
  1 42  1  0
  1 43  1  0
  4 44  1  0
  5 45  1  0
  6 46  1  0
  8 47  1  0
  8 48  1  0
  9 49  1  0
  9 50  1  0
 10 51  1  0
 10 52  1  0
 11 53  1  0
 14 54  1  0
 15 55  1  0
 15 56  1  0
 18 57  1  0
 19 58  1  0
 20 59  1  0
 20 60  1  0
 20 61  1  0
 23 62  1  0
 24 63  1  0
 25 64  1  0
 25 65  1  0
 26 66  1  0
 27 67  1  0
 27 68  1  0
 27 69  1  0
 28 70  1  0
 28 71  1  0
 28 72  1  0
 29 73  1  0
 29 74  1  0
 32 75  1  0
 33 76  1  0
 34 77  1  0
 35 78  1  0
 39 79  1  0
 40 80  1  0
M  END
$$$$
