
     RDKit          3D

 71 73  0  0  0  0  0  0  0  0999 V2000
   -4.6937   -4.5421   -1.7213 C   0  0  0  0  0  0  0  0  0  0  0  0
   -3.7880   -3.5672   -0.9666 C   0  0  0  0  0  0  0  0  0  0  0  0
   -4.1672   -2.0821   -1.1961 C   0  0  0  0  0  0  0  0  0  0  0  0
   -5.5041   -1.7370   -0.5102 C   0  0  0  0  0  0  0  0  0  0  0  0
   -2.9882   -1.1509   -0.7764 C   0  0  0  0  0  0  0  0  0  0  0  0
   -2.5961   -1.3331    0.6289 N   0  0  0  0  0  0  0  0  0  0  0  0
   -1.2264   -1.2930    1.0691 C   0  0  0  0  0  0  0  0  0  0  0  0
   -0.8916   -1.9687    2.0782 O   0  0  0  0  0  0  0  0  0  0  0  0
   -0.1863   -0.4879    0.3251 C   0  0  0  0  0  0  0  0  0  0  0  0
    0.9312    0.1079    1.2123 C   0  0  0  0  0  0  0  0  0  0  0  0
    1.9782   -0.9270    1.5533 C   0  0  0  0  0  0  0  0  0  0  0  0
    1.9804   -1.4951    2.6808 O   0  0  0  0  0  0  0  0  0  0  0  0
    2.9721   -1.2702    0.5793 N   0  0  0  0  0  0  0  0  0  0  0  0
    4.1909   -1.9892    0.9538 C   0  0  0  0  0  0  0  0  0  0  0  0
    5.1821   -2.0767   -0.2183 C   0  0  0  0  0  0  0  0  0  0  0  0
    6.3315   -2.7619    0.2051 O   0  0  0  0  0  0  0  0  0  0  0  0
    5.5612   -0.6986   -0.7247 C   0  0  0  0  0  0  0  0  0  0  0  0
    6.3047    0.1838    0.0809 C   0  0  0  0  0  0  0  0  0  0  0  0
    6.6209    1.4654   -0.3814 C   0  0  0  0  0  0  0  0  0  0  0  0
    6.2020    1.8764   -1.6495 C   0  0  0  0  0  0  0  0  0  0  0  0
    5.4641    1.0074   -2.4572 C   0  0  0  0  0  0  0  0  0  0  0  0
    5.1467   -0.2754   -2.0008 C   0  0  0  0  0  0  0  0  0  0  0  0
    0.3925    0.7531    2.4234 N   0  0  0  0  0  0  0  0  0  0  0  0
   -0.1412    2.0895    2.4699 C   0  0  0  0  0  0  0  0  0  0  0  0
   -0.6384    2.5142    3.5473 O   0  0  0  0  0  0  0  0  0  0  0  0
   -0.1432    2.9773    1.2928 C   0  0  0  0  0  0  0  0  0  0  0  0
    1.0951    3.4668    0.8407 C   0  0  0  0  0  0  0  0  0  0  0  0
    1.1585    4.3831   -0.2093 C   0  0  0  0  0  0  0  0  0  0  0  0
   -0.0139    4.8439   -0.8049 C   0  0  0  0  0  0  0  0  0  0  0  0
   -1.2536    4.3857   -0.3544 C   0  0  0  0  0  0  0  0  0  0  0  0
   -1.3431    3.4496    0.6860 C   0  0  0  0  0  0  0  0  0  0  0  0
   -2.6394    3.0498    1.0611 O   0  0  0  0  0  0  0  0  0  0  0  0
   -3.0007    1.8031    1.6515 C   0  0  0  0  0  0  0  0  0  0  0  0
   -4.2759    1.2659    1.0107 C   0  0  0  0  0  0  0  0  0  0  0  0
   -4.1289    1.1819   -0.4426 N   0  0  0  0  0  0  0  0  0  0  0  0
   -3.2280    0.3060   -1.1459 C   0  0  0  0  0  0  0  0  0  0  0  0
   -2.6850    0.7388   -2.1975 O   0  0  0  0  0  0  0  0  0  0  0  0
   -4.7415   -4.2786   -2.7994 H   0  0  0  0  0  0  0  0  0  0  0  0
   -5.7167   -4.5458   -1.2923 H   0  0  0  0  0  0  0  0  0  0  0  0
   -4.2837   -5.5702   -1.6278 H   0  0  0  0  0  0  0  0  0  0  0  0
   -2.7472   -3.7432   -1.3173 H   0  0  0  0  0  0  0  0  0  0  0  0
   -3.8182   -3.8117    0.1173 H   0  0  0  0  0  0  0  0  0  0  0  0
   -4.3148   -1.9366   -2.2903 H   0  0  0  0  0  0  0  0  0  0  0  0
   -5.4491   -1.8778    0.5882 H   0  0  0  0  0  0  0  0  0  0  0  0
   -6.3195   -2.3794   -0.9015 H   0  0  0  0  0  0  0  0  0  0  0  0
   -5.8057   -0.6959   -0.7311 H   0  0  0  0  0  0  0  0  0  0  0  0
   -2.1279   -1.4860   -1.3994 H   0  0  0  0  0  0  0  0  0  0  0  0
   -3.2911   -1.7157    1.3062 H   0  0  0  0  0  0  0  0  0  0  0  0
   -0.6813    0.3574   -0.1922 H   0  0  0  0  0  0  0  0  0  0  0  0
    0.2575   -1.1287   -0.4662 H   0  0  0  0  0  0  0  0  0  0  0  0
    1.4600    0.8690    0.6046 H   0  0  0  0  0  0  0  0  0  0  0  0
    2.8436   -0.9288   -0.4002 H   0  0  0  0  0  0  0  0  0  0  0  0
    3.9202   -3.0169    1.2768 H   0  0  0  0  0  0  0  0  0  0  0  0
    4.6729   -1.4752    1.8138 H   0  0  0  0  0  0  0  0  0  0  0  0
    4.6909   -2.6651   -1.0287 H   0  0  0  0  0  0  0  0  0  0  0  0
    6.8348   -3.0093   -0.6143 H   0  0  0  0  0  0  0  0  0  0  0  0
    6.6332   -0.1182    1.0670 H   0  0  0  0  0  0  0  0  0  0  0  0
    7.1894    2.1418    0.2448 H   0  0  0  0  0  0  0  0  0  0  0  0
    6.4453    2.8700   -2.0043 H   0  0  0  0  0  0  0  0  0  0  0  0
    5.1309    1.3305   -3.4351 H   0  0  0  0  0  0  0  0  0  0  0  0
    4.5650   -0.9316   -2.6362 H   0  0  0  0  0  0  0  0  0  0  0  0
    0.2717    0.1767    3.2877 H   0  0  0  0  0  0  0  0  0  0  0  0
    2.0163    3.1484    1.3143 H   0  0  0  0  0  0  0  0  0  0  0  0
    2.1180    4.7434   -0.5562 H   0  0  0  0  0  0  0  0  0  0  0  0
    0.0366    5.5598   -1.6150 H   0  0  0  0  0  0  0  0  0  0  0  0
   -2.1568    4.7549   -0.8246 H   0  0  0  0  0  0  0  0  0  0  0  0
   -3.1550    1.9356    2.7417 H   0  0  0  0  0  0  0  0  0  0  0  0
   -2.2148    1.0600    1.4916 H   0  0  0  0  0  0  0  0  0  0  0  0
   -4.5402    0.2777    1.4354 H   0  0  0  0  0  0  0  0  0  0  0  0
   -5.1100    1.9609    1.2518 H   0  0  0  0  0  0  0  0  0  0  0  0
   -4.5921    1.9348   -1.0021 H   0  0  0  0  0  0  0  0  0  0  0  0
  1  2  1  0
  2  3  1  0
  3  4  1  0
  3  5  1  0
  5  6  1  0
  6  7  1  0
  7  8  2  0
  7  9  1  0
  9 10  1  0
 10 11  1  0
 11 12  2  0
 11 13  1  0
 13 14  1  0
 14 15  1  0
 15 16  1  0
 15 17  1  0
 17 18  2  0
 18 19  1  0
 19 20  2  0
 20 21  1  0
 21 22  2  0
 10 23  1  0
 23 24  1  0
 24 25  2  0
 24 26  1  0
 26 27  2  0
 27 28  1  0
 28 29  2  0
 29 30  1  0
 30 31  2  0
 31 32  1  0
 32 33  1  0
 33 34  1  0
 34 35  1  0
 35 36  1  0
 36 37  2  0
 36  5  1  0
 22 17  1  0
 31 26  1  0
  1 38  1  0
  1 39  1  0
  1 40  1  0
  2 41  1  0
  2 42  1  0
  3 43  1  0
  4 44  1  0
  4 45  1  0
  4 46  1  0
  5 47  1  0
  6 48  1  0
  9 49  1  0
  9 50  1  0
 10 51  1  0
 13 52  1  0
 14 53  1  0
 14 54  1  0
 15 55  1  0
 16 56  1  0
 18 57  1  0
 19 58  1  0
 20 59  1  0
 21 60  1  0
 22 61  1  0
 23 62  1  0
 27 63  1  0
 28 64  1  0
 29 65  1  0
 30 66  1  0
 33 67  1  0
 33 68  1  0
 34 69  1  0
 34 70  1  0
 35 71  1  0
M  END
$$$$
