
     RDKit          3D

 66 69  0  0  0  0  0  0  0  0999 V2000
   -4.0937   -3.9707   -1.8505 C   0  0  0  0  0  0  0  0  0  0  0  0
   -3.4585   -2.7338   -1.6299 O   0  0  0  0  0  0  0  0  0  0  0  0
   -3.4949   -2.4245   -0.2511 C   0  0  0  0  0  0  0  0  0  0  0  0
   -2.7684   -1.0774    0.0178 C   0  0  0  0  0  0  0  0  0  0  0  0
   -1.3331   -1.0859   -0.6086 C   0  0  0  0  0  0  0  0  0  0  0  0
   -0.4148   -2.2681   -0.2180 C   0  0  0  0  0  0  0  0  0  0  0  0
    0.9282   -2.2504   -0.9718 C   0  0  0  0  0  0  0  0  0  0  0  0
    1.7785   -0.9743   -0.8002 C   0  0  0  0  0  0  0  0  0  0  0  0
    2.3407   -0.8445    0.5589 N   0  0  0  0  0  0  0  0  0  0  0  0
    3.7044   -1.2504    0.8456 C   0  0  0  0  0  0  0  0  0  0  0  0
    4.2084   -1.0063    1.9749 O   0  0  0  0  0  0  0  0  0  0  0  0
    4.5657   -1.8946   -0.1630 C   0  0  0  0  0  0  0  0  0  0  0  0
    4.2984   -3.3960   -0.8731 S   0  0  0  0  0  0  0  0  0  0  0  0
    5.7285   -3.3638   -1.7551 C   0  0  0  0  0  0  0  0  0  0  0  0
    6.4206   -2.2281   -1.5182 N   0  0  0  0  0  0  0  0  0  0  0  0
    5.7852   -1.4093   -0.6352 C   0  0  0  0  0  0  0  0  0  0  0  0
    6.3832   -0.1066   -0.2061 C   0  0  0  0  0  0  0  0  0  0  0  0
    1.6130   -0.0268    1.5498 C   0  0  0  0  0  0  0  0  0  0  0  0
    1.6465    1.4659    1.1869 C   0  0  0  0  0  0  0  0  0  0  0  0
    0.3163    1.9248    0.9252 O   0  0  0  0  0  0  0  0  0  0  0  0
   -0.0175    3.2292    0.5267 C   0  0  0  0  0  0  0  0  0  0  0  0
    0.9101    4.0612   -0.1314 C   0  0  0  0  0  0  0  0  0  0  0  0
    0.5569    5.3604   -0.5026 C   0  0  0  0  0  0  0  0  0  0  0  0
   -0.7154    5.8514   -0.2105 C   0  0  0  0  0  0  0  0  0  0  0  0
   -1.6430    5.0410    0.4472 C   0  0  0  0  0  0  0  0  0  0  0  0
   -1.3101    3.7241    0.8030 C   0  0  0  0  0  0  0  0  0  0  0  0
   -2.3005    2.9056    1.5303 C   0  0  0  0  0  0  0  0  0  0  0  0
   -2.8497    3.3833    2.5612 O   0  0  0  0  0  0  0  0  0  0  0  0
   -2.6847    1.6032    1.0546 N   0  0  0  0  0  0  0  0  0  0  0  0
   -3.1221    0.5859    2.0159 C   0  0  0  0  0  0  0  0  0  0  0  0
   -2.7014   -0.8250    1.5674 C   0  0  0  0  0  0  0  0  0  0  0  0
   -3.0265    1.4518   -0.3642 C   0  0  0  0  0  0  0  0  0  0  0  0
   -3.5923    0.0543   -0.6676 C   0  0  0  0  0  0  0  0  0  0  0  0
   -5.1672   -3.9275   -1.5572 H   0  0  0  0  0  0  0  0  0  0  0  0
   -4.0519   -4.2028   -2.9346 H   0  0  0  0  0  0  0  0  0  0  0  0
   -3.5756   -4.7947   -1.3094 H   0  0  0  0  0  0  0  0  0  0  0  0
   -3.0144   -3.2309    0.3501 H   0  0  0  0  0  0  0  0  0  0  0  0
   -4.5522   -2.3406    0.0952 H   0  0  0  0  0  0  0  0  0  0  0  0
   -0.8366   -0.1461   -0.3078 H   0  0  0  0  0  0  0  0  0  0  0  0
   -1.4168   -1.0719   -1.7183 H   0  0  0  0  0  0  0  0  0  0  0  0
   -0.2280   -2.3085    0.8718 H   0  0  0  0  0  0  0  0  0  0  0  0
   -0.9111   -3.2216   -0.4912 H   0  0  0  0  0  0  0  0  0  0  0  0
    0.7199   -2.3795   -2.0547 H   0  0  0  0  0  0  0  0  0  0  0  0
    1.5128   -3.1339   -0.6467 H   0  0  0  0  0  0  0  0  0  0  0  0
    1.1939   -0.0725   -1.0724 H   0  0  0  0  0  0  0  0  0  0  0  0
    2.5951   -0.9858   -1.5521 H   0  0  0  0  0  0  0  0  0  0  0  0
    6.0702   -4.1446   -2.4208 H   0  0  0  0  0  0  0  0  0  0  0  0
    6.7704   -0.1996    0.8293 H   0  0  0  0  0  0  0  0  0  0  0  0
    7.2199    0.1731   -0.8802 H   0  0  0  0  0  0  0  0  0  0  0  0
    5.6150    0.6954   -0.2443 H   0  0  0  0  0  0  0  0  0  0  0  0
    0.5662   -0.3699    1.6273 H   0  0  0  0  0  0  0  0  0  0  0  0
    2.0311   -0.1691    2.5692 H   0  0  0  0  0  0  0  0  0  0  0  0
    2.0588    2.0455    2.0445 H   0  0  0  0  0  0  0  0  0  0  0  0
    2.3072    1.6339    0.3079 H   0  0  0  0  0  0  0  0  0  0  0  0
    1.9039    3.7139   -0.3727 H   0  0  0  0  0  0  0  0  0  0  0  0
    1.2737    5.9880   -1.0170 H   0  0  0  0  0  0  0  0  0  0  0  0
   -0.9801    6.8631   -0.4907 H   0  0  0  0  0  0  0  0  0  0  0  0
   -2.6254    5.4377    0.6732 H   0  0  0  0  0  0  0  0  0  0  0  0
   -2.6883    0.7846    3.0218 H   0  0  0  0  0  0  0  0  0  0  0  0
   -4.2292    0.6341    2.1111 H   0  0  0  0  0  0  0  0  0  0  0  0
   -1.6831   -1.0118    1.9578 H   0  0  0  0  0  0  0  0  0  0  0  0
   -3.3549   -1.5413    2.1116 H   0  0  0  0  0  0  0  0  0  0  0  0
   -2.1263    1.6371   -0.9860 H   0  0  0  0  0  0  0  0  0  0  0  0
   -3.7874    2.2115   -0.6415 H   0  0  0  0  0  0  0  0  0  0  0  0
   -4.6463    0.0190   -0.3119 H   0  0  0  0  0  0  0  0  0  0  0  0
   -3.6212   -0.0900   -1.7702 H   0  0  0  0  0  0  0  0  0  0  0  0
  1  2  1  0
  2  3  1  0
  3  4  1  0
  4  5  1  0
  5  6  1  0
  6  7  1  0
  7  8  1  0
  8  9  1  0
  9 10  1  0
 10 11  2  0
 10 12  1  0
 12 13  1  0
 13 14  1  0
 14 15  2  0
 15 16  1  0
 16 17  1  0
  9 18  1  0
 18 19  1  0
 19 20  1  0
 20 21  1  0
 21 22  2  0
 22 23  1  0
 23 24  2  0
 24 25  1  0
 25 26  2  0
 26 27  1  0
 27 28  2  0
 27 29  1  0
 29 30  1  0
 30 31  1  0
 29 32  1  0
 32 33  1  0
 31  4  1  0
 33  4  1  0
 16 12  2  0
 26 21  1  0
  1 34  1  0
  1 35  1  0
  1 36  1  0
  3 37  1  0
  3 38  1  0
  5 39  1  0
  5 40  1  0
  6 41  1  0
  6 42  1  0
  7 43  1  0
  7 44  1  0
  8 45  1  0
  8 46  1  0
 14 47  1  0
 17 48  1  0
 17 49  1  0
 17 50  1  0
 18 51  1  0
 18 52  1  0
 19 53  1  0
 19 54  1  0
 22 55  1  0
 23 56  1  0
 24 57  1  0
 25 58  1  0
 30 59  1  0
 30 60  1  0
 31 61  1  0
 31 62  1  0
 32 63  1  0
 32 64  1  0
 33 65  1  0
 33 66  1  0
M  END
$$$$
