
     RDKit          3D

 83 86  0  0  0  0  0  0  0  0999 V2000
    7.8930    2.8640    0.3055 C   0  0  0  0  0  0  0  0  0  0  0  0
    7.5698    1.5471    0.7398 O   0  0  0  0  0  0  0  0  0  0  0  0
    7.6560    0.3984   -0.0640 C   0  0  0  0  0  0  0  0  0  0  0  0
    8.0540    0.4655   -1.4153 C   0  0  0  0  0  0  0  0  0  0  0  0
    8.1212   -0.6944   -2.1890 C   0  0  0  0  0  0  0  0  0  0  0  0
    7.7921   -1.9302   -1.6318 C   0  0  0  0  0  0  0  0  0  0  0  0
    7.3977   -2.0121   -0.2951 C   0  0  0  0  0  0  0  0  0  0  0  0
    7.3356   -0.8560    0.5001 C   0  0  0  0  0  0  0  0  0  0  0  0
    6.9040   -0.9636    1.9397 C   0  0  0  0  0  0  0  0  0  0  0  0
    5.5131   -0.5409    2.0856 N   0  0  0  0  0  0  0  0  0  0  0  0
    4.4096   -1.4073    1.7890 C   0  0  0  0  0  0  0  0  0  0  0  0
    4.6115   -2.5485    1.2911 O   0  0  0  0  0  0  0  0  0  0  0  0
    3.0064   -0.9837    2.1143 C   0  0  0  0  0  0  0  0  0  0  0  0
    2.0952   -1.2226    0.9747 N   0  0  0  0  0  0  0  0  0  0  0  0
    0.6718   -1.0946    1.3849 C   0  0  0  0  0  0  0  0  0  0  0  0
    0.0828    0.2750    1.0190 C   0  0  0  0  0  0  0  0  0  0  0  0
    0.0510    0.4905   -0.5311 C   0  0  0  0  0  0  0  0  0  0  0  0
    0.1386    2.0261   -0.8335 C   0  0  0  0  0  0  0  0  0  0  0  0
   -1.1515    2.7613   -0.5547 C   0  0  0  0  0  0  0  0  0  0  0  0
   -1.5798    3.0240    0.6885 C   0  0  0  0  0  0  0  0  0  0  0  0
   -2.9516    3.5802    0.9411 C   0  0  0  0  0  0  0  0  0  0  0  0
   -3.9713    2.6649    0.4214 N   0  0  0  0  0  0  0  0  0  0  0  0
   -5.1551    2.3144    1.1554 C   0  0  0  0  0  0  0  0  0  0  0  0
   -5.2729    2.6517    2.3663 O   0  0  0  0  0  0  0  0  0  0  0  0
   -6.2920    1.6611    0.4715 C   0  0  0  0  0  0  0  0  0  0  0  0
   -7.5884    2.1424    0.7187 C   0  0  0  0  0  0  0  0  0  0  0  0
   -8.6772    1.6464    0.0036 C   0  0  0  0  0  0  0  0  0  0  0  0
   -8.4859    0.6706   -0.9695 C   0  0  0  0  0  0  0  0  0  0  0  0
   -7.2088    0.1593   -1.2098 C   0  0  0  0  0  0  0  0  0  0  0  0
   -6.0988    0.6211   -0.4694 C   0  0  0  0  0  0  0  0  0  0  0  0
   -4.8200    0.0415   -0.5947 O   0  0  0  0  0  0  0  0  0  0  0  0
   -4.3746   -0.7926   -1.6703 C   0  0  0  0  0  0  0  0  0  0  0  0
   -3.1871   -1.6759   -1.2307 C   0  0  0  0  0  0  0  0  0  0  0  0
   -3.6076   -2.9189   -0.3816 C   0  0  0  0  0  0  0  0  0  0  0  0
   -4.5498   -2.5835    0.7898 C   0  0  0  0  0  0  0  0  0  0  0  0
   -4.2170   -4.0308   -1.2491 C   0  0  0  0  0  0  0  0  0  0  0  0
   -2.1837   -0.8804   -0.5123 N   0  0  0  0  0  0  0  0  0  0  0  0
   -1.2095   -0.0744   -1.2074 C   0  0  0  0  0  0  0  0  0  0  0  0
   -1.3710    0.1502   -2.4403 O   0  0  0  0  0  0  0  0  0  0  0  0
    1.2821   -0.2329   -1.1738 C   0  0  0  0  0  0  0  0  0  0  0  0
    2.4548   -0.3750   -0.1930 C   0  0  0  0  0  0  0  0  0  0  0  0
    8.9617    2.9147    0.0091 H   0  0  0  0  0  0  0  0  0  0  0  0
    7.2402    3.1575   -0.5430 H   0  0  0  0  0  0  0  0  0  0  0  0
    7.7240    3.5749    1.1397 H   0  0  0  0  0  0  0  0  0  0  0  0
    8.3162    1.4086   -1.8745 H   0  0  0  0  0  0  0  0  0  0  0  0
    8.4295   -0.6372   -3.2249 H   0  0  0  0  0  0  0  0  0  0  0  0
    7.8447   -2.8266   -2.2335 H   0  0  0  0  0  0  0  0  0  0  0  0
    7.1485   -2.9803    0.1218 H   0  0  0  0  0  0  0  0  0  0  0  0
    7.0293   -2.0003    2.3241 H   0  0  0  0  0  0  0  0  0  0  0  0
    7.5533   -0.3129    2.5656 H   0  0  0  0  0  0  0  0  0  0  0  0
    5.3253    0.4117    2.4695 H   0  0  0  0  0  0  0  0  0  0  0  0
    2.6928   -1.5955    2.9895 H   0  0  0  0  0  0  0  0  0  0  0  0
    2.9771    0.0854    2.4219 H   0  0  0  0  0  0  0  0  0  0  0  0
    0.5331   -1.2670    2.4747 H   0  0  0  0  0  0  0  0  0  0  0  0
    0.0923   -1.8922    0.8773 H   0  0  0  0  0  0  0  0  0  0  0  0
   -0.9112    0.4168    1.4885 H   0  0  0  0  0  0  0  0  0  0  0  0
    0.7351    1.0352    1.5008 H   0  0  0  0  0  0  0  0  0  0  0  0
    0.3635    2.1789   -1.9125 H   0  0  0  0  0  0  0  0  0  0  0  0
    0.9755    2.5022   -0.2760 H   0  0  0  0  0  0  0  0  0  0  0  0
   -1.7734    3.0321   -1.4045 H   0  0  0  0  0  0  0  0  0  0  0  0
   -0.9494    2.8017    1.5436 H   0  0  0  0  0  0  0  0  0  0  0  0
   -3.0570    4.5670    0.4415 H   0  0  0  0  0  0  0  0  0  0  0  0
   -3.0732    3.7340    2.0335 H   0  0  0  0  0  0  0  0  0  0  0  0
   -3.9344    2.4274   -0.5939 H   0  0  0  0  0  0  0  0  0  0  0  0
   -7.7532    2.9277    1.4449 H   0  0  0  0  0  0  0  0  0  0  0  0
   -9.6700    2.0322    0.1945 H   0  0  0  0  0  0  0  0  0  0  0  0
   -9.3318    0.3011   -1.5351 H   0  0  0  0  0  0  0  0  0  0  0  0
   -7.1186   -0.6113   -1.9566 H   0  0  0  0  0  0  0  0  0  0  0  0
   -5.1751   -1.4556   -2.0393 H   0  0  0  0  0  0  0  0  0  0  0  0
   -4.0642   -0.1403   -2.5140 H   0  0  0  0  0  0  0  0  0  0  0  0
   -2.7091   -2.0714   -2.1551 H   0  0  0  0  0  0  0  0  0  0  0  0
   -2.6774   -3.3454    0.0574 H   0  0  0  0  0  0  0  0  0  0  0  0
   -4.1511   -1.7424    1.3908 H   0  0  0  0  0  0  0  0  0  0  0  0
   -5.5644   -2.3209    0.4240 H   0  0  0  0  0  0  0  0  0  0  0  0
   -4.6401   -3.4627    1.4637 H   0  0  0  0  0  0  0  0  0  0  0  0
   -3.5176   -4.3092   -2.0663 H   0  0  0  0  0  0  0  0  0  0  0  0
   -4.3961   -4.9375   -0.6305 H   0  0  0  0  0  0  0  0  0  0  0  0
   -5.1828   -3.7179   -1.6923 H   0  0  0  0  0  0  0  0  0  0  0  0
   -2.0992   -1.0394    0.5121 H   0  0  0  0  0  0  0  0  0  0  0  0
    1.6320    0.2874   -2.0912 H   0  0  0  0  0  0  0  0  0  0  0  0
    1.0018   -1.2623   -1.4925 H   0  0  0  0  0  0  0  0  0  0  0  0
    2.7823    0.6401    0.1254 H   0  0  0  0  0  0  0  0  0  0  0  0
    3.3042   -0.8456   -0.7335 H   0  0  0  0  0  0  0  0  0  0  0  0
  1  2  1  0
  2  3  1  0
  3  4  2  0
  4  5  1  0
  5  6  2  0
  6  7  1  0
  7  8  2  0
  8  9  1  0
  9 10  1  0
 10 11  1  0
 11 12  2  0
 11 13  1  0
 13 14  1  0
 14 15  1  0
 15 16  1  0
 16 17  1  0
 17 18  1  0
 18 19  1  0
 19 20  2  0
 20 21  1  0
 21 22  1  0
 22 23  1  0
 23 24  2  0
 23 25  1  0
 25 26  2  0
 26 27  1  0
 27 28  2  0
 28 29  1  0
 29 30  2  0
 30 31  1  0
 31 32  1  0
 32 33  1  0
 33 34  1  0
 34 35  1  0
 34 36  1  0
 33 37  1  0
 37 38  1  0
 38 39  2  0
 17 40  1  0
 40 41  1  0
  8  3  1  0
 41 14  1  0
 38 17  1  0
 30 25  1  0
  1 42  1  0
  1 43  1  0
  1 44  1  0
  4 45  1  0
  5 46  1  0
  6 47  1  0
  7 48  1  0
  9 49  1  0
  9 50  1  0
 10 51  1  0
 13 52  1  0
 13 53  1  0
 15 54  1  0
 15 55  1  0
 16 56  1  0
 16 57  1  0
 18 58  1  0
 18 59  1  0
 19 60  1  0
 20 61  1  0
 21 62  1  0
 21 63  1  0
 22 64  1  0
 26 65  1  0
 27 66  1  0
 28 67  1  0
 29 68  1  0
 32 69  1  0
 32 70  1  0
 33 71  1  0
 34 72  1  0
 35 73  1  0
 35 74  1  0
 35 75  1  0
 36 76  1  0
 36 77  1  0
 36 78  1  0
 37 79  1  0
 40 80  1  0
 40 81  1  0
 41 82  1  0
 41 83  1  0
M  END
$$$$
