
     RDKit          3D

 64 67  0  0  0  0  0  0  0  0999 V2000
    4.2719   -3.5458   -2.5861 C   0  0  0  0  0  0  0  0  0  0  0  0
    3.5574   -2.3900   -2.0589 N   0  0  0  0  0  0  0  0  0  0  0  0
    3.6824   -1.9900   -0.6845 C   0  0  0  0  0  0  0  0  0  0  0  0
    4.4336   -2.6540    0.0834 O   0  0  0  0  0  0  0  0  0  0  0  0
    2.9060   -0.7880   -0.1494 C   0  0  0  0  0  0  0  0  0  0  0  0
    1.3730   -1.0295   -0.3419 C   0  0  0  0  0  0  0  0  0  0  0  0
    0.8094   -2.2742    0.3751 C   0  0  0  0  0  0  0  0  0  0  0  0
   -0.7289   -2.2649    0.3725 C   0  0  0  0  0  0  0  0  0  0  0  0
   -1.3045   -1.3380    1.4593 C   0  0  0  0  0  0  0  0  0  0  0  0
   -2.6464   -0.8783    1.0833 N   0  0  0  0  0  0  0  0  0  0  0  0
   -3.7467   -1.8014    1.1540 C   0  0  0  0  0  0  0  0  0  0  0  0
   -3.9155   -2.4872    2.1978 O   0  0  0  0  0  0  0  0  0  0  0  0
   -4.6629   -1.9852    0.0131 C   0  0  0  0  0  0  0  0  0  0  0  0
   -5.8586   -2.6694    0.0298 C   0  0  0  0  0  0  0  0  0  0  0  0
   -6.3876   -2.6652   -1.2100 N   0  0  0  0  0  0  0  0  0  0  0  0
   -5.4933   -1.9787   -1.9533 C   0  0  0  0  0  0  0  0  0  0  0  0
   -4.4335   -1.5571   -1.2390 N   0  0  0  0  0  0  0  0  0  0  0  0
   -2.8627    0.5118    0.6485 C   0  0  0  0  0  0  0  0  0  0  0  0
   -2.5356    1.5139    1.7698 C   0  0  0  0  0  0  0  0  0  0  0  0
   -1.2280    2.0683    1.6009 O   0  0  0  0  0  0  0  0  0  0  0  0
   -0.8795    3.0755    0.6799 C   0  0  0  0  0  0  0  0  0  0  0  0
   -1.8266    3.6639   -0.1831 C   0  0  0  0  0  0  0  0  0  0  0  0
   -1.4438    4.6750   -1.0690 C   0  0  0  0  0  0  0  0  0  0  0  0
   -0.1187    5.1116   -1.1060 C   0  0  0  0  0  0  0  0  0  0  0  0
    0.8315    4.5330   -0.2631 C   0  0  0  0  0  0  0  0  0  0  0  0
    0.4596    3.5120    0.6233 C   0  0  0  0  0  0  0  0  0  0  0  0
    1.4805    2.8758    1.4713 C   0  0  0  0  0  0  0  0  0  0  0  0
    1.5839    3.2424    2.6729 O   0  0  0  0  0  0  0  0  0  0  0  0
    2.2813    1.7829    0.9772 N   0  0  0  0  0  0  0  0  0  0  0  0
    2.6148    1.7463   -0.4634 C   0  0  0  0  0  0  0  0  0  0  0  0
    3.3460    0.4734   -0.9233 C   0  0  0  0  0  0  0  0  0  0  0  0
    2.5560    0.6915    1.9306 C   0  0  0  0  0  0  0  0  0  0  0  0
    3.2865   -0.5124    1.3272 C   0  0  0  0  0  0  0  0  0  0  0  0
    3.9703   -4.4599   -2.0327 H   0  0  0  0  0  0  0  0  0  0  0  0
    5.3664   -3.3924   -2.4806 H   0  0  0  0  0  0  0  0  0  0  0  0
    4.0300   -3.6805   -3.6615 H   0  0  0  0  0  0  0  0  0  0  0  0
    2.9384   -1.8567   -2.7083 H   0  0  0  0  0  0  0  0  0  0  0  0
    1.1463   -1.1255   -1.4259 H   0  0  0  0  0  0  0  0  0  0  0  0
    0.8071   -0.1377   -0.0129 H   0  0  0  0  0  0  0  0  0  0  0  0
    1.1636   -2.3385    1.4234 H   0  0  0  0  0  0  0  0  0  0  0  0
    1.1631   -3.1837   -0.1570 H   0  0  0  0  0  0  0  0  0  0  0  0
   -1.0995   -3.2969    0.5555 H   0  0  0  0  0  0  0  0  0  0  0  0
   -1.0963   -1.9576   -0.6320 H   0  0  0  0  0  0  0  0  0  0  0  0
   -0.6419   -0.4664    1.6228 H   0  0  0  0  0  0  0  0  0  0  0  0
   -1.3445   -1.8768    2.4311 H   0  0  0  0  0  0  0  0  0  0  0  0
   -6.3162   -3.1480    0.8858 H   0  0  0  0  0  0  0  0  0  0  0  0
   -5.6123   -1.7958   -3.0131 H   0  0  0  0  0  0  0  0  0  0  0  0
   -3.6043   -1.0349   -1.5994 H   0  0  0  0  0  0  0  0  0  0  0  0
   -3.9240    0.6613    0.3538 H   0  0  0  0  0  0  0  0  0  0  0  0
   -2.2436    0.7144   -0.2515 H   0  0  0  0  0  0  0  0  0  0  0  0
   -3.2921    2.3265    1.8088 H   0  0  0  0  0  0  0  0  0  0  0  0
   -2.5795    1.0043    2.7561 H   0  0  0  0  0  0  0  0  0  0  0  0
   -2.8598    3.3480   -0.1824 H   0  0  0  0  0  0  0  0  0  0  0  0
   -2.1775    5.1226   -1.7273 H   0  0  0  0  0  0  0  0  0  0  0  0
    0.1731    5.8963   -1.7922 H   0  0  0  0  0  0  0  0  0  0  0  0
    1.8590    4.8727   -0.3072 H   0  0  0  0  0  0  0  0  0  0  0  0
    3.2426    2.6283   -0.7138 H   0  0  0  0  0  0  0  0  0  0  0  0
    1.6790    1.8291   -1.0578 H   0  0  0  0  0  0  0  0  0  0  0  0
    3.1707    0.3490   -2.0138 H   0  0  0  0  0  0  0  0  0  0  0  0
    4.4419    0.6270   -0.7977 H   0  0  0  0  0  0  0  0  0  0  0  0
    1.5917    0.3366    2.3550 H   0  0  0  0  0  0  0  0  0  0  0  0
    3.1619    1.0847    2.7757 H   0  0  0  0  0  0  0  0  0  0  0  0
    4.3810   -0.3158    1.3939 H   0  0  0  0  0  0  0  0  0  0  0  0
    3.1045   -1.4020    1.9660 H   0  0  0  0  0  0  0  0  0  0  0  0
  1  2  1  0
  2  3  1  0
  3  4  2  0
  3  5  1  0
  5  6  1  0
  6  7  1  0
  7  8  1  0
  8  9  1  0
  9 10  1  0
 10 11  1  0
 11 12  2  0
 11 13  1  0
 13 14  2  0
 14 15  1  0
 15 16  2  0
 16 17  1  0
 10 18  1  0
 18 19  1  0
 19 20  1  0
 20 21  1  0
 21 22  2  0
 22 23  1  0
 23 24  2  0
 24 25  1  0
 25 26  2  0
 26 27  1  0
 27 28  2  0
 27 29  1  0
 29 30  1  0
 30 31  1  0
 29 32  1  0
 32 33  1  0
 31  5  1  0
 33  5  1  0
 17 13  1  0
 26 21  1  0
  1 34  1  0
  1 35  1  0
  1 36  1  0
  2 37  1  0
  6 38  1  0
  6 39  1  0
  7 40  1  0
  7 41  1  0
  8 42  1  0
  8 43  1  0
  9 44  1  0
  9 45  1  0
 14 46  1  0
 16 47  1  0
 17 48  1  0
 18 49  1  0
 18 50  1  0
 19 51  1  0
 19 52  1  0
 22 53  1  0
 23 54  1  0
 24 55  1  0
 25 56  1  0
 30 57  1  0
 30 58  1  0
 31 59  1  0
 31 60  1  0
 32 61  1  0
 32 62  1  0
 33 63  1  0
 33 64  1  0
M  END
$$$$
