
     RDKit          3D

 65 68  0  0  0  0  0  0  0  0999 V2000
   -3.1437   -1.5367    0.8254 C   0  0  0  0  0  0  0  0  0  0  0  0
   -2.3000   -1.5443   -0.3751 N   0  0  0  0  0  0  0  0  0  0  0  0
   -2.8052   -2.1944   -1.5933 C   0  0  0  0  0  0  0  0  0  0  0  0
   -4.1363   -1.6002   -2.0616 C   0  0  0  0  0  0  0  0  0  0  0  0
   -4.0867   -0.1776   -1.9686 O   0  0  0  0  0  0  0  0  0  0  0  0
   -4.7707    0.7389   -2.7834 C   0  0  0  0  0  0  0  0  0  0  0  0
   -5.6219    0.3294   -3.8307 C   0  0  0  0  0  0  0  0  0  0  0  0
   -6.2163    1.2751   -4.6686 C   0  0  0  0  0  0  0  0  0  0  0  0
   -5.9778    2.6340   -4.4725 C   0  0  0  0  0  0  0  0  0  0  0  0
   -5.1665    3.0553   -3.4187 C   0  0  0  0  0  0  0  0  0  0  0  0
   -4.5789    2.1183   -2.5516 C   0  0  0  0  0  0  0  0  0  0  0  0
   -3.7892    2.6103   -1.3594 C   0  0  0  0  0  0  0  0  0  0  0  0
   -2.2903    2.8066   -1.6675 C   0  0  0  0  0  0  0  0  0  0  0  0
   -1.4166    1.5582   -1.4370 C   0  0  0  0  0  0  0  0  0  0  0  0
   -1.2528    1.2177    0.0636 C   0  0  0  0  0  0  0  0  0  0  0  0
   -0.3328   -0.0026    0.3612 C   0  0  0  0  0  0  0  0  0  0  0  0
    1.1054    0.2807   -0.2093 C   0  0  0  0  0  0  0  0  0  0  0  0
    2.1238   -0.4331    0.5725 N   0  0  0  0  0  0  0  0  0  0  0  0
    3.2666   -1.0356   -0.0775 C   0  0  0  0  0  0  0  0  0  0  0  0
    3.3646   -1.0081   -1.3346 O   0  0  0  0  0  0  0  0  0  0  0  0
    4.3817   -1.6641    0.7062 C   0  0  0  0  0  0  0  0  0  0  0  0
    5.2219   -0.6408    1.2315 O   0  0  0  0  0  0  0  0  0  0  0  0
    6.3723   -0.8748    1.9988 C   0  0  0  0  0  0  0  0  0  0  0  0
    7.1228    0.2285    2.4251 C   0  0  0  0  0  0  0  0  0  0  0  0
    8.2818    0.0464    3.1871 C   0  0  0  0  0  0  0  0  0  0  0  0
    8.6989   -1.2423    3.5304 C   0  0  0  0  0  0  0  0  0  0  0  0
    9.8240   -1.4185    4.2669 F   0  0  0  0  0  0  0  0  0  0  0  0
    7.9555   -2.3497    3.1136 C   0  0  0  0  0  0  0  0  0  0  0  0
    6.7960   -2.1719    2.3510 C   0  0  0  0  0  0  0  0  0  0  0  0
    2.0360   -0.3654    2.0350 C   0  0  0  0  0  0  0  0  0  0  0  0
    0.7463    0.3382    2.4559 C   0  0  0  0  0  0  0  0  0  0  0  0
   -0.3512   -0.2298    1.7729 O   0  0  0  0  0  0  0  0  0  0  0  0
   -0.8842   -1.2789   -0.2748 C   0  0  0  0  0  0  0  0  0  0  0  0
   -0.0773   -2.1678   -0.6671 O   0  0  0  0  0  0  0  0  0  0  0  0
   -3.7024   -2.4930    0.9031 H   0  0  0  0  0  0  0  0  0  0  0  0
   -2.5402   -1.4294    1.7487 H   0  0  0  0  0  0  0  0  0  0  0  0
   -3.8722   -0.7028    0.7685 H   0  0  0  0  0  0  0  0  0  0  0  0
   -2.9264   -3.2837   -1.4111 H   0  0  0  0  0  0  0  0  0  0  0  0
   -2.0712   -2.0733   -2.4197 H   0  0  0  0  0  0  0  0  0  0  0  0
   -4.9729   -1.9811   -1.4386 H   0  0  0  0  0  0  0  0  0  0  0  0
   -4.2857   -1.9330   -3.1086 H   0  0  0  0  0  0  0  0  0  0  0  0
   -5.8429   -0.7112   -4.0089 H   0  0  0  0  0  0  0  0  0  0  0  0
   -6.8633    0.9518   -5.4739 H   0  0  0  0  0  0  0  0  0  0  0  0
   -6.4355    3.3633   -5.1286 H   0  0  0  0  0  0  0  0  0  0  0  0
   -5.0122    4.1156   -3.2649 H   0  0  0  0  0  0  0  0  0  0  0  0
   -4.2030    3.5930   -1.0447 H   0  0  0  0  0  0  0  0  0  0  0  0
   -3.9539    1.9424   -0.4927 H   0  0  0  0  0  0  0  0  0  0  0  0
   -2.1685    3.1459   -2.7203 H   0  0  0  0  0  0  0  0  0  0  0  0
   -1.9004    3.6289   -1.0278 H   0  0  0  0  0  0  0  0  0  0  0  0
   -1.8177    0.6978   -2.0027 H   0  0  0  0  0  0  0  0  0  0  0  0
   -0.4174    1.7807   -1.8671 H   0  0  0  0  0  0  0  0  0  0  0  0
   -0.8368    2.1104    0.5801 H   0  0  0  0  0  0  0  0  0  0  0  0
   -2.2411    1.0379    0.5250 H   0  0  0  0  0  0  0  0  0  0  0  0
    1.3407    1.3667   -0.1524 H   0  0  0  0  0  0  0  0  0  0  0  0
    1.1533    0.0114   -1.2867 H   0  0  0  0  0  0  0  0  0  0  0  0
    3.9700   -2.2829    1.5297 H   0  0  0  0  0  0  0  0  0  0  0  0
    4.9768   -2.3255    0.0401 H   0  0  0  0  0  0  0  0  0  0  0  0
    6.8084    1.2302    2.1611 H   0  0  0  0  0  0  0  0  0  0  0  0
    8.8569    0.9047    3.5094 H   0  0  0  0  0  0  0  0  0  0  0  0
    8.2784   -3.3477    3.3802 H   0  0  0  0  0  0  0  0  0  0  0  0
    6.2386   -3.0456    2.0423 H   0  0  0  0  0  0  0  0  0  0  0  0
    2.9077    0.1894    2.4443 H   0  0  0  0  0  0  0  0  0  0  0  0
    2.0265   -1.3938    2.4543 H   0  0  0  0  0  0  0  0  0  0  0  0
    0.8092    1.4336    2.2702 H   0  0  0  0  0  0  0  0  0  0  0  0
    0.5979    0.1984    3.5470 H   0  0  0  0  0  0  0  0  0  0  0  0
  1  2  1  0
  2  3  1  0
  3  4  1  0
  4  5  1  0
  5  6  1  0
  6  7  2  0
  7  8  1  0
  8  9  2  0
  9 10  1  0
 10 11  2  0
 11 12  1  0
 12 13  1  0
 13 14  1  0
 14 15  1  0
 15 16  1  0
 16 17  1  0
 17 18  1  0
 18 19  1  0
 19 20  2  0
 19 21  1  0
 21 22  1  0
 22 23  1  0
 23 24  2  0
 24 25  1  0
 25 26  2  0
 26 27  1  0
 26 28  1  0
 28 29  2  0
 18 30  1  0
 30 31  1  0
 31 32  1  0
 16 33  1  0
 33 34  2  0
 33  2  1  0
 11  6  1  0
 32 16  1  0
 29 23  1  0
  1 35  1  0
  1 36  1  0
  1 37  1  0
  3 38  1  0
  3 39  1  0
  4 40  1  0
  4 41  1  0
  7 42  1  0
  8 43  1  0
  9 44  1  0
 10 45  1  0
 12 46  1  0
 12 47  1  0
 13 48  1  0
 13 49  1  0
 14 50  1  0
 14 51  1  0
 15 52  1  0
 15 53  1  0
 17 54  1  0
 17 55  1  0
 21 56  1  0
 21 57  1  0
 24 58  1  0
 25 59  1  0
 28 60  1  0
 29 61  1  0
 30 62  1  0
 30 63  1  0
 31 64  1  0
 31 65  1  0
M  END
$$$$
