
     RDKit          3D

 87 90  0  0  0  0  0  0  0  0999 V2000
   -6.3196    1.9888    1.4226 C   0  0  0  0  0  0  0  0  0  0  0  0
   -5.3812    1.1319    2.2642 C   0  0  0  0  0  0  0  0  0  0  0  0
   -4.6166    0.2165    1.4109 N   0  0  0  0  0  0  0  0  0  0  0  0
   -5.2776   -0.9661    0.8347 C   0  0  0  0  0  0  0  0  0  0  0  0
   -4.5872   -2.2631    1.2612 C   0  0  0  0  0  0  0  0  0  0  0  0
   -3.4025   -2.4577    0.4911 O   0  0  0  0  0  0  0  0  0  0  0  0
   -2.4512   -3.4470    0.7644 C   0  0  0  0  0  0  0  0  0  0  0  0
   -1.9941   -3.6707    2.0751 C   0  0  0  0  0  0  0  0  0  0  0  0
   -1.0262   -4.6433    2.3281 C   0  0  0  0  0  0  0  0  0  0  0  0
   -0.5104   -5.4076    1.2824 C   0  0  0  0  0  0  0  0  0  0  0  0
   -0.9628   -5.2022   -0.0239 C   0  0  0  0  0  0  0  0  0  0  0  0
   -1.9223   -4.2128   -0.2939 C   0  0  0  0  0  0  0  0  0  0  0  0
   -2.4159   -4.0434   -1.6740 C   0  0  0  0  0  0  0  0  0  0  0  0
   -2.8713   -5.0513   -2.2909 O   0  0  0  0  0  0  0  0  0  0  0  0
   -2.3744   -2.7747   -2.3464 N   0  0  0  0  0  0  0  0  0  0  0  0
   -1.3956   -1.7380   -1.9992 C   0  0  0  0  0  0  0  0  0  0  0  0
   -0.0207   -2.1811   -2.4262 C   0  0  0  0  0  0  0  0  0  0  0  0
    0.1345   -2.7050   -3.5638 O   0  0  0  0  0  0  0  0  0  0  0  0
    1.1059   -1.9925   -1.5562 N   0  0  0  0  0  0  0  0  0  0  0  0
    2.3760   -2.6903   -1.7548 C   0  0  0  0  0  0  0  0  0  0  0  0
    3.5438   -1.7185   -1.6267 C   0  0  0  0  0  0  0  0  0  0  0  0
    3.6060   -1.2094   -0.2966 O   0  0  0  0  0  0  0  0  0  0  0  0
    4.5408   -0.2640    0.1477 C   0  0  0  0  0  0  0  0  0  0  0  0
    4.4555    0.1826    1.4697 C   0  0  0  0  0  0  0  0  0  0  0  0
    5.3546    1.1339    1.9570 C   0  0  0  0  0  0  0  0  0  0  0  0
    6.3631    1.6558    1.1266 C   0  0  0  0  0  0  0  0  0  0  0  0
    7.3310    2.7078    1.6364 C   0  0  0  0  0  0  0  0  0  0  0  0
    6.5912    3.9987    2.0047 C   0  0  0  0  0  0  0  0  0  0  0  0
    8.1507    2.1866    2.8239 C   0  0  0  0  0  0  0  0  0  0  0  0
    6.4528    1.1991   -0.1988 C   0  0  0  0  0  0  0  0  0  0  0  0
    5.5524    0.2475   -0.6857 C   0  0  0  0  0  0  0  0  0  0  0  0
   -1.7455   -0.3943   -2.6665 C   0  0  0  0  0  0  0  0  0  0  0  0
   -3.1501    0.0638   -2.3546 C   0  0  0  0  0  0  0  0  0  0  0  0
   -4.0571   -0.1711   -3.2000 O   0  0  0  0  0  0  0  0  0  0  0  0
   -3.4973    0.7725   -1.1515 N   0  0  0  0  0  0  0  0  0  0  0  0
   -2.6079    0.9991   -0.0072 C   0  0  0  0  0  0  0  0  0  0  0  0
   -2.3461    2.5042    0.1675 C   0  0  0  0  0  0  0  0  0  0  0  0
   -1.6451    3.0677   -1.0409 C   0  0  0  0  0  0  0  0  0  0  0  0
   -0.2617    2.8799   -1.2082 C   0  0  0  0  0  0  0  0  0  0  0  0
    0.3688    3.2975   -2.3837 C   0  0  0  0  0  0  0  0  0  0  0  0
   -0.3755    3.9110   -3.3964 C   0  0  0  0  0  0  0  0  0  0  0  0
   -1.7474    4.1137   -3.2310 C   0  0  0  0  0  0  0  0  0  0  0  0
   -2.3839    3.6919   -2.0596 C   0  0  0  0  0  0  0  0  0  0  0  0
   -3.2018    0.4254    1.2575 C   0  0  0  0  0  0  0  0  0  0  0  0
   -2.4397    0.2014    2.2374 O   0  0  0  0  0  0  0  0  0  0  0  0
   -7.0066    1.3451    0.8357 H   0  0  0  0  0  0  0  0  0  0  0  0
   -5.7347    2.6222    0.7200 H   0  0  0  0  0  0  0  0  0  0  0  0
   -6.9249    2.6437    2.0826 H   0  0  0  0  0  0  0  0  0  0  0  0
   -5.9700    0.5512    3.0046 H   0  0  0  0  0  0  0  0  0  0  0  0
   -4.7004    1.8009    2.8338 H   0  0  0  0  0  0  0  0  0  0  0  0
   -6.3352   -1.0147    1.1740 H   0  0  0  0  0  0  0  0  0  0  0  0
   -5.3002   -0.8971   -0.2715 H   0  0  0  0  0  0  0  0  0  0  0  0
   -5.2681   -3.1223    1.0736 H   0  0  0  0  0  0  0  0  0  0  0  0
   -4.3669   -2.2155    2.3481 H   0  0  0  0  0  0  0  0  0  0  0  0
   -2.3590   -3.0730    2.8963 H   0  0  0  0  0  0  0  0  0  0  0  0
   -0.6751   -4.8043    3.3390 H   0  0  0  0  0  0  0  0  0  0  0  0
    0.2352   -6.1631    1.4872 H   0  0  0  0  0  0  0  0  0  0  0  0
   -0.5611   -5.8090   -0.8243 H   0  0  0  0  0  0  0  0  0  0  0  0
   -2.8466   -2.7193   -3.2776 H   0  0  0  0  0  0  0  0  0  0  0  0
   -1.3979   -1.5950   -0.9044 H   0  0  0  0  0  0  0  0  0  0  0  0
    0.9661   -1.4579   -0.6683 H   0  0  0  0  0  0  0  0  0  0  0  0
    2.4210   -3.1611   -2.7599 H   0  0  0  0  0  0  0  0  0  0  0  0
    2.4720   -3.4959   -0.9954 H   0  0  0  0  0  0  0  0  0  0  0  0
    4.4867   -2.2595   -1.8599 H   0  0  0  0  0  0  0  0  0  0  0  0
    3.4110   -0.8839   -2.3498 H   0  0  0  0  0  0  0  0  0  0  0  0
    3.6834   -0.2053    2.1217 H   0  0  0  0  0  0  0  0  0  0  0  0
    5.2609    1.4622    2.9824 H   0  0  0  0  0  0  0  0  0  0  0  0
    8.0548    2.9642    0.8297 H   0  0  0  0  0  0  0  0  0  0  0  0
    6.0174    4.3696    1.1292 H   0  0  0  0  0  0  0  0  0  0  0  0
    7.3147    4.7879    2.3022 H   0  0  0  0  0  0  0  0  0  0  0  0
    5.8904    3.8291    2.8473 H   0  0  0  0  0  0  0  0  0  0  0  0
    8.6947    1.2626    2.5306 H   0  0  0  0  0  0  0  0  0  0  0  0
    7.4991    1.9649    3.6971 H   0  0  0  0  0  0  0  0  0  0  0  0
    8.8994    2.9500    3.1321 H   0  0  0  0  0  0  0  0  0  0  0  0
    7.2180    1.5837   -0.8610 H   0  0  0  0  0  0  0  0  0  0  0  0
    5.6542   -0.0851   -1.7092 H   0  0  0  0  0  0  0  0  0  0  0  0
   -1.6430   -0.4960   -3.7693 H   0  0  0  0  0  0  0  0  0  0  0  0
   -1.0174    0.3838   -2.3588 H   0  0  0  0  0  0  0  0  0  0  0  0
   -4.4539    1.1947   -1.1099 H   0  0  0  0  0  0  0  0  0  0  0  0
   -1.6290    0.5039   -0.1599 H   0  0  0  0  0  0  0  0  0  0  0  0
   -1.7098    2.6699    1.0628 H   0  0  0  0  0  0  0  0  0  0  0  0
   -3.3045    3.0414    0.3424 H   0  0  0  0  0  0  0  0  0  0  0  0
    0.3214    2.3789   -0.4438 H   0  0  0  0  0  0  0  0  0  0  0  0
    1.4282    3.1338   -2.5176 H   0  0  0  0  0  0  0  0  0  0  0  0
    0.1118    4.2289   -4.3085 H   0  0  0  0  0  0  0  0  0  0  0  0
   -2.3237    4.5804   -4.0185 H   0  0  0  0  0  0  0  0  0  0  0  0
   -3.4506    3.8319   -1.9570 H   0  0  0  0  0  0  0  0  0  0  0  0
  1  2  1  0
  2  3  1  0
  3  4  1  0
  4  5  1  0
  5  6  1  0
  6  7  1  0
  7  8  2  0
  8  9  1  0
  9 10  2  0
 10 11  1  0
 11 12  2  0
 12 13  1  0
 13 14  2  0
 13 15  1  0
 15 16  1  0
 16 17  1  0
 17 18  2  0
 17 19  1  0
 19 20  1  0
 20 21  1  0
 21 22  1  0
 22 23  1  0
 23 24  2  0
 24 25  1  0
 25 26  2  0
 26 27  1  0
 27 28  1  0
 27 29  1  0
 26 30  1  0
 30 31  2  0
 16 32  1  0
 32 33  1  0
 33 34  2  0
 33 35  1  0
 35 36  1  0
 36 37  1  0
 37 38  1  0
 38 39  2  0
 39 40  1  0
 40 41  2  0
 41 42  1  0
 42 43  2  0
 36 44  1  0
 44 45  2  0
 44  3  1  0
 12  7  1  0
 31 23  1  0
 43 38  1  0
  1 46  1  0
  1 47  1  0
  1 48  1  0
  2 49  1  0
  2 50  1  0
  4 51  1  0
  4 52  1  0
  5 53  1  0
  5 54  1  0
  8 55  1  0
  9 56  1  0
 10 57  1  0
 11 58  1  0
 15 59  1  0
 16 60  1  0
 19 61  1  0
 20 62  1  0
 20 63  1  0
 21 64  1  0
 21 65  1  0
 24 66  1  0
 25 67  1  0
 27 68  1  0
 28 69  1  0
 28 70  1  0
 28 71  1  0
 29 72  1  0
 29 73  1  0
 29 74  1  0
 30 75  1  0
 31 76  1  0
 32 77  1  0
 32 78  1  0
 35 79  1  0
 36 80  1  0
 37 81  1  0
 37 82  1  0
 39 83  1  0
 40 84  1  0
 41 85  1  0
 42 86  1  0
 43 87  1  0
M  END
$$$$
