
     RDKit          3D

 61 64  0  0  0  0  0  0  0  0999 V2000
    4.0651    1.9415    0.8602 O   0  0  0  0  0  0  0  0  0  0  0  0
    3.9807    0.7955    0.3348 C   0  0  0  0  0  0  0  0  0  0  0  0
    5.1071    0.3667   -0.5337 C   0  0  0  0  0  0  0  0  0  0  0  0
    6.2723    1.0881   -0.7314 C   0  0  0  0  0  0  0  0  0  0  0  0
    7.0084    0.3268   -1.6138 C   0  0  0  0  0  0  0  0  0  0  0  0
    6.3069   -0.7779   -1.9170 N   0  0  0  0  0  0  0  0  0  0  0  0
    5.1535   -0.7617   -1.2708 N   0  0  0  0  0  0  0  0  0  0  0  0
    2.8078   -0.0236    0.6050 N   0  0  0  0  0  0  0  0  0  0  0  0
    2.8294   -1.4732    0.2673 C   0  0  0  0  0  0  0  0  0  0  0  0
    1.6652   -2.3397    0.8004 C   0  0  0  0  0  0  0  0  0  0  0  0
    0.3899   -2.1778   -0.0456 C   0  0  0  0  0  0  0  0  0  0  0  0
   -0.8379   -2.9019    0.5689 C   0  0  0  0  0  0  0  0  0  0  0  0
   -2.2156   -2.1938    0.3216 C   0  0  0  0  0  0  0  0  0  0  0  0
   -3.3530   -3.1419    0.8061 C   0  0  0  0  0  0  0  0  0  0  0  0
   -3.3944   -4.3314    0.0580 O   0  0  0  0  0  0  0  0  0  0  0  0
   -2.2708   -0.8942    1.2045 C   0  0  0  0  0  0  0  0  0  0  0  0
   -3.3326    0.1229    0.7666 C   0  0  0  0  0  0  0  0  0  0  0  0
   -3.2147    0.3398   -0.6743 N   0  0  0  0  0  0  0  0  0  0  0  0
   -3.4917   -0.8466   -1.4848 C   0  0  0  0  0  0  0  0  0  0  0  0
   -2.4046   -1.8881   -1.2100 C   0  0  0  0  0  0  0  0  0  0  0  0
   -2.3545    1.3780   -1.1981 C   0  0  0  0  0  0  0  0  0  0  0  0
   -1.7464    1.2031   -2.2892 O   0  0  0  0  0  0  0  0  0  0  0  0
   -2.1997    2.6780   -0.5233 C   0  0  0  0  0  0  0  0  0  0  0  0
   -3.0337    3.7411   -0.8994 C   0  0  0  0  0  0  0  0  0  0  0  0
   -2.8418    5.0143   -0.3554 C   0  0  0  0  0  0  0  0  0  0  0  0
   -1.8062    5.2384    0.5559 C   0  0  0  0  0  0  0  0  0  0  0  0
   -0.9685    4.1863    0.9346 C   0  0  0  0  0  0  0  0  0  0  0  0
   -1.1628    2.9034    0.4052 C   0  0  0  0  0  0  0  0  0  0  0  0
   -0.3620    1.8521    0.8517 O   0  0  0  0  0  0  0  0  0  0  0  0
    0.9525    1.6171    0.3567 C   0  0  0  0  0  0  0  0  0  0  0  0
    1.6758    0.6385    1.2923 C   0  0  0  0  0  0  0  0  0  0  0  0
    6.5477    2.0394   -0.2965 H   0  0  0  0  0  0  0  0  0  0  0  0
    7.9859    0.5634   -2.0109 H   0  0  0  0  0  0  0  0  0  0  0  0
    6.6101   -1.5409   -2.5617 H   0  0  0  0  0  0  0  0  0  0  0  0
    2.8558   -1.5880   -0.8387 H   0  0  0  0  0  0  0  0  0  0  0  0
    3.7656   -1.9129    0.6798 H   0  0  0  0  0  0  0  0  0  0  0  0
    1.4884   -2.1464    1.8796 H   0  0  0  0  0  0  0  0  0  0  0  0
    1.9737   -3.4067    0.7327 H   0  0  0  0  0  0  0  0  0  0  0  0
    0.1918   -1.1038   -0.2026 H   0  0  0  0  0  0  0  0  0  0  0  0
    0.5821   -2.5998   -1.0575 H   0  0  0  0  0  0  0  0  0  0  0  0
   -0.6995   -3.0211    1.6675 H   0  0  0  0  0  0  0  0  0  0  0  0
   -0.8553   -3.9304    0.1462 H   0  0  0  0  0  0  0  0  0  0  0  0
   -3.2326   -3.3680    1.8928 H   0  0  0  0  0  0  0  0  0  0  0  0
   -4.3378   -2.6415    0.7016 H   0  0  0  0  0  0  0  0  0  0  0  0
   -2.9216   -5.0282    0.5854 H   0  0  0  0  0  0  0  0  0  0  0  0
   -2.4432   -1.1539    2.2722 H   0  0  0  0  0  0  0  0  0  0  0  0
   -1.3021   -0.3755    1.1889 H   0  0  0  0  0  0  0  0  0  0  0  0
   -3.2077    1.0709    1.3316 H   0  0  0  0  0  0  0  0  0  0  0  0
   -4.3470   -0.2623    1.0065 H   0  0  0  0  0  0  0  0  0  0  0  0
   -4.4919   -1.2580   -1.2291 H   0  0  0  0  0  0  0  0  0  0  0  0
   -3.5156   -0.5921   -2.5675 H   0  0  0  0  0  0  0  0  0  0  0  0
   -1.4765   -1.4877   -1.6621 H   0  0  0  0  0  0  0  0  0  0  0  0
   -2.6367   -2.8164   -1.7750 H   0  0  0  0  0  0  0  0  0  0  0  0
   -3.8246    3.5861   -1.6238 H   0  0  0  0  0  0  0  0  0  0  0  0
   -3.4892    5.8307   -0.6484 H   0  0  0  0  0  0  0  0  0  0  0  0
   -1.6550    6.2267    0.9725 H   0  0  0  0  0  0  0  0  0  0  0  0
   -0.1764    4.3624    1.6522 H   0  0  0  0  0  0  0  0  0  0  0  0
    1.5178    2.5726    0.3065 H   0  0  0  0  0  0  0  0  0  0  0  0
    0.8795    1.1904   -0.6671 H   0  0  0  0  0  0  0  0  0  0  0  0
    2.0451    1.1887    2.1848 H   0  0  0  0  0  0  0  0  0  0  0  0
    0.9453   -0.0779    1.6973 H   0  0  0  0  0  0  0  0  0  0  0  0
  1  2  2  0
  2  3  1  0
  3  4  1  0
  4  5  2  0
  5  6  1  0
  6  7  1  0
  2  8  1  0
  8  9  1  0
  9 10  1  0
 10 11  1  0
 11 12  1  0
 12 13  1  0
 13 14  1  0
 14 15  1  0
 13 16  1  0
 16 17  1  0
 17 18  1  0
 18 19  1  0
 19 20  1  0
 18 21  1  0
 21 22  2  0
 21 23  1  0
 23 24  2  0
 24 25  1  0
 25 26  2  0
 26 27  1  0
 27 28  2  0
 28 29  1  0
 29 30  1  0
 30 31  1  0
  7  3  2  0
 31  8  1  0
 20 13  1  0
 28 23  1  0
  4 32  1  0
  5 33  1  0
  6 34  1  0
  9 35  1  0
  9 36  1  0
 10 37  1  0
 10 38  1  0
 11 39  1  0
 11 40  1  0
 12 41  1  0
 12 42  1  0
 14 43  1  0
 14 44  1  0
 15 45  1  0
 16 46  1  0
 16 47  1  0
 17 48  1  0
 17 49  1  0
 19 50  1  0
 19 51  1  0
 20 52  1  0
 20 53  1  0
 24 54  1  0
 25 55  1  0
 26 56  1  0
 27 57  1  0
 30 58  1  0
 30 59  1  0
 31 60  1  0
 31 61  1  0
M  END
$$$$
