
     RDKit          3D

 77 80  0  0  0  0  0  0  0  0999 V2000
    3.3902   -1.4735   -0.8868 O   0  0  0  0  0  0  0  0  0  0  0  0
    3.3246   -0.4217   -0.1952 C   0  0  0  0  0  0  0  0  0  0  0  0
    2.3154   -0.3275    0.9084 C   0  0  0  0  0  0  0  0  0  0  0  0
    1.1091    0.4401    0.4400 C   0  0  0  0  0  0  0  0  0  0  0  0
    1.0476    1.8258    0.6057 C   0  0  0  0  0  0  0  0  0  0  0  0
   -0.0504    2.5463    0.1396 C   0  0  0  0  0  0  0  0  0  0  0  0
   -1.1247    1.9048   -0.5142 C   0  0  0  0  0  0  0  0  0  0  0  0
   -1.0363    0.4912   -0.7322 C   0  0  0  0  0  0  0  0  0  0  0  0
    0.0722   -0.2162   -0.2323 C   0  0  0  0  0  0  0  0  0  0  0  0
   -2.0795   -0.3160   -1.4928 C   0  0  0  0  0  0  0  0  0  0  0  0
   -3.0544   -1.0031   -0.5907 N   0  0  0  0  0  0  0  0  0  0  0  0
   -3.9133   -1.9158   -1.3905 C   0  0  0  0  0  0  0  0  0  0  0  0
   -4.1706   -3.1942   -0.6370 C   0  0  0  0  0  0  0  0  0  0  0  0
   -3.1008   -3.9132   -0.0748 C   0  0  0  0  0  0  0  0  0  0  0  0
   -3.3370   -5.1130    0.6037 C   0  0  0  0  0  0  0  0  0  0  0  0
   -4.6383   -5.6105    0.7151 C   0  0  0  0  0  0  0  0  0  0  0  0
   -5.7051   -4.9124    0.1426 C   0  0  0  0  0  0  0  0  0  0  0  0
   -5.4739   -3.7122   -0.5370 C   0  0  0  0  0  0  0  0  0  0  0  0
   -3.8439    0.0570    0.0637 C   0  0  0  0  0  0  0  0  0  0  0  0
   -5.0331   -0.3145    0.9185 C   0  0  0  0  0  0  0  0  0  0  0  0
   -5.0526   -1.4236    1.5137 O   0  0  0  0  0  0  0  0  0  0  0  0
   -6.1278    0.6201    1.1293 N   0  0  0  0  0  0  0  0  0  0  0  0
   -6.0257    2.0910    1.3124 C   0  0  0  0  0  0  0  0  0  0  0  0
   -5.1365    2.7347    0.2509 C   0  0  0  0  0  0  0  0  0  0  0  0
   -4.9710    4.2398    0.1855 C   0  0  0  0  0  0  0  0  0  0  0  0
   -3.8948    4.5694   -0.8906 C   0  0  0  0  0  0  0  0  0  0  0  0
   -2.4679    4.0453   -0.5667 C   0  0  0  0  0  0  0  0  0  0  0  0
   -2.2624    2.6552   -0.9167 O   0  0  0  0  0  0  0  0  0  0  0  0
    4.1799    0.6938   -0.4821 N   0  0  0  0  0  0  0  0  0  0  0  0
    5.0843    0.7271   -1.6315 C   0  0  0  0  0  0  0  0  0  0  0  0
    6.4499    1.3057   -1.2368 C   0  0  0  0  0  0  0  0  0  0  0  0
    7.1576    0.5147   -0.1231 C   0  0  0  0  0  0  0  0  0  0  0  0
    7.5843   -0.8884   -0.5702 C   0  0  0  0  0  0  0  0  0  0  0  0
    8.3889   -1.5226    0.4706 N   0  0  0  0  0  0  0  0  0  0  0  0
    7.9383   -2.2119    1.5308 C   0  0  0  0  0  0  0  0  0  0  0  0
    9.0273   -2.5648    2.2966 C   0  0  0  0  0  0  0  0  0  0  0  0
   10.1550   -2.0889    1.7276 N   0  0  0  0  0  0  0  0  0  0  0  0
    9.7259   -1.4532    0.6171 C   0  0  0  0  0  0  0  0  0  0  0  0
    2.7753    0.1716    1.7882 H   0  0  0  0  0  0  0  0  0  0  0  0
    2.0160   -1.3471    1.2358 H   0  0  0  0  0  0  0  0  0  0  0  0
    1.8531    2.3538    1.1009 H   0  0  0  0  0  0  0  0  0  0  0  0
   -0.0472    3.6150    0.2970 H   0  0  0  0  0  0  0  0  0  0  0  0
    0.1374   -1.2882   -0.3833 H   0  0  0  0  0  0  0  0  0  0  0  0
   -2.5973    0.3339   -2.2349 H   0  0  0  0  0  0  0  0  0  0  0  0
   -1.5323   -1.0733   -2.0987 H   0  0  0  0  0  0  0  0  0  0  0  0
   -4.8699   -1.4250   -1.6859 H   0  0  0  0  0  0  0  0  0  0  0  0
   -3.4281   -2.2156   -2.3469 H   0  0  0  0  0  0  0  0  0  0  0  0
   -2.0860   -3.5438   -0.1612 H   0  0  0  0  0  0  0  0  0  0  0  0
   -2.5105   -5.6586    1.0408 H   0  0  0  0  0  0  0  0  0  0  0  0
   -4.8193   -6.5394    1.2402 H   0  0  0  0  0  0  0  0  0  0  0  0
   -6.7115   -5.3027    0.2237 H   0  0  0  0  0  0  0  0  0  0  0  0
   -6.3111   -3.1855   -0.9782 H   0  0  0  0  0  0  0  0  0  0  0  0
   -4.2283    0.6865   -0.7544 H   0  0  0  0  0  0  0  0  0  0  0  0
   -3.1614    0.5918    0.7548 H   0  0  0  0  0  0  0  0  0  0  0  0
   -7.0448    0.1965    1.3978 H   0  0  0  0  0  0  0  0  0  0  0  0
   -7.0419    2.5367    1.2495 H   0  0  0  0  0  0  0  0  0  0  0  0
   -5.6193    2.3065    2.3247 H   0  0  0  0  0  0  0  0  0  0  0  0
   -5.4698    2.3923   -0.7531 H   0  0  0  0  0  0  0  0  0  0  0  0
   -4.1334    2.4252    0.5383 H   0  0  0  0  0  0  0  0  0  0  0  0
   -4.6604    4.6403    1.1754 H   0  0  0  0  0  0  0  0  0  0  0  0
   -5.9380    4.7080   -0.0990 H   0  0  0  0  0  0  0  0  0  0  0  0
   -3.8426    5.6762   -0.9763 H   0  0  0  0  0  0  0  0  0  0  0  0
   -4.2130    4.1837   -1.8837 H   0  0  0  0  0  0  0  0  0  0  0  0
   -2.2815    4.1950    0.5193 H   0  0  0  0  0  0  0  0  0  0  0  0
   -1.7330    4.6603   -1.1301 H   0  0  0  0  0  0  0  0  0  0  0  0
    4.0703    1.5667    0.0836 H   0  0  0  0  0  0  0  0  0  0  0  0
    5.2167   -0.2823   -2.0732 H   0  0  0  0  0  0  0  0  0  0  0  0
    4.6359    1.3723   -2.4168 H   0  0  0  0  0  0  0  0  0  0  0  0
    6.3058    2.3522   -0.8903 H   0  0  0  0  0  0  0  0  0  0  0  0
    7.1022    1.3456   -2.1361 H   0  0  0  0  0  0  0  0  0  0  0  0
    6.5019    0.4388    0.7710 H   0  0  0  0  0  0  0  0  0  0  0  0
    8.0649    1.0825    0.1779 H   0  0  0  0  0  0  0  0  0  0  0  0
    8.1768   -0.8242   -1.5092 H   0  0  0  0  0  0  0  0  0  0  0  0
    6.6897   -1.5160   -0.7697 H   0  0  0  0  0  0  0  0  0  0  0  0
    6.8985   -2.4309    1.7376 H   0  0  0  0  0  0  0  0  0  0  0  0
    9.0013   -3.1262    3.2208 H   0  0  0  0  0  0  0  0  0  0  0  0
   10.3845   -0.9376   -0.0699 H   0  0  0  0  0  0  0  0  0  0  0  0
  1  2  2  0
  2  3  1  0
  3  4  1  0
  4  5  2  0
  5  6  1  0
  6  7  2  0
  7  8  1  0
  8  9  2  0
  8 10  1  0
 10 11  1  0
 11 12  1  0
 12 13  1  0
 13 14  2  0
 14 15  1  0
 15 16  2  0
 16 17  1  0
 17 18  2  0
 11 19  1  0
 19 20  1  0
 20 21  2  0
 20 22  1  0
 22 23  1  0
 23 24  1  0
 24 25  1  0
 25 26  1  0
 26 27  1  0
 27 28  1  0
  2 29  1  0
 29 30  1  0
 30 31  1  0
 31 32  1  0
 32 33  1  0
 33 34  1  0
 34 35  1  0
 35 36  2  0
 36 37  1  0
 37 38  2  0
  9  4  1  0
 18 13  1  0
 38 34  1  0
 28  7  1  0
  3 39  1  0
  3 40  1  0
  5 41  1  0
  6 42  1  0
  9 43  1  0
 10 44  1  0
 10 45  1  0
 12 46  1  0
 12 47  1  0
 14 48  1  0
 15 49  1  0
 16 50  1  0
 17 51  1  0
 18 52  1  0
 19 53  1  0
 19 54  1  0
 22 55  1  0
 23 56  1  0
 23 57  1  0
 24 58  1  0
 24 59  1  0
 25 60  1  0
 25 61  1  0
 26 62  1  0
 26 63  1  0
 27 64  1  0
 27 65  1  0
 29 66  1  0
 30 67  1  0
 30 68  1  0
 31 69  1  0
 31 70  1  0
 32 71  1  0
 32 72  1  0
 33 73  1  0
 33 74  1  0
 35 75  1  0
 36 76  1  0
 38 77  1  0
M  END
$$$$
