
     RDKit          3D

 69 72  0  0  0  0  0  0  0  0999 V2000
   -3.0861    2.7865    2.3691 C   0  0  0  0  0  0  0  0  0  0  0  0
   -1.8297    2.1832    1.7471 C   0  0  0  0  0  0  0  0  0  0  0  0
   -1.4971    2.8553    0.4089 C   0  0  0  0  0  0  0  0  0  0  0  0
   -0.2052    2.3118   -0.2281 C   0  0  0  0  0  0  0  0  0  0  0  0
   -0.3542    0.9283   -0.7081 N   0  0  0  0  0  0  0  0  0  0  0  0
   -1.1861    0.6851   -1.9053 C   0  0  0  0  0  0  0  0  0  0  0  0
   -2.2143   -0.4297   -1.6917 C   0  0  0  0  0  0  0  0  0  0  0  0
   -2.8406   -0.2821   -0.4207 O   0  0  0  0  0  0  0  0  0  0  0  0
   -3.9262   -1.0387    0.0441 C   0  0  0  0  0  0  0  0  0  0  0  0
   -5.0511   -0.3228    0.4731 C   0  0  0  0  0  0  0  0  0  0  0  0
   -6.1615   -0.9812    1.0002 C   0  0  0  0  0  0  0  0  0  0  0  0
   -6.1588   -2.3691    1.1160 C   0  0  0  0  0  0  0  0  0  0  0  0
   -5.0432   -3.1034    0.7118 C   0  0  0  0  0  0  0  0  0  0  0  0
   -3.9091   -2.4605    0.1771 C   0  0  0  0  0  0  0  0  0  0  0  0
   -2.7320   -3.3239   -0.2320 C   0  0  0  0  0  0  0  0  0  0  0  0
   -1.4332   -2.9584    0.5164 C   0  0  0  0  0  0  0  0  0  0  0  0
   -0.1781   -3.3586   -0.2850 C   0  0  0  0  0  0  0  0  0  0  0  0
    1.0898   -2.5515    0.0869 C   0  0  0  0  0  0  0  0  0  0  0  0
    1.2365   -1.1523   -0.6025 C   0  0  0  0  0  0  0  0  0  0  0  0
    2.6901   -0.6241   -0.3462 C   0  0  0  0  0  0  0  0  0  0  0  0
    3.0304    0.4050   -1.3330 N   0  0  0  0  0  0  0  0  0  0  0  0
    3.7673    1.5909   -0.9814 C   0  0  0  0  0  0  0  0  0  0  0  0
    3.5691    2.6568   -1.6263 O   0  0  0  0  0  0  0  0  0  0  0  0
    4.7864    1.5808    0.0855 C   0  0  0  0  0  0  0  0  0  0  0  0
    5.4804    2.6751    0.5620 C   0  0  0  0  0  0  0  0  0  0  0  0
    6.3245    2.1321    1.5087 C   0  0  0  0  0  0  0  0  0  0  0  0
    7.2734    2.8905    2.3768 C   0  0  0  0  0  0  0  0  0  0  0  0
    6.1236    0.8031    1.5920 N   0  0  0  0  0  0  0  0  0  0  0  0
    5.2027    0.5082    0.7201 O   0  0  0  0  0  0  0  0  0  0  0  0
    2.6779    0.1665   -2.7325 C   0  0  0  0  0  0  0  0  0  0  0  0
    1.9948   -1.1949   -2.8738 C   0  0  0  0  0  0  0  0  0  0  0  0
    0.8997   -1.2940   -1.9856 O   0  0  0  0  0  0  0  0  0  0  0  0
    0.2991   -0.1297    0.0389 C   0  0  0  0  0  0  0  0  0  0  0  0
    0.2308   -0.1011    1.2989 O   0  0  0  0  0  0  0  0  0  0  0  0
   -3.3097    2.2710    3.3278 H   0  0  0  0  0  0  0  0  0  0  0  0
   -2.9366    3.8700    2.5706 H   0  0  0  0  0  0  0  0  0  0  0  0
   -3.9543    2.6581    1.6878 H   0  0  0  0  0  0  0  0  0  0  0  0
   -2.0052    1.0975    1.5972 H   0  0  0  0  0  0  0  0  0  0  0  0
   -0.9810    2.3104    2.4538 H   0  0  0  0  0  0  0  0  0  0  0  0
   -1.3584    3.9447    0.5837 H   0  0  0  0  0  0  0  0  0  0  0  0
   -2.3515    2.7393   -0.2899 H   0  0  0  0  0  0  0  0  0  0  0  0
    0.6344    2.3916    0.4979 H   0  0  0  0  0  0  0  0  0  0  0  0
    0.0702    2.9601   -1.0883 H   0  0  0  0  0  0  0  0  0  0  0  0
   -1.7353    1.6089   -2.1878 H   0  0  0  0  0  0  0  0  0  0  0  0
   -0.5455    0.4523   -2.7787 H   0  0  0  0  0  0  0  0  0  0  0  0
   -2.9806   -0.3886   -2.4952 H   0  0  0  0  0  0  0  0  0  0  0  0
   -1.6825   -1.3871   -1.7637 H   0  0  0  0  0  0  0  0  0  0  0  0
   -5.0610    0.7558    0.3981 H   0  0  0  0  0  0  0  0  0  0  0  0
   -7.0234   -0.4137    1.3260 H   0  0  0  0  0  0  0  0  0  0  0  0
   -7.0190   -2.8802    1.5326 H   0  0  0  0  0  0  0  0  0  0  0  0
   -5.0663   -4.1816    0.8276 H   0  0  0  0  0  0  0  0  0  0  0  0
   -2.6280   -3.2670   -1.3338 H   0  0  0  0  0  0  0  0  0  0  0  0
   -2.9418   -4.3976   -0.0288 H   0  0  0  0  0  0  0  0  0  0  0  0
   -1.4195   -1.8844    0.7473 H   0  0  0  0  0  0  0  0  0  0  0  0
   -1.4200   -3.4759    1.5004 H   0  0  0  0  0  0  0  0  0  0  0  0
    0.0189   -4.4335   -0.0781 H   0  0  0  0  0  0  0  0  0  0  0  0
   -0.3529   -3.2955   -1.3781 H   0  0  0  0  0  0  0  0  0  0  0  0
    1.9517   -3.1795   -0.2305 H   0  0  0  0  0  0  0  0  0  0  0  0
    1.1715   -2.4623    1.1924 H   0  0  0  0  0  0  0  0  0  0  0  0
    2.7782   -0.2273    0.6895 H   0  0  0  0  0  0  0  0  0  0  0  0
    3.4348   -1.4455   -0.4366 H   0  0  0  0  0  0  0  0  0  0  0  0
    5.3896    3.7119    0.2628 H   0  0  0  0  0  0  0  0  0  0  0  0
    7.6778    3.7667    1.8274 H   0  0  0  0  0  0  0  0  0  0  0  0
    8.1180    2.2348    2.6755 H   0  0  0  0  0  0  0  0  0  0  0  0
    6.7427    3.2409    3.2872 H   0  0  0  0  0  0  0  0  0  0  0  0
    1.9863    0.9631   -3.0829 H   0  0  0  0  0  0  0  0  0  0  0  0
    3.5952    0.1841   -3.3588 H   0  0  0  0  0  0  0  0  0  0  0  0
    2.7158   -2.0250   -2.6984 H   0  0  0  0  0  0  0  0  0  0  0  0
    1.6177   -1.2992   -3.9127 H   0  0  0  0  0  0  0  0  0  0  0  0
  1  2  1  0
  2  3  1  0
  3  4  1  0
  4  5  1  0
  5  6  1  0
  6  7  1  0
  7  8  1  0
  8  9  1  0
  9 10  2  0
 10 11  1  0
 11 12  2  0
 12 13  1  0
 13 14  2  0
 14 15  1  0
 15 16  1  0
 16 17  1  0
 17 18  1  0
 18 19  1  0
 19 20  1  0
 20 21  1  0
 21 22  1  0
 22 23  2  0
 22 24  1  0
 24 25  2  0
 25 26  1  0
 26 27  1  0
 26 28  2  0
 28 29  1  0
 21 30  1  0
 30 31  1  0
 31 32  1  0
 19 33  1  0
 33 34  2  0
 33  5  1  0
 14  9  1  0
 32 19  1  0
 29 24  1  0
  1 35  1  0
  1 36  1  0
  1 37  1  0
  2 38  1  0
  2 39  1  0
  3 40  1  0
  3 41  1  0
  4 42  1  0
  4 43  1  0
  6 44  1  0
  6 45  1  0
  7 46  1  0
  7 47  1  0
 10 48  1  0
 11 49  1  0
 12 50  1  0
 13 51  1  0
 15 52  1  0
 15 53  1  0
 16 54  1  0
 16 55  1  0
 17 56  1  0
 17 57  1  0
 18 58  1  0
 18 59  1  0
 20 60  1  0
 20 61  1  0
 25 62  1  0
 27 63  1  0
 27 64  1  0
 27 65  1  0
 30 66  1  0
 30 67  1  0
 31 68  1  0
 31 69  1  0
M  END
$$$$
