
     RDKit          3D

 77 79  0  0  0  0  0  0  0  0999 V2000
    6.9317    1.9828   -1.1883 C   0  0  0  0  0  0  0  0  0  0  0  0
    5.6252    1.4099   -1.6641 C   0  0  0  0  0  0  0  0  0  0  0  0
    4.9666    0.4322   -0.8979 C   0  0  0  0  0  0  0  0  0  0  0  0
    3.7318   -0.0947   -1.3195 C   0  0  0  0  0  0  0  0  0  0  0  0
    3.0382   -1.0656   -0.5852 O   0  0  0  0  0  0  0  0  0  0  0  0
    3.4753   -1.6074    0.6591 C   0  0  0  0  0  0  0  0  0  0  0  0
    2.4311   -2.5898    1.1757 C   0  0  0  0  0  0  0  0  0  0  0  0
    1.1532   -1.9088    1.3591 N   0  0  0  0  0  0  0  0  0  0  0  0
    0.8704   -1.1057    2.5132 C   0  0  0  0  0  0  0  0  0  0  0  0
    1.5842   -1.2105    3.5482 O   0  0  0  0  0  0  0  0  0  0  0  0
   -0.3127   -0.1725    2.5086 C   0  0  0  0  0  0  0  0  0  0  0  0
   -1.5574   -0.8694    3.0954 C   0  0  0  0  0  0  0  0  0  0  0  0
   -2.1037   -1.9017    2.1552 C   0  0  0  0  0  0  0  0  0  0  0  0
   -1.6228   -3.0663    2.1535 O   0  0  0  0  0  0  0  0  0  0  0  0
   -3.1271   -1.5522    1.2197 N   0  0  0  0  0  0  0  0  0  0  0  0
   -2.8079   -1.3248   -0.1911 C   0  0  0  0  0  0  0  0  0  0  0  0
   -3.8210   -2.0562   -1.1121 C   0  0  0  0  0  0  0  0  0  0  0  0
   -3.2395   -3.3018   -1.8183 C   0  0  0  0  0  0  0  0  0  0  0  0
   -4.2527   -3.8536   -2.8295 C   0  0  0  0  0  0  0  0  0  0  0  0
   -2.8481   -4.3995   -0.8219 C   0  0  0  0  0  0  0  0  0  0  0  0
   -2.7667    0.1619   -0.4666 C   0  0  0  0  0  0  0  0  0  0  0  0
   -1.8178    0.6201   -1.1576 O   0  0  0  0  0  0  0  0  0  0  0  0
   -3.8063    1.0534   -0.0099 N   0  0  0  0  0  0  0  0  0  0  0  0
   -5.1675    0.8783   -0.5208 C   0  0  0  0  0  0  0  0  0  0  0  0
   -3.5172    2.1228    0.9642 C   0  0  0  0  0  0  0  0  0  0  0  0
   -2.3395    3.0063    0.5347 C   0  0  0  0  0  0  0  0  0  0  0  0
   -1.1386    2.4681    1.0856 O   0  0  0  0  0  0  0  0  0  0  0  0
    0.1720    2.7161    0.6480 C   0  0  0  0  0  0  0  0  0  0  0  0
    0.4460    3.2539   -0.6270 C   0  0  0  0  0  0  0  0  0  0  0  0
    1.7632    3.4750   -1.0341 C   0  0  0  0  0  0  0  0  0  0  0  0
    2.8194    3.1742   -0.1785 C   0  0  0  0  0  0  0  0  0  0  0  0
    2.5666    2.6395    1.0847 C   0  0  0  0  0  0  0  0  0  0  0  0
    1.2480    2.4009    1.5106 C   0  0  0  0  0  0  0  0  0  0  0  0
    1.0210    1.9698    2.9128 C   0  0  0  0  0  0  0  0  0  0  0  0
    1.7412    2.4668    3.8211 O   0  0  0  0  0  0  0  0  0  0  0  0
   -0.0037    1.0339    3.2856 N   0  0  0  0  0  0  0  0  0  0  0  0
    3.1637    0.3621   -2.5114 C   0  0  0  0  0  0  0  0  0  0  0  0
    3.8088    1.3354   -3.2764 C   0  0  0  0  0  0  0  0  0  0  0  0
    5.0338    1.8645   -2.8599 C   0  0  0  0  0  0  0  0  0  0  0  0
    5.7964    3.1044   -3.8504 Cl  0  0  0  0  0  0  0  0  0  0  0  0
    7.7102    1.8460   -1.9673 H   0  0  0  0  0  0  0  0  0  0  0  0
    6.8094    3.0661   -0.9779 H   0  0  0  0  0  0  0  0  0  0  0  0
    7.2851    1.4868   -0.2599 H   0  0  0  0  0  0  0  0  0  0  0  0
    5.4169    0.0902    0.0236 H   0  0  0  0  0  0  0  0  0  0  0  0
    4.4394   -2.1404    0.5174 H   0  0  0  0  0  0  0  0  0  0  0  0
    3.6134   -0.7902    1.4005 H   0  0  0  0  0  0  0  0  0  0  0  0
    2.7691   -3.0437    2.1326 H   0  0  0  0  0  0  0  0  0  0  0  0
    2.3059   -3.4114    0.4382 H   0  0  0  0  0  0  0  0  0  0  0  0
    0.4724   -1.9176    0.5672 H   0  0  0  0  0  0  0  0  0  0  0  0
   -0.5310    0.1157    1.4604 H   0  0  0  0  0  0  0  0  0  0  0  0
   -1.3110   -1.3420    4.0722 H   0  0  0  0  0  0  0  0  0  0  0  0
   -2.3476   -0.1124    3.2887 H   0  0  0  0  0  0  0  0  0  0  0  0
   -4.0244   -1.1754    1.6006 H   0  0  0  0  0  0  0  0  0  0  0  0
   -1.7867   -1.7176   -0.3952 H   0  0  0  0  0  0  0  0  0  0  0  0
   -4.1719   -1.3621   -1.9046 H   0  0  0  0  0  0  0  0  0  0  0  0
   -4.7211   -2.3530   -0.5308 H   0  0  0  0  0  0  0  0  0  0  0  0
   -2.3307   -3.0000   -2.3846 H   0  0  0  0  0  0  0  0  0  0  0  0
   -5.1828   -4.1756   -2.3146 H   0  0  0  0  0  0  0  0  0  0  0  0
   -3.8237   -4.7210   -3.3727 H   0  0  0  0  0  0  0  0  0  0  0  0
   -4.5078   -3.0765   -3.5819 H   0  0  0  0  0  0  0  0  0  0  0  0
   -3.7008   -4.6476   -0.1524 H   0  0  0  0  0  0  0  0  0  0  0  0
   -1.9820   -4.0781   -0.2100 H   0  0  0  0  0  0  0  0  0  0  0  0
   -2.5414   -5.3218   -1.3617 H   0  0  0  0  0  0  0  0  0  0  0  0
   -5.8467    1.6849   -0.1715 H   0  0  0  0  0  0  0  0  0  0  0  0
   -5.5852   -0.0869   -0.1708 H   0  0  0  0  0  0  0  0  0  0  0  0
   -5.1588    0.9006   -1.6323 H   0  0  0  0  0  0  0  0  0  0  0  0
   -3.3066    1.6674    1.9548 H   0  0  0  0  0  0  0  0  0  0  0  0
   -4.4063    2.7760    1.1023 H   0  0  0  0  0  0  0  0  0  0  0  0
   -2.4765    4.0360    0.9320 H   0  0  0  0  0  0  0  0  0  0  0  0
   -2.3173    3.0624   -0.5705 H   0  0  0  0  0  0  0  0  0  0  0  0
   -0.3430    3.5042   -1.3188 H   0  0  0  0  0  0  0  0  0  0  0  0
    1.9636    3.8864   -2.0159 H   0  0  0  0  0  0  0  0  0  0  0  0
    3.8385    3.3649   -0.4881 H   0  0  0  0  0  0  0  0  0  0  0  0
    3.4027    2.4195    1.7369 H   0  0  0  0  0  0  0  0  0  0  0  0
   -0.3276    1.0704    4.2798 H   0  0  0  0  0  0  0  0  0  0  0  0
    2.2158   -0.0382   -2.8457 H   0  0  0  0  0  0  0  0  0  0  0  0
    3.3514    1.6825   -4.1944 H   0  0  0  0  0  0  0  0  0  0  0  0
  1  2  1  0
  2  3  2  0
  3  4  1  0
  4  5  1  0
  5  6  1  0
  6  7  1  0
  7  8  1  0
  8  9  1  0
  9 10  2  0
  9 11  1  0
 11 12  1  0
 12 13  1  0
 13 14  2  0
 13 15  1  0
 15 16  1  0
 16 17  1  0
 17 18  1  0
 18 19  1  0
 18 20  1  0
 16 21  1  0
 21 22  2  0
 21 23  1  0
 23 24  1  0
 23 25  1  0
 25 26  1  0
 26 27  1  0
 27 28  1  0
 28 29  2  0
 29 30  1  0
 30 31  2  0
 31 32  1  0
 32 33  2  0
 33 34  1  0
 34 35  2  0
 34 36  1  0
  4 37  2  0
 37 38  1  0
 38 39  2  0
 39 40  1  0
 39  2  1  0
 36 11  1  0
 33 28  1  0
  1 41  1  0
  1 42  1  0
  1 43  1  0
  3 44  1  0
  6 45  1  0
  6 46  1  0
  7 47  1  0
  7 48  1  0
  8 49  1  0
 11 50  1  0
 12 51  1  0
 12 52  1  0
 15 53  1  0
 16 54  1  0
 17 55  1  0
 17 56  1  0
 18 57  1  0
 19 58  1  0
 19 59  1  0
 19 60  1  0
 20 61  1  0
 20 62  1  0
 20 63  1  0
 24 64  1  0
 24 65  1  0
 24 66  1  0
 25 67  1  0
 25 68  1  0
 26 69  1  0
 26 70  1  0
 29 71  1  0
 30 72  1  0
 31 73  1  0
 32 74  1  0
 36 75  1  0
 37 76  1  0
 38 77  1  0
M  END
$$$$
