
     RDKit          3D

 72 75  0  0  0  0  0  0  0  0999 V2000
   -8.3445    1.0843    2.5836 C   0  0  0  0  0  0  0  0  0  0  0  0
   -7.1428    1.0046    1.7018 C   0  0  0  0  0  0  0  0  0  0  0  0
   -7.1199    1.1554    0.3326 C   0  0  0  0  0  0  0  0  0  0  0  0
   -5.7948    0.9359    0.0099 C   0  0  0  0  0  0  0  0  0  0  0  0
   -5.2221    0.9222   -1.3457 C   0  0  0  0  0  0  0  0  0  0  0  0
   -5.9422    1.2115   -2.3366 O   0  0  0  0  0  0  0  0  0  0  0  0
   -3.8531    0.5614   -1.5536 N   0  0  0  0  0  0  0  0  0  0  0  0
   -2.7967    1.3971   -0.9521 C   0  0  0  0  0  0  0  0  0  0  0  0
   -1.6356    1.6930   -1.9280 C   0  0  0  0  0  0  0  0  0  0  0  0
   -0.4458    0.7043   -1.8842 C   0  0  0  0  0  0  0  0  0  0  0  0
    0.3172    0.7467   -0.5382 C   0  0  0  0  0  0  0  0  0  0  0  0
    1.6503   -0.0746   -0.4391 C   0  0  0  0  0  0  0  0  0  0  0  0
    2.1913    0.0880    1.0239 C   0  0  0  0  0  0  0  0  0  0  0  0
    3.7251    0.1599    1.0781 C   0  0  0  0  0  0  0  0  0  0  0  0
    4.2374    1.3505    0.3519 N   0  0  0  0  0  0  0  0  0  0  0  0
    5.6894    1.2362    0.1001 C   0  0  0  0  0  0  0  0  0  0  0  0
    6.4620    1.3940    1.3786 C   0  0  0  0  0  0  0  0  0  0  0  0
    7.2692    0.3605    1.8722 C   0  0  0  0  0  0  0  0  0  0  0  0
    8.0054    0.5629    3.0422 C   0  0  0  0  0  0  0  0  0  0  0  0
    7.9353    1.7916    3.7031 C   0  0  0  0  0  0  0  0  0  0  0  0
    7.1227    2.7995    3.1834 C   0  0  0  0  0  0  0  0  0  0  0  0
    6.4157    2.5837    2.0423 N   0  0  0  0  0  0  0  0  0  0  0  0
    3.4824    1.6704   -0.8900 C   0  0  0  0  0  0  0  0  0  0  0  0
    2.7223    0.4593   -1.4516 C   0  0  0  0  0  0  0  0  0  0  0  0
    1.4124   -1.5656   -0.6833 C   0  0  0  0  0  0  0  0  0  0  0  0
    2.4053   -2.3358   -0.8155 O   0  0  0  0  0  0  0  0  0  0  0  0
    0.1235   -2.1184   -0.6269 O   0  0  0  0  0  0  0  0  0  0  0  0
   -0.1160   -3.5066   -0.8662 C   0  0  0  0  0  0  0  0  0  0  0  0
   -1.6142   -3.8689   -0.7771 C   0  0  0  0  0  0  0  0  0  0  0  0
   -2.0699   -3.7429    0.5463 O   0  0  0  0  0  0  0  0  0  0  0  0
   -2.5225   -3.0624   -1.7462 C   0  0  0  0  0  0  0  0  0  0  0  0
   -1.8390   -2.8445   -2.9610 O   0  0  0  0  0  0  0  0  0  0  0  0
   -3.0033   -1.7257   -1.1267 C   0  0  0  0  0  0  0  0  0  0  0  0
   -3.5628   -0.7397   -2.1664 C   0  0  0  0  0  0  0  0  0  0  0  0
   -5.0914    0.6710    1.1282 N   0  0  0  0  0  0  0  0  0  0  0  0
   -5.9295    0.7262    2.1215 O   0  0  0  0  0  0  0  0  0  0  0  0
   -9.1809    1.5923    2.0602 H   0  0  0  0  0  0  0  0  0  0  0  0
   -8.0909    1.6497    3.5045 H   0  0  0  0  0  0  0  0  0  0  0  0
   -8.6632    0.0589    2.8631 H   0  0  0  0  0  0  0  0  0  0  0  0
   -7.9524    1.3371   -0.3368 H   0  0  0  0  0  0  0  0  0  0  0  0
   -3.2360    2.3803   -0.6693 H   0  0  0  0  0  0  0  0  0  0  0  0
   -2.4526    0.9490   -0.0015 H   0  0  0  0  0  0  0  0  0  0  0  0
   -2.0345    1.7357   -2.9640 H   0  0  0  0  0  0  0  0  0  0  0  0
   -1.2415    2.7112   -1.7130 H   0  0  0  0  0  0  0  0  0  0  0  0
    0.2197    1.0052   -2.7119 H   0  0  0  0  0  0  0  0  0  0  0  0
   -0.7726   -0.3225   -2.1181 H   0  0  0  0  0  0  0  0  0  0  0  0
    0.5323    1.8109   -0.3052 H   0  0  0  0  0  0  0  0  0  0  0  0
   -0.3562    0.3758    0.2600 H   0  0  0  0  0  0  0  0  0  0  0  0
    1.8353   -0.7385    1.6792 H   0  0  0  0  0  0  0  0  0  0  0  0
    1.8143    1.0280    1.4887 H   0  0  0  0  0  0  0  0  0  0  0  0
    4.0330    0.2264    2.1446 H   0  0  0  0  0  0  0  0  0  0  0  0
    4.1458   -0.7841    0.6631 H   0  0  0  0  0  0  0  0  0  0  0  0
    6.0368    2.0530   -0.5724 H   0  0  0  0  0  0  0  0  0  0  0  0
    5.9300    0.2732   -0.4059 H   0  0  0  0  0  0  0  0  0  0  0  0
    7.3362   -0.5860    1.3508 H   0  0  0  0  0  0  0  0  0  0  0  0
    8.6404   -0.2214    3.4295 H   0  0  0  0  0  0  0  0  0  0  0  0
    8.5084    1.9620    4.6055 H   0  0  0  0  0  0  0  0  0  0  0  0
    7.0630    3.7592    3.6791 H   0  0  0  0  0  0  0  0  0  0  0  0
    2.7596    2.4820   -0.6594 H   0  0  0  0  0  0  0  0  0  0  0  0
    4.1402    2.0753   -1.6925 H   0  0  0  0  0  0  0  0  0  0  0  0
    2.2926    0.7268   -2.4343 H   0  0  0  0  0  0  0  0  0  0  0  0
    3.4847   -0.3193   -1.6728 H   0  0  0  0  0  0  0  0  0  0  0  0
    0.2726   -3.7790   -1.8708 H   0  0  0  0  0  0  0  0  0  0  0  0
    0.4473   -4.1068   -0.1184 H   0  0  0  0  0  0  0  0  0  0  0  0
   -1.6986   -4.9392   -1.0828 H   0  0  0  0  0  0  0  0  0  0  0  0
   -1.6716   -4.4964    1.0610 H   0  0  0  0  0  0  0  0  0  0  0  0
   -3.4339   -3.6819   -1.9340 H   0  0  0  0  0  0  0  0  0  0  0  0
   -2.5041   -2.9435   -3.6924 H   0  0  0  0  0  0  0  0  0  0  0  0
   -3.8063   -1.9389   -0.3854 H   0  0  0  0  0  0  0  0  0  0  0  0
   -2.1793   -1.2556   -0.5640 H   0  0  0  0  0  0  0  0  0  0  0  0
   -2.8535   -0.5887   -3.0023 H   0  0  0  0  0  0  0  0  0  0  0  0
   -4.4848   -1.1751   -2.6093 H   0  0  0  0  0  0  0  0  0  0  0  0
  1  2  1  0
  2  3  2  0
  3  4  1  0
  4  5  1  0
  5  6  2  0
  5  7  1  0
  7  8  1  0
  8  9  1  0
  9 10  1  0
 10 11  1  0
 11 12  1  0
 12 13  1  0
 13 14  1  0
 14 15  1  0
 15 16  1  0
 16 17  1  0
 17 18  2  0
 18 19  1  0
 19 20  2  0
 20 21  1  0
 21 22  2  0
 15 23  1  0
 23 24  1  0
 12 25  1  0
 25 26  2  0
 25 27  1  0
 27 28  1  0
 28 29  1  0
 29 30  1  0
 29 31  1  0
 31 32  1  0
 31 33  1  0
 33 34  1  0
  4 35  2  0
 35 36  1  0
 36  2  1  0
 34  7  1  0
 24 12  1  0
 22 17  1  0
  1 37  1  0
  1 38  1  0
  1 39  1  0
  3 40  1  0
  8 41  1  0
  8 42  1  0
  9 43  1  0
  9 44  1  0
 10 45  1  0
 10 46  1  0
 11 47  1  0
 11 48  1  0
 13 49  1  0
 13 50  1  0
 14 51  1  0
 14 52  1  0
 16 53  1  0
 16 54  1  0
 18 55  1  0
 19 56  1  0
 20 57  1  0
 21 58  1  0
 23 59  1  0
 23 60  1  0
 24 61  1  0
 24 62  1  0
 28 63  1  0
 28 64  1  0
 29 65  1  0
 30 66  1  0
 31 67  1  0
 32 68  1  0
 33 69  1  0
 33 70  1  0
 34 71  1  0
 34 72  1  0
M  END
$$$$
