
     RDKit          3D

 87 90  0  0  0  0  0  0  0  0999 V2000
   -7.8643   -0.0402    0.9922 C   0  0  0  0  0  0  0  0  0  0  0  0
   -6.5922   -0.2867    0.1863 C   0  0  0  0  0  0  0  0  0  0  0  0
   -5.5576   -0.8818    1.0393 N   0  0  0  0  0  0  0  0  0  0  0  0
   -5.4124   -2.3425    1.1069 C   0  0  0  0  0  0  0  0  0  0  0  0
   -4.0183   -2.7482    0.6416 C   0  0  0  0  0  0  0  0  0  0  0  0
   -3.9762   -4.1380    0.3366 O   0  0  0  0  0  0  0  0  0  0  0  0
   -3.0002   -4.7113   -0.4950 C   0  0  0  0  0  0  0  0  0  0  0  0
   -3.4278   -5.6417   -1.4537 C   0  0  0  0  0  0  0  0  0  0  0  0
   -2.5166   -6.2361   -2.3259 C   0  0  0  0  0  0  0  0  0  0  0  0
   -1.1631   -5.9100   -2.2507 C   0  0  0  0  0  0  0  0  0  0  0  0
   -0.7145   -5.0049   -1.2849 C   0  0  0  0  0  0  0  0  0  0  0  0
   -1.6201   -4.3944   -0.4011 C   0  0  0  0  0  0  0  0  0  0  0  0
   -1.0902   -3.6091    0.7270 C   0  0  0  0  0  0  0  0  0  0  0  0
   -1.1697   -4.1035    1.8877 O   0  0  0  0  0  0  0  0  0  0  0  0
   -0.5516   -2.2818    0.5692 N   0  0  0  0  0  0  0  0  0  0  0  0
   -0.1984   -1.6505   -0.7118 C   0  0  0  0  0  0  0  0  0  0  0  0
    1.1479   -0.9718   -0.6107 C   0  0  0  0  0  0  0  0  0  0  0  0
    1.4979   -0.4251    0.4704 O   0  0  0  0  0  0  0  0  0  0  0  0
    1.9984   -0.8878   -1.7635 N   0  0  0  0  0  0  0  0  0  0  0  0
    3.2210   -0.0846   -1.7746 C   0  0  0  0  0  0  0  0  0  0  0  0
    4.3354   -0.7776   -0.9867 C   0  0  0  0  0  0  0  0  0  0  0  0
    5.4972    0.0528   -0.9312 O   0  0  0  0  0  0  0  0  0  0  0  0
    5.6545    1.2020   -0.1309 C   0  0  0  0  0  0  0  0  0  0  0  0
    4.6886    1.5770    0.8249 C   0  0  0  0  0  0  0  0  0  0  0  0
    4.8801    2.7016    1.6264 C   0  0  0  0  0  0  0  0  0  0  0  0
    6.0409    3.4568    1.5050 C   0  0  0  0  0  0  0  0  0  0  0  0
    7.0119    3.0991    0.5683 C   0  0  0  0  0  0  0  0  0  0  0  0
    6.8212    1.9913   -0.2811 C   0  0  0  0  0  0  0  0  0  0  0  0
    7.9006    1.5857   -1.2773 C   0  0  0  0  0  0  0  0  0  0  0  0
    8.4720    2.7869   -2.0461 C   0  0  0  0  0  0  0  0  0  0  0  0
    9.0102    0.8108   -0.5621 C   0  0  0  0  0  0  0  0  0  0  0  0
   -1.2888   -0.6576   -1.1769 C   0  0  0  0  0  0  0  0  0  0  0  0
   -1.7715    0.2706   -0.0937 C   0  0  0  0  0  0  0  0  0  0  0  0
   -0.9365    0.9606    0.5570 O   0  0  0  0  0  0  0  0  0  0  0  0
   -3.1797    0.4231    0.1492 N   0  0  0  0  0  0  0  0  0  0  0  0
   -3.7111    0.8807    1.4388 C   0  0  0  0  0  0  0  0  0  0  0  0
   -4.2296    2.3258    1.3363 C   0  0  0  0  0  0  0  0  0  0  0  0
   -3.1165    3.2773    0.9782 C   0  0  0  0  0  0  0  0  0  0  0  0
   -2.2674    3.7787    1.9816 C   0  0  0  0  0  0  0  0  0  0  0  0
   -1.1987    4.6174    1.6442 C   0  0  0  0  0  0  0  0  0  0  0  0
   -0.9701    4.9576    0.3076 C   0  0  0  0  0  0  0  0  0  0  0  0
   -1.8059    4.4577   -0.6948 C   0  0  0  0  0  0  0  0  0  0  0  0
   -2.8718    3.6147   -0.3647 C   0  0  0  0  0  0  0  0  0  0  0  0
   -4.7927   -0.0547    1.9353 C   0  0  0  0  0  0  0  0  0  0  0  0
   -5.0135   -0.1258    3.1766 O   0  0  0  0  0  0  0  0  0  0  0  0
   -8.2470   -1.0029    1.4018 H   0  0  0  0  0  0  0  0  0  0  0  0
   -8.6404    0.4044    0.3337 H   0  0  0  0  0  0  0  0  0  0  0  0
   -7.6564    0.6639    1.8265 H   0  0  0  0  0  0  0  0  0  0  0  0
   -6.2318    0.6692   -0.2489 H   0  0  0  0  0  0  0  0  0  0  0  0
   -6.8269   -0.9626   -0.6672 H   0  0  0  0  0  0  0  0  0  0  0  0
   -5.5749   -2.6876    2.1505 H   0  0  0  0  0  0  0  0  0  0  0  0
   -6.1720   -2.8442    0.4694 H   0  0  0  0  0  0  0  0  0  0  0  0
   -3.7790   -2.1821   -0.2755 H   0  0  0  0  0  0  0  0  0  0  0  0
   -3.2966   -2.5007    1.4459 H   0  0  0  0  0  0  0  0  0  0  0  0
   -4.4776   -5.8927   -1.5277 H   0  0  0  0  0  0  0  0  0  0  0  0
   -2.8591   -6.9501   -3.0682 H   0  0  0  0  0  0  0  0  0  0  0  0
   -0.4587   -6.3773   -2.9269 H   0  0  0  0  0  0  0  0  0  0  0  0
    0.3474   -4.8063   -1.2024 H   0  0  0  0  0  0  0  0  0  0  0  0
   -0.4569   -1.7146    1.4426 H   0  0  0  0  0  0  0  0  0  0  0  0
   -0.1137   -2.4270   -1.4967 H   0  0  0  0  0  0  0  0  0  0  0  0
    1.6824   -1.3226   -2.6580 H   0  0  0  0  0  0  0  0  0  0  0  0
    3.5613    0.0545   -2.8250 H   0  0  0  0  0  0  0  0  0  0  0  0
    3.0069    0.9239   -1.3595 H   0  0  0  0  0  0  0  0  0  0  0  0
    4.0103   -1.0570    0.0370 H   0  0  0  0  0  0  0  0  0  0  0  0
    4.5999   -1.7183   -1.5150 H   0  0  0  0  0  0  0  0  0  0  0  0
    3.7886    0.9972    0.9678 H   0  0  0  0  0  0  0  0  0  0  0  0
    4.1287    2.9808    2.3508 H   0  0  0  0  0  0  0  0  0  0  0  0
    6.1984    4.3157    2.1425 H   0  0  0  0  0  0  0  0  0  0  0  0
    7.9147    3.6947    0.5123 H   0  0  0  0  0  0  0  0  0  0  0  0
    7.4651    0.9100   -2.0511 H   0  0  0  0  0  0  0  0  0  0  0  0
    9.1374    3.4103   -1.4065 H   0  0  0  0  0  0  0  0  0  0  0  0
    9.0703    2.4333   -2.9111 H   0  0  0  0  0  0  0  0  0  0  0  0
    7.6475    3.4167   -2.4394 H   0  0  0  0  0  0  0  0  0  0  0  0
    9.8313    0.5776   -1.2713 H   0  0  0  0  0  0  0  0  0  0  0  0
    9.4164    1.3927    0.3003 H   0  0  0  0  0  0  0  0  0  0  0  0
    8.6030   -0.1496   -0.1759 H   0  0  0  0  0  0  0  0  0  0  0  0
   -0.9174   -0.0526   -2.0348 H   0  0  0  0  0  0  0  0  0  0  0  0
   -2.1466   -1.2414   -1.5684 H   0  0  0  0  0  0  0  0  0  0  0  0
   -3.8429    0.2386   -0.6389 H   0  0  0  0  0  0  0  0  0  0  0  0
   -2.8952    0.8591    2.1984 H   0  0  0  0  0  0  0  0  0  0  0  0
   -4.6741    2.6301    2.3101 H   0  0  0  0  0  0  0  0  0  0  0  0
   -5.0411    2.3972    0.5809 H   0  0  0  0  0  0  0  0  0  0  0  0
   -2.4315    3.5114    3.0170 H   0  0  0  0  0  0  0  0  0  0  0  0
   -0.5456    4.9991    2.4172 H   0  0  0  0  0  0  0  0  0  0  0  0
   -0.1461    5.6103    0.0511 H   0  0  0  0  0  0  0  0  0  0  0  0
   -1.6245    4.7137   -1.7315 H   0  0  0  0  0  0  0  0  0  0  0  0
   -3.5046    3.2224   -1.1505 H   0  0  0  0  0  0  0  0  0  0  0  0
  1  2  1  0
  2  3  1  0
  3  4  1  0
  4  5  1  0
  5  6  1  0
  6  7  1  0
  7  8  2  0
  8  9  1  0
  9 10  2  0
 10 11  1  0
 11 12  2  0
 12 13  1  0
 13 14  2  0
 13 15  1  0
 15 16  1  0
 16 17  1  0
 17 18  2  0
 17 19  1  0
 19 20  1  0
 20 21  1  0
 21 22  1  0
 22 23  1  0
 23 24  2  0
 24 25  1  0
 25 26  2  0
 26 27  1  0
 27 28  2  0
 28 29  1  0
 29 30  1  0
 29 31  1  0
 16 32  1  0
 32 33  1  0
 33 34  2  0
 33 35  1  0
 35 36  1  0
 36 37  1  0
 37 38  1  0
 38 39  2  0
 39 40  1  0
 40 41  2  0
 41 42  1  0
 42 43  2  0
 36 44  1  0
 44 45  2  0
 44  3  1  0
 12  7  1  0
 28 23  1  0
 43 38  1  0
  1 46  1  0
  1 47  1  0
  1 48  1  0
  2 49  1  0
  2 50  1  0
  4 51  1  0
  4 52  1  0
  5 53  1  0
  5 54  1  0
  8 55  1  0
  9 56  1  0
 10 57  1  0
 11 58  1  0
 15 59  1  0
 16 60  1  0
 19 61  1  0
 20 62  1  0
 20 63  1  0
 21 64  1  0
 21 65  1  0
 24 66  1  0
 25 67  1  0
 26 68  1  0
 27 69  1  0
 29 70  1  0
 30 71  1  0
 30 72  1  0
 30 73  1  0
 31 74  1  0
 31 75  1  0
 31 76  1  0
 32 77  1  0
 32 78  1  0
 35 79  1  0
 36 80  1  0
 37 81  1  0
 37 82  1  0
 39 83  1  0
 40 84  1  0
 41 85  1  0
 42 86  1  0
 43 87  1  0
M  END
$$$$
