
     RDKit          3D

 67 69  0  0  0  0  0  0  0  0999 V2000
   -5.7259    0.9286   -1.6294 C   0  0  0  0  0  0  0  0  0  0  0  0
   -4.6097   -0.0003   -1.9925 C   0  0  0  0  0  0  0  0  0  0  0  0
   -4.8092   -0.8761   -2.8754 O   0  0  0  0  0  0  0  0  0  0  0  0
   -3.3045    0.1134   -1.3915 N   0  0  0  0  0  0  0  0  0  0  0  0
   -3.1222    0.4169    0.0390 C   0  0  0  0  0  0  0  0  0  0  0  0
   -4.2396   -0.1439    0.9456 C   0  0  0  0  0  0  0  0  0  0  0  0
   -3.7670   -0.6648    2.3163 C   0  0  0  0  0  0  0  0  0  0  0  0
   -3.0589    0.3683    3.2225 C   0  0  0  0  0  0  0  0  0  0  0  0
   -1.5318    0.4999    3.0342 C   0  0  0  0  0  0  0  0  0  0  0  0
   -0.7330   -0.7930    3.3412 C   0  0  0  0  0  0  0  0  0  0  0  0
    0.3234   -1.1155    2.2625 C   0  0  0  0  0  0  0  0  0  0  0  0
   -0.2401   -1.8889    1.0408 C   0  0  0  0  0  0  0  0  0  0  0  0
    0.0570   -1.1802   -0.2281 N   0  0  0  0  0  0  0  0  0  0  0  0
    1.5031   -1.2657   -0.5651 C   0  0  0  0  0  0  0  0  0  0  0  0
    2.1366    0.0985   -0.4997 C   0  0  0  0  0  0  0  0  0  0  0  0
    1.4386    1.1180   -0.7597 O   0  0  0  0  0  0  0  0  0  0  0  0
    3.5209    0.2612   -0.1302 N   0  0  0  0  0  0  0  0  0  0  0  0
    4.4696   -0.8456   -0.3350 C   0  0  0  0  0  0  0  0  0  0  0  0
    5.8911   -0.3232   -0.5454 C   0  0  0  0  0  0  0  0  0  0  0  0
    6.2848    0.6473    0.5715 C   0  0  0  0  0  0  0  0  0  0  0  0
    7.5842    1.1194    0.3405 O   0  0  0  0  0  0  0  0  0  0  0  0
    5.3018    1.8226    0.6020 C   0  0  0  0  0  0  0  0  0  0  0  0
    3.8692    1.3269    0.8238 C   0  0  0  0  0  0  0  0  0  0  0  0
   -0.8203   -1.6321   -1.3428 C   0  0  0  0  0  0  0  0  0  0  0  0
   -1.0487   -0.5035   -2.3311 C   0  0  0  0  0  0  0  0  0  0  0  0
   -0.0789   -0.2772   -3.3274 C   0  0  0  0  0  0  0  0  0  0  0  0
   -0.1996    0.7881   -4.2201 C   0  0  0  0  0  0  0  0  0  0  0  0
   -1.2966    1.6402   -4.1460 C   0  0  0  0  0  0  0  0  0  0  0  0
   -2.2899    1.4128   -3.1976 C   0  0  0  0  0  0  0  0  0  0  0  0
   -2.1959    0.3421   -2.2897 C   0  0  0  0  0  0  0  0  0  0  0  0
   -5.3314    1.8276   -1.1093 H   0  0  0  0  0  0  0  0  0  0  0  0
   -6.2451    1.2644   -2.5503 H   0  0  0  0  0  0  0  0  0  0  0  0
   -6.4578    0.4033   -0.9814 H   0  0  0  0  0  0  0  0  0  0  0  0
   -3.0510    1.5173    0.1767 H   0  0  0  0  0  0  0  0  0  0  0  0
   -2.1639   -0.0155    0.3472 H   0  0  0  0  0  0  0  0  0  0  0  0
   -5.0044    0.6433    1.1088 H   0  0  0  0  0  0  0  0  0  0  0  0
   -4.7417   -0.9976    0.4430 H   0  0  0  0  0  0  0  0  0  0  0  0
   -3.1764   -1.5861    2.1872 H   0  0  0  0  0  0  0  0  0  0  0  0
   -4.6841   -0.9897    2.8557 H   0  0  0  0  0  0  0  0  0  0  0  0
   -3.5287    1.3660    3.0790 H   0  0  0  0  0  0  0  0  0  0  0  0
   -3.2411    0.0837    4.2830 H   0  0  0  0  0  0  0  0  0  0  0  0
   -1.2894    0.9188    2.0411 H   0  0  0  0  0  0  0  0  0  0  0  0
   -1.1871    1.2848    3.7438 H   0  0  0  0  0  0  0  0  0  0  0  0
   -0.1981   -0.6428    4.3051 H   0  0  0  0  0  0  0  0  0  0  0  0
   -1.3862   -1.6736    3.5087 H   0  0  0  0  0  0  0  0  0  0  0  0
    0.8239   -0.1735    1.9522 H   0  0  0  0  0  0  0  0  0  0  0  0
    1.1170   -1.7441    2.7283 H   0  0  0  0  0  0  0  0  0  0  0  0
   -1.3276   -2.0339    1.1591 H   0  0  0  0  0  0  0  0  0  0  0  0
    0.1836   -2.9203    1.0218 H   0  0  0  0  0  0  0  0  0  0  0  0
    2.0444   -1.9331    0.1402 H   0  0  0  0  0  0  0  0  0  0  0  0
    1.6900   -1.7009   -1.5648 H   0  0  0  0  0  0  0  0  0  0  0  0
    4.1859   -1.4398   -1.2304 H   0  0  0  0  0  0  0  0  0  0  0  0
    4.4501   -1.5152    0.5509 H   0  0  0  0  0  0  0  0  0  0  0  0
    6.5956   -1.1841   -0.5562 H   0  0  0  0  0  0  0  0  0  0  0  0
    5.9542    0.1887   -1.5311 H   0  0  0  0  0  0  0  0  0  0  0  0
    6.2463    0.1053    1.5458 H   0  0  0  0  0  0  0  0  0  0  0  0
    7.9257    1.4501    1.2123 H   0  0  0  0  0  0  0  0  0  0  0  0
    5.3555    2.3820   -0.3577 H   0  0  0  0  0  0  0  0  0  0  0  0
    5.5794    2.5192    1.4238 H   0  0  0  0  0  0  0  0  0  0  0  0
    3.1796    2.1927    0.7148 H   0  0  0  0  0  0  0  0  0  0  0  0
    3.7649    0.9369    1.8609 H   0  0  0  0  0  0  0  0  0  0  0  0
   -1.8094   -1.9811   -0.9776 H   0  0  0  0  0  0  0  0  0  0  0  0
   -0.3858   -2.5150   -1.8617 H   0  0  0  0  0  0  0  0  0  0  0  0
    0.7765   -0.9293   -3.4250 H   0  0  0  0  0  0  0  0  0  0  0  0
    0.5624    0.9556   -4.9706 H   0  0  0  0  0  0  0  0  0  0  0  0
   -1.3877    2.4689   -4.8374 H   0  0  0  0  0  0  0  0  0  0  0  0
   -3.1470    2.0728   -3.1693 H   0  0  0  0  0  0  0  0  0  0  0  0
  1  2  1  0
  2  3  2  0
  2  4  1  0
  4  5  1  0
  5  6  1  0
  6  7  1  0
  7  8  1  0
  8  9  1  0
  9 10  1  0
 10 11  1  0
 11 12  1  0
 12 13  1  0
 13 14  1  0
 14 15  1  0
 15 16  2  0
 15 17  1  0
 17 18  1  0
 18 19  1  0
 19 20  1  0
 20 21  1  0
 20 22  1  0
 22 23  1  0
 13 24  1  0
 24 25  1  0
 25 26  2  0
 26 27  1  0
 27 28  2  0
 28 29  1  0
 29 30  2  0
 30  4  1  0
 23 17  1  0
 30 25  1  0
  1 31  1  0
  1 32  1  0
  1 33  1  0
  5 34  1  0
  5 35  1  0
  6 36  1  0
  6 37  1  0
  7 38  1  0
  7 39  1  0
  8 40  1  0
  8 41  1  0
  9 42  1  0
  9 43  1  0
 10 44  1  0
 10 45  1  0
 11 46  1  0
 11 47  1  0
 12 48  1  0
 12 49  1  0
 14 50  1  0
 14 51  1  0
 18 52  1  0
 18 53  1  0
 19 54  1  0
 19 55  1  0
 20 56  1  0
 21 57  1  0
 22 58  1  0
 22 59  1  0
 23 60  1  0
 23 61  1  0
 24 62  1  0
 24 63  1  0
 26 64  1  0
 27 65  1  0
 28 66  1  0
 29 67  1  0
M  END
$$$$
