
     RDKit          3D

 80 82  0  0  0  0  0  0  0  0999 V2000
   -5.6244   -4.8966   -0.9029 C   0  0  0  0  0  0  0  0  0  0  0  0
   -5.1838   -3.4397   -0.7440 C   0  0  0  0  0  0  0  0  0  0  0  0
   -4.6170   -3.1396    0.6691 C   0  0  0  0  0  0  0  0  0  0  0  0
   -5.7252   -3.1489    1.7371 C   0  0  0  0  0  0  0  0  0  0  0  0
   -3.7768   -1.8284    0.7459 C   0  0  0  0  0  0  0  0  0  0  0  0
   -2.6132   -1.9010   -0.1538 N   0  0  0  0  0  0  0  0  0  0  0  0
   -2.5204   -1.3444   -1.4786 C   0  0  0  0  0  0  0  0  0  0  0  0
   -3.4351   -0.6066   -1.9341 O   0  0  0  0  0  0  0  0  0  0  0  0
   -1.3247   -1.6434   -2.3442 C   0  0  0  0  0  0  0  0  0  0  0  0
   -0.0663   -0.8187   -1.9921 C   0  0  0  0  0  0  0  0  0  0  0  0
    0.5311   -1.2468   -0.6730 C   0  0  0  0  0  0  0  0  0  0  0  0
    0.1541   -0.6959    0.3962 O   0  0  0  0  0  0  0  0  0  0  0  0
    1.5175   -2.2884   -0.6371 N   0  0  0  0  0  0  0  0  0  0  0  0
    2.3429   -2.5597    0.5415 C   0  0  0  0  0  0  0  0  0  0  0  0
    3.7173   -1.8937    0.4042 C   0  0  0  0  0  0  0  0  0  0  0  0
    3.6433   -0.3752    0.6148 C   0  0  0  0  0  0  0  0  0  0  0  0
    4.9631    0.2741    0.2935 C   0  0  0  0  0  0  0  0  0  0  0  0
    5.2831    0.5890   -1.0360 C   0  0  0  0  0  0  0  0  0  0  0  0
    6.5105    1.1795   -1.3424 C   0  0  0  0  0  0  0  0  0  0  0  0
    7.4305    1.4557   -0.3291 C   0  0  0  0  0  0  0  0  0  0  0  0
    7.1305    1.1303    1.0090 C   0  0  0  0  0  0  0  0  0  0  0  0
    8.0245    1.3844    2.0609 O   0  0  0  0  0  0  0  0  0  0  0  0
    9.2859    2.0267    1.9034 C   0  0  0  0  0  0  0  0  0  0  0  0
    5.8987    0.5329    1.3086 C   0  0  0  0  0  0  0  0  0  0  0  0
   -0.3370    0.6243   -1.9930 N   0  0  0  0  0  0  0  0  0  0  0  0
    0.7220    1.5910   -1.9111 C   0  0  0  0  0  0  0  0  0  0  0  0
    1.9002    1.2548   -2.2046 O   0  0  0  0  0  0  0  0  0  0  0  0
    0.4402    2.9872   -1.5171 C   0  0  0  0  0  0  0  0  0  0  0  0
    1.1321    4.0339   -2.1503 C   0  0  0  0  0  0  0  0  0  0  0  0
    0.8773    5.3637   -1.8037 C   0  0  0  0  0  0  0  0  0  0  0  0
   -0.0774    5.6633   -0.8317 C   0  0  0  0  0  0  0  0  0  0  0  0
   -0.7680    4.6330   -0.1890 C   0  0  0  0  0  0  0  0  0  0  0  0
   -0.5053    3.2893   -0.5108 C   0  0  0  0  0  0  0  0  0  0  0  0
   -1.1148    2.2524    0.2084 O   0  0  0  0  0  0  0  0  0  0  0  0
   -2.5160    2.1933    0.4687 C   0  0  0  0  0  0  0  0  0  0  0  0
   -2.8118    1.0696    1.4647 C   0  0  0  0  0  0  0  0  0  0  0  0
   -4.2121    0.6410    1.3532 N   0  0  0  0  0  0  0  0  0  0  0  0
   -5.2777    1.5243    1.8372 C   0  0  0  0  0  0  0  0  0  0  0  0
   -4.5740   -0.5375    0.6077 C   0  0  0  0  0  0  0  0  0  0  0  0
   -5.5885   -0.5009   -0.1410 O   0  0  0  0  0  0  0  0  0  0  0  0
   -6.5012   -5.1184   -0.2583 H   0  0  0  0  0  0  0  0  0  0  0  0
   -5.9213   -5.0800   -1.9567 H   0  0  0  0  0  0  0  0  0  0  0  0
   -4.7918   -5.5878   -0.6472 H   0  0  0  0  0  0  0  0  0  0  0  0
   -6.0516   -2.7856   -0.9682 H   0  0  0  0  0  0  0  0  0  0  0  0
   -4.4089   -3.2547   -1.5148 H   0  0  0  0  0  0  0  0  0  0  0  0
   -3.9177   -3.9664    0.9299 H   0  0  0  0  0  0  0  0  0  0  0  0
   -6.1641   -4.1634    1.8366 H   0  0  0  0  0  0  0  0  0  0  0  0
   -6.5356   -2.4361    1.4762 H   0  0  0  0  0  0  0  0  0  0  0  0
   -5.3086   -2.8687    2.7281 H   0  0  0  0  0  0  0  0  0  0  0  0
   -3.3664   -1.8064    1.7808 H   0  0  0  0  0  0  0  0  0  0  0  0
   -1.8484   -2.5520    0.1392 H   0  0  0  0  0  0  0  0  0  0  0  0
   -1.5905   -1.4438   -3.4060 H   0  0  0  0  0  0  0  0  0  0  0  0
   -1.0902   -2.7282   -2.2751 H   0  0  0  0  0  0  0  0  0  0  0  0
    0.6794   -1.0240   -2.7908 H   0  0  0  0  0  0  0  0  0  0  0  0
    1.7741   -2.7660   -1.5297 H   0  0  0  0  0  0  0  0  0  0  0  0
    1.8378   -2.2284    1.4756 H   0  0  0  0  0  0  0  0  0  0  0  0
    2.4880   -3.6586    0.6226 H   0  0  0  0  0  0  0  0  0  0  0  0
    4.1366   -2.1242   -0.6012 H   0  0  0  0  0  0  0  0  0  0  0  0
    4.4044   -2.3271    1.1637 H   0  0  0  0  0  0  0  0  0  0  0  0
    2.8629    0.0664   -0.0357 H   0  0  0  0  0  0  0  0  0  0  0  0
    3.3513   -0.1624    1.6669 H   0  0  0  0  0  0  0  0  0  0  0  0
    4.5817    0.3746   -1.8338 H   0  0  0  0  0  0  0  0  0  0  0  0
    6.7486    1.4256   -2.3684 H   0  0  0  0  0  0  0  0  0  0  0  0
    8.3720    1.9164   -0.5963 H   0  0  0  0  0  0  0  0  0  0  0  0
    9.7778    2.1082    2.8953 H   0  0  0  0  0  0  0  0  0  0  0  0
    9.9379    1.4302    1.2304 H   0  0  0  0  0  0  0  0  0  0  0  0
    9.1472    3.0471    1.4893 H   0  0  0  0  0  0  0  0  0  0  0  0
    5.6684    0.2770    2.3370 H   0  0  0  0  0  0  0  0  0  0  0  0
   -1.3177    0.9725   -2.0243 H   0  0  0  0  0  0  0  0  0  0  0  0
    1.8681    3.8228   -2.9154 H   0  0  0  0  0  0  0  0  0  0  0  0
    1.4214    6.1623   -2.2924 H   0  0  0  0  0  0  0  0  0  0  0  0
   -0.2693    6.6936   -0.5602 H   0  0  0  0  0  0  0  0  0  0  0  0
   -1.4665    4.8883    0.5952 H   0  0  0  0  0  0  0  0  0  0  0  0
   -3.0488    2.0021   -0.4882 H   0  0  0  0  0  0  0  0  0  0  0  0
   -2.8858    3.1517    0.8857 H   0  0  0  0  0  0  0  0  0  0  0  0
   -2.1237    0.2208    1.2840 H   0  0  0  0  0  0  0  0  0  0  0  0
   -2.6117    1.4292    2.4985 H   0  0  0  0  0  0  0  0  0  0  0  0
   -5.9281    0.9683    2.5441 H   0  0  0  0  0  0  0  0  0  0  0  0
   -5.8864    1.8901    0.9822 H   0  0  0  0  0  0  0  0  0  0  0  0
   -4.8583    2.4070    2.3679 H   0  0  0  0  0  0  0  0  0  0  0  0
  1  2  1  0
  2  3  1  0
  3  4  1  0
  3  5  1  0
  5  6  1  0
  6  7  1  0
  7  8  2  0
  7  9  1  0
  9 10  1  0
 10 11  1  0
 11 12  2  0
 11 13  1  0
 13 14  1  0
 14 15  1  0
 15 16  1  0
 16 17  1  0
 17 18  2  0
 18 19  1  0
 19 20  2  0
 20 21  1  0
 21 22  1  0
 22 23  1  0
 21 24  2  0
 10 25  1  0
 25 26  1  0
 26 27  2  0
 26 28  1  0
 28 29  2  0
 29 30  1  0
 30 31  2  0
 31 32  1  0
 32 33  2  0
 33 34  1  0
 34 35  1  0
 35 36  1  0
 36 37  1  0
 37 38  1  0
 37 39  1  0
 39 40  2  0
 39  5  1  0
 24 17  1  0
 33 28  1  0
  1 41  1  0
  1 42  1  0
  1 43  1  0
  2 44  1  0
  2 45  1  0
  3 46  1  0
  4 47  1  0
  4 48  1  0
  4 49  1  0
  5 50  1  0
  6 51  1  0
  9 52  1  0
  9 53  1  0
 10 54  1  0
 13 55  1  0
 14 56  1  0
 14 57  1  0
 15 58  1  0
 15 59  1  0
 16 60  1  0
 16 61  1  0
 18 62  1  0
 19 63  1  0
 20 64  1  0
 23 65  1  0
 23 66  1  0
 23 67  1  0
 24 68  1  0
 25 69  1  0
 29 70  1  0
 30 71  1  0
 31 72  1  0
 32 73  1  0
 35 74  1  0
 35 75  1  0
 36 76  1  0
 36 77  1  0
 38 78  1  0
 38 79  1  0
 38 80  1  0
M  END
$$$$
