
     RDKit          3D

 58 61  0  0  0  0  0  0  0  0999 V2000
    6.1449   -1.0158   -0.9032 O   0  0  0  0  0  0  0  0  0  0  0  0
    5.1396   -0.2571   -0.9596 C   0  0  0  0  0  0  0  0  0  0  0  0
    3.8507   -0.7845   -1.5187 C   0  0  0  0  0  0  0  0  0  0  0  0
    2.8106   -0.8307   -0.4718 N   0  0  0  0  0  0  0  0  0  0  0  0
    3.1099   -1.8630    0.5467 C   0  0  0  0  0  0  0  0  0  0  0  0
    1.8385   -2.3157    1.2846 C   0  0  0  0  0  0  0  0  0  0  0  0
    0.8874   -1.2698    1.3340 O   0  0  0  0  0  0  0  0  0  0  0  0
    0.3885   -0.8880    0.0476 C   0  0  0  0  0  0  0  0  0  0  0  0
   -0.8771   -1.7434   -0.2720 C   0  0  0  0  0  0  0  0  0  0  0  0
   -1.5630   -1.4830   -1.6431 C   0  0  0  0  0  0  0  0  0  0  0  0
   -2.7334   -0.4851   -1.5829 C   0  0  0  0  0  0  0  0  0  0  0  0
   -3.9945   -1.0858   -0.9291 C   0  0  0  0  0  0  0  0  0  0  0  0
   -4.8690   -0.0113   -0.3256 C   0  0  0  0  0  0  0  0  0  0  0  0
   -6.1198    0.2847   -0.8918 C   0  0  0  0  0  0  0  0  0  0  0  0
   -6.9398    1.2613   -0.3201 C   0  0  0  0  0  0  0  0  0  0  0  0
   -6.5198    1.9503    0.8188 C   0  0  0  0  0  0  0  0  0  0  0  0
   -5.2739    1.6731    1.3866 C   0  0  0  0  0  0  0  0  0  0  0  0
   -4.4350    0.6969    0.8151 C   0  0  0  0  0  0  0  0  0  0  0  0
   -3.1637    0.4103    1.3351 O   0  0  0  0  0  0  0  0  0  0  0  0
   -2.5306    1.1101    2.3993 C   0  0  0  0  0  0  0  0  0  0  0  0
   -1.0751    0.6574    2.4988 C   0  0  0  0  0  0  0  0  0  0  0  0
   -0.2810    1.2330    1.4082 N   0  0  0  0  0  0  0  0  0  0  0  0
    0.0051    0.5887    0.1512 C   0  0  0  0  0  0  0  0  0  0  0  0
   -0.0252    1.2974   -0.8923 O   0  0  0  0  0  0  0  0  0  0  0  0
    1.4844   -1.0756   -1.0614 C   0  0  0  0  0  0  0  0  0  0  0  0
    5.2015    1.0917   -0.4684 N   0  0  0  0  0  0  0  0  0  0  0  0
    6.4000    1.7587   -0.0469 C   0  0  0  0  0  0  0  0  0  0  0  0
    6.3892    2.9940    0.4974 N   0  0  0  0  0  0  0  0  0  0  0  0
    7.6062    3.4524    0.7868 N   0  0  0  0  0  0  0  0  0  0  0  0
    8.6006    2.5917    0.4710 C   0  0  0  0  0  0  0  0  0  0  0  0
    7.9782    1.1804   -0.2042 S   0  0  0  0  0  0  0  0  0  0  0  0
    4.0015   -1.7879   -1.9783 H   0  0  0  0  0  0  0  0  0  0  0  0
    3.5453   -0.0911   -2.3327 H   0  0  0  0  0  0  0  0  0  0  0  0
    3.5891   -2.7611    0.0943 H   0  0  0  0  0  0  0  0  0  0  0  0
    3.8192   -1.4325    1.2870 H   0  0  0  0  0  0  0  0  0  0  0  0
    2.1027   -2.6073    2.3233 H   0  0  0  0  0  0  0  0  0  0  0  0
    1.4094   -3.2198    0.7993 H   0  0  0  0  0  0  0  0  0  0  0  0
   -1.6054   -1.6353    0.5554 H   0  0  0  0  0  0  0  0  0  0  0  0
   -0.5835   -2.8148   -0.2573 H   0  0  0  0  0  0  0  0  0  0  0  0
   -0.8287   -1.1224   -2.3911 H   0  0  0  0  0  0  0  0  0  0  0  0
   -1.9505   -2.4479   -2.0396 H   0  0  0  0  0  0  0  0  0  0  0  0
   -2.9931   -0.1800   -2.6203 H   0  0  0  0  0  0  0  0  0  0  0  0
   -2.4090    0.4370   -1.0646 H   0  0  0  0  0  0  0  0  0  0  0  0
   -4.5528   -1.6681   -1.6943 H   0  0  0  0  0  0  0  0  0  0  0  0
   -3.7339   -1.8065   -0.1268 H   0  0  0  0  0  0  0  0  0  0  0  0
   -6.4636   -0.2434   -1.7723 H   0  0  0  0  0  0  0  0  0  0  0  0
   -7.9042    1.4818   -0.7589 H   0  0  0  0  0  0  0  0  0  0  0  0
   -7.1605    2.7025    1.2622 H   0  0  0  0  0  0  0  0  0  0  0  0
   -4.9719    2.2215    2.2682 H   0  0  0  0  0  0  0  0  0  0  0  0
   -3.0563    0.8817    3.3513 H   0  0  0  0  0  0  0  0  0  0  0  0
   -2.5661    2.2067    2.2161 H   0  0  0  0  0  0  0  0  0  0  0  0
   -0.6561    1.0122    3.4649 H   0  0  0  0  0  0  0  0  0  0  0  0
   -1.0341   -0.4486    2.5083 H   0  0  0  0  0  0  0  0  0  0  0  0
   -0.1475    2.2695    1.4397 H   0  0  0  0  0  0  0  0  0  0  0  0
    1.4453   -2.1107   -1.4760 H   0  0  0  0  0  0  0  0  0  0  0  0
    1.3115   -0.3963   -1.9242 H   0  0  0  0  0  0  0  0  0  0  0  0
    4.3097    1.6364   -0.4211 H   0  0  0  0  0  0  0  0  0  0  0  0
    9.6490    2.8011    0.6333 H   0  0  0  0  0  0  0  0  0  0  0  0
  1  2  2  0
  2  3  1  0
  3  4  1  0
  4  5  1  0
  5  6  1  0
  6  7  1  0
  7  8  1  0
  8  9  1  0
  9 10  1  0
 10 11  1  0
 11 12  1  0
 12 13  1  0
 13 14  2  0
 14 15  1  0
 15 16  2  0
 16 17  1  0
 17 18  2  0
 18 19  1  0
 19 20  1  0
 20 21  1  0
 21 22  1  0
 22 23  1  0
 23 24  2  0
  8 25  1  0
  2 26  1  0
 26 27  1  0
 27 28  2  0
 28 29  1  0
 29 30  2  0
 30 31  1  0
 25  4  1  0
 31 27  1  0
 23  8  1  0
 18 13  1  0
  3 32  1  0
  3 33  1  0
  5 34  1  0
  5 35  1  0
  6 36  1  0
  6 37  1  0
  9 38  1  0
  9 39  1  0
 10 40  1  0
 10 41  1  0
 11 42  1  0
 11 43  1  0
 12 44  1  0
 12 45  1  0
 14 46  1  0
 15 47  1  0
 16 48  1  0
 17 49  1  0
 20 50  1  0
 20 51  1  0
 21 52  1  0
 21 53  1  0
 22 54  1  0
 25 55  1  0
 25 56  1  0
 26 57  1  0
 30 58  1  0
M  END
$$$$
