
     RDKit          3D

 65 67  0  0  0  0  0  0  0  0999 V2000
   -1.4823   -0.3669    2.6022 O   0  0  0  0  0  0  0  0  0  0  0  0
   -1.6135   -1.0992    1.5862 C   0  0  0  0  0  0  0  0  0  0  0  0
   -0.3924   -1.6849    0.9267 C   0  0  0  0  0  0  0  0  0  0  0  0
    0.3570   -0.6563    0.0628 C   0  0  0  0  0  0  0  0  0  0  0  0
    1.6786   -1.2526   -0.3767 C   0  0  0  0  0  0  0  0  0  0  0  0
    1.7717   -1.8161   -1.5046 O   0  0  0  0  0  0  0  0  0  0  0  0
    2.7984   -1.2659    0.5262 N   0  0  0  0  0  0  0  0  0  0  0  0
    4.0317   -2.0064    0.2443 C   0  0  0  0  0  0  0  0  0  0  0  0
    5.2601   -1.1262    0.4821 C   0  0  0  0  0  0  0  0  0  0  0  0
    5.3141    0.0617   -0.4865 C   0  0  0  0  0  0  0  0  0  0  0  0
    6.6115    0.8135   -0.3189 C   0  0  0  0  0  0  0  0  0  0  0  0
    7.7257    0.4857   -1.1128 C   0  0  0  0  0  0  0  0  0  0  0  0
    8.9464    1.1394   -0.9237 C   0  0  0  0  0  0  0  0  0  0  0  0
    9.0709    2.1189    0.0681 C   0  0  0  0  0  0  0  0  0  0  0  0
    7.9729    2.4424    0.8678 C   0  0  0  0  0  0  0  0  0  0  0  0
    6.7471    1.7906    0.6834 C   0  0  0  0  0  0  0  0  0  0  0  0
   -0.4507   -0.2660   -1.1018 N   0  0  0  0  0  0  0  0  0  0  0  0
   -1.4746    0.7390   -1.0154 C   0  0  0  0  0  0  0  0  0  0  0  0
   -1.2672    1.7486   -0.2827 O   0  0  0  0  0  0  0  0  0  0  0  0
   -2.7536    0.6296   -1.7920 C   0  0  0  0  0  0  0  0  0  0  0  0
   -2.9509   -0.4487   -2.6894 C   0  0  0  0  0  0  0  0  0  0  0  0
   -4.0807   -0.5022   -3.5095 C   0  0  0  0  0  0  0  0  0  0  0  0
   -5.0344    0.5105   -3.4577 C   0  0  0  0  0  0  0  0  0  0  0  0
   -4.8902    1.5435   -2.5373 C   0  0  0  0  0  0  0  0  0  0  0  0
   -3.7955    1.5859   -1.6644 C   0  0  0  0  0  0  0  0  0  0  0  0
   -3.7902    2.5740   -0.6774 O   0  0  0  0  0  0  0  0  0  0  0  0
   -3.9997    2.3063    0.7166 C   0  0  0  0  0  0  0  0  0  0  0  0
   -5.4287    1.8205    1.0200 C   0  0  0  0  0  0  0  0  0  0  0  0
   -5.7543    0.5565    0.3488 N   0  0  0  0  0  0  0  0  0  0  0  0
   -5.2631   -0.7530    0.7116 C   0  0  0  0  0  0  0  0  0  0  0  0
   -5.7355   -1.7536    0.1013 O   0  0  0  0  0  0  0  0  0  0  0  0
   -4.1576   -0.9750    1.7281 C   0  0  0  0  0  0  0  0  0  0  0  0
   -4.5343   -2.0612    2.7555 C   0  0  0  0  0  0  0  0  0  0  0  0
   -4.6851   -3.3100    2.1220 O   0  0  0  0  0  0  0  0  0  0  0  0
   -2.9148   -1.3292    1.0322 N   0  0  0  0  0  0  0  0  0  0  0  0
    0.2834   -2.0617    1.7265 H   0  0  0  0  0  0  0  0  0  0  0  0
   -0.6843   -2.5526    0.2943 H   0  0  0  0  0  0  0  0  0  0  0  0
    0.5841    0.2411    0.6820 H   0  0  0  0  0  0  0  0  0  0  0  0
    2.6774   -0.8521    1.4809 H   0  0  0  0  0  0  0  0  0  0  0  0
    4.0768   -2.8889    0.9189 H   0  0  0  0  0  0  0  0  0  0  0  0
    4.0550   -2.3855   -0.7994 H   0  0  0  0  0  0  0  0  0  0  0  0
    5.2696   -0.7609    1.5358 H   0  0  0  0  0  0  0  0  0  0  0  0
    6.1685   -1.7556    0.3382 H   0  0  0  0  0  0  0  0  0  0  0  0
    5.2310   -0.3101   -1.5316 H   0  0  0  0  0  0  0  0  0  0  0  0
    4.4509    0.7376   -0.2990 H   0  0  0  0  0  0  0  0  0  0  0  0
    7.6573   -0.2870   -1.8726 H   0  0  0  0  0  0  0  0  0  0  0  0
    9.8037    0.8742   -1.5299 H   0  0  0  0  0  0  0  0  0  0  0  0
   10.0200    2.6163    0.2141 H   0  0  0  0  0  0  0  0  0  0  0  0
    8.0750    3.1977    1.6328 H   0  0  0  0  0  0  0  0  0  0  0  0
    5.9045    2.0427    1.3154 H   0  0  0  0  0  0  0  0  0  0  0  0
   -0.3315   -0.7846   -2.0021 H   0  0  0  0  0  0  0  0  0  0  0  0
   -2.2486   -1.2617   -2.7745 H   0  0  0  0  0  0  0  0  0  0  0  0
   -4.2094   -1.3214   -4.2015 H   0  0  0  0  0  0  0  0  0  0  0  0
   -5.8999    0.4748   -4.1070 H   0  0  0  0  0  0  0  0  0  0  0  0
   -5.6601    2.3042   -2.4724 H   0  0  0  0  0  0  0  0  0  0  0  0
   -3.2447    1.5869    1.0949 H   0  0  0  0  0  0  0  0  0  0  0  0
   -3.8455    3.2646    1.2652 H   0  0  0  0  0  0  0  0  0  0  0  0
   -6.1370    2.6046    0.6815 H   0  0  0  0  0  0  0  0  0  0  0  0
   -5.5675    1.7108    2.1184 H   0  0  0  0  0  0  0  0  0  0  0  0
   -6.4894    0.6002   -0.3957 H   0  0  0  0  0  0  0  0  0  0  0  0
   -4.0044   -0.0428    2.3110 H   0  0  0  0  0  0  0  0  0  0  0  0
   -3.7214   -2.1440    3.5071 H   0  0  0  0  0  0  0  0  0  0  0  0
   -5.4660   -1.7501    3.2890 H   0  0  0  0  0  0  0  0  0  0  0  0
   -5.6044   -3.6283    2.3308 H   0  0  0  0  0  0  0  0  0  0  0  0
   -2.9802   -1.8245    0.1140 H   0  0  0  0  0  0  0  0  0  0  0  0
  1  2  2  0
  2  3  1  0
  3  4  1  0
  4  5  1  0
  5  6  2  0
  5  7  1  0
  7  8  1  0
  8  9  1  0
  9 10  1  0
 10 11  1  0
 11 12  2  0
 12 13  1  0
 13 14  2  0
 14 15  1  0
 15 16  2  0
  4 17  1  0
 17 18  1  0
 18 19  2  0
 18 20  1  0
 20 21  2  0
 21 22  1  0
 22 23  2  0
 23 24  1  0
 24 25  2  0
 25 26  1  0
 26 27  1  0
 27 28  1  0
 28 29  1  0
 29 30  1  0
 30 31  2  0
 30 32  1  0
 32 33  1  0
 33 34  1  0
 32 35  1  0
 35  2  1  0
 16 11  1  0
 25 20  1  0
  3 36  1  0
  3 37  1  0
  4 38  1  0
  7 39  1  0
  8 40  1  0
  8 41  1  0
  9 42  1  0
  9 43  1  0
 10 44  1  0
 10 45  1  0
 12 46  1  0
 13 47  1  0
 14 48  1  0
 15 49  1  0
 16 50  1  0
 17 51  1  0
 21 52  1  0
 22 53  1  0
 23 54  1  0
 24 55  1  0
 27 56  1  0
 27 57  1  0
 28 58  1  0
 28 59  1  0
 29 60  1  0
 32 61  1  0
 33 62  1  0
 33 63  1  0
 34 64  1  0
 35 65  1  0
M  END
$$$$
