
     RDKit          3D

 70 72  0  0  0  0  0  0  0  0999 V2000
    6.7523   -3.0026    0.3552 C   0  0  0  0  0  0  0  0  0  0  0  0
    7.0573   -1.9745   -0.5669 O   0  0  0  0  0  0  0  0  0  0  0  0
    5.8883   -1.5674   -1.2555 C   0  0  0  0  0  0  0  0  0  0  0  0
    5.3720   -0.2876   -0.6607 C   0  0  0  0  0  0  0  0  0  0  0  0
    6.0240    0.9268   -0.9316 C   0  0  0  0  0  0  0  0  0  0  0  0
    5.5920    2.1110   -0.3287 C   0  0  0  0  0  0  0  0  0  0  0  0
    4.5118    2.0906    0.5560 C   0  0  0  0  0  0  0  0  0  0  0  0
    3.8511    0.8863    0.8340 C   0  0  0  0  0  0  0  0  0  0  0  0
    2.7438    0.8713    1.8030 C   0  0  0  0  0  0  0  0  0  0  0  0
    3.0285    0.8953    3.0334 O   0  0  0  0  0  0  0  0  0  0  0  0
    1.3591    0.8945    1.3789 N   0  0  0  0  0  0  0  0  0  0  0  0
    0.9554    0.3404    0.0777 C   0  0  0  0  0  0  0  0  0  0  0  0
    0.6066   -1.1458    0.2151 C   0  0  0  0  0  0  0  0  0  0  0  0
   -0.2562   -1.6414   -0.9559 C   0  0  0  0  0  0  0  0  0  0  0  0
   -0.7959   -3.0548   -0.7052 C   0  0  0  0  0  0  0  0  0  0  0  0
   -1.5390   -3.1507    0.5554 N   0  0  0  0  0  0  0  0  0  0  0  0
   -2.6979   -2.3685    0.8842 C   0  0  0  0  0  0  0  0  0  0  0  0
   -2.9239   -2.1011    2.0966 O   0  0  0  0  0  0  0  0  0  0  0  0
   -3.7300   -2.0397   -0.1235 C   0  0  0  0  0  0  0  0  0  0  0  0
   -4.1187   -3.0591   -1.0128 C   0  0  0  0  0  0  0  0  0  0  0  0
   -5.2112   -2.8908   -1.8703 C   0  0  0  0  0  0  0  0  0  0  0  0
   -5.6925   -4.1933   -2.9430 Cl  0  0  0  0  0  0  0  0  0  0  0  0
   -5.9538   -1.7148   -1.8284 C   0  0  0  0  0  0  0  0  0  0  0  0
   -5.5827   -0.6883   -0.9582 C   0  0  0  0  0  0  0  0  0  0  0  0
   -4.4663   -0.8174   -0.1184 C   0  0  0  0  0  0  0  0  0  0  0  0
   -4.1679    0.2965    0.6886 O   0  0  0  0  0  0  0  0  0  0  0  0
   -2.8728    0.7252    1.1059 C   0  0  0  0  0  0  0  0  0  0  0  0
   -2.7939    2.2656    1.0704 C   0  0  0  0  0  0  0  0  0  0  0  0
   -2.5187    2.8546   -0.3482 C   0  0  0  0  0  0  0  0  0  0  0  0
   -3.4914    2.3166   -1.4131 C   0  0  0  0  0  0  0  0  0  0  0  0
   -2.6047    4.3917   -0.3217 C   0  0  0  0  0  0  0  0  0  0  0  0
   -1.7876    2.7421    2.0301 N   0  0  0  0  0  0  0  0  0  0  0  0
   -0.3772    2.5634    1.8447 C   0  0  0  0  0  0  0  0  0  0  0  0
    0.3135    3.5185    1.3978 O   0  0  0  0  0  0  0  0  0  0  0  0
    0.3082    1.3206    2.3224 C   0  0  0  0  0  0  0  0  0  0  0  0
    4.2891   -0.3033    0.2338 C   0  0  0  0  0  0  0  0  0  0  0  0
    5.9209   -2.7134    1.0406 H   0  0  0  0  0  0  0  0  0  0  0  0
    7.6457   -3.1893    0.9846 H   0  0  0  0  0  0  0  0  0  0  0  0
    6.5020   -3.9453   -0.1807 H   0  0  0  0  0  0  0  0  0  0  0  0
    6.1543   -1.3887   -2.3175 H   0  0  0  0  0  0  0  0  0  0  0  0
    5.0891   -2.3436   -1.2849 H   0  0  0  0  0  0  0  0  0  0  0  0
    6.8765    0.9503   -1.5962 H   0  0  0  0  0  0  0  0  0  0  0  0
    6.1089    3.0427   -0.5230 H   0  0  0  0  0  0  0  0  0  0  0  0
    4.2004    3.0118    1.0348 H   0  0  0  0  0  0  0  0  0  0  0  0
    1.7478    0.4707   -0.6872 H   0  0  0  0  0  0  0  0  0  0  0  0
    0.0777    0.9004   -0.2959 H   0  0  0  0  0  0  0  0  0  0  0  0
    0.0592   -1.2980    1.1713 H   0  0  0  0  0  0  0  0  0  0  0  0
    1.5359   -1.7478    0.2784 H   0  0  0  0  0  0  0  0  0  0  0  0
   -1.1160   -0.9653   -1.1218 H   0  0  0  0  0  0  0  0  0  0  0  0
    0.3507   -1.6420   -1.8863 H   0  0  0  0  0  0  0  0  0  0  0  0
    0.0598   -3.7649   -0.6743 H   0  0  0  0  0  0  0  0  0  0  0  0
   -1.4396   -3.3590   -1.5537 H   0  0  0  0  0  0  0  0  0  0  0  0
   -1.1269   -3.7421    1.3086 H   0  0  0  0  0  0  0  0  0  0  0  0
   -3.6109   -4.0139   -1.0017 H   0  0  0  0  0  0  0  0  0  0  0  0
   -6.8158   -1.5870   -2.4734 H   0  0  0  0  0  0  0  0  0  0  0  0
   -6.1588    0.2318   -0.9467 H   0  0  0  0  0  0  0  0  0  0  0  0
   -2.0836    0.2950    0.4650 H   0  0  0  0  0  0  0  0  0  0  0  0
   -2.7232    0.3830    2.1494 H   0  0  0  0  0  0  0  0  0  0  0  0
   -3.7834    2.6479    1.4028 H   0  0  0  0  0  0  0  0  0  0  0  0
   -1.4925    2.5782   -0.6690 H   0  0  0  0  0  0  0  0  0  0  0  0
   -4.5438    2.4303   -1.0782 H   0  0  0  0  0  0  0  0  0  0  0  0
   -3.2783    1.2480   -1.6277 H   0  0  0  0  0  0  0  0  0  0  0  0
   -3.3717    2.8659   -2.3724 H   0  0  0  0  0  0  0  0  0  0  0  0
   -2.3161    4.8140   -1.3097 H   0  0  0  0  0  0  0  0  0  0  0  0
   -3.6403    4.7177   -0.0932 H   0  0  0  0  0  0  0  0  0  0  0  0
   -1.9319    4.8228    0.4447 H   0  0  0  0  0  0  0  0  0  0  0  0
   -2.0821    3.4793    2.7156 H   0  0  0  0  0  0  0  0  0  0  0  0
    0.7278    1.5363    3.3251 H   0  0  0  0  0  0  0  0  0  0  0  0
   -0.4269    0.5058    2.4678 H   0  0  0  0  0  0  0  0  0  0  0  0
    3.8140   -1.2414    0.4823 H   0  0  0  0  0  0  0  0  0  0  0  0
  1  2  1  0
  2  3  1  0
  3  4  1  0
  4  5  2  0
  5  6  1  0
  6  7  2  0
  7  8  1  0
  8  9  1  0
  9 10  2  0
  9 11  1  0
 11 12  1  0
 12 13  1  0
 13 14  1  0
 14 15  1  0
 15 16  1  0
 16 17  1  0
 17 18  2  0
 17 19  1  0
 19 20  2  0
 20 21  1  0
 21 22  1  0
 21 23  2  0
 23 24  1  0
 24 25  2  0
 25 26  1  0
 26 27  1  0
 27 28  1  0
 28 29  1  0
 29 30  1  0
 29 31  1  0
 28 32  1  0
 32 33  1  0
 33 34  2  0
 33 35  1  0
  8 36  2  0
 36  4  1  0
 35 11  1  0
 25 19  1  0
  1 37  1  0
  1 38  1  0
  1 39  1  0
  3 40  1  0
  3 41  1  0
  5 42  1  0
  6 43  1  0
  7 44  1  0
 12 45  1  0
 12 46  1  0
 13 47  1  0
 13 48  1  0
 14 49  1  0
 14 50  1  0
 15 51  1  0
 15 52  1  0
 16 53  1  0
 20 54  1  0
 23 55  1  0
 24 56  1  0
 27 57  1  0
 27 58  1  0
 28 59  1  0
 29 60  1  0
 30 61  1  0
 30 62  1  0
 30 63  1  0
 31 64  1  0
 31 65  1  0
 31 66  1  0
 32 67  1  0
 35 68  1  0
 35 69  1  0
 36 70  1  0
M  END
$$$$
