
     RDKit          3D

 74 77  0  0  0  0  0  0  0  0999 V2000
    8.0543    1.4096    1.7317 C   0  0  0  0  0  0  0  0  0  0  0  0
    6.7050    1.6466    1.3929 O   0  0  0  0  0  0  0  0  0  0  0  0
    6.4588    1.2518    0.0561 C   0  0  0  0  0  0  0  0  0  0  0  0
    6.1488   -0.2274   -0.0207 C   0  0  0  0  0  0  0  0  0  0  0  0
    7.0711   -1.0703   -0.6684 C   0  0  0  0  0  0  0  0  0  0  0  0
    6.8518   -2.4462   -0.7406 C   0  0  0  0  0  0  0  0  0  0  0  0
    5.7146   -3.0039   -0.1608 C   0  0  0  0  0  0  0  0  0  0  0  0
    4.7902   -2.1872    0.4908 C   0  0  0  0  0  0  0  0  0  0  0  0
    4.9844   -0.7953    0.5652 C   0  0  0  0  0  0  0  0  0  0  0  0
    3.9361    0.0257    1.2851 C   0  0  0  0  0  0  0  0  0  0  0  0
    2.6275   -0.1657    0.6624 N   0  0  0  0  0  0  0  0  0  0  0  0
    2.3129    0.3665   -0.6347 C   0  0  0  0  0  0  0  0  0  0  0  0
    3.0906    1.2012   -1.1700 O   0  0  0  0  0  0  0  0  0  0  0  0
    1.1074   -0.0986   -1.4215 C   0  0  0  0  0  0  0  0  0  0  0  0
   -0.1345   -0.2772   -0.6330 N   0  0  0  0  0  0  0  0  0  0  0  0
   -0.2959   -1.6349   -0.0617 C   0  0  0  0  0  0  0  0  0  0  0  0
   -1.1762   -2.5098   -0.9754 C   0  0  0  0  0  0  0  0  0  0  0  0
   -2.5115   -1.8495   -1.3957 C   0  0  0  0  0  0  0  0  0  0  0  0
   -3.7608   -2.1206   -0.4958 C   0  0  0  0  0  0  0  0  0  0  0  0
   -3.4347   -1.9652    1.0102 C   0  0  0  0  0  0  0  0  0  0  0  0
   -4.2577   -3.5686   -0.7185 C   0  0  0  0  0  0  0  0  0  0  0  0
   -4.8906   -1.1264   -0.9401 C   0  0  0  0  0  0  0  0  0  0  0  0
   -5.7107   -0.6985    0.1469 O   0  0  0  0  0  0  0  0  0  0  0  0
   -5.7234    0.5818    0.7314 C   0  0  0  0  0  0  0  0  0  0  0  0
   -6.8887    0.9355    1.4259 C   0  0  0  0  0  0  0  0  0  0  0  0
   -7.0232    2.1950    2.0097 C   0  0  0  0  0  0  0  0  0  0  0  0
   -5.9850    3.1188    1.9198 C   0  0  0  0  0  0  0  0  0  0  0  0
   -4.8058    2.7817    1.2555 C   0  0  0  0  0  0  0  0  0  0  0  0
   -4.6499    1.5143    0.6580 C   0  0  0  0  0  0  0  0  0  0  0  0
   -3.4205    1.1705    0.0705 O   0  0  0  0  0  0  0  0  0  0  0  0
   -2.5795    2.0868   -0.5796 C   0  0  0  0  0  0  0  0  0  0  0  0
   -3.1271    3.1170   -1.2843 N   0  0  0  0  0  0  0  0  0  0  0  0
   -2.3665    4.0382   -1.9303 C   0  0  0  0  0  0  0  0  0  0  0  0
   -0.9768    3.9517   -1.8826 C   0  0  0  0  0  0  0  0  0  0  0  0
   -0.3814    2.9109   -1.1712 C   0  0  0  0  0  0  0  0  0  0  0  0
   -1.1735    1.9531   -0.5173 C   0  0  0  0  0  0  0  0  0  0  0  0
   -0.5080    0.8440    0.2639 C   0  0  0  0  0  0  0  0  0  0  0  0
    8.7370    2.0407    1.1207 H   0  0  0  0  0  0  0  0  0  0  0  0
    8.2051    1.6860    2.7953 H   0  0  0  0  0  0  0  0  0  0  0  0
    8.3190    0.3343    1.6237 H   0  0  0  0  0  0  0  0  0  0  0  0
    5.5861    1.8210   -0.3237 H   0  0  0  0  0  0  0  0  0  0  0  0
    7.2921    1.5362   -0.6302 H   0  0  0  0  0  0  0  0  0  0  0  0
    7.9696   -0.6620   -1.1153 H   0  0  0  0  0  0  0  0  0  0  0  0
    7.5692   -3.0821   -1.2430 H   0  0  0  0  0  0  0  0  0  0  0  0
    5.5499   -4.0724   -0.2144 H   0  0  0  0  0  0  0  0  0  0  0  0
    3.9144   -2.6415    0.9380 H   0  0  0  0  0  0  0  0  0  0  0  0
    3.8913   -0.3195    2.3408 H   0  0  0  0  0  0  0  0  0  0  0  0
    4.1662    1.1081    1.3203 H   0  0  0  0  0  0  0  0  0  0  0  0
    1.9110   -0.6941    1.2042 H   0  0  0  0  0  0  0  0  0  0  0  0
    0.9019    0.6315   -2.2328 H   0  0  0  0  0  0  0  0  0  0  0  0
    1.3753   -1.0434   -1.9427 H   0  0  0  0  0  0  0  0  0  0  0  0
    0.6843   -2.1489    0.0389 H   0  0  0  0  0  0  0  0  0  0  0  0
   -0.7150   -1.6102    0.9629 H   0  0  0  0  0  0  0  0  0  0  0  0
   -0.5928   -2.7141   -1.8998 H   0  0  0  0  0  0  0  0  0  0  0  0
   -1.3489   -3.4939   -0.4942 H   0  0  0  0  0  0  0  0  0  0  0  0
   -2.3553   -0.7590   -1.5072 H   0  0  0  0  0  0  0  0  0  0  0  0
   -2.7493   -2.1967   -2.4260 H   0  0  0  0  0  0  0  0  0  0  0  0
   -4.3420   -2.1221    1.6320 H   0  0  0  0  0  0  0  0  0  0  0  0
   -3.0292   -0.9637    1.2375 H   0  0  0  0  0  0  0  0  0  0  0  0
   -2.7018   -2.7287    1.3426 H   0  0  0  0  0  0  0  0  0  0  0  0
   -4.4633   -3.7577   -1.7944 H   0  0  0  0  0  0  0  0  0  0  0  0
   -3.5082   -4.3126   -0.3761 H   0  0  0  0  0  0  0  0  0  0  0  0
   -5.1979   -3.7459   -0.1525 H   0  0  0  0  0  0  0  0  0  0  0  0
   -4.5147   -0.2475   -1.5017 H   0  0  0  0  0  0  0  0  0  0  0  0
   -5.5561   -1.6214   -1.6797 H   0  0  0  0  0  0  0  0  0  0  0  0
   -7.7069    0.2296    1.4966 H   0  0  0  0  0  0  0  0  0  0  0  0
   -7.9345    2.4547    2.5330 H   0  0  0  0  0  0  0  0  0  0  0  0
   -6.0872    4.0938    2.3791 H   0  0  0  0  0  0  0  0  0  0  0  0
   -3.9976    3.5009    1.2409 H   0  0  0  0  0  0  0  0  0  0  0  0
   -2.8430    4.8410   -2.4765 H   0  0  0  0  0  0  0  0  0  0  0  0
   -0.3655    4.6879   -2.3886 H   0  0  0  0  0  0  0  0  0  0  0  0
    0.6987    2.8584   -1.1231 H   0  0  0  0  0  0  0  0  0  0  0  0
    0.3707    1.2468    0.8083 H   0  0  0  0  0  0  0  0  0  0  0  0
   -1.2042    0.5113    1.0606 H   0  0  0  0  0  0  0  0  0  0  0  0
  1  2  1  0
  2  3  1  0
  3  4  1  0
  4  5  2  0
  5  6  1  0
  6  7  2  0
  7  8  1  0
  8  9  2  0
  9 10  1  0
 10 11  1  0
 11 12  1  0
 12 13  2  0
 12 14  1  0
 14 15  1  0
 15 16  1  0
 16 17  1  0
 17 18  1  0
 18 19  1  0
 19 20  1  0
 19 21  1  0
 19 22  1  0
 22 23  1  0
 23 24  1  0
 24 25  2  0
 25 26  1  0
 26 27  2  0
 27 28  1  0
 28 29  2  0
 29 30  1  0
 30 31  1  0
 31 32  2  0
 32 33  1  0
 33 34  2  0
 34 35  1  0
 35 36  2  0
 36 37  1  0
  9  4  1  0
 37 15  1  0
 29 24  1  0
 36 31  1  0
  1 38  1  0
  1 39  1  0
  1 40  1  0
  3 41  1  0
  3 42  1  0
  5 43  1  0
  6 44  1  0
  7 45  1  0
  8 46  1  0
 10 47  1  0
 10 48  1  0
 11 49  1  0
 14 50  1  0
 14 51  1  0
 16 52  1  0
 16 53  1  0
 17 54  1  0
 17 55  1  0
 18 56  1  0
 18 57  1  0
 20 58  1  0
 20 59  1  0
 20 60  1  0
 21 61  1  0
 21 62  1  0
 21 63  1  0
 22 64  1  0
 22 65  1  0
 25 66  1  0
 26 67  1  0
 27 68  1  0
 28 69  1  0
 33 70  1  0
 34 71  1  0
 35 72  1  0
 37 73  1  0
 37 74  1  0
M  END
$$$$
