
     RDKit          3D

 70 73  0  0  0  0  0  0  0  0999 V2000
    4.4602   -0.0671   -0.2518 O   0  0  0  0  0  0  0  0  0  0  0  0
    4.1101    1.1372   -0.3922 C   0  0  0  0  0  0  0  0  0  0  0  0
    2.9717    1.4823   -1.3084 C   0  0  0  0  0  0  0  0  0  0  0  0
    1.8238    0.5203   -1.1418 C   0  0  0  0  0  0  0  0  0  0  0  0
    1.5283   -0.4117   -2.1445 C   0  0  0  0  0  0  0  0  0  0  0  0
    0.4765   -1.3149   -1.9831 C   0  0  0  0  0  0  0  0  0  0  0  0
   -0.2963   -1.3115   -0.8041 C   0  0  0  0  0  0  0  0  0  0  0  0
   -0.0185   -0.3563    0.1987 C   0  0  0  0  0  0  0  0  0  0  0  0
    1.0501    0.5416    0.0269 C   0  0  0  0  0  0  0  0  0  0  0  0
   -0.8994   -0.2409    1.4249 C   0  0  0  0  0  0  0  0  0  0  0  0
   -2.1953    0.3884    1.0694 N   0  0  0  0  0  0  0  0  0  0  0  0
   -2.0338    1.8593    0.9067 C   0  0  0  0  0  0  0  0  0  0  0  0
   -2.9359    2.3872   -0.1725 C   0  0  0  0  0  0  0  0  0  0  0  0
   -3.8619    3.4100    0.1062 C   0  0  0  0  0  0  0  0  0  0  0  0
   -4.6930    3.8992   -0.9064 C   0  0  0  0  0  0  0  0  0  0  0  0
   -4.5982    3.3805   -2.2024 C   0  0  0  0  0  0  0  0  0  0  0  0
   -3.6715    2.3728   -2.4884 C   0  0  0  0  0  0  0  0  0  0  0  0
   -2.8382    1.8800   -1.4796 C   0  0  0  0  0  0  0  0  0  0  0  0
   -3.2689    0.0505    2.0455 C   0  0  0  0  0  0  0  0  0  0  0  0
   -4.5765   -0.2093    1.3334 C   0  0  0  0  0  0  0  0  0  0  0  0
   -5.1218    0.7400    0.7088 O   0  0  0  0  0  0  0  0  0  0  0  0
   -5.2641   -1.4750    1.3749 N   0  0  0  0  0  0  0  0  0  0  0  0
   -4.7947   -2.6947    2.0322 C   0  0  0  0  0  0  0  0  0  0  0  0
   -3.6184   -3.3325    1.2834 C   0  0  0  0  0  0  0  0  0  0  0  0
   -3.9199   -3.5795   -0.2043 C   0  0  0  0  0  0  0  0  0  0  0  0
   -2.7243   -4.2244   -0.9295 C   0  0  0  0  0  0  0  0  0  0  0  0
   -1.7681   -3.2033   -1.5590 C   0  0  0  0  0  0  0  0  0  0  0  0
   -1.3242   -2.2481   -0.5934 O   0  0  0  0  0  0  0  0  0  0  0  0
    4.8370    2.1852    0.2684 N   0  0  0  0  0  0  0  0  0  0  0  0
    5.7952    1.9176    1.3387 C   0  0  0  0  0  0  0  0  0  0  0  0
    7.0480    1.2879    0.7891 C   0  0  0  0  0  0  0  0  0  0  0  0
    7.4516    0.0091    1.2053 C   0  0  0  0  0  0  0  0  0  0  0  0
    8.6242   -0.5527    0.6959 C   0  0  0  0  0  0  0  0  0  0  0  0
    9.3858    0.1712   -0.2240 C   0  0  0  0  0  0  0  0  0  0  0  0
    8.9832    1.4095   -0.6179 N   0  0  0  0  0  0  0  0  0  0  0  0
    7.8449    1.9783   -0.1372 C   0  0  0  0  0  0  0  0  0  0  0  0
    2.6100    2.5087   -1.0909 H   0  0  0  0  0  0  0  0  0  0  0  0
    3.3425    1.4843   -2.3542 H   0  0  0  0  0  0  0  0  0  0  0  0
    2.1136   -0.4434   -3.0550 H   0  0  0  0  0  0  0  0  0  0  0  0
    0.2816   -2.0178   -2.7822 H   0  0  0  0  0  0  0  0  0  0  0  0
    1.2744    1.2692    0.7983 H   0  0  0  0  0  0  0  0  0  0  0  0
   -1.0337   -1.2657    1.8283 H   0  0  0  0  0  0  0  0  0  0  0  0
   -0.3938    0.3370    2.2324 H   0  0  0  0  0  0  0  0  0  0  0  0
   -2.1861    2.4019    1.8668 H   0  0  0  0  0  0  0  0  0  0  0  0
   -1.0052    2.1278    0.5938 H   0  0  0  0  0  0  0  0  0  0  0  0
   -3.9472    3.8204    1.1063 H   0  0  0  0  0  0  0  0  0  0  0  0
   -5.4135    4.6782   -0.6856 H   0  0  0  0  0  0  0  0  0  0  0  0
   -5.2418    3.7610   -2.9861 H   0  0  0  0  0  0  0  0  0  0  0  0
   -3.5986    1.9744   -3.4924 H   0  0  0  0  0  0  0  0  0  0  0  0
   -2.1191    1.1031   -1.7135 H   0  0  0  0  0  0  0  0  0  0  0  0
   -3.4332    0.8660    2.7833 H   0  0  0  0  0  0  0  0  0  0  0  0
   -3.0022   -0.8214    2.6716 H   0  0  0  0  0  0  0  0  0  0  0  0
   -6.1988   -1.5216    0.9107 H   0  0  0  0  0  0  0  0  0  0  0  0
   -5.6284   -3.4301    2.0623 H   0  0  0  0  0  0  0  0  0  0  0  0
   -4.5151   -2.4805    3.0852 H   0  0  0  0  0  0  0  0  0  0  0  0
   -2.7281   -2.6922    1.3845 H   0  0  0  0  0  0  0  0  0  0  0  0
   -3.3829   -4.3022    1.7740 H   0  0  0  0  0  0  0  0  0  0  0  0
   -4.7918   -4.2669   -0.2733 H   0  0  0  0  0  0  0  0  0  0  0  0
   -4.2025   -2.6303   -0.7113 H   0  0  0  0  0  0  0  0  0  0  0  0
   -3.1149   -4.8661   -1.7481 H   0  0  0  0  0  0  0  0  0  0  0  0
   -2.1568   -4.8878   -0.2408 H   0  0  0  0  0  0  0  0  0  0  0  0
   -0.8969   -3.7711   -1.9525 H   0  0  0  0  0  0  0  0  0  0  0  0
   -2.2715   -2.6753   -2.4002 H   0  0  0  0  0  0  0  0  0  0  0  0
    4.6231    3.1817    0.0301 H   0  0  0  0  0  0  0  0  0  0  0  0
    5.3202    1.2682    2.1066 H   0  0  0  0  0  0  0  0  0  0  0  0
    6.0645    2.8740    1.8386 H   0  0  0  0  0  0  0  0  0  0  0  0
    6.8632   -0.5483    1.9248 H   0  0  0  0  0  0  0  0  0  0  0  0
    8.9426   -1.5375    1.0150 H   0  0  0  0  0  0  0  0  0  0  0  0
   10.2977   -0.2515   -0.6250 H   0  0  0  0  0  0  0  0  0  0  0  0
    7.5608    2.9676   -0.4741 H   0  0  0  0  0  0  0  0  0  0  0  0
  1  2  2  0
  2  3  1  0
  3  4  1  0
  4  5  2  0
  5  6  1  0
  6  7  2  0
  7  8  1  0
  8  9  2  0
  8 10  1  0
 10 11  1  0
 11 12  1  0
 12 13  1  0
 13 14  2  0
 14 15  1  0
 15 16  2  0
 16 17  1  0
 17 18  2  0
 11 19  1  0
 19 20  1  0
 20 21  2  0
 20 22  1  0
 22 23  1  0
 23 24  1  0
 24 25  1  0
 25 26  1  0
 26 27  1  0
 27 28  1  0
  2 29  1  0
 29 30  1  0
 30 31  1  0
 31 32  2  0
 32 33  1  0
 33 34  2  0
 34 35  1  0
 35 36  2  0
  9  4  1  0
 18 13  1  0
 36 31  1  0
 28  7  1  0
  3 37  1  0
  3 38  1  0
  5 39  1  0
  6 40  1  0
  9 41  1  0
 10 42  1  0
 10 43  1  0
 12 44  1  0
 12 45  1  0
 14 46  1  0
 15 47  1  0
 16 48  1  0
 17 49  1  0
 18 50  1  0
 19 51  1  0
 19 52  1  0
 22 53  1  0
 23 54  1  0
 23 55  1  0
 24 56  1  0
 24 57  1  0
 25 58  1  0
 25 59  1  0
 26 60  1  0
 26 61  1  0
 27 62  1  0
 27 63  1  0
 29 64  1  0
 30 65  1  0
 30 66  1  0
 32 67  1  0
 33 68  1  0
 34 69  1  0
 36 70  1  0
M  END
$$$$
