
     RDKit          3D

 55 57  0  0  0  0  0  0  0  0999 V2000
    2.2436    0.0340   -3.6465 C   0  0  0  0  0  0  0  0  0  0  0  0
    3.0829   -0.6849   -2.6315 C   0  0  0  0  0  0  0  0  0  0  0  0
    4.3931   -1.0828   -2.9330 C   0  0  0  0  0  0  0  0  0  0  0  0
    5.1463   -1.7170   -1.9957 N   0  0  0  0  0  0  0  0  0  0  0  0
    4.6676   -1.9855   -0.7509 C   0  0  0  0  0  0  0  0  0  0  0  0
    3.3700   -1.5910   -0.3900 C   0  0  0  0  0  0  0  0  0  0  0  0
    2.8429   -1.8829    0.9635 C   0  0  0  0  0  0  0  0  0  0  0  0
    3.2551   -2.9058    1.5790 O   0  0  0  0  0  0  0  0  0  0  0  0
    1.8460   -1.0428    1.5772 N   0  0  0  0  0  0  0  0  0  0  0  0
    2.0141    0.4196    1.5971 C   0  0  0  0  0  0  0  0  0  0  0  0
    0.8168    1.1381    0.9370 C   0  0  0  0  0  0  0  0  0  0  0  0
    0.1950    2.1943    1.8662 C   0  0  0  0  0  0  0  0  0  0  0  0
   -1.0766    2.8225    1.2631 C   0  0  0  0  0  0  0  0  0  0  0  0
   -2.2810    2.2834    1.9088 N   0  0  0  0  0  0  0  0  0  0  0  0
   -3.3494    1.6207    1.2124 C   0  0  0  0  0  0  0  0  0  0  0  0
   -4.4044    1.3277    1.8361 O   0  0  0  0  0  0  0  0  0  0  0  0
   -3.2677    1.3111   -0.2237 C   0  0  0  0  0  0  0  0  0  0  0  0
   -3.7751    2.2756   -1.1131 C   0  0  0  0  0  0  0  0  0  0  0  0
   -3.6888    2.0898   -2.4950 C   0  0  0  0  0  0  0  0  0  0  0  0
   -4.3487    3.2978   -3.5921 Cl  0  0  0  0  0  0  0  0  0  0  0  0
   -3.0853    0.9403   -3.0025 C   0  0  0  0  0  0  0  0  0  0  0  0
   -2.5884   -0.0338   -2.1316 C   0  0  0  0  0  0  0  0  0  0  0  0
   -2.6798    0.1213   -0.7392 C   0  0  0  0  0  0  0  0  0  0  0  0
   -2.1749   -0.9419    0.0365 O   0  0  0  0  0  0  0  0  0  0  0  0
   -2.2897   -1.1271    1.4486 C   0  0  0  0  0  0  0  0  0  0  0  0
   -1.6261   -2.4477    1.8533 C   0  0  0  0  0  0  0  0  0  0  0  0
   -0.1413   -2.5121    1.4576 C   0  0  0  0  0  0  0  0  0  0  0  0
    0.7705   -1.6618    2.3665 C   0  0  0  0  0  0  0  0  0  0  0  0
    2.5761   -0.9447   -1.3506 C   0  0  0  0  0  0  0  0  0  0  0  0
    1.2006   -0.3533   -3.6233 H   0  0  0  0  0  0  0  0  0  0  0  0
    2.2317    1.1224   -3.4171 H   0  0  0  0  0  0  0  0  0  0  0  0
    2.6443   -0.1144   -4.6717 H   0  0  0  0  0  0  0  0  0  0  0  0
    4.8192   -0.8826   -3.9080 H   0  0  0  0  0  0  0  0  0  0  0  0
    5.3136   -2.4750   -0.0347 H   0  0  0  0  0  0  0  0  0  0  0  0
    2.1509    0.7431    2.6526 H   0  0  0  0  0  0  0  0  0  0  0  0
    2.9466    0.7127    1.0681 H   0  0  0  0  0  0  0  0  0  0  0  0
    1.1628    1.6388    0.0045 H   0  0  0  0  0  0  0  0  0  0  0  0
    0.0390    0.4077    0.6353 H   0  0  0  0  0  0  0  0  0  0  0  0
    0.9480    2.9960    2.0428 H   0  0  0  0  0  0  0  0  0  0  0  0
   -0.0385    1.7337    2.8540 H   0  0  0  0  0  0  0  0  0  0  0  0
   -1.1034    2.6826    0.1593 H   0  0  0  0  0  0  0  0  0  0  0  0
   -1.0551    3.9228    1.4367 H   0  0  0  0  0  0  0  0  0  0  0  0
   -2.4002    2.4598    2.9346 H   0  0  0  0  0  0  0  0  0  0  0  0
   -4.2343    3.1797   -0.7293 H   0  0  0  0  0  0  0  0  0  0  0  0
   -3.0097    0.7943   -4.0728 H   0  0  0  0  0  0  0  0  0  0  0  0
   -2.1316   -0.9259   -2.5417 H   0  0  0  0  0  0  0  0  0  0  0  0
   -3.3635   -1.1656    1.7320 H   0  0  0  0  0  0  0  0  0  0  0  0
   -1.7947   -0.2987    1.9912 H   0  0  0  0  0  0  0  0  0  0  0  0
   -2.1645   -3.2777    1.3463 H   0  0  0  0  0  0  0  0  0  0  0  0
   -1.7323   -2.5986    2.9495 H   0  0  0  0  0  0  0  0  0  0  0  0
    0.1944   -3.5705    1.5159 H   0  0  0  0  0  0  0  0  0  0  0  0
   -0.0297   -2.2065    0.3940 H   0  0  0  0  0  0  0  0  0  0  0  0
    1.2122   -2.3062    3.1593 H   0  0  0  0  0  0  0  0  0  0  0  0
    0.1920   -0.8777    2.8995 H   0  0  0  0  0  0  0  0  0  0  0  0
    1.5594   -0.6556   -1.1132 H   0  0  0  0  0  0  0  0  0  0  0  0
  1  2  1  0
  2  3  2  0
  3  4  1  0
  4  5  2  0
  5  6  1  0
  6  7  1  0
  7  8  2  0
  7  9  1  0
  9 10  1  0
 10 11  1  0
 11 12  1  0
 12 13  1  0
 13 14  1  0
 14 15  1  0
 15 16  2  0
 15 17  1  0
 17 18  2  0
 18 19  1  0
 19 20  1  0
 19 21  2  0
 21 22  1  0
 22 23  2  0
 23 24  1  0
 24 25  1  0
 25 26  1  0
 26 27  1  0
 27 28  1  0
  6 29  2  0
 29  2  1  0
 28  9  1  0
 23 17  1  0
  1 30  1  0
  1 31  1  0
  1 32  1  0
  3 33  1  0
  5 34  1  0
 10 35  1  0
 10 36  1  0
 11 37  1  0
 11 38  1  0
 12 39  1  0
 12 40  1  0
 13 41  1  0
 13 42  1  0
 14 43  1  0
 18 44  1  0
 21 45  1  0
 22 46  1  0
 25 47  1  0
 25 48  1  0
 26 49  1  0
 26 50  1  0
 27 51  1  0
 27 52  1  0
 28 53  1  0
 28 54  1  0
 29 55  1  0
M  END
$$$$
