
     RDKit          3D

 62 64  0  0  0  0  0  0  0  0999 V2000
    6.0447   -1.3966   -0.4911 C   0  0  0  0  0  0  0  0  0  0  0  0
    5.3935   -0.2624    0.3150 C   0  0  0  0  0  0  0  0  0  0  0  0
    5.0907   -0.7730    1.7371 C   0  0  0  0  0  0  0  0  0  0  0  0
    6.3617    0.9350    0.3620 C   0  0  0  0  0  0  0  0  0  0  0  0
    4.1797    0.0955   -0.3615 O   0  0  0  0  0  0  0  0  0  0  0  0
    3.2559    1.0672    0.0519 C   0  0  0  0  0  0  0  0  0  0  0  0
    3.4720    1.7913    1.0606 O   0  0  0  0  0  0  0  0  0  0  0  0
    1.9961    1.2557   -0.7356 C   0  0  0  0  0  0  0  0  0  0  0  0
    1.3104   -0.0324   -0.9661 N   0  0  0  0  0  0  0  0  0  0  0  0
    0.9718   -0.8257    0.2397 C   0  0  0  0  0  0  0  0  0  0  0  0
    0.1777   -0.0408    1.2930 C   0  0  0  0  0  0  0  0  0  0  0  0
   -0.3135   -0.9584    2.4255 C   0  0  0  0  0  0  0  0  0  0  0  0
   -1.5477   -0.3945    3.1524 C   0  0  0  0  0  0  0  0  0  0  0  0
   -2.8646   -0.6336    2.3782 C   0  0  0  0  0  0  0  0  0  0  0  0
   -3.4062    0.6424    1.7187 C   0  0  0  0  0  0  0  0  0  0  0  0
   -4.5957    0.3778    0.9768 O   0  0  0  0  0  0  0  0  0  0  0  0
   -4.7514   -0.5240   -0.0921 C   0  0  0  0  0  0  0  0  0  0  0  0
   -6.0428   -1.0330   -0.2916 C   0  0  0  0  0  0  0  0  0  0  0  0
   -6.2972   -1.9792   -1.2856 C   0  0  0  0  0  0  0  0  0  0  0  0
   -5.2614   -2.4276   -2.1024 C   0  0  0  0  0  0  0  0  0  0  0  0
   -3.9746   -1.9141   -1.9405 C   0  0  0  0  0  0  0  0  0  0  0  0
   -3.7067   -0.9463   -0.9627 C   0  0  0  0  0  0  0  0  0  0  0  0
   -2.4083   -0.4308   -0.9180 O   0  0  0  0  0  0  0  0  0  0  0  0
   -2.0791    0.8228   -1.4464 C   0  0  0  0  0  0  0  0  0  0  0  0
   -3.0291    1.7983   -1.5144 N   0  0  0  0  0  0  0  0  0  0  0  0
   -2.7607    3.0377   -1.9974 C   0  0  0  0  0  0  0  0  0  0  0  0
   -1.4831    3.3427   -2.4587 C   0  0  0  0  0  0  0  0  0  0  0  0
   -0.4936    2.3611   -2.4286 C   0  0  0  0  0  0  0  0  0  0  0  0
   -0.7684    1.0845   -1.9071 C   0  0  0  0  0  0  0  0  0  0  0  0
    0.2753   -0.0166   -2.0297 C   0  0  0  0  0  0  0  0  0  0  0  0
    5.3591   -2.2695   -0.5504 H   0  0  0  0  0  0  0  0  0  0  0  0
    6.9966   -1.7255   -0.0201 H   0  0  0  0  0  0  0  0  0  0  0  0
    6.2613   -1.0577   -1.5273 H   0  0  0  0  0  0  0  0  0  0  0  0
    6.0144   -1.1630    2.2168 H   0  0  0  0  0  0  0  0  0  0  0  0
    4.6923    0.0370    2.3817 H   0  0  0  0  0  0  0  0  0  0  0  0
    4.3387   -1.5902    1.6996 H   0  0  0  0  0  0  0  0  0  0  0  0
    7.3480    0.6238    0.7693 H   0  0  0  0  0  0  0  0  0  0  0  0
    5.9716    1.7462    1.0100 H   0  0  0  0  0  0  0  0  0  0  0  0
    6.5133    1.3453   -0.6594 H   0  0  0  0  0  0  0  0  0  0  0  0
    2.2962    1.6956   -1.7097 H   0  0  0  0  0  0  0  0  0  0  0  0
    1.3213    1.9766   -0.2251 H   0  0  0  0  0  0  0  0  0  0  0  0
    1.9085   -1.1998    0.7050 H   0  0  0  0  0  0  0  0  0  0  0  0
    0.4027   -1.7333   -0.0586 H   0  0  0  0  0  0  0  0  0  0  0  0
    0.8094    0.7579    1.7367 H   0  0  0  0  0  0  0  0  0  0  0  0
   -0.6661    0.4463    0.7935 H   0  0  0  0  0  0  0  0  0  0  0  0
   -0.5455   -1.9785    2.0485 H   0  0  0  0  0  0  0  0  0  0  0  0
    0.5130   -1.0746    3.1603 H   0  0  0  0  0  0  0  0  0  0  0  0
   -1.3989    0.6829    3.3859 H   0  0  0  0  0  0  0  0  0  0  0  0
   -1.6251   -0.9202    4.1293 H   0  0  0  0  0  0  0  0  0  0  0  0
   -2.7356   -1.4311    1.6172 H   0  0  0  0  0  0  0  0  0  0  0  0
   -3.6373   -0.9994    3.0895 H   0  0  0  0  0  0  0  0  0  0  0  0
   -2.6656    1.1486    1.0845 H   0  0  0  0  0  0  0  0  0  0  0  0
   -3.6635    1.3663    2.5207 H   0  0  0  0  0  0  0  0  0  0  0  0
   -6.8536   -0.7078    0.3483 H   0  0  0  0  0  0  0  0  0  0  0  0
   -7.2974   -2.3714   -1.4165 H   0  0  0  0  0  0  0  0  0  0  0  0
   -5.4575   -3.1659   -2.8691 H   0  0  0  0  0  0  0  0  0  0  0  0
   -3.1814   -2.2515   -2.5959 H   0  0  0  0  0  0  0  0  0  0  0  0
   -3.5428    3.7842   -2.0289 H   0  0  0  0  0  0  0  0  0  0  0  0
   -1.2674    4.3244   -2.8602 H   0  0  0  0  0  0  0  0  0  0  0  0
    0.4775    2.5905   -2.8461 H   0  0  0  0  0  0  0  0  0  0  0  0
   -0.2222   -1.0077   -2.1025 H   0  0  0  0  0  0  0  0  0  0  0  0
    0.7906    0.0984   -3.0081 H   0  0  0  0  0  0  0  0  0  0  0  0
  1  2  1  0
  2  3  1  0
  2  4  1  0
  2  5  1  0
  5  6  1  0
  6  7  2  0
  6  8  1  0
  8  9  1  0
  9 10  1  0
 10 11  1  0
 11 12  1  0
 12 13  1  0
 13 14  1  0
 14 15  1  0
 15 16  1  0
 16 17  1  0
 17 18  2  0
 18 19  1  0
 19 20  2  0
 20 21  1  0
 21 22  2  0
 22 23  1  0
 23 24  1  0
 24 25  2  0
 25 26  1  0
 26 27  2  0
 27 28  1  0
 28 29  2  0
 29 30  1  0
 30  9  1  0
 22 17  1  0
 29 24  1  0
  1 31  1  0
  1 32  1  0
  1 33  1  0
  3 34  1  0
  3 35  1  0
  3 36  1  0
  4 37  1  0
  4 38  1  0
  4 39  1  0
  8 40  1  0
  8 41  1  0
 10 42  1  0
 10 43  1  0
 11 44  1  0
 11 45  1  0
 12 46  1  0
 12 47  1  0
 13 48  1  0
 13 49  1  0
 14 50  1  0
 14 51  1  0
 15 52  1  0
 15 53  1  0
 18 54  1  0
 19 55  1  0
 20 56  1  0
 21 57  1  0
 26 58  1  0
 27 59  1  0
 28 60  1  0
 30 61  1  0
 30 62  1  0
M  END
$$$$
