
     RDKit          3D

 63 66  0  0  0  0  0  0  0  0999 V2000
    3.0156    1.2616    2.0634 C   0  0  0  0  0  0  0  0  0  0  0  0
    3.1064    0.0512    1.2425 N   0  0  0  0  0  0  0  0  0  0  0  0
    2.7796   -1.2540    1.8413 C   0  0  0  0  0  0  0  0  0  0  0  0
    1.2735   -1.4213    2.1005 C   0  0  0  0  0  0  0  0  0  0  0  0
    0.4418   -1.4379    0.8007 C   0  0  0  0  0  0  0  0  0  0  0  0
   -0.6873   -0.3858    0.7990 C   0  0  0  0  0  0  0  0  0  0  0  0
   -1.1568   -0.1019   -0.5739 N   0  0  0  0  0  0  0  0  0  0  0  0
   -1.9197   -1.0988   -1.3107 C   0  0  0  0  0  0  0  0  0  0  0  0
   -2.3625   -0.8303   -2.4616 O   0  0  0  0  0  0  0  0  0  0  0  0
   -2.1626   -2.4591   -0.7954 C   0  0  0  0  0  0  0  0  0  0  0  0
   -3.1187   -2.6944    0.2082 C   0  0  0  0  0  0  0  0  0  0  0  0
   -3.8535   -1.6765    0.7174 F   0  0  0  0  0  0  0  0  0  0  0  0
   -3.3374   -3.9942    0.6780 C   0  0  0  0  0  0  0  0  0  0  0  0
   -2.6182   -5.0654    0.1399 C   0  0  0  0  0  0  0  0  0  0  0  0
   -1.6869   -4.8410   -0.8779 C   0  0  0  0  0  0  0  0  0  0  0  0
   -1.4650   -3.5455   -1.3542 C   0  0  0  0  0  0  0  0  0  0  0  0
   -0.5566   -3.3454   -2.3417 F   0  0  0  0  0  0  0  0  0  0  0  0
   -0.9228    1.2149   -1.2291 C   0  0  0  0  0  0  0  0  0  0  0  0
   -2.1842    2.1125   -1.1508 C   0  0  0  0  0  0  0  0  0  0  0  0
   -2.5177    2.5766    0.2482 C   0  0  0  0  0  0  0  0  0  0  0  0
   -2.0584    3.8218    0.7152 C   0  0  0  0  0  0  0  0  0  0  0  0
   -2.3532    4.2393    2.0166 C   0  0  0  0  0  0  0  0  0  0  0  0
   -3.1147    3.4236    2.8586 C   0  0  0  0  0  0  0  0  0  0  0  0
   -3.5837    2.1903    2.3987 C   0  0  0  0  0  0  0  0  0  0  0  0
   -3.2943    1.7700    1.0962 C   0  0  0  0  0  0  0  0  0  0  0  0
    0.3483    1.9764   -0.7655 C   0  0  0  0  0  0  0  0  0  0  0  0
    1.4835    1.1230   -0.6241 O   0  0  0  0  0  0  0  0  0  0  0  0
    2.3898    0.7557   -1.6285 C   0  0  0  0  0  0  0  0  0  0  0  0
    2.0977    0.9470   -2.9938 C   0  0  0  0  0  0  0  0  0  0  0  0
    3.0049    0.5481   -3.9764 C   0  0  0  0  0  0  0  0  0  0  0  0
    4.2143   -0.0386   -3.6131 C   0  0  0  0  0  0  0  0  0  0  0  0
    4.5322   -0.2073   -2.2648 C   0  0  0  0  0  0  0  0  0  0  0  0
    3.6365    0.1927   -1.2557 C   0  0  0  0  0  0  0  0  0  0  0  0
    4.0561    0.0655    0.1671 C   0  0  0  0  0  0  0  0  0  0  0  0
    5.2862    0.0096    0.4486 O   0  0  0  0  0  0  0  0  0  0  0  0
    2.0879    1.2635    2.6683 H   0  0  0  0  0  0  0  0  0  0  0  0
    3.8885    1.3215    2.7468 H   0  0  0  0  0  0  0  0  0  0  0  0
    2.9888    2.1606    1.4152 H   0  0  0  0  0  0  0  0  0  0  0  0
    3.1119   -2.0800    1.1729 H   0  0  0  0  0  0  0  0  0  0  0  0
    3.3342   -1.3645    2.7987 H   0  0  0  0  0  0  0  0  0  0  0  0
    0.9112   -0.6570    2.8180 H   0  0  0  0  0  0  0  0  0  0  0  0
    1.1340   -2.3963    2.6202 H   0  0  0  0  0  0  0  0  0  0  0  0
   -0.0019   -2.4474    0.6976 H   0  0  0  0  0  0  0  0  0  0  0  0
    1.0870   -1.2998   -0.0918 H   0  0  0  0  0  0  0  0  0  0  0  0
   -1.5315   -0.7436    1.4220 H   0  0  0  0  0  0  0  0  0  0  0  0
   -0.3376    0.5421    1.2919 H   0  0  0  0  0  0  0  0  0  0  0  0
   -4.0679   -4.1753    1.4558 H   0  0  0  0  0  0  0  0  0  0  0  0
   -2.7875   -6.0679    0.5063 H   0  0  0  0  0  0  0  0  0  0  0  0
   -1.1379   -5.6737   -1.2990 H   0  0  0  0  0  0  0  0  0  0  0  0
   -0.7606    1.0242   -2.3099 H   0  0  0  0  0  0  0  0  0  0  0  0
   -3.0565    1.5668   -1.5693 H   0  0  0  0  0  0  0  0  0  0  0  0
   -2.0392    2.9975   -1.8084 H   0  0  0  0  0  0  0  0  0  0  0  0
   -1.4673    4.4646    0.0753 H   0  0  0  0  0  0  0  0  0  0  0  0
   -1.9900    5.1950    2.3723 H   0  0  0  0  0  0  0  0  0  0  0  0
   -3.3421    3.7483    3.8653 H   0  0  0  0  0  0  0  0  0  0  0  0
   -4.1758    1.5608    3.0518 H   0  0  0  0  0  0  0  0  0  0  0  0
   -3.6695    0.8190    0.7488 H   0  0  0  0  0  0  0  0  0  0  0  0
    0.5806    2.8034   -1.4695 H   0  0  0  0  0  0  0  0  0  0  0  0
    0.1799    2.4495    0.2201 H   0  0  0  0  0  0  0  0  0  0  0  0
    1.1781    1.4109   -3.3135 H   0  0  0  0  0  0  0  0  0  0  0  0
    2.7687    0.6950   -5.0215 H   0  0  0  0  0  0  0  0  0  0  0  0
    4.9154   -0.3500   -4.3763 H   0  0  0  0  0  0  0  0  0  0  0  0
    5.4870   -0.6499   -2.0108 H   0  0  0  0  0  0  0  0  0  0  0  0
  1  2  1  0
  2  3  1  0
  3  4  1  0
  4  5  1  0
  5  6  1  0
  6  7  1  0
  7  8  1  0
  8  9  2  0
  8 10  1  0
 10 11  2  0
 11 12  1  0
 11 13  1  0
 13 14  2  0
 14 15  1  0
 15 16  2  0
 16 17  1  0
  7 18  1  0
 18 19  1  0
 19 20  1  0
 20 21  2  0
 21 22  1  0
 22 23  2  0
 23 24  1  0
 24 25  2  0
 18 26  1  0
 26 27  1  0
 27 28  1  0
 28 29  2  0
 29 30  1  0
 30 31  2  0
 31 32  1  0
 32 33  2  0
 33 34  1  0
 34 35  2  0
 34  2  1  0
 16 10  1  0
 25 20  1  0
 33 28  1  0
  1 36  1  0
  1 37  1  0
  1 38  1  0
  3 39  1  0
  3 40  1  0
  4 41  1  0
  4 42  1  0
  5 43  1  0
  5 44  1  0
  6 45  1  0
  6 46  1  0
 13 47  1  0
 14 48  1  0
 15 49  1  0
 18 50  1  0
 19 51  1  0
 19 52  1  0
 21 53  1  0
 22 54  1  0
 23 55  1  0
 24 56  1  0
 25 57  1  0
 26 58  1  0
 26 59  1  0
 29 60  1  0
 30 61  1  0
 31 62  1  0
 32 63  1  0
M  END
$$$$
