
     RDKit          3D

 66 67  0  0  0  0  0  0  0  0999 V2000
   -4.2891   -0.6097    1.9046 C   0  0  0  0  0  0  0  0  0  0  0  0
   -3.3354   -0.0946    1.0024 O   0  0  0  0  0  0  0  0  0  0  0  0
   -3.8616   -0.0363   -0.3142 C   0  0  0  0  0  0  0  0  0  0  0  0
   -2.8140   -0.6106   -1.2929 C   0  0  0  0  0  0  0  0  0  0  0  0
   -2.5221   -2.0282   -0.9746 N   0  0  0  0  0  0  0  0  0  0  0  0
   -3.5234   -3.0204   -1.3097 C   0  0  0  0  0  0  0  0  0  0  0  0
   -3.4799   -4.4076   -0.7390 C   0  0  0  0  0  0  0  0  0  0  0  0
   -4.4612   -2.7294   -2.1021 O   0  0  0  0  0  0  0  0  0  0  0  0
   -1.2598   -2.4935   -0.3516 C   0  0  0  0  0  0  0  0  0  0  0  0
   -0.1929   -1.4082   -0.1705 C   0  0  0  0  0  0  0  0  0  0  0  0
    1.0699   -1.9492    0.5104 C   0  0  0  0  0  0  0  0  0  0  0  0
    2.1761   -0.9743    0.4201 N   0  0  0  0  0  0  0  0  0  0  0  0
    2.9545   -0.9404   -0.8098 C   0  0  0  0  0  0  0  0  0  0  0  0
    2.4795   -1.4840   -1.8456 O   0  0  0  0  0  0  0  0  0  0  0  0
    4.3242   -0.3671   -0.9097 C   0  0  0  0  0  0  0  0  0  0  0  0
    5.2486   -0.9155   -1.8154 C   0  0  0  0  0  0  0  0  0  0  0  0
    6.5217   -0.3538   -1.9286 C   0  0  0  0  0  0  0  0  0  0  0  0
    6.8666    0.7520   -1.1516 C   0  0  0  0  0  0  0  0  0  0  0  0
    5.9254    1.2824   -0.2627 C   0  0  0  0  0  0  0  0  0  0  0  0
    6.2544    2.4829    0.5656 C   0  0  0  0  0  0  0  0  0  0  0  0
    4.6906    0.7181   -0.1746 N   0  0  0  0  0  0  0  0  0  0  0  0
    2.5861   -0.2512    1.6392 C   0  0  0  0  0  0  0  0  0  0  0  0
    2.2180    1.2454    1.5769 C   0  0  0  0  0  0  0  0  0  0  0  0
    0.7199    1.5153    1.8308 C   0  0  0  0  0  0  0  0  0  0  0  0
   -0.0010    2.0411    0.5833 C   0  0  0  0  0  0  0  0  0  0  0  0
   -1.3954    1.9412    0.7872 O   0  0  0  0  0  0  0  0  0  0  0  0
   -2.0871    2.6761   -0.2013 C   0  0  0  0  0  0  0  0  0  0  0  0
   -3.6086    2.5926    0.0412 C   0  0  0  0  0  0  0  0  0  0  0  0
   -3.8940    2.5718    1.4176 O   0  0  0  0  0  0  0  0  0  0  0  0
   -4.3291    1.4151   -0.6696 C   0  0  0  0  0  0  0  0  0  0  0  0
   -4.3078    1.6335   -2.0586 O   0  0  0  0  0  0  0  0  0  0  0  0
   -4.5010   -1.6789    1.6823 H   0  0  0  0  0  0  0  0  0  0  0  0
   -5.2286   -0.0135    1.8844 H   0  0  0  0  0  0  0  0  0  0  0  0
   -3.8716   -0.5530    2.9306 H   0  0  0  0  0  0  0  0  0  0  0  0
   -4.7625   -0.6856   -0.4437 H   0  0  0  0  0  0  0  0  0  0  0  0
   -3.1863   -0.5540   -2.3379 H   0  0  0  0  0  0  0  0  0  0  0  0
   -1.9145    0.0240   -1.2807 H   0  0  0  0  0  0  0  0  0  0  0  0
   -4.3893   -4.9766   -1.0303 H   0  0  0  0  0  0  0  0  0  0  0  0
   -3.4401   -4.3585    0.3695 H   0  0  0  0  0  0  0  0  0  0  0  0
   -2.5905   -4.9491   -1.1229 H   0  0  0  0  0  0  0  0  0  0  0  0
   -1.4912   -2.9263    0.6460 H   0  0  0  0  0  0  0  0  0  0  0  0
   -0.8228   -3.2958   -0.9859 H   0  0  0  0  0  0  0  0  0  0  0  0
   -0.6178   -0.6186    0.4727 H   0  0  0  0  0  0  0  0  0  0  0  0
    0.0724   -0.9898   -1.1638 H   0  0  0  0  0  0  0  0  0  0  0  0
    1.3825   -2.9080    0.0405 H   0  0  0  0  0  0  0  0  0  0  0  0
    0.8267   -2.1880    1.5685 H   0  0  0  0  0  0  0  0  0  0  0  0
    4.9924   -1.7747   -2.4230 H   0  0  0  0  0  0  0  0  0  0  0  0
    7.2402   -0.7748   -2.6202 H   0  0  0  0  0  0  0  0  0  0  0  0
    7.8528    1.1907   -1.2428 H   0  0  0  0  0  0  0  0  0  0  0  0
    5.4448    2.6829    1.2998 H   0  0  0  0  0  0  0  0  0  0  0  0
    7.2021    2.3127    1.1189 H   0  0  0  0  0  0  0  0  0  0  0  0
    6.3688    3.3695   -0.0926 H   0  0  0  0  0  0  0  0  0  0  0  0
    3.6759   -0.3763    1.8040 H   0  0  0  0  0  0  0  0  0  0  0  0
    2.1228   -0.6949    2.5468 H   0  0  0  0  0  0  0  0  0  0  0  0
    2.5348    1.6888    0.6106 H   0  0  0  0  0  0  0  0  0  0  0  0
    2.8038    1.7659    2.3658 H   0  0  0  0  0  0  0  0  0  0  0  0
    0.2099    0.6052    2.2116 H   0  0  0  0  0  0  0  0  0  0  0  0
    0.6187    2.2802    2.6321 H   0  0  0  0  0  0  0  0  0  0  0  0
    0.2894    1.4404   -0.3065 H   0  0  0  0  0  0  0  0  0  0  0  0
    0.3221    3.0958    0.4215 H   0  0  0  0  0  0  0  0  0  0  0  0
   -1.8380    2.3218   -1.2260 H   0  0  0  0  0  0  0  0  0  0  0  0
   -1.8013    3.7516   -0.1343 H   0  0  0  0  0  0  0  0  0  0  0  0
   -4.0579    3.5194   -0.3900 H   0  0  0  0  0  0  0  0  0  0  0  0
   -3.6700    3.4719    1.7728 H   0  0  0  0  0  0  0  0  0  0  0  0
   -5.3905    1.4906   -0.3295 H   0  0  0  0  0  0  0  0  0  0  0  0
   -5.0592    1.1114   -2.4455 H   0  0  0  0  0  0  0  0  0  0  0  0
  1  2  1  0
  2  3  1  0
  3  4  1  0
  4  5  1  0
  5  6  1  0
  6  7  1  0
  6  8  2  0
  5  9  1  0
  9 10  1  0
 10 11  1  0
 11 12  1  0
 12 13  1  0
 13 14  2  0
 13 15  1  0
 15 16  2  0
 16 17  1  0
 17 18  2  0
 18 19  1  0
 19 20  1  0
 19 21  2  0
 12 22  1  0
 22 23  1  0
 23 24  1  0
 24 25  1  0
 25 26  1  0
 26 27  1  0
 27 28  1  0
 28 29  1  0
 28 30  1  0
 30 31  1  0
 30  3  1  0
 21 15  1  0
  1 32  1  0
  1 33  1  0
  1 34  1  0
  3 35  1  0
  4 36  1  0
  4 37  1  0
  7 38  1  0
  7 39  1  0
  7 40  1  0
  9 41  1  0
  9 42  1  0
 10 43  1  0
 10 44  1  0
 11 45  1  0
 11 46  1  0
 16 47  1  0
 17 48  1  0
 18 49  1  0
 20 50  1  0
 20 51  1  0
 20 52  1  0
 22 53  1  0
 22 54  1  0
 23 55  1  0
 23 56  1  0
 24 57  1  0
 24 58  1  0
 25 59  1  0
 25 60  1  0
 27 61  1  0
 27 62  1  0
 28 63  1  0
 29 64  1  0
 30 65  1  0
 31 66  1  0
M  END
$$$$
