
     RDKit          3D

 78 82  0  0  0  0  0  0  0  0999 V2000
   -1.6691    1.3587    1.0724 O   0  0  0  0  0  0  0  0  0  0  0  0
   -1.9595    1.9403   -0.0051 C   0  0  0  0  0  0  0  0  0  0  0  0
   -1.5519    1.3977   -1.2734 N   0  0  0  0  0  0  0  0  0  0  0  0
   -1.4244   -0.0429   -1.5449 C   0  0  0  0  0  0  0  0  0  0  0  0
   -0.2993   -0.6583   -0.7476 C   0  0  0  0  0  0  0  0  0  0  0  0
   -0.5019   -1.0374    0.4360 O   0  0  0  0  0  0  0  0  0  0  0  0
    1.0008   -0.8122   -1.3365 N   0  0  0  0  0  0  0  0  0  0  0  0
    1.9910   -1.7332   -0.7838 C   0  0  0  0  0  0  0  0  0  0  0  0
    2.8152   -1.0523    0.2720 C   0  0  0  0  0  0  0  0  0  0  0  0
    2.5527   -1.2765    1.6298 C   0  0  0  0  0  0  0  0  0  0  0  0
    3.3302   -0.6509    2.6066 C   0  0  0  0  0  0  0  0  0  0  0  0
    4.3635    0.2152    2.2332 C   0  0  0  0  0  0  0  0  0  0  0  0
    4.6225    0.4720    0.8811 C   0  0  0  0  0  0  0  0  0  0  0  0
    5.7431    1.4021    0.4838 C   0  0  0  0  0  0  0  0  0  0  0  0
    7.0653    0.7751    0.7062 N   0  0  0  0  0  0  0  0  0  0  0  0
    7.2683   -0.3765   -0.2053 C   0  0  0  0  0  0  0  0  0  0  0  0
    8.7629   -0.7047   -0.3498 C   0  0  0  0  0  0  0  0  0  0  0  0
    9.5464    0.3642   -0.8750 O   0  0  0  0  0  0  0  0  0  0  0  0
    8.9612    1.6446   -0.6970 C   0  0  0  0  0  0  0  0  0  0  0  0
    8.1671    1.7699    0.6171 C   0  0  0  0  0  0  0  0  0  0  0  0
    3.8383   -0.1595   -0.0997 C   0  0  0  0  0  0  0  0  0  0  0  0
   -2.7785   -0.7394   -1.3124 C   0  0  0  0  0  0  0  0  0  0  0  0
   -2.7219   -2.2406   -1.5055 C   0  0  0  0  0  0  0  0  0  0  0  0
   -2.0301   -2.7109   -2.4546 O   0  0  0  0  0  0  0  0  0  0  0  0
   -3.4997   -3.1341   -0.6829 N   0  0  0  0  0  0  0  0  0  0  0  0
   -3.3790   -4.5790   -0.7774 C   0  0  0  0  0  0  0  0  0  0  0  0
   -4.4705   -5.1543    0.1232 C   0  0  0  0  0  0  0  0  0  0  0  0
   -4.9088   -4.0070    1.0361 C   0  0  0  0  0  0  0  0  0  0  0  0
   -4.4503   -2.7170    0.3473 C   0  0  0  0  0  0  0  0  0  0  0  0
   -5.5976   -1.9723   -0.2898 C   0  0  0  0  0  0  0  0  0  0  0  0
   -6.3132   -2.5483   -1.1590 O   0  0  0  0  0  0  0  0  0  0  0  0
   -5.8353   -0.6000    0.0447 N   0  0  0  0  0  0  0  0  0  0  0  0
   -6.4530    0.3068   -0.9192 C   0  0  0  0  0  0  0  0  0  0  0  0
   -6.1473    1.7719   -0.5798 C   0  0  0  0  0  0  0  0  0  0  0  0
   -4.7358    1.9894   -0.6201 O   0  0  0  0  0  0  0  0  0  0  0  0
   -4.1119    3.1894   -0.2406 C   0  0  0  0  0  0  0  0  0  0  0  0
   -4.8380    4.3911   -0.1096 C   0  0  0  0  0  0  0  0  0  0  0  0
   -4.2102    5.5555    0.3440 C   0  0  0  0  0  0  0  0  0  0  0  0
   -2.8541    5.5363    0.6692 C   0  0  0  0  0  0  0  0  0  0  0  0
   -2.1130    4.3604    0.5201 C   0  0  0  0  0  0  0  0  0  0  0  0
   -2.7337    3.1857    0.0504 C   0  0  0  0  0  0  0  0  0  0  0  0
   -1.5055    2.0487   -2.0891 H   0  0  0  0  0  0  0  0  0  0  0  0
   -1.1773   -0.1644   -2.6216 H   0  0  0  0  0  0  0  0  0  0  0  0
    1.1991   -0.3533   -2.2508 H   0  0  0  0  0  0  0  0  0  0  0  0
    2.6614   -2.0818   -1.5985 H   0  0  0  0  0  0  0  0  0  0  0  0
    1.4891   -2.6391   -0.3825 H   0  0  0  0  0  0  0  0  0  0  0  0
    1.7558   -1.9371    1.9311 H   0  0  0  0  0  0  0  0  0  0  0  0
    3.1410   -0.8469    3.6553 H   0  0  0  0  0  0  0  0  0  0  0  0
    4.9592    0.6936    3.0005 H   0  0  0  0  0  0  0  0  0  0  0  0
    5.6455    2.3218    1.1081 H   0  0  0  0  0  0  0  0  0  0  0  0
    5.6341    1.7261   -0.5773 H   0  0  0  0  0  0  0  0  0  0  0  0
    6.8511   -0.1653   -1.2141 H   0  0  0  0  0  0  0  0  0  0  0  0
    6.7449   -1.2668    0.2008 H   0  0  0  0  0  0  0  0  0  0  0  0
    8.8721   -1.5833   -1.0247 H   0  0  0  0  0  0  0  0  0  0  0  0
    9.1695   -1.0162    0.6328 H   0  0  0  0  0  0  0  0  0  0  0  0
    8.3078    1.8747   -1.5669 H   0  0  0  0  0  0  0  0  0  0  0  0
    9.7734    2.4027   -0.6932 H   0  0  0  0  0  0  0  0  0  0  0  0
    8.8664    1.5923    1.4645 H   0  0  0  0  0  0  0  0  0  0  0  0
    7.8078    2.8182    0.7273 H   0  0  0  0  0  0  0  0  0  0  0  0
    4.0187    0.0485   -1.1505 H   0  0  0  0  0  0  0  0  0  0  0  0
   -3.1301   -0.4941   -0.2932 H   0  0  0  0  0  0  0  0  0  0  0  0
   -3.5181   -0.3289   -2.0324 H   0  0  0  0  0  0  0  0  0  0  0  0
   -3.5213   -4.9175   -1.8332 H   0  0  0  0  0  0  0  0  0  0  0  0
   -2.3783   -4.8867   -0.4120 H   0  0  0  0  0  0  0  0  0  0  0  0
   -5.3342   -5.4816   -0.5060 H   0  0  0  0  0  0  0  0  0  0  0  0
   -4.1031   -6.0256    0.7119 H   0  0  0  0  0  0  0  0  0  0  0  0
   -6.0046   -4.0347    1.2274 H   0  0  0  0  0  0  0  0  0  0  0  0
   -4.3841   -4.1079    2.0169 H   0  0  0  0  0  0  0  0  0  0  0  0
   -3.9368   -2.0753    1.1052 H   0  0  0  0  0  0  0  0  0  0  0  0
   -5.4294   -0.2129    0.9307 H   0  0  0  0  0  0  0  0  0  0  0  0
   -7.5511    0.1472   -0.9224 H   0  0  0  0  0  0  0  0  0  0  0  0
   -6.0605    0.0896   -1.9354 H   0  0  0  0  0  0  0  0  0  0  0  0
   -6.5375    2.0132    0.4298 H   0  0  0  0  0  0  0  0  0  0  0  0
   -6.6520    2.4221   -1.3256 H   0  0  0  0  0  0  0  0  0  0  0  0
   -5.8883    4.4340   -0.3495 H   0  0  0  0  0  0  0  0  0  0  0  0
   -4.7815    6.4624    0.4583 H   0  0  0  0  0  0  0  0  0  0  0  0
   -2.3799    6.4420    1.0416 H   0  0  0  0  0  0  0  0  0  0  0  0
   -1.0634    4.3631    0.7804 H   0  0  0  0  0  0  0  0  0  0  0  0
  1  2  2  0
  2  3  1  0
  3  4  1  0
  4  5  1  0
  5  6  2  0
  5  7  1  0
  7  8  1  0
  8  9  1  0
  9 10  2  0
 10 11  1  0
 11 12  2  0
 12 13  1  0
 13 14  1  0
 14 15  1  0
 15 16  1  0
 16 17  1  0
 17 18  1  0
 18 19  1  0
 19 20  1  0
 13 21  2  0
  4 22  1  0
 22 23  1  0
 23 24  2  0
 23 25  1  0
 25 26  1  0
 26 27  1  0
 27 28  1  0
 28 29  1  0
 29 30  1  0
 30 31  2  0
 30 32  1  0
 32 33  1  0
 33 34  1  0
 34 35  1  0
 35 36  1  0
 36 37  2  0
 37 38  1  0
 38 39  2  0
 39 40  1  0
 40 41  2  0
 41  2  1  0
 21  9  1  0
 29 25  1  0
 41 36  1  0
 20 15  1  0
  3 42  1  0
  4 43  1  0
  7 44  1  0
  8 45  1  0
  8 46  1  0
 10 47  1  0
 11 48  1  0
 12 49  1  0
 14 50  1  0
 14 51  1  0
 16 52  1  0
 16 53  1  0
 17 54  1  0
 17 55  1  0
 19 56  1  0
 19 57  1  0
 20 58  1  0
 20 59  1  0
 21 60  1  0
 22 61  1  0
 22 62  1  0
 26 63  1  0
 26 64  1  0
 27 65  1  0
 27 66  1  0
 28 67  1  0
 28 68  1  0
 29 69  1  0
 32 70  1  0
 33 71  1  0
 33 72  1  0
 34 73  1  0
 34 74  1  0
 37 75  1  0
 38 76  1  0
 39 77  1  0
 40 78  1  0
M  END
$$$$
