
     RDKit          3D

 87 89  0  0  0  0  0  0  0  0999 V2000
    9.6970   -2.3301   -2.8192 C   0  0  0  0  0  0  0  0  0  0  0  0
    8.3537   -2.0730   -2.1550 C   0  0  0  0  0  0  0  0  0  0  0  0
    8.2943   -0.7175   -1.7153 O   0  0  0  0  0  0  0  0  0  0  0  0
    7.1885   -0.1370   -1.0759 C   0  0  0  0  0  0  0  0  0  0  0  0
    5.9753   -0.8298   -0.9075 C   0  0  0  0  0  0  0  0  0  0  0  0
    4.8906   -0.2169   -0.2762 C   0  0  0  0  0  0  0  0  0  0  0  0
    5.0016    1.0950    0.2037 C   0  0  0  0  0  0  0  0  0  0  0  0
    3.8366    1.7413    0.9093 C   0  0  0  0  0  0  0  0  0  0  0  0
    3.6817    1.1751    2.3282 C   0  0  0  0  0  0  0  0  0  0  0  0
    2.5606    1.8731    3.1106 C   0  0  0  0  0  0  0  0  0  0  0  0
    1.2778    1.7773    2.4146 N   0  0  0  0  0  0  0  0  0  0  0  0
    0.5487    0.5468    2.2926 C   0  0  0  0  0  0  0  0  0  0  0  0
    0.9639   -0.4908    2.8735 O   0  0  0  0  0  0  0  0  0  0  0  0
   -0.7010    0.5034    1.4457 C   0  0  0  0  0  0  0  0  0  0  0  0
   -0.3449    0.5248   -0.0683 C   0  0  0  0  0  0  0  0  0  0  0  0
   -1.4626    1.0651   -0.9146 C   0  0  0  0  0  0  0  0  0  0  0  0
   -1.3041    2.1642   -1.5170 O   0  0  0  0  0  0  0  0  0  0  0  0
   -2.6934    0.3413   -1.0480 N   0  0  0  0  0  0  0  0  0  0  0  0
   -3.9092    0.9375   -1.6224 C   0  0  0  0  0  0  0  0  0  0  0  0
   -4.3891    2.1615   -0.7860 C   0  0  0  0  0  0  0  0  0  0  0  0
   -5.4076    3.1267   -1.4575 C   0  0  0  0  0  0  0  0  0  0  0  0
   -5.0706    3.4654   -2.9152 C   0  0  0  0  0  0  0  0  0  0  0  0
   -6.8638    2.6562   -1.3201 C   0  0  0  0  0  0  0  0  0  0  0  0
   -4.9879   -0.1153   -1.7821 C   0  0  0  0  0  0  0  0  0  0  0  0
   -5.6874   -0.1107   -2.8358 O   0  0  0  0  0  0  0  0  0  0  0  0
   -5.1884   -1.1668   -0.8140 N   0  0  0  0  0  0  0  0  0  0  0  0
   -5.1170   -2.5464   -1.3063 C   0  0  0  0  0  0  0  0  0  0  0  0
   -5.7737   -0.8790    0.5050 C   0  0  0  0  0  0  0  0  0  0  0  0
   -4.7089   -0.4904    1.5509 C   0  0  0  0  0  0  0  0  0  0  0  0
   -4.2562   -1.5808    2.3595 O   0  0  0  0  0  0  0  0  0  0  0  0
   -3.7871   -2.8005    1.8589 C   0  0  0  0  0  0  0  0  0  0  0  0
   -4.6776   -3.8841    1.9235 C   0  0  0  0  0  0  0  0  0  0  0  0
   -4.3314   -5.1306    1.4033 C   0  0  0  0  0  0  0  0  0  0  0  0
   -3.0802   -5.3179    0.8268 C   0  0  0  0  0  0  0  0  0  0  0  0
   -2.1563   -4.2720    0.8087 C   0  0  0  0  0  0  0  0  0  0  0  0
   -2.4676   -3.0020    1.3495 C   0  0  0  0  0  0  0  0  0  0  0  0
   -1.3624   -1.9858    1.3870 C   0  0  0  0  0  0  0  0  0  0  0  0
   -0.1970   -2.3477    1.0521 O   0  0  0  0  0  0  0  0  0  0  0  0
   -1.5572   -0.6318    1.8311 N   0  0  0  0  0  0  0  0  0  0  0  0
    6.2173    1.7828    0.0629 C   0  0  0  0  0  0  0  0  0  0  0  0
    7.3119    1.1746   -0.5853 C   0  0  0  0  0  0  0  0  0  0  0  0
    8.5387    1.8379   -0.7501 O   0  0  0  0  0  0  0  0  0  0  0  0
    8.8032    3.1711   -0.3363 C   0  0  0  0  0  0  0  0  0  0  0  0
    9.7777   -3.4020   -3.0944 H   0  0  0  0  0  0  0  0  0  0  0  0
   10.5209   -2.0643   -2.1227 H   0  0  0  0  0  0  0  0  0  0  0  0
    9.7856   -1.7130   -3.7400 H   0  0  0  0  0  0  0  0  0  0  0  0
    8.2392   -2.7537   -1.2823 H   0  0  0  0  0  0  0  0  0  0  0  0
    7.5426   -2.2724   -2.8912 H   0  0  0  0  0  0  0  0  0  0  0  0
    5.8603   -1.8442   -1.2635 H   0  0  0  0  0  0  0  0  0  0  0  0
    3.9654   -0.7697   -0.1573 H   0  0  0  0  0  0  0  0  0  0  0  0
    2.9103    1.5487    0.3248 H   0  0  0  0  0  0  0  0  0  0  0  0
    3.9745    2.8468    0.9586 H   0  0  0  0  0  0  0  0  0  0  0  0
    3.4746    0.0846    2.2765 H   0  0  0  0  0  0  0  0  0  0  0  0
    4.6336    1.3109    2.8845 H   0  0  0  0  0  0  0  0  0  0  0  0
    2.8263    2.9448    3.2498 H   0  0  0  0  0  0  0  0  0  0  0  0
    2.4672    1.4176    4.1186 H   0  0  0  0  0  0  0  0  0  0  0  0
    0.8767    2.6498    1.9963 H   0  0  0  0  0  0  0  0  0  0  0  0
   -1.2627    1.4374    1.6748 H   0  0  0  0  0  0  0  0  0  0  0  0
   -0.0462   -0.4727   -0.4489 H   0  0  0  0  0  0  0  0  0  0  0  0
    0.5411    1.1803   -0.2233 H   0  0  0  0  0  0  0  0  0  0  0  0
   -2.6777   -0.6740   -0.7992 H   0  0  0  0  0  0  0  0  0  0  0  0
   -3.6316    1.2836   -2.6406 H   0  0  0  0  0  0  0  0  0  0  0  0
   -4.8061    1.8318    0.1825 H   0  0  0  0  0  0  0  0  0  0  0  0
   -3.5064    2.7753   -0.5179 H   0  0  0  0  0  0  0  0  0  0  0  0
   -5.3430    4.0818   -0.8862 H   0  0  0  0  0  0  0  0  0  0  0  0
   -5.3082    2.6170   -3.5891 H   0  0  0  0  0  0  0  0  0  0  0  0
   -3.9954    3.7325   -3.0119 H   0  0  0  0  0  0  0  0  0  0  0  0
   -5.6727    4.3383   -3.2480 H   0  0  0  0  0  0  0  0  0  0  0  0
   -7.0888    2.4003   -0.2601 H   0  0  0  0  0  0  0  0  0  0  0  0
   -7.5524    3.4779   -1.6220 H   0  0  0  0  0  0  0  0  0  0  0  0
   -7.0751    1.7750   -1.9643 H   0  0  0  0  0  0  0  0  0  0  0  0
   -5.7357   -2.6634   -2.2224 H   0  0  0  0  0  0  0  0  0  0  0  0
   -5.5028   -3.2673   -0.5596 H   0  0  0  0  0  0  0  0  0  0  0  0
   -4.0626   -2.8069   -1.5410 H   0  0  0  0  0  0  0  0  0  0  0  0
   -6.3642   -1.7403    0.8783 H   0  0  0  0  0  0  0  0  0  0  0  0
   -6.5050   -0.0485    0.4017 H   0  0  0  0  0  0  0  0  0  0  0  0
   -3.8521    0.0056    1.0839 H   0  0  0  0  0  0  0  0  0  0  0  0
   -5.1564    0.2626    2.2337 H   0  0  0  0  0  0  0  0  0  0  0  0
   -5.6657   -3.7453    2.3467 H   0  0  0  0  0  0  0  0  0  0  0  0
   -5.0387   -5.9529    1.4374 H   0  0  0  0  0  0  0  0  0  0  0  0
   -2.8199   -6.2830    0.4088 H   0  0  0  0  0  0  0  0  0  0  0  0
   -1.1812   -4.4738    0.3846 H   0  0  0  0  0  0  0  0  0  0  0  0
   -2.1621   -0.4772    2.6636 H   0  0  0  0  0  0  0  0  0  0  0  0
    6.3056    2.7885    0.4621 H   0  0  0  0  0  0  0  0  0  0  0  0
    8.6761    3.2661    0.7603 H   0  0  0  0  0  0  0  0  0  0  0  0
    8.1236    3.8757   -0.8598 H   0  0  0  0  0  0  0  0  0  0  0  0
    9.8524    3.4276   -0.5963 H   0  0  0  0  0  0  0  0  0  0  0  0
  1  2  1  0
  2  3  1  0
  3  4  1  0
  4  5  2  0
  5  6  1  0
  6  7  2  0
  7  8  1  0
  8  9  1  0
  9 10  1  0
 10 11  1  0
 11 12  1  0
 12 13  2  0
 12 14  1  0
 14 15  1  0
 15 16  1  0
 16 17  2  0
 16 18  1  0
 18 19  1  0
 19 20  1  0
 20 21  1  0
 21 22  1  0
 21 23  1  0
 19 24  1  0
 24 25  2  0
 24 26  1  0
 26 27  1  0
 26 28  1  0
 28 29  1  0
 29 30  1  0
 30 31  1  0
 31 32  2  0
 32 33  1  0
 33 34  2  0
 34 35  1  0
 35 36  2  0
 36 37  1  0
 37 38  2  0
 37 39  1  0
  7 40  1  0
 40 41  2  0
 41 42  1  0
 42 43  1  0
 41  4  1  0
 39 14  1  0
 36 31  1  0
  1 44  1  0
  1 45  1  0
  1 46  1  0
  2 47  1  0
  2 48  1  0
  5 49  1  0
  6 50  1  0
  8 51  1  0
  8 52  1  0
  9 53  1  0
  9 54  1  0
 10 55  1  0
 10 56  1  0
 11 57  1  0
 14 58  1  0
 15 59  1  0
 15 60  1  0
 18 61  1  0
 19 62  1  0
 20 63  1  0
 20 64  1  0
 21 65  1  0
 22 66  1  0
 22 67  1  0
 22 68  1  0
 23 69  1  0
 23 70  1  0
 23 71  1  0
 27 72  1  0
 27 73  1  0
 27 74  1  0
 28 75  1  0
 28 76  1  0
 29 77  1  0
 29 78  1  0
 32 79  1  0
 33 80  1  0
 34 81  1  0
 35 82  1  0
 39 83  1  0
 40 84  1  0
 43 85  1  0
 43 86  1  0
 43 87  1  0
M  END
$$$$
