
     RDKit          3D

 65 68  0  0  0  0  0  0  0  0999 V2000
   -1.1211    2.3500    0.3373 C   0  0  0  0  0  0  0  0  0  0  0  0
   -1.0398    1.0130    0.9377 N   0  0  0  0  0  0  0  0  0  0  0  0
    0.0302    0.0661    0.5526 C   0  0  0  0  0  0  0  0  0  0  0  0
    0.2112   -0.2423   -0.9861 C   0  0  0  0  0  0  0  0  0  0  0  0
    1.1726   -1.4531   -1.1417 C   0  0  0  0  0  0  0  0  0  0  0  0
    2.6629   -1.1758   -0.8018 C   0  0  0  0  0  0  0  0  0  0  0  0
    3.0247    0.2491   -0.6147 N   0  0  0  0  0  0  0  0  0  0  0  0
    4.2907    0.5882    0.0122 C   0  0  0  0  0  0  0  0  0  0  0  0
    4.5702    1.8012    0.2457 O   0  0  0  0  0  0  0  0  0  0  0  0
    5.2854   -0.4732    0.4183 C   0  0  0  0  0  0  0  0  0  0  0  0
    6.5573    0.1085    0.8519 N   0  0  0  0  0  0  0  0  0  0  0  0
    6.8573    0.5039    2.1068 C   0  0  0  0  0  0  0  0  0  0  0  0
    8.1477    0.9993    2.1127 C   0  0  0  0  0  0  0  0  0  0  0  0
    8.5748    0.8781    0.7992 C   0  0  0  0  0  0  0  0  0  0  0  0
    7.5879    0.3345    0.0495 N   0  0  0  0  0  0  0  0  0  0  0  0
    2.2227    1.3559   -1.1561 C   0  0  0  0  0  0  0  0  0  0  0  0
    0.8942    0.9096   -1.7673 C   0  0  0  0  0  0  0  0  0  0  0  0
   -1.1565   -0.5547   -1.6985 C   0  0  0  0  0  0  0  0  0  0  0  0
   -1.9461   -1.7968   -1.2015 C   0  0  0  0  0  0  0  0  0  0  0  0
   -1.2843   -2.9932   -1.5231 O   0  0  0  0  0  0  0  0  0  0  0  0
   -3.4182   -1.8056   -1.7466 C   0  0  0  0  0  0  0  0  0  0  0  0
   -3.6090   -2.8613   -2.6594 O   0  0  0  0  0  0  0  0  0  0  0  0
   -4.4644   -1.9487   -0.6122 C   0  0  0  0  0  0  0  0  0  0  0  0
   -4.8678   -0.6083   -0.0340 C   0  0  0  0  0  0  0  0  0  0  0  0
   -5.8742    0.1343   -0.6785 C   0  0  0  0  0  0  0  0  0  0  0  0
   -6.2685    1.3764   -0.1803 C   0  0  0  0  0  0  0  0  0  0  0  0
   -5.6668    1.8889    0.9697 C   0  0  0  0  0  0  0  0  0  0  0  0
   -4.6613    1.1702    1.6194 C   0  0  0  0  0  0  0  0  0  0  0  0
   -4.2353   -0.0754    1.1125 C   0  0  0  0  0  0  0  0  0  0  0  0
   -3.1897   -0.7996    1.7104 O   0  0  0  0  0  0  0  0  0  0  0  0
   -2.3203   -0.3153    2.7350 C   0  0  0  0  0  0  0  0  0  0  0  0
   -1.5545    0.8963    2.2801 C   0  0  0  0  0  0  0  0  0  0  0  0
   -1.3530    1.8252    3.1097 O   0  0  0  0  0  0  0  0  0  0  0  0
   -0.1298    2.8515    0.3690 H   0  0  0  0  0  0  0  0  0  0  0  0
   -1.5102    2.2967   -0.6950 H   0  0  0  0  0  0  0  0  0  0  0  0
   -1.8521    2.9853    0.8804 H   0  0  0  0  0  0  0  0  0  0  0  0
    0.9781    0.4347    0.9939 H   0  0  0  0  0  0  0  0  0  0  0  0
   -0.1571   -0.9035    1.0622 H   0  0  0  0  0  0  0  0  0  0  0  0
    1.1241   -1.8269   -2.1926 H   0  0  0  0  0  0  0  0  0  0  0  0
    0.8307   -2.3000   -0.4992 H   0  0  0  0  0  0  0  0  0  0  0  0
    2.9071   -1.7486    0.1279 H   0  0  0  0  0  0  0  0  0  0  0  0
    3.3063   -1.5969   -1.6137 H   0  0  0  0  0  0  0  0  0  0  0  0
    5.4712   -1.1578   -0.4409 H   0  0  0  0  0  0  0  0  0  0  0  0
    4.8543   -1.0736    1.2475 H   0  0  0  0  0  0  0  0  0  0  0  0
    6.1917    0.4294    2.9557 H   0  0  0  0  0  0  0  0  0  0  0  0
    8.7010    1.3818    2.9607 H   0  0  0  0  0  0  0  0  0  0  0  0
    9.5418    1.1747    0.4058 H   0  0  0  0  0  0  0  0  0  0  0  0
    2.0091    2.0807   -0.3433 H   0  0  0  0  0  0  0  0  0  0  0  0
    2.8152    1.8992   -1.9258 H   0  0  0  0  0  0  0  0  0  0  0  0
    0.2404    1.7920   -1.8812 H   0  0  0  0  0  0  0  0  0  0  0  0
    1.0988    0.5683   -2.8060 H   0  0  0  0  0  0  0  0  0  0  0  0
   -1.8162    0.3234   -1.5791 H   0  0  0  0  0  0  0  0  0  0  0  0
   -0.9941   -0.6634   -2.7921 H   0  0  0  0  0  0  0  0  0  0  0  0
   -1.9658   -1.7439   -0.1037 H   0  0  0  0  0  0  0  0  0  0  0  0
   -1.1416   -3.0312   -2.5094 H   0  0  0  0  0  0  0  0  0  0  0  0
   -3.6416   -0.8472   -2.2756 H   0  0  0  0  0  0  0  0  0  0  0  0
   -3.3243   -2.5338   -3.5507 H   0  0  0  0  0  0  0  0  0  0  0  0
   -4.1010   -2.6358    0.1853 H   0  0  0  0  0  0  0  0  0  0  0  0
   -5.3778   -2.4381   -1.0223 H   0  0  0  0  0  0  0  0  0  0  0  0
   -6.3536   -0.2517   -1.5743 H   0  0  0  0  0  0  0  0  0  0  0  0
   -7.0432    1.9403   -0.6885 H   0  0  0  0  0  0  0  0  0  0  0  0
   -5.9812    2.8463    1.3657 H   0  0  0  0  0  0  0  0  0  0  0  0
   -4.2202    1.5985    2.5081 H   0  0  0  0  0  0  0  0  0  0  0  0
   -2.9156   -0.0807    3.6433 H   0  0  0  0  0  0  0  0  0  0  0  0
   -1.6034   -1.1150    3.0085 H   0  0  0  0  0  0  0  0  0  0  0  0
  1  2  1  0
  2  3  1  0
  3  4  1  0
  4  5  1  0
  5  6  1  0
  6  7  1  0
  7  8  1  0
  8  9  2  0
  8 10  1  0
 10 11  1  0
 11 12  1  0
 12 13  2  0
 13 14  1  0
 14 15  2  0
  7 16  1  0
 16 17  1  0
  4 18  1  0
 18 19  1  0
 19 20  1  0
 19 21  1  0
 21 22  1  0
 21 23  1  0
 23 24  1  0
 24 25  2  0
 25 26  1  0
 26 27  2  0
 27 28  1  0
 28 29  2  0
 29 30  1  0
 30 31  1  0
 31 32  1  0
 32 33  2  0
 32  2  1  0
 17  4  1  0
 29 24  1  0
 15 11  1  0
  1 34  1  0
  1 35  1  0
  1 36  1  0
  3 37  1  0
  3 38  1  0
  5 39  1  0
  5 40  1  0
  6 41  1  0
  6 42  1  0
 10 43  1  0
 10 44  1  0
 12 45  1  0
 13 46  1  0
 14 47  1  0
 16 48  1  0
 16 49  1  0
 17 50  1  0
 17 51  1  0
 18 52  1  0
 18 53  1  0
 19 54  1  0
 20 55  1  0
 21 56  1  0
 22 57  1  0
 23 58  1  0
 23 59  1  0
 25 60  1  0
 26 61  1  0
 27 62  1  0
 28 63  1  0
 31 64  1  0
 31 65  1  0
M  END
$$$$
