
     RDKit          3D

 66 69  0  0  0  0  0  0  0  0999 V2000
   -0.8826    3.6501   -1.1235 C   0  0  0  0  0  0  0  0  0  0  0  0
   -0.8295    3.2119    0.3478 C   0  0  0  0  0  0  0  0  0  0  0  0
   -1.6625    4.1587    1.2253 C   0  0  0  0  0  0  0  0  0  0  0  0
   -1.2186    1.7174    0.5321 C   0  0  0  0  0  0  0  0  0  0  0  0
   -2.7161    1.4303    0.3056 C   0  0  0  0  0  0  0  0  0  0  0  0
   -2.8880    0.0406    0.0373 O   0  0  0  0  0  0  0  0  0  0  0  0
   -4.1405   -0.5578   -0.1344 C   0  0  0  0  0  0  0  0  0  0  0  0
   -5.1646   -0.3582    0.8054 C   0  0  0  0  0  0  0  0  0  0  0  0
   -6.4184   -0.9438    0.6173 C   0  0  0  0  0  0  0  0  0  0  0  0
   -6.6637   -1.7268   -0.5130 C   0  0  0  0  0  0  0  0  0  0  0  0
   -8.2445   -2.4497   -0.7535 Cl  0  0  0  0  0  0  0  0  0  0  0  0
   -5.6500   -1.9328   -1.4534 C   0  0  0  0  0  0  0  0  0  0  0  0
   -4.3781   -1.3697   -1.2620 C   0  0  0  0  0  0  0  0  0  0  0  0
   -3.3442   -1.5470   -2.3026 C   0  0  0  0  0  0  0  0  0  0  0  0
   -3.6358   -1.2952   -3.5026 O   0  0  0  0  0  0  0  0  0  0  0  0
   -2.0193   -1.9938   -1.9861 N   0  0  0  0  0  0  0  0  0  0  0  0
   -1.7589   -2.9125   -0.8761 C   0  0  0  0  0  0  0  0  0  0  0  0
   -0.2983   -3.3946   -0.8662 C   0  0  0  0  0  0  0  0  0  0  0  0
    0.7288   -2.2839   -0.5801 C   0  0  0  0  0  0  0  0  0  0  0  0
    0.6232   -1.7378    0.8489 C   0  0  0  0  0  0  0  0  0  0  0  0
    1.7693   -0.8677    1.1574 N   0  0  0  0  0  0  0  0  0  0  0  0
    3.0606   -1.4656    1.3876 C   0  0  0  0  0  0  0  0  0  0  0  0
    3.1395   -2.5292    2.0617 O   0  0  0  0  0  0  0  0  0  0  0  0
    4.2962   -0.8726    0.8288 C   0  0  0  0  0  0  0  0  0  0  0  0
    5.5352   -1.0428    1.5006 C   0  0  0  0  0  0  0  0  0  0  0  0
    6.7174   -0.4929    0.9728 C   0  0  0  0  0  0  0  0  0  0  0  0
    6.6297    0.2078   -0.2251 C   0  0  0  0  0  0  0  0  0  0  0  0
    5.4530    0.3650   -0.8803 C   0  0  0  0  0  0  0  0  0  0  0  0
    4.2602   -0.1602   -0.3929 C   0  0  0  0  0  0  0  0  0  0  0  0
    5.6638    1.0881   -2.0382 O   0  0  0  0  0  0  0  0  0  0  0  0
    7.0612    1.4026   -2.1155 C   0  0  0  0  0  0  0  0  0  0  0  0
    7.6399    0.8251   -0.9370 O   0  0  0  0  0  0  0  0  0  0  0  0
    1.6008    0.5911    1.2646 C   0  0  0  0  0  0  0  0  0  0  0  0
    0.5257    0.9349    2.2619 C   0  0  0  0  0  0  0  0  0  0  0  0
    0.8028    0.8565    3.4888 O   0  0  0  0  0  0  0  0  0  0  0  0
   -0.8210    1.2629    1.8736 N   0  0  0  0  0  0  0  0  0  0  0  0
   -0.3064    2.9435   -1.7591 H   0  0  0  0  0  0  0  0  0  0  0  0
   -0.4263    4.6575   -1.2334 H   0  0  0  0  0  0  0  0  0  0  0  0
   -1.9267    3.7036   -1.4955 H   0  0  0  0  0  0  0  0  0  0  0  0
    0.2311    3.3207    0.6666 H   0  0  0  0  0  0  0  0  0  0  0  0
   -1.2688    5.1947    1.1439 H   0  0  0  0  0  0  0  0  0  0  0  0
   -1.6030    3.8538    2.2916 H   0  0  0  0  0  0  0  0  0  0  0  0
   -2.7273    4.1632    0.9085 H   0  0  0  0  0  0  0  0  0  0  0  0
   -0.6820    1.1183   -0.2330 H   0  0  0  0  0  0  0  0  0  0  0  0
   -3.0983    1.9966   -0.5679 H   0  0  0  0  0  0  0  0  0  0  0  0
   -3.3052    1.7352    1.1959 H   0  0  0  0  0  0  0  0  0  0  0  0
   -4.9909    0.2367    1.6916 H   0  0  0  0  0  0  0  0  0  0  0  0
   -7.1990   -0.7865    1.3507 H   0  0  0  0  0  0  0  0  0  0  0  0
   -5.8510   -2.5352   -2.3313 H   0  0  0  0  0  0  0  0  0  0  0  0
   -1.2714   -1.8197   -2.6957 H   0  0  0  0  0  0  0  0  0  0  0  0
   -2.0141   -2.4367    0.0902 H   0  0  0  0  0  0  0  0  0  0  0  0
   -2.4177   -3.8003   -0.9880 H   0  0  0  0  0  0  0  0  0  0  0  0
   -0.1901   -4.1975   -0.1046 H   0  0  0  0  0  0  0  0  0  0  0  0
   -0.0654   -3.8516   -1.8527 H   0  0  0  0  0  0  0  0  0  0  0  0
    0.6143   -1.4483   -1.3031 H   0  0  0  0  0  0  0  0  0  0  0  0
    1.7423   -2.7145   -0.7299 H   0  0  0  0  0  0  0  0  0  0  0  0
   -0.3267   -1.1759    0.9417 H   0  0  0  0  0  0  0  0  0  0  0  0
    0.5818   -2.5728    1.5819 H   0  0  0  0  0  0  0  0  0  0  0  0
    5.5827   -1.5882    2.4346 H   0  0  0  0  0  0  0  0  0  0  0  0
    7.6659   -0.6141    1.4797 H   0  0  0  0  0  0  0  0  0  0  0  0
    3.3442   -0.0392   -0.9556 H   0  0  0  0  0  0  0  0  0  0  0  0
    7.5060    0.9446   -3.0236 H   0  0  0  0  0  0  0  0  0  0  0  0
    7.2073    2.5028   -2.1161 H   0  0  0  0  0  0  0  0  0  0  0  0
    1.4059    1.0172    0.2634 H   0  0  0  0  0  0  0  0  0  0  0  0
    2.5429    1.0659    1.6158 H   0  0  0  0  0  0  0  0  0  0  0  0
   -1.5267    1.3177    2.6431 H   0  0  0  0  0  0  0  0  0  0  0  0
  1  2  1  0
  2  3  1  0
  2  4  1  0
  4  5  1  0
  5  6  1  0
  6  7  1  0
  7  8  2  0
  8  9  1  0
  9 10  2  0
 10 11  1  0
 10 12  1  0
 12 13  2  0
 13 14  1  0
 14 15  2  0
 14 16  1  0
 16 17  1  0
 17 18  1  0
 18 19  1  0
 19 20  1  0
 20 21  1  0
 21 22  1  0
 22 23  2  0
 22 24  1  0
 24 25  2  0
 25 26  1  0
 26 27  2  0
 27 28  1  0
 28 29  2  0
 28 30  1  0
 30 31  1  0
 31 32  1  0
 21 33  1  0
 33 34  1  0
 34 35  2  0
 34 36  1  0
 36  4  1  0
 13  7  1  0
 29 24  1  0
 32 27  1  0
  1 37  1  0
  1 38  1  0
  1 39  1  0
  2 40  1  0
  3 41  1  0
  3 42  1  0
  3 43  1  0
  4 44  1  0
  5 45  1  0
  5 46  1  0
  8 47  1  0
  9 48  1  0
 12 49  1  0
 16 50  1  0
 17 51  1  0
 17 52  1  0
 18 53  1  0
 18 54  1  0
 19 55  1  0
 19 56  1  0
 20 57  1  0
 20 58  1  0
 25 59  1  0
 26 60  1  0
 29 61  1  0
 31 62  1  0
 31 63  1  0
 33 64  1  0
 33 65  1  0
 36 66  1  0
M  END
$$$$
