
     RDKit          3D

 56 58  0  0  0  0  0  0  0  0999 V2000
    5.8384    1.4733   -2.6708 C   0  0  0  0  0  0  0  0  0  0  0  0
    5.0788    0.3819   -1.9055 C   0  0  0  0  0  0  0  0  0  0  0  0
    6.0730   -0.5070   -1.1427 C   0  0  0  0  0  0  0  0  0  0  0  0
    4.0379    1.0251   -0.9618 C   0  0  0  0  0  0  0  0  0  0  0  0
    3.0688   -0.0004   -0.3556 C   0  0  0  0  0  0  0  0  0  0  0  0
    2.0162    0.6682    0.4105 N   0  0  0  0  0  0  0  0  0  0  0  0
    0.9579   -0.0648    1.0422 C   0  0  0  0  0  0  0  0  0  0  0  0
    0.9494   -1.3695    0.9860 N   0  0  0  0  0  0  0  0  0  0  0  0
   -0.0987   -2.2557    1.4994 C   0  0  0  0  0  0  0  0  0  0  0  0
   -1.0832   -2.5974    0.3745 C   0  0  0  0  0  0  0  0  0  0  0  0
   -2.3492   -3.3172    0.8786 C   0  0  0  0  0  0  0  0  0  0  0  0
   -3.3910   -2.4004    1.5554 C   0  0  0  0  0  0  0  0  0  0  0  0
   -4.0916   -1.4476    0.5778 C   0  0  0  0  0  0  0  0  0  0  0  0
   -3.2454   -0.3350    0.3167 O   0  0  0  0  0  0  0  0  0  0  0  0
   -3.4008    0.5744   -0.7374 C   0  0  0  0  0  0  0  0  0  0  0  0
   -4.5838    0.6460   -1.4954 C   0  0  0  0  0  0  0  0  0  0  0  0
   -4.6706    1.5251   -2.5787 C   0  0  0  0  0  0  0  0  0  0  0  0
   -3.5808    2.3310   -2.9173 C   0  0  0  0  0  0  0  0  0  0  0  0
   -2.4051    2.2714   -2.1646 C   0  0  0  0  0  0  0  0  0  0  0  0
   -2.3166    1.4147   -1.0617 C   0  0  0  0  0  0  0  0  0  0  0  0
   -1.1266    1.3724   -0.3237 O   0  0  0  0  0  0  0  0  0  0  0  0
   -1.1017    1.3682    1.0761 C   0  0  0  0  0  0  0  0  0  0  0  0
   -2.0729    2.0202    1.7766 N   0  0  0  0  0  0  0  0  0  0  0  0
   -2.0887    2.0439    3.1351 C   0  0  0  0  0  0  0  0  0  0  0  0
   -1.0879    1.3928    3.8562 C   0  0  0  0  0  0  0  0  0  0  0  0
   -0.0816    0.7153    3.1675 C   0  0  0  0  0  0  0  0  0  0  0  0
   -0.0856    0.6885    1.7662 C   0  0  0  0  0  0  0  0  0  0  0  0
    6.5650    1.0153   -3.3756 H   0  0  0  0  0  0  0  0  0  0  0  0
    6.3883    2.1346   -1.9669 H   0  0  0  0  0  0  0  0  0  0  0  0
    5.1307    2.0905   -3.2645 H   0  0  0  0  0  0  0  0  0  0  0  0
    4.5485   -0.2471   -2.6547 H   0  0  0  0  0  0  0  0  0  0  0  0
    6.8540   -0.8906   -1.8336 H   0  0  0  0  0  0  0  0  0  0  0  0
    6.5676    0.0652   -0.3286 H   0  0  0  0  0  0  0  0  0  0  0  0
    5.5579   -1.3878   -0.7074 H   0  0  0  0  0  0  0  0  0  0  0  0
    3.4376    1.7625   -1.5398 H   0  0  0  0  0  0  0  0  0  0  0  0
    4.5539    1.5753   -0.1441 H   0  0  0  0  0  0  0  0  0  0  0  0
    3.6190   -0.6868    0.3217 H   0  0  0  0  0  0  0  0  0  0  0  0
    2.6019   -0.5952   -1.1707 H   0  0  0  0  0  0  0  0  0  0  0  0
    2.0174    1.7108    0.4957 H   0  0  0  0  0  0  0  0  0  0  0  0
   -0.6143   -1.8089    2.3721 H   0  0  0  0  0  0  0  0  0  0  0  0
    0.3776   -3.1954    1.8509 H   0  0  0  0  0  0  0  0  0  0  0  0
   -1.3423   -1.6897   -0.2026 H   0  0  0  0  0  0  0  0  0  0  0  0
   -0.5620   -3.2738   -0.3378 H   0  0  0  0  0  0  0  0  0  0  0  0
   -2.8315   -3.8328    0.0196 H   0  0  0  0  0  0  0  0  0  0  0  0
   -2.0515   -4.1121    1.5970 H   0  0  0  0  0  0  0  0  0  0  0  0
   -4.1678   -3.0532    2.0096 H   0  0  0  0  0  0  0  0  0  0  0  0
   -2.9310   -1.8219    2.3843 H   0  0  0  0  0  0  0  0  0  0  0  0
   -5.0372   -1.0811    1.0318 H   0  0  0  0  0  0  0  0  0  0  0  0
   -4.3327   -1.9834   -0.3664 H   0  0  0  0  0  0  0  0  0  0  0  0
   -5.4358    0.0241   -1.2560 H   0  0  0  0  0  0  0  0  0  0  0  0
   -5.5812    1.5759   -3.1616 H   0  0  0  0  0  0  0  0  0  0  0  0
   -3.6479    3.0036   -3.7626 H   0  0  0  0  0  0  0  0  0  0  0  0
   -1.5652    2.9009   -2.4297 H   0  0  0  0  0  0  0  0  0  0  0  0
   -2.8772    2.5714    3.6549 H   0  0  0  0  0  0  0  0  0  0  0  0
   -1.0938    1.4104    4.9383 H   0  0  0  0  0  0  0  0  0  0  0  0
    0.6933    0.2017    3.7235 H   0  0  0  0  0  0  0  0  0  0  0  0
  1  2  1  0
  2  3  1  0
  2  4  1  0
  4  5  1  0
  5  6  1  0
  6  7  1  0
  7  8  2  3
  8  9  1  0
  9 10  1  0
 10 11  1  0
 11 12  1  0
 12 13  1  0
 13 14  1  0
 14 15  1  0
 15 16  2  0
 16 17  1  0
 17 18  2  0
 18 19  1  0
 19 20  2  0
 20 21  1  0
 21 22  1  0
 22 23  2  0
 23 24  1  0
 24 25  2  0
 25 26  1  0
 26 27  2  0
 27  7  1  0
 20 15  1  0
 27 22  1  0
  1 28  1  0
  1 29  1  0
  1 30  1  0
  2 31  1  0
  3 32  1  0
  3 33  1  0
  3 34  1  0
  4 35  1  0
  4 36  1  0
  5 37  1  0
  5 38  1  0
  6 39  1  0
  9 40  1  0
  9 41  1  0
 10 42  1  0
 10 43  1  0
 11 44  1  0
 11 45  1  0
 12 46  1  0
 12 47  1  0
 13 48  1  0
 13 49  1  0
 16 50  1  0
 17 51  1  0
 18 52  1  0
 19 53  1  0
 24 54  1  0
 25 55  1  0
 26 56  1  0
M  END
$$$$
