
     RDKit          3D

 75 78  0  0  0  0  0  0  0  0999 V2000
   -8.0432   -1.9851   -0.9053 C   0  0  0  0  0  0  0  0  0  0  0  0
   -6.6413   -2.1195   -0.2731 C   0  0  0  0  0  0  0  0  0  0  0  0
   -6.7393   -2.6036    1.1781 C   0  0  0  0  0  0  0  0  0  0  0  0
   -5.7984   -0.8934   -0.3944 N   0  0  0  0  0  0  0  0  0  0  0  0
   -6.3154    0.3037    0.3237 C   0  0  0  0  0  0  0  0  0  0  0  0
   -5.5464    0.5325    1.6261 C   0  0  0  0  0  0  0  0  0  0  0  0
   -4.1846    0.7750    1.3487 O   0  0  0  0  0  0  0  0  0  0  0  0
   -3.4388    0.6931    2.5480 C   0  0  0  0  0  0  0  0  0  0  0  0
   -2.0662    1.3176    2.3456 C   0  0  0  0  0  0  0  0  0  0  0  0
   -1.3893    0.6626    1.2773 O   0  0  0  0  0  0  0  0  0  0  0  0
   -0.1008    0.9961    0.8319 C   0  0  0  0  0  0  0  0  0  0  0  0
    0.7015    1.9307    1.5150 C   0  0  0  0  0  0  0  0  0  0  0  0
    1.9900    2.2194    1.0636 C   0  0  0  0  0  0  0  0  0  0  0  0
    2.4986    1.5821   -0.0731 C   0  0  0  0  0  0  0  0  0  0  0  0
    3.8564    1.9062   -0.5377 C   0  0  0  0  0  0  0  0  0  0  0  0
    4.0452    3.0176   -1.1015 O   0  0  0  0  0  0  0  0  0  0  0  0
    4.9633    1.0102   -0.3067 N   0  0  0  0  0  0  0  0  0  0  0  0
    4.7153   -0.4030    0.0316 C   0  0  0  0  0  0  0  0  0  0  0  0
    6.0258   -1.1797    0.2189 C   0  0  0  0  0  0  0  0  0  0  0  0
    6.9615   -0.4236    1.1870 C   0  0  0  0  0  0  0  0  0  0  0  0
    8.2904   -1.1771    1.4375 C   0  0  0  0  0  0  0  0  0  0  0  0
    9.1067   -1.4700    0.1707 C   0  0  0  0  0  0  0  0  0  0  0  0
   10.3775   -1.9369    0.5326 O   0  0  0  0  0  0  0  0  0  0  0  0
    7.1831    1.0626    0.7770 C   0  0  0  0  0  0  0  0  0  0  0  0
    6.3480    1.4916   -0.4397 C   0  0  0  0  0  0  0  0  0  0  0  0
    1.6987    0.6729   -0.7771 C   0  0  0  0  0  0  0  0  0  0  0  0
    0.3973    0.3766   -0.3342 C   0  0  0  0  0  0  0  0  0  0  0  0
   -0.4702   -0.5728   -1.1309 C   0  0  0  0  0  0  0  0  0  0  0  0
   -1.7259    0.1025   -1.6352 C   0  0  0  0  0  0  0  0  0  0  0  0
   -1.6532    1.3326   -2.3146 C   0  0  0  0  0  0  0  0  0  0  0  0
   -2.8169    1.9617   -2.7633 C   0  0  0  0  0  0  0  0  0  0  0  0
   -4.0605    1.3582   -2.5660 C   0  0  0  0  0  0  0  0  0  0  0  0
   -4.1501    0.1130   -1.9225 C   0  0  0  0  0  0  0  0  0  0  0  0
   -2.9785   -0.5107   -1.4620 C   0  0  0  0  0  0  0  0  0  0  0  0
   -5.4763   -0.5936   -1.8081 C   0  0  0  0  0  0  0  0  0  0  0  0
   -8.6910   -1.2829   -0.3441 H   0  0  0  0  0  0  0  0  0  0  0  0
   -7.9747   -1.6545   -1.9611 H   0  0  0  0  0  0  0  0  0  0  0  0
   -8.5486   -2.9752   -0.9011 H   0  0  0  0  0  0  0  0  0  0  0  0
   -6.1252   -2.9447   -0.8156 H   0  0  0  0  0  0  0  0  0  0  0  0
   -7.1959   -3.6151    1.2089 H   0  0  0  0  0  0  0  0  0  0  0  0
   -5.7242   -2.6718    1.6240 H   0  0  0  0  0  0  0  0  0  0  0  0
   -7.3710   -1.9255    1.7879 H   0  0  0  0  0  0  0  0  0  0  0  0
   -6.2165    1.2298   -0.2874 H   0  0  0  0  0  0  0  0  0  0  0  0
   -7.3899    0.2155    0.5713 H   0  0  0  0  0  0  0  0  0  0  0  0
   -5.9864    1.4194    2.1367 H   0  0  0  0  0  0  0  0  0  0  0  0
   -5.6793   -0.3484    2.2895 H   0  0  0  0  0  0  0  0  0  0  0  0
   -3.3076   -0.3734    2.8357 H   0  0  0  0  0  0  0  0  0  0  0  0
   -3.9355    1.2365    3.3856 H   0  0  0  0  0  0  0  0  0  0  0  0
   -1.4836    1.2102    3.2871 H   0  0  0  0  0  0  0  0  0  0  0  0
   -2.1846    2.3971    2.1076 H   0  0  0  0  0  0  0  0  0  0  0  0
    0.3432    2.4357    2.4014 H   0  0  0  0  0  0  0  0  0  0  0  0
    2.5975    2.9298    1.6105 H   0  0  0  0  0  0  0  0  0  0  0  0
    4.1232   -0.4586    0.9725 H   0  0  0  0  0  0  0  0  0  0  0  0
    4.1326   -0.8846   -0.7825 H   0  0  0  0  0  0  0  0  0  0  0  0
    6.5081   -1.3006   -0.7758 H   0  0  0  0  0  0  0  0  0  0  0  0
    5.8028   -2.1931    0.6183 H   0  0  0  0  0  0  0  0  0  0  0  0
    6.4380   -0.4073    2.1713 H   0  0  0  0  0  0  0  0  0  0  0  0
    8.0685   -2.1416    1.9448 H   0  0  0  0  0  0  0  0  0  0  0  0
    8.9115   -0.5777    2.1401 H   0  0  0  0  0  0  0  0  0  0  0  0
    8.5924   -2.2492   -0.4343 H   0  0  0  0  0  0  0  0  0  0  0  0
    9.2131   -0.5524   -0.4466 H   0  0  0  0  0  0  0  0  0  0  0  0
   10.8626   -2.1105   -0.3161 H   0  0  0  0  0  0  0  0  0  0  0  0
    8.2521    1.2806    0.5652 H   0  0  0  0  0  0  0  0  0  0  0  0
    6.9015    1.7132    1.6360 H   0  0  0  0  0  0  0  0  0  0  0  0
    6.3896    2.5992   -0.5167 H   0  0  0  0  0  0  0  0  0  0  0  0
    6.7934    1.0758   -1.3693 H   0  0  0  0  0  0  0  0  0  0  0  0
    2.0857    0.2067   -1.6767 H   0  0  0  0  0  0  0  0  0  0  0  0
    0.0823   -0.9786   -2.0081 H   0  0  0  0  0  0  0  0  0  0  0  0
   -0.7246   -1.4387   -0.4803 H   0  0  0  0  0  0  0  0  0  0  0  0
   -0.6953    1.8089   -2.4894 H   0  0  0  0  0  0  0  0  0  0  0  0
   -2.7514    2.9142   -3.2745 H   0  0  0  0  0  0  0  0  0  0  0  0
   -4.9497    1.8535   -2.9340 H   0  0  0  0  0  0  0  0  0  0  0  0
   -3.0459   -1.4730   -0.9675 H   0  0  0  0  0  0  0  0  0  0  0  0
   -6.2891    0.0081   -2.2748 H   0  0  0  0  0  0  0  0  0  0  0  0
   -5.3919   -1.5266   -2.4087 H   0  0  0  0  0  0  0  0  0  0  0  0
  1  2  1  0
  2  3  1  0
  2  4  1  0
  4  5  1  0
  5  6  1  0
  6  7  1  0
  7  8  1  0
  8  9  1  0
  9 10  1  0
 10 11  1  0
 11 12  2  0
 12 13  1  0
 13 14  2  0
 14 15  1  0
 15 16  2  0
 15 17  1  0
 17 18  1  0
 18 19  1  0
 19 20  1  0
 20 21  1  0
 21 22  1  0
 22 23  1  0
 20 24  1  0
 24 25  1  0
 14 26  1  0
 26 27  2  0
 27 28  1  0
 28 29  1  0
 29 30  1  0
 30 31  2  0
 31 32  1  0
 32 33  2  0
 33 34  1  0
 33 35  1  0
 35  4  1  0
 27 11  1  0
 34 29  2  0
 25 17  1  0
  1 36  1  0
  1 37  1  0
  1 38  1  0
  2 39  1  0
  3 40  1  0
  3 41  1  0
  3 42  1  0
  5 43  1  0
  5 44  1  0
  6 45  1  0
  6 46  1  0
  8 47  1  0
  8 48  1  0
  9 49  1  0
  9 50  1  0
 12 51  1  0
 13 52  1  0
 18 53  1  0
 18 54  1  0
 19 55  1  0
 19 56  1  0
 20 57  1  0
 21 58  1  0
 21 59  1  0
 22 60  1  0
 22 61  1  0
 23 62  1  0
 24 63  1  0
 24 64  1  0
 25 65  1  0
 25 66  1  0
 26 67  1  0
 28 68  1  0
 28 69  1  0
 30 70  1  0
 31 71  1  0
 32 72  1  0
 34 73  1  0
 35 74  1  0
 35 75  1  0
M  END
$$$$
