
     RDKit          3D

 73 75  0  0  0  0  0  0  0  0999 V2000
    6.4664   -2.2868    0.3161 C   0  0  0  0  0  0  0  0  0  0  0  0
    5.1738   -1.9445   -0.3663 C   0  0  0  0  0  0  0  0  0  0  0  0
    4.1859   -2.9256   -0.5474 C   0  0  0  0  0  0  0  0  0  0  0  0
    2.9949   -2.6112   -1.2081 C   0  0  0  0  0  0  0  0  0  0  0  0
    2.7879   -1.3217   -1.7076 C   0  0  0  0  0  0  0  0  0  0  0  0
    3.7782   -0.3352   -1.5549 C   0  0  0  0  0  0  0  0  0  0  0  0
    3.5485    1.0707   -2.0540 C   0  0  0  0  0  0  0  0  0  0  0  0
    3.1526    2.0090   -0.9061 C   0  0  0  0  0  0  0  0  0  0  0  0
    1.8534    1.6415   -0.3458 N   0  0  0  0  0  0  0  0  0  0  0  0
    1.4283    2.0922    0.9457 C   0  0  0  0  0  0  0  0  0  0  0  0
    2.1149    2.9365    1.5845 O   0  0  0  0  0  0  0  0  0  0  0  0
    0.1847    1.5110    1.5611 C   0  0  0  0  0  0  0  0  0  0  0  0
    0.5243    0.3387    2.4960 C   0  0  0  0  0  0  0  0  0  0  0  0
    1.0347   -0.8635    1.7477 C   0  0  0  0  0  0  0  0  0  0  0  0
    2.2800   -0.9825    1.5974 O   0  0  0  0  0  0  0  0  0  0  0  0
    0.1740   -1.9034    1.2438 N   0  0  0  0  0  0  0  0  0  0  0  0
   -1.2402   -1.7490    0.8522 C   0  0  0  0  0  0  0  0  0  0  0  0
   -1.6364   -2.9438   -0.0554 C   0  0  0  0  0  0  0  0  0  0  0  0
   -3.0520   -2.8702   -0.6740 C   0  0  0  0  0  0  0  0  0  0  0  0
   -3.1512   -1.7823   -1.7565 C   0  0  0  0  0  0  0  0  0  0  0  0
   -3.4305   -4.2278   -1.2817 C   0  0  0  0  0  0  0  0  0  0  0  0
   -2.1128   -1.6840    2.0863 C   0  0  0  0  0  0  0  0  0  0  0  0
   -2.1205   -2.6583    2.8857 O   0  0  0  0  0  0  0  0  0  0  0  0
   -2.8309   -0.4906    2.4382 N   0  0  0  0  0  0  0  0  0  0  0  0
   -3.9361    0.0514    1.6478 C   0  0  0  0  0  0  0  0  0  0  0  0
   -3.6509    1.4900    1.2247 C   0  0  0  0  0  0  0  0  0  0  0  0
   -2.7097    1.4780    0.1583 O   0  0  0  0  0  0  0  0  0  0  0  0
   -2.2136    2.6210   -0.4811 C   0  0  0  0  0  0  0  0  0  0  0  0
   -2.3531    2.6946   -1.8731 C   0  0  0  0  0  0  0  0  0  0  0  0
   -1.8813    3.8034   -2.5781 C   0  0  0  0  0  0  0  0  0  0  0  0
   -1.2581    4.8496   -1.8985 C   0  0  0  0  0  0  0  0  0  0  0  0
   -1.0883    4.7819   -0.5139 C   0  0  0  0  0  0  0  0  0  0  0  0
   -1.5389    3.6628    0.2081 C   0  0  0  0  0  0  0  0  0  0  0  0
   -1.2701    3.6233    1.6609 C   0  0  0  0  0  0  0  0  0  0  0  0
   -1.6464    4.5961    2.3691 O   0  0  0  0  0  0  0  0  0  0  0  0
   -0.5649    2.5418    2.2903 N   0  0  0  0  0  0  0  0  0  0  0  0
    4.9709   -0.6557   -0.8845 C   0  0  0  0  0  0  0  0  0  0  0  0
    7.2133   -2.6008   -0.4420 H   0  0  0  0  0  0  0  0  0  0  0  0
    6.8612   -1.4072    0.8694 H   0  0  0  0  0  0  0  0  0  0  0  0
    6.3221   -3.1141    1.0436 H   0  0  0  0  0  0  0  0  0  0  0  0
    4.3367   -3.9318   -0.1745 H   0  0  0  0  0  0  0  0  0  0  0  0
    2.2284   -3.3666   -1.3285 H   0  0  0  0  0  0  0  0  0  0  0  0
    1.8553   -1.0932   -2.2109 H   0  0  0  0  0  0  0  0  0  0  0  0
    2.7615    1.0829   -2.8394 H   0  0  0  0  0  0  0  0  0  0  0  0
    4.4838    1.4491   -2.5231 H   0  0  0  0  0  0  0  0  0  0  0  0
    3.0993    3.0529   -1.2814 H   0  0  0  0  0  0  0  0  0  0  0  0
    3.9311    1.9633   -0.1123 H   0  0  0  0  0  0  0  0  0  0  0  0
    1.2380    0.9761   -0.8679 H   0  0  0  0  0  0  0  0  0  0  0  0
   -0.4409    1.1156    0.7518 H   0  0  0  0  0  0  0  0  0  0  0  0
   -0.3605    0.0553    3.0937 H   0  0  0  0  0  0  0  0  0  0  0  0
    1.2925    0.6654    3.2318 H   0  0  0  0  0  0  0  0  0  0  0  0
    0.6467   -2.8123    1.0382 H   0  0  0  0  0  0  0  0  0  0  0  0
   -1.3440   -0.8223    0.2625 H   0  0  0  0  0  0  0  0  0  0  0  0
   -0.8965   -3.0278   -0.8832 H   0  0  0  0  0  0  0  0  0  0  0  0
   -1.5515   -3.8775    0.5436 H   0  0  0  0  0  0  0  0  0  0  0  0
   -3.7936   -2.6650    0.1237 H   0  0  0  0  0  0  0  0  0  0  0  0
   -4.1792   -1.7497   -2.1765 H   0  0  0  0  0  0  0  0  0  0  0  0
   -2.4345   -1.9839   -2.5816 H   0  0  0  0  0  0  0  0  0  0  0  0
   -2.9359   -0.7777   -1.3426 H   0  0  0  0  0  0  0  0  0  0  0  0
   -3.4129   -5.0155   -0.4978 H   0  0  0  0  0  0  0  0  0  0  0  0
   -4.4602   -4.1873   -1.7001 H   0  0  0  0  0  0  0  0  0  0  0  0
   -2.7218   -4.5102   -2.0912 H   0  0  0  0  0  0  0  0  0  0  0  0
   -2.7684   -0.1691    3.4312 H   0  0  0  0  0  0  0  0  0  0  0  0
   -4.1290   -0.5618    0.7492 H   0  0  0  0  0  0  0  0  0  0  0  0
   -4.8566    0.0322    2.2693 H   0  0  0  0  0  0  0  0  0  0  0  0
   -3.2791    2.0635    2.0963 H   0  0  0  0  0  0  0  0  0  0  0  0
   -4.5936    1.9588    0.8678 H   0  0  0  0  0  0  0  0  0  0  0  0
   -2.8399    1.8888   -2.4099 H   0  0  0  0  0  0  0  0  0  0  0  0
   -1.9971    3.8504   -3.6528 H   0  0  0  0  0  0  0  0  0  0  0  0
   -0.8931    5.7084   -2.4477 H   0  0  0  0  0  0  0  0  0  0  0  0
   -0.5793    5.5948   -0.0080 H   0  0  0  0  0  0  0  0  0  0  0  0
   -0.5078    2.5579    3.3349 H   0  0  0  0  0  0  0  0  0  0  0  0
    5.7381    0.1007   -0.7624 H   0  0  0  0  0  0  0  0  0  0  0  0
  1  2  1  0
  2  3  2  0
  3  4  1  0
  4  5  2  0
  5  6  1  0
  6  7  1  0
  7  8  1  0
  8  9  1  0
  9 10  1  0
 10 11  2  0
 10 12  1  0
 12 13  1  0
 13 14  1  0
 14 15  2  0
 14 16  1  0
 16 17  1  0
 17 18  1  0
 18 19  1  0
 19 20  1  0
 19 21  1  0
 17 22  1  0
 22 23  2  0
 22 24  1  0
 24 25  1  0
 25 26  1  0
 26 27  1  0
 27 28  1  0
 28 29  2  0
 29 30  1  0
 30 31  2  0
 31 32  1  0
 32 33  2  0
 33 34  1  0
 34 35  2  0
 34 36  1  0
  6 37  2  0
 37  2  1  0
 36 12  1  0
 33 28  1  0
  1 38  1  0
  1 39  1  0
  1 40  1  0
  3 41  1  0
  4 42  1  0
  5 43  1  0
  7 44  1  0
  7 45  1  0
  8 46  1  0
  8 47  1  0
  9 48  1  0
 12 49  1  0
 13 50  1  0
 13 51  1  0
 16 52  1  0
 17 53  1  0
 18 54  1  0
 18 55  1  0
 19 56  1  0
 20 57  1  0
 20 58  1  0
 20 59  1  0
 21 60  1  0
 21 61  1  0
 21 62  1  0
 24 63  1  0
 25 64  1  0
 25 65  1  0
 26 66  1  0
 26 67  1  0
 29 68  1  0
 30 69  1  0
 31 70  1  0
 32 71  1  0
 36 72  1  0
 37 73  1  0
M  END
$$$$
