
     RDKit          3D

 64 68  0  0  0  0  0  0  0  0999 V2000
    1.8284   -3.1102    2.7716 O   0  0  0  0  0  0  0  0  0  0  0  0
    2.0452   -2.5347    1.6716 C   0  0  0  0  0  0  0  0  0  0  0  0
    3.4579   -2.4066    1.1927 C   0  0  0  0  0  0  0  0  0  0  0  0
    3.8484   -1.0396    1.2540 O   0  0  0  0  0  0  0  0  0  0  0  0
    5.0543   -0.5284    0.7513 C   0  0  0  0  0  0  0  0  0  0  0  0
    6.0563   -1.3763    0.2397 C   0  0  0  0  0  0  0  0  0  0  0  0
    7.2459   -0.8451   -0.2583 C   0  0  0  0  0  0  0  0  0  0  0  0
    7.4531    0.5331   -0.2527 C   0  0  0  0  0  0  0  0  0  0  0  0
    6.4703    1.3862    0.2493 C   0  0  0  0  0  0  0  0  0  0  0  0
    5.2610    0.8704    0.7476 C   0  0  0  0  0  0  0  0  0  0  0  0
    4.2430    1.8273    1.3387 C   0  0  0  0  0  0  0  0  0  0  0  0
    2.8302    1.6085    0.8560 C   0  0  0  0  0  0  0  0  0  0  0  0
    2.5320    1.3979   -0.4357 C   0  0  0  0  0  0  0  0  0  0  0  0
    1.1114    1.2404   -0.9189 C   0  0  0  0  0  0  0  0  0  0  0  0
    0.3266    0.0833   -0.2468 C   0  0  0  0  0  0  0  0  0  0  0  0
    1.0139   -1.3168   -0.3643 C   0  0  0  0  0  0  0  0  0  0  0  0
    0.3859   -2.2270   -1.4425 C   0  0  0  0  0  0  0  0  0  0  0  0
   -0.1629   -1.4215   -2.6142 C   0  0  0  0  0  0  0  0  0  0  0  0
   -1.2975   -0.5058   -2.1377 C   0  0  0  0  0  0  0  0  0  0  0  0
   -1.0450    0.0541   -0.7973 N   0  0  0  0  0  0  0  0  0  0  0  0
   -2.1203    0.6904   -0.0698 C   0  0  0  0  0  0  0  0  0  0  0  0
   -2.0630    0.7618    1.1893 O   0  0  0  0  0  0  0  0  0  0  0  0
   -3.2722    1.3576   -0.7807 C   0  0  0  0  0  0  0  0  0  0  0  0
   -4.4792    1.3404    0.0522 N   0  0  0  0  0  0  0  0  0  0  0  0
   -4.9597    2.3153    0.8752 C   0  0  0  0  0  0  0  0  0  0  0  0
   -4.3340    3.6718    1.0453 C   0  0  0  0  0  0  0  0  0  0  0  0
   -4.9595    4.3595    2.0681 F   0  0  0  0  0  0  0  0  0  0  0  0
   -2.9930    3.5410    1.3570 F   0  0  0  0  0  0  0  0  0  0  0  0
   -4.4672    4.3943   -0.1270 F   0  0  0  0  0  0  0  0  0  0  0  0
   -6.1012    1.9549    1.5218 N   0  0  0  0  0  0  0  0  0  0  0  0
   -6.3167    0.6987    1.0885 C   0  0  0  0  0  0  0  0  0  0  0  0
   -7.3569   -0.1561    1.4468 C   0  0  0  0  0  0  0  0  0  0  0  0
   -7.3757   -1.4422    0.8736 C   0  0  0  0  0  0  0  0  0  0  0  0
   -6.3645   -1.8364   -0.0310 C   0  0  0  0  0  0  0  0  0  0  0  0
   -5.3270   -0.9481   -0.3723 C   0  0  0  0  0  0  0  0  0  0  0  0
   -5.3428    0.3212    0.2112 C   0  0  0  0  0  0  0  0  0  0  0  0
    0.9321   -2.0065    0.9319 N   0  0  0  0  0  0  0  0  0  0  0  0
    4.1332   -3.0133    1.8348 H   0  0  0  0  0  0  0  0  0  0  0  0
    3.5253   -2.7849    0.1501 H   0  0  0  0  0  0  0  0  0  0  0  0
    5.9282   -2.4499    0.2294 H   0  0  0  0  0  0  0  0  0  0  0  0
    8.0122   -1.5052   -0.6428 H   0  0  0  0  0  0  0  0  0  0  0  0
    8.3799    0.9424   -0.6331 H   0  0  0  0  0  0  0  0  0  0  0  0
    6.6572    2.4533    0.2532 H   0  0  0  0  0  0  0  0  0  0  0  0
    4.5164    2.8791    1.1023 H   0  0  0  0  0  0  0  0  0  0  0  0
    4.2651    1.7268    2.4455 H   0  0  0  0  0  0  0  0  0  0  0  0
    2.0330    1.6677    1.5904 H   0  0  0  0  0  0  0  0  0  0  0  0
    3.3296    1.3545   -1.1724 H   0  0  0  0  0  0  0  0  0  0  0  0
    1.1313    1.1056   -2.0186 H   0  0  0  0  0  0  0  0  0  0  0  0
    0.5716    2.1929   -0.7255 H   0  0  0  0  0  0  0  0  0  0  0  0
    0.2828    0.3383    0.8342 H   0  0  0  0  0  0  0  0  0  0  0  0
    2.0733   -1.1674   -0.6515 H   0  0  0  0  0  0  0  0  0  0  0  0
   -0.4468   -2.8265   -1.0096 H   0  0  0  0  0  0  0  0  0  0  0  0
    1.1511   -2.9443   -1.8106 H   0  0  0  0  0  0  0  0  0  0  0  0
    0.6516   -0.8307   -3.0818 H   0  0  0  0  0  0  0  0  0  0  0  0
   -0.5513   -2.1157   -3.3900 H   0  0  0  0  0  0  0  0  0  0  0  0
   -2.2277   -1.1130   -2.1048 H   0  0  0  0  0  0  0  0  0  0  0  0
   -1.4379    0.3181   -2.8697 H   0  0  0  0  0  0  0  0  0  0  0  0
   -2.9842    2.4015   -1.0240 H   0  0  0  0  0  0  0  0  0  0  0  0
   -3.4993    0.8628   -1.7461 H   0  0  0  0  0  0  0  0  0  0  0  0
   -8.1234    0.1568    2.1431 H   0  0  0  0  0  0  0  0  0  0  0  0
   -8.1699   -2.1323    1.1283 H   0  0  0  0  0  0  0  0  0  0  0  0
   -6.3888   -2.8273   -0.4651 H   0  0  0  0  0  0  0  0  0  0  0  0
   -4.5490   -1.2451   -1.0621 H   0  0  0  0  0  0  0  0  0  0  0  0
   -0.0212   -2.1513    1.3380 H   0  0  0  0  0  0  0  0  0  0  0  0
  1  2  2  0
  2  3  1  0
  3  4  1  0
  4  5  1  0
  5  6  2  0
  6  7  1  0
  7  8  2  0
  8  9  1  0
  9 10  2  0
 10 11  1  0
 11 12  1  0
 12 13  2  0
 13 14  1  0
 14 15  1  0
 15 16  1  0
 16 17  1  0
 17 18  1  0
 18 19  1  0
 19 20  1  0
 20 21  1  0
 21 22  2  0
 21 23  1  0
 23 24  1  0
 24 25  1  0
 25 26  1  0
 26 27  1  0
 26 28  1  0
 26 29  1  0
 25 30  2  0
 30 31  1  0
 31 32  2  0
 32 33  1  0
 33 34  2  0
 34 35  1  0
 35 36  2  0
 16 37  1  0
 37  2  1  0
 10  5  1  0
 20 15  1  0
 36 24  1  0
 36 31  1  0
  3 38  1  0
  3 39  1  0
  6 40  1  0
  7 41  1  0
  8 42  1  0
  9 43  1  0
 11 44  1  0
 11 45  1  0
 12 46  1  0
 13 47  1  0
 14 48  1  0
 14 49  1  0
 15 50  1  0
 16 51  1  0
 17 52  1  0
 17 53  1  0
 18 54  1  0
 18 55  1  0
 19 56  1  0
 19 57  1  0
 23 58  1  0
 23 59  1  0
 32 60  1  0
 33 61  1  0
 34 62  1  0
 35 63  1  0
 37 64  1  0
M  END
$$$$
