
     RDKit          3D

 67 70  0  0  0  0  0  0  0  0999 V2000
    5.5950    0.1603   -2.0274 C   0  0  0  0  0  0  0  0  0  0  0  0
    4.5089    1.0772   -1.4698 C   0  0  0  0  0  0  0  0  0  0  0  0
    4.2607    0.7938   -0.0071 C   0  0  0  0  0  0  0  0  0  0  0  0
    5.0083    1.5303    0.9321 C   0  0  0  0  0  0  0  0  0  0  0  0
    4.8231    1.3428    2.3015 C   0  0  0  0  0  0  0  0  0  0  0  0
    3.8933    0.4131    2.7581 C   0  0  0  0  0  0  0  0  0  0  0  0
    3.1550   -0.3407    1.8470 C   0  0  0  0  0  0  0  0  0  0  0  0
    3.3313   -0.1798    0.4621 C   0  0  0  0  0  0  0  0  0  0  0  0
    2.3208   -1.2083   -0.5777 S   0  0  0  0  0  6  0  0  0  0  0  0
    2.4414   -2.6094   -0.0426 O   0  0  0  0  0  0  0  0  0  0  0  0
    2.7792   -1.2352   -2.0086 O   0  0  0  0  0  0  0  0  0  0  0  0
    0.6504   -0.6714   -0.4868 N   0  0  0  0  0  0  0  0  0  0  0  0
    0.4363    0.5895   -1.2402 C   0  0  0  0  0  0  0  0  0  0  0  0
    0.6739    1.8336   -0.3658 C   0  0  0  0  0  0  0  0  0  0  0  0
   -0.2005    1.9021    0.9021 C   0  0  0  0  0  0  0  0  0  0  0  0
   -1.5220    2.6721    0.7245 C   0  0  0  0  0  0  0  0  0  0  0  0
   -2.4233    2.0618   -0.2692 N   0  0  0  0  0  0  0  0  0  0  0  0
   -2.5063    2.6600   -1.6067 C   0  0  0  0  0  0  0  0  0  0  0  0
   -3.4410    1.1041    0.1088 C   0  0  0  0  0  0  0  0  0  0  0  0
   -4.3581    0.8094   -0.7076 O   0  0  0  0  0  0  0  0  0  0  0  0
   -3.4955    0.4881    1.4459 C   0  0  0  0  0  0  0  0  0  0  0  0
   -4.4667    0.9749    2.3363 C   0  0  0  0  0  0  0  0  0  0  0  0
   -4.5628    0.4667    3.6326 C   0  0  0  0  0  0  0  0  0  0  0  0
   -3.6931   -0.5372    4.0535 C   0  0  0  0  0  0  0  0  0  0  0  0
   -2.7349   -1.0444    3.1746 C   0  0  0  0  0  0  0  0  0  0  0  0
   -2.6333   -0.5623    1.8628 C   0  0  0  0  0  0  0  0  0  0  0  0
   -1.6259   -1.1286    1.0644 O   0  0  0  0  0  0  0  0  0  0  0  0
   -1.7133   -1.4928   -0.3151 C   0  0  0  0  0  0  0  0  0  0  0  0
   -2.6249   -2.7320   -0.4754 C   0  0  0  0  0  0  0  0  0  0  0  0
   -2.2700   -3.6030   -1.6983 C   0  0  0  0  0  0  0  0  0  0  0  0
   -1.6078   -2.7868   -2.8139 C   0  0  0  0  0  0  0  0  0  0  0  0
   -0.2833   -2.1506   -2.3479 C   0  0  0  0  0  0  0  0  0  0  0  0
   -0.2870   -1.7761   -0.8361 C   0  0  0  0  0  0  0  0  0  0  0  0
    5.7295    0.3557   -3.1120 H   0  0  0  0  0  0  0  0  0  0  0  0
    5.3248   -0.9070   -1.8872 H   0  0  0  0  0  0  0  0  0  0  0  0
    6.5590    0.3545   -1.5108 H   0  0  0  0  0  0  0  0  0  0  0  0
    3.5770    1.0006   -2.0613 H   0  0  0  0  0  0  0  0  0  0  0  0
    4.8443    2.1296   -1.6007 H   0  0  0  0  0  0  0  0  0  0  0  0
    5.7353    2.2629    0.6023 H   0  0  0  0  0  0  0  0  0  0  0  0
    5.4010    1.9222    3.0102 H   0  0  0  0  0  0  0  0  0  0  0  0
    3.7469    0.2717    3.8210 H   0  0  0  0  0  0  0  0  0  0  0  0
    2.4367   -1.0575    2.2256 H   0  0  0  0  0  0  0  0  0  0  0  0
   -0.5864    0.6524   -1.6489 H   0  0  0  0  0  0  0  0  0  0  0  0
    1.1055    0.6479   -2.1245 H   0  0  0  0  0  0  0  0  0  0  0  0
    1.7361    1.8559   -0.0609 H   0  0  0  0  0  0  0  0  0  0  0  0
    0.5306    2.7475   -0.9813 H   0  0  0  0  0  0  0  0  0  0  0  0
   -0.3751    0.9014    1.3266 H   0  0  0  0  0  0  0  0  0  0  0  0
    0.3821    2.4493    1.6769 H   0  0  0  0  0  0  0  0  0  0  0  0
   -2.0375    2.7507    1.7060 H   0  0  0  0  0  0  0  0  0  0  0  0
   -1.2817    3.7186    0.4327 H   0  0  0  0  0  0  0  0  0  0  0  0
   -3.4345    3.2636   -1.6880 H   0  0  0  0  0  0  0  0  0  0  0  0
   -1.6371    3.3195   -1.8157 H   0  0  0  0  0  0  0  0  0  0  0  0
   -2.5234    1.8630   -2.3800 H   0  0  0  0  0  0  0  0  0  0  0  0
   -5.1409    1.7674    2.0317 H   0  0  0  0  0  0  0  0  0  0  0  0
   -5.3067    0.8589    4.3144 H   0  0  0  0  0  0  0  0  0  0  0  0
   -3.7634   -0.9256    5.0608 H   0  0  0  0  0  0  0  0  0  0  0  0
   -2.0668   -1.8265    3.5133 H   0  0  0  0  0  0  0  0  0  0  0  0
   -2.1387   -0.6833   -0.9257 H   0  0  0  0  0  0  0  0  0  0  0  0
   -3.6786   -2.3870   -0.5640 H   0  0  0  0  0  0  0  0  0  0  0  0
   -2.5628   -3.3662    0.4365 H   0  0  0  0  0  0  0  0  0  0  0  0
   -3.1922   -4.0851   -2.0886 H   0  0  0  0  0  0  0  0  0  0  0  0
   -1.5741   -4.4142   -1.3881 H   0  0  0  0  0  0  0  0  0  0  0  0
   -2.3102   -1.9895   -3.1421 H   0  0  0  0  0  0  0  0  0  0  0  0
   -1.4138   -3.4439   -3.6889 H   0  0  0  0  0  0  0  0  0  0  0  0
   -0.0843   -1.2714   -2.9922 H   0  0  0  0  0  0  0  0  0  0  0  0
    0.5426   -2.8718   -2.5285 H   0  0  0  0  0  0  0  0  0  0  0  0
    0.0290   -2.6855   -0.2786 H   0  0  0  0  0  0  0  0  0  0  0  0
  1  2  1  0
  2  3  1  0
  3  4  2  0
  4  5  1  0
  5  6  2  0
  6  7  1  0
  7  8  2  0
  8  9  1  0
  9 10  2  0
  9 11  2  0
  9 12  1  0
 12 13  1  0
 13 14  1  0
 14 15  1  0
 15 16  1  0
 16 17  1  0
 17 18  1  0
 17 19  1  0
 19 20  2  0
 19 21  1  0
 21 22  2  0
 22 23  1  0
 23 24  2  0
 24 25  1  0
 25 26  2  0
 26 27  1  0
 27 28  1  0
 28 29  1  0
 29 30  1  0
 30 31  1  0
 31 32  1  0
 32 33  1  0
  8  3  1  0
 33 12  1  0
 26 21  1  0
 33 28  1  0
  1 34  1  0
  1 35  1  0
  1 36  1  0
  2 37  1  0
  2 38  1  0
  4 39  1  0
  5 40  1  0
  6 41  1  0
  7 42  1  0
 13 43  1  0
 13 44  1  0
 14 45  1  0
 14 46  1  0
 15 47  1  0
 15 48  1  0
 16 49  1  0
 16 50  1  0
 18 51  1  0
 18 52  1  0
 18 53  1  0
 22 54  1  0
 23 55  1  0
 24 56  1  0
 25 57  1  0
 28 58  1  0
 29 59  1  0
 29 60  1  0
 30 61  1  0
 30 62  1  0
 31 63  1  0
 31 64  1  0
 32 65  1  0
 32 66  1  0
 33 67  1  0
M  END
$$$$
