
     RDKit          3D

 76 79  0  0  0  0  0  0  0  0999 V2000
   -2.6021   -4.7662    2.2644 C   0  0  0  0  0  0  0  0  0  0  0  0
   -1.6272   -3.9986    1.3757 C   0  0  0  0  0  0  0  0  0  0  0  0
   -2.2290   -2.6986    0.8211 C   0  0  0  0  0  0  0  0  0  0  0  0
   -2.4175   -1.6297    1.9084 C   0  0  0  0  0  0  0  0  0  0  0  0
   -2.7044   -0.3145    1.3225 N   0  0  0  0  0  0  0  0  0  0  0  0
   -4.0554   -0.0865    0.7480 C   0  0  0  0  0  0  0  0  0  0  0  0
   -4.4219    1.4100    0.5740 C   0  0  0  0  0  0  0  0  0  0  0  0
   -5.3383    1.6223   -0.5059 O   0  0  0  0  0  0  0  0  0  0  0  0
   -5.0784    1.3764   -1.8684 C   0  0  0  0  0  0  0  0  0  0  0  0
   -5.9601    0.5078   -2.5285 C   0  0  0  0  0  0  0  0  0  0  0  0
   -5.8097    0.2210   -3.8855 C   0  0  0  0  0  0  0  0  0  0  0  0
   -4.7770    0.8058   -4.6120 C   0  0  0  0  0  0  0  0  0  0  0  0
   -3.8931    1.6828   -3.9848 C   0  0  0  0  0  0  0  0  0  0  0  0
   -4.0301    1.9946   -2.6163 C   0  0  0  0  0  0  0  0  0  0  0  0
   -3.0590    3.0062   -2.0340 C   0  0  0  0  0  0  0  0  0  0  0  0
   -1.6126    2.4651   -1.8582 C   0  0  0  0  0  0  0  0  0  0  0  0
   -1.5337    0.9658   -1.4857 C   0  0  0  0  0  0  0  0  0  0  0  0
   -0.3829    0.5454   -0.5517 C   0  0  0  0  0  0  0  0  0  0  0  0
   -0.4489    0.9822    0.9553 C   0  0  0  0  0  0  0  0  0  0  0  0
    0.5851    0.1193    1.7537 C   0  0  0  0  0  0  0  0  0  0  0  0
    1.9525    0.5422    1.4486 N   0  0  0  0  0  0  0  0  0  0  0  0
    3.0390   -0.4002    1.5581 C   0  0  0  0  0  0  0  0  0  0  0  0
    2.8566   -1.4925    2.1663 O   0  0  0  0  0  0  0  0  0  0  0  0
    4.4126   -0.0694    1.0306 C   0  0  0  0  0  0  0  0  0  0  0  0
    5.2097   -1.3249    0.6554 C   0  0  0  0  0  0  0  0  0  0  0  0
    6.5436   -0.9548    0.1552 N   0  0  0  0  0  0  0  0  0  0  0  0
    7.5738   -0.8384    1.0494 C   0  0  0  0  0  0  0  0  0  0  0  0
    8.8534   -0.4742    0.6240 C   0  0  0  0  0  0  0  0  0  0  0  0
    9.0778   -0.2135   -0.7252 C   0  0  0  0  0  0  0  0  0  0  0  0
    8.0221   -0.3076   -1.6291 C   0  0  0  0  0  0  0  0  0  0  0  0
    6.7500   -0.6772   -1.1741 C   0  0  0  0  0  0  0  0  0  0  0  0
    5.7979   -0.7445   -2.0006 O   0  0  0  0  0  0  0  0  0  0  0  0
    2.2118    1.9718    1.2673 C   0  0  0  0  0  0  0  0  0  0  0  0
    0.9830    2.7763    1.6900 C   0  0  0  0  0  0  0  0  0  0  0  0
   -0.1768    2.3891    0.9803 O   0  0  0  0  0  0  0  0  0  0  0  0
   -1.8071    0.7774    1.6317 C   0  0  0  0  0  0  0  0  0  0  0  0
   -2.1192    1.5510    2.5814 O   0  0  0  0  0  0  0  0  0  0  0  0
   -2.1294   -5.7133    2.6053 H   0  0  0  0  0  0  0  0  0  0  0  0
   -3.5222   -5.0162    1.6900 H   0  0  0  0  0  0  0  0  0  0  0  0
   -2.8704   -4.1663    3.1632 H   0  0  0  0  0  0  0  0  0  0  0  0
   -1.3397   -4.6552    0.5210 H   0  0  0  0  0  0  0  0  0  0  0  0
   -0.7004   -3.7740    1.9499 H   0  0  0  0  0  0  0  0  0  0  0  0
   -3.2010   -2.9011    0.3168 H   0  0  0  0  0  0  0  0  0  0  0  0
   -1.5301   -2.3156    0.0503 H   0  0  0  0  0  0  0  0  0  0  0  0
   -1.5121   -1.5836    2.5521 H   0  0  0  0  0  0  0  0  0  0  0  0
   -3.2554   -1.9217    2.5744 H   0  0  0  0  0  0  0  0  0  0  0  0
   -4.1148   -0.6107   -0.2325 H   0  0  0  0  0  0  0  0  0  0  0  0
   -4.8262   -0.5599    1.3965 H   0  0  0  0  0  0  0  0  0  0  0  0
   -4.9006    1.7664    1.5086 H   0  0  0  0  0  0  0  0  0  0  0  0
   -3.5368    2.0455    0.4368 H   0  0  0  0  0  0  0  0  0  0  0  0
   -6.7700    0.0425   -1.9798 H   0  0  0  0  0  0  0  0  0  0  0  0
   -6.5026   -0.4509   -4.3753 H   0  0  0  0  0  0  0  0  0  0  0  0
   -4.6676    0.5916   -5.6667 H   0  0  0  0  0  0  0  0  0  0  0  0
   -3.1056    2.1377   -4.5740 H   0  0  0  0  0  0  0  0  0  0  0  0
   -3.0133    3.8774   -2.7218 H   0  0  0  0  0  0  0  0  0  0  0  0
   -3.4407    3.4525   -1.0944 H   0  0  0  0  0  0  0  0  0  0  0  0
   -1.0619    2.6125   -2.8164 H   0  0  0  0  0  0  0  0  0  0  0  0
   -1.0902    3.1025   -1.1174 H   0  0  0  0  0  0  0  0  0  0  0  0
   -1.4474    0.3895   -2.4264 H   0  0  0  0  0  0  0  0  0  0  0  0
   -2.4607    0.6222   -1.0485 H   0  0  0  0  0  0  0  0  0  0  0  0
   -0.3218   -0.5609   -0.6067 H   0  0  0  0  0  0  0  0  0  0  0  0
    0.5697    0.9107   -0.9986 H   0  0  0  0  0  0  0  0  0  0  0  0
    0.4276    0.2224    2.8510 H   0  0  0  0  0  0  0  0  0  0  0  0
    0.4536   -0.9585    1.5098 H   0  0  0  0  0  0  0  0  0  0  0  0
    4.3192    0.5672    0.1267 H   0  0  0  0  0  0  0  0  0  0  0  0
    4.9573    0.5016    1.8092 H   0  0  0  0  0  0  0  0  0  0  0  0
    4.6499   -1.9088   -0.1084 H   0  0  0  0  0  0  0  0  0  0  0  0
    5.3122   -1.9945    1.5403 H   0  0  0  0  0  0  0  0  0  0  0  0
    7.4131   -1.0328    2.1028 H   0  0  0  0  0  0  0  0  0  0  0  0
    9.6648   -0.3966    1.3383 H   0  0  0  0  0  0  0  0  0  0  0  0
   10.0661    0.0674   -1.0700 H   0  0  0  0  0  0  0  0  0  0  0  0
    8.1888   -0.0930   -2.6758 H   0  0  0  0  0  0  0  0  0  0  0  0
    3.0761    2.2874    1.8916 H   0  0  0  0  0  0  0  0  0  0  0  0
    2.4479    2.1764    0.2005 H   0  0  0  0  0  0  0  0  0  0  0  0
    1.1805    3.8520    1.4929 H   0  0  0  0  0  0  0  0  0  0  0  0
    0.8096    2.6666    2.7831 H   0  0  0  0  0  0  0  0  0  0  0  0
  1  2  1  0
  2  3  1  0
  3  4  1  0
  4  5  1  0
  5  6  1  0
  6  7  1  0
  7  8  1  0
  8  9  1  0
  9 10  2  0
 10 11  1  0
 11 12  2  0
 12 13  1  0
 13 14  2  0
 14 15  1  0
 15 16  1  0
 16 17  1  0
 17 18  1  0
 18 19  1  0
 19 20  1  0
 20 21  1  0
 21 22  1  0
 22 23  2  0
 22 24  1  0
 24 25  1  0
 25 26  1  0
 26 27  1  0
 27 28  2  0
 28 29  1  0
 29 30  2  0
 30 31  1  0
 31 32  2  0
 21 33  1  0
 33 34  1  0
 34 35  1  0
 19 36  1  0
 36 37  2  0
 36  5  1  0
 14  9  1  0
 35 19  1  0
 31 26  1  0
  1 38  1  0
  1 39  1  0
  1 40  1  0
  2 41  1  0
  2 42  1  0
  3 43  1  0
  3 44  1  0
  4 45  1  0
  4 46  1  0
  6 47  1  0
  6 48  1  0
  7 49  1  0
  7 50  1  0
 10 51  1  0
 11 52  1  0
 12 53  1  0
 13 54  1  0
 15 55  1  0
 15 56  1  0
 16 57  1  0
 16 58  1  0
 17 59  1  0
 17 60  1  0
 18 61  1  0
 18 62  1  0
 20 63  1  0
 20 64  1  0
 24 65  1  0
 24 66  1  0
 25 67  1  0
 25 68  1  0
 27 69  1  0
 28 70  1  0
 29 71  1  0
 30 72  1  0
 33 73  1  0
 33 74  1  0
 34 75  1  0
 34 76  1  0
M  END
$$$$
