
     RDKit          3D

 75 79  0  0  0  0  0  0  0  0999 V2000
    9.3982   -0.3921   -1.4435 C   0  0  0  0  0  0  0  0  0  0  0  0
    8.2616   -0.0160   -0.4982 C   0  0  0  0  0  0  0  0  0  0  0  0
    6.9322    0.3026   -1.2435 C   0  0  0  0  0  0  0  0  0  0  0  0
    5.9587   -0.5872   -0.5588 C   0  0  0  0  0  0  0  0  0  0  0  0
    4.5835   -0.7059   -0.7767 C   0  0  0  0  0  0  0  0  0  0  0  0
    3.8577   -1.6496   -0.0138 C   0  0  0  0  0  0  0  0  0  0  0  0
    2.3685   -1.8255   -0.2281 C   0  0  0  0  0  0  0  0  0  0  0  0
    1.6710   -0.5360   -0.2326 N   0  0  0  0  0  0  0  0  0  0  0  0
    1.6975    0.3541    0.8945 C   0  0  0  0  0  0  0  0  0  0  0  0
    2.4399    0.1022    1.8822 O   0  0  0  0  0  0  0  0  0  0  0  0
    1.0384    1.6970    0.8161 C   0  0  0  0  0  0  0  0  0  0  0  0
   -0.4378    1.6129    0.7082 N   0  0  0  0  0  0  0  0  0  0  0  0
   -0.9554    2.9237    0.1957 C   0  0  0  0  0  0  0  0  0  0  0  0
   -1.1031    2.9265   -1.3697 C   0  0  0  0  0  0  0  0  0  0  0  0
   -2.5356    2.7534   -2.0112 C   0  0  0  0  0  0  0  0  0  0  0  0
   -3.3862    1.5817   -1.4124 C   0  0  0  0  0  0  0  0  0  0  0  0
   -2.4439    0.3221   -1.4591 C   0  0  0  0  0  0  0  0  0  0  0  0
   -4.0054    2.1359   -0.0770 C   0  0  0  0  0  0  0  0  0  0  0  0
   -4.6189    1.1426   -2.2343 C   0  0  0  0  0  0  0  0  0  0  0  0
   -5.0821   -0.1663   -1.8195 O   0  0  0  0  0  0  0  0  0  0  0  0
   -5.6603   -0.5721   -0.5844 C   0  0  0  0  0  0  0  0  0  0  0  0
   -7.0128   -0.9198   -0.6426 C   0  0  0  0  0  0  0  0  0  0  0  0
   -7.6712   -1.4414    0.4738 C   0  0  0  0  0  0  0  0  0  0  0  0
   -6.9824   -1.6359    1.6662 C   0  0  0  0  0  0  0  0  0  0  0  0
   -5.6291   -1.3148    1.7557 C   0  0  0  0  0  0  0  0  0  0  0  0
   -4.9475   -0.7689    0.6590 C   0  0  0  0  0  0  0  0  0  0  0  0
   -3.6176   -0.3402    0.8600 O   0  0  0  0  0  0  0  0  0  0  0  0
   -2.5884   -1.0355    1.5306 C   0  0  0  0  0  0  0  0  0  0  0  0
   -2.7419   -2.3752    1.6938 N   0  0  0  0  0  0  0  0  0  0  0  0
   -1.7932   -3.1553    2.2735 C   0  0  0  0  0  0  0  0  0  0  0  0
   -0.6228   -2.5827    2.7775 C   0  0  0  0  0  0  0  0  0  0  0  0
   -0.4290   -1.2093    2.6561 C   0  0  0  0  0  0  0  0  0  0  0  0
   -1.3766   -0.3920    1.9940 C   0  0  0  0  0  0  0  0  0  0  0  0
   -1.0821    1.1283    1.9751 C   0  0  0  0  0  0  0  0  0  0  0  0
    4.5523   -2.4834    0.8990 C   0  0  0  0  0  0  0  0  0  0  0  0
    5.9434   -2.3575    1.0691 C   0  0  0  0  0  0  0  0  0  0  0  0
    6.6156   -1.3901    0.3320 C   0  0  0  0  0  0  0  0  0  0  0  0
    7.9611   -1.1125    0.3697 O   0  0  0  0  0  0  0  0  0  0  0  0
   10.3146   -0.6036   -0.8567 H   0  0  0  0  0  0  0  0  0  0  0  0
    9.6138    0.4419   -2.1448 H   0  0  0  0  0  0  0  0  0  0  0  0
    9.1264   -1.3031   -2.0252 H   0  0  0  0  0  0  0  0  0  0  0  0
    8.5608    0.8659    0.1232 H   0  0  0  0  0  0  0  0  0  0  0  0
    6.6483    1.3773   -1.1058 H   0  0  0  0  0  0  0  0  0  0  0  0
    6.9720    0.0392   -2.3278 H   0  0  0  0  0  0  0  0  0  0  0  0
    4.0933   -0.0910   -1.5339 H   0  0  0  0  0  0  0  0  0  0  0  0
    1.9233   -2.4621    0.5703 H   0  0  0  0  0  0  0  0  0  0  0  0
    2.2060   -2.3409   -1.2098 H   0  0  0  0  0  0  0  0  0  0  0  0
    1.0332   -0.3155   -1.0240 H   0  0  0  0  0  0  0  0  0  0  0  0
    1.4648    2.1952   -0.0870 H   0  0  0  0  0  0  0  0  0  0  0  0
    1.3329    2.3263    1.6885 H   0  0  0  0  0  0  0  0  0  0  0  0
   -0.2433    3.7442    0.4626 H   0  0  0  0  0  0  0  0  0  0  0  0
   -1.8593    3.2969    0.6994 H   0  0  0  0  0  0  0  0  0  0  0  0
   -0.4089    2.1673   -1.8005 H   0  0  0  0  0  0  0  0  0  0  0  0
   -0.7045    3.8979   -1.7340 H   0  0  0  0  0  0  0  0  0  0  0  0
   -2.3889    2.5753   -3.1028 H   0  0  0  0  0  0  0  0  0  0  0  0
   -3.0893    3.7233   -1.9707 H   0  0  0  0  0  0  0  0  0  0  0  0
   -1.6635    0.3193   -0.7175 H   0  0  0  0  0  0  0  0  0  0  0  0
   -2.9133   -0.6770   -1.3641 H   0  0  0  0  0  0  0  0  0  0  0  0
   -1.9313    0.2700   -2.4505 H   0  0  0  0  0  0  0  0  0  0  0  0
   -4.1340    3.2434   -0.0896 H   0  0  0  0  0  0  0  0  0  0  0  0
   -3.4325    1.9098    0.8051 H   0  0  0  0  0  0  0  0  0  0  0  0
   -5.0438    1.7909    0.1265 H   0  0  0  0  0  0  0  0  0  0  0  0
   -4.3244    1.0773   -3.3096 H   0  0  0  0  0  0  0  0  0  0  0  0
   -5.4521    1.8776   -2.1855 H   0  0  0  0  0  0  0  0  0  0  0  0
   -7.5554   -0.7924   -1.5713 H   0  0  0  0  0  0  0  0  0  0  0  0
   -8.7276   -1.7045    0.4130 H   0  0  0  0  0  0  0  0  0  0  0  0
   -7.4996   -2.0404    2.5286 H   0  0  0  0  0  0  0  0  0  0  0  0
   -5.1239   -1.4550    2.6962 H   0  0  0  0  0  0  0  0  0  0  0  0
   -1.9679   -4.2168    2.3715 H   0  0  0  0  0  0  0  0  0  0  0  0
    0.1029   -3.1989    3.3013 H   0  0  0  0  0  0  0  0  0  0  0  0
    0.4383   -0.7703    3.1343 H   0  0  0  0  0  0  0  0  0  0  0  0
   -2.0003    1.6801    2.2431 H   0  0  0  0  0  0  0  0  0  0  0  0
   -0.4250    1.3821    2.8438 H   0  0  0  0  0  0  0  0  0  0  0  0
    4.0206   -3.2279    1.4844 H   0  0  0  0  0  0  0  0  0  0  0  0
    6.4816   -3.0196    1.7404 H   0  0  0  0  0  0  0  0  0  0  0  0
  1  2  1  0
  2  3  1  0
  3  4  1  0
  4  5  2  0
  5  6  1  0
  6  7  1  0
  7  8  1  0
  8  9  1  0
  9 10  2  0
  9 11  1  0
 11 12  1  0
 12 13  1  0
 13 14  1  0
 14 15  1  0
 15 16  1  0
 16 17  1  0
 16 18  1  0
 16 19  1  0
 19 20  1  0
 20 21  1  0
 21 22  2  0
 22 23  1  0
 23 24  2  0
 24 25  1  0
 25 26  2  0
 26 27  1  0
 27 28  1  0
 28 29  2  0
 29 30  1  0
 30 31  2  0
 31 32  1  0
 32 33  2  0
 33 34  1  0
  6 35  2  0
 35 36  1  0
 36 37  2  0
 37 38  1  0
 38  2  1  0
 37  4  1  0
 34 12  1  0
 26 21  1  0
 33 28  1  0
  1 39  1  0
  1 40  1  0
  1 41  1  0
  2 42  1  0
  3 43  1  0
  3 44  1  0
  5 45  1  0
  7 46  1  0
  7 47  1  0
  8 48  1  0
 11 49  1  0
 11 50  1  0
 13 51  1  0
 13 52  1  0
 14 53  1  0
 14 54  1  0
 15 55  1  0
 15 56  1  0
 17 57  1  0
 17 58  1  0
 17 59  1  0
 18 60  1  0
 18 61  1  0
 18 62  1  0
 19 63  1  0
 19 64  1  0
 22 65  1  0
 23 66  1  0
 24 67  1  0
 25 68  1  0
 30 69  1  0
 31 70  1  0
 32 71  1  0
 34 72  1  0
 34 73  1  0
 35 74  1  0
 36 75  1  0
M  END
$$$$
