
     RDKit          3D

 65 67  0  0  0  0  0  0  0  0999 V2000
    8.8157    0.7837    0.2053 C   0  0  0  0  0  0  0  0  0  0  0  0
    8.1144    0.2328   -1.0308 C   0  0  0  0  0  0  0  0  0  0  0  0
    6.6541    0.0383   -0.7671 C   0  0  0  0  0  0  0  0  0  0  0  0
    5.6738    1.0005   -0.8819 C   0  0  0  0  0  0  0  0  0  0  0  0
    4.5264    0.3496   -0.4710 C   0  0  0  0  0  0  0  0  0  0  0  0
    3.1722    0.9529   -0.4084 C   0  0  0  0  0  0  0  0  0  0  0  0
    3.0697    2.1706   -0.7258 O   0  0  0  0  0  0  0  0  0  0  0  0
    1.9792    0.2191   -0.0103 N   0  0  0  0  0  0  0  0  0  0  0  0
    2.0992   -1.2040    0.3973 C   0  0  0  0  0  0  0  0  0  0  0  0
    0.8118   -1.9335    0.8399 C   0  0  0  0  0  0  0  0  0  0  0  0
   -0.1071   -2.2973   -0.3362 C   0  0  0  0  0  0  0  0  0  0  0  0
   -1.3639   -3.0333    0.1435 C   0  0  0  0  0  0  0  0  0  0  0  0
   -2.2733   -3.2452   -0.9820 N   0  0  0  0  0  0  0  0  0  0  0  0
   -3.4574   -2.4599   -1.1751 C   0  0  0  0  0  0  0  0  0  0  0  0
   -3.8092   -2.1512   -2.3450 O   0  0  0  0  0  0  0  0  0  0  0  0
   -4.3141   -2.0654   -0.0410 C   0  0  0  0  0  0  0  0  0  0  0  0
   -4.8546   -3.0795    0.7657 C   0  0  0  0  0  0  0  0  0  0  0  0
   -5.8123   -2.7772    1.7376 C   0  0  0  0  0  0  0  0  0  0  0  0
   -6.4935   -4.0562    2.7260 Cl  0  0  0  0  0  0  0  0  0  0  0  0
   -6.2481   -1.4608    1.9013 C   0  0  0  0  0  0  0  0  0  0  0  0
   -5.7005   -0.4403    1.1215 C   0  0  0  0  0  0  0  0  0  0  0  0
   -4.7035   -0.7196    0.1784 C   0  0  0  0  0  0  0  0  0  0  0  0
   -4.1009    0.3667   -0.4747 O   0  0  0  0  0  0  0  0  0  0  0  0
   -2.6914    0.4655   -0.6741 C   0  0  0  0  0  0  0  0  0  0  0  0
   -2.2535    1.9339   -0.8451 C   0  0  0  0  0  0  0  0  0  0  0  0
   -2.1309    2.7199    0.4955 C   0  0  0  0  0  0  0  0  0  0  0  0
   -3.4744    2.7997    1.2378 C   0  0  0  0  0  0  0  0  0  0  0  0
   -1.6006    4.1422    0.2512 C   0  0  0  0  0  0  0  0  0  0  0  0
   -1.0084    1.9978   -1.6310 N   0  0  0  0  0  0  0  0  0  0  0  0
    0.1856    1.2301   -1.3875 C   0  0  0  0  0  0  0  0  0  0  0  0
    0.8426    0.8117   -2.3793 O   0  0  0  0  0  0  0  0  0  0  0  0
    0.7048    0.9724    0.0083 C   0  0  0  0  0  0  0  0  0  0  0  0
    4.8450   -0.8821   -0.1414 O   0  0  0  0  0  0  0  0  0  0  0  0
    6.1173   -1.1042   -0.3003 N   0  0  0  0  0  0  0  0  0  0  0  0
    9.8977    0.9118   -0.0078 H   0  0  0  0  0  0  0  0  0  0  0  0
    8.3885    1.7711    0.4829 H   0  0  0  0  0  0  0  0  0  0  0  0
    8.7014    0.0815    1.0588 H   0  0  0  0  0  0  0  0  0  0  0  0
    8.2500    0.9381   -1.8788 H   0  0  0  0  0  0  0  0  0  0  0  0
    8.5724   -0.7397   -1.3120 H   0  0  0  0  0  0  0  0  0  0  0  0
    5.7836    2.0266   -1.2084 H   0  0  0  0  0  0  0  0  0  0  0  0
    2.7993   -1.2565    1.2589 H   0  0  0  0  0  0  0  0  0  0  0  0
    2.5427   -1.7832   -0.4414 H   0  0  0  0  0  0  0  0  0  0  0  0
    1.1246   -2.8873    1.3195 H   0  0  0  0  0  0  0  0  0  0  0  0
    0.2761   -1.3707    1.6318 H   0  0  0  0  0  0  0  0  0  0  0  0
    0.4448   -2.9522   -1.0454 H   0  0  0  0  0  0  0  0  0  0  0  0
   -0.4080   -1.3883   -0.8882 H   0  0  0  0  0  0  0  0  0  0  0  0
   -1.0772   -4.0205    0.5653 H   0  0  0  0  0  0  0  0  0  0  0  0
   -1.8617   -2.4491    0.9472 H   0  0  0  0  0  0  0  0  0  0  0  0
   -1.9223   -3.8088   -1.7892 H   0  0  0  0  0  0  0  0  0  0  0  0
   -4.5603   -4.1112    0.6127 H   0  0  0  0  0  0  0  0  0  0  0  0
   -7.0015   -1.2247    2.6419 H   0  0  0  0  0  0  0  0  0  0  0  0
   -6.0227    0.5810    1.2799 H   0  0  0  0  0  0  0  0  0  0  0  0
   -2.4215   -0.0896   -1.5951 H   0  0  0  0  0  0  0  0  0  0  0  0
   -2.1693    0.0086    0.1900 H   0  0  0  0  0  0  0  0  0  0  0  0
   -3.0449    2.4351   -1.4485 H   0  0  0  0  0  0  0  0  0  0  0  0
   -1.4209    2.2080    1.1741 H   0  0  0  0  0  0  0  0  0  0  0  0
   -3.7646    1.7994    1.6177 H   0  0  0  0  0  0  0  0  0  0  0  0
   -4.2732    3.1892    0.5711 H   0  0  0  0  0  0  0  0  0  0  0  0
   -3.3922    3.4675    2.1219 H   0  0  0  0  0  0  0  0  0  0  0  0
   -1.5301    4.6996    1.2096 H   0  0  0  0  0  0  0  0  0  0  0  0
   -2.2734    4.6972   -0.4373 H   0  0  0  0  0  0  0  0  0  0  0  0
   -0.5815    4.1105   -0.1879 H   0  0  0  0  0  0  0  0  0  0  0  0
   -1.0727    2.4696   -2.5618 H   0  0  0  0  0  0  0  0  0  0  0  0
    0.8645    1.9474    0.5163 H   0  0  0  0  0  0  0  0  0  0  0  0
   -0.0618    0.4622    0.6004 H   0  0  0  0  0  0  0  0  0  0  0  0
  1  2  1  0
  2  3  1  0
  3  4  1  0
  4  5  2  0
  5  6  1  0
  6  7  2  0
  6  8  1  0
  8  9  1  0
  9 10  1  0
 10 11  1  0
 11 12  1  0
 12 13  1  0
 13 14  1  0
 14 15  2  0
 14 16  1  0
 16 17  2  0
 17 18  1  0
 18 19  1  0
 18 20  2  0
 20 21  1  0
 21 22  2  0
 22 23  1  0
 23 24  1  0
 24 25  1  0
 25 26  1  0
 26 27  1  0
 26 28  1  0
 25 29  1  0
 29 30  1  0
 30 31  2  0
 30 32  1  0
  5 33  1  0
 33 34  1  0
 34  3  2  0
 32  8  1  0
 22 16  1  0
  1 35  1  0
  1 36  1  0
  1 37  1  0
  2 38  1  0
  2 39  1  0
  4 40  1  0
  9 41  1  0
  9 42  1  0
 10 43  1  0
 10 44  1  0
 11 45  1  0
 11 46  1  0
 12 47  1  0
 12 48  1  0
 13 49  1  0
 17 50  1  0
 20 51  1  0
 21 52  1  0
 24 53  1  0
 24 54  1  0
 25 55  1  0
 26 56  1  0
 27 57  1  0
 27 58  1  0
 27 59  1  0
 28 60  1  0
 28 61  1  0
 28 62  1  0
 29 63  1  0
 32 64  1  0
 32 65  1  0
M  END
$$$$
