
     RDKit          3D

 76 79  0  0  0  0  0  0  0  0999 V2000
   -2.3457    5.4495   -0.9378 C   0  0  0  0  0  0  0  0  0  0  0  0
   -3.3965    4.3458   -1.0748 C   0  0  0  0  0  0  0  0  0  0  0  0
   -2.7881    2.9366   -1.0883 C   0  0  0  0  0  0  0  0  0  0  0  0
   -2.1540    2.5642    0.2571 C   0  0  0  0  0  0  0  0  0  0  0  0
   -1.6734    1.1772    0.2399 N   0  0  0  0  0  0  0  0  0  0  0  0
   -2.5841    0.0321    0.3343 C   0  0  0  0  0  0  0  0  0  0  0  0
   -3.9203    0.2486    1.0273 C   0  0  0  0  0  0  0  0  0  0  0  0
   -4.5324   -1.0323    1.2136 O   0  0  0  0  0  0  0  0  0  0  0  0
   -4.7683   -1.9083    0.1401 C   0  0  0  0  0  0  0  0  0  0  0  0
   -5.7796   -1.6053   -0.7792 C   0  0  0  0  0  0  0  0  0  0  0  0
   -6.0316   -2.4534   -1.8619 C   0  0  0  0  0  0  0  0  0  0  0  0
   -5.2789   -3.6144   -2.0270 C   0  0  0  0  0  0  0  0  0  0  0  0
   -4.2764   -3.9355   -1.1083 C   0  0  0  0  0  0  0  0  0  0  0  0
   -3.9688   -3.0665   -0.0447 C   0  0  0  0  0  0  0  0  0  0  0  0
   -2.8225   -3.4239    0.8943 C   0  0  0  0  0  0  0  0  0  0  0  0
   -1.4807   -3.7277    0.1474 C   0  0  0  0  0  0  0  0  0  0  0  0
   -0.2800   -2.8602    0.6078 C   0  0  0  0  0  0  0  0  0  0  0  0
   -0.0091   -1.6312   -0.3070 C   0  0  0  0  0  0  0  0  0  0  0  0
    0.4639   -0.3095    0.4258 C   0  0  0  0  0  0  0  0  0  0  0  0
    1.9961   -0.1680    0.1902 C   0  0  0  0  0  0  0  0  0  0  0  0
    2.5360    0.9162    1.0083 N   0  0  0  0  0  0  0  0  0  0  0  0
    3.5043    1.8331    0.4688 C   0  0  0  0  0  0  0  0  0  0  0  0
    3.3635    2.2700   -0.7061 O   0  0  0  0  0  0  0  0  0  0  0  0
    4.7052    2.2684    1.2708 C   0  0  0  0  0  0  0  0  0  0  0  0
    6.0182    2.0168    0.5197 C   0  0  0  0  0  0  0  0  0  0  0  0
    6.2290    0.5565    0.2559 C   0  0  0  0  0  0  0  0  0  0  0  0
    6.6361   -0.3971    1.1655 C   0  0  0  0  0  0  0  0  0  0  0  0
    6.6218   -1.6078    0.5722 N   0  0  0  0  0  0  0  0  0  0  0  0
    6.2201   -1.4323   -0.6791 N   0  0  0  0  0  0  0  0  0  0  0  0
    5.9940   -2.5175   -1.6205 C   0  0  0  0  0  0  0  0  0  0  0  0
    5.9486   -0.1359   -0.9043 C   0  0  0  0  0  0  0  0  0  0  0  0
    2.1916    0.9103    2.4283 C   0  0  0  0  0  0  0  0  0  0  0  0
    0.6842    0.7171    2.5706 C   0  0  0  0  0  0  0  0  0  0  0  0
    0.2180   -0.4082    1.8338 O   0  0  0  0  0  0  0  0  0  0  0  0
   -0.3039    0.8988   -0.1526 C   0  0  0  0  0  0  0  0  0  0  0  0
    0.2701    1.6726   -0.9693 O   0  0  0  0  0  0  0  0  0  0  0  0
   -1.4911    5.2645   -1.6154 H   0  0  0  0  0  0  0  0  0  0  0  0
   -2.7993    6.4308   -1.1825 H   0  0  0  0  0  0  0  0  0  0  0  0
   -1.9761    5.5004    0.1093 H   0  0  0  0  0  0  0  0  0  0  0  0
   -4.1294    4.4228   -0.2440 H   0  0  0  0  0  0  0  0  0  0  0  0
   -3.9435    4.5006   -2.0250 H   0  0  0  0  0  0  0  0  0  0  0  0
   -2.0329    2.8554   -1.9037 H   0  0  0  0  0  0  0  0  0  0  0  0
   -3.6024    2.2129   -1.3166 H   0  0  0  0  0  0  0  0  0  0  0  0
   -2.8870    2.7076    1.0790 H   0  0  0  0  0  0  0  0  0  0  0  0
   -1.3078    3.2498    0.4788 H   0  0  0  0  0  0  0  0  0  0  0  0
   -2.7633   -0.3756   -0.6827 H   0  0  0  0  0  0  0  0  0  0  0  0
   -2.0886   -0.7214    0.9607 H   0  0  0  0  0  0  0  0  0  0  0  0
   -3.7538    0.7104    2.0251 H   0  0  0  0  0  0  0  0  0  0  0  0
   -4.5911    0.9052    0.4338 H   0  0  0  0  0  0  0  0  0  0  0  0
   -6.3842   -0.7179   -0.6482 H   0  0  0  0  0  0  0  0  0  0  0  0
   -6.8061   -2.1998   -2.5774 H   0  0  0  0  0  0  0  0  0  0  0  0
   -5.4669   -4.2628   -2.8678 H   0  0  0  0  0  0  0  0  0  0  0  0
   -3.7102   -4.8444   -1.2502 H   0  0  0  0  0  0  0  0  0  0  0  0
   -3.1290   -4.3279    1.4725 H   0  0  0  0  0  0  0  0  0  0  0  0
   -2.6893   -2.6630    1.6847 H   0  0  0  0  0  0  0  0  0  0  0  0
   -1.5857   -3.6691   -0.9602 H   0  0  0  0  0  0  0  0  0  0  0  0
   -1.2260   -4.7947    0.3539 H   0  0  0  0  0  0  0  0  0  0  0  0
   -0.4068   -2.6074    1.6775 H   0  0  0  0  0  0  0  0  0  0  0  0
    0.6353   -3.5054    0.5748 H   0  0  0  0  0  0  0  0  0  0  0  0
   -0.8883   -1.4400   -0.9491 H   0  0  0  0  0  0  0  0  0  0  0  0
    0.7547   -1.9454   -1.0529 H   0  0  0  0  0  0  0  0  0  0  0  0
    2.2192   -0.0176   -0.8910 H   0  0  0  0  0  0  0  0  0  0  0  0
    2.5041   -1.1072    0.4971 H   0  0  0  0  0  0  0  0  0  0  0  0
    4.6096    3.3568    1.4797 H   0  0  0  0  0  0  0  0  0  0  0  0
    4.7518    1.7412    2.2459 H   0  0  0  0  0  0  0  0  0  0  0  0
    6.8646    2.4066    1.1241 H   0  0  0  0  0  0  0  0  0  0  0  0
    6.0138    2.5724   -0.4409 H   0  0  0  0  0  0  0  0  0  0  0  0
    6.9106   -0.2235    2.1959 H   0  0  0  0  0  0  0  0  0  0  0  0
    4.9297   -2.8390   -1.5754 H   0  0  0  0  0  0  0  0  0  0  0  0
    6.2377   -2.1832   -2.6520 H   0  0  0  0  0  0  0  0  0  0  0  0
    6.6479   -3.3771   -1.3583 H   0  0  0  0  0  0  0  0  0  0  0  0
    5.5612    0.2686   -1.8288 H   0  0  0  0  0  0  0  0  0  0  0  0
    2.7270    0.0792    2.9384 H   0  0  0  0  0  0  0  0  0  0  0  0
    2.4828    1.8670    2.9119 H   0  0  0  0  0  0  0  0  0  0  0  0
    0.1492    1.6411    2.2787 H   0  0  0  0  0  0  0  0  0  0  0  0
    0.4531    0.5501    3.6445 H   0  0  0  0  0  0  0  0  0  0  0  0
  1  2  1  0
  2  3  1  0
  3  4  1  0
  4  5  1  0
  5  6  1  0
  6  7  1  0
  7  8  1  0
  8  9  1  0
  9 10  2  0
 10 11  1  0
 11 12  2  0
 12 13  1  0
 13 14  2  0
 14 15  1  0
 15 16  1  0
 16 17  1  0
 17 18  1  0
 18 19  1  0
 19 20  1  0
 20 21  1  0
 21 22  1  0
 22 23  2  0
 22 24  1  0
 24 25  1  0
 25 26  1  0
 26 27  1  0
 27 28  2  0
 28 29  1  0
 29 30  1  0
 29 31  1  0
 21 32  1  0
 32 33  1  0
 33 34  1  0
 19 35  1  0
 35 36  2  0
 35  5  1  0
 14  9  1  0
 34 19  1  0
 31 26  2  0
  1 37  1  0
  1 38  1  0
  1 39  1  0
  2 40  1  0
  2 41  1  0
  3 42  1  0
  3 43  1  0
  4 44  1  0
  4 45  1  0
  6 46  1  0
  6 47  1  0
  7 48  1  0
  7 49  1  0
 10 50  1  0
 11 51  1  0
 12 52  1  0
 13 53  1  0
 15 54  1  0
 15 55  1  0
 16 56  1  0
 16 57  1  0
 17 58  1  0
 17 59  1  0
 18 60  1  0
 18 61  1  0
 20 62  1  0
 20 63  1  0
 24 64  1  0
 24 65  1  0
 25 66  1  0
 25 67  1  0
 27 68  1  0
 30 69  1  0
 30 70  1  0
 30 71  1  0
 31 72  1  0
 32 73  1  0
 32 74  1  0
 33 75  1  0
 33 76  1  0
M  END
$$$$
