
     RDKit          3D

 60 63  0  0  0  0  0  0  0  0999 V2000
   -3.6640   -2.8240   -1.5727 C   0  0  0  0  0  0  0  0  0  0  0  0
   -3.9999   -2.0323   -0.3827 N   0  0  0  0  0  0  0  0  0  0  0  0
   -3.9116   -2.6699    0.9475 C   0  0  0  0  0  0  0  0  0  0  0  0
   -2.7455   -2.1396    1.7940 C   0  0  0  0  0  0  0  0  0  0  0  0
   -1.3724   -2.3635    1.1237 C   0  0  0  0  0  0  0  0  0  0  0  0
   -0.2975   -1.3962    1.6673 C   0  0  0  0  0  0  0  0  0  0  0  0
    0.1002   -0.4423    0.6249 N   0  0  0  0  0  0  0  0  0  0  0  0
    1.1340   -0.8104   -0.3021 C   0  0  0  0  0  0  0  0  0  0  0  0
    0.9768   -1.8307   -1.0277 O   0  0  0  0  0  0  0  0  0  0  0  0
    2.4116   -0.0641   -0.3566 C   0  0  0  0  0  0  0  0  0  0  0  0
    2.7941    0.7826    0.6955 C   0  0  0  0  0  0  0  0  0  0  0  0
    3.9771    1.5247    0.6246 C   0  0  0  0  0  0  0  0  0  0  0  0
    4.8412    1.3765   -0.4725 C   0  0  0  0  0  0  0  0  0  0  0  0
    4.4878    0.4924   -1.5228 C   0  0  0  0  0  0  0  0  0  0  0  0
    3.2728   -0.2123   -1.4590 C   0  0  0  0  0  0  0  0  0  0  0  0
    5.3192    0.4060   -2.7783 C   0  0  0  0  0  0  0  0  0  0  0  0
    6.7754    0.8111   -2.5335 C   0  0  0  0  0  0  0  0  0  0  0  0
    6.8357    2.1608   -1.8159 C   0  0  0  0  0  0  0  0  0  0  0  0
    6.1878    2.0608   -0.4309 C   0  0  0  0  0  0  0  0  0  0  0  0
   -0.5710    0.8641    0.4910 C   0  0  0  0  0  0  0  0  0  0  0  0
   -1.5530    0.8443   -0.6973 C   0  0  0  0  0  0  0  0  0  0  0  0
   -2.6658    1.7152   -0.4594 O   0  0  0  0  0  0  0  0  0  0  0  0
   -3.6601    1.4927    0.5072 C   0  0  0  0  0  0  0  0  0  0  0  0
   -3.8654    2.4923    1.4668 C   0  0  0  0  0  0  0  0  0  0  0  0
   -4.8390    2.3382    2.4566 C   0  0  0  0  0  0  0  0  0  0  0  0
   -5.6224    1.1882    2.4934 C   0  0  0  0  0  0  0  0  0  0  0  0
   -6.8623    1.0201    3.7262 Cl  0  0  0  0  0  0  0  0  0  0  0  0
   -5.4499    0.1948    1.5205 C   0  0  0  0  0  0  0  0  0  0  0  0
   -4.4690    0.3300    0.5217 C   0  0  0  0  0  0  0  0  0  0  0  0
   -4.4012   -0.6559   -0.5792 C   0  0  0  0  0  0  0  0  0  0  0  0
   -4.6987   -0.2519   -1.7395 O   0  0  0  0  0  0  0  0  0  0  0  0
   -2.8994   -2.2733   -2.1744 H   0  0  0  0  0  0  0  0  0  0  0  0
   -4.5746   -3.0025   -2.1847 H   0  0  0  0  0  0  0  0  0  0  0  0
   -3.2175   -3.7980   -1.2844 H   0  0  0  0  0  0  0  0  0  0  0  0
   -4.8704   -2.5539    1.4981 H   0  0  0  0  0  0  0  0  0  0  0  0
   -3.7761   -3.7679    0.8412 H   0  0  0  0  0  0  0  0  0  0  0  0
   -2.7473   -2.7080    2.7540 H   0  0  0  0  0  0  0  0  0  0  0  0
   -2.9204   -1.0663    2.0585 H   0  0  0  0  0  0  0  0  0  0  0  0
   -1.4524   -2.2524    0.0212 H   0  0  0  0  0  0  0  0  0  0  0  0
   -1.0527   -3.4212    1.2959 H   0  0  0  0  0  0  0  0  0  0  0  0
   -0.6563   -0.8478    2.5736 H   0  0  0  0  0  0  0  0  0  0  0  0
    0.5999   -1.9742    2.0120 H   0  0  0  0  0  0  0  0  0  0  0  0
    2.1789    0.8830    1.5762 H   0  0  0  0  0  0  0  0  0  0  0  0
    4.2546    2.1735    1.4498 H   0  0  0  0  0  0  0  0  0  0  0  0
    2.9550   -0.7949   -2.3073 H   0  0  0  0  0  0  0  0  0  0  0  0
    4.8788    1.0745   -3.5456 H   0  0  0  0  0  0  0  0  0  0  0  0
    5.3015   -0.6365   -3.1670 H   0  0  0  0  0  0  0  0  0  0  0  0
    7.2901    0.0368   -1.9190 H   0  0  0  0  0  0  0  0  0  0  0  0
    7.3008    0.8945   -3.5117 H   0  0  0  0  0  0  0  0  0  0  0  0
    6.3118    2.9353   -2.4213 H   0  0  0  0  0  0  0  0  0  0  0  0
    7.8966    2.4743   -1.7079 H   0  0  0  0  0  0  0  0  0  0  0  0
    6.8508    1.4663    0.2329 H   0  0  0  0  0  0  0  0  0  0  0  0
    6.1005    3.0764    0.0051 H   0  0  0  0  0  0  0  0  0  0  0  0
   -1.1083    1.1242    1.4384 H   0  0  0  0  0  0  0  0  0  0  0  0
    0.1907    1.6713    0.3286 H   0  0  0  0  0  0  0  0  0  0  0  0
   -1.0265    1.2005   -1.6079 H   0  0  0  0  0  0  0  0  0  0  0  0
   -1.8977   -0.1789   -0.9148 H   0  0  0  0  0  0  0  0  0  0  0  0
   -3.2574    3.3914    1.4479 H   0  0  0  0  0  0  0  0  0  0  0  0
   -4.9828    3.1189    3.1902 H   0  0  0  0  0  0  0  0  0  0  0  0
   -6.1348   -0.6467    1.4918 H   0  0  0  0  0  0  0  0  0  0  0  0
  1  2  1  0
  2  3  1  0
  3  4  1  0
  4  5  1  0
  5  6  1  0
  6  7  1  0
  7  8  1  0
  8  9  2  0
  8 10  1  0
 10 11  2  0
 11 12  1  0
 12 13  2  0
 13 14  1  0
 14 15  2  0
 14 16  1  0
 16 17  1  0
 17 18  1  0
 18 19  1  0
  7 20  1  0
 20 21  1  0
 21 22  1  0
 22 23  1  0
 23 24  2  0
 24 25  1  0
 25 26  2  0
 26 27  1  0
 26 28  1  0
 28 29  2  0
 29 30  1  0
 30 31  2  0
 30  2  1  0
 15 10  1  0
 29 23  1  0
 19 13  1  0
  1 32  1  0
  1 33  1  0
  1 34  1  0
  3 35  1  0
  3 36  1  0
  4 37  1  0
  4 38  1  0
  5 39  1  0
  5 40  1  0
  6 41  1  0
  6 42  1  0
 11 43  1  0
 12 44  1  0
 15 45  1  0
 16 46  1  0
 16 47  1  0
 17 48  1  0
 17 49  1  0
 18 50  1  0
 18 51  1  0
 19 52  1  0
 19 53  1  0
 20 54  1  0
 20 55  1  0
 21 56  1  0
 21 57  1  0
 24 58  1  0
 25 59  1  0
 28 60  1  0
M  END
$$$$
