
     RDKit          3D

 69 72  0  0  0  0  0  0  0  0999 V2000
   -3.9466    3.7697    2.6525 C   0  0  0  0  0  0  0  0  0  0  0  0
   -3.9897    2.8639    1.4132 C   0  0  0  0  0  0  0  0  0  0  0  0
   -4.3471    3.7032    0.1792 C   0  0  0  0  0  0  0  0  0  0  0  0
   -2.6407    2.1330    1.1799 C   0  0  0  0  0  0  0  0  0  0  0  0
   -2.2892    1.0342    2.2223 C   0  0  0  0  0  0  0  0  0  0  0  0
   -3.2599   -0.1806    2.2229 C   0  0  0  0  0  0  0  0  0  0  0  0
   -2.7284   -1.3249    1.5423 O   0  0  0  0  0  0  0  0  0  0  0  0
   -2.8667   -1.6295    0.1761 C   0  0  0  0  0  0  0  0  0  0  0  0
   -3.5723   -0.7965   -0.7146 C   0  0  0  0  0  0  0  0  0  0  0  0
   -3.6641   -1.1201   -2.0692 C   0  0  0  0  0  0  0  0  0  0  0  0
   -3.0801   -2.2904   -2.5536 C   0  0  0  0  0  0  0  0  0  0  0  0
   -3.2067   -2.6963   -4.2568 Cl  0  0  0  0  0  0  0  0  0  0  0  0
   -2.4151   -3.1488   -1.6745 C   0  0  0  0  0  0  0  0  0  0  0  0
   -2.3019   -2.8287   -0.3134 C   0  0  0  0  0  0  0  0  0  0  0  0
   -1.6885   -3.8147    0.6004 C   0  0  0  0  0  0  0  0  0  0  0  0
   -2.2180   -4.9522    0.7065 O   0  0  0  0  0  0  0  0  0  0  0  0
   -0.5108   -3.5149    1.3662 N   0  0  0  0  0  0  0  0  0  0  0  0
    0.4135   -2.4391    1.0194 C   0  0  0  0  0  0  0  0  0  0  0  0
    1.3138   -2.8547   -0.1499 C   0  0  0  0  0  0  0  0  0  0  0  0
    2.1704   -1.6800   -0.6451 C   0  0  0  0  0  0  0  0  0  0  0  0
    1.3595   -0.6367   -1.4484 C   0  0  0  0  0  0  0  0  0  0  0  0
    1.3270    0.6722   -0.7698 N   0  0  0  0  0  0  0  0  0  0  0  0
    2.4764    1.5542   -0.7798 C   0  0  0  0  0  0  0  0  0  0  0  0
    2.3135    2.7950   -0.6212 O   0  0  0  0  0  0  0  0  0  0  0  0
    3.8586    1.0468   -0.8539 C   0  0  0  0  0  0  0  0  0  0  0  0
    4.6920    1.1539    0.2879 C   0  0  0  0  0  0  0  0  0  0  0  0
    6.0288    0.7126    0.2513 C   0  0  0  0  0  0  0  0  0  0  0  0
    6.4890    0.1557   -0.9374 C   0  0  0  0  0  0  0  0  0  0  0  0
    7.7124   -0.3422   -1.1916 N   0  0  0  0  0  0  0  0  0  0  0  0
    7.6051   -0.7619   -2.4819 C   0  0  0  0  0  0  0  0  0  0  0  0
    6.3846   -0.5343   -3.0258 N   0  0  0  0  0  0  0  0  0  0  0  0
    5.6930    0.0463   -2.0377 C   0  0  0  0  0  0  0  0  0  0  0  0
    4.3761    0.5001   -2.0504 C   0  0  0  0  0  0  0  0  0  0  0  0
    0.0628    1.1506   -0.1791 C   0  0  0  0  0  0  0  0  0  0  0  0
    0.1373    1.1579    1.3267 C   0  0  0  0  0  0  0  0  0  0  0  0
    1.1413    1.6547    1.9022 O   0  0  0  0  0  0  0  0  0  0  0  0
   -0.8961    0.5640    2.1242 N   0  0  0  0  0  0  0  0  0  0  0  0
   -4.8929    4.3425    2.7428 H   0  0  0  0  0  0  0  0  0  0  0  0
   -3.1043    4.4909    2.5850 H   0  0  0  0  0  0  0  0  0  0  0  0
   -3.8406    3.1719    3.5798 H   0  0  0  0  0  0  0  0  0  0  0  0
   -4.8092    2.1334    1.5498 H   0  0  0  0  0  0  0  0  0  0  0  0
   -5.3239    4.2140    0.3298 H   0  0  0  0  0  0  0  0  0  0  0  0
   -4.4332    3.0553   -0.7206 H   0  0  0  0  0  0  0  0  0  0  0  0
   -3.5691    4.4743   -0.0106 H   0  0  0  0  0  0  0  0  0  0  0  0
   -2.6375    1.6885    0.1685 H   0  0  0  0  0  0  0  0  0  0  0  0
   -1.8428    2.9073    1.1867 H   0  0  0  0  0  0  0  0  0  0  0  0
   -2.3761    1.5143    3.2184 H   0  0  0  0  0  0  0  0  0  0  0  0
   -4.2762    0.0537    1.8564 H   0  0  0  0  0  0  0  0  0  0  0  0
   -3.4074   -0.4831    3.2812 H   0  0  0  0  0  0  0  0  0  0  0  0
   -4.0721    0.0958   -0.3788 H   0  0  0  0  0  0  0  0  0  0  0  0
   -4.2048   -0.4652   -2.7427 H   0  0  0  0  0  0  0  0  0  0  0  0
   -1.9914   -4.0707   -2.0532 H   0  0  0  0  0  0  0  0  0  0  0  0
   -0.2223   -4.1833    2.1169 H   0  0  0  0  0  0  0  0  0  0  0  0
    1.0456   -2.1995    1.9033 H   0  0  0  0  0  0  0  0  0  0  0  0
   -0.1581   -1.5364    0.7550 H   0  0  0  0  0  0  0  0  0  0  0  0
    1.9852   -3.6751    0.1919 H   0  0  0  0  0  0  0  0  0  0  0  0
    0.7003   -3.2509   -0.9875 H   0  0  0  0  0  0  0  0  0  0  0  0
    2.6857   -1.2119    0.2232 H   0  0  0  0  0  0  0  0  0  0  0  0
    2.9657   -2.0902   -1.3044 H   0  0  0  0  0  0  0  0  0  0  0  0
    0.3293   -1.0078   -1.6377 H   0  0  0  0  0  0  0  0  0  0  0  0
    1.7931   -0.5141   -2.4626 H   0  0  0  0  0  0  0  0  0  0  0  0
    4.3059    1.5780    1.2033 H   0  0  0  0  0  0  0  0  0  0  0  0
    6.6671    0.7794    1.1210 H   0  0  0  0  0  0  0  0  0  0  0  0
    8.4200   -1.2288   -3.0194 H   0  0  0  0  0  0  0  0  0  0  0  0
    6.0628   -0.7604   -3.9943 H   0  0  0  0  0  0  0  0  0  0  0  0
    3.7932    0.4598   -2.9576 H   0  0  0  0  0  0  0  0  0  0  0  0
   -0.1695    2.1710   -0.5502 H   0  0  0  0  0  0  0  0  0  0  0  0
   -0.7819    0.5026   -0.4933 H   0  0  0  0  0  0  0  0  0  0  0  0
   -0.5737   -0.0768    2.8806 H   0  0  0  0  0  0  0  0  0  0  0  0
  1  2  1  0
  2  3  1  0
  2  4  1  0
  4  5  1  0
  5  6  1  0
  6  7  1  0
  7  8  1  0
  8  9  2  0
  9 10  1  0
 10 11  2  0
 11 12  1  0
 11 13  1  0
 13 14  2  0
 14 15  1  0
 15 16  2  0
 15 17  1  0
 17 18  1  0
 18 19  1  0
 19 20  1  0
 20 21  1  0
 21 22  1  0
 22 23  1  0
 23 24  2  0
 23 25  1  0
 25 26  2  0
 26 27  1  0
 27 28  2  0
 28 29  1  0
 29 30  2  0
 30 31  1  0
 31 32  1  0
 32 33  2  0
 22 34  1  0
 34 35  1  0
 35 36  2  0
 35 37  1  0
 37  5  1  0
 14  8  1  0
 33 25  1  0
 32 28  1  0
  1 38  1  0
  1 39  1  0
  1 40  1  0
  2 41  1  0
  3 42  1  0
  3 43  1  0
  3 44  1  0
  4 45  1  0
  4 46  1  0
  5 47  1  0
  6 48  1  0
  6 49  1  0
  9 50  1  0
 10 51  1  0
 13 52  1  0
 17 53  1  0
 18 54  1  0
 18 55  1  0
 19 56  1  0
 19 57  1  0
 20 58  1  0
 20 59  1  0
 21 60  1  0
 21 61  1  0
 26 62  1  0
 27 63  1  0
 30 64  1  0
 31 65  1  0
 33 66  1  0
 34 67  1  0
 34 68  1  0
 37 69  1  0
M  END
$$$$
