
     RDKit          3D

 77 78  0  0  0  0  0  0  0  0999 V2000
   -5.9604    0.2487    0.8227 C   0  0  0  0  0  0  0  0  0  0  0  0
   -5.4896    0.2347   -0.5094 O   0  0  0  0  0  0  0  0  0  0  0  0
   -4.0766    0.0833   -0.5459 C   0  0  0  0  0  0  0  0  0  0  0  0
   -3.4005    1.4877   -0.5416 C   0  0  0  0  0  0  0  0  0  0  0  0
   -2.1288    1.4607    0.2075 N   0  0  0  0  0  0  0  0  0  0  0  0
   -2.2457    1.3771    1.6436 C   0  0  0  0  0  0  0  0  0  0  0  0
   -2.9290    2.4502    2.4334 C   0  0  0  0  0  0  0  0  0  0  0  0
   -1.8023    0.3751    2.2578 O   0  0  0  0  0  0  0  0  0  0  0  0
   -0.9481    0.9279   -0.5104 C   0  0  0  0  0  0  0  0  0  0  0  0
    0.4676    1.5060   -0.1621 C   0  0  0  0  0  0  0  0  0  0  0  0
    0.5699    2.6922    0.8403 C   0  0  0  0  0  0  0  0  0  0  0  0
    0.4462    4.0961    0.1938 C   0  0  0  0  0  0  0  0  0  0  0  0
    0.6957    5.1834    1.2474 C   0  0  0  0  0  0  0  0  0  0  0  0
   -0.9136    4.3275   -0.4768 C   0  0  0  0  0  0  0  0  0  0  0  0
    1.4301    0.4268    0.2019 N   0  0  0  0  0  0  0  0  0  0  0  0
    2.7546    0.4466   -0.4031 C   0  0  0  0  0  0  0  0  0  0  0  0
    3.1130    1.4454   -1.0869 O   0  0  0  0  0  0  0  0  0  0  0  0
    3.7182   -0.6685   -0.2249 C   0  0  0  0  0  0  0  0  0  0  0  0
    4.9936   -0.5836   -0.6340 C   0  0  0  0  0  0  0  0  0  0  0  0
    5.9925   -1.6698   -0.4615 C   0  0  0  0  0  0  0  0  0  0  0  0
    5.8486   -2.6902    0.5027 C   0  0  0  0  0  0  0  0  0  0  0  0
    6.8266   -3.6807    0.6360 C   0  0  0  0  0  0  0  0  0  0  0  0
    7.9605   -3.6620   -0.1792 C   0  0  0  0  0  0  0  0  0  0  0  0
    8.1237   -2.6479   -1.1257 C   0  0  0  0  0  0  0  0  0  0  0  0
    9.2304   -2.6252   -1.9107 F   0  0  0  0  0  0  0  0  0  0  0  0
    7.1484   -1.6543   -1.2624 C   0  0  0  0  0  0  0  0  0  0  0  0
    1.2073   -0.3997    1.4112 C   0  0  0  0  0  0  0  0  0  0  0  0
    0.4177   -1.7104    1.1622 C   0  0  0  0  0  0  0  0  0  0  0  0
    0.7317   -2.4504   -0.1540 C   0  0  0  0  0  0  0  0  0  0  0  0
   -0.4317   -3.3595   -0.5783 C   0  0  0  0  0  0  0  0  0  0  0  0
   -1.4308   -2.5894   -1.2287 O   0  0  0  0  0  0  0  0  0  0  0  0
   -2.7221   -2.9196   -0.7551 C   0  0  0  0  0  0  0  0  0  0  0  0
   -3.8042   -2.2800   -1.6600 C   0  0  0  0  0  0  0  0  0  0  0  0
   -5.0964   -2.6525   -1.2487 O   0  0  0  0  0  0  0  0  0  0  0  0
   -3.6831   -0.7330   -1.8140 C   0  0  0  0  0  0  0  0  0  0  0  0
   -4.4120   -0.2863   -2.9330 O   0  0  0  0  0  0  0  0  0  0  0  0
   -5.8062   -0.7393    1.3109 H   0  0  0  0  0  0  0  0  0  0  0  0
   -7.0527    0.4522    0.8138 H   0  0  0  0  0  0  0  0  0  0  0  0
   -5.4745    1.0494    1.4219 H   0  0  0  0  0  0  0  0  0  0  0  0
   -3.7054   -0.4855    0.3375 H   0  0  0  0  0  0  0  0  0  0  0  0
   -3.2370    1.8550   -1.5778 H   0  0  0  0  0  0  0  0  0  0  0  0
   -4.0813    2.2374   -0.0888 H   0  0  0  0  0  0  0  0  0  0  0  0
   -3.8002    2.0181    2.9670 H   0  0  0  0  0  0  0  0  0  0  0  0
   -2.2230    2.8641    3.1858 H   0  0  0  0  0  0  0  0  0  0  0  0
   -3.2784    3.2765    1.7871 H   0  0  0  0  0  0  0  0  0  0  0  0
   -0.9566   -0.1654   -0.4382 H   0  0  0  0  0  0  0  0  0  0  0  0
   -1.0919    1.1027   -1.5995 H   0  0  0  0  0  0  0  0  0  0  0  0
    0.8088    1.9299   -1.1328 H   0  0  0  0  0  0  0  0  0  0  0  0
    1.5845    2.6492    1.2960 H   0  0  0  0  0  0  0  0  0  0  0  0
   -0.1158    2.5961    1.6963 H   0  0  0  0  0  0  0  0  0  0  0  0
    1.2346    4.1987   -0.5846 H   0  0  0  0  0  0  0  0  0  0  0  0
   -0.0632    5.1253    2.0562 H   0  0  0  0  0  0  0  0  0  0  0  0
    1.7064    5.0621    1.6937 H   0  0  0  0  0  0  0  0  0  0  0  0
    0.6484    6.1905    0.7821 H   0  0  0  0  0  0  0  0  0  0  0  0
   -0.9600    5.3524   -0.9006 H   0  0  0  0  0  0  0  0  0  0  0  0
   -1.7362    4.2170    0.2582 H   0  0  0  0  0  0  0  0  0  0  0  0
   -1.0641    3.6189   -1.3158 H   0  0  0  0  0  0  0  0  0  0  0  0
    3.3726   -1.5767    0.2379 H   0  0  0  0  0  0  0  0  0  0  0  0
    5.3238    0.3136   -1.1440 H   0  0  0  0  0  0  0  0  0  0  0  0
    5.0024   -2.7185    1.1751 H   0  0  0  0  0  0  0  0  0  0  0  0
    6.7095   -4.4588    1.3809 H   0  0  0  0  0  0  0  0  0  0  0  0
    8.7155   -4.4297   -0.0707 H   0  0  0  0  0  0  0  0  0  0  0  0
    7.2931   -0.8724   -1.9980 H   0  0  0  0  0  0  0  0  0  0  0  0
    0.6747    0.1997    2.1744 H   0  0  0  0  0  0  0  0  0  0  0  0
    2.1723   -0.6416    1.9045 H   0  0  0  0  0  0  0  0  0  0  0  0
   -0.6665   -1.5068    1.2250 H   0  0  0  0  0  0  0  0  0  0  0  0
    0.6226   -2.4019    2.0086 H   0  0  0  0  0  0  0  0  0  0  0  0
    1.6354   -3.0799   -0.0061 H   0  0  0  0  0  0  0  0  0  0  0  0
    0.9427   -1.7457   -0.9841 H   0  0  0  0  0  0  0  0  0  0  0  0
   -0.0475   -4.1035   -1.3087 H   0  0  0  0  0  0  0  0  0  0  0  0
   -0.7908   -3.9300    0.3131 H   0  0  0  0  0  0  0  0  0  0  0  0
   -2.8389   -2.5730    0.2949 H   0  0  0  0  0  0  0  0  0  0  0  0
   -2.8780   -4.0236   -0.7785 H   0  0  0  0  0  0  0  0  0  0  0  0
   -3.6504   -2.7151   -2.6730 H   0  0  0  0  0  0  0  0  0  0  0  0
   -5.1643   -2.4884   -0.2717 H   0  0  0  0  0  0  0  0  0  0  0  0
   -2.6237   -0.5347   -2.0523 H   0  0  0  0  0  0  0  0  0  0  0  0
   -5.3422   -0.6246   -2.8484 H   0  0  0  0  0  0  0  0  0  0  0  0
  1  2  1  0
  2  3  1  0
  3  4  1  0
  4  5  1  0
  5  6  1  0
  6  7  1  0
  6  8  2  0
  5  9  1  0
  9 10  1  0
 10 11  1  0
 11 12  1  0
 12 13  1  0
 12 14  1  0
 10 15  1  0
 15 16  1  0
 16 17  2  0
 16 18  1  0
 18 19  2  0
 19 20  1  0
 20 21  2  0
 21 22  1  0
 22 23  2  0
 23 24  1  0
 24 25  1  0
 24 26  2  0
 15 27  1  0
 27 28  1  0
 28 29  1  0
 29 30  1  0
 30 31  1  0
 31 32  1  0
 32 33  1  0
 33 34  1  0
 33 35  1  0
 35 36  1  0
 35  3  1  0
 26 20  1  0
  1 37  1  0
  1 38  1  0
  1 39  1  0
  3 40  1  0
  4 41  1  0
  4 42  1  0
  7 43  1  0
  7 44  1  0
  7 45  1  0
  9 46  1  0
  9 47  1  0
 10 48  1  0
 11 49  1  0
 11 50  1  0
 12 51  1  0
 13 52  1  0
 13 53  1  0
 13 54  1  0
 14 55  1  0
 14 56  1  0
 14 57  1  0
 18 58  1  0
 19 59  1  0
 21 60  1  0
 22 61  1  0
 23 62  1  0
 26 63  1  0
 27 64  1  0
 27 65  1  0
 28 66  1  0
 28 67  1  0
 29 68  1  0
 29 69  1  0
 30 70  1  0
 30 71  1  0
 32 72  1  0
 32 73  1  0
 33 74  1  0
 34 75  1  0
 35 76  1  0
 36 77  1  0
M  END
$$$$
