
     RDKit          3D

 82 85  0  0  0  0  0  0  0  0999 V2000
    4.4788    0.7395   -3.2794 C   0  0  0  0  0  0  0  0  0  0  0  0
    4.6016    0.7373   -1.8608 O   0  0  0  0  0  0  0  0  0  0  0  0
    5.6285    0.0928   -1.1512 C   0  0  0  0  0  0  0  0  0  0  0  0
    6.6712   -0.5970   -1.8023 C   0  0  0  0  0  0  0  0  0  0  0  0
    7.6817   -1.2259   -1.0599 C   0  0  0  0  0  0  0  0  0  0  0  0
    8.7750   -1.9814   -1.7578 C   0  0  0  0  0  0  0  0  0  0  0  0
    7.6267   -1.1983    0.3397 C   0  0  0  0  0  0  0  0  0  0  0  0
    6.5950   -0.5196    0.9915 C   0  0  0  0  0  0  0  0  0  0  0  0
    5.5952    0.1389    0.2511 C   0  0  0  0  0  0  0  0  0  0  0  0
    4.5536    0.8492    0.8685 O   0  0  0  0  0  0  0  0  0  0  0  0
    4.3170    0.8851    2.2748 C   0  0  0  0  0  0  0  0  0  0  0  0
    3.1535    1.8242    2.5838 C   0  0  0  0  0  0  0  0  0  0  0  0
    1.9504    1.4081    1.8642 N   0  0  0  0  0  0  0  0  0  0  0  0
    0.7286    1.0400    2.5206 C   0  0  0  0  0  0  0  0  0  0  0  0
    0.6995    0.8892    3.7732 O   0  0  0  0  0  0  0  0  0  0  0  0
   -0.5126    0.8021    1.6996 C   0  0  0  0  0  0  0  0  0  0  0  0
   -0.5106   -0.6089    1.0706 C   0  0  0  0  0  0  0  0  0  0  0  0
   -0.8322   -1.7180    2.0382 C   0  0  0  0  0  0  0  0  0  0  0  0
   -0.0487   -1.9123    3.0052 O   0  0  0  0  0  0  0  0  0  0  0  0
   -1.9871   -2.5736    1.9034 N   0  0  0  0  0  0  0  0  0  0  0  0
   -2.9734   -2.5929    0.8035 C   0  0  0  0  0  0  0  0  0  0  0  0
   -2.3632   -3.1199   -0.5371 C   0  0  0  0  0  0  0  0  0  0  0  0
   -3.4414   -3.8005   -1.4058 C   0  0  0  0  0  0  0  0  0  0  0  0
   -1.2289   -4.1347   -0.3069 C   0  0  0  0  0  0  0  0  0  0  0  0
   -3.7147   -1.2650    0.7304 C   0  0  0  0  0  0  0  0  0  0  0  0
   -3.8576   -0.6148    1.8000 O   0  0  0  0  0  0  0  0  0  0  0  0
   -4.4949   -0.8584   -0.4079 N   0  0  0  0  0  0  0  0  0  0  0  0
   -5.9375   -0.7196   -0.2868 C   0  0  0  0  0  0  0  0  0  0  0  0
   -6.3853    0.0981   -1.4872 C   0  0  0  0  0  0  0  0  0  0  0  0
   -5.2417    0.0203   -2.4889 C   0  0  0  0  0  0  0  0  0  0  0  0
   -3.9857   -0.3188   -1.6724 C   0  0  0  0  0  0  0  0  0  0  0  0
   -3.0586    0.9067   -1.4911 C   0  0  0  0  0  0  0  0  0  0  0  0
   -3.3621    1.6483   -0.3080 O   0  0  0  0  0  0  0  0  0  0  0  0
   -2.7701    2.8870   -0.0018 C   0  0  0  0  0  0  0  0  0  0  0  0
   -2.5549    3.8622   -0.9967 C   0  0  0  0  0  0  0  0  0  0  0  0
   -1.9889    5.0968   -0.6683 C   0  0  0  0  0  0  0  0  0  0  0  0
   -1.6379    5.3787    0.6524 C   0  0  0  0  0  0  0  0  0  0  0  0
   -1.8511    4.4260    1.6497 C   0  0  0  0  0  0  0  0  0  0  0  0
   -2.4074    3.1784    1.3301 C   0  0  0  0  0  0  0  0  0  0  0  0
   -2.5703    2.1830    2.4002 C   0  0  0  0  0  0  0  0  0  0  0  0
   -3.4615    2.3733    3.2701 O   0  0  0  0  0  0  0  0  0  0  0  0
   -1.7207    1.0277    2.5076 N   0  0  0  0  0  0  0  0  0  0  0  0
    4.3798   -0.3012   -3.6554 H   0  0  0  0  0  0  0  0  0  0  0  0
    3.5664    1.3041   -3.5614 H   0  0  0  0  0  0  0  0  0  0  0  0
    5.3612    1.2342   -3.7389 H   0  0  0  0  0  0  0  0  0  0  0  0
    6.7049   -0.6468   -2.8828 H   0  0  0  0  0  0  0  0  0  0  0  0
    8.4725   -3.0416   -1.8857 H   0  0  0  0  0  0  0  0  0  0  0  0
    9.7148   -1.9413   -1.1673 H   0  0  0  0  0  0  0  0  0  0  0  0
    8.9820   -1.5420   -2.7565 H   0  0  0  0  0  0  0  0  0  0  0  0
    8.3861   -1.6988    0.9290 H   0  0  0  0  0  0  0  0  0  0  0  0
    6.5858   -0.5104    2.0723 H   0  0  0  0  0  0  0  0  0  0  0  0
    5.2217    1.2629    2.7990 H   0  0  0  0  0  0  0  0  0  0  0  0
    4.0808   -0.1376    2.6443 H   0  0  0  0  0  0  0  0  0  0  0  0
    3.4202    2.8583    2.2734 H   0  0  0  0  0  0  0  0  0  0  0  0
    2.9820    1.8362    3.6810 H   0  0  0  0  0  0  0  0  0  0  0  0
    1.9629    1.4483    0.8196 H   0  0  0  0  0  0  0  0  0  0  0  0
   -0.4832    1.5215    0.8546 H   0  0  0  0  0  0  0  0  0  0  0  0
   -1.2287   -0.6129    0.2430 H   0  0  0  0  0  0  0  0  0  0  0  0
    0.4797   -0.8139    0.6118 H   0  0  0  0  0  0  0  0  0  0  0  0
   -2.1391   -3.2651    2.6733 H   0  0  0  0  0  0  0  0  0  0  0  0
   -3.7517   -3.3307    1.1042 H   0  0  0  0  0  0  0  0  0  0  0  0
   -1.9231   -2.2796   -1.1098 H   0  0  0  0  0  0  0  0  0  0  0  0
   -3.8042   -4.7284   -0.9140 H   0  0  0  0  0  0  0  0  0  0  0  0
   -4.3174   -3.1451   -1.5682 H   0  0  0  0  0  0  0  0  0  0  0  0
   -3.0242   -4.0649   -2.3997 H   0  0  0  0  0  0  0  0  0  0  0  0
   -0.8997   -4.5745   -1.2726 H   0  0  0  0  0  0  0  0  0  0  0  0
   -0.3431   -3.6407    0.1415 H   0  0  0  0  0  0  0  0  0  0  0  0
   -1.5678   -4.9539    0.3622 H   0  0  0  0  0  0  0  0  0  0  0  0
   -6.4046   -1.7276   -0.3032 H   0  0  0  0  0  0  0  0  0  0  0  0
   -6.2093   -0.1963    0.6569 H   0  0  0  0  0  0  0  0  0  0  0  0
   -7.3278   -0.2996   -1.9196 H   0  0  0  0  0  0  0  0  0  0  0  0
   -6.5366    1.1578   -1.1812 H   0  0  0  0  0  0  0  0  0  0  0  0
   -5.1629    0.9630   -3.0728 H   0  0  0  0  0  0  0  0  0  0  0  0
   -5.4492   -0.8086   -3.2036 H   0  0  0  0  0  0  0  0  0  0  0  0
   -3.4251   -1.0923   -2.2326 H   0  0  0  0  0  0  0  0  0  0  0  0
   -2.0057    0.5681   -1.4394 H   0  0  0  0  0  0  0  0  0  0  0  0
   -3.1152    1.5491   -2.3924 H   0  0  0  0  0  0  0  0  0  0  0  0
   -2.8499    3.6918   -2.0218 H   0  0  0  0  0  0  0  0  0  0  0  0
   -1.8316    5.8411   -1.4387 H   0  0  0  0  0  0  0  0  0  0  0  0
   -1.1994    6.3353    0.9021 H   0  0  0  0  0  0  0  0  0  0  0  0
   -1.5661    4.6546    2.6699 H   0  0  0  0  0  0  0  0  0  0  0  0
   -1.8924    0.3944    3.3213 H   0  0  0  0  0  0  0  0  0  0  0  0
  1  2  1  0
  2  3  1  0
  3  4  2  0
  4  5  1  0
  5  6  1  0
  5  7  2  0
  7  8  1  0
  8  9  2  0
  9 10  1  0
 10 11  1  0
 11 12  1  0
 12 13  1  0
 13 14  1  0
 14 15  2  0
 14 16  1  0
 16 17  1  0
 17 18  1  0
 18 19  2  0
 18 20  1  0
 20 21  1  0
 21 22  1  0
 22 23  1  0
 22 24  1  0
 21 25  1  0
 25 26  2  0
 25 27  1  0
 27 28  1  0
 28 29  1  0
 29 30  1  0
 30 31  1  0
 31 32  1  0
 32 33  1  0
 33 34  1  0
 34 35  2  0
 35 36  1  0
 36 37  2  0
 37 38  1  0
 38 39  2  0
 39 40  1  0
 40 41  2  0
 40 42  1  0
  9  3  1  0
 42 16  1  0
 31 27  1  0
 39 34  1  0
  1 43  1  0
  1 44  1  0
  1 45  1  0
  4 46  1  0
  6 47  1  0
  6 48  1  0
  6 49  1  0
  7 50  1  0
  8 51  1  0
 11 52  1  0
 11 53  1  0
 12 54  1  0
 12 55  1  0
 13 56  1  0
 16 57  1  0
 17 58  1  0
 17 59  1  0
 20 60  1  0
 21 61  1  0
 22 62  1  0
 23 63  1  0
 23 64  1  0
 23 65  1  0
 24 66  1  0
 24 67  1  0
 24 68  1  0
 28 69  1  0
 28 70  1  0
 29 71  1  0
 29 72  1  0
 30 73  1  0
 30 74  1  0
 31 75  1  0
 32 76  1  0
 32 77  1  0
 35 78  1  0
 36 79  1  0
 37 80  1  0
 38 81  1  0
 42 82  1  0
M  END
$$$$
