
     RDKit          3D

114119  0  0  0  0  0  0  0  0999 V2000
   -7.3993   -1.4229    1.8205 C   0  0  0  0  0  0  0  0  0  0  0  0
   -6.3172   -1.1359    0.8695 N   0  0  0  0  0  0  0  0  0  0  0  0
   -5.4058   -2.2114    0.4622 C   0  0  0  0  0  0  0  0  0  0  0  0
   -4.3995   -2.5037    1.5475 C   0  0  0  0  0  0  0  0  0  0  0  0
   -4.2229   -1.6704    2.4760 O   0  0  0  0  0  0  0  0  0  0  0  0
   -3.6067   -3.7015    1.5429 N   0  0  0  0  0  0  0  0  0  0  0  0
   -3.4954   -4.6021    0.3959 C   0  0  0  0  0  0  0  0  0  0  0  0
   -2.5203   -4.0375   -0.6455 C   0  0  0  0  0  0  0  0  0  0  0  0
   -1.0518   -4.2379   -0.2221 C   0  0  0  0  0  0  0  0  0  0  0  0
   -0.1925   -3.2261   -0.7502 O   0  0  0  0  0  0  0  0  0  0  0  0
    0.4455   -3.2806   -2.0027 C   0  0  0  0  0  0  0  0  0  0  0  0
   -0.2147   -3.7555   -3.1513 C   0  0  0  0  0  0  0  0  0  0  0  0
    0.4460   -3.8025   -4.3806 C   0  0  0  0  0  0  0  0  0  0  0  0
    1.7799   -3.4003   -4.4760 C   0  0  0  0  0  0  0  0  0  0  0  0
    2.4477   -2.9363   -3.3429 C   0  0  0  0  0  0  0  0  0  0  0  0
    1.7827   -2.8409   -2.1109 C   0  0  0  0  0  0  0  0  0  0  0  0
    2.5277   -2.3646   -0.9269 C   0  0  0  0  0  0  0  0  0  0  0  0
    3.6163   -2.9260   -0.6266 O   0  0  0  0  0  0  0  0  0  0  0  0
    2.0369   -1.3080   -0.0879 N   0  0  0  0  0  0  0  0  0  0  0  0
    1.6038    0.0147   -0.5692 C   0  0  0  0  0  0  0  0  0  0  0  0
    2.4795    0.5003   -1.7013 C   0  0  0  0  0  0  0  0  0  0  0  0
    2.3154    0.0534   -2.8700 O   0  0  0  0  0  0  0  0  0  0  0  0
    3.5325    1.4397   -1.4392 N   0  0  0  0  0  0  0  0  0  0  0  0
    4.7381    1.4828   -2.2615 C   0  0  0  0  0  0  0  0  0  0  0  0
    5.5684    0.2568   -2.0029 C   0  0  0  0  0  0  0  0  0  0  0  0
    5.9526   -0.5905   -3.0532 C   0  0  0  0  0  0  0  0  0  0  0  0
    6.7600   -1.7028   -2.7998 C   0  0  0  0  0  0  0  0  0  0  0  0
    7.1923   -1.9791   -1.4974 C   0  0  0  0  0  0  0  0  0  0  0  0
    6.7969   -1.1513   -0.4355 C   0  0  0  0  0  0  0  0  0  0  0  0
    7.2879   -1.4173    0.9666 C   0  0  0  0  0  0  0  0  0  0  0  0
    8.6984   -0.9923    1.1177 N   0  0  0  0  0  0  0  0  0  0  0  0
    8.8642    0.4814    1.1638 C   0  0  0  0  0  0  0  0  0  0  0  0
    8.8387    1.0450    2.5975 C   0  0  0  0  0  0  0  0  0  0  0  0
    8.1043    0.1986    3.4506 O   0  0  0  0  0  0  0  0  0  0  0  0
    8.7925   -1.0281    3.6222 C   0  0  0  0  0  0  0  0  0  0  0  0
    9.3278   -1.6215    2.2952 C   0  0  0  0  0  0  0  0  0  0  0  0
    5.9834   -0.0372   -0.6947 C   0  0  0  0  0  0  0  0  0  0  0  0
    0.1035    0.0245   -0.9243 C   0  0  0  0  0  0  0  0  0  0  0  0
   -0.4383    1.4165   -1.3087 C   0  0  0  0  0  0  0  0  0  0  0  0
   -0.1452    2.4688   -0.2725 C   0  0  0  0  0  0  0  0  0  0  0  0
    0.9027    3.1560   -0.3885 O   0  0  0  0  0  0  0  0  0  0  0  0
   -0.9889    2.6741    0.8702 N   0  0  0  0  0  0  0  0  0  0  0  0
   -2.4473    2.8500    0.8039 C   0  0  0  0  0  0  0  0  0  0  0  0
   -2.8329    3.7894   -0.3653 C   0  0  0  0  0  0  0  0  0  0  0  0
   -4.2177    4.3637   -0.2111 C   0  0  0  0  0  0  0  0  0  0  0  0
   -4.4493    5.4005    0.7065 C   0  0  0  0  0  0  0  0  0  0  0  0
   -5.7222    5.9615    0.8276 C   0  0  0  0  0  0  0  0  0  0  0  0
   -6.7714    5.4990    0.0284 C   0  0  0  0  0  0  0  0  0  0  0  0
   -6.5491    4.4640   -0.8843 C   0  0  0  0  0  0  0  0  0  0  0  0
   -5.2803    3.8933   -1.0038 C   0  0  0  0  0  0  0  0  0  0  0  0
   -3.1601    1.4805    0.7530 C   0  0  0  0  0  0  0  0  0  0  0  0
   -4.0178    1.3119    1.8809 O   0  0  0  0  0  0  0  0  0  0  0  0
   -5.2998    1.8643    1.9564 C   0  0  0  0  0  0  0  0  0  0  0  0
   -5.5359    2.9121    2.8570 C   0  0  0  0  0  0  0  0  0  0  0  0
   -6.8075    3.4843    2.9594 C   0  0  0  0  0  0  0  0  0  0  0  0
   -7.8553    3.0052    2.1687 C   0  0  0  0  0  0  0  0  0  0  0  0
   -7.6371    1.9477    1.2794 C   0  0  0  0  0  0  0  0  0  0  0  0
   -6.3629    1.3694    1.1706 C   0  0  0  0  0  0  0  0  0  0  0  0
   -6.1786    0.1837    0.3221 C   0  0  0  0  0  0  0  0  0  0  0  0
   -5.9075    0.3390   -0.8967 O   0  0  0  0  0  0  0  0  0  0  0  0
   -7.2402   -0.8529    2.7667 H   0  0  0  0  0  0  0  0  0  0  0  0
   -7.4330   -2.5105    2.0622 H   0  0  0  0  0  0  0  0  0  0  0  0
   -8.3805   -1.1392    1.3697 H   0  0  0  0  0  0  0  0  0  0  0  0
   -4.8600   -1.9340   -0.4648 H   0  0  0  0  0  0  0  0  0  0  0  0
   -5.9990   -3.1226    0.2478 H   0  0  0  0  0  0  0  0  0  0  0  0
   -3.0443   -3.9299    2.3967 H   0  0  0  0  0  0  0  0  0  0  0  0
   -3.1369   -5.6031    0.7400 H   0  0  0  0  0  0  0  0  0  0  0  0
   -4.4932   -4.7689   -0.0595 H   0  0  0  0  0  0  0  0  0  0  0  0
   -2.7277   -2.9595   -0.8278 H   0  0  0  0  0  0  0  0  0  0  0  0
   -2.7108   -4.5876   -1.5904 H   0  0  0  0  0  0  0  0  0  0  0  0
   -0.9672   -4.1904    0.8844 H   0  0  0  0  0  0  0  0  0  0  0  0
   -0.6969   -5.2510   -0.5259 H   0  0  0  0  0  0  0  0  0  0  0  0
   -1.2495   -4.0602   -3.1156 H   0  0  0  0  0  0  0  0  0  0  0  0
   -0.0767   -4.1493   -5.2619 H   0  0  0  0  0  0  0  0  0  0  0  0
    2.2890   -3.4427   -5.4283 H   0  0  0  0  0  0  0  0  0  0  0  0
    3.4811   -2.6213   -3.4298 H   0  0  0  0  0  0  0  0  0  0  0  0
    2.2850   -1.3753    0.9269 H   0  0  0  0  0  0  0  0  0  0  0  0
    1.7340    0.7131    0.2838 H   0  0  0  0  0  0  0  0  0  0  0  0
    3.5141    1.9977   -0.5573 H   0  0  0  0  0  0  0  0  0  0  0  0
    5.3379    2.3807   -1.9935 H   0  0  0  0  0  0  0  0  0  0  0  0
    4.4590    1.5788   -3.3358 H   0  0  0  0  0  0  0  0  0  0  0  0
    5.6450   -0.3853   -4.0726 H   0  0  0  0  0  0  0  0  0  0  0  0
    7.0724   -2.3464   -3.6119 H   0  0  0  0  0  0  0  0  0  0  0  0
    7.8371   -2.8295   -1.3147 H   0  0  0  0  0  0  0  0  0  0  0  0
    6.6306   -0.9077    1.7099 H   0  0  0  0  0  0  0  0  0  0  0  0
    7.1873   -2.5066    1.1520 H   0  0  0  0  0  0  0  0  0  0  0  0
    9.8453    0.7381    0.7050 H   0  0  0  0  0  0  0  0  0  0  0  0
    8.0977    0.9974    0.5521 H   0  0  0  0  0  0  0  0  0  0  0  0
    8.3555    2.0467    2.5859 H   0  0  0  0  0  0  0  0  0  0  0  0
    9.8771    1.1886    2.9798 H   0  0  0  0  0  0  0  0  0  0  0  0
    9.6242   -0.8985    4.3509 H   0  0  0  0  0  0  0  0  0  0  0  0
    8.0777   -1.7531    4.0689 H   0  0  0  0  0  0  0  0  0  0  0  0
    9.1887   -2.7257    2.2861 H   0  0  0  0  0  0  0  0  0  0  0  0
   10.4255   -1.4545    2.2417 H   0  0  0  0  0  0  0  0  0  0  0  0
    5.6972    0.6212    0.1154 H   0  0  0  0  0  0  0  0  0  0  0  0
   -0.4624   -0.3605   -0.0511 H   0  0  0  0  0  0  0  0  0  0  0  0
   -0.0868   -0.6659   -1.7723 H   0  0  0  0  0  0  0  0  0  0  0  0
   -1.5272    1.3321   -1.4842 H   0  0  0  0  0  0  0  0  0  0  0  0
    0.0087    1.7240   -2.2812 H   0  0  0  0  0  0  0  0  0  0  0  0
   -0.5195    3.0192    1.7368 H   0  0  0  0  0  0  0  0  0  0  0  0
   -2.7506    3.3579    1.7446 H   0  0  0  0  0  0  0  0  0  0  0  0
   -2.7477    3.2623   -1.3381 H   0  0  0  0  0  0  0  0  0  0  0  0
   -2.1120    4.6368   -0.4061 H   0  0  0  0  0  0  0  0  0  0  0  0
   -3.6455    5.7714    1.3232 H   0  0  0  0  0  0  0  0  0  0  0  0
   -5.8952    6.7602    1.5347 H   0  0  0  0  0  0  0  0  0  0  0  0
   -7.7599    5.9365    0.1217 H   0  0  0  0  0  0  0  0  0  0  0  0
   -7.3640    4.1082   -1.5049 H   0  0  0  0  0  0  0  0  0  0  0  0
   -5.1246    3.0936   -1.7179 H   0  0  0  0  0  0  0  0  0  0  0  0
   -2.4145    0.6607    0.7862 H   0  0  0  0  0  0  0  0  0  0  0  0
   -3.7238    1.3526   -0.1922 H   0  0  0  0  0  0  0  0  0  0  0  0
   -4.7265    3.2911    3.4676 H   0  0  0  0  0  0  0  0  0  0  0  0
   -6.9816    4.2968    3.6493 H   0  0  0  0  0  0  0  0  0  0  0  0
   -8.8401    3.4471    2.2523 H   0  0  0  0  0  0  0  0  0  0  0  0
   -8.4667    1.5711    0.6871 H   0  0  0  0  0  0  0  0  0  0  0  0
  1  2  1  0
  2  3  1  0
  3  4  1  0
  4  5  2  0
  4  6  1  0
  6  7  1  0
  7  8  1  0
  8  9  1  0
  9 10  1  0
 10 11  1  0
 11 12  2  0
 12 13  1  0
 13 14  2  0
 14 15  1  0
 15 16  2  0
 16 17  1  0
 17 18  2  0
 17 19  1  0
 19 20  1  0
 20 21  1  0
 21 22  2  0
 21 23  1  0
 23 24  1  0
 24 25  1  0
 25 26  2  0
 26 27  1  0
 27 28  2  0
 28 29  1  0
 29 30  1  0
 30 31  1  0
 31 32  1  0
 32 33  1  0
 33 34  1  0
 34 35  1  0
 35 36  1  0
 29 37  2  0
 20 38  1  0
 38 39  1  0
 39 40  1  0
 40 41  2  0
 40 42  1  0
 42 43  1  0
 43 44  1  0
 44 45  1  0
 45 46  2  0
 46 47  1  0
 47 48  2  0
 48 49  1  0
 49 50  2  0
 43 51  1  0
 51 52  1  0
 52 53  1  0
 53 54  2  0
 54 55  1  0
 55 56  2  0
 56 57  1  0
 57 58  2  0
 58 59  1  0
 59 60  2  0
 59  2  1  0
 16 11  1  0
 37 25  1  0
 50 45  1  0
 58 53  1  0
 36 31  1  0
  1 61  1  0
  1 62  1  0
  1 63  1  0
  3 64  1  0
  3 65  1  0
  6 66  1  0
  7 67  1  0
  7 68  1  0
  8 69  1  0
  8 70  1  0
  9 71  1  0
  9 72  1  0
 12 73  1  0
 13 74  1  0
 14 75  1  0
 15 76  1  0
 19 77  1  0
 20 78  1  0
 23 79  1  0
 24 80  1  0
 24 81  1  0
 26 82  1  0
 27 83  1  0
 28 84  1  0
 30 85  1  0
 30 86  1  0
 32 87  1  0
 32 88  1  0
 33 89  1  0
 33 90  1  0
 35 91  1  0
 35 92  1  0
 36 93  1  0
 36 94  1  0
 37 95  1  0
 38 96  1  0
 38 97  1  0
 39 98  1  0
 39 99  1  0
 42100  1  0
 43101  1  0
 44102  1  0
 44103  1  0
 46104  1  0
 47105  1  0
 48106  1  0
 49107  1  0
 50108  1  0
 51109  1  0
 51110  1  0
 54111  1  0
 55112  1  0
 56113  1  0
 57114  1  0
M  END
$$$$
