
     RDKit          3D

 81 84  0  0  0  0  0  0  0  0999 V2000
   -6.2628   -2.6856   -1.5496 C   0  0  0  0  0  0  0  0  0  0  0  0
   -6.0738   -1.3611   -0.7937 C   0  0  0  0  0  0  0  0  0  0  0  0
   -6.7641   -1.4203    0.5790 C   0  0  0  0  0  0  0  0  0  0  0  0
   -4.5743   -0.9465   -0.7188 C   0  0  0  0  0  0  0  0  0  0  0  0
   -3.7523   -1.9672   -0.0435 N   0  0  0  0  0  0  0  0  0  0  0  0
   -2.3768   -2.2105   -0.3805 C   0  0  0  0  0  0  0  0  0  0  0  0
   -1.9540   -3.3974   -0.4168 O   0  0  0  0  0  0  0  0  0  0  0  0
   -1.4184   -1.0610   -0.5044 C   0  0  0  0  0  0  0  0  0  0  0  0
   -0.2474   -1.2305   -1.4934 C   0  0  0  0  0  0  0  0  0  0  0  0
    0.6510   -2.4063   -1.1824 C   0  0  0  0  0  0  0  0  0  0  0  0
    1.1049   -3.0926   -2.1379 O   0  0  0  0  0  0  0  0  0  0  0  0
    1.0720   -2.6899    0.1615 N   0  0  0  0  0  0  0  0  0  0  0  0
    2.4162   -3.1675    0.4705 C   0  0  0  0  0  0  0  0  0  0  0  0
    3.1992   -2.0520    1.1023 C   0  0  0  0  0  0  0  0  0  0  0  0
    3.7592   -1.0471    0.3028 C   0  0  0  0  0  0  0  0  0  0  0  0
    4.3852    0.0537    0.8918 C   0  0  0  0  0  0  0  0  0  0  0  0
    4.4805    0.1562    2.2878 C   0  0  0  0  0  0  0  0  0  0  0  0
    5.1307    1.3593    2.9229 C   0  0  0  0  0  0  0  0  0  0  0  0
    6.4319    1.6303    2.3134 N   0  0  0  0  0  0  0  0  0  0  0  0
    6.7871    2.8678    1.6439 C   0  0  0  0  0  0  0  0  0  0  0  0
    8.2316    2.6779    1.1390 C   0  0  0  0  0  0  0  0  0  0  0  0
    8.7465    1.3457    1.7126 C   0  0  0  0  0  0  0  0  0  0  0  0
    7.5565    0.7765    2.3725 C   0  0  0  0  0  0  0  0  0  0  0  0
    7.5344   -0.3535    2.9249 O   0  0  0  0  0  0  0  0  0  0  0  0
    3.9211   -0.8512    3.0870 C   0  0  0  0  0  0  0  0  0  0  0  0
    3.2770   -1.9426    2.4995 C   0  0  0  0  0  0  0  0  0  0  0  0
    0.5614    0.0008   -1.5028 N   0  0  0  0  0  0  0  0  0  0  0  0
    0.0514    1.2966   -1.8689 C   0  0  0  0  0  0  0  0  0  0  0  0
    0.6558    2.3308   -1.4797 O   0  0  0  0  0  0  0  0  0  0  0  0
   -1.1607    1.4409   -2.6925 C   0  0  0  0  0  0  0  0  0  0  0  0
   -1.1550    0.8356   -3.9625 C   0  0  0  0  0  0  0  0  0  0  0  0
   -2.2303    0.9960   -4.8348 C   0  0  0  0  0  0  0  0  0  0  0  0
   -3.3191    1.7799   -4.4604 C   0  0  0  0  0  0  0  0  0  0  0  0
   -3.3390    2.3935   -3.2084 C   0  0  0  0  0  0  0  0  0  0  0  0
   -2.2866    2.2196   -2.2964 C   0  0  0  0  0  0  0  0  0  0  0  0
   -2.4363    2.8648   -1.0500 O   0  0  0  0  0  0  0  0  0  0  0  0
   -1.9548    2.4514    0.2328 C   0  0  0  0  0  0  0  0  0  0  0  0
   -3.1279    2.1666    1.1872 C   0  0  0  0  0  0  0  0  0  0  0  0
   -3.6564    0.7950    1.0350 N   0  0  0  0  0  0  0  0  0  0  0  0
   -3.6400   -0.1044    2.1970 C   0  0  0  0  0  0  0  0  0  0  0  0
   -4.4256    0.4624   -0.1466 C   0  0  0  0  0  0  0  0  0  0  0  0
   -4.9921    1.3952   -0.7772 O   0  0  0  0  0  0  0  0  0  0  0  0
   -5.7763   -2.6299   -2.5467 H   0  0  0  0  0  0  0  0  0  0  0  0
   -5.8280   -3.5358   -0.9860 H   0  0  0  0  0  0  0  0  0  0  0  0
   -7.3452   -2.8856   -1.7032 H   0  0  0  0  0  0  0  0  0  0  0  0
   -6.6088   -0.5850   -1.3885 H   0  0  0  0  0  0  0  0  0  0  0  0
   -7.8382   -1.6733    0.4456 H   0  0  0  0  0  0  0  0  0  0  0  0
   -6.3057   -2.1855    1.2380 H   0  0  0  0  0  0  0  0  0  0  0  0
   -6.7182   -0.4301    1.0780 H   0  0  0  0  0  0  0  0  0  0  0  0
   -4.2216   -0.8826   -1.7737 H   0  0  0  0  0  0  0  0  0  0  0  0
   -4.2251   -2.7097    0.5176 H   0  0  0  0  0  0  0  0  0  0  0  0
   -2.0094   -0.2103   -0.8647 H   0  0  0  0  0  0  0  0  0  0  0  0
   -1.0383   -0.7921    0.5018 H   0  0  0  0  0  0  0  0  0  0  0  0
   -0.6766   -1.3959   -2.5048 H   0  0  0  0  0  0  0  0  0  0  0  0
    0.4762   -2.3886    0.9653 H   0  0  0  0  0  0  0  0  0  0  0  0
    2.9362   -3.5230   -0.4444 H   0  0  0  0  0  0  0  0  0  0  0  0
    2.3452   -4.0359    1.1605 H   0  0  0  0  0  0  0  0  0  0  0  0
    3.6980   -1.1094   -0.7762 H   0  0  0  0  0  0  0  0  0  0  0  0
    4.7930    0.8285    0.2573 H   0  0  0  0  0  0  0  0  0  0  0  0
    5.2744    1.2038    4.0154 H   0  0  0  0  0  0  0  0  0  0  0  0
    4.4592    2.2371    2.7960 H   0  0  0  0  0  0  0  0  0  0  0  0
    6.7363    3.7116    2.3659 H   0  0  0  0  0  0  0  0  0  0  0  0
    6.0937    3.0571    0.7979 H   0  0  0  0  0  0  0  0  0  0  0  0
    8.8734    3.5219    1.4726 H   0  0  0  0  0  0  0  0  0  0  0  0
    8.2416    2.6404    0.0260 H   0  0  0  0  0  0  0  0  0  0  0  0
    9.1064    0.6703    0.9065 H   0  0  0  0  0  0  0  0  0  0  0  0
    9.5465    1.5169    2.4652 H   0  0  0  0  0  0  0  0  0  0  0  0
    3.9719   -0.7869    4.1666 H   0  0  0  0  0  0  0  0  0  0  0  0
    2.8318   -2.6973    3.1355 H   0  0  0  0  0  0  0  0  0  0  0  0
    1.5128   -0.0189   -1.0690 H   0  0  0  0  0  0  0  0  0  0  0  0
   -0.3021    0.2519   -4.2893 H   0  0  0  0  0  0  0  0  0  0  0  0
   -2.2121    0.5270   -5.8104 H   0  0  0  0  0  0  0  0  0  0  0  0
   -4.1468    1.9153   -5.1444 H   0  0  0  0  0  0  0  0  0  0  0  0
   -4.1936    2.9979   -2.9326 H   0  0  0  0  0  0  0  0  0  0  0  0
   -1.2880    1.5794    0.2063 H   0  0  0  0  0  0  0  0  0  0  0  0
   -1.3617    3.2919    0.6532 H   0  0  0  0  0  0  0  0  0  0  0  0
   -2.7545    2.3255    2.2219 H   0  0  0  0  0  0  0  0  0  0  0  0
   -3.9399    2.9117    1.0300 H   0  0  0  0  0  0  0  0  0  0  0  0
   -4.6066   -0.6372    2.2927 H   0  0  0  0  0  0  0  0  0  0  0  0
   -3.4875    0.4548    3.1428 H   0  0  0  0  0  0  0  0  0  0  0  0
   -2.8184   -0.8390    2.1043 H   0  0  0  0  0  0  0  0  0  0  0  0
  1  2  1  0
  2  3  1  0
  2  4  1  0
  4  5  1  0
  5  6  1  0
  6  7  2  0
  6  8  1  0
  8  9  1  0
  9 10  1  0
 10 11  2  0
 10 12  1  0
 12 13  1  0
 13 14  1  0
 14 15  2  0
 15 16  1  0
 16 17  2  0
 17 18  1  0
 18 19  1  0
 19 20  1  0
 20 21  1  0
 21 22  1  0
 22 23  1  0
 23 24  2  0
 17 25  1  0
 25 26  2  0
  9 27  1  0
 27 28  1  0
 28 29  2  0
 28 30  1  0
 30 31  2  0
 31 32  1  0
 32 33  2  0
 33 34  1  0
 34 35  2  0
 35 36  1  0
 36 37  1  0
 37 38  1  0
 38 39  1  0
 39 40  1  0
 39 41  1  0
 41 42  2  0
 41  4  1  0
 26 14  1  0
 35 30  1  0
 23 19  1  0
  1 43  1  0
  1 44  1  0
  1 45  1  0
  2 46  1  0
  3 47  1  0
  3 48  1  0
  3 49  1  0
  4 50  1  0
  5 51  1  0
  8 52  1  0
  8 53  1  0
  9 54  1  0
 12 55  1  0
 13 56  1  0
 13 57  1  0
 15 58  1  0
 16 59  1  0
 18 60  1  0
 18 61  1  0
 20 62  1  0
 20 63  1  0
 21 64  1  0
 21 65  1  0
 22 66  1  0
 22 67  1  0
 25 68  1  0
 26 69  1  0
 27 70  1  0
 31 71  1  0
 32 72  1  0
 33 73  1  0
 34 74  1  0
 37 75  1  0
 37 76  1  0
 38 77  1  0
 38 78  1  0
 40 79  1  0
 40 80  1  0
 40 81  1  0
M  END
$$$$
