
     RDKit          3D

 76 78  0  0  0  0  0  0  0  0999 V2000
   -6.7426   -3.7608   -1.8013 C   0  0  0  0  0  0  0  0  0  0  0  0
   -5.3588   -3.4066   -1.2542 C   0  0  0  0  0  0  0  0  0  0  0  0
   -5.3593   -2.1037   -0.4175 C   0  0  0  0  0  0  0  0  0  0  0  0
   -6.1815   -2.2611    0.8799 C   0  0  0  0  0  0  0  0  0  0  0  0
   -3.9003   -1.6176   -0.1591 C   0  0  0  0  0  0  0  0  0  0  0  0
   -3.1370   -2.5702    0.6722 N   0  0  0  0  0  0  0  0  0  0  0  0
   -1.7015   -2.5720    0.7617 C   0  0  0  0  0  0  0  0  0  0  0  0
   -1.1289   -3.4818    1.4212 O   0  0  0  0  0  0  0  0  0  0  0  0
   -0.8869   -1.4977    0.0924 C   0  0  0  0  0  0  0  0  0  0  0  0
    0.6233   -1.5943    0.3356 C   0  0  0  0  0  0  0  0  0  0  0  0
    1.3333   -0.3122   -0.1393 C   0  0  0  0  0  0  0  0  0  0  0  0
    2.8087   -0.4157    0.1343 C   0  0  0  0  0  0  0  0  0  0  0  0
    3.5461   -1.0793   -0.6452 O   0  0  0  0  0  0  0  0  0  0  0  0
    3.3617    0.1781    1.3185 N   0  0  0  0  0  0  0  0  0  0  0  0
    4.7530   -0.0230    1.7109 C   0  0  0  0  0  0  0  0  0  0  0  0
    5.6703    0.9147    0.9227 C   0  0  0  0  0  0  0  0  0  0  0  0
    7.1141    0.5958    1.2081 C   0  0  0  0  0  0  0  0  0  0  0  0
    7.8093   -0.3174    0.3981 C   0  0  0  0  0  0  0  0  0  0  0  0
    9.1350   -0.6531    0.6912 C   0  0  0  0  0  0  0  0  0  0  0  0
    9.7727   -0.0887    1.8003 C   0  0  0  0  0  0  0  0  0  0  0  0
   11.0551   -0.4249    2.0889 F   0  0  0  0  0  0  0  0  0  0  0  0
    9.0837    0.8129    2.6180 C   0  0  0  0  0  0  0  0  0  0  0  0
    7.7574    1.1511    2.3282 C   0  0  0  0  0  0  0  0  0  0  0  0
    1.0995   -0.0861   -1.5732 N   0  0  0  0  0  0  0  0  0  0  0  0
    0.5190    1.1135   -2.1231 C   0  0  0  0  0  0  0  0  0  0  0  0
    0.1916    1.1325   -3.3387 O   0  0  0  0  0  0  0  0  0  0  0  0
    0.3609    2.3432   -1.3203 C   0  0  0  0  0  0  0  0  0  0  0  0
    1.5321    2.8975   -0.7691 C   0  0  0  0  0  0  0  0  0  0  0  0
    1.4929    4.1013   -0.0670 C   0  0  0  0  0  0  0  0  0  0  0  0
    0.2879    4.7832    0.0804 C   0  0  0  0  0  0  0  0  0  0  0  0
   -0.8836    4.2549   -0.4626 C   0  0  0  0  0  0  0  0  0  0  0  0
   -0.8791    3.0330   -1.1522 C   0  0  0  0  0  0  0  0  0  0  0  0
   -2.1363    2.5895   -1.6092 O   0  0  0  0  0  0  0  0  0  0  0  0
   -2.5018    1.2716   -2.0121 C   0  0  0  0  0  0  0  0  0  0  0  0
   -3.9916    1.0462   -1.7458 C   0  0  0  0  0  0  0  0  0  0  0  0
   -4.2631    0.9478   -0.3019 N   0  0  0  0  0  0  0  0  0  0  0  0
   -4.6722    2.1630    0.4077 C   0  0  0  0  0  0  0  0  0  0  0  0
   -3.9013   -0.2299    0.4590 C   0  0  0  0  0  0  0  0  0  0  0  0
   -3.6427   -0.1134    1.6875 O   0  0  0  0  0  0  0  0  0  0  0  0
   -7.4251   -4.0576   -0.9766 H   0  0  0  0  0  0  0  0  0  0  0  0
   -6.6562   -4.6155   -2.5035 H   0  0  0  0  0  0  0  0  0  0  0  0
   -7.1746   -2.8994   -2.3497 H   0  0  0  0  0  0  0  0  0  0  0  0
   -4.9785   -4.2587   -0.6498 H   0  0  0  0  0  0  0  0  0  0  0  0
   -4.6761   -3.2870   -2.1248 H   0  0  0  0  0  0  0  0  0  0  0  0
   -5.8614   -1.3158   -1.0241 H   0  0  0  0  0  0  0  0  0  0  0  0
   -6.0784   -1.3688    1.5307 H   0  0  0  0  0  0  0  0  0  0  0  0
   -7.2593   -2.3596    0.6366 H   0  0  0  0  0  0  0  0  0  0  0  0
   -5.8760   -3.1619    1.4504 H   0  0  0  0  0  0  0  0  0  0  0  0
   -3.3955   -1.5602   -1.1461 H   0  0  0  0  0  0  0  0  0  0  0  0
   -3.6366   -3.3316    1.1827 H   0  0  0  0  0  0  0  0  0  0  0  0
   -1.2355   -0.5184    0.4774 H   0  0  0  0  0  0  0  0  0  0  0  0
   -1.0677   -1.5585   -1.0006 H   0  0  0  0  0  0  0  0  0  0  0  0
    0.8155   -1.7225    1.4246 H   0  0  0  0  0  0  0  0  0  0  0  0
    1.0267   -2.4807   -0.2021 H   0  0  0  0  0  0  0  0  0  0  0  0
    0.9270    0.5340    0.4554 H   0  0  0  0  0  0  0  0  0  0  0  0
    2.7304    0.6910    1.9764 H   0  0  0  0  0  0  0  0  0  0  0  0
    4.8618    0.1904    2.7977 H   0  0  0  0  0  0  0  0  0  0  0  0
    5.0395   -1.0857    1.5450 H   0  0  0  0  0  0  0  0  0  0  0  0
    5.4698    0.8188   -0.1677 H   0  0  0  0  0  0  0  0  0  0  0  0
    5.4541    1.9693    1.2071 H   0  0  0  0  0  0  0  0  0  0  0  0
    7.3230   -0.7737   -0.4564 H   0  0  0  0  0  0  0  0  0  0  0  0
    9.6621   -1.3601    0.0645 H   0  0  0  0  0  0  0  0  0  0  0  0
    9.5722    1.2396    3.4848 H   0  0  0  0  0  0  0  0  0  0  0  0
    7.2296    1.8375    2.9792 H   0  0  0  0  0  0  0  0  0  0  0  0
    1.3387   -0.8553   -2.2388 H   0  0  0  0  0  0  0  0  0  0  0  0
    2.4875    2.4021   -0.8967 H   0  0  0  0  0  0  0  0  0  0  0  0
    2.4043    4.5126    0.3510 H   0  0  0  0  0  0  0  0  0  0  0  0
    0.2603    5.7237    0.6170 H   0  0  0  0  0  0  0  0  0  0  0  0
   -1.8156    4.7924   -0.3287 H   0  0  0  0  0  0  0  0  0  0  0  0
   -1.9244    0.5202   -1.4549 H   0  0  0  0  0  0  0  0  0  0  0  0
   -2.3131    1.1538   -3.0978 H   0  0  0  0  0  0  0  0  0  0  0  0
   -4.3381    0.1331   -2.2697 H   0  0  0  0  0  0  0  0  0  0  0  0
   -4.5667    1.8853   -2.1957 H   0  0  0  0  0  0  0  0  0  0  0  0
   -5.1623    1.9104    1.3747 H   0  0  0  0  0  0  0  0  0  0  0  0
   -3.7855    2.8058    0.5999 H   0  0  0  0  0  0  0  0  0  0  0  0
   -5.4148    2.7306   -0.1963 H   0  0  0  0  0  0  0  0  0  0  0  0
  1  2  1  0
  2  3  1  0
  3  4  1  0
  3  5  1  0
  5  6  1  0
  6  7  1  0
  7  8  2  0
  7  9  1  0
  9 10  1  0
 10 11  1  0
 11 12  1  0
 12 13  2  0
 12 14  1  0
 14 15  1  0
 15 16  1  0
 16 17  1  0
 17 18  2  0
 18 19  1  0
 19 20  2  0
 20 21  1  0
 20 22  1  0
 22 23  2  0
 11 24  1  0
 24 25  1  0
 25 26  2  0
 25 27  1  0
 27 28  2  0
 28 29  1  0
 29 30  2  0
 30 31  1  0
 31 32  2  0
 32 33  1  0
 33 34  1  0
 34 35  1  0
 35 36  1  0
 36 37  1  0
 36 38  1  0
 38 39  2  0
 38  5  1  0
 23 17  1  0
 32 27  1  0
  1 40  1  0
  1 41  1  0
  1 42  1  0
  2 43  1  0
  2 44  1  0
  3 45  1  0
  4 46  1  0
  4 47  1  0
  4 48  1  0
  5 49  1  0
  6 50  1  0
  9 51  1  0
  9 52  1  0
 10 53  1  0
 10 54  1  0
 11 55  1  0
 14 56  1  0
 15 57  1  0
 15 58  1  0
 16 59  1  0
 16 60  1  0
 18 61  1  0
 19 62  1  0
 22 63  1  0
 23 64  1  0
 24 65  1  0
 28 66  1  0
 29 67  1  0
 30 68  1  0
 31 69  1  0
 34 70  1  0
 34 71  1  0
 35 72  1  0
 35 73  1  0
 37 74  1  0
 37 75  1  0
 37 76  1  0
M  END
$$$$
