
     RDKit          3D

 68 71  0  0  0  0  0  0  0  0999 V2000
   -2.9136    4.5120    2.2256 C   0  0  0  0  0  0  0  0  0  0  0  0
   -3.2019    3.6843    0.9651 C   0  0  0  0  0  0  0  0  0  0  0  0
   -3.8792    4.5736   -0.0924 C   0  0  0  0  0  0  0  0  0  0  0  0
   -1.8864    3.0523    0.4395 C   0  0  0  0  0  0  0  0  0  0  0  0
   -2.0823    1.9888   -0.6730 C   0  0  0  0  0  0  0  0  0  0  0  0
   -2.6626    0.6628   -0.1428 C   0  0  0  0  0  0  0  0  0  0  0  0
   -2.6405   -0.3209   -1.1763 O   0  0  0  0  0  0  0  0  0  0  0  0
   -3.4456   -1.4681   -1.1703 C   0  0  0  0  0  0  0  0  0  0  0  0
   -4.2147   -1.7264   -2.3121 C   0  0  0  0  0  0  0  0  0  0  0  0
   -5.0820   -2.8192   -2.3538 C   0  0  0  0  0  0  0  0  0  0  0  0
   -5.1831   -3.6731   -1.2528 C   0  0  0  0  0  0  0  0  0  0  0  0
   -6.2683   -5.0491   -1.3121 Cl  0  0  0  0  0  0  0  0  0  0  0  0
   -4.4003   -3.4462   -0.1173 C   0  0  0  0  0  0  0  0  0  0  0  0
   -3.5093   -2.3606   -0.0720 C   0  0  0  0  0  0  0  0  0  0  0  0
   -2.5912   -2.2629    1.0774 C   0  0  0  0  0  0  0  0  0  0  0  0
   -3.0689   -2.0485    2.2254 O   0  0  0  0  0  0  0  0  0  0  0  0
   -1.1795   -2.4943    0.9334 N   0  0  0  0  0  0  0  0  0  0  0  0
   -0.5611   -2.8338   -0.3519 C   0  0  0  0  0  0  0  0  0  0  0  0
    0.9102   -3.2679   -0.2052 C   0  0  0  0  0  0  0  0  0  0  0  0
    1.8450   -2.1853    0.3663 C   0  0  0  0  0  0  0  0  0  0  0  0
    2.0555   -0.9821   -0.5708 C   0  0  0  0  0  0  0  0  0  0  0  0
    2.0878    0.2622    0.2129 N   0  0  0  0  0  0  0  0  0  0  0  0
    3.2366    0.5779    1.0355 C   0  0  0  0  0  0  0  0  0  0  0  0
    3.0865    1.2178    2.1138 O   0  0  0  0  0  0  0  0  0  0  0  0
    4.5879    0.1212    0.6686 C   0  0  0  0  0  0  0  0  0  0  0  0
    5.3658   -0.6141    1.6074 C   0  0  0  0  0  0  0  0  0  0  0  0
    6.6747   -1.0235    1.2859 C   0  0  0  0  0  0  0  0  0  0  0  0
    7.1708   -0.6527    0.0369 C   0  0  0  0  0  0  0  0  0  0  0  0
    8.3807   -0.8612   -0.4985 N   0  0  0  0  0  0  0  0  0  0  0  0
    8.3771   -0.2715   -1.6906 N   0  0  0  0  0  0  0  0  0  0  0  0
    7.2029    0.3085   -1.9406 N   0  0  0  0  0  0  0  0  0  0  0  0
    6.4410    0.0615   -0.8571 C   0  0  0  0  0  0  0  0  0  0  0  0
    5.1369    0.4679   -0.5912 C   0  0  0  0  0  0  0  0  0  0  0  0
    0.8330    1.0163    0.3676 C   0  0  0  0  0  0  0  0  0  0  0  0
    0.4939    1.7378   -0.9034 C   0  0  0  0  0  0  0  0  0  0  0  0
    1.4199    2.3208   -1.5299 O   0  0  0  0  0  0  0  0  0  0  0  0
   -0.8423    1.7778   -1.4410 N   0  0  0  0  0  0  0  0  0  0  0  0
   -2.1962    5.3326    1.9987 H   0  0  0  0  0  0  0  0  0  0  0  0
   -3.8506    4.9574    2.6271 H   0  0  0  0  0  0  0  0  0  0  0  0
   -2.4794    3.8654    3.0191 H   0  0  0  0  0  0  0  0  0  0  0  0
   -3.9127    2.8794    1.2518 H   0  0  0  0  0  0  0  0  0  0  0  0
   -4.7083    5.1574    0.3617 H   0  0  0  0  0  0  0  0  0  0  0  0
   -3.1488    5.2819   -0.5398 H   0  0  0  0  0  0  0  0  0  0  0  0
   -4.3279    3.9570   -0.8982 H   0  0  0  0  0  0  0  0  0  0  0  0
   -1.2324    3.8660    0.0521 H   0  0  0  0  0  0  0  0  0  0  0  0
   -1.3503    2.5838    1.2927 H   0  0  0  0  0  0  0  0  0  0  0  0
   -2.8303    2.3788   -1.3962 H   0  0  0  0  0  0  0  0  0  0  0  0
   -2.1141    0.3086    0.7480 H   0  0  0  0  0  0  0  0  0  0  0  0
   -3.7157    0.8305    0.1687 H   0  0  0  0  0  0  0  0  0  0  0  0
   -4.1531   -1.0625   -3.1654 H   0  0  0  0  0  0  0  0  0  0  0  0
   -5.6789   -2.9990   -3.2392 H   0  0  0  0  0  0  0  0  0  0  0  0
   -4.4590   -4.1375    0.7165 H   0  0  0  0  0  0  0  0  0  0  0  0
   -0.6140   -2.5243    1.8100 H   0  0  0  0  0  0  0  0  0  0  0  0
   -0.6480   -1.9743   -1.0435 H   0  0  0  0  0  0  0  0  0  0  0  0
   -1.1162   -3.6832   -0.8053 H   0  0  0  0  0  0  0  0  0  0  0  0
    1.2913   -3.5896   -1.1980 H   0  0  0  0  0  0  0  0  0  0  0  0
    0.9525   -4.1541    0.4641 H   0  0  0  0  0  0  0  0  0  0  0  0
    2.8369   -2.6499    0.5659 H   0  0  0  0  0  0  0  0  0  0  0  0
    1.4654   -1.8454    1.3539 H   0  0  0  0  0  0  0  0  0  0  0  0
    2.9979   -1.1138   -1.1422 H   0  0  0  0  0  0  0  0  0  0  0  0
    1.2608   -0.9157   -1.3414 H   0  0  0  0  0  0  0  0  0  0  0  0
    4.9526   -0.8724    2.5773 H   0  0  0  0  0  0  0  0  0  0  0  0
    7.2796   -1.5855    1.9913 H   0  0  0  0  0  0  0  0  0  0  0  0
    9.1884   -1.3686   -0.0767 H   0  0  0  0  0  0  0  0  0  0  0  0
    4.5785    1.0499   -1.3155 H   0  0  0  0  0  0  0  0  0  0  0  0
    0.0365    0.3078    0.6357 H   0  0  0  0  0  0  0  0  0  0  0  0
    0.9053    1.7620    1.1835 H   0  0  0  0  0  0  0  0  0  0  0  0
   -0.9029    1.9750   -2.4647 H   0  0  0  0  0  0  0  0  0  0  0  0
  1  2  1  0
  2  3  1  0
  2  4  1  0
  4  5  1  0
  5  6  1  0
  6  7  1  0
  7  8  1  0
  8  9  2  0
  9 10  1  0
 10 11  2  0
 11 12  1  0
 11 13  1  0
 13 14  2  0
 14 15  1  0
 15 16  2  0
 15 17  1  0
 17 18  1  0
 18 19  1  0
 19 20  1  0
 20 21  1  0
 21 22  1  0
 22 23  1  0
 23 24  2  0
 23 25  1  0
 25 26  2  0
 26 27  1  0
 27 28  2  0
 28 29  1  0
 29 30  1  0
 30 31  2  0
 31 32  1  0
 32 33  2  0
 22 34  1  0
 34 35  1  0
 35 36  2  0
 35 37  1  0
 37  5  1  0
 14  8  1  0
 33 25  1  0
 32 28  1  0
  1 38  1  0
  1 39  1  0
  1 40  1  0
  2 41  1  0
  3 42  1  0
  3 43  1  0
  3 44  1  0
  4 45  1  0
  4 46  1  0
  5 47  1  0
  6 48  1  0
  6 49  1  0
  9 50  1  0
 10 51  1  0
 13 52  1  0
 17 53  1  0
 18 54  1  0
 18 55  1  0
 19 56  1  0
 19 57  1  0
 20 58  1  0
 20 59  1  0
 21 60  1  0
 21 61  1  0
 26 62  1  0
 27 63  1  0
 29 64  1  0
 33 65  1  0
 34 66  1  0
 34 67  1  0
 37 68  1  0
M  END
$$$$
