
     RDKit          3D

 71 73  0  0  0  0  0  0  0  0999 V2000
    4.9779   -0.7119    2.5016 C   0  0  0  0  0  0  0  0  0  0  0  0
    4.3989    0.1797    1.4015 C   0  0  0  0  0  0  0  0  0  0  0  0
    3.2948   -0.5621    0.5999 C   0  0  0  0  0  0  0  0  0  0  0  0
    3.1904   -0.0129   -0.7593 N   0  0  0  0  0  0  0  0  0  0  0  0
    1.9314    0.0862   -1.4638 C   0  0  0  0  0  0  0  0  0  0  0  0
    1.9306    0.0877   -2.7270 O   0  0  0  0  0  0  0  0  0  0  0  0
    0.6049    0.1665   -0.7380 C   0  0  0  0  0  0  0  0  0  0  0  0
    0.0622   -1.2582   -0.4805 C   0  0  0  0  0  0  0  0  0  0  0  0
   -0.8899   -1.3095    0.6903 C   0  0  0  0  0  0  0  0  0  0  0  0
   -0.4329   -1.0249    1.8300 O   0  0  0  0  0  0  0  0  0  0  0  0
   -2.2718   -1.7100    0.5913 N   0  0  0  0  0  0  0  0  0  0  0  0
   -3.0120   -2.0416   -0.6353 C   0  0  0  0  0  0  0  0  0  0  0  0
   -3.0292   -3.5881   -0.8609 C   0  0  0  0  0  0  0  0  0  0  0  0
   -1.6515   -4.1341   -1.2544 C   0  0  0  0  0  0  0  0  0  0  0  0
   -3.5632   -4.3599    0.3592 C   0  0  0  0  0  0  0  0  0  0  0  0
   -4.4233   -1.4659   -0.5515 C   0  0  0  0  0  0  0  0  0  0  0  0
   -5.3936   -2.1243   -1.0178 O   0  0  0  0  0  0  0  0  0  0  0  0
   -4.6808   -0.1627    0.0120 N   0  0  0  0  0  0  0  0  0  0  0  0
   -5.9313    0.0583    0.7411 C   0  0  0  0  0  0  0  0  0  0  0  0
   -3.7758    0.9677   -0.2266 C   0  0  0  0  0  0  0  0  0  0  0  0
   -3.0675    1.3997    1.0649 C   0  0  0  0  0  0  0  0  0  0  0  0
   -1.6843    1.5945    0.7914 O   0  0  0  0  0  0  0  0  0  0  0  0
   -1.0663    2.8449    0.7429 C   0  0  0  0  0  0  0  0  0  0  0  0
   -1.1602    3.7190    1.8372 C   0  0  0  0  0  0  0  0  0  0  0  0
   -0.5283    4.9632    1.8011 C   0  0  0  0  0  0  0  0  0  0  0  0
    0.1963    5.3456    0.6717 C   0  0  0  0  0  0  0  0  0  0  0  0
    0.2904    4.4854   -0.4253 C   0  0  0  0  0  0  0  0  0  0  0  0
   -0.3290    3.2226   -0.3999 C   0  0  0  0  0  0  0  0  0  0  0  0
   -0.2917    2.3689   -1.6134 C   0  0  0  0  0  0  0  0  0  0  0  0
   -0.2442    2.9169   -2.7478 O   0  0  0  0  0  0  0  0  0  0  0  0
   -0.3516    0.9370   -1.5425 N   0  0  0  0  0  0  0  0  0  0  0  0
    4.4341    0.2225   -1.5038 C   0  0  0  0  0  0  0  0  0  0  0  0
    5.6548    0.0215   -0.5914 C   0  0  0  0  0  0  0  0  0  0  0  0
    6.9259    0.5317   -1.2671 C   0  0  0  0  0  0  0  0  0  0  0  0
    5.4569    0.7268    0.6180 O   0  0  0  0  0  0  0  0  0  0  0  0
    4.1671   -1.0783    3.1661 H   0  0  0  0  0  0  0  0  0  0  0  0
    5.5040   -1.5842    2.0589 H   0  0  0  0  0  0  0  0  0  0  0  0
    5.7005   -0.1329    3.1137 H   0  0  0  0  0  0  0  0  0  0  0  0
    3.9039    1.0395    1.9047 H   0  0  0  0  0  0  0  0  0  0  0  0
    3.5368   -1.6444    0.5168 H   0  0  0  0  0  0  0  0  0  0  0  0
    2.3436   -0.4895    1.1614 H   0  0  0  0  0  0  0  0  0  0  0  0
    0.7646    0.6976    0.2229 H   0  0  0  0  0  0  0  0  0  0  0  0
   -0.3800   -1.6578   -1.4093 H   0  0  0  0  0  0  0  0  0  0  0  0
    0.9030   -1.9441   -0.2369 H   0  0  0  0  0  0  0  0  0  0  0  0
   -2.7842   -1.8244    1.4964 H   0  0  0  0  0  0  0  0  0  0  0  0
   -2.5438   -1.5572   -1.5154 H   0  0  0  0  0  0  0  0  0  0  0  0
   -3.7008   -3.8082   -1.7203 H   0  0  0  0  0  0  0  0  0  0  0  0
   -1.2968   -3.6455   -2.1857 H   0  0  0  0  0  0  0  0  0  0  0  0
   -1.7178   -5.2244   -1.4562 H   0  0  0  0  0  0  0  0  0  0  0  0
   -0.9130   -3.9765   -0.4413 H   0  0  0  0  0  0  0  0  0  0  0  0
   -3.6880   -5.4337    0.1023 H   0  0  0  0  0  0  0  0  0  0  0  0
   -4.5517   -3.9686    0.6779 H   0  0  0  0  0  0  0  0  0  0  0  0
   -2.8589   -4.2856    1.2155 H   0  0  0  0  0  0  0  0  0  0  0  0
   -5.9992    1.1042    1.1119 H   0  0  0  0  0  0  0  0  0  0  0  0
   -5.9801   -0.6253    1.6147 H   0  0  0  0  0  0  0  0  0  0  0  0
   -6.7976   -0.1326    0.0738 H   0  0  0  0  0  0  0  0  0  0  0  0
   -4.3527    1.8250   -0.6366 H   0  0  0  0  0  0  0  0  0  0  0  0
   -3.0333    0.7026   -1.0079 H   0  0  0  0  0  0  0  0  0  0  0  0
   -3.5379    2.3249    1.4640 H   0  0  0  0  0  0  0  0  0  0  0  0
   -3.1585    0.6160    1.8454 H   0  0  0  0  0  0  0  0  0  0  0  0
   -1.7105    3.4280    2.7230 H   0  0  0  0  0  0  0  0  0  0  0  0
   -0.5991    5.6315    2.6493 H   0  0  0  0  0  0  0  0  0  0  0  0
    0.6823    6.3123    0.6449 H   0  0  0  0  0  0  0  0  0  0  0  0
    0.8490    4.8067   -1.2952 H   0  0  0  0  0  0  0  0  0  0  0  0
   -0.7876    0.4544   -2.3616 H   0  0  0  0  0  0  0  0  0  0  0  0
    4.4986   -0.4802   -2.3632 H   0  0  0  0  0  0  0  0  0  0  0  0
    4.4239    1.2654   -1.8924 H   0  0  0  0  0  0  0  0  0  0  0  0
    5.8008   -1.0661   -0.3914 H   0  0  0  0  0  0  0  0  0  0  0  0
    6.8497    1.6224   -1.4665 H   0  0  0  0  0  0  0  0  0  0  0  0
    7.7998    0.3522   -0.6056 H   0  0  0  0  0  0  0  0  0  0  0  0
    7.0932   -0.0036   -2.2263 H   0  0  0  0  0  0  0  0  0  0  0  0
  1  2  1  0
  2  3  1  0
  3  4  1  0
  4  5  1  0
  5  6  2  0
  5  7  1  0
  7  8  1  0
  8  9  1  0
  9 10  2  0
  9 11  1  0
 11 12  1  0
 12 13  1  0
 13 14  1  0
 13 15  1  0
 12 16  1  0
 16 17  2  0
 16 18  1  0
 18 19  1  0
 18 20  1  0
 20 21  1  0
 21 22  1  0
 22 23  1  0
 23 24  2  0
 24 25  1  0
 25 26  2  0
 26 27  1  0
 27 28  2  0
 28 29  1  0
 29 30  2  0
 29 31  1  0
  4 32  1  0
 32 33  1  0
 33 34  1  0
 33 35  1  0
 35  2  1  0
 31  7  1  0
 28 23  1  0
  1 36  1  0
  1 37  1  0
  1 38  1  0
  2 39  1  0
  3 40  1  0
  3 41  1  0
  7 42  1  0
  8 43  1  0
  8 44  1  0
 11 45  1  0
 12 46  1  0
 13 47  1  0
 14 48  1  0
 14 49  1  0
 14 50  1  0
 15 51  1  0
 15 52  1  0
 15 53  1  0
 19 54  1  0
 19 55  1  0
 19 56  1  0
 20 57  1  0
 20 58  1  0
 21 59  1  0
 21 60  1  0
 24 61  1  0
 25 62  1  0
 26 63  1  0
 27 64  1  0
 31 65  1  0
 32 66  1  0
 32 67  1  0
 33 68  1  0
 34 69  1  0
 34 70  1  0
 34 71  1  0
M  END
$$$$
