
     RDKit          3D

 68 71  0  0  0  0  0  0  0  0999 V2000
   -3.1245   -1.7613    3.8748 C   0  0  0  0  0  0  0  0  0  0  0  0
   -3.3012   -1.5410    2.4447 N   0  0  0  0  0  0  0  0  0  0  0  0
   -2.3639   -0.7696    1.6766 C   0  0  0  0  0  0  0  0  0  0  0  0
   -1.3455   -0.2916    2.2514 O   0  0  0  0  0  0  0  0  0  0  0  0
   -2.5741   -0.5914    0.1690 C   0  0  0  0  0  0  0  0  0  0  0  0
   -2.5418   -2.0443   -0.4875 C   0  0  0  0  0  0  0  0  0  0  0  0
   -1.6351   -2.3378   -1.7348 C   0  0  0  0  0  0  0  0  0  0  0  0
   -0.1009   -2.4400   -1.4582 C   0  0  0  0  0  0  0  0  0  0  0  0
    0.7572   -1.4323   -2.2888 C   0  0  0  0  0  0  0  0  0  0  0  0
    1.9528   -0.9812   -1.5405 N   0  0  0  0  0  0  0  0  0  0  0  0
    2.9936   -1.9520   -1.2940 C   0  0  0  0  0  0  0  0  0  0  0  0
    3.2504   -2.8239   -2.1691 O   0  0  0  0  0  0  0  0  0  0  0  0
    3.7247   -1.9883   -0.0051 C   0  0  0  0  0  0  0  0  0  0  0  0
    3.0020   -1.8784    1.1936 C   0  0  0  0  0  0  0  0  0  0  0  0
    3.6548   -1.9691    2.4213 C   0  0  0  0  0  0  0  0  0  0  0  0
    5.0326   -2.1707    2.4480 C   0  0  0  0  0  0  0  0  0  0  0  0
    5.7280   -2.2647    1.2857 N   0  0  0  0  0  0  0  0  0  0  0  0
    5.1254   -2.1812    0.0675 C   0  0  0  0  0  0  0  0  0  0  0  0
    5.9404   -2.2442   -1.1071 N   0  0  0  0  0  0  0  0  0  0  0  0
    2.0702    0.3779   -0.9416 C   0  0  0  0  0  0  0  0  0  0  0  0
    1.8117    1.5442   -1.9299 C   0  0  0  0  0  0  0  0  0  0  0  0
    0.6081    2.2744   -1.6335 O   0  0  0  0  0  0  0  0  0  0  0  0
    0.3564    3.1065   -0.5236 C   0  0  0  0  0  0  0  0  0  0  0  0
    1.3913    3.4178    0.3807 C   0  0  0  0  0  0  0  0  0  0  0  0
    1.1625    4.2637    1.4652 C   0  0  0  0  0  0  0  0  0  0  0  0
   -0.0968    4.8226    1.6638 C   0  0  0  0  0  0  0  0  0  0  0  0
   -1.1403    4.5264    0.7882 C   0  0  0  0  0  0  0  0  0  0  0  0
   -0.9476    3.6596   -0.3017 C   0  0  0  0  0  0  0  0  0  0  0  0
   -2.1483    3.3862   -1.1534 C   0  0  0  0  0  0  0  0  0  0  0  0
   -2.7095    4.3506   -1.7379 O   0  0  0  0  0  0  0  0  0  0  0  0
   -2.7705    2.0856   -1.2065 N   0  0  0  0  0  0  0  0  0  0  0  0
   -3.8376    1.7195   -0.2436 C   0  0  0  0  0  0  0  0  0  0  0  0
   -3.9622    0.1598   -0.0533 C   0  0  0  0  0  0  0  0  0  0  0  0
   -1.9775    0.9842   -1.6978 C   0  0  0  0  0  0  0  0  0  0  0  0
   -1.4618    0.2963   -0.4277 C   0  0  0  0  0  0  0  0  0  0  0  0
   -3.1465   -0.7889    4.4108 H   0  0  0  0  0  0  0  0  0  0  0  0
   -2.1538   -2.2679    4.0618 H   0  0  0  0  0  0  0  0  0  0  0  0
   -3.9439   -2.4040    4.2614 H   0  0  0  0  0  0  0  0  0  0  0  0
   -4.1145   -1.9927    1.9696 H   0  0  0  0  0  0  0  0  0  0  0  0
   -3.5783   -2.3299   -0.7658 H   0  0  0  0  0  0  0  0  0  0  0  0
   -2.2554   -2.8051    0.2721 H   0  0  0  0  0  0  0  0  0  0  0  0
   -1.8576   -1.6542   -2.5730 H   0  0  0  0  0  0  0  0  0  0  0  0
   -1.9537   -3.3314   -2.1201 H   0  0  0  0  0  0  0  0  0  0  0  0
    0.0979   -2.3207   -0.3717 H   0  0  0  0  0  0  0  0  0  0  0  0
    0.2461   -3.4679   -1.7011 H   0  0  0  0  0  0  0  0  0  0  0  0
    1.0708   -1.9179   -3.2381 H   0  0  0  0  0  0  0  0  0  0  0  0
    0.1612   -0.5602   -2.6105 H   0  0  0  0  0  0  0  0  0  0  0  0
    1.9282   -1.7383    1.1802 H   0  0  0  0  0  0  0  0  0  0  0  0
    3.0957   -1.8851    3.3449 H   0  0  0  0  0  0  0  0  0  0  0  0
    5.5523   -2.2414    3.3939 H   0  0  0  0  0  0  0  0  0  0  0  0
    6.9497   -2.5008   -1.0231 H   0  0  0  0  0  0  0  0  0  0  0  0
    5.5843   -1.9617   -2.0461 H   0  0  0  0  0  0  0  0  0  0  0  0
    1.4307    0.4609   -0.0420 H   0  0  0  0  0  0  0  0  0  0  0  0
    3.1044    0.5208   -0.5589 H   0  0  0  0  0  0  0  0  0  0  0  0
    2.6727    2.2470   -1.9320 H   0  0  0  0  0  0  0  0  0  0  0  0
    1.7412    1.1539   -2.9660 H   0  0  0  0  0  0  0  0  0  0  0  0
    2.3849    3.0128    0.2523 H   0  0  0  0  0  0  0  0  0  0  0  0
    1.9678    4.4913    2.1507 H   0  0  0  0  0  0  0  0  0  0  0  0
   -0.2675    5.4834    2.5037 H   0  0  0  0  0  0  0  0  0  0  0  0
   -2.1143    4.9640    0.9725 H   0  0  0  0  0  0  0  0  0  0  0  0
   -4.8072    2.1266   -0.6004 H   0  0  0  0  0  0  0  0  0  0  0  0
   -3.6141    2.1768    0.7454 H   0  0  0  0  0  0  0  0  0  0  0  0
   -4.6768   -0.0376    0.7733 H   0  0  0  0  0  0  0  0  0  0  0  0
   -4.4561   -0.2354   -0.9671 H   0  0  0  0  0  0  0  0  0  0  0  0
   -2.6322    0.3273   -2.3029 H   0  0  0  0  0  0  0  0  0  0  0  0
   -1.2218    1.3078   -2.4252 H   0  0  0  0  0  0  0  0  0  0  0  0
   -0.5365   -0.2239   -0.5494 H   0  0  0  0  0  0  0  0  0  0  0  0
   -1.1809    1.0801    0.3055 H   0  0  0  0  0  0  0  0  0  0  0  0
  1  2  1  0
  2  3  1  0
  3  4  2  0
  3  5  1  0
  5  6  1  0
  6  7  1  0
  7  8  1  0
  8  9  1  0
  9 10  1  0
 10 11  1  0
 11 12  2  0
 11 13  1  0
 13 14  2  0
 14 15  1  0
 15 16  2  0
 16 17  1  0
 17 18  2  0
 18 19  1  0
 10 20  1  0
 20 21  1  0
 21 22  1  0
 22 23  1  0
 23 24  2  0
 24 25  1  0
 25 26  2  0
 26 27  1  0
 27 28  2  0
 28 29  1  0
 29 30  2  0
 29 31  1  0
 31 32  1  0
 32 33  1  0
 31 34  1  0
 34 35  1  0
 33  5  1  0
 35  5  1  0
 18 13  1  0
 28 23  1  0
  1 36  1  0
  1 37  1  0
  1 38  1  0
  2 39  1  0
  6 40  1  0
  6 41  1  0
  7 42  1  0
  7 43  1  0
  8 44  1  0
  8 45  1  0
  9 46  1  0
  9 47  1  0
 14 48  1  0
 15 49  1  0
 16 50  1  0
 19 51  1  0
 19 52  1  0
 20 53  1  0
 20 54  1  0
 21 55  1  0
 21 56  1  0
 24 57  1  0
 25 58  1  0
 26 59  1  0
 27 60  1  0
 32 61  1  0
 32 62  1  0
 33 63  1  0
 33 64  1  0
 34 65  1  0
 34 66  1  0
 35 67  1  0
 35 68  1  0
M  END
$$$$
