
     RDKit          3D

 69 73  0  0  0  0  0  0  0  0999 V2000
   -4.3155   -0.4787   -3.4981 C   0  0  0  0  0  0  0  0  0  0  0  0
   -3.0310   -1.3073   -3.4369 C   0  0  0  0  0  0  0  0  0  0  0  0
   -2.4218   -1.2380   -2.0994 N   0  0  0  0  0  0  0  0  0  0  0  0
   -2.9801   -2.0885   -1.0271 C   0  0  0  0  0  0  0  0  0  0  0  0
   -4.0430   -1.3706   -0.1699 C   0  0  0  0  0  0  0  0  0  0  0  0
   -4.0081    0.0426   -0.3586 O   0  0  0  0  0  0  0  0  0  0  0  0
   -4.8190    0.9377    0.3567 C   0  0  0  0  0  0  0  0  0  0  0  0
   -6.1192    0.5906    0.7804 C   0  0  0  0  0  0  0  0  0  0  0  0
   -6.8893    1.5003    1.5090 C   0  0  0  0  0  0  0  0  0  0  0  0
   -6.3679    2.7529    1.8412 C   0  0  0  0  0  0  0  0  0  0  0  0
   -5.0834    3.1075    1.4226 C   0  0  0  0  0  0  0  0  0  0  0  0
   -4.3148    2.2162    0.6562 C   0  0  0  0  0  0  0  0  0  0  0  0
   -2.9223    2.5951    0.2339 C   0  0  0  0  0  0  0  0  0  0  0  0
   -1.8658    2.0781    1.2403 C   0  0  0  0  0  0  0  0  0  0  0  0
   -0.6026    1.5474    0.5307 C   0  0  0  0  0  0  0  0  0  0  0  0
   -0.5348   -0.0034    0.4613 C   0  0  0  0  0  0  0  0  0  0  0  0
   -0.1608   -0.5996   -0.9404 C   0  0  0  0  0  0  0  0  0  0  0  0
    1.1497    0.0161   -1.5088 C   0  0  0  0  0  0  0  0  0  0  0  0
    2.2883   -0.4406   -0.7106 N   0  0  0  0  0  0  0  0  0  0  0  0
    3.2405    0.4946   -0.1466 C   0  0  0  0  0  0  0  0  0  0  0  0
    2.9044    1.6997    0.0363 O   0  0  0  0  0  0  0  0  0  0  0  0
    4.6163    0.0927    0.1996 C   0  0  0  0  0  0  0  0  0  0  0  0
    5.3806   -0.6851   -0.6919 C   0  0  0  0  0  0  0  0  0  0  0  0
    6.6916   -1.0610   -0.3724 C   0  0  0  0  0  0  0  0  0  0  0  0
    7.2568   -0.6528    0.8420 C   0  0  0  0  0  0  0  0  0  0  0  0
    8.5262   -1.0310    1.1706 N   0  0  0  0  0  0  0  0  0  0  0  0
    9.0739   -0.7321    2.3775 C   0  0  0  0  0  0  0  0  0  0  0  0
    8.3252   -0.0319    3.3269 C   0  0  0  0  0  0  0  0  0  0  0  0
    7.0376    0.4147    3.0050 C   0  0  0  0  0  0  0  0  0  0  0  0
    6.4927    0.1173    1.7524 C   0  0  0  0  0  0  0  0  0  0  0  0
    5.1963    0.5312    1.4073 C   0  0  0  0  0  0  0  0  0  0  0  0
    2.4244   -1.8892   -0.5581 C   0  0  0  0  0  0  0  0  0  0  0  0
    1.0823   -2.4762   -0.1111 C   0  0  0  0  0  0  0  0  0  0  0  0
   -0.0017   -2.0188   -0.9043 O   0  0  0  0  0  0  0  0  0  0  0  0
   -1.3198   -0.3110   -1.8937 C   0  0  0  0  0  0  0  0  0  0  0  0
   -1.3178    0.7734   -2.5434 O   0  0  0  0  0  0  0  0  0  0  0  0
   -4.7240   -0.5045   -4.5279 H   0  0  0  0  0  0  0  0  0  0  0  0
   -5.0870   -0.8949   -2.8142 H   0  0  0  0  0  0  0  0  0  0  0  0
   -4.1042    0.5780   -3.2246 H   0  0  0  0  0  0  0  0  0  0  0  0
   -2.3140   -0.9518   -4.2125 H   0  0  0  0  0  0  0  0  0  0  0  0
   -3.2575   -2.3674   -3.6936 H   0  0  0  0  0  0  0  0  0  0  0  0
   -2.1835   -2.4993   -0.3706 H   0  0  0  0  0  0  0  0  0  0  0  0
   -3.4569   -2.9897   -1.4773 H   0  0  0  0  0  0  0  0  0  0  0  0
   -5.0589   -1.7831   -0.4051 H   0  0  0  0  0  0  0  0  0  0  0  0
   -3.8189   -1.5830    0.9079 H   0  0  0  0  0  0  0  0  0  0  0  0
   -6.5554   -0.3657    0.5285 H   0  0  0  0  0  0  0  0  0  0  0  0
   -7.8877    1.2307    1.8282 H   0  0  0  0  0  0  0  0  0  0  0  0
   -6.9545    3.4532    2.4301 H   0  0  0  0  0  0  0  0  0  0  0  0
   -4.6866    4.0730    1.7027 H   0  0  0  0  0  0  0  0  0  0  0  0
   -2.7491    2.1963   -0.7883 H   0  0  0  0  0  0  0  0  0  0  0  0
   -2.8380    3.7077    0.1304 H   0  0  0  0  0  0  0  0  0  0  0  0
   -1.5790    2.9244    1.9067 H   0  0  0  0  0  0  0  0  0  0  0  0
   -2.2838    1.2958    1.9192 H   0  0  0  0  0  0  0  0  0  0  0  0
    0.2878    1.9049    1.0852 H   0  0  0  0  0  0  0  0  0  0  0  0
   -0.5239    2.0191   -0.4587 H   0  0  0  0  0  0  0  0  0  0  0  0
   -1.4968   -0.4524    0.7786 H   0  0  0  0  0  0  0  0  0  0  0  0
    0.2000   -0.3108    1.2254 H   0  0  0  0  0  0  0  0  0  0  0  0
    1.2889   -0.3245   -2.5621 H   0  0  0  0  0  0  0  0  0  0  0  0
    1.1120    1.1210   -1.5511 H   0  0  0  0  0  0  0  0  0  0  0  0
    4.9684   -0.9996   -1.6434 H   0  0  0  0  0  0  0  0  0  0  0  0
    7.2645   -1.6750   -1.0609 H   0  0  0  0  0  0  0  0  0  0  0  0
   10.0706   -1.0729    2.6220 H   0  0  0  0  0  0  0  0  0  0  0  0
    8.7443    0.1827    4.2973 H   0  0  0  0  0  0  0  0  0  0  0  0
    6.4586    0.9629    3.7404 H   0  0  0  0  0  0  0  0  0  0  0  0
    4.6169    1.1372    2.1006 H   0  0  0  0  0  0  0  0  0  0  0  0
    2.7386   -2.3327   -1.5347 H   0  0  0  0  0  0  0  0  0  0  0  0
    3.1911   -2.1576    0.2095 H   0  0  0  0  0  0  0  0  0  0  0  0
    1.1541   -3.5784   -0.2382 H   0  0  0  0  0  0  0  0  0  0  0  0
    0.8955   -2.3113    0.9722 H   0  0  0  0  0  0  0  0  0  0  0  0
  1  2  1  0
  2  3  1  0
  3  4  1  0
  4  5  1  0
  5  6  1  0
  6  7  1  0
  7  8  2  0
  8  9  1  0
  9 10  2  0
 10 11  1  0
 11 12  2  0
 12 13  1  0
 13 14  1  0
 14 15  1  0
 15 16  1  0
 16 17  1  0
 17 18  1  0
 18 19  1  0
 19 20  1  0
 20 21  2  0
 20 22  1  0
 22 23  2  0
 23 24  1  0
 24 25  2  0
 25 26  1  0
 26 27  2  0
 27 28  1  0
 28 29  2  0
 29 30  1  0
 30 31  2  0
 19 32  1  0
 32 33  1  0
 33 34  1  0
 17 35  1  0
 35 36  2  0
 35  3  1  0
 12  7  1  0
 34 17  1  0
 31 22  1  0
 30 25  1  0
  1 37  1  0
  1 38  1  0
  1 39  1  0
  2 40  1  0
  2 41  1  0
  4 42  1  0
  4 43  1  0
  5 44  1  0
  5 45  1  0
  8 46  1  0
  9 47  1  0
 10 48  1  0
 11 49  1  0
 13 50  1  0
 13 51  1  0
 14 52  1  0
 14 53  1  0
 15 54  1  0
 15 55  1  0
 16 56  1  0
 16 57  1  0
 18 58  1  0
 18 59  1  0
 23 60  1  0
 24 61  1  0
 27 62  1  0
 28 63  1  0
 29 64  1  0
 31 65  1  0
 32 66  1  0
 32 67  1  0
 33 68  1  0
 33 69  1  0
M  END
$$$$
