
     RDKit          3D

 84 87  0  0  0  0  0  0  0  0999 V2000
    6.4157    3.8440   -1.6408 C   0  0  0  0  0  0  0  0  0  0  0  0
    6.5160    2.3608   -1.4351 C   0  0  0  0  0  0  0  0  0  0  0  0
    7.7680    1.7340   -1.3583 C   0  0  0  0  0  0  0  0  0  0  0  0
    7.8525    0.3590   -1.1328 C   0  0  0  0  0  0  0  0  0  0  0  0
    6.6922   -0.3995   -0.9539 C   0  0  0  0  0  0  0  0  0  0  0  0
    5.4262    0.2157   -1.0163 C   0  0  0  0  0  0  0  0  0  0  0  0
    5.3513    1.5980   -1.2629 C   0  0  0  0  0  0  0  0  0  0  0  0
    4.1518   -0.5899   -0.8466 C   0  0  0  0  0  0  0  0  0  0  0  0
    3.4502   -0.1938    0.3818 N   0  0  0  0  0  0  0  0  0  0  0  0
    2.4789    0.8632    0.4232 C   0  0  0  0  0  0  0  0  0  0  0  0
    2.0026    1.3308   -0.6474 O   0  0  0  0  0  0  0  0  0  0  0  0
    2.1132    1.4789    1.7495 C   0  0  0  0  0  0  0  0  0  0  0  0
    0.7154    2.1168    1.7664 C   0  0  0  0  0  0  0  0  0  0  0  0
   -0.3835    1.0850    1.6725 C   0  0  0  0  0  0  0  0  0  0  0  0
   -0.7340    0.3275    2.7985 C   0  0  0  0  0  0  0  0  0  0  0  0
   -1.7554   -0.6209    2.7215 C   0  0  0  0  0  0  0  0  0  0  0  0
   -2.4440   -0.8328    1.5126 C   0  0  0  0  0  0  0  0  0  0  0  0
   -2.0843   -0.0836    0.3703 C   0  0  0  0  0  0  0  0  0  0  0  0
   -1.0556    0.8689    0.4603 C   0  0  0  0  0  0  0  0  0  0  0  0
   -2.8341   -0.2508   -0.9399 C   0  0  0  0  0  0  0  0  0  0  0  0
   -3.8869    0.7717   -1.2073 N   0  0  0  0  0  0  0  0  0  0  0  0
   -3.7629    1.5124   -2.4920 C   0  0  0  0  0  0  0  0  0  0  0  0
   -3.9349    0.5638   -3.6863 C   0  0  0  0  0  0  0  0  0  0  0  0
   -2.4647    2.3309   -2.6075 C   0  0  0  0  0  0  0  0  0  0  0  0
   -4.3372    1.6022   -0.0652 C   0  0  0  0  0  0  0  0  0  0  0  0
   -5.7587    2.0848   -0.2369 C   0  0  0  0  0  0  0  0  0  0  0  0
   -5.9587    3.3234   -0.3607 O   0  0  0  0  0  0  0  0  0  0  0  0
   -6.8955    1.1986   -0.2415 N   0  0  0  0  0  0  0  0  0  0  0  0
   -6.8219   -0.2568   -0.3684 C   0  0  0  0  0  0  0  0  0  0  0  0
   -6.5894   -0.9232    0.9929 C   0  0  0  0  0  0  0  0  0  0  0  0
   -6.1513   -2.3885    0.8149 C   0  0  0  0  0  0  0  0  0  0  0  0
   -5.5013   -2.9916    2.0709 C   0  0  0  0  0  0  0  0  0  0  0  0
   -4.2321   -2.2566    2.5357 C   0  0  0  0  0  0  0  0  0  0  0  0
   -3.4919   -1.7638    1.4205 O   0  0  0  0  0  0  0  0  0  0  0  0
    4.3988   -2.1186   -0.8737 C   0  0  0  0  0  0  0  0  0  0  0  0
    5.7363   -2.5693   -0.2217 C   0  0  0  0  0  0  0  0  0  0  0  0
    5.7059   -2.4481    1.3141 C   0  0  0  0  0  0  0  0  0  0  0  0
    6.0090   -4.0354   -0.6010 C   0  0  0  0  0  0  0  0  0  0  0  0
    6.8102   -1.7733   -0.7207 O   0  0  0  0  0  0  0  0  0  0  0  0
    6.1769    4.3371   -0.6752 H   0  0  0  0  0  0  0  0  0  0  0  0
    5.6157    4.0768   -2.3745 H   0  0  0  0  0  0  0  0  0  0  0  0
    7.3691    4.2564   -2.0300 H   0  0  0  0  0  0  0  0  0  0  0  0
    8.6782    2.3093   -1.4692 H   0  0  0  0  0  0  0  0  0  0  0  0
    8.8240   -0.1135   -1.0774 H   0  0  0  0  0  0  0  0  0  0  0  0
    4.3887    2.0843   -1.3322 H   0  0  0  0  0  0  0  0  0  0  0  0
    3.4937   -0.3681   -1.7170 H   0  0  0  0  0  0  0  0  0  0  0  0
    3.7700   -0.5781    1.2946 H   0  0  0  0  0  0  0  0  0  0  0  0
    2.1772    0.7122    2.5543 H   0  0  0  0  0  0  0  0  0  0  0  0
    2.8623    2.2675    1.9781 H   0  0  0  0  0  0  0  0  0  0  0  0
    0.5966    2.6830    2.7168 H   0  0  0  0  0  0  0  0  0  0  0  0
    0.6286    2.8679    0.9498 H   0  0  0  0  0  0  0  0  0  0  0  0
   -0.2141    0.4698    3.7381 H   0  0  0  0  0  0  0  0  0  0  0  0
   -2.0051   -1.1862    3.6085 H   0  0  0  0  0  0  0  0  0  0  0  0
   -0.7858    1.4512   -0.4116 H   0  0  0  0  0  0  0  0  0  0  0  0
   -2.0786   -0.2895   -1.7508 H   0  0  0  0  0  0  0  0  0  0  0  0
   -3.3173   -1.2482   -0.9741 H   0  0  0  0  0  0  0  0  0  0  0  0
   -4.6012    2.2376   -2.5740 H   0  0  0  0  0  0  0  0  0  0  0  0
   -4.0449    1.1532   -4.6200 H   0  0  0  0  0  0  0  0  0  0  0  0
   -3.0592   -0.1069   -3.8096 H   0  0  0  0  0  0  0  0  0  0  0  0
   -4.8498   -0.0539   -3.5521 H   0  0  0  0  0  0  0  0  0  0  0  0
   -1.5683    1.6797   -2.6905 H   0  0  0  0  0  0  0  0  0  0  0  0
   -2.5121    2.9606   -3.5268 H   0  0  0  0  0  0  0  0  0  0  0  0
   -2.3455    3.0168   -1.7391 H   0  0  0  0  0  0  0  0  0  0  0  0
   -3.6574    2.4710    0.0667 H   0  0  0  0  0  0  0  0  0  0  0  0
   -4.3039    1.0413    0.8835 H   0  0  0  0  0  0  0  0  0  0  0  0
   -7.8417    1.6331   -0.2971 H   0  0  0  0  0  0  0  0  0  0  0  0
   -6.0364   -0.5320   -1.0973 H   0  0  0  0  0  0  0  0  0  0  0  0
   -7.7810   -0.6355   -0.7847 H   0  0  0  0  0  0  0  0  0  0  0  0
   -5.8245   -0.3598    1.5583 H   0  0  0  0  0  0  0  0  0  0  0  0
   -7.5284   -0.8838    1.5904 H   0  0  0  0  0  0  0  0  0  0  0  0
   -7.0442   -2.9929    0.5475 H   0  0  0  0  0  0  0  0  0  0  0  0
   -5.4347   -2.4805   -0.0288 H   0  0  0  0  0  0  0  0  0  0  0  0
   -6.2408   -3.0059    2.9000 H   0  0  0  0  0  0  0  0  0  0  0  0
   -5.2390   -4.0468    1.8452 H   0  0  0  0  0  0  0  0  0  0  0  0
   -4.5247   -1.4042    3.1885 H   0  0  0  0  0  0  0  0  0  0  0  0
   -3.6031   -2.9502    3.1351 H   0  0  0  0  0  0  0  0  0  0  0  0
    3.5411   -2.6497   -0.4080 H   0  0  0  0  0  0  0  0  0  0  0  0
    4.4131   -2.4282   -1.9429 H   0  0  0  0  0  0  0  0  0  0  0  0
    4.7692   -2.8746    1.7302 H   0  0  0  0  0  0  0  0  0  0  0  0
    5.8035   -1.3878    1.6231 H   0  0  0  0  0  0  0  0  0  0  0  0
    6.5679   -2.9887    1.7678 H   0  0  0  0  0  0  0  0  0  0  0  0
    6.9721   -4.3784   -0.1650 H   0  0  0  0  0  0  0  0  0  0  0  0
    6.0824   -4.1428   -1.7038 H   0  0  0  0  0  0  0  0  0  0  0  0
    5.1959   -4.6966   -0.2321 H   0  0  0  0  0  0  0  0  0  0  0  0
  1  2  1  0
  2  3  2  0
  3  4  1  0
  4  5  2  0
  5  6  1  0
  6  7  2  0
  6  8  1  0
  8  9  1  0
  9 10  1  0
 10 11  2  0
 10 12  1  0
 12 13  1  0
 13 14  1  0
 14 15  2  0
 15 16  1  0
 16 17  2  0
 17 18  1  0
 18 19  2  0
 18 20  1  0
 20 21  1  0
 21 22  1  0
 22 23  1  0
 22 24  1  0
 21 25  1  0
 25 26  1  0
 26 27  2  0
 26 28  1  0
 28 29  1  0
 29 30  1  0
 30 31  1  0
 31 32  1  0
 32 33  1  0
 33 34  1  0
  8 35  1  0
 35 36  1  0
 36 37  1  0
 36 38  1  0
 36 39  1  0
  7  2  1  0
 19 14  1  0
 39  5  1  0
 34 17  1  0
  1 40  1  0
  1 41  1  0
  1 42  1  0
  3 43  1  0
  4 44  1  0
  7 45  1  0
  8 46  1  0
  9 47  1  0
 12 48  1  0
 12 49  1  0
 13 50  1  0
 13 51  1  0
 15 52  1  0
 16 53  1  0
 19 54  1  0
 20 55  1  0
 20 56  1  0
 22 57  1  0
 23 58  1  0
 23 59  1  0
 23 60  1  0
 24 61  1  0
 24 62  1  0
 24 63  1  0
 25 64  1  0
 25 65  1  0
 28 66  1  0
 29 67  1  0
 29 68  1  0
 30 69  1  0
 30 70  1  0
 31 71  1  0
 31 72  1  0
 32 73  1  0
 32 74  1  0
 33 75  1  0
 33 76  1  0
 35 77  1  0
 35 78  1  0
 37 79  1  0
 37 80  1  0
 37 81  1  0
 38 82  1  0
 38 83  1  0
 38 84  1  0
M  END
$$$$
