
     RDKit          3D

 66 69  0  0  0  0  0  0  0  0999 V2000
    6.3920    1.6758    3.5325 C   0  0  0  0  0  0  0  0  0  0  0  0
    6.0927    1.3769    2.1014 C   0  0  0  0  0  0  0  0  0  0  0  0
    6.3231    2.2215    1.0326 C   0  0  0  0  0  0  0  0  0  0  0  0
    5.8201    1.5362   -0.0544 C   0  0  0  0  0  0  0  0  0  0  0  0
    5.7689    2.0698   -1.4528 C   0  0  0  0  0  0  0  0  0  0  0  0
    5.2985    0.3626    0.3739 N   0  0  0  0  0  0  0  0  0  0  0  0
    4.6151   -0.6579   -0.4215 C   0  0  0  0  0  0  0  0  0  0  0  0
    3.1807   -0.2784   -0.6554 C   0  0  0  0  0  0  0  0  0  0  0  0
    2.9185    0.6454   -1.4706 O   0  0  0  0  0  0  0  0  0  0  0  0
    2.1057   -0.9621    0.0134 N   0  0  0  0  0  0  0  0  0  0  0  0
    2.2095   -1.3826    1.4150 C   0  0  0  0  0  0  0  0  0  0  0  0
    1.0124   -0.8559    2.2125 C   0  0  0  0  0  0  0  0  0  0  0  0
   -0.3217   -1.1668    1.5112 C   0  0  0  0  0  0  0  0  0  0  0  0
   -0.3579   -0.7198    0.0159 C   0  0  0  0  0  0  0  0  0  0  0  0
   -1.6830   -1.2120   -0.6518 C   0  0  0  0  0  0  0  0  0  0  0  0
   -1.8062   -2.7105   -0.9816 C   0  0  0  0  0  0  0  0  0  0  0  0
   -3.2739   -3.1480   -1.1628 C   0  0  0  0  0  0  0  0  0  0  0  0
   -4.0123   -2.4582   -2.3383 C   0  0  0  0  0  0  0  0  0  0  0  0
   -5.0263   -1.3960   -1.8806 C   0  0  0  0  0  0  0  0  0  0  0  0
   -4.3464   -0.2046   -1.4941 O   0  0  0  0  0  0  0  0  0  0  0  0
   -4.8735    0.8059   -0.6727 C   0  0  0  0  0  0  0  0  0  0  0  0
   -6.2315    0.8384   -0.3033 C   0  0  0  0  0  0  0  0  0  0  0  0
   -6.6981    1.8190    0.5769 C   0  0  0  0  0  0  0  0  0  0  0  0
   -5.8197    2.7737    1.0940 C   0  0  0  0  0  0  0  0  0  0  0  0
   -4.4752    2.7652    0.7177 C   0  0  0  0  0  0  0  0  0  0  0  0
   -4.0020    1.7976   -0.1781 C   0  0  0  0  0  0  0  0  0  0  0  0
   -2.5921    1.8147   -0.5946 C   0  0  0  0  0  0  0  0  0  0  0  0
   -2.3113    2.0628   -1.7986 O   0  0  0  0  0  0  0  0  0  0  0  0
   -1.5536    1.4789    0.3383 N   0  0  0  0  0  0  0  0  0  0  0  0
   -0.3045    0.8440   -0.1002 C   0  0  0  0  0  0  0  0  0  0  0  0
    0.8793   -1.3085   -0.7115 C   0  0  0  0  0  0  0  0  0  0  0  0
    5.4572    0.2654    1.6847 N   0  0  0  0  0  0  0  0  0  0  0  0
    6.5879    0.7305    4.0816 H   0  0  0  0  0  0  0  0  0  0  0  0
    7.2882    2.3274    3.6075 H   0  0  0  0  0  0  0  0  0  0  0  0
    5.5229    2.1917    3.9921 H   0  0  0  0  0  0  0  0  0  0  0  0
    6.7760    3.2041    1.0476 H   0  0  0  0  0  0  0  0  0  0  0  0
    5.7418    1.2491   -2.1950 H   0  0  0  0  0  0  0  0  0  0  0  0
    6.6701    2.6856   -1.6527 H   0  0  0  0  0  0  0  0  0  0  0  0
    4.8705    2.7058   -1.5738 H   0  0  0  0  0  0  0  0  0  0  0  0
    5.1289   -0.7959   -1.3949 H   0  0  0  0  0  0  0  0  0  0  0  0
    4.6712   -1.6374    0.0995 H   0  0  0  0  0  0  0  0  0  0  0  0
    2.2378   -2.4936    1.4669 H   0  0  0  0  0  0  0  0  0  0  0  0
    3.1360   -0.9922    1.8842 H   0  0  0  0  0  0  0  0  0  0  0  0
    1.1184    0.2376    2.3709 H   0  0  0  0  0  0  0  0  0  0  0  0
    1.0142   -1.3273    3.2202 H   0  0  0  0  0  0  0  0  0  0  0  0
   -0.4850   -2.2616    1.5855 H   0  0  0  0  0  0  0  0  0  0  0  0
   -1.1449   -0.6845    2.0793 H   0  0  0  0  0  0  0  0  0  0  0  0
   -1.8233   -0.6647   -1.6088 H   0  0  0  0  0  0  0  0  0  0  0  0
   -2.5178   -0.9440    0.0309 H   0  0  0  0  0  0  0  0  0  0  0  0
   -1.2392   -2.9362   -1.9112 H   0  0  0  0  0  0  0  0  0  0  0  0
   -1.3731   -3.3242   -0.1663 H   0  0  0  0  0  0  0  0  0  0  0  0
   -3.8220   -3.0085   -0.2055 H   0  0  0  0  0  0  0  0  0  0  0  0
   -3.2656   -4.2430   -1.3543 H   0  0  0  0  0  0  0  0  0  0  0  0
   -3.2946   -2.0139   -3.0622 H   0  0  0  0  0  0  0  0  0  0  0  0
   -4.5800   -3.2375   -2.8935 H   0  0  0  0  0  0  0  0  0  0  0  0
   -5.6273   -1.7983   -1.0369 H   0  0  0  0  0  0  0  0  0  0  0  0
   -5.7110   -1.1553   -2.7220 H   0  0  0  0  0  0  0  0  0  0  0  0
   -6.9310    0.1095   -0.6881 H   0  0  0  0  0  0  0  0  0  0  0  0
   -7.7412    1.8347    0.8630 H   0  0  0  0  0  0  0  0  0  0  0  0
   -6.1819    3.5254    1.7819 H   0  0  0  0  0  0  0  0  0  0  0  0
   -3.8064    3.5203    1.1133 H   0  0  0  0  0  0  0  0  0  0  0  0
   -1.7813    1.4709    1.3581 H   0  0  0  0  0  0  0  0  0  0  0  0
    0.5354    1.2673    0.4860 H   0  0  0  0  0  0  0  0  0  0  0  0
   -0.0934    1.1306   -1.1531 H   0  0  0  0  0  0  0  0  0  0  0  0
    0.8174   -2.4164   -0.7551 H   0  0  0  0  0  0  0  0  0  0  0  0
    0.9184   -0.9486   -1.7635 H   0  0  0  0  0  0  0  0  0  0  0  0
  1  2  1  0
  2  3  1  0
  3  4  2  0
  4  5  1  0
  4  6  1  0
  6  7  1  0
  7  8  1  0
  8  9  2  0
  8 10  1  0
 10 11  1  0
 11 12  1  0
 12 13  1  0
 13 14  1  0
 14 15  1  0
 15 16  1  0
 16 17  1  0
 17 18  1  0
 18 19  1  0
 19 20  1  0
 20 21  1  0
 21 22  2  0
 22 23  1  0
 23 24  2  0
 24 25  1  0
 25 26  2  0
 26 27  1  0
 27 28  2  0
 27 29  1  0
 29 30  1  0
 14 31  1  0
  6 32  1  0
 32  2  2  0
 31 10  1  0
 30 14  1  0
 26 21  1  0
  1 33  1  0
  1 34  1  0
  1 35  1  0
  3 36  1  0
  5 37  1  0
  5 38  1  0
  5 39  1  0
  7 40  1  0
  7 41  1  0
 11 42  1  0
 11 43  1  0
 12 44  1  0
 12 45  1  0
 13 46  1  0
 13 47  1  0
 15 48  1  0
 15 49  1  0
 16 50  1  0
 16 51  1  0
 17 52  1  0
 17 53  1  0
 18 54  1  0
 18 55  1  0
 19 56  1  0
 19 57  1  0
 22 58  1  0
 23 59  1  0
 24 60  1  0
 25 61  1  0
 29 62  1  0
 30 63  1  0
 30 64  1  0
 31 65  1  0
 31 66  1  0
M  END
$$$$
