
     RDKit          3D

 84 86  0  0  0  0  0  0  0  0999 V2000
   -1.3703    1.2156    5.2974 C   0  0  0  0  0  0  0  0  0  0  0  0
   -0.8128    2.1984    4.4508 O   0  0  0  0  0  0  0  0  0  0  0  0
   -0.4894    1.6341    3.1934 C   0  0  0  0  0  0  0  0  0  0  0  0
   -1.6786    1.6461    2.2690 C   0  0  0  0  0  0  0  0  0  0  0  0
   -2.5829    2.5078    2.4454 O   0  0  0  0  0  0  0  0  0  0  0  0
   -1.7812    0.7159    1.1704 N   0  0  0  0  0  0  0  0  0  0  0  0
   -3.1129    0.2225    0.7653 C   0  0  0  0  0  0  0  0  0  0  0  0
   -3.2313   -1.3186    0.9316 C   0  0  0  0  0  0  0  0  0  0  0  0
   -4.4183   -1.6492    1.6376 O   0  0  0  0  0  0  0  0  0  0  0  0
   -4.1723   -1.6987    3.0260 C   0  0  0  0  0  0  0  0  0  0  0  0
   -3.2533   -2.0168   -0.4542 C   0  0  0  0  0  0  0  0  0  0  0  0
   -4.3797   -1.6459   -1.2154 O   0  0  0  0  0  0  0  0  0  0  0  0
   -3.1045   -3.5655   -0.3596 C   0  0  0  0  0  0  0  0  0  0  0  0
   -4.3512   -4.1990   -0.2023 O   0  0  0  0  0  0  0  0  0  0  0  0
   -2.3245   -4.1465   -1.5595 C   0  0  0  0  0  0  0  0  0  0  0  0
   -2.8499   -3.6351   -2.7707 O   0  0  0  0  0  0  0  0  0  0  0  0
   -1.8683   -3.5635   -3.7915 C   0  0  0  0  0  0  0  0  0  0  0  0
   -1.5740   -2.0932   -4.1303 C   0  0  0  0  0  0  0  0  0  0  0  0
   -0.5057   -1.4709   -3.2093 C   0  0  0  0  0  0  0  0  0  0  0  0
   -0.6782    0.0509   -3.0769 C   0  0  0  0  0  0  0  0  0  0  0  0
    0.1834    0.5828   -2.0045 N   0  0  0  0  0  0  0  0  0  0  0  0
    1.6160    0.4985   -2.1923 C   0  0  0  0  0  0  0  0  0  0  0  0
    2.0892    0.6235   -3.3558 O   0  0  0  0  0  0  0  0  0  0  0  0
    2.5343    0.2329   -1.0658 C   0  0  0  0  0  0  0  0  0  0  0  0
    3.8659    0.3170   -1.1998 C   0  0  0  0  0  0  0  0  0  0  0  0
    4.8136    0.0818   -0.0861 C   0  0  0  0  0  0  0  0  0  0  0  0
    6.1455   -0.2991   -0.3965 C   0  0  0  0  0  0  0  0  0  0  0  0
    7.0903   -0.5072    0.6252 C   0  0  0  0  0  0  0  0  0  0  0  0
    6.6786   -0.3125    1.9396 C   0  0  0  0  0  0  0  0  0  0  0  0
    5.4128    0.0645    2.2475 C   0  0  0  0  0  0  0  0  0  0  0  0
    4.4450    0.2746    1.2697 C   0  0  0  0  0  0  0  0  0  0  0  0
    5.2928    0.1993    3.6177 O   0  0  0  0  0  0  0  0  0  0  0  0
    6.5613   -0.1175    4.2070 C   0  0  0  0  0  0  0  0  0  0  0  0
    7.4167   -0.4389    3.1008 O   0  0  0  0  0  0  0  0  0  0  0  0
   -0.4485    1.3002   -0.8650 C   0  0  0  0  0  0  0  0  0  0  0  0
    0.2723    2.6266   -0.5121 C   0  0  0  0  0  0  0  0  0  0  0  0
    0.3825    3.6224   -1.6931 C   0  0  0  0  0  0  0  0  0  0  0  0
   -0.9925    4.1565   -2.1261 C   0  0  0  0  0  0  0  0  0  0  0  0
    1.2958    4.7928   -1.3043 C   0  0  0  0  0  0  0  0  0  0  0  0
   -0.5872    0.3765    0.3695 C   0  0  0  0  0  0  0  0  0  0  0  0
   -0.6237    0.4271    5.5393 H   0  0  0  0  0  0  0  0  0  0  0  0
   -1.6699    1.6964    6.2515 H   0  0  0  0  0  0  0  0  0  0  0  0
   -2.2809    0.7628    4.8488 H   0  0  0  0  0  0  0  0  0  0  0  0
    0.3056    2.2573    2.7348 H   0  0  0  0  0  0  0  0  0  0  0  0
   -0.0754    0.6023    3.2840 H   0  0  0  0  0  0  0  0  0  0  0  0
   -3.3221    0.5397   -0.2781 H   0  0  0  0  0  0  0  0  0  0  0  0
   -3.9062    0.7103    1.3727 H   0  0  0  0  0  0  0  0  0  0  0  0
   -2.3200   -1.6909    1.4616 H   0  0  0  0  0  0  0  0  0  0  0  0
   -3.7275   -0.7490    3.3963 H   0  0  0  0  0  0  0  0  0  0  0  0
   -3.5130   -2.5585    3.2783 H   0  0  0  0  0  0  0  0  0  0  0  0
   -5.1370   -1.8477    3.5530 H   0  0  0  0  0  0  0  0  0  0  0  0
   -2.3756   -1.6334   -1.0009 H   0  0  0  0  0  0  0  0  0  0  0  0
   -5.1936   -1.8491   -0.6872 H   0  0  0  0  0  0  0  0  0  0  0  0
   -2.5031   -3.8125    0.5427 H   0  0  0  0  0  0  0  0  0  0  0  0
   -4.8110   -4.1935   -1.0825 H   0  0  0  0  0  0  0  0  0  0  0  0
   -1.2500   -3.8959   -1.4079 H   0  0  0  0  0  0  0  0  0  0  0  0
   -2.4142   -5.2547   -1.5596 H   0  0  0  0  0  0  0  0  0  0  0  0
   -0.9267   -4.1251   -3.5820 H   0  0  0  0  0  0  0  0  0  0  0  0
   -2.3037   -4.0380   -4.6965 H   0  0  0  0  0  0  0  0  0  0  0  0
   -1.2139   -2.0259   -5.1810 H   0  0  0  0  0  0  0  0  0  0  0  0
   -2.5291   -1.5244   -4.0757 H   0  0  0  0  0  0  0  0  0  0  0  0
   -0.5400   -1.9173   -2.1998 H   0  0  0  0  0  0  0  0  0  0  0  0
    0.5002   -1.6990   -3.6215 H   0  0  0  0  0  0  0  0  0  0  0  0
   -1.7462    0.2707   -2.8641 H   0  0  0  0  0  0  0  0  0  0  0  0
   -0.4302    0.5439   -4.0421 H   0  0  0  0  0  0  0  0  0  0  0  0
    2.1168   -0.0689   -0.1220 H   0  0  0  0  0  0  0  0  0  0  0  0
    4.2879    0.5482   -2.1715 H   0  0  0  0  0  0  0  0  0  0  0  0
    6.4485   -0.4405   -1.4276 H   0  0  0  0  0  0  0  0  0  0  0  0
    8.1073   -0.8001    0.3966 H   0  0  0  0  0  0  0  0  0  0  0  0
    3.4573    0.6053    1.5602 H   0  0  0  0  0  0  0  0  0  0  0  0
    6.4621   -0.9931    4.8830 H   0  0  0  0  0  0  0  0  0  0  0  0
    6.9589    0.7628    4.7550 H   0  0  0  0  0  0  0  0  0  0  0  0
   -1.4783    1.5883   -1.1551 H   0  0  0  0  0  0  0  0  0  0  0  0
   -0.2749    3.1230    0.3182 H   0  0  0  0  0  0  0  0  0  0  0  0
    1.2878    2.4020   -0.1229 H   0  0  0  0  0  0  0  0  0  0  0  0
    0.8477    3.1171   -2.5661 H   0  0  0  0  0  0  0  0  0  0  0  0
   -0.8723    4.9433   -2.9009 H   0  0  0  0  0  0  0  0  0  0  0  0
   -1.5366    4.5908   -1.2605 H   0  0  0  0  0  0  0  0  0  0  0  0
   -1.6045    3.3486   -2.5759 H   0  0  0  0  0  0  0  0  0  0  0  0
    2.3122    4.4204   -1.0519 H   0  0  0  0  0  0  0  0  0  0  0  0
    1.3949    5.5035   -2.1526 H   0  0  0  0  0  0  0  0  0  0  0  0
    0.8851    5.3359   -0.4260 H   0  0  0  0  0  0  0  0  0  0  0  0
   -0.6414   -0.6807    0.0442 H   0  0  0  0  0  0  0  0  0  0  0  0
    0.3201    0.4355    0.9993 H   0  0  0  0  0  0  0  0  0  0  0  0
  1  2  1  0
  2  3  1  0
  3  4  1  0
  4  5  2  0
  4  6  1  0
  6  7  1  0
  7  8  1  0
  8  9  1  0
  9 10  1  0
  8 11  1  0
 11 12  1  0
 11 13  1  0
 13 14  1  0
 13 15  1  0
 15 16  1  0
 16 17  1  0
 17 18  1  0
 18 19  1  0
 19 20  1  0
 20 21  1  0
 21 22  1  0
 22 23  2  0
 22 24  1  0
 24 25  2  0
 25 26  1  0
 26 27  2  0
 27 28  1  0
 28 29  2  0
 29 30  1  0
 30 31  2  0
 30 32  1  0
 32 33  1  0
 33 34  1  0
 21 35  1  0
 35 36  1  0
 36 37  1  0
 37 38  1  0
 37 39  1  0
 35 40  1  0
 40  6  1  0
 31 26  1  0
 34 29  1  0
  1 41  1  0
  1 42  1  0
  1 43  1  0
  3 44  1  0
  3 45  1  0
  7 46  1  0
  7 47  1  0
  8 48  1  0
 10 49  1  0
 10 50  1  0
 10 51  1  0
 11 52  1  0
 12 53  1  0
 13 54  1  0
 14 55  1  0
 15 56  1  0
 15 57  1  0
 17 58  1  0
 17 59  1  0
 18 60  1  0
 18 61  1  0
 19 62  1  0
 19 63  1  0
 20 64  1  0
 20 65  1  0
 24 66  1  0
 25 67  1  0
 27 68  1  0
 28 69  1  0
 31 70  1  0
 33 71  1  0
 33 72  1  0
 35 73  1  0
 36 74  1  0
 36 75  1  0
 37 76  1  0
 38 77  1  0
 38 78  1  0
 38 79  1  0
 39 80  1  0
 39 81  1  0
 39 82  1  0
 40 83  1  0
 40 84  1  0
M  END
$$$$
