
     RDKit          3D

 76 79  0  0  0  0  0  0  0  0999 V2000
   -4.8656    4.0936    0.7997 C   0  0  0  0  0  0  0  0  0  0  0  0
   -4.1596    2.8020    0.3676 C   0  0  0  0  0  0  0  0  0  0  0  0
   -3.5610    2.9823   -1.0363 C   0  0  0  0  0  0  0  0  0  0  0  0
   -3.0847    2.4171    1.4142 C   0  0  0  0  0  0  0  0  0  0  0  0
   -2.4146    1.0459    1.1798 C   0  0  0  0  0  0  0  0  0  0  0  0
   -3.4155   -0.1238    1.2354 C   0  0  0  0  0  0  0  0  0  0  0  0
   -3.9078   -0.3657   -0.0818 O   0  0  0  0  0  0  0  0  0  0  0  0
   -4.8163   -1.3660   -0.4487 C   0  0  0  0  0  0  0  0  0  0  0  0
   -5.8952   -0.9744   -1.2514 C   0  0  0  0  0  0  0  0  0  0  0  0
   -6.8629   -1.8968   -1.6496 C   0  0  0  0  0  0  0  0  0  0  0  0
   -6.7589   -3.2305   -1.2559 C   0  0  0  0  0  0  0  0  0  0  0  0
   -7.9804   -4.3888   -1.7496 Cl  0  0  0  0  0  0  0  0  0  0  0  0
   -5.6748   -3.6454   -0.4787 C   0  0  0  0  0  0  0  0  0  0  0  0
   -4.6794   -2.7326   -0.0865 C   0  0  0  0  0  0  0  0  0  0  0  0
   -3.5403   -3.2605    0.6938 C   0  0  0  0  0  0  0  0  0  0  0  0
   -3.7849   -3.9145    1.7432 O   0  0  0  0  0  0  0  0  0  0  0  0
   -2.1716   -3.0876    0.2920 N   0  0  0  0  0  0  0  0  0  0  0  0
   -1.7605   -2.6243   -1.0367 C   0  0  0  0  0  0  0  0  0  0  0  0
   -0.2329   -2.6878   -1.1996 C   0  0  0  0  0  0  0  0  0  0  0  0
    0.5161   -1.6771   -0.3070 C   0  0  0  0  0  0  0  0  0  0  0  0
    0.6031   -0.2803   -0.9402 C   0  0  0  0  0  0  0  0  0  0  0  0
    1.3401    0.6424   -0.0592 N   0  0  0  0  0  0  0  0  0  0  0  0
    2.7703    0.5211    0.1096 C   0  0  0  0  0  0  0  0  0  0  0  0
    3.2972    0.8713    1.2025 O   0  0  0  0  0  0  0  0  0  0  0  0
    3.6405   -0.0343   -0.9919 C   0  0  0  0  0  0  0  0  0  0  0  0
    5.0864    0.3273   -0.8088 C   0  0  0  0  0  0  0  0  0  0  0  0
    5.7240    1.4611   -1.3028 C   0  0  0  0  0  0  0  0  0  0  0  0
    7.0071    1.4997   -0.8716 N   0  0  0  0  0  0  0  0  0  0  0  0
    7.9728    2.5623   -1.1330 C   0  0  0  0  0  0  0  0  0  0  0  0
    7.1792    0.4165   -0.0872 C   0  0  0  0  0  0  0  0  0  0  0  0
    8.3219    0.0420    0.6247 C   0  0  0  0  0  0  0  0  0  0  0  0
    8.2572   -1.1246    1.4080 C   0  0  0  0  0  0  0  0  0  0  0  0
    7.0658   -1.8801    1.4707 C   0  0  0  0  0  0  0  0  0  0  0  0
    5.9276   -1.4776    0.7497 C   0  0  0  0  0  0  0  0  0  0  0  0
    6.0231   -0.3219   -0.0261 C   0  0  0  0  0  0  0  0  0  0  0  0
    0.6106    1.6679    0.7036 C   0  0  0  0  0  0  0  0  0  0  0  0
    0.0432    1.0870    1.9758 C   0  0  0  0  0  0  0  0  0  0  0  0
    0.8439    0.8031    2.9061 O   0  0  0  0  0  0  0  0  0  0  0  0
   -1.3620    0.8464    2.1819 N   0  0  0  0  0  0  0  0  0  0  0  0
   -5.6692    4.3538    0.0780 H   0  0  0  0  0  0  0  0  0  0  0  0
   -4.1432    4.9364    0.8521 H   0  0  0  0  0  0  0  0  0  0  0  0
   -5.3345    3.9604    1.7981 H   0  0  0  0  0  0  0  0  0  0  0  0
   -4.9341    2.0069    0.3213 H   0  0  0  0  0  0  0  0  0  0  0  0
   -4.3311    3.3711   -1.7367 H   0  0  0  0  0  0  0  0  0  0  0  0
   -2.7091    3.6954   -1.0116 H   0  0  0  0  0  0  0  0  0  0  0  0
   -3.2114    2.0119   -1.4439 H   0  0  0  0  0  0  0  0  0  0  0  0
   -2.2950    3.2012    1.4251 H   0  0  0  0  0  0  0  0  0  0  0  0
   -3.5462    2.4102    2.4268 H   0  0  0  0  0  0  0  0  0  0  0  0
   -1.9656    1.0288    0.1749 H   0  0  0  0  0  0  0  0  0  0  0  0
   -4.2610    0.0998    1.9214 H   0  0  0  0  0  0  0  0  0  0  0  0
   -2.8945   -1.0151    1.6255 H   0  0  0  0  0  0  0  0  0  0  0  0
   -5.9925    0.0610   -1.5537 H   0  0  0  0  0  0  0  0  0  0  0  0
   -7.6957   -1.5715   -2.2601 H   0  0  0  0  0  0  0  0  0  0  0  0
   -5.5962   -4.6893   -0.1986 H   0  0  0  0  0  0  0  0  0  0  0  0
   -1.4421   -3.4277    0.9596 H   0  0  0  0  0  0  0  0  0  0  0  0
   -2.2298   -3.2741   -1.8065 H   0  0  0  0  0  0  0  0  0  0  0  0
   -2.1007   -1.5865   -1.2094 H   0  0  0  0  0  0  0  0  0  0  0  0
    0.0303   -2.5202   -2.2667 H   0  0  0  0  0  0  0  0  0  0  0  0
    0.1063   -3.7156   -0.9440 H   0  0  0  0  0  0  0  0  0  0  0  0
    1.5447   -2.0608   -0.1422 H   0  0  0  0  0  0  0  0  0  0  0  0
    0.0356   -1.6005    0.6914 H   0  0  0  0  0  0  0  0  0  0  0  0
   -0.4182    0.1011   -1.1329 H   0  0  0  0  0  0  0  0  0  0  0  0
    1.0979   -0.3396   -1.9318 H   0  0  0  0  0  0  0  0  0  0  0  0
    3.3021    0.3730   -1.9678 H   0  0  0  0  0  0  0  0  0  0  0  0
    3.5401   -1.1384   -1.0271 H   0  0  0  0  0  0  0  0  0  0  0  0
    5.2660    2.2204   -1.9243 H   0  0  0  0  0  0  0  0  0  0  0  0
    8.9380    2.1227   -1.4618 H   0  0  0  0  0  0  0  0  0  0  0  0
    7.6016    3.2363   -1.9345 H   0  0  0  0  0  0  0  0  0  0  0  0
    8.1333    3.1552   -0.2084 H   0  0  0  0  0  0  0  0  0  0  0  0
    9.2304    0.6284    0.5834 H   0  0  0  0  0  0  0  0  0  0  0  0
    9.1254   -1.4424    1.9705 H   0  0  0  0  0  0  0  0  0  0  0  0
    7.0265   -2.7725    2.0817 H   0  0  0  0  0  0  0  0  0  0  0  0
    5.0087   -2.0470    0.8021 H   0  0  0  0  0  0  0  0  0  0  0  0
   -0.1549    2.1527    0.0681 H   0  0  0  0  0  0  0  0  0  0  0  0
    1.2992    2.4969    0.9774 H   0  0  0  0  0  0  0  0  0  0  0  0
   -1.6623    0.5835    3.1487 H   0  0  0  0  0  0  0  0  0  0  0  0
  1  2  1  0
  2  3  1  0
  2  4  1  0
  4  5  1  0
  5  6  1  0
  6  7  1  0
  7  8  1  0
  8  9  2  0
  9 10  1  0
 10 11  2  0
 11 12  1  0
 11 13  1  0
 13 14  2  0
 14 15  1  0
 15 16  2  0
 15 17  1  0
 17 18  1  0
 18 19  1  0
 19 20  1  0
 20 21  1  0
 21 22  1  0
 22 23  1  0
 23 24  2  0
 23 25  1  0
 25 26  1  0
 26 27  2  0
 27 28  1  0
 28 29  1  0
 28 30  1  0
 30 31  2  0
 31 32  1  0
 32 33  2  0
 33 34  1  0
 34 35  2  0
 22 36  1  0
 36 37  1  0
 37 38  2  0
 37 39  1  0
 39  5  1  0
 14  8  1  0
 35 26  1  0
 35 30  1  0
  1 40  1  0
  1 41  1  0
  1 42  1  0
  2 43  1  0
  3 44  1  0
  3 45  1  0
  3 46  1  0
  4 47  1  0
  4 48  1  0
  5 49  1  0
  6 50  1  0
  6 51  1  0
  9 52  1  0
 10 53  1  0
 13 54  1  0
 17 55  1  0
 18 56  1  0
 18 57  1  0
 19 58  1  0
 19 59  1  0
 20 60  1  0
 20 61  1  0
 21 62  1  0
 21 63  1  0
 25 64  1  0
 25 65  1  0
 27 66  1  0
 29 67  1  0
 29 68  1  0
 29 69  1  0
 31 70  1  0
 32 71  1  0
 33 72  1  0
 34 73  1  0
 36 74  1  0
 36 75  1  0
 39 76  1  0
M  END
$$$$
