
     RDKit          3D

 76 78  0  0  0  0  0  0  0  0999 V2000
   10.2516    1.6471    2.6108 C   0  0  0  0  0  0  0  0  0  0  0  0
    9.8651    0.3346    1.9392 C   0  0  0  0  0  0  0  0  0  0  0  0
    8.3960    0.2864    1.6600 C   0  0  0  0  0  0  0  0  0  0  0  0
    7.4729   -0.0425    2.5838 N   0  0  0  0  0  0  0  0  0  0  0  0
    6.3343    0.1009    1.9779 O   0  0  0  0  0  0  0  0  0  0  0  0
    6.5375    0.5050    0.7456 C   0  0  0  0  0  0  0  0  0  0  0  0
    5.4501    0.7698   -0.2474 C   0  0  0  0  0  0  0  0  0  0  0  0
    4.4197   -0.3661   -0.2465 C   0  0  0  0  0  0  0  0  0  0  0  0
    3.3386   -0.1311   -1.2721 C   0  0  0  0  0  0  0  0  0  0  0  0
    3.6539   -0.0612   -2.4869 O   0  0  0  0  0  0  0  0  0  0  0  0
    1.9524   -0.0143   -0.8890 N   0  0  0  0  0  0  0  0  0  0  0  0
    1.0942    0.9119   -1.6575 C   0  0  0  0  0  0  0  0  0  0  0  0
    0.0105    1.5853   -0.7927 C   0  0  0  0  0  0  0  0  0  0  0  0
   -0.9428    2.4427   -1.6425 C   0  0  0  0  0  0  0  0  0  0  0  0
   -2.0946    1.6166   -2.2334 C   0  0  0  0  0  0  0  0  0  0  0  0
   -3.1213    1.4571   -1.2522 O   0  0  0  0  0  0  0  0  0  0  0  0
   -4.3913    0.9170   -1.5166 C   0  0  0  0  0  0  0  0  0  0  0  0
   -4.7469    0.4470   -2.8000 C   0  0  0  0  0  0  0  0  0  0  0  0
   -6.0426   -0.0157   -3.0521 C   0  0  0  0  0  0  0  0  0  0  0  0
   -6.9983   -0.0138   -2.0328 C   0  0  0  0  0  0  0  0  0  0  0  0
   -8.6240   -0.5964   -2.3501 Cl  0  0  0  0  0  0  0  0  0  0  0  0
   -6.6571    0.4385   -0.7552 C   0  0  0  0  0  0  0  0  0  0  0  0
   -5.3523    0.8835   -0.4835 C   0  0  0  0  0  0  0  0  0  0  0  0
   -5.0090    1.3060    0.8872 C   0  0  0  0  0  0  0  0  0  0  0  0
   -5.7657    2.1089    1.5038 O   0  0  0  0  0  0  0  0  0  0  0  0
   -3.8629    0.7542    1.5555 N   0  0  0  0  0  0  0  0  0  0  0  0
   -2.8312    1.6722    2.0330 C   0  0  0  0  0  0  0  0  0  0  0  0
   -3.9090   -0.6168    2.0966 C   0  0  0  0  0  0  0  0  0  0  0  0
   -5.0605   -0.7734    3.1030 C   0  0  0  0  0  0  0  0  0  0  0  0
   -4.0060   -1.6313    0.9711 C   0  0  0  0  0  0  0  0  0  0  0  0
   -5.1469   -2.0367    0.6129 O   0  0  0  0  0  0  0  0  0  0  0  0
   -2.8365   -2.0971    0.2586 N   0  0  0  0  0  0  0  0  0  0  0  0
   -3.0503   -2.6637   -1.0805 C   0  0  0  0  0  0  0  0  0  0  0  0
   -1.5469   -2.1700    0.9862 C   0  0  0  0  0  0  0  0  0  0  0  0
   -0.3924   -2.8739    0.2412 C   0  0  0  0  0  0  0  0  0  0  0  0
    0.3573   -1.9320   -0.7196 C   0  0  0  0  0  0  0  0  0  0  0  0
    1.3577   -1.0182    0.0170 C   0  0  0  0  0  0  0  0  0  0  0  0
    7.8486    0.6632    0.4849 N   0  0  0  0  0  0  0  0  0  0  0  0
    9.7801    1.7265    3.6100 H   0  0  0  0  0  0  0  0  0  0  0  0
    9.9335    2.5100    1.9923 H   0  0  0  0  0  0  0  0  0  0  0  0
   11.3494    1.6811    2.7383 H   0  0  0  0  0  0  0  0  0  0  0  0
   10.4300    0.2284    0.9906 H   0  0  0  0  0  0  0  0  0  0  0  0
   10.1435   -0.5099    2.6036 H   0  0  0  0  0  0  0  0  0  0  0  0
    4.9557    1.7283    0.0116 H   0  0  0  0  0  0  0  0  0  0  0  0
    5.8944    0.8686   -1.2610 H   0  0  0  0  0  0  0  0  0  0  0  0
    3.9738   -0.4273    0.7640 H   0  0  0  0  0  0  0  0  0  0  0  0
    4.9213   -1.3330   -0.4673 H   0  0  0  0  0  0  0  0  0  0  0  0
    1.7168    1.7236   -2.0899 H   0  0  0  0  0  0  0  0  0  0  0  0
    0.6438    0.3745   -2.5125 H   0  0  0  0  0  0  0  0  0  0  0  0
   -0.5919    0.8309   -0.2435 H   0  0  0  0  0  0  0  0  0  0  0  0
    0.5098    2.2363   -0.0473 H   0  0  0  0  0  0  0  0  0  0  0  0
   -1.3697    3.2526   -1.0155 H   0  0  0  0  0  0  0  0  0  0  0  0
   -0.3794    2.9479   -2.4610 H   0  0  0  0  0  0  0  0  0  0  0  0
   -1.7403    0.6122   -2.5701 H   0  0  0  0  0  0  0  0  0  0  0  0
   -2.4964    2.1615   -3.1195 H   0  0  0  0  0  0  0  0  0  0  0  0
   -4.0346    0.4480   -3.6169 H   0  0  0  0  0  0  0  0  0  0  0  0
   -6.3093   -0.3644   -4.0440 H   0  0  0  0  0  0  0  0  0  0  0  0
   -7.4034    0.4138    0.0321 H   0  0  0  0  0  0  0  0  0  0  0  0
   -2.8036    2.5854    1.4031 H   0  0  0  0  0  0  0  0  0  0  0  0
   -1.8391    1.1845    1.9861 H   0  0  0  0  0  0  0  0  0  0  0  0
   -3.0476    1.9540    3.0832 H   0  0  0  0  0  0  0  0  0  0  0  0
   -2.9875   -0.8098    2.6810 H   0  0  0  0  0  0  0  0  0  0  0  0
   -5.0307   -1.7900    3.5566 H   0  0  0  0  0  0  0  0  0  0  0  0
   -6.0514   -0.6300    2.6182 H   0  0  0  0  0  0  0  0  0  0  0  0
   -4.9558   -0.0220    3.9194 H   0  0  0  0  0  0  0  0  0  0  0  0
   -3.8138   -2.0727   -1.6332 H   0  0  0  0  0  0  0  0  0  0  0  0
   -3.4151   -3.7083   -0.9846 H   0  0  0  0  0  0  0  0  0  0  0  0
   -2.1390   -2.6418   -1.7068 H   0  0  0  0  0  0  0  0  0  0  0  0
   -1.2339   -1.1463    1.2670 H   0  0  0  0  0  0  0  0  0  0  0  0
   -1.7096   -2.7302    1.9298 H   0  0  0  0  0  0  0  0  0  0  0  0
   -0.7543   -3.7745   -0.2967 H   0  0  0  0  0  0  0  0  0  0  0  0
    0.3336   -3.2535    0.9969 H   0  0  0  0  0  0  0  0  0  0  0  0
   -0.3710   -1.3232   -1.2897 H   0  0  0  0  0  0  0  0  0  0  0  0
    0.9190   -2.5502   -1.4520 H   0  0  0  0  0  0  0  0  0  0  0  0
    2.1393   -1.6754    0.4505 H   0  0  0  0  0  0  0  0  0  0  0  0
    0.8815   -0.4996    0.8744 H   0  0  0  0  0  0  0  0  0  0  0  0
  1  2  1  0
  2  3  1  0
  3  4  2  0
  4  5  1  0
  5  6  1  0
  6  7  1  0
  7  8  1  0
  8  9  1  0
  9 10  2  0
  9 11  1  0
 11 12  1  0
 12 13  1  0
 13 14  1  0
 14 15  1  0
 15 16  1  0
 16 17  1  0
 17 18  2  0
 18 19  1  0
 19 20  2  0
 20 21  1  0
 20 22  1  0
 22 23  2  0
 23 24  1  0
 24 25  2  0
 24 26  1  0
 26 27  1  0
 26 28  1  0
 28 29  1  0
 28 30  1  0
 30 31  2  0
 30 32  1  0
 32 33  1  0
 32 34  1  0
 34 35  1  0
 35 36  1  0
 36 37  1  0
  6 38  2  0
 38  3  1  0
 37 11  1  0
 23 17  1  0
  1 39  1  0
  1 40  1  0
  1 41  1  0
  2 42  1  0
  2 43  1  0
  7 44  1  0
  7 45  1  0
  8 46  1  0
  8 47  1  0
 12 48  1  0
 12 49  1  0
 13 50  1  0
 13 51  1  0
 14 52  1  0
 14 53  1  0
 15 54  1  0
 15 55  1  0
 18 56  1  0
 19 57  1  0
 22 58  1  0
 27 59  1  0
 27 60  1  0
 27 61  1  0
 28 62  1  0
 29 63  1  0
 29 64  1  0
 29 65  1  0
 33 66  1  0
 33 67  1  0
 33 68  1  0
 34 69  1  0
 34 70  1  0
 35 71  1  0
 35 72  1  0
 36 73  1  0
 36 74  1  0
 37 75  1  0
 37 76  1  0
M  END
$$$$
