
     RDKit          3D

 67 70  0  0  0  0  0  0  0  0999 V2000
   -2.1078   -4.9284    0.4116 C   0  0  0  0  0  0  0  0  0  0  0  0
   -2.0834   -3.4844    0.9164 C   0  0  0  0  0  0  0  0  0  0  0  0
   -1.6147   -2.5529   -0.1271 N   0  0  0  0  0  0  0  0  0  0  0  0
   -2.4321   -2.2921   -1.3266 C   0  0  0  0  0  0  0  0  0  0  0  0
   -3.7205   -1.5316   -1.0002 C   0  0  0  0  0  0  0  0  0  0  0  0
   -3.4121   -0.2023   -0.5911 O   0  0  0  0  0  0  0  0  0  0  0  0
   -4.3125    0.6953    0.0078 C   0  0  0  0  0  0  0  0  0  0  0  0
   -5.6669    0.3673    0.2078 C   0  0  0  0  0  0  0  0  0  0  0  0
   -6.5315    1.2744    0.8272 C   0  0  0  0  0  0  0  0  0  0  0  0
   -6.0586    2.5164    1.2470 C   0  0  0  0  0  0  0  0  0  0  0  0
   -4.7189    2.8570    1.0543 C   0  0  0  0  0  0  0  0  0  0  0  0
   -3.8389    1.9587    0.4285 C   0  0  0  0  0  0  0  0  0  0  0  0
   -2.3869    2.3424    0.2602 C   0  0  0  0  0  0  0  0  0  0  0  0
   -1.5898    2.1595    1.5709 C   0  0  0  0  0  0  0  0  0  0  0  0
   -0.2777    1.3835    1.3499 C   0  0  0  0  0  0  0  0  0  0  0  0
   -0.5211   -0.1389    1.1832 C   0  0  0  0  0  0  0  0  0  0  0  0
    0.2714   -0.7873    0.0096 C   0  0  0  0  0  0  0  0  0  0  0  0
    1.8096   -0.7310    0.3545 C   0  0  0  0  0  0  0  0  0  0  0  0
    2.4176    0.4856   -0.1990 N   0  0  0  0  0  0  0  0  0  0  0  0
    3.3049    1.3003    0.6021 C   0  0  0  0  0  0  0  0  0  0  0  0
    3.3142    1.1666    1.8570 O   0  0  0  0  0  0  0  0  0  0  0  0
    4.2087    2.3447   -0.0090 C   0  0  0  0  0  0  0  0  0  0  0  0
    5.6552    2.1999    0.4761 C   0  0  0  0  0  0  0  0  0  0  0  0
    6.2182    0.9149    0.0653 N   0  0  0  0  0  0  0  0  0  0  0  0
    6.7451    0.6083   -1.1328 C   0  0  0  0  0  0  0  0  0  0  0  0
    7.1303   -0.7136   -1.0992 C   0  0  0  0  0  0  0  0  0  0  0  0
    6.8353   -1.2396    0.1098 N   0  0  0  0  0  0  0  0  0  0  0  0
    6.2740   -0.2180    0.7925 C   0  0  0  0  0  0  0  0  0  0  0  0
    2.1259    0.8178   -1.6002 C   0  0  0  0  0  0  0  0  0  0  0  0
    0.9789   -0.0502   -2.1270 C   0  0  0  0  0  0  0  0  0  0  0  0
   -0.0724   -0.0745   -1.1809 O   0  0  0  0  0  0  0  0  0  0  0  0
   -0.2105   -2.2311   -0.1470 C   0  0  0  0  0  0  0  0  0  0  0  0
    0.6183   -3.1696   -0.3001 O   0  0  0  0  0  0  0  0  0  0  0  0
   -2.9203   -5.0631   -0.3346 H   0  0  0  0  0  0  0  0  0  0  0  0
   -2.2979   -5.6164    1.2639 H   0  0  0  0  0  0  0  0  0  0  0  0
   -1.1335   -5.1969   -0.0543 H   0  0  0  0  0  0  0  0  0  0  0  0
   -1.4125   -3.4302    1.8016 H   0  0  0  0  0  0  0  0  0  0  0  0
   -3.0942   -3.2005    1.2748 H   0  0  0  0  0  0  0  0  0  0  0  0
   -1.8567   -1.7088   -2.0752 H   0  0  0  0  0  0  0  0  0  0  0  0
   -2.6912   -3.2550   -1.8133 H   0  0  0  0  0  0  0  0  0  0  0  0
   -4.2928   -2.0630   -0.2179 H   0  0  0  0  0  0  0  0  0  0  0  0
   -4.3526   -1.4862   -1.9128 H   0  0  0  0  0  0  0  0  0  0  0  0
   -6.0625   -0.5852   -0.1057 H   0  0  0  0  0  0  0  0  0  0  0  0
   -7.5684    1.0112    0.9875 H   0  0  0  0  0  0  0  0  0  0  0  0
   -6.7302    3.2170    1.7314 H   0  0  0  0  0  0  0  0  0  0  0  0
   -4.3639    3.8208    1.3985 H   0  0  0  0  0  0  0  0  0  0  0  0
   -1.9352    1.7638   -0.5769 H   0  0  0  0  0  0  0  0  0  0  0  0
   -2.3205    3.4063   -0.0657 H   0  0  0  0  0  0  0  0  0  0  0  0
   -2.1934    1.6445    2.3505 H   0  0  0  0  0  0  0  0  0  0  0  0
   -1.3423    3.1655    1.9760 H   0  0  0  0  0  0  0  0  0  0  0  0
    0.3823    1.5370    2.2306 H   0  0  0  0  0  0  0  0  0  0  0  0
    0.2500    1.8269    0.4795 H   0  0  0  0  0  0  0  0  0  0  0  0
   -0.2854   -0.6588    2.1379 H   0  0  0  0  0  0  0  0  0  0  0  0
   -1.5996   -0.3140    1.0298 H   0  0  0  0  0  0  0  0  0  0  0  0
    2.3631   -1.5862   -0.0880 H   0  0  0  0  0  0  0  0  0  0  0  0
    1.9691   -0.8169    1.4507 H   0  0  0  0  0  0  0  0  0  0  0  0
    3.8318    3.3486    0.2806 H   0  0  0  0  0  0  0  0  0  0  0  0
    4.2097    2.2972   -1.1151 H   0  0  0  0  0  0  0  0  0  0  0  0
    5.7040    2.3016    1.5827 H   0  0  0  0  0  0  0  0  0  0  0  0
    6.2652    3.0219    0.0411 H   0  0  0  0  0  0  0  0  0  0  0  0
    6.8399    1.2908   -1.9693 H   0  0  0  0  0  0  0  0  0  0  0  0
    7.5936   -1.2636   -1.9086 H   0  0  0  0  0  0  0  0  0  0  0  0
    5.9182   -0.3050    1.8116 H   0  0  0  0  0  0  0  0  0  0  0  0
    3.0282    0.6566   -2.2308 H   0  0  0  0  0  0  0  0  0  0  0  0
    1.8170    1.8843   -1.6686 H   0  0  0  0  0  0  0  0  0  0  0  0
    0.5972    0.3924   -3.0734 H   0  0  0  0  0  0  0  0  0  0  0  0
    1.3325   -1.0836   -2.3603 H   0  0  0  0  0  0  0  0  0  0  0  0
  1  2  1  0
  2  3  1  0
  3  4  1  0
  4  5  1  0
  5  6  1  0
  6  7  1  0
  7  8  2  0
  8  9  1  0
  9 10  2  0
 10 11  1  0
 11 12  2  0
 12 13  1  0
 13 14  1  0
 14 15  1  0
 15 16  1  0
 16 17  1  0
 17 18  1  0
 18 19  1  0
 19 20  1  0
 20 21  2  0
 20 22  1  0
 22 23  1  0
 23 24  1  0
 24 25  1  0
 25 26  2  0
 26 27  1  0
 27 28  2  0
 19 29  1  0
 29 30  1  0
 30 31  1  0
 17 32  1  0
 32 33  2  0
 32  3  1  0
 12  7  1  0
 31 17  1  0
 28 24  1  0
  1 34  1  0
  1 35  1  0
  1 36  1  0
  2 37  1  0
  2 38  1  0
  4 39  1  0
  4 40  1  0
  5 41  1  0
  5 42  1  0
  8 43  1  0
  9 44  1  0
 10 45  1  0
 11 46  1  0
 13 47  1  0
 13 48  1  0
 14 49  1  0
 14 50  1  0
 15 51  1  0
 15 52  1  0
 16 53  1  0
 16 54  1  0
 18 55  1  0
 18 56  1  0
 22 57  1  0
 22 58  1  0
 23 59  1  0
 23 60  1  0
 25 61  1  0
 26 62  1  0
 28 63  1  0
 29 64  1  0
 29 65  1  0
 30 66  1  0
 30 67  1  0
M  END
$$$$
