
     RDKit          3D

 65 68  0  0  0  0  0  0  0  0999 V2000
   -0.6602   -2.0956    0.0300 C   0  0  0  0  0  0  0  0  0  0  0  0
   -0.8172   -0.9186    0.8898 N   0  0  0  0  0  0  0  0  0  0  0  0
    0.0464    0.2696    0.7411 C   0  0  0  0  0  0  0  0  0  0  0  0
    0.1397    0.9282   -0.6880 C   0  0  0  0  0  0  0  0  0  0  0  0
    0.9332    2.2560   -0.5557 C   0  0  0  0  0  0  0  0  0  0  0  0
    2.3818    2.0734   -0.0646 C   0  0  0  0  0  0  0  0  0  0  0  0
    3.0722    0.8821   -0.5937 N   0  0  0  0  0  0  0  0  0  0  0  0
    4.4908    0.7872   -0.3523 C   0  0  0  0  0  0  0  0  0  0  0  0
    5.2270    1.7897   -0.5822 O   0  0  0  0  0  0  0  0  0  0  0  0
    5.1036   -0.4311    0.2216 C   0  0  0  0  0  0  0  0  0  0  0  0
    6.4540   -0.6228    0.4417 C   0  0  0  0  0  0  0  0  0  0  0  0
    6.6021   -1.8151    1.0399 N   0  0  0  0  0  0  0  0  0  0  0  0
    7.8410   -2.4070    1.5291 C   0  0  0  0  0  0  0  0  0  0  0  0
    5.3601   -2.3101    1.1932 C   0  0  0  0  0  0  0  0  0  0  0  0
    4.4122   -1.4833    0.7063 N   0  0  0  0  0  0  0  0  0  0  0  0
    2.3734   -0.2512   -1.2250 C   0  0  0  0  0  0  0  0  0  0  0  0
    0.9640    0.0960   -1.7080 C   0  0  0  0  0  0  0  0  0  0  0  0
   -1.2865    1.1801   -1.3098 C   0  0  0  0  0  0  0  0  0  0  0  0
   -2.1577    2.3187   -0.6968 C   0  0  0  0  0  0  0  0  0  0  0  0
   -1.5694    3.5745   -0.9401 O   0  0  0  0  0  0  0  0  0  0  0  0
   -3.6194    2.3054   -1.2640 C   0  0  0  0  0  0  0  0  0  0  0  0
   -4.0348    3.6244   -1.5199 O   0  0  0  0  0  0  0  0  0  0  0  0
   -4.6411    1.6709   -0.2949 C   0  0  0  0  0  0  0  0  0  0  0  0
   -4.5993    0.1629   -0.2883 C   0  0  0  0  0  0  0  0  0  0  0  0
   -5.2474   -0.5484   -1.3147 C   0  0  0  0  0  0  0  0  0  0  0  0
   -5.2787   -1.9438   -1.2984 C   0  0  0  0  0  0  0  0  0  0  0  0
   -4.6708   -2.6413   -0.2559 C   0  0  0  0  0  0  0  0  0  0  0  0
   -4.0249   -1.9464    0.7709 C   0  0  0  0  0  0  0  0  0  0  0  0
   -3.9585   -0.5398    0.7509 C   0  0  0  0  0  0  0  0  0  0  0  0
   -3.2644    0.1903    1.7314 O   0  0  0  0  0  0  0  0  0  0  0  0
   -2.4574   -0.3609    2.7704 C   0  0  0  0  0  0  0  0  0  0  0  0
   -1.3200   -1.1634    2.2145 C   0  0  0  0  0  0  0  0  0  0  0  0
   -0.7803   -2.0468    2.9350 O   0  0  0  0  0  0  0  0  0  0  0  0
   -1.1805   -2.9769    0.4651 H   0  0  0  0  0  0  0  0  0  0  0  0
    0.4115   -2.3647   -0.0784 H   0  0  0  0  0  0  0  0  0  0  0  0
   -1.1348   -1.9197   -0.9553 H   0  0  0  0  0  0  0  0  0  0  0  0
    1.0542   -0.0037    1.1173 H   0  0  0  0  0  0  0  0  0  0  0  0
   -0.3170    1.0580    1.4380 H   0  0  0  0  0  0  0  0  0  0  0  0
    0.9549    2.7826   -1.5379 H   0  0  0  0  0  0  0  0  0  0  0  0
    0.4402    2.9346    0.1730 H   0  0  0  0  0  0  0  0  0  0  0  0
    2.3788    2.0100    1.0442 H   0  0  0  0  0  0  0  0  0  0  0  0
    2.9476    2.9892   -0.3409 H   0  0  0  0  0  0  0  0  0  0  0  0
    7.2599    0.0603    0.2093 H   0  0  0  0  0  0  0  0  0  0  0  0
    7.8681   -2.3506    2.6371 H   0  0  0  0  0  0  0  0  0  0  0  0
    8.7182   -1.8659    1.1154 H   0  0  0  0  0  0  0  0  0  0  0  0
    7.8940   -3.4708    1.2178 H   0  0  0  0  0  0  0  0  0  0  0  0
    5.1416   -3.2543    1.6691 H   0  0  0  0  0  0  0  0  0  0  0  0
    2.9651   -0.6060   -2.0986 H   0  0  0  0  0  0  0  0  0  0  0  0
    2.2998   -1.0948   -0.5123 H   0  0  0  0  0  0  0  0  0  0  0  0
    0.4454   -0.8313   -2.0100 H   0  0  0  0  0  0  0  0  0  0  0  0
    1.0725    0.6760   -2.6529 H   0  0  0  0  0  0  0  0  0  0  0  0
   -1.8685    0.2389   -1.2587 H   0  0  0  0  0  0  0  0  0  0  0  0
   -1.1769    1.3987   -2.3944 H   0  0  0  0  0  0  0  0  0  0  0  0
   -2.1872    2.1800    0.4035 H   0  0  0  0  0  0  0  0  0  0  0  0
   -1.5013    3.6921   -1.9231 H   0  0  0  0  0  0  0  0  0  0  0  0
   -3.6339    1.7425   -2.2273 H   0  0  0  0  0  0  0  0  0  0  0  0
   -4.7643    3.5775   -2.1925 H   0  0  0  0  0  0  0  0  0  0  0  0
   -4.5142    2.0879    0.7276 H   0  0  0  0  0  0  0  0  0  0  0  0
   -5.6651    1.9779   -0.6035 H   0  0  0  0  0  0  0  0  0  0  0  0
   -5.7413   -0.0180   -2.1206 H   0  0  0  0  0  0  0  0  0  0  0  0
   -5.7882   -2.4847   -2.0866 H   0  0  0  0  0  0  0  0  0  0  0  0
   -4.6968   -3.7235   -0.2405 H   0  0  0  0  0  0  0  0  0  0  0  0
   -3.5757   -2.5151    1.5705 H   0  0  0  0  0  0  0  0  0  0  0  0
   -3.0833   -0.9869    3.4445 H   0  0  0  0  0  0  0  0  0  0  0  0
   -2.0364    0.4770    3.3670 H   0  0  0  0  0  0  0  0  0  0  0  0
  1  2  1  0
  2  3  1  0
  3  4  1  0
  4  5  1  0
  5  6  1  0
  6  7  1  0
  7  8  1  0
  8  9  2  0
  8 10  1  0
 10 11  2  0
 11 12  1  0
 12 13  1  0
 12 14  1  0
 14 15  2  0
  7 16  1  0
 16 17  1  0
  4 18  1  0
 18 19  1  0
 19 20  1  0
 19 21  1  0
 21 22  1  0
 21 23  1  0
 23 24  1  0
 24 25  2  0
 25 26  1  0
 26 27  2  0
 27 28  1  0
 28 29  2  0
 29 30  1  0
 30 31  1  0
 31 32  1  0
 32 33  2  0
 32  2  1  0
 17  4  1  0
 29 24  1  0
 15 10  1  0
  1 34  1  0
  1 35  1  0
  1 36  1  0
  3 37  1  0
  3 38  1  0
  5 39  1  0
  5 40  1  0
  6 41  1  0
  6 42  1  0
 11 43  1  0
 13 44  1  0
 13 45  1  0
 13 46  1  0
 14 47  1  0
 16 48  1  0
 16 49  1  0
 17 50  1  0
 17 51  1  0
 18 52  1  0
 18 53  1  0
 19 54  1  0
 20 55  1  0
 21 56  1  0
 22 57  1  0
 23 58  1  0
 23 59  1  0
 25 60  1  0
 26 61  1  0
 27 62  1  0
 28 63  1  0
 31 64  1  0
 31 65  1  0
M  END
$$$$
