
     RDKit          3D

 69 71  0  0  0  0  0  0  0  0999 V2000
   -4.7440    4.3372    1.0406 C   0  0  0  0  0  0  0  0  0  0  0  0
   -3.3470    3.7305    0.8558 C   0  0  0  0  0  0  0  0  0  0  0  0
   -2.3666    4.3718    1.8498 C   0  0  0  0  0  0  0  0  0  0  0  0
   -3.4160    2.1916    1.0184 C   0  0  0  0  0  0  0  0  0  0  0  0
   -2.1162    1.4619    0.6068 C   0  0  0  0  0  0  0  0  0  0  0  0
   -2.2378   -0.0506    0.8462 C   0  0  0  0  0  0  0  0  0  0  0  0
   -3.3030   -0.5911    0.0703 O   0  0  0  0  0  0  0  0  0  0  0  0
   -3.5173   -1.9458   -0.2466 C   0  0  0  0  0  0  0  0  0  0  0  0
   -4.4298   -2.1999   -1.2798 C   0  0  0  0  0  0  0  0  0  0  0  0
   -4.6778   -3.5015   -1.7177 C   0  0  0  0  0  0  0  0  0  0  0  0
   -4.0222   -4.5770   -1.1194 C   0  0  0  0  0  0  0  0  0  0  0  0
   -4.3265   -6.2113   -1.6792 Cl  0  0  0  0  0  0  0  0  0  0  0  0
   -3.1293   -4.3521   -0.0707 C   0  0  0  0  0  0  0  0  0  0  0  0
   -2.8735   -3.0483    0.3861 C   0  0  0  0  0  0  0  0  0  0  0  0
   -1.9581   -2.9092    1.5313 C   0  0  0  0  0  0  0  0  0  0  0  0
   -2.4415   -2.7721    2.6864 O   0  0  0  0  0  0  0  0  0  0  0  0
   -0.5327   -2.9746    1.3645 N   0  0  0  0  0  0  0  0  0  0  0  0
    0.1183   -3.0065    0.0541 C   0  0  0  0  0  0  0  0  0  0  0  0
    1.4417   -2.2270    0.0941 C   0  0  0  0  0  0  0  0  0  0  0  0
    1.9722   -1.9071   -1.3140 C   0  0  0  0  0  0  0  0  0  0  0  0
    1.2931   -0.6778   -1.9515 C   0  0  0  0  0  0  0  0  0  0  0  0
    1.7156    0.5783   -1.3063 N   0  0  0  0  0  0  0  0  0  0  0  0
    3.0972    0.9790   -1.3943 C   0  0  0  0  0  0  0  0  0  0  0  0
    3.7262    0.8136   -2.4766 O   0  0  0  0  0  0  0  0  0  0  0  0
    3.8125    1.5736   -0.2119 C   0  0  0  0  0  0  0  0  0  0  0  0
    5.1164    0.8617    0.0312 C   0  0  0  0  0  0  0  0  0  0  0  0
    5.1346   -0.3650    0.7177 C   0  0  0  0  0  0  0  0  0  0  0  0
    6.3421   -1.0426    0.9169 C   0  0  0  0  0  0  0  0  0  0  0  0
    7.5373   -0.5048    0.4286 C   0  0  0  0  0  0  0  0  0  0  0  0
    7.5263    0.7101   -0.2670 C   0  0  0  0  0  0  0  0  0  0  0  0
    9.0254    1.3801   -0.8873 Cl  0  0  0  0  0  0  0  0  0  0  0  0
    6.3190    1.3897   -0.4699 C   0  0  0  0  0  0  0  0  0  0  0  0
    0.7542    1.3943   -0.5431 C   0  0  0  0  0  0  0  0  0  0  0  0
   -0.4729    1.7171   -1.3613 C   0  0  0  0  0  0  0  0  0  0  0  0
   -0.3229    2.0466   -2.5691 O   0  0  0  0  0  0  0  0  0  0  0  0
   -1.8004    1.7154   -0.8054 N   0  0  0  0  0  0  0  0  0  0  0  0
   -5.1370    4.1111    2.0544 H   0  0  0  0  0  0  0  0  0  0  0  0
   -5.4447    3.9247    0.2838 H   0  0  0  0  0  0  0  0  0  0  0  0
   -4.7090    5.4391    0.9086 H   0  0  0  0  0  0  0  0  0  0  0  0
   -3.0111    3.9804   -0.1743 H   0  0  0  0  0  0  0  0  0  0  0  0
   -2.6128    4.0751    2.8926 H   0  0  0  0  0  0  0  0  0  0  0  0
   -2.4119    5.4795    1.7735 H   0  0  0  0  0  0  0  0  0  0  0  0
   -1.3224    4.0739    1.6235 H   0  0  0  0  0  0  0  0  0  0  0  0
   -4.2521    1.8022    0.3960 H   0  0  0  0  0  0  0  0  0  0  0  0
   -3.6551    1.9472    2.0780 H   0  0  0  0  0  0  0  0  0  0  0  0
   -1.2992    1.8415    1.2529 H   0  0  0  0  0  0  0  0  0  0  0  0
   -1.2846   -0.5271    0.5492 H   0  0  0  0  0  0  0  0  0  0  0  0
   -2.4252   -0.2400    1.9238 H   0  0  0  0  0  0  0  0  0  0  0  0
   -4.9344   -1.3732   -1.7645 H   0  0  0  0  0  0  0  0  0  0  0  0
   -5.3768   -3.6723   -2.5268 H   0  0  0  0  0  0  0  0  0  0  0  0
   -2.6375   -5.1979    0.3967 H   0  0  0  0  0  0  0  0  0  0  0  0
    0.0586   -3.0661    2.2212 H   0  0  0  0  0  0  0  0  0  0  0  0
    0.3147   -4.0626   -0.2296 H   0  0  0  0  0  0  0  0  0  0  0  0
   -0.5515   -2.5687   -0.7132 H   0  0  0  0  0  0  0  0  0  0  0  0
    1.3184   -1.2908    0.6750 H   0  0  0  0  0  0  0  0  0  0  0  0
    2.1957   -2.8419    0.6301 H   0  0  0  0  0  0  0  0  0  0  0  0
    3.0684   -1.7361   -1.2586 H   0  0  0  0  0  0  0  0  0  0  0  0
    1.8230   -2.7889   -1.9751 H   0  0  0  0  0  0  0  0  0  0  0  0
    1.5603   -0.6375   -3.0297 H   0  0  0  0  0  0  0  0  0  0  0  0
    0.1901   -0.7941   -1.9071 H   0  0  0  0  0  0  0  0  0  0  0  0
    3.1876    1.4900    0.7026 H   0  0  0  0  0  0  0  0  0  0  0  0
    3.9836    2.6554   -0.3987 H   0  0  0  0  0  0  0  0  0  0  0  0
    4.2148   -0.7957    1.0960 H   0  0  0  0  0  0  0  0  0  0  0  0
    6.3501   -1.9868    1.4486 H   0  0  0  0  0  0  0  0  0  0  0  0
    8.4690   -1.0337    0.5884 H   0  0  0  0  0  0  0  0  0  0  0  0
    6.3169    2.3244   -1.0170 H   0  0  0  0  0  0  0  0  0  0  0  0
    0.5046    0.8563    0.3887 H   0  0  0  0  0  0  0  0  0  0  0  0
    1.2073    2.3650   -0.2473 H   0  0  0  0  0  0  0  0  0  0  0  0
   -2.5946    1.8597   -1.4697 H   0  0  0  0  0  0  0  0  0  0  0  0
  1  2  1  0
  2  3  1  0
  2  4  1  0
  4  5  1  0
  5  6  1  0
  6  7  1  0
  7  8  1  0
  8  9  2  0
  9 10  1  0
 10 11  2  0
 11 12  1  0
 11 13  1  0
 13 14  2  0
 14 15  1  0
 15 16  2  0
 15 17  1  0
 17 18  1  0
 18 19  1  0
 19 20  1  0
 20 21  1  0
 21 22  1  0
 22 23  1  0
 23 24  2  0
 23 25  1  0
 25 26  1  0
 26 27  2  0
 27 28  1  0
 28 29  2  0
 29 30  1  0
 30 31  1  0
 30 32  2  0
 22 33  1  0
 33 34  1  0
 34 35  2  0
 34 36  1  0
 36  5  1  0
 14  8  1  0
 32 26  1  0
  1 37  1  0
  1 38  1  0
  1 39  1  0
  2 40  1  0
  3 41  1  0
  3 42  1  0
  3 43  1  0
  4 44  1  0
  4 45  1  0
  5 46  1  0
  6 47  1  0
  6 48  1  0
  9 49  1  0
 10 50  1  0
 13 51  1  0
 17 52  1  0
 18 53  1  0
 18 54  1  0
 19 55  1  0
 19 56  1  0
 20 57  1  0
 20 58  1  0
 21 59  1  0
 21 60  1  0
 25 61  1  0
 25 62  1  0
 27 63  1  0
 28 64  1  0
 29 65  1  0
 32 66  1  0
 33 67  1  0
 33 68  1  0
 36 69  1  0
M  END
$$$$
