
     RDKit          3D

 82 86  0  0  0  0  0  0  0  0999 V2000
    4.6345    1.6638   -2.4045 C   0  0  0  0  0  0  0  0  0  0  0  0
    3.4394    1.6153   -1.5570 N   0  0  0  0  0  0  0  0  0  0  0  0
    2.7529    2.8696   -1.3383 C   0  0  0  0  0  0  0  0  0  0  0  0
    2.4624    3.5855   -2.3349 O   0  0  0  0  0  0  0  0  0  0  0  0
    2.3992    3.3896    0.0361 C   0  0  0  0  0  0  0  0  0  0  0  0
    3.3746    4.5159    0.4097 C   0  0  0  0  0  0  0  0  0  0  0  0
    3.3169    3.2696    1.2551 C   0  0  0  0  0  0  0  0  0  0  0  0
    1.0273    3.8787    0.2189 N   0  0  0  0  0  0  0  0  0  0  0  0
    0.2151    3.6129    1.3739 C   0  0  0  0  0  0  0  0  0  0  0  0
   -0.4813    4.5430    1.8635 O   0  0  0  0  0  0  0  0  0  0  0  0
    0.0594    2.2262    1.9267 C   0  0  0  0  0  0  0  0  0  0  0  0
   -1.1975    1.5736    1.3185 C   0  0  0  0  0  0  0  0  0  0  0  0
   -1.4273    0.1051    1.7391 C   0  0  0  0  0  0  0  0  0  0  0  0
   -2.7799   -0.3142    1.2109 C   0  0  0  0  0  0  0  0  0  0  0  0
   -2.8957   -0.6659    0.0025 O   0  0  0  0  0  0  0  0  0  0  0  0
   -3.9348   -0.2754    2.0636 N   0  0  0  0  0  0  0  0  0  0  0  0
   -5.2384   -0.7706    1.6267 C   0  0  0  0  0  0  0  0  0  0  0  0
   -5.8942    0.2141    0.6542 C   0  0  0  0  0  0  0  0  0  0  0  0
   -7.1040   -0.3704    0.0770 N   0  0  0  0  0  0  0  0  0  0  0  0
   -8.4515    0.1123    0.3200 C   0  0  0  0  0  0  0  0  0  0  0  0
   -9.3835   -0.7675   -0.5400 C   0  0  0  0  0  0  0  0  0  0  0  0
   -8.4901   -1.6968   -1.3816 C   0  0  0  0  0  0  0  0  0  0  0  0
   -7.1274   -1.3790   -0.9147 C   0  0  0  0  0  0  0  0  0  0  0  0
   -6.0870   -1.9349   -1.3599 O   0  0  0  0  0  0  0  0  0  0  0  0
   -0.3514   -0.7660    1.2312 N   0  0  0  0  0  0  0  0  0  0  0  0
   -0.4939   -2.1553    0.8963 C   0  0  0  0  0  0  0  0  0  0  0  0
   -1.4379   -2.8300    1.3841 O   0  0  0  0  0  0  0  0  0  0  0  0
    0.4662   -2.8036   -0.0273 C   0  0  0  0  0  0  0  0  0  0  0  0
    0.8401   -4.1401    0.1994 C   0  0  0  0  0  0  0  0  0  0  0  0
    1.7076   -4.7939   -0.6772 C   0  0  0  0  0  0  0  0  0  0  0  0
    2.1862   -4.1343   -1.8106 C   0  0  0  0  0  0  0  0  0  0  0  0
    1.8201   -2.8082   -2.0531 C   0  0  0  0  0  0  0  0  0  0  0  0
    0.9735   -2.1286   -1.1646 C   0  0  0  0  0  0  0  0  0  0  0  0
    0.5406   -0.8367   -1.4843 O   0  0  0  0  0  0  0  0  0  0  0  0
    1.2757    0.3924   -1.3636 C   0  0  0  0  0  0  0  0  0  0  0  0
    2.8203    0.2987   -1.2652 C   0  0  0  0  0  0  0  0  0  0  0  0
    3.3099   -0.2234    0.1071 C   0  0  0  0  0  0  0  0  0  0  0  0
    4.7214   -0.7614    0.0378 C   0  0  0  0  0  0  0  0  0  0  0  0
    4.9417   -2.1199   -0.2595 C   0  0  0  0  0  0  0  0  0  0  0  0
    6.2412   -2.6207   -0.3716 C   0  0  0  0  0  0  0  0  0  0  0  0
    7.3351   -1.7737   -0.1802 C   0  0  0  0  0  0  0  0  0  0  0  0
    7.1300   -0.4258    0.1217 C   0  0  0  0  0  0  0  0  0  0  0  0
    5.8308    0.0786    0.2311 C   0  0  0  0  0  0  0  0  0  0  0  0
    4.3640    2.0233   -3.4195 H   0  0  0  0  0  0  0  0  0  0  0  0
    5.3803    2.3524   -1.9551 H   0  0  0  0  0  0  0  0  0  0  0  0
    5.1054    0.6648   -2.5049 H   0  0  0  0  0  0  0  0  0  0  0  0
    2.9427    5.4005    0.9260 H   0  0  0  0  0  0  0  0  0  0  0  0
    4.3198    4.5904   -0.1722 H   0  0  0  0  0  0  0  0  0  0  0  0
    4.2204    2.6462    1.1368 H   0  0  0  0  0  0  0  0  0  0  0  0
    2.8426    3.4297    2.2454 H   0  0  0  0  0  0  0  0  0  0  0  0
    0.7266    4.6664   -0.3993 H   0  0  0  0  0  0  0  0  0  0  0  0
   -0.0478    2.2773    3.0326 H   0  0  0  0  0  0  0  0  0  0  0  0
    0.9768    1.6520    1.7090 H   0  0  0  0  0  0  0  0  0  0  0  0
   -2.0801    2.1741    1.6373 H   0  0  0  0  0  0  0  0  0  0  0  0
   -1.1558    1.6298    0.2087 H   0  0  0  0  0  0  0  0  0  0  0  0
   -1.4332    0.0424    2.8478 H   0  0  0  0  0  0  0  0  0  0  0  0
   -3.8218    0.0135    3.0623 H   0  0  0  0  0  0  0  0  0  0  0  0
   -5.1136   -1.7691    1.1575 H   0  0  0  0  0  0  0  0  0  0  0  0
   -5.8988   -0.8918    2.5130 H   0  0  0  0  0  0  0  0  0  0  0  0
   -5.1967    0.4853   -0.1659 H   0  0  0  0  0  0  0  0  0  0  0  0
   -6.1500    1.1456    1.2008 H   0  0  0  0  0  0  0  0  0  0  0  0
   -8.5301    1.1786    0.0123 H   0  0  0  0  0  0  0  0  0  0  0  0
   -8.6994    0.0118    1.3997 H   0  0  0  0  0  0  0  0  0  0  0  0
  -10.0509   -1.3700    0.1142 H   0  0  0  0  0  0  0  0  0  0  0  0
  -10.0174   -0.1360   -1.2021 H   0  0  0  0  0  0  0  0  0  0  0  0
   -8.5823   -1.4667   -2.4667 H   0  0  0  0  0  0  0  0  0  0  0  0
   -8.7243   -2.7671   -1.1874 H   0  0  0  0  0  0  0  0  0  0  0  0
    0.6302   -0.4436    1.3331 H   0  0  0  0  0  0  0  0  0  0  0  0
    0.4640   -4.6743    1.0637 H   0  0  0  0  0  0  0  0  0  0  0  0
    1.9916   -5.8221   -0.4912 H   0  0  0  0  0  0  0  0  0  0  0  0
    2.8443   -4.6473   -2.4981 H   0  0  0  0  0  0  0  0  0  0  0  0
    2.1677   -2.3217   -2.9553 H   0  0  0  0  0  0  0  0  0  0  0  0
    1.0145    0.9995   -2.2566 H   0  0  0  0  0  0  0  0  0  0  0  0
    0.9018    0.9490   -0.4927 H   0  0  0  0  0  0  0  0  0  0  0  0
    3.1387   -0.4223   -2.0466 H   0  0  0  0  0  0  0  0  0  0  0  0
    2.6565   -1.0358    0.4740 H   0  0  0  0  0  0  0  0  0  0  0  0
    3.2426    0.5757    0.8694 H   0  0  0  0  0  0  0  0  0  0  0  0
    4.1098   -2.7929   -0.3936 H   0  0  0  0  0  0  0  0  0  0  0  0
    6.3988   -3.6661   -0.6037 H   0  0  0  0  0  0  0  0  0  0  0  0
    8.3409   -2.1628   -0.2685 H   0  0  0  0  0  0  0  0  0  0  0  0
    7.9781    0.2298    0.2671 H   0  0  0  0  0  0  0  0  0  0  0  0
    5.6976    1.1266    0.4515 H   0  0  0  0  0  0  0  0  0  0  0  0
  1  2  1  0
  2  3  1  0
  3  4  2  0
  3  5  1  0
  5  6  1  0
  6  7  1  0
  5  8  1  0
  8  9  1  0
  9 10  2  0
  9 11  1  0
 11 12  1  0
 12 13  1  0
 13 14  1  0
 14 15  2  0
 14 16  1  0
 16 17  1  0
 17 18  1  0
 18 19  1  0
 19 20  1  0
 20 21  1  0
 21 22  1  0
 22 23  1  0
 23 24  2  0
 13 25  1  0
 25 26  1  0
 26 27  2  0
 26 28  1  0
 28 29  2  0
 29 30  1  0
 30 31  2  0
 31 32  1  0
 32 33  2  0
 33 34  1  0
 34 35  1  0
 35 36  1  0
 36 37  1  0
 37 38  1  0
 38 39  2  0
 39 40  1  0
 40 41  2  0
 41 42  1  0
 42 43  2  0
 36  2  1  0
 43 38  1  0
  7  5  1  0
 23 19  1  0
 33 28  1  0
  1 44  1  0
  1 45  1  0
  1 46  1  0
  6 47  1  0
  6 48  1  0
  7 49  1  0
  7 50  1  0
  8 51  1  0
 11 52  1  0
 11 53  1  0
 12 54  1  0
 12 55  1  0
 13 56  1  0
 16 57  1  0
 17 58  1  0
 17 59  1  0
 18 60  1  0
 18 61  1  0
 20 62  1  0
 20 63  1  0
 21 64  1  0
 21 65  1  0
 22 66  1  0
 22 67  1  0
 25 68  1  0
 29 69  1  0
 30 70  1  0
 31 71  1  0
 32 72  1  0
 35 73  1  0
 35 74  1  0
 36 75  1  0
 37 76  1  0
 37 77  1  0
 39 78  1  0
 40 79  1  0
 41 80  1  0
 42 81  1  0
 43 82  1  0
M  END
$$$$
