
     RDKit          3D

 72 74  0  0  0  0  0  0  0  0999 V2000
   -3.4924   -2.4308    1.6096 C   0  0  0  0  0  0  0  0  0  0  0  0
   -4.5917   -1.8984    0.6798 C   0  0  0  0  0  0  0  0  0  0  0  0
   -5.4993   -3.0311    0.1958 C   0  0  0  0  0  0  0  0  0  0  0  0
   -4.0426   -1.0171   -0.4755 C   0  0  0  0  0  0  0  0  0  0  0  0
   -3.3174   -1.7578   -1.6294 C   0  0  0  0  0  0  0  0  0  0  0  0
   -2.1990   -2.6097   -1.1792 N   0  0  0  0  0  0  0  0  0  0  0  0
   -0.8410   -2.1988   -0.9234 C   0  0  0  0  0  0  0  0  0  0  0  0
    0.0932   -3.0066   -1.2023 O   0  0  0  0  0  0  0  0  0  0  0  0
   -0.5192   -0.9808   -0.1064 C   0  0  0  0  0  0  0  0  0  0  0  0
    0.7843   -0.2933   -0.5433 C   0  0  0  0  0  0  0  0  0  0  0  0
    1.0706    0.9513    0.3217 C   0  0  0  0  0  0  0  0  0  0  0  0
    1.5725    0.5542    1.6901 C   0  0  0  0  0  0  0  0  0  0  0  0
    0.7427    0.4575    2.6353 O   0  0  0  0  0  0  0  0  0  0  0  0
    2.9372    0.1878    1.9082 N   0  0  0  0  0  0  0  0  0  0  0  0
    3.2877   -0.8418    2.8893 C   0  0  0  0  0  0  0  0  0  0  0  0
    4.7838   -1.1917    2.8261 C   0  0  0  0  0  0  0  0  0  0  0  0
    5.2041   -1.8051    1.5108 C   0  0  0  0  0  0  0  0  0  0  0  0
    6.5589   -2.1045    1.2913 C   0  0  0  0  0  0  0  0  0  0  0  0
    6.9479   -2.6828    0.0831 C   0  0  0  0  0  0  0  0  0  0  0  0
    5.9937   -2.9480   -0.8985 C   0  0  0  0  0  0  0  0  0  0  0  0
    4.6552   -2.6365   -0.6517 C   0  0  0  0  0  0  0  0  0  0  0  0
    4.2895   -2.0793    0.5340 N   0  0  0  0  0  0  0  0  0  0  0  0
    2.0290    1.8247   -0.3714 N   0  0  0  0  0  0  0  0  0  0  0  0
    1.7541    3.1877   -0.7463 C   0  0  0  0  0  0  0  0  0  0  0  0
    2.5351    3.7769   -1.5397 O   0  0  0  0  0  0  0  0  0  0  0  0
    0.6073    3.9315   -0.2003 C   0  0  0  0  0  0  0  0  0  0  0  0
    0.8300    4.8711    0.8232 C   0  0  0  0  0  0  0  0  0  0  0  0
   -0.2489    5.5321    1.4128 C   0  0  0  0  0  0  0  0  0  0  0  0
   -1.5490    5.2633    0.9876 C   0  0  0  0  0  0  0  0  0  0  0  0
   -1.7787    4.3687   -0.0648 C   0  0  0  0  0  0  0  0  0  0  0  0
   -0.6983    3.7196   -0.6989 C   0  0  0  0  0  0  0  0  0  0  0  0
   -0.8793    2.8548   -1.7936 O   0  0  0  0  0  0  0  0  0  0  0  0
   -2.0338    2.8266   -2.6334 C   0  0  0  0  0  0  0  0  0  0  0  0
   -2.9049    1.6193   -2.2810 C   0  0  0  0  0  0  0  0  0  0  0  0
   -2.1909    0.3677   -2.5495 N   0  0  0  0  0  0  0  0  0  0  0  0
   -2.8938   -0.8575   -2.7691 C   0  0  0  0  0  0  0  0  0  0  0  0
   -3.0620   -1.2506   -3.9579 O   0  0  0  0  0  0  0  0  0  0  0  0
   -2.9487   -3.2917    1.1614 H   0  0  0  0  0  0  0  0  0  0  0  0
   -2.7706   -1.6284    1.8489 H   0  0  0  0  0  0  0  0  0  0  0  0
   -3.9431   -2.7703    2.5616 H   0  0  0  0  0  0  0  0  0  0  0  0
   -5.2208   -1.2291    1.3049 H   0  0  0  0  0  0  0  0  0  0  0  0
   -5.9873   -3.5186    1.0649 H   0  0  0  0  0  0  0  0  0  0  0  0
   -4.9072   -3.8046   -0.3373 H   0  0  0  0  0  0  0  0  0  0  0  0
   -6.2831   -2.6376   -0.4814 H   0  0  0  0  0  0  0  0  0  0  0  0
   -3.4103   -0.2315   -0.0259 H   0  0  0  0  0  0  0  0  0  0  0  0
   -4.9112   -0.4862   -0.9298 H   0  0  0  0  0  0  0  0  0  0  0  0
   -4.0888   -2.4323   -2.0663 H   0  0  0  0  0  0  0  0  0  0  0  0
   -2.3581   -3.6443   -1.2360 H   0  0  0  0  0  0  0  0  0  0  0  0
   -1.3239   -0.2306   -0.1718 H   0  0  0  0  0  0  0  0  0  0  0  0
   -0.4401   -1.2965    0.9539 H   0  0  0  0  0  0  0  0  0  0  0  0
    1.6382   -1.0030   -0.4834 H   0  0  0  0  0  0  0  0  0  0  0  0
    0.6802    0.0166   -1.6063 H   0  0  0  0  0  0  0  0  0  0  0  0
    0.1129    1.4905    0.4751 H   0  0  0  0  0  0  0  0  0  0  0  0
    3.6862    0.5927    1.3038 H   0  0  0  0  0  0  0  0  0  0  0  0
    3.0405   -0.4796    3.9087 H   0  0  0  0  0  0  0  0  0  0  0  0
    2.6855   -1.7572    2.7007 H   0  0  0  0  0  0  0  0  0  0  0  0
    5.0099   -1.9148    3.6382 H   0  0  0  0  0  0  0  0  0  0  0  0
    5.3832   -0.2695    3.0158 H   0  0  0  0  0  0  0  0  0  0  0  0
    7.3071   -1.8887    2.0450 H   0  0  0  0  0  0  0  0  0  0  0  0
    7.9910   -2.9153   -0.0966 H   0  0  0  0  0  0  0  0  0  0  0  0
    6.2862   -3.3894   -1.8402 H   0  0  0  0  0  0  0  0  0  0  0  0
    3.9079   -2.8276   -1.4067 H   0  0  0  0  0  0  0  0  0  0  0  0
    2.9383    1.4097   -0.6971 H   0  0  0  0  0  0  0  0  0  0  0  0
    1.8346    5.0574    1.1849 H   0  0  0  0  0  0  0  0  0  0  0  0
   -0.0814    6.2240    2.2288 H   0  0  0  0  0  0  0  0  0  0  0  0
   -2.3879    5.7459    1.4775 H   0  0  0  0  0  0  0  0  0  0  0  0
   -2.8005    4.1811   -0.3551 H   0  0  0  0  0  0  0  0  0  0  0  0
   -2.6213    3.7635   -2.5518 H   0  0  0  0  0  0  0  0  0  0  0  0
   -1.7005    2.7418   -3.6971 H   0  0  0  0  0  0  0  0  0  0  0  0
   -3.8244    1.6586   -2.9033 H   0  0  0  0  0  0  0  0  0  0  0  0
   -3.1989    1.6723   -1.2172 H   0  0  0  0  0  0  0  0  0  0  0  0
   -1.2285    0.4197   -2.9541 H   0  0  0  0  0  0  0  0  0  0  0  0
  1  2  1  0
  2  3  1  0
  2  4  1  0
  4  5  1  0
  5  6  1  0
  6  7  1  0
  7  8  2  0
  7  9  1  0
  9 10  1  0
 10 11  1  0
 11 12  1  0
 12 13  2  0
 12 14  1  0
 14 15  1  0
 15 16  1  0
 16 17  1  0
 17 18  2  0
 18 19  1  0
 19 20  2  0
 20 21  1  0
 21 22  2  0
 11 23  1  0
 23 24  1  0
 24 25  2  0
 24 26  1  0
 26 27  2  0
 27 28  1  0
 28 29  2  0
 29 30  1  0
 30 31  2  0
 31 32  1  0
 32 33  1  0
 33 34  1  0
 34 35  1  0
 35 36  1  0
 36 37  2  0
 36  5  1  0
 22 17  1  0
 31 26  1  0
  1 38  1  0
  1 39  1  0
  1 40  1  0
  2 41  1  0
  3 42  1  0
  3 43  1  0
  3 44  1  0
  4 45  1  0
  4 46  1  0
  5 47  1  0
  6 48  1  0
  9 49  1  0
  9 50  1  0
 10 51  1  0
 10 52  1  0
 11 53  1  0
 14 54  1  0
 15 55  1  0
 15 56  1  0
 16 57  1  0
 16 58  1  0
 18 59  1  0
 19 60  1  0
 20 61  1  0
 21 62  1  0
 23 63  1  0
 27 64  1  0
 28 65  1  0
 29 66  1  0
 30 67  1  0
 33 68  1  0
 33 69  1  0
 34 70  1  0
 34 71  1  0
 35 72  1  0
M  END
$$$$
