
     RDKit          3D

 66 69  0  0  0  0  0  0  0  0999 V2000
    3.0351    3.3817   -2.3479 C   0  0  0  0  0  0  0  0  0  0  0  0
    4.0668    2.5059   -1.9011 O   0  0  0  0  0  0  0  0  0  0  0  0
    3.9091    1.5144   -0.9191 C   0  0  0  0  0  0  0  0  0  0  0  0
    2.6763    1.3213   -0.2661 C   0  0  0  0  0  0  0  0  0  0  0  0
    2.5185    0.3054    0.6860 C   0  0  0  0  0  0  0  0  0  0  0  0
    1.1955    0.0984    1.3696 C   0  0  0  0  0  0  0  0  0  0  0  0
    0.7030   -1.2448    1.0746 N   0  0  0  0  0  0  0  0  0  0  0  0
   -0.4696   -1.7113    1.3916 C   0  0  0  0  0  0  0  0  0  0  0  0
   -0.7834   -3.0718    1.0508 N   0  0  0  0  0  0  0  0  0  0  0  0
   -2.0676   -3.4352    0.4584 C   0  0  0  0  0  0  0  0  0  0  0  0
   -2.0646   -3.0541   -1.0301 C   0  0  0  0  0  0  0  0  0  0  0  0
   -3.4626   -3.0881   -1.6790 C   0  0  0  0  0  0  0  0  0  0  0  0
   -4.0440   -1.6814   -1.9195 C   0  0  0  0  0  0  0  0  0  0  0  0
   -4.6365   -1.0672   -0.6447 C   0  0  0  0  0  0  0  0  0  0  0  0
   -4.9315    0.3166   -0.8303 O   0  0  0  0  0  0  0  0  0  0  0  0
   -4.0158    1.3649   -1.0348 C   0  0  0  0  0  0  0  0  0  0  0  0
   -4.5095    2.5042   -1.6860 C   0  0  0  0  0  0  0  0  0  0  0  0
   -3.6692    3.5773   -1.9917 C   0  0  0  0  0  0  0  0  0  0  0  0
   -2.3270    3.5386   -1.6246 C   0  0  0  0  0  0  0  0  0  0  0  0
   -1.8255    2.4310   -0.9378 C   0  0  0  0  0  0  0  0  0  0  0  0
   -2.6507    1.3423   -0.6349 C   0  0  0  0  0  0  0  0  0  0  0  0
   -2.0800    0.2750    0.0602 O   0  0  0  0  0  0  0  0  0  0  0  0
   -2.1979    0.1215    1.4465 C   0  0  0  0  0  0  0  0  0  0  0  0
   -3.0543    0.9108    2.1565 N   0  0  0  0  0  0  0  0  0  0  0  0
   -3.2421    0.7459    3.4910 C   0  0  0  0  0  0  0  0  0  0  0  0
   -2.5573   -0.2588    4.1757 C   0  0  0  0  0  0  0  0  0  0  0  0
   -1.6664   -1.0749    3.4784 C   0  0  0  0  0  0  0  0  0  0  0  0
   -1.4628   -0.8794    2.1081 C   0  0  0  0  0  0  0  0  0  0  0  0
    3.6001   -0.5292    0.9877 C   0  0  0  0  0  0  0  0  0  0  0  0
    4.8366   -0.3569    0.3435 C   0  0  0  0  0  0  0  0  0  0  0  0
    5.9388   -1.1808    0.6225 O   0  0  0  0  0  0  0  0  0  0  0  0
    5.9315   -2.2533    1.5593 C   0  0  0  0  0  0  0  0  0  0  0  0
    4.9999    0.6745   -0.5950 C   0  0  0  0  0  0  0  0  0  0  0  0
    6.2658    0.8135   -1.1873 O   0  0  0  0  0  0  0  0  0  0  0  0
    6.8629    2.0603   -1.5442 C   0  0  0  0  0  0  0  0  0  0  0  0
    2.2042    2.7942   -2.7936 H   0  0  0  0  0  0  0  0  0  0  0  0
    2.6590    3.9914   -1.5000 H   0  0  0  0  0  0  0  0  0  0  0  0
    3.4438    4.0652   -3.1204 H   0  0  0  0  0  0  0  0  0  0  0  0
    1.8301    1.9504   -0.5043 H   0  0  0  0  0  0  0  0  0  0  0  0
    1.3224    0.2166    2.4671 H   0  0  0  0  0  0  0  0  0  0  0  0
    0.4617    0.8555    1.0242 H   0  0  0  0  0  0  0  0  0  0  0  0
    0.0101   -3.7348    0.9023 H   0  0  0  0  0  0  0  0  0  0  0  0
   -2.8940   -2.9517    1.0164 H   0  0  0  0  0  0  0  0  0  0  0  0
   -2.2126   -4.5343    0.5510 H   0  0  0  0  0  0  0  0  0  0  0  0
   -1.5959   -2.0557   -1.1638 H   0  0  0  0  0  0  0  0  0  0  0  0
   -1.4021   -3.7706   -1.5605 H   0  0  0  0  0  0  0  0  0  0  0  0
   -4.1704   -3.7098   -1.0868 H   0  0  0  0  0  0  0  0  0  0  0  0
   -3.3680   -3.5773   -2.6735 H   0  0  0  0  0  0  0  0  0  0  0  0
   -3.2631   -1.0160   -2.3488 H   0  0  0  0  0  0  0  0  0  0  0  0
   -4.8551   -1.7505   -2.6772 H   0  0  0  0  0  0  0  0  0  0  0  0
   -5.5853   -1.5941   -0.4096 H   0  0  0  0  0  0  0  0  0  0  0  0
   -3.9870   -1.2101    0.2276 H   0  0  0  0  0  0  0  0  0  0  0  0
   -5.5480    2.5415   -1.9885 H   0  0  0  0  0  0  0  0  0  0  0  0
   -4.0558    4.4358   -2.5303 H   0  0  0  0  0  0  0  0  0  0  0  0
   -1.6738    4.3677   -1.8674 H   0  0  0  0  0  0  0  0  0  0  0  0
   -0.7824    2.4175   -0.6497 H   0  0  0  0  0  0  0  0  0  0  0  0
   -3.9303    1.3899    4.0193 H   0  0  0  0  0  0  0  0  0  0  0  0
   -2.7112   -0.4020    5.2356 H   0  0  0  0  0  0  0  0  0  0  0  0
   -1.1257   -1.8471    4.0110 H   0  0  0  0  0  0  0  0  0  0  0  0
    3.4680   -1.3127    1.7232 H   0  0  0  0  0  0  0  0  0  0  0  0
    5.6879   -1.8752    2.5745 H   0  0  0  0  0  0  0  0  0  0  0  0
    5.1939   -3.0248    1.2488 H   0  0  0  0  0  0  0  0  0  0  0  0
    6.9391   -2.7157    1.5860 H   0  0  0  0  0  0  0  0  0  0  0  0
    6.4206    2.4591   -2.4820 H   0  0  0  0  0  0  0  0  0  0  0  0
    6.7536    2.7902   -0.7095 H   0  0  0  0  0  0  0  0  0  0  0  0
    7.9445    1.8911   -1.7234 H   0  0  0  0  0  0  0  0  0  0  0  0
  1  2  1  0
  2  3  1  0
  3  4  2  0
  4  5  1  0
  5  6  1  0
  6  7  1  0
  7  8  2  3
  8  9  1  0
  9 10  1  0
 10 11  1  0
 11 12  1  0
 12 13  1  0
 13 14  1  0
 14 15  1  0
 15 16  1  0
 16 17  2  0
 17 18  1  0
 18 19  2  0
 19 20  1  0
 20 21  2  0
 21 22  1  0
 22 23  1  0
 23 24  2  0
 24 25  1  0
 25 26  2  0
 26 27  1  0
 27 28  2  0
  5 29  2  0
 29 30  1  0
 30 31  1  0
 31 32  1  0
 30 33  2  0
 33 34  1  0
 34 35  1  0
 33  3  1  0
 28  8  1  0
 21 16  1  0
 28 23  1  0
  1 36  1  0
  1 37  1  0
  1 38  1  0
  4 39  1  0
  6 40  1  0
  6 41  1  0
  9 42  1  0
 10 43  1  0
 10 44  1  0
 11 45  1  0
 11 46  1  0
 12 47  1  0
 12 48  1  0
 13 49  1  0
 13 50  1  0
 14 51  1  0
 14 52  1  0
 17 53  1  0
 18 54  1  0
 19 55  1  0
 20 56  1  0
 25 57  1  0
 26 58  1  0
 27 59  1  0
 29 60  1  0
 32 61  1  0
 32 62  1  0
 32 63  1  0
 35 64  1  0
 35 65  1  0
 35 66  1  0
M  END
$$$$
