
     RDKit          3D

 68 71  0  0  0  0  0  0  0  0999 V2000
   -1.4178    4.4906   -1.7114 C   0  0  0  0  0  0  0  0  0  0  0  0
   -2.2734    3.6869   -0.7229 C   0  0  0  0  0  0  0  0  0  0  0  0
   -1.9476    4.0993    0.7231 C   0  0  0  0  0  0  0  0  0  0  0  0
   -2.1922    2.1573   -1.0118 C   0  0  0  0  0  0  0  0  0  0  0  0
   -3.1110    1.3169   -0.1173 C   0  0  0  0  0  0  0  0  0  0  0  0
   -3.1505   -0.0247   -0.5982 O   0  0  0  0  0  0  0  0  0  0  0  0
   -4.0159   -1.0210   -0.1138 C   0  0  0  0  0  0  0  0  0  0  0  0
   -4.8433   -0.8083    1.0056 C   0  0  0  0  0  0  0  0  0  0  0  0
   -5.7183   -1.8107    1.4386 C   0  0  0  0  0  0  0  0  0  0  0  0
   -5.7644   -3.0366    0.7728 C   0  0  0  0  0  0  0  0  0  0  0  0
   -6.8669   -4.2905    1.3152 Cl  0  0  0  0  0  0  0  0  0  0  0  0
   -4.9390   -3.2627   -0.3312 C   0  0  0  0  0  0  0  0  0  0  0  0
   -4.0644   -2.2617   -0.7762 C   0  0  0  0  0  0  0  0  0  0  0  0
   -3.1771   -2.5282   -1.9210 C   0  0  0  0  0  0  0  0  0  0  0  0
   -3.5794   -2.2543   -3.0884 O   0  0  0  0  0  0  0  0  0  0  0  0
   -1.8544   -3.0627   -1.7384 N   0  0  0  0  0  0  0  0  0  0  0  0
   -1.4032   -3.7146   -0.5055 C   0  0  0  0  0  0  0  0  0  0  0  0
   -0.0288   -3.1878   -0.0886 C   0  0  0  0  0  0  0  0  0  0  0  0
   -0.1052   -1.7326    0.3973 C   0  0  0  0  0  0  0  0  0  0  0  0
    1.2719   -1.2385    0.8682 C   0  0  0  0  0  0  0  0  0  0  0  0
    1.3065    0.1622    1.3523 N   0  0  0  0  0  0  0  0  0  0  0  0
    2.5714    0.7104    1.8020 C   0  0  0  0  0  0  0  0  0  0  0  0
    2.6271    1.8877    2.2512 O   0  0  0  0  0  0  0  0  0  0  0  0
    3.8302   -0.0620    1.7237 C   0  0  0  0  0  0  0  0  0  0  0  0
    3.9780   -1.1456    2.5342 N   0  0  0  0  0  0  0  0  0  0  0  0
    5.1131   -1.8916    2.5514 C   0  0  0  0  0  0  0  0  0  0  0  0
    6.1890   -1.5548    1.7278 C   0  0  0  0  0  0  0  0  0  0  0  0
    6.0837   -0.4492    0.8752 C   0  0  0  0  0  0  0  0  0  0  0  0
    7.1481   -0.1027    0.0267 C   0  0  0  0  0  0  0  0  0  0  0  0
    7.0254    0.9811   -0.8438 C   0  0  0  0  0  0  0  0  0  0  0  0
    5.8505    1.7345   -0.8684 C   0  0  0  0  0  0  0  0  0  0  0  0
    4.7871    1.4102   -0.0230 C   0  0  0  0  0  0  0  0  0  0  0  0
    4.8895    0.3165    0.8629 C   0  0  0  0  0  0  0  0  0  0  0  0
    0.1458    1.0705    1.2517 C   0  0  0  0  0  0  0  0  0  0  0  0
    0.1831    1.8080   -0.0552 C   0  0  0  0  0  0  0  0  0  0  0  0
    1.1702    2.5458   -0.3078 O   0  0  0  0  0  0  0  0  0  0  0  0
   -0.8197    1.6234   -1.0616 N   0  0  0  0  0  0  0  0  0  0  0  0
   -1.6100    4.1581   -2.7519 H   0  0  0  0  0  0  0  0  0  0  0  0
   -0.3383    4.3613   -1.4944 H   0  0  0  0  0  0  0  0  0  0  0  0
   -1.6662    5.5723   -1.6418 H   0  0  0  0  0  0  0  0  0  0  0  0
   -3.3315    3.9916   -0.9050 H   0  0  0  0  0  0  0  0  0  0  0  0
   -2.1603    5.1827    0.8536 H   0  0  0  0  0  0  0  0  0  0  0  0
   -0.8766    3.9468    0.9657 H   0  0  0  0  0  0  0  0  0  0  0  0
   -2.5825    3.5505    1.4499 H   0  0  0  0  0  0  0  0  0  0  0  0
   -2.6157    2.0384   -2.0377 H   0  0  0  0  0  0  0  0  0  0  0  0
   -4.1353    1.7482   -0.1620 H   0  0  0  0  0  0  0  0  0  0  0  0
   -2.7823    1.3313    0.9367 H   0  0  0  0  0  0  0  0  0  0  0  0
   -4.8288    0.1319    1.5397 H   0  0  0  0  0  0  0  0  0  0  0  0
   -6.3561   -1.6387    2.2952 H   0  0  0  0  0  0  0  0  0  0  0  0
   -4.9747   -4.2168   -0.8410 H   0  0  0  0  0  0  0  0  0  0  0  0
   -1.2318   -3.1105   -2.5768 H   0  0  0  0  0  0  0  0  0  0  0  0
   -2.1262   -3.5587    0.3262 H   0  0  0  0  0  0  0  0  0  0  0  0
   -1.3321   -4.8097   -0.6929 H   0  0  0  0  0  0  0  0  0  0  0  0
    0.6775   -3.2672   -0.9444 H   0  0  0  0  0  0  0  0  0  0  0  0
    0.3548   -3.8284    0.7357 H   0  0  0  0  0  0  0  0  0  0  0  0
   -0.4668   -1.0889   -0.4328 H   0  0  0  0  0  0  0  0  0  0  0  0
   -0.8216   -1.6915    1.2490 H   0  0  0  0  0  0  0  0  0  0  0  0
    1.6037   -1.9045    1.6944 H   0  0  0  0  0  0  0  0  0  0  0  0
    1.9904   -1.3450    0.0264 H   0  0  0  0  0  0  0  0  0  0  0  0
    5.1806   -2.7497    3.2119 H   0  0  0  0  0  0  0  0  0  0  0  0
    7.0915   -2.1558    1.7526 H   0  0  0  0  0  0  0  0  0  0  0  0
    8.0659   -0.6796    0.0314 H   0  0  0  0  0  0  0  0  0  0  0  0
    7.8423    1.2398   -1.5036 H   0  0  0  0  0  0  0  0  0  0  0  0
    5.7609    2.5685   -1.5518 H   0  0  0  0  0  0  0  0  0  0  0  0
    3.8843    2.0048   -0.0821 H   0  0  0  0  0  0  0  0  0  0  0  0
    0.1587    1.8116    2.0820 H   0  0  0  0  0  0  0  0  0  0  0  0
   -0.7996    0.5207    1.3800 H   0  0  0  0  0  0  0  0  0  0  0  0
   -0.4724    1.3262   -2.0024 H   0  0  0  0  0  0  0  0  0  0  0  0
  1  2  1  0
  2  3  1  0
  2  4  1  0
  4  5  1  0
  5  6  1  0
  6  7  1  0
  7  8  2  0
  8  9  1  0
  9 10  2  0
 10 11  1  0
 10 12  1  0
 12 13  2  0
 13 14  1  0
 14 15  2  0
 14 16  1  0
 16 17  1  0
 17 18  1  0
 18 19  1  0
 19 20  1  0
 20 21  1  0
 21 22  1  0
 22 23  2  0
 22 24  1  0
 24 25  2  0
 25 26  1  0
 26 27  2  0
 27 28  1  0
 28 29  2  0
 29 30  1  0
 30 31  2  0
 31 32  1  0
 32 33  2  0
 21 34  1  0
 34 35  1  0
 35 36  2  0
 35 37  1  0
 37  4  1  0
 13  7  1  0
 33 24  1  0
 33 28  1  0
  1 38  1  0
  1 39  1  0
  1 40  1  0
  2 41  1  0
  3 42  1  0
  3 43  1  0
  3 44  1  0
  4 45  1  0
  5 46  1  0
  5 47  1  0
  8 48  1  0
  9 49  1  0
 12 50  1  0
 16 51  1  0
 17 52  1  0
 17 53  1  0
 18 54  1  0
 18 55  1  0
 19 56  1  0
 19 57  1  0
 20 58  1  0
 20 59  1  0
 26 60  1  0
 27 61  1  0
 29 62  1  0
 30 63  1  0
 31 64  1  0
 32 65  1  0
 34 66  1  0
 34 67  1  0
 37 68  1  0
M  END
$$$$
