
     RDKit          3D

 70 73  0  0  0  0  0  0  0  0999 V2000
   -3.8553    0.9701    2.3880 O   0  0  0  0  0  0  0  0  0  0  0  0
   -3.8146    1.1557    1.1398 C   0  0  0  0  0  0  0  0  0  0  0  0
   -3.5011    2.5071    0.6463 C   0  0  0  0  0  0  0  0  0  0  0  0
   -4.5315    3.2910    0.1072 C   0  0  0  0  0  0  0  0  0  0  0  0
   -4.2497    4.5379   -0.4499 C   0  0  0  0  0  0  0  0  0  0  0  0
   -2.9380    5.0133   -0.4699 C   0  0  0  0  0  0  0  0  0  0  0  0
   -1.9048    4.2445    0.0710 C   0  0  0  0  0  0  0  0  0  0  0  0
   -2.1752    2.9865    0.6489 C   0  0  0  0  0  0  0  0  0  0  0  0
   -1.1617    2.1994    1.2251 O   0  0  0  0  0  0  0  0  0  0  0  0
    0.2368    2.4327    1.0453 C   0  0  0  0  0  0  0  0  0  0  0  0
    1.0644    1.4532    1.8966 C   0  0  0  0  0  0  0  0  0  0  0  0
    1.9555    0.6273    1.0662 N   0  0  0  0  0  0  0  0  0  0  0  0
    3.1346    1.2344    0.4874 C   0  0  0  0  0  0  0  0  0  0  0  0
    3.0656    2.4179    0.0554 O   0  0  0  0  0  0  0  0  0  0  0  0
    4.4799    0.5398    0.4239 C   0  0  0  0  0  0  0  0  0  0  0  0
    4.8034   -0.2431    1.7130 C   0  0  0  0  0  0  0  0  0  0  0  0
    6.2288   -0.8240    1.6683 C   0  0  0  0  0  0  0  0  0  0  0  0
    6.6357   -1.3676    0.2810 C   0  0  0  0  0  0  0  0  0  0  0  0
    5.4336   -1.6033   -0.6399 C   0  0  0  0  0  0  0  0  0  0  0  0
    4.6409   -0.3057   -0.8669 C   0  0  0  0  0  0  0  0  0  0  0  0
    1.5998   -0.7819    0.8326 C   0  0  0  0  0  0  0  0  0  0  0  0
    0.3772   -0.8849   -0.0815 C   0  0  0  0  0  0  0  0  0  0  0  0
   -0.0169   -2.3497   -0.3109 C   0  0  0  0  0  0  0  0  0  0  0  0
   -1.1146   -2.5631   -1.3790 C   0  0  0  0  0  0  0  0  0  0  0  0
   -2.5593   -1.9888   -1.1253 C   0  0  0  0  0  0  0  0  0  0  0  0
   -3.5531   -2.8621   -1.9553 C   0  0  0  0  0  0  0  0  0  0  0  0
   -3.2046   -2.8596   -3.3151 O   0  0  0  0  0  0  0  0  0  0  0  0
   -2.6369   -0.5091   -1.6341 C   0  0  0  0  0  0  0  0  0  0  0  0
   -3.9302    0.2025   -1.2220 C   0  0  0  0  0  0  0  0  0  0  0  0
   -4.1158    0.0696    0.2275 N   0  0  0  0  0  0  0  0  0  0  0  0
   -4.2463   -1.3061    0.7159 C   0  0  0  0  0  0  0  0  0  0  0  0
   -2.9606   -2.0773    0.3881 C   0  0  0  0  0  0  0  0  0  0  0  0
   -5.5512    2.9230    0.0993 H   0  0  0  0  0  0  0  0  0  0  0  0
   -5.0454    5.1328   -0.8766 H   0  0  0  0  0  0  0  0  0  0  0  0
   -2.7214    5.9768   -0.9128 H   0  0  0  0  0  0  0  0  0  0  0  0
   -0.9017    4.6446    0.0373 H   0  0  0  0  0  0  0  0  0  0  0  0
    0.4727    2.3222   -0.0366 H   0  0  0  0  0  0  0  0  0  0  0  0
    0.4919    3.4669    1.3642 H   0  0  0  0  0  0  0  0  0  0  0  0
    1.6789    2.0204    2.6312 H   0  0  0  0  0  0  0  0  0  0  0  0
    0.3858    0.8076    2.4981 H   0  0  0  0  0  0  0  0  0  0  0  0
    5.2500    1.3445    0.3726 H   0  0  0  0  0  0  0  0  0  0  0  0
    4.7131    0.4308    2.5942 H   0  0  0  0  0  0  0  0  0  0  0  0
    4.0924   -1.0818    1.8605 H   0  0  0  0  0  0  0  0  0  0  0  0
    6.3012   -1.6396    2.4219 H   0  0  0  0  0  0  0  0  0  0  0  0
    6.9526   -0.0360    1.9729 H   0  0  0  0  0  0  0  0  0  0  0  0
    7.1856   -2.3241    0.4090 H   0  0  0  0  0  0  0  0  0  0  0  0
    7.3272   -0.6491   -0.2124 H   0  0  0  0  0  0  0  0  0  0  0  0
    4.7690   -2.3749   -0.1889 H   0  0  0  0  0  0  0  0  0  0  0  0
    5.7886   -1.9906   -1.6185 H   0  0  0  0  0  0  0  0  0  0  0  0
    5.1725    0.3077   -1.6283 H   0  0  0  0  0  0  0  0  0  0  0  0
    3.6580   -0.5618   -1.3182 H   0  0  0  0  0  0  0  0  0  0  0  0
    2.4290   -1.3415    0.3684 H   0  0  0  0  0  0  0  0  0  0  0  0
    1.3833   -1.2725    1.8059 H   0  0  0  0  0  0  0  0  0  0  0  0
    0.6053   -0.3997   -1.0554 H   0  0  0  0  0  0  0  0  0  0  0  0
   -0.4567   -0.3495    0.4107 H   0  0  0  0  0  0  0  0  0  0  0  0
   -0.3076   -2.8263    0.6482 H   0  0  0  0  0  0  0  0  0  0  0  0
    0.8852   -2.8968   -0.6625 H   0  0  0  0  0  0  0  0  0  0  0  0
   -1.1847   -3.6672   -1.5027 H   0  0  0  0  0  0  0  0  0  0  0  0
   -0.7329   -2.1853   -2.3530 H   0  0  0  0  0  0  0  0  0  0  0  0
   -3.5379   -3.9104   -1.5778 H   0  0  0  0  0  0  0  0  0  0  0  0
   -4.5969   -2.4995   -1.8527 H   0  0  0  0  0  0  0  0  0  0  0  0
   -3.8460   -3.4655   -3.7704 H   0  0  0  0  0  0  0  0  0  0  0  0
   -2.5506   -0.4741   -2.7411 H   0  0  0  0  0  0  0  0  0  0  0  0
   -1.7985    0.0960   -1.2458 H   0  0  0  0  0  0  0  0  0  0  0  0
   -4.8003   -0.2395   -1.7505 H   0  0  0  0  0  0  0  0  0  0  0  0
   -3.8832    1.2608   -1.5456 H   0  0  0  0  0  0  0  0  0  0  0  0
   -4.4324   -1.3378    1.8090 H   0  0  0  0  0  0  0  0  0  0  0  0
   -5.1226   -1.7896    0.2389 H   0  0  0  0  0  0  0  0  0  0  0  0
   -3.0797   -3.1395    0.6939 H   0  0  0  0  0  0  0  0  0  0  0  0
   -2.1787   -1.6381    1.0356 H   0  0  0  0  0  0  0  0  0  0  0  0
  1  2  2  0
  2  3  1  0
  3  4  2  0
  4  5  1  0
  5  6  2  0
  6  7  1  0
  7  8  2  0
  8  9  1  0
  9 10  1  0
 10 11  1  0
 11 12  1  0
 12 13  1  0
 13 14  2  0
 13 15  1  0
 15 16  1  0
 16 17  1  0
 17 18  1  0
 18 19  1  0
 19 20  1  0
 12 21  1  0
 21 22  1  0
 22 23  1  0
 23 24  1  0
 24 25  1  0
 25 26  1  0
 26 27  1  0
 25 28  1  0
 28 29  1  0
 29 30  1  0
 30 31  1  0
 31 32  1  0
 30  2  1  0
  8  3  1  0
 20 15  1  0
 32 25  1  0
  4 33  1  0
  5 34  1  0
  6 35  1  0
  7 36  1  0
 10 37  1  0
 10 38  1  0
 11 39  1  0
 11 40  1  0
 15 41  1  0
 16 42  1  0
 16 43  1  0
 17 44  1  0
 17 45  1  0
 18 46  1  0
 18 47  1  0
 19 48  1  0
 19 49  1  0
 20 50  1  0
 20 51  1  0
 21 52  1  0
 21 53  1  0
 22 54  1  0
 22 55  1  0
 23 56  1  0
 23 57  1  0
 24 58  1  0
 24 59  1  0
 26 60  1  0
 26 61  1  0
 27 62  1  0
 28 63  1  0
 28 64  1  0
 29 65  1  0
 29 66  1  0
 31 67  1  0
 31 68  1  0
 32 69  1  0
 32 70  1  0
M  END
$$$$
