
     RDKit          3D

 56 59  0  0  0  0  0  0  0  0999 V2000
    4.2150    1.0364   -0.6005 O   0  0  0  0  0  0  0  0  0  0  0  0
    4.0530    0.0146    0.1218 C   0  0  0  0  0  0  0  0  0  0  0  0
    4.8303   -0.0784    1.3736 C   0  0  0  0  0  0  0  0  0  0  0  0
    4.7559    0.9509    2.3180 C   0  0  0  0  0  0  0  0  0  0  0  0
    5.4846    0.8805    3.4614 N   0  0  0  0  0  0  0  0  0  0  0  0
    6.3027   -0.1754    3.7040 C   0  0  0  0  0  0  0  0  0  0  0  0
    6.4170   -1.1728    2.7875 N   0  0  0  0  0  0  0  0  0  0  0  0
    5.7068   -1.1424    1.6296 C   0  0  0  0  0  0  0  0  0  0  0  0
    3.0666   -0.9783   -0.2452 N   0  0  0  0  0  0  0  0  0  0  0  0
    3.0084   -2.2918    0.4035 C   0  0  0  0  0  0  0  0  0  0  0  0
    1.7510   -3.0426   -0.0395 C   0  0  0  0  0  0  0  0  0  0  0  0
    0.6116   -2.2216    0.1175 O   0  0  0  0  0  0  0  0  0  0  0  0
    0.6180   -1.0158   -0.6603 C   0  0  0  0  0  0  0  0  0  0  0  0
    0.1515    0.1187    0.2990 C   0  0  0  0  0  0  0  0  0  0  0  0
    0.2084    1.5650   -0.2587 C   0  0  0  0  0  0  0  0  0  0  0  0
   -0.9826    2.4309    0.2043 C   0  0  0  0  0  0  0  0  0  0  0  0
   -2.1285    2.4518   -0.8311 C   0  0  0  0  0  0  0  0  0  0  0  0
   -3.4788    2.2320   -0.1952 C   0  0  0  0  0  0  0  0  0  0  0  0
   -4.2245    3.3295    0.2636 C   0  0  0  0  0  0  0  0  0  0  0  0
   -5.4884    3.1378    0.8265 C   0  0  0  0  0  0  0  0  0  0  0  0
   -6.0194    1.8519    0.9325 C   0  0  0  0  0  0  0  0  0  0  0  0
   -5.2805    0.7494    0.4964 C   0  0  0  0  0  0  0  0  0  0  0  0
   -3.9942    0.9278   -0.0504 C   0  0  0  0  0  0  0  0  0  0  0  0
   -3.1936   -0.1535   -0.4472 O   0  0  0  0  0  0  0  0  0  0  0  0
   -3.5474   -1.5295   -0.3544 C   0  0  0  0  0  0  0  0  0  0  0  0
   -2.2922   -2.3864   -0.5023 C   0  0  0  0  0  0  0  0  0  0  0  0
   -1.5502   -2.0323   -1.7182 N   0  0  0  0  0  0  0  0  0  0  0  0
   -0.4003   -1.1618   -1.7909 C   0  0  0  0  0  0  0  0  0  0  0  0
   -0.2325   -0.4963   -2.8485 O   0  0  0  0  0  0  0  0  0  0  0  0
    2.0378   -0.6802   -1.2470 C   0  0  0  0  0  0  0  0  0  0  0  0
    4.1107    1.8040    2.1499 H   0  0  0  0  0  0  0  0  0  0  0  0
    6.8813   -0.2141    4.6173 H   0  0  0  0  0  0  0  0  0  0  0  0
    5.8433   -1.9334    0.9075 H   0  0  0  0  0  0  0  0  0  0  0  0
    3.8992   -2.8908    0.1257 H   0  0  0  0  0  0  0  0  0  0  0  0
    2.9724   -2.1638    1.5067 H   0  0  0  0  0  0  0  0  0  0  0  0
    1.6278   -3.9451    0.5947 H   0  0  0  0  0  0  0  0  0  0  0  0
    1.8399   -3.3930   -1.0921 H   0  0  0  0  0  0  0  0  0  0  0  0
   -0.8768   -0.1114    0.6449 H   0  0  0  0  0  0  0  0  0  0  0  0
    0.7798    0.0827    1.2168 H   0  0  0  0  0  0  0  0  0  0  0  0
    1.1471    2.0331    0.1085 H   0  0  0  0  0  0  0  0  0  0  0  0
    0.2697    1.5867   -1.3647 H   0  0  0  0  0  0  0  0  0  0  0  0
   -1.3377    2.0967    1.2057 H   0  0  0  0  0  0  0  0  0  0  0  0
   -0.6255    3.4756    0.3426 H   0  0  0  0  0  0  0  0  0  0  0  0
   -1.9769    1.6885   -1.6253 H   0  0  0  0  0  0  0  0  0  0  0  0
   -2.1215    3.4296   -1.3622 H   0  0  0  0  0  0  0  0  0  0  0  0
   -3.8296    4.3327    0.1777 H   0  0  0  0  0  0  0  0  0  0  0  0
   -6.0599    3.9869    1.1750 H   0  0  0  0  0  0  0  0  0  0  0  0
   -7.0025    1.7079    1.3601 H   0  0  0  0  0  0  0  0  0  0  0  0
   -5.7174   -0.2350    0.5941 H   0  0  0  0  0  0  0  0  0  0  0  0
   -4.2820   -1.7804   -1.1485 H   0  0  0  0  0  0  0  0  0  0  0  0
   -3.9891   -1.7476    0.6401 H   0  0  0  0  0  0  0  0  0  0  0  0
   -2.5907   -3.4554   -0.5623 H   0  0  0  0  0  0  0  0  0  0  0  0
   -1.6859   -2.2715    0.4129 H   0  0  0  0  0  0  0  0  0  0  0  0
   -2.0260   -2.2533   -2.6219 H   0  0  0  0  0  0  0  0  0  0  0  0
    2.1099    0.3633   -1.6096 H   0  0  0  0  0  0  0  0  0  0  0  0
    2.2353   -1.3112   -2.1418 H   0  0  0  0  0  0  0  0  0  0  0  0
  1  2  2  0
  2  3  1  0
  3  4  2  0
  4  5  1  0
  5  6  2  0
  6  7  1  0
  7  8  2  0
  2  9  1  0
  9 10  1  0
 10 11  1  0
 11 12  1  0
 12 13  1  0
 13 14  1  0
 14 15  1  0
 15 16  1  0
 16 17  1  0
 17 18  1  0
 18 19  2  0
 19 20  1  0
 20 21  2  0
 21 22  1  0
 22 23  2  0
 23 24  1  0
 24 25  1  0
 25 26  1  0
 26 27  1  0
 27 28  1  0
 28 29  2  0
 13 30  1  0
  8  3  1  0
 30  9  1  0
 28 13  1  0
 23 18  1  0
  4 31  1  0
  6 32  1  0
  8 33  1  0
 10 34  1  0
 10 35  1  0
 11 36  1  0
 11 37  1  0
 14 38  1  0
 14 39  1  0
 15 40  1  0
 15 41  1  0
 16 42  1  0
 16 43  1  0
 17 44  1  0
 17 45  1  0
 19 46  1  0
 20 47  1  0
 21 48  1  0
 22 49  1  0
 25 50  1  0
 25 51  1  0
 26 52  1  0
 26 53  1  0
 27 54  1  0
 30 55  1  0
 30 56  1  0
M  END
$$$$
