
     RDKit          3D

 86 89  0  0  0  0  0  0  0  0999 V2000
   -5.8688   -4.5348   -0.9069 C   0  0  0  0  0  0  0  0  0  0  0  0
   -4.9453   -3.3524   -0.5662 C   0  0  0  0  0  0  0  0  0  0  0  0
   -3.5003   -3.8628   -0.3851 C   0  0  0  0  0  0  0  0  0  0  0  0
   -5.0390   -2.2759   -1.6778 C   0  0  0  0  0  0  0  0  0  0  0  0
   -4.2520   -0.9805   -1.3858 C   0  0  0  0  0  0  0  0  0  0  0  0
   -4.2948   -0.1087   -2.5624 N   0  0  0  0  0  0  0  0  0  0  0  0
   -3.1563    0.3366   -3.3138 C   0  0  0  0  0  0  0  0  0  0  0  0
   -3.3051    1.3091   -4.0983 O   0  0  0  0  0  0  0  0  0  0  0  0
   -1.8068   -0.3375   -3.2515 C   0  0  0  0  0  0  0  0  0  0  0  0
   -0.9026    0.1665   -2.1063 C   0  0  0  0  0  0  0  0  0  0  0  0
    0.5059   -0.3128   -2.3238 C   0  0  0  0  0  0  0  0  0  0  0  0
    1.2607    0.3090   -3.1240 O   0  0  0  0  0  0  0  0  0  0  0  0
    0.9732   -1.4926   -1.6524 N   0  0  0  0  0  0  0  0  0  0  0  0
    2.3602   -1.9323   -1.7070 C   0  0  0  0  0  0  0  0  0  0  0  0
    3.1650   -1.2252   -0.6563 C   0  0  0  0  0  0  0  0  0  0  0  0
    3.3806   -1.8253    0.5979 C   0  0  0  0  0  0  0  0  0  0  0  0
    4.1301   -1.1644    1.5785 C   0  0  0  0  0  0  0  0  0  0  0  0
    4.6701    0.1091    1.3177 C   0  0  0  0  0  0  0  0  0  0  0  0
    5.5337    0.8048    2.3506 C   0  0  0  0  0  0  0  0  0  0  0  0
    6.9824    0.5383    2.1992 N   0  0  0  0  0  0  0  0  0  0  0  0
    7.5748    1.1106    0.9729 C   0  0  0  0  0  0  0  0  0  0  0  0
    9.0857    0.7753    0.8999 C   0  0  0  0  0  0  0  0  0  0  0  0
    9.5447    0.1660    2.0909 O   0  0  0  0  0  0  0  0  0  0  0  0
    8.8692   -1.0654    2.2816 C   0  0  0  0  0  0  0  0  0  0  0  0
    7.3332   -0.8822    2.3458 C   0  0  0  0  0  0  0  0  0  0  0  0
    4.4080    0.7302    0.0862 C   0  0  0  0  0  0  0  0  0  0  0  0
    3.6729    0.0630   -0.8964 C   0  0  0  0  0  0  0  0  0  0  0  0
   -0.9183    1.6266   -1.9785 N   0  0  0  0  0  0  0  0  0  0  0  0
   -0.5974    2.2414   -0.7254 C   0  0  0  0  0  0  0  0  0  0  0  0
    0.3708    1.8157   -0.0389 O   0  0  0  0  0  0  0  0  0  0  0  0
   -1.4543    3.3044   -0.1840 C   0  0  0  0  0  0  0  0  0  0  0  0
   -1.5931    4.5142   -0.8873 C   0  0  0  0  0  0  0  0  0  0  0  0
   -2.4226    5.5177   -0.3839 C   0  0  0  0  0  0  0  0  0  0  0  0
   -3.1365    5.3162    0.7961 C   0  0  0  0  0  0  0  0  0  0  0  0
   -3.0287    4.1011    1.4816 C   0  0  0  0  0  0  0  0  0  0  0  0
   -2.1878    3.0794    0.9937 C   0  0  0  0  0  0  0  0  0  0  0  0
   -2.0682    1.8287    1.6262 O   0  0  0  0  0  0  0  0  0  0  0  0
   -2.9484    1.3213    2.6263 C   0  0  0  0  0  0  0  0  0  0  0  0
   -4.2938    0.9099    2.0044 C   0  0  0  0  0  0  0  0  0  0  0  0
   -5.2801    0.4597    3.0812 C   0  0  0  0  0  0  0  0  0  0  0  0
   -4.0923   -0.1728    1.0316 N   0  0  0  0  0  0  0  0  0  0  0  0
   -4.8165   -0.2260   -0.2055 C   0  0  0  0  0  0  0  0  0  0  0  0
   -5.9272    0.3629   -0.3150 O   0  0  0  0  0  0  0  0  0  0  0  0
   -5.5948   -4.9764   -1.8919 H   0  0  0  0  0  0  0  0  0  0  0  0
   -6.9284   -4.2024   -0.9360 H   0  0  0  0  0  0  0  0  0  0  0  0
   -5.7900   -5.3157   -0.1282 H   0  0  0  0  0  0  0  0  0  0  0  0
   -5.3001   -2.9180    0.4007 H   0  0  0  0  0  0  0  0  0  0  0  0
   -3.4856   -4.7521    0.2829 H   0  0  0  0  0  0  0  0  0  0  0  0
   -2.8686   -3.0871    0.1020 H   0  0  0  0  0  0  0  0  0  0  0  0
   -3.0425   -4.1315   -1.3664 H   0  0  0  0  0  0  0  0  0  0  0  0
   -6.1076   -2.0196   -1.8412 H   0  0  0  0  0  0  0  0  0  0  0  0
   -4.6554   -2.7064   -2.6337 H   0  0  0  0  0  0  0  0  0  0  0  0
   -3.2106   -1.2677   -1.1623 H   0  0  0  0  0  0  0  0  0  0  0  0
   -5.2324    0.2470   -2.8637 H   0  0  0  0  0  0  0  0  0  0  0  0
   -1.2927   -0.1585   -4.2230 H   0  0  0  0  0  0  0  0  0  0  0  0
   -1.9428   -1.4407   -3.1739 H   0  0  0  0  0  0  0  0  0  0  0  0
   -1.2727   -0.2617   -1.1513 H   0  0  0  0  0  0  0  0  0  0  0  0
    0.3050   -2.0416   -1.0651 H   0  0  0  0  0  0  0  0  0  0  0  0
    2.4043   -3.0298   -1.5460 H   0  0  0  0  0  0  0  0  0  0  0  0
    2.7856   -1.7457   -2.7160 H   0  0  0  0  0  0  0  0  0  0  0  0
    2.9802   -2.8128    0.8104 H   0  0  0  0  0  0  0  0  0  0  0  0
    4.2939   -1.6523    2.5380 H   0  0  0  0  0  0  0  0  0  0  0  0
    5.2134    0.4988    3.3752 H   0  0  0  0  0  0  0  0  0  0  0  0
    5.3587    1.9010    2.3012 H   0  0  0  0  0  0  0  0  0  0  0  0
    7.0822    0.7026    0.0602 H   0  0  0  0  0  0  0  0  0  0  0  0
    7.4364    2.2192    0.9736 H   0  0  0  0  0  0  0  0  0  0  0  0
    9.2894    0.1128    0.0228 H   0  0  0  0  0  0  0  0  0  0  0  0
    9.6580    1.7115    0.7272 H   0  0  0  0  0  0  0  0  0  0  0  0
    9.2154   -1.5158    3.2402 H   0  0  0  0  0  0  0  0  0  0  0  0
    9.1330   -1.7862    1.4687 H   0  0  0  0  0  0  0  0  0  0  0  0
    6.8713   -1.4797    1.5283 H   0  0  0  0  0  0  0  0  0  0  0  0
    6.9447   -1.2628    3.3213 H   0  0  0  0  0  0  0  0  0  0  0  0
    4.7930    1.7257   -0.1116 H   0  0  0  0  0  0  0  0  0  0  0  0
    3.5265    0.5468   -1.8533 H   0  0  0  0  0  0  0  0  0  0  0  0
   -1.3417    2.2159   -2.7352 H   0  0  0  0  0  0  0  0  0  0  0  0
   -1.0371    4.6817   -1.7958 H   0  0  0  0  0  0  0  0  0  0  0  0
   -2.5064    6.4585   -0.9096 H   0  0  0  0  0  0  0  0  0  0  0  0
   -3.7858    6.0929    1.1746 H   0  0  0  0  0  0  0  0  0  0  0  0
   -3.6120    3.9684    2.3855 H   0  0  0  0  0  0  0  0  0  0  0  0
   -2.4624    0.4316    3.0881 H   0  0  0  0  0  0  0  0  0  0  0  0
   -3.0889    2.0692    3.4398 H   0  0  0  0  0  0  0  0  0  0  0  0
   -4.7241    1.7978    1.4920 H   0  0  0  0  0  0  0  0  0  0  0  0
   -4.9207   -0.4676    3.5795 H   0  0  0  0  0  0  0  0  0  0  0  0
   -6.2739    0.2700    2.6282 H   0  0  0  0  0  0  0  0  0  0  0  0
   -5.3823    1.2598    3.8535 H   0  0  0  0  0  0  0  0  0  0  0  0
   -3.4161   -0.9452    1.2567 H   0  0  0  0  0  0  0  0  0  0  0  0
  1  2  1  0
  2  3  1  0
  2  4  1  0
  4  5  1  0
  5  6  1  0
  6  7  1  0
  7  8  2  0
  7  9  1  0
  9 10  1  0
 10 11  1  0
 11 12  2  0
 11 13  1  0
 13 14  1  0
 14 15  1  0
 15 16  2  0
 16 17  1  0
 17 18  2  0
 18 19  1  0
 19 20  1  0
 20 21  1  0
 21 22  1  0
 22 23  1  0
 23 24  1  0
 24 25  1  0
 18 26  1  0
 26 27  2  0
 10 28  1  0
 28 29  1  0
 29 30  2  0
 29 31  1  0
 31 32  2  0
 32 33  1  0
 33 34  2  0
 34 35  1  0
 35 36  2  0
 36 37  1  0
 37 38  1  0
 38 39  1  0
 39 40  1  0
 39 41  1  0
 41 42  1  0
 42 43  2  0
 42  5  1  0
 27 15  1  0
 36 31  1  0
 25 20  1  0
  1 44  1  0
  1 45  1  0
  1 46  1  0
  2 47  1  0
  3 48  1  0
  3 49  1  0
  3 50  1  0
  4 51  1  0
  4 52  1  0
  5 53  1  0
  6 54  1  0
  9 55  1  0
  9 56  1  0
 10 57  1  0
 13 58  1  0
 14 59  1  0
 14 60  1  0
 16 61  1  0
 17 62  1  0
 19 63  1  0
 19 64  1  0
 21 65  1  0
 21 66  1  0
 22 67  1  0
 22 68  1  0
 24 69  1  0
 24 70  1  0
 25 71  1  0
 25 72  1  0
 26 73  1  0
 27 74  1  0
 28 75  1  0
 32 76  1  0
 33 77  1  0
 34 78  1  0
 35 79  1  0
 38 80  1  0
 38 81  1  0
 39 82  1  0
 40 83  1  0
 40 84  1  0
 40 85  1  0
 41 86  1  0
M  END
$$$$
