
     RDKit          3D

 69 71  0  0  0  0  0  0  0  0999 V2000
    3.5364   -0.4746    2.0146 C   0  0  0  0  0  0  0  0  0  0  0  0
    2.8722    0.3220    1.0594 O   0  0  0  0  0  0  0  0  0  0  0  0
    3.7973    0.9095    0.1661 C   0  0  0  0  0  0  0  0  0  0  0  0
    4.0377    0.0235   -1.0764 C   0  0  0  0  0  0  0  0  0  0  0  0
    5.0222    0.6993   -2.0332 C   0  0  0  0  0  0  0  0  0  0  0  0
    4.1527    1.4387   -3.0418 C   0  0  0  0  0  0  0  0  0  0  0  0
    2.8349    0.6763   -3.0694 C   0  0  0  0  0  0  0  0  0  0  0  0
    2.8116   -0.1293   -1.8560 N   0  0  0  0  0  0  0  0  0  0  0  0
    2.0303   -1.3337   -1.8070 C   0  0  0  0  0  0  0  0  0  0  0  0
    2.2131   -2.2189   -2.6859 O   0  0  0  0  0  0  0  0  0  0  0  0
    1.0123   -1.5460   -0.7081 C   0  0  0  0  0  0  0  0  0  0  0  0
    0.0670   -0.3298   -0.5754 C   0  0  0  0  0  0  0  0  0  0  0  0
   -0.8965   -0.1401   -1.7289 C   0  0  0  0  0  0  0  0  0  0  0  0
   -0.6861   -0.7218   -2.8276 O   0  0  0  0  0  0  0  0  0  0  0  0
   -2.0449    0.7184   -1.6173 N   0  0  0  0  0  0  0  0  0  0  0  0
   -2.2524    1.6900   -0.5365 C   0  0  0  0  0  0  0  0  0  0  0  0
   -1.4771    3.0081   -0.8247 C   0  0  0  0  0  0  0  0  0  0  0  0
   -1.6914    3.5560   -2.2430 C   0  0  0  0  0  0  0  0  0  0  0  0
   -1.8256    3.9988    0.1075 O   0  0  0  0  0  0  0  0  0  0  0  0
   -3.7376    1.8817   -0.2735 C   0  0  0  0  0  0  0  0  0  0  0  0
   -4.3345    2.8736   -0.7704 O   0  0  0  0  0  0  0  0  0  0  0  0
   -4.4855    0.9511    0.5425 N   0  0  0  0  0  0  0  0  0  0  0  0
   -5.6585    1.4327    1.2753 C   0  0  0  0  0  0  0  0  0  0  0  0
   -4.1572   -0.4802    0.5805 C   0  0  0  0  0  0  0  0  0  0  0  0
   -3.2993   -0.8271    1.7994 C   0  0  0  0  0  0  0  0  0  0  0  0
   -2.4432   -1.9150    1.4629 O   0  0  0  0  0  0  0  0  0  0  0  0
   -1.3210   -2.3054    2.2065 C   0  0  0  0  0  0  0  0  0  0  0  0
   -1.1591   -1.9443    3.5572 C   0  0  0  0  0  0  0  0  0  0  0  0
   -0.0064   -2.3178    4.2508 C   0  0  0  0  0  0  0  0  0  0  0  0
    0.9909   -3.0550    3.6089 C   0  0  0  0  0  0  0  0  0  0  0  0
    0.8376   -3.4233    2.2700 C   0  0  0  0  0  0  0  0  0  0  0  0
   -0.3184   -3.0566    1.5670 C   0  0  0  0  0  0  0  0  0  0  0  0
   -0.4744   -3.4468    0.1539 C   0  0  0  0  0  0  0  0  0  0  0  0
   -1.2767   -4.3742   -0.1316 O   0  0  0  0  0  0  0  0  0  0  0  0
    0.2419   -2.7851   -0.9023 N   0  0  0  0  0  0  0  0  0  0  0  0
    2.7782   -0.9047    2.7006 H   0  0  0  0  0  0  0  0  0  0  0  0
    4.2366    0.1316    2.6320 H   0  0  0  0  0  0  0  0  0  0  0  0
    4.0698   -1.3230    1.5323 H   0  0  0  0  0  0  0  0  0  0  0  0
    3.3685    1.8785   -0.1668 H   0  0  0  0  0  0  0  0  0  0  0  0
    4.7679    1.1587    0.6558 H   0  0  0  0  0  0  0  0  0  0  0  0
    4.4405   -0.9676   -0.7747 H   0  0  0  0  0  0  0  0  0  0  0  0
    5.6092   -0.0804   -2.5641 H   0  0  0  0  0  0  0  0  0  0  0  0
    5.7280    1.3904   -1.5244 H   0  0  0  0  0  0  0  0  0  0  0  0
    4.6314    1.4685   -4.0447 H   0  0  0  0  0  0  0  0  0  0  0  0
    3.9776    2.4787   -2.6878 H   0  0  0  0  0  0  0  0  0  0  0  0
    1.9688    1.3733   -3.0793 H   0  0  0  0  0  0  0  0  0  0  0  0
    2.7928    0.0234   -3.9707 H   0  0  0  0  0  0  0  0  0  0  0  0
    1.5930   -1.6459    0.2283 H   0  0  0  0  0  0  0  0  0  0  0  0
   -0.5070   -0.4577    0.3595 H   0  0  0  0  0  0  0  0  0  0  0  0
    0.6638    0.5990   -0.4580 H   0  0  0  0  0  0  0  0  0  0  0  0
   -2.7126    0.7345   -2.4228 H   0  0  0  0  0  0  0  0  0  0  0  0
   -1.8319    1.2947    0.4060 H   0  0  0  0  0  0  0  0  0  0  0  0
   -0.3852    2.7959   -0.7333 H   0  0  0  0  0  0  0  0  0  0  0  0
   -1.3589    2.8215   -3.0050 H   0  0  0  0  0  0  0  0  0  0  0  0
   -1.0889    4.4795   -2.3793 H   0  0  0  0  0  0  0  0  0  0  0  0
   -2.7532    3.8075   -2.4261 H   0  0  0  0  0  0  0  0  0  0  0  0
   -1.4238    3.7316    0.9762 H   0  0  0  0  0  0  0  0  0  0  0  0
   -6.4591    1.7112    0.5575 H   0  0  0  0  0  0  0  0  0  0  0  0
   -5.3852    2.3201    1.8853 H   0  0  0  0  0  0  0  0  0  0  0  0
   -6.0534    0.6488    1.9584 H   0  0  0  0  0  0  0  0  0  0  0  0
   -5.0901   -1.0847    0.6063 H   0  0  0  0  0  0  0  0  0  0  0  0
   -3.6429   -0.7768   -0.3544 H   0  0  0  0  0  0  0  0  0  0  0  0
   -3.9517   -1.1132    2.6520 H   0  0  0  0  0  0  0  0  0  0  0  0
   -2.6860    0.0471    2.1048 H   0  0  0  0  0  0  0  0  0  0  0  0
   -1.9200   -1.3744    4.0729 H   0  0  0  0  0  0  0  0  0  0  0  0
    0.1148   -2.0388    5.2904 H   0  0  0  0  0  0  0  0  0  0  0  0
    1.8840   -3.3397    4.1489 H   0  0  0  0  0  0  0  0  0  0  0  0
    1.6202   -3.9918    1.7788 H   0  0  0  0  0  0  0  0  0  0  0  0
    0.0923   -3.1507   -1.8684 H   0  0  0  0  0  0  0  0  0  0  0  0
  1  2  1  0
  2  3  1  0
  3  4  1  0
  4  5  1  0
  5  6  1  0
  6  7  1  0
  7  8  1  0
  8  9  1  0
  9 10  2  0
  9 11  1  0
 11 12  1  0
 12 13  1  0
 13 14  2  0
 13 15  1  0
 15 16  1  0
 16 17  1  0
 17 18  1  0
 17 19  1  0
 16 20  1  0
 20 21  2  0
 20 22  1  0
 22 23  1  0
 22 24  1  0
 24 25  1  0
 25 26  1  0
 26 27  1  0
 27 28  2  0
 28 29  1  0
 29 30  2  0
 30 31  1  0
 31 32  2  0
 32 33  1  0
 33 34  2  0
 33 35  1  0
  8  4  1  0
 35 11  1  0
 32 27  1  0
  1 36  1  0
  1 37  1  0
  1 38  1  0
  3 39  1  0
  3 40  1  0
  4 41  1  0
  5 42  1  0
  5 43  1  0
  6 44  1  0
  6 45  1  0
  7 46  1  0
  7 47  1  0
 11 48  1  0
 12 49  1  0
 12 50  1  0
 15 51  1  0
 16 52  1  0
 17 53  1  0
 18 54  1  0
 18 55  1  0
 18 56  1  0
 19 57  1  0
 23 58  1  0
 23 59  1  0
 23 60  1  0
 24 61  1  0
 24 62  1  0
 25 63  1  0
 25 64  1  0
 28 65  1  0
 29 66  1  0
 30 67  1  0
 31 68  1  0
 35 69  1  0
M  END
$$$$
