
     RDKit          3D

 70 74  0  0  0  0  0  0  0  0999 V2000
   -4.0726   -4.2895    1.3259 C   0  0  0  0  0  0  0  0  0  0  0  0
   -3.5581   -2.9655    0.9987 N   0  0  0  0  0  0  0  0  0  0  0  0
   -3.6209   -2.4438   -0.3361 C   0  0  0  0  0  0  0  0  0  0  0  0
   -4.1247   -3.1498   -1.2541 O   0  0  0  0  0  0  0  0  0  0  0  0
   -3.0513   -1.0622   -0.6516 C   0  0  0  0  0  0  0  0  0  0  0  0
   -1.5158   -1.0742   -0.3724 C   0  0  0  0  0  0  0  0  0  0  0  0
   -0.6881   -2.0952   -1.1689 C   0  0  0  0  0  0  0  0  0  0  0  0
    0.7967   -2.0660   -0.7507 C   0  0  0  0  0  0  0  0  0  0  0  0
    1.5956   -0.8691   -1.3227 C   0  0  0  0  0  0  0  0  0  0  0  0
    1.9160    0.1361   -0.2884 N   0  0  0  0  0  0  0  0  0  0  0  0
    3.1103    0.0376    0.5294 C   0  0  0  0  0  0  0  0  0  0  0  0
    3.4771    1.0386    1.2057 O   0  0  0  0  0  0  0  0  0  0  0  0
    3.9450   -1.1831    0.5974 C   0  0  0  0  0  0  0  0  0  0  0  0
    3.4748   -2.4503    0.5049 N   0  0  0  0  0  0  0  0  0  0  0  0
    4.4847   -3.2935    0.6894 N   0  0  0  0  0  0  0  0  0  0  0  0
    5.5975   -2.5781    0.9127 C   0  0  0  0  0  0  0  0  0  0  0  0
    6.8870   -3.0427    1.1613 C   0  0  0  0  0  0  0  0  0  0  0  0
    7.8990   -2.0837    1.3599 C   0  0  0  0  0  0  0  0  0  0  0  0
    7.5977   -0.7025    1.3047 C   0  0  0  0  0  0  0  0  0  0  0  0
    6.2818   -0.2668    1.0518 C   0  0  0  0  0  0  0  0  0  0  0  0
    5.3021   -1.2435    0.8669 C   0  0  0  0  0  0  0  0  0  0  0  0
    1.1403    1.3903   -0.2408 C   0  0  0  0  0  0  0  0  0  0  0  0
    0.3252    1.4810    1.0581 C   0  0  0  0  0  0  0  0  0  0  0  0
   -0.9752    2.0031    0.7797 O   0  0  0  0  0  0  0  0  0  0  0  0
   -1.2725    3.3666    0.6959 C   0  0  0  0  0  0  0  0  0  0  0  0
   -0.8620    4.2485    1.7094 C   0  0  0  0  0  0  0  0  0  0  0  0
   -1.1669    5.6080    1.6287 C   0  0  0  0  0  0  0  0  0  0  0  0
   -1.8821    6.1005    0.5378 C   0  0  0  0  0  0  0  0  0  0  0  0
   -2.2939    5.2352   -0.4766 C   0  0  0  0  0  0  0  0  0  0  0  0
   -2.0060    3.8607   -0.4056 C   0  0  0  0  0  0  0  0  0  0  0  0
   -2.3761    2.9934   -1.5523 C   0  0  0  0  0  0  0  0  0  0  0  0
   -2.2013    3.4403   -2.7193 O   0  0  0  0  0  0  0  0  0  0  0  0
   -2.9263    1.6687   -1.3789 N   0  0  0  0  0  0  0  0  0  0  0  0
   -3.9027    1.3993   -0.3146 C   0  0  0  0  0  0  0  0  0  0  0  0
   -3.7329   -0.0129    0.2888 C   0  0  0  0  0  0  0  0  0  0  0  0
   -2.8032    0.7147   -2.4928 C   0  0  0  0  0  0  0  0  0  0  0  0
   -3.3548   -0.6727   -2.1272 C   0  0  0  0  0  0  0  0  0  0  0  0
   -3.9248   -4.4918    2.4071 H   0  0  0  0  0  0  0  0  0  0  0  0
   -5.1579   -4.3393    1.0962 H   0  0  0  0  0  0  0  0  0  0  0  0
   -3.5300   -5.0593    0.7369 H   0  0  0  0  0  0  0  0  0  0  0  0
   -3.1368   -2.3947    1.7662 H   0  0  0  0  0  0  0  0  0  0  0  0
   -1.3394   -1.2521    0.7080 H   0  0  0  0  0  0  0  0  0  0  0  0
   -1.1150   -0.0783   -0.5972 H   0  0  0  0  0  0  0  0  0  0  0  0
   -1.0820   -3.1144   -0.9681 H   0  0  0  0  0  0  0  0  0  0  0  0
   -0.7719   -1.9079   -2.2597 H   0  0  0  0  0  0  0  0  0  0  0  0
    1.2615   -3.0010   -1.1323 H   0  0  0  0  0  0  0  0  0  0  0  0
    0.8754   -2.1018    0.3568 H   0  0  0  0  0  0  0  0  0  0  0  0
    1.0417   -0.4052   -2.1677 H   0  0  0  0  0  0  0  0  0  0  0  0
    2.5405   -1.2349   -1.7796 H   0  0  0  0  0  0  0  0  0  0  0  0
    4.3996   -4.3332    0.6742 H   0  0  0  0  0  0  0  0  0  0  0  0
    7.1032   -4.1034    1.1957 H   0  0  0  0  0  0  0  0  0  0  0  0
    8.9144   -2.4063    1.5535 H   0  0  0  0  0  0  0  0  0  0  0  0
    8.3862    0.0242    1.4500 H   0  0  0  0  0  0  0  0  0  0  0  0
    6.0507    0.7891    0.9980 H   0  0  0  0  0  0  0  0  0  0  0  0
    0.4604    1.4654   -1.1171 H   0  0  0  0  0  0  0  0  0  0  0  0
    1.8199    2.2667   -0.3207 H   0  0  0  0  0  0  0  0  0  0  0  0
    0.8592    2.0894    1.8157 H   0  0  0  0  0  0  0  0  0  0  0  0
    0.1969    0.4686    1.4934 H   0  0  0  0  0  0  0  0  0  0  0  0
   -0.3277    3.8836    2.5760 H   0  0  0  0  0  0  0  0  0  0  0  0
   -0.8513    6.2794    2.4163 H   0  0  0  0  0  0  0  0  0  0  0  0
   -2.1177    7.1556    0.4792 H   0  0  0  0  0  0  0  0  0  0  0  0
   -2.8409    5.6385   -1.3216 H   0  0  0  0  0  0  0  0  0  0  0  0
   -4.9216    1.4864   -0.7509 H   0  0  0  0  0  0  0  0  0  0  0  0
   -3.8365    2.1523    0.4985 H   0  0  0  0  0  0  0  0  0  0  0  0
   -3.1678    0.0788    1.2440 H   0  0  0  0  0  0  0  0  0  0  0  0
   -4.7479   -0.3653    0.5786 H   0  0  0  0  0  0  0  0  0  0  0  0
   -1.7312    0.6169   -2.7719 H   0  0  0  0  0  0  0  0  0  0  0  0
   -3.3501    1.1013   -3.3794 H   0  0  0  0  0  0  0  0  0  0  0  0
   -2.9441   -1.4227   -2.8343 H   0  0  0  0  0  0  0  0  0  0  0  0
   -4.4584   -0.6621   -2.2791 H   0  0  0  0  0  0  0  0  0  0  0  0
  1  2  1  0
  2  3  1  0
  3  4  2  0
  3  5  1  0
  5  6  1  0
  6  7  1  0
  7  8  1  0
  8  9  1  0
  9 10  1  0
 10 11  1  0
 11 12  2  0
 11 13  1  0
 13 14  2  0
 14 15  1  0
 15 16  1  0
 16 17  2  0
 17 18  1  0
 18 19  2  0
 19 20  1  0
 20 21  2  0
 10 22  1  0
 22 23  1  0
 23 24  1  0
 24 25  1  0
 25 26  2  0
 26 27  1  0
 27 28  2  0
 28 29  1  0
 29 30  2  0
 30 31  1  0
 31 32  2  0
 31 33  1  0
 33 34  1  0
 34 35  1  0
 33 36  1  0
 36 37  1  0
 35  5  1  0
 37  5  1  0
 21 13  1  0
 30 25  1  0
 21 16  1  0
  1 38  1  0
  1 39  1  0
  1 40  1  0
  2 41  1  0
  6 42  1  0
  6 43  1  0
  7 44  1  0
  7 45  1  0
  8 46  1  0
  8 47  1  0
  9 48  1  0
  9 49  1  0
 15 50  1  0
 17 51  1  0
 18 52  1  0
 19 53  1  0
 20 54  1  0
 22 55  1  0
 22 56  1  0
 23 57  1  0
 23 58  1  0
 26 59  1  0
 27 60  1  0
 28 61  1  0
 29 62  1  0
 34 63  1  0
 34 64  1  0
 35 65  1  0
 35 66  1  0
 36 67  1  0
 36 68  1  0
 37 69  1  0
 37 70  1  0
M  END
$$$$
