
     RDKit          3D

 75 78  0  0  0  0  0  0  0  0999 V2000
   -4.3549   -4.7758   -0.7351 C   0  0  0  0  0  0  0  0  0  0  0  0
   -5.1133   -3.4919   -0.3710 C   0  0  0  0  0  0  0  0  0  0  0  0
   -4.7079   -2.3705   -1.2296 N   0  0  0  0  0  0  0  0  0  0  0  0
   -3.3903   -1.8174   -1.4115 C   0  0  0  0  0  0  0  0  0  0  0  0
   -3.2114   -1.0279   -2.3784 O   0  0  0  0  0  0  0  0  0  0  0  0
   -2.1989   -2.2088   -0.5686 C   0  0  0  0  0  0  0  0  0  0  0  0
   -1.2400   -1.0253   -0.3061 C   0  0  0  0  0  0  0  0  0  0  0  0
    0.1463   -1.5318   -0.0089 C   0  0  0  0  0  0  0  0  0  0  0  0
    0.4361   -1.9301    1.1531 O   0  0  0  0  0  0  0  0  0  0  0  0
    1.1273   -1.5847   -1.0543 N   0  0  0  0  0  0  0  0  0  0  0  0
    2.5634   -1.5735   -0.7763 C   0  0  0  0  0  0  0  0  0  0  0  0
    3.1470   -0.1786   -0.8352 C   0  0  0  0  0  0  0  0  0  0  0  0
    2.3438    0.9798   -0.8460 C   0  0  0  0  0  0  0  0  0  0  0  0
    2.9311    2.2462   -0.8796 C   0  0  0  0  0  0  0  0  0  0  0  0
    4.3201    2.3769   -0.8894 C   0  0  0  0  0  0  0  0  0  0  0  0
    5.1362    1.2369   -0.8689 C   0  0  0  0  0  0  0  0  0  0  0  0
    6.6323    1.3736   -0.8202 C   0  0  0  0  0  0  0  0  0  0  0  0
    7.0962    1.3077    0.5641 N   0  0  0  0  0  0  0  0  0  0  0  0
    7.6652    0.1265    1.1866 C   0  0  0  0  0  0  0  0  0  0  0  0
    7.9934    0.5277    2.6394 C   0  0  0  0  0  0  0  0  0  0  0  0
    7.5172    1.9758    2.8400 C   0  0  0  0  0  0  0  0  0  0  0  0
    7.0130    2.3575    1.5073 C   0  0  0  0  0  0  0  0  0  0  0  0
    6.5565    3.4990    1.2326 O   0  0  0  0  0  0  0  0  0  0  0  0
    4.5440   -0.0355   -0.8317 C   0  0  0  0  0  0  0  0  0  0  0  0
   -1.7127   -0.2096    0.8178 N   0  0  0  0  0  0  0  0  0  0  0  0
   -1.5725    1.2166    0.8156 C   0  0  0  0  0  0  0  0  0  0  0  0
   -1.0443    1.7888    1.8055 O   0  0  0  0  0  0  0  0  0  0  0  0
   -2.0389    2.0221   -0.3277 C   0  0  0  0  0  0  0  0  0  0  0  0
   -1.1775    2.9669   -0.9071 C   0  0  0  0  0  0  0  0  0  0  0  0
   -1.5756    3.6815   -2.0401 C   0  0  0  0  0  0  0  0  0  0  0  0
   -2.8366    3.4603   -2.6002 C   0  0  0  0  0  0  0  0  0  0  0  0
   -3.7121    2.5429   -2.0135 C   0  0  0  0  0  0  0  0  0  0  0  0
   -3.3315    1.8404   -0.8642 C   0  0  0  0  0  0  0  0  0  0  0  0
   -4.2496    0.9784   -0.2573 O   0  0  0  0  0  0  0  0  0  0  0  0
   -4.8918    1.3085    0.9743 C   0  0  0  0  0  0  0  0  0  0  0  0
   -5.1227    0.0461    1.8022 C   0  0  0  0  0  0  0  0  0  0  0  0
   -6.1868   -0.8753    1.1946 C   0  0  0  0  0  0  0  0  0  0  0  0
   -5.9967   -2.2370    1.6908 N   0  0  0  0  0  0  0  0  0  0  0  0
   -5.0563   -3.1502    1.1038 C   0  0  0  0  0  0  0  0  0  0  0  0
   -4.2467   -3.7539    1.8597 O   0  0  0  0  0  0  0  0  0  0  0  0
   -4.8069   -5.6432   -0.2085 H   0  0  0  0  0  0  0  0  0  0  0  0
   -3.2861   -4.7184   -0.4537 H   0  0  0  0  0  0  0  0  0  0  0  0
   -4.4265   -4.9584   -1.8282 H   0  0  0  0  0  0  0  0  0  0  0  0
   -6.1843   -3.7062   -0.5869 H   0  0  0  0  0  0  0  0  0  0  0  0
   -5.4505   -1.9887   -1.8588 H   0  0  0  0  0  0  0  0  0  0  0  0
   -2.5149   -2.6314    0.4025 H   0  0  0  0  0  0  0  0  0  0  0  0
   -1.6603   -3.0079   -1.1239 H   0  0  0  0  0  0  0  0  0  0  0  0
   -1.1661   -0.3937   -1.2184 H   0  0  0  0  0  0  0  0  0  0  0  0
    0.8214   -1.4282   -2.0418 H   0  0  0  0  0  0  0  0  0  0  0  0
    3.0706   -2.2131   -1.5307 H   0  0  0  0  0  0  0  0  0  0  0  0
    2.7728   -2.0138    0.2219 H   0  0  0  0  0  0  0  0  0  0  0  0
    1.2646    0.9175   -0.8323 H   0  0  0  0  0  0  0  0  0  0  0  0
    2.3078    3.1304   -0.8931 H   0  0  0  0  0  0  0  0  0  0  0  0
    4.7580    3.3672   -0.9060 H   0  0  0  0  0  0  0  0  0  0  0  0
    6.9590    2.3318   -1.2801 H   0  0  0  0  0  0  0  0  0  0  0  0
    7.1002    0.5559   -1.4118 H   0  0  0  0  0  0  0  0  0  0  0  0
    8.5871   -0.1784    0.6462 H   0  0  0  0  0  0  0  0  0  0  0  0
    6.9256   -0.7025    1.1686 H   0  0  0  0  0  0  0  0  0  0  0  0
    9.0891    0.4613    2.8147 H   0  0  0  0  0  0  0  0  0  0  0  0
    7.4798   -0.1516    3.3537 H   0  0  0  0  0  0  0  0  0  0  0  0
    8.3578    2.6373    3.1397 H   0  0  0  0  0  0  0  0  0  0  0  0
    6.6959    2.0271    3.5861 H   0  0  0  0  0  0  0  0  0  0  0  0
    5.1726   -0.9180   -0.7978 H   0  0  0  0  0  0  0  0  0  0  0  0
   -1.8109   -0.6765    1.7479 H   0  0  0  0  0  0  0  0  0  0  0  0
   -0.1888    3.1322   -0.4963 H   0  0  0  0  0  0  0  0  0  0  0  0
   -0.9023    4.3991   -2.4905 H   0  0  0  0  0  0  0  0  0  0  0  0
   -3.1403    4.0100   -3.4814 H   0  0  0  0  0  0  0  0  0  0  0  0
   -4.6965    2.3929   -2.4383 H   0  0  0  0  0  0  0  0  0  0  0  0
   -5.8571    1.8178    0.7654 H   0  0  0  0  0  0  0  0  0  0  0  0
   -4.2562    2.0040    1.5683 H   0  0  0  0  0  0  0  0  0  0  0  0
   -4.1611   -0.4987    1.8956 H   0  0  0  0  0  0  0  0  0  0  0  0
   -5.4396    0.3353    2.8276 H   0  0  0  0  0  0  0  0  0  0  0  0
   -7.1939   -0.5165    1.4951 H   0  0  0  0  0  0  0  0  0  0  0  0
   -6.1603   -0.8513    0.0898 H   0  0  0  0  0  0  0  0  0  0  0  0
   -6.2597   -2.4057    2.6880 H   0  0  0  0  0  0  0  0  0  0  0  0
  1  2  1  0
  2  3  1  0
  3  4  1  0
  4  5  2  0
  4  6  1  0
  6  7  1  0
  7  8  1  0
  8  9  2  0
  8 10  1  0
 10 11  1  0
 11 12  1  0
 12 13  2  0
 13 14  1  0
 14 15  2  0
 15 16  1  0
 16 17  1  0
 17 18  1  0
 18 19  1  0
 19 20  1  0
 20 21  1  0
 21 22  1  0
 22 23  2  0
 16 24  2  0
  7 25  1  0
 25 26  1  0
 26 27  2  0
 26 28  1  0
 28 29  2  0
 29 30  1  0
 30 31  2  0
 31 32  1  0
 32 33  2  0
 33 34  1  0
 34 35  1  0
 35 36  1  0
 36 37  1  0
 37 38  1  0
 38 39  1  0
 39 40  2  0
 39  2  1  0
 24 12  1  0
 33 28  1  0
 22 18  1  0
  1 41  1  0
  1 42  1  0
  1 43  1  0
  2 44  1  0
  3 45  1  0
  6 46  1  0
  6 47  1  0
  7 48  1  0
 10 49  1  0
 11 50  1  0
 11 51  1  0
 13 52  1  0
 14 53  1  0
 15 54  1  0
 17 55  1  0
 17 56  1  0
 19 57  1  0
 19 58  1  0
 20 59  1  0
 20 60  1  0
 21 61  1  0
 21 62  1  0
 24 63  1  0
 25 64  1  0
 29 65  1  0
 30 66  1  0
 31 67  1  0
 32 68  1  0
 35 69  1  0
 35 70  1  0
 36 71  1  0
 36 72  1  0
 37 73  1  0
 37 74  1  0
 38 75  1  0
M  END
$$$$
