
     RDKit          3D

 80 82  0  0  0  0  0  0  0  0999 V2000
   -7.2964    0.0897    1.5951 C   0  0  0  0  0  0  0  0  0  0  0  0
   -6.4968   -1.1245    2.0690 C   0  0  0  0  0  0  0  0  0  0  0  0
   -5.0013   -1.0078    1.7436 C   0  0  0  0  0  0  0  0  0  0  0  0
   -4.7051   -1.1933    0.2509 C   0  0  0  0  0  0  0  0  0  0  0  0
   -3.2566   -1.1073    0.0128 N   0  0  0  0  0  0  0  0  0  0  0  0
   -2.4661   -2.3490   -0.0347 C   0  0  0  0  0  0  0  0  0  0  0  0
   -1.9352   -2.6211   -1.4418 C   0  0  0  0  0  0  0  0  0  0  0  0
   -0.9991   -1.6200   -1.8308 O   0  0  0  0  0  0  0  0  0  0  0  0
   -0.0355   -1.8723   -2.8074 C   0  0  0  0  0  0  0  0  0  0  0  0
   -0.2500   -1.4408   -4.1211 C   0  0  0  0  0  0  0  0  0  0  0  0
    0.6817   -1.7433   -5.1190 C   0  0  0  0  0  0  0  0  0  0  0  0
    1.8276   -2.4811   -4.8078 C   0  0  0  0  0  0  0  0  0  0  0  0
    2.0566   -2.8997   -3.4928 C   0  0  0  0  0  0  0  0  0  0  0  0
    1.1366   -2.5803   -2.4844 C   0  0  0  0  0  0  0  0  0  0  0  0
    1.4103   -2.9537   -1.0891 C   0  0  0  0  0  0  0  0  0  0  0  0
    1.5208   -4.1683   -0.7760 O   0  0  0  0  0  0  0  0  0  0  0  0
    1.5158   -1.9442   -0.0800 N   0  0  0  0  0  0  0  0  0  0  0  0
    2.4694   -0.8379   -0.2204 C   0  0  0  0  0  0  0  0  0  0  0  0
    3.6960   -1.1138    0.6245 C   0  0  0  0  0  0  0  0  0  0  0  0
    3.5381   -1.6701    1.7464 O   0  0  0  0  0  0  0  0  0  0  0  0
    5.0206   -0.6938    0.2204 N   0  0  0  0  0  0  0  0  0  0  0  0
    5.2602   -0.1030   -1.1001 C   0  0  0  0  0  0  0  0  0  0  0  0
    6.1554   -0.8807    1.1380 C   0  0  0  0  0  0  0  0  0  0  0  0
    6.1688    0.2038    2.2218 C   0  0  0  0  0  0  0  0  0  0  0  0
    6.1179    1.4976    1.6503 O   0  0  0  0  0  0  0  0  0  0  0  0
    7.4209    1.9858    1.4194 C   0  0  0  0  0  0  0  0  0  0  0  0
    1.8274    0.4911    0.2176 C   0  0  0  0  0  0  0  0  0  0  0  0
    0.9069    1.0497   -0.8391 C   0  0  0  0  0  0  0  0  0  0  0  0
    1.4053    1.4059   -1.9411 O   0  0  0  0  0  0  0  0  0  0  0  0
   -0.4972    1.2618   -0.6179 N   0  0  0  0  0  0  0  0  0  0  0  0
   -1.2987    0.5529    0.3884 C   0  0  0  0  0  0  0  0  0  0  0  0
   -1.4431    1.3877    1.6789 C   0  0  0  0  0  0  0  0  0  0  0  0
   -1.9431    2.7916    1.4367 C   0  0  0  0  0  0  0  0  0  0  0  0
   -1.0337    3.8236    1.1442 C   0  0  0  0  0  0  0  0  0  0  0  0
   -1.4928    5.1243    0.9159 C   0  0  0  0  0  0  0  0  0  0  0  0
   -2.8620    5.4039    0.9709 C   0  0  0  0  0  0  0  0  0  0  0  0
   -3.7734    4.3827    1.2559 C   0  0  0  0  0  0  0  0  0  0  0  0
   -3.3182    3.0817    1.4920 C   0  0  0  0  0  0  0  0  0  0  0  0
   -2.6577    0.1937   -0.1830 C   0  0  0  0  0  0  0  0  0  0  0  0
   -3.3097    1.0804   -0.7993 O   0  0  0  0  0  0  0  0  0  0  0  0
   -6.8617    1.0249    2.0062 H   0  0  0  0  0  0  0  0  0  0  0  0
   -7.3120    0.1455    0.4869 H   0  0  0  0  0  0  0  0  0  0  0  0
   -8.3452    0.0031    1.9505 H   0  0  0  0  0  0  0  0  0  0  0  0
   -6.6114   -1.2053    3.1714 H   0  0  0  0  0  0  0  0  0  0  0  0
   -6.9183   -2.0494    1.6181 H   0  0  0  0  0  0  0  0  0  0  0  0
   -4.4603   -1.7970    2.3087 H   0  0  0  0  0  0  0  0  0  0  0  0
   -4.6147   -0.0254    2.0881 H   0  0  0  0  0  0  0  0  0  0  0  0
   -5.0940   -2.1800   -0.0825 H   0  0  0  0  0  0  0  0  0  0  0  0
   -5.2366   -0.4281   -0.3514 H   0  0  0  0  0  0  0  0  0  0  0  0
   -3.0952   -3.2165    0.2610 H   0  0  0  0  0  0  0  0  0  0  0  0
   -1.6389   -2.3281    0.7025 H   0  0  0  0  0  0  0  0  0  0  0  0
   -2.7754   -2.6402   -2.1693 H   0  0  0  0  0  0  0  0  0  0  0  0
   -1.4484   -3.6212   -1.4435 H   0  0  0  0  0  0  0  0  0  0  0  0
   -1.1448   -0.8862   -4.3711 H   0  0  0  0  0  0  0  0  0  0  0  0
    0.5104   -1.4142   -6.1365 H   0  0  0  0  0  0  0  0  0  0  0  0
    2.5446   -2.7187   -5.5836 H   0  0  0  0  0  0  0  0  0  0  0  0
    2.9578   -3.4523   -3.2567 H   0  0  0  0  0  0  0  0  0  0  0  0
    1.1352   -2.1615    0.8686 H   0  0  0  0  0  0  0  0  0  0  0  0
    2.7672   -0.7552   -1.2853 H   0  0  0  0  0  0  0  0  0  0  0  0
    4.6257    0.7970   -1.2344 H   0  0  0  0  0  0  0  0  0  0  0  0
    5.0348   -0.8471   -1.8910 H   0  0  0  0  0  0  0  0  0  0  0  0
    6.3163    0.2160   -1.2182 H   0  0  0  0  0  0  0  0  0  0  0  0
    7.1190   -0.8654    0.5863 H   0  0  0  0  0  0  0  0  0  0  0  0
    6.0942   -1.8823    1.6169 H   0  0  0  0  0  0  0  0  0  0  0  0
    7.0439    0.0540    2.8977 H   0  0  0  0  0  0  0  0  0  0  0  0
    5.2682    0.0784    2.8586 H   0  0  0  0  0  0  0  0  0  0  0  0
    7.9723    2.1250    2.3757 H   0  0  0  0  0  0  0  0  0  0  0  0
    7.9899    1.3199    0.7349 H   0  0  0  0  0  0  0  0  0  0  0  0
    7.3447    2.9773    0.9277 H   0  0  0  0  0  0  0  0  0  0  0  0
    2.6250    1.2485    0.3822 H   0  0  0  0  0  0  0  0  0  0  0  0
    1.3191    0.3632    1.1939 H   0  0  0  0  0  0  0  0  0  0  0  0
   -0.9761    1.9468   -1.2483 H   0  0  0  0  0  0  0  0  0  0  0  0
   -0.7712   -0.3750    0.6640 H   0  0  0  0  0  0  0  0  0  0  0  0
   -2.1228    0.8604    2.3846 H   0  0  0  0  0  0  0  0  0  0  0  0
   -0.4620    1.4407    2.1966 H   0  0  0  0  0  0  0  0  0  0  0  0
    0.0289    3.6181    1.0924 H   0  0  0  0  0  0  0  0  0  0  0  0
   -0.7874    5.9151    0.6928 H   0  0  0  0  0  0  0  0  0  0  0  0
   -3.2154    6.4116    0.7929 H   0  0  0  0  0  0  0  0  0  0  0  0
   -4.8333    4.5993    1.2934 H   0  0  0  0  0  0  0  0  0  0  0  0
   -4.0368    2.3022    1.7126 H   0  0  0  0  0  0  0  0  0  0  0  0
  1  2  1  0
  2  3  1  0
  3  4  1  0
  4  5  1  0
  5  6  1  0
  6  7  1  0
  7  8  1  0
  8  9  1  0
  9 10  2  0
 10 11  1  0
 11 12  2  0
 12 13  1  0
 13 14  2  0
 14 15  1  0
 15 16  2  0
 15 17  1  0
 17 18  1  0
 18 19  1  0
 19 20  2  0
 19 21  1  0
 21 22  1  0
 21 23  1  0
 23 24  1  0
 24 25  1  0
 25 26  1  0
 18 27  1  0
 27 28  1  0
 28 29  2  0
 28 30  1  0
 30 31  1  0
 31 32  1  0
 32 33  1  0
 33 34  2  0
 34 35  1  0
 35 36  2  0
 36 37  1  0
 37 38  2  0
 31 39  1  0
 39 40  2  0
 39  5  1  0
 14  9  1  0
 38 33  1  0
  1 41  1  0
  1 42  1  0
  1 43  1  0
  2 44  1  0
  2 45  1  0
  3 46  1  0
  3 47  1  0
  4 48  1  0
  4 49  1  0
  6 50  1  0
  6 51  1  0
  7 52  1  0
  7 53  1  0
 10 54  1  0
 11 55  1  0
 12 56  1  0
 13 57  1  0
 17 58  1  0
 18 59  1  0
 22 60  1  0
 22 61  1  0
 22 62  1  0
 23 63  1  0
 23 64  1  0
 24 65  1  0
 24 66  1  0
 26 67  1  0
 26 68  1  0
 26 69  1  0
 27 70  1  0
 27 71  1  0
 30 72  1  0
 31 73  1  0
 32 74  1  0
 32 75  1  0
 34 76  1  0
 35 77  1  0
 36 78  1  0
 37 79  1  0
 38 80  1  0
M  END
$$$$
