
     RDKit          3D

 92 96  0  0  0  0  0  0  0  0999 V2000
   10.2278   -3.2454    2.3468 C   0  0  0  0  0  0  0  0  0  0  0  0
    9.2159   -2.1133    2.4256 C   0  0  0  0  0  0  0  0  0  0  0  0
    8.2440   -2.2714    1.3966 O   0  0  0  0  0  0  0  0  0  0  0  0
    7.1713   -1.3935    1.1732 C   0  0  0  0  0  0  0  0  0  0  0  0
    6.9435   -0.2707    1.9908 C   0  0  0  0  0  0  0  0  0  0  0  0
    5.8714    0.5851    1.7340 C   0  0  0  0  0  0  0  0  0  0  0  0
    5.0040    0.3341    0.6615 C   0  0  0  0  0  0  0  0  0  0  0  0
    3.8559    1.2703    0.3747 C   0  0  0  0  0  0  0  0  0  0  0  0
    4.0542    1.9839   -0.9700 C   0  0  0  0  0  0  0  0  0  0  0  0
    3.1267    3.1943   -1.1465 C   0  0  0  0  0  0  0  0  0  0  0  0
    1.7238    2.8741   -0.8795 N   0  0  0  0  0  0  0  0  0  0  0  0
    0.9437    2.0227   -1.7375 C   0  0  0  0  0  0  0  0  0  0  0  0
    1.5116    1.4414   -2.7017 O   0  0  0  0  0  0  0  0  0  0  0  0
   -0.5734    1.9690   -1.6302 C   0  0  0  0  0  0  0  0  0  0  0  0
   -1.1380    1.8998   -0.1873 C   0  0  0  0  0  0  0  0  0  0  0  0
   -2.5597    2.4107   -0.1462 C   0  0  0  0  0  0  0  0  0  0  0  0
   -2.7757    3.6173   -0.4460 O   0  0  0  0  0  0  0  0  0  0  0  0
   -3.6792    1.5683    0.1672 N   0  0  0  0  0  0  0  0  0  0  0  0
   -3.7111    0.6658    1.3217 C   0  0  0  0  0  0  0  0  0  0  0  0
   -4.0967    1.4558    2.5949 C   0  0  0  0  0  0  0  0  0  0  0  0
   -5.4311    2.1565    2.4790 C   0  0  0  0  0  0  0  0  0  0  0  0
   -5.4969    3.4805    2.0109 C   0  0  0  0  0  0  0  0  0  0  0  0
   -6.7318    4.1218    1.8772 C   0  0  0  0  0  0  0  0  0  0  0  0
   -7.9097    3.4475    2.2079 C   0  0  0  0  0  0  0  0  0  0  0  0
   -7.8548    2.1315    2.6738 C   0  0  0  0  0  0  0  0  0  0  0  0
   -6.6212    1.4881    2.8139 C   0  0  0  0  0  0  0  0  0  0  0  0
   -4.6393   -0.5159    1.0866 C   0  0  0  0  0  0  0  0  0  0  0  0
   -4.9258   -1.2555    2.0678 O   0  0  0  0  0  0  0  0  0  0  0  0
   -5.1675   -0.8597   -0.2136 N   0  0  0  0  0  0  0  0  0  0  0  0
   -6.5115   -1.3967   -0.3593 C   0  0  0  0  0  0  0  0  0  0  0  0
   -6.5805   -1.9825   -1.7607 C   0  0  0  0  0  0  0  0  0  0  0  0
   -5.4029   -1.3851   -2.5233 C   0  0  0  0  0  0  0  0  0  0  0  0
   -4.4014   -0.9273   -1.4593 C   0  0  0  0  0  0  0  0  0  0  0  0
   -3.2225   -1.9000   -1.3324 C   0  0  0  0  0  0  0  0  0  0  0  0
   -2.2929   -1.3739   -0.3942 O   0  0  0  0  0  0  0  0  0  0  0  0
   -0.9284   -1.6564   -0.4038 C   0  0  0  0  0  0  0  0  0  0  0  0
   -0.3860   -2.3526    0.6819 C   0  0  0  0  0  0  0  0  0  0  0  0
    0.9772   -2.6477    0.7194 C   0  0  0  0  0  0  0  0  0  0  0  0
    1.8061   -2.2474   -0.3291 C   0  0  0  0  0  0  0  0  0  0  0  0
    1.2805   -1.5272   -1.4062 C   0  0  0  0  0  0  0  0  0  0  0  0
   -0.0857   -1.2002   -1.4407 C   0  0  0  0  0  0  0  0  0  0  0  0
   -0.6224   -0.4414   -2.5880 C   0  0  0  0  0  0  0  0  0  0  0  0
   -0.6234   -0.9913   -3.7219 O   0  0  0  0  0  0  0  0  0  0  0  0
   -1.1481    0.8952   -2.4613 N   0  0  0  0  0  0  0  0  0  0  0  0
    5.2293   -0.7850   -0.1558 C   0  0  0  0  0  0  0  0  0  0  0  0
    6.3110   -1.6522    0.0951 C   0  0  0  0  0  0  0  0  0  0  0  0
    6.5686   -2.7761   -0.7053 O   0  0  0  0  0  0  0  0  0  0  0  0
    5.7986   -3.1537   -1.8424 C   0  0  0  0  0  0  0  0  0  0  0  0
   10.7258   -3.2446    1.3523 H   0  0  0  0  0  0  0  0  0  0  0  0
   10.9988   -3.1151    3.1364 H   0  0  0  0  0  0  0  0  0  0  0  0
    9.7158   -4.2200    2.4982 H   0  0  0  0  0  0  0  0  0  0  0  0
    8.7167   -2.1395    3.4180 H   0  0  0  0  0  0  0  0  0  0  0  0
    9.7429   -1.1426    2.2992 H   0  0  0  0  0  0  0  0  0  0  0  0
    7.5923   -0.0486    2.8269 H   0  0  0  0  0  0  0  0  0  0  0  0
    5.7235    1.4469    2.3736 H   0  0  0  0  0  0  0  0  0  0  0  0
    3.7609    2.0245    1.1855 H   0  0  0  0  0  0  0  0  0  0  0  0
    2.9090    0.6887    0.3527 H   0  0  0  0  0  0  0  0  0  0  0  0
    5.1018    2.3493   -1.0460 H   0  0  0  0  0  0  0  0  0  0  0  0
    3.8953    1.2640   -1.7993 H   0  0  0  0  0  0  0  0  0  0  0  0
    3.4538    4.0029   -0.4568 H   0  0  0  0  0  0  0  0  0  0  0  0
    3.2245    3.5839   -2.1819 H   0  0  0  0  0  0  0  0  0  0  0  0
    1.2554    3.4396   -0.1407 H   0  0  0  0  0  0  0  0  0  0  0  0
   -0.9019    2.9381   -2.0666 H   0  0  0  0  0  0  0  0  0  0  0  0
   -1.0572    0.8741    0.1996 H   0  0  0  0  0  0  0  0  0  0  0  0
   -0.5608    2.5273    0.5153 H   0  0  0  0  0  0  0  0  0  0  0  0
   -4.6032    1.8702   -0.2194 H   0  0  0  0  0  0  0  0  0  0  0  0
   -2.7029    0.2469    1.5050 H   0  0  0  0  0  0  0  0  0  0  0  0
   -3.3016    2.2073    2.8011 H   0  0  0  0  0  0  0  0  0  0  0  0
   -4.1043    0.7750    3.4752 H   0  0  0  0  0  0  0  0  0  0  0  0
   -4.5935    4.0155    1.7502 H   0  0  0  0  0  0  0  0  0  0  0  0
   -6.7752    5.1418    1.5174 H   0  0  0  0  0  0  0  0  0  0  0  0
   -8.8645    3.9447    2.1035 H   0  0  0  0  0  0  0  0  0  0  0  0
   -8.7685    1.6115    2.9333 H   0  0  0  0  0  0  0  0  0  0  0  0
   -6.5966    0.4715    3.1845 H   0  0  0  0  0  0  0  0  0  0  0  0
   -6.7069   -2.1899    0.3964 H   0  0  0  0  0  0  0  0  0  0  0  0
   -7.2512   -0.5732   -0.2426 H   0  0  0  0  0  0  0  0  0  0  0  0
   -7.5469   -1.7390   -2.2509 H   0  0  0  0  0  0  0  0  0  0  0  0
   -6.4645   -3.0868   -1.7093 H   0  0  0  0  0  0  0  0  0  0  0  0
   -5.7596   -0.5008   -3.0983 H   0  0  0  0  0  0  0  0  0  0  0  0
   -4.9778   -2.1180   -3.2449 H   0  0  0  0  0  0  0  0  0  0  0  0
   -4.0165    0.0701   -1.7502 H   0  0  0  0  0  0  0  0  0  0  0  0
   -2.7442   -2.0353   -2.3241 H   0  0  0  0  0  0  0  0  0  0  0  0
   -3.5758   -2.8931   -0.9804 H   0  0  0  0  0  0  0  0  0  0  0  0
   -1.0275   -2.6740    1.4925 H   0  0  0  0  0  0  0  0  0  0  0  0
    1.3906   -3.1908    1.5595 H   0  0  0  0  0  0  0  0  0  0  0  0
    2.8563   -2.4957   -0.3004 H   0  0  0  0  0  0  0  0  0  0  0  0
    1.9428   -1.2164   -2.2047 H   0  0  0  0  0  0  0  0  0  0  0  0
   -1.8295    1.1928   -3.1961 H   0  0  0  0  0  0  0  0  0  0  0  0
    4.5656   -0.9645   -0.9888 H   0  0  0  0  0  0  0  0  0  0  0  0
    5.8118   -2.3419   -2.5999 H   0  0  0  0  0  0  0  0  0  0  0  0
    6.2434   -4.0653   -2.2910 H   0  0  0  0  0  0  0  0  0  0  0  0
    4.7556   -3.3827   -1.5402 H   0  0  0  0  0  0  0  0  0  0  0  0
  1  2  1  0
  2  3  1  0
  3  4  1  0
  4  5  2  0
  5  6  1  0
  6  7  2  0
  7  8  1  0
  8  9  1  0
  9 10  1  0
 10 11  1  0
 11 12  1  0
 12 13  2  0
 12 14  1  0
 14 15  1  0
 15 16  1  0
 16 17  2  0
 16 18  1  0
 18 19  1  0
 19 20  1  0
 20 21  1  0
 21 22  2  0
 22 23  1  0
 23 24  2  0
 24 25  1  0
 25 26  2  0
 19 27  1  0
 27 28  2  0
 27 29  1  0
 29 30  1  0
 30 31  1  0
 31 32  1  0
 32 33  1  0
 33 34  1  0
 34 35  1  0
 35 36  1  0
 36 37  2  0
 37 38  1  0
 38 39  2  0
 39 40  1  0
 40 41  2  0
 41 42  1  0
 42 43  2  0
 42 44  1  0
  7 45  1  0
 45 46  2  0
 46 47  1  0
 47 48  1  0
 46  4  1  0
 44 14  1  0
 26 21  1  0
 33 29  1  0
 41 36  1  0
  1 49  1  0
  1 50  1  0
  1 51  1  0
  2 52  1  0
  2 53  1  0
  5 54  1  0
  6 55  1  0
  8 56  1  0
  8 57  1  0
  9 58  1  0
  9 59  1  0
 10 60  1  0
 10 61  1  0
 11 62  1  0
 14 63  1  0
 15 64  1  0
 15 65  1  0
 18 66  1  0
 19 67  1  0
 20 68  1  0
 20 69  1  0
 22 70  1  0
 23 71  1  0
 24 72  1  0
 25 73  1  0
 26 74  1  0
 30 75  1  0
 30 76  1  0
 31 77  1  0
 31 78  1  0
 32 79  1  0
 32 80  1  0
 33 81  1  0
 34 82  1  0
 34 83  1  0
 37 84  1  0
 38 85  1  0
 39 86  1  0
 40 87  1  0
 44 88  1  0
 45 89  1  0
 48 90  1  0
 48 91  1  0
 48 92  1  0
M  END
$$$$
