
     RDKit          3D

 71 74  0  0  0  0  0  0  0  0999 V2000
   -1.1513   -4.1491   -0.9421 C   0  0  0  0  0  0  0  0  0  0  0  0
   -2.1489   -3.1259   -0.4035 C   0  0  0  0  0  0  0  0  0  0  0  0
   -2.2169   -1.9373   -1.2705 N   0  0  0  0  0  0  0  0  0  0  0  0
   -3.4541   -1.7028   -2.0404 C   0  0  0  0  0  0  0  0  0  0  0  0
   -4.5982   -1.1968   -1.1415 C   0  0  0  0  0  0  0  0  0  0  0  0
   -4.6719    0.2293   -1.1884 O   0  0  0  0  0  0  0  0  0  0  0  0
   -5.2679    1.0351   -0.2026 C   0  0  0  0  0  0  0  0  0  0  0  0
   -6.1828    0.4981    0.7234 C   0  0  0  0  0  0  0  0  0  0  0  0
   -6.7268    1.3009    1.7280 C   0  0  0  0  0  0  0  0  0  0  0  0
   -6.3645    2.6438    1.8247 C   0  0  0  0  0  0  0  0  0  0  0  0
   -5.4660    3.1944    0.9088 C   0  0  0  0  0  0  0  0  0  0  0  0
   -4.9226    2.4077   -0.1215 C   0  0  0  0  0  0  0  0  0  0  0  0
   -3.9572    3.0453   -1.1018 C   0  0  0  0  0  0  0  0  0  0  0  0
   -2.4792    2.8557   -0.7048 C   0  0  0  0  0  0  0  0  0  0  0  0
   -2.0738    1.3845   -0.8017 C   0  0  0  0  0  0  0  0  0  0  0  0
   -0.5645    1.1324   -0.7568 C   0  0  0  0  0  0  0  0  0  0  0  0
   -0.2438   -0.3802   -0.5659 C   0  0  0  0  0  0  0  0  0  0  0  0
    1.2878   -0.5788   -0.7963 C   0  0  0  0  0  0  0  0  0  0  0  0
    2.0257   -0.1096    0.3809 N   0  0  0  0  0  0  0  0  0  0  0  0
    3.1369    0.8053    0.2495 C   0  0  0  0  0  0  0  0  0  0  0  0
    3.2847    1.4608   -0.8181 O   0  0  0  0  0  0  0  0  0  0  0  0
    4.1679    0.9737    1.3350 C   0  0  0  0  0  0  0  0  0  0  0  0
    5.3496    0.0730    1.0740 C   0  0  0  0  0  0  0  0  0  0  0  0
    5.4333   -1.1715    1.7221 C   0  0  0  0  0  0  0  0  0  0  0  0
    6.5008   -2.0338    1.4652 C   0  0  0  0  0  0  0  0  0  0  0  0
    7.4930   -1.6669    0.5563 C   0  0  0  0  0  0  0  0  0  0  0  0
    7.4232   -0.4354   -0.0981 C   0  0  0  0  0  0  0  0  0  0  0  0
    6.3522    0.4466    0.1517 C   0  0  0  0  0  0  0  0  0  0  0  0
    6.2544    1.6909   -0.4937 O   0  0  0  0  0  0  0  0  0  0  0  0
    7.1910    2.1843   -1.4457 C   0  0  0  0  0  0  0  0  0  0  0  0
    1.5535   -0.5534    1.6947 C   0  0  0  0  0  0  0  0  0  0  0  0
    0.2826   -1.3936    1.5462 C   0  0  0  0  0  0  0  0  0  0  0  0
   -0.6837   -0.7260    0.7537 O   0  0  0  0  0  0  0  0  0  0  0  0
   -1.0153   -1.2023   -1.6029 C   0  0  0  0  0  0  0  0  0  0  0  0
   -0.6491   -1.1566   -2.8098 O   0  0  0  0  0  0  0  0  0  0  0  0
   -1.1700   -5.0582   -0.3049 H   0  0  0  0  0  0  0  0  0  0  0  0
   -0.1218   -3.7340   -0.9335 H   0  0  0  0  0  0  0  0  0  0  0  0
   -1.4232   -4.4333   -1.9811 H   0  0  0  0  0  0  0  0  0  0  0  0
   -3.1443   -3.6192   -0.3439 H   0  0  0  0  0  0  0  0  0  0  0  0
   -1.8842   -2.8432    0.6324 H   0  0  0  0  0  0  0  0  0  0  0  0
   -3.2805   -0.9797   -2.8675 H   0  0  0  0  0  0  0  0  0  0  0  0
   -3.7629   -2.6561   -2.5226 H   0  0  0  0  0  0  0  0  0  0  0  0
   -4.4356   -1.5377   -0.0962 H   0  0  0  0  0  0  0  0  0  0  0  0
   -5.5637   -1.6140   -1.4977 H   0  0  0  0  0  0  0  0  0  0  0  0
   -6.4818   -0.5400    0.6697 H   0  0  0  0  0  0  0  0  0  0  0  0
   -7.4279    0.8790    2.4368 H   0  0  0  0  0  0  0  0  0  0  0  0
   -6.7821    3.2607    2.6098 H   0  0  0  0  0  0  0  0  0  0  0  0
   -5.1968    4.2393    1.0002 H   0  0  0  0  0  0  0  0  0  0  0  0
   -4.1624    4.1360   -1.1708 H   0  0  0  0  0  0  0  0  0  0  0  0
   -4.1329    2.6398   -2.1221 H   0  0  0  0  0  0  0  0  0  0  0  0
   -1.8500    3.4550   -1.3991 H   0  0  0  0  0  0  0  0  0  0  0  0
   -2.3091    3.2303    0.3285 H   0  0  0  0  0  0  0  0  0  0  0  0
   -2.4345    0.9990   -1.7769 H   0  0  0  0  0  0  0  0  0  0  0  0
   -2.5530    0.8329    0.0344 H   0  0  0  0  0  0  0  0  0  0  0  0
   -0.1207    1.7090    0.0850 H   0  0  0  0  0  0  0  0  0  0  0  0
   -0.1170    1.5135   -1.7019 H   0  0  0  0  0  0  0  0  0  0  0  0
    1.6191   -0.0651   -1.7249 H   0  0  0  0  0  0  0  0  0  0  0  0
    1.5152   -1.6575   -0.9446 H   0  0  0  0  0  0  0  0  0  0  0  0
    4.5016    2.0334    1.3621 H   0  0  0  0  0  0  0  0  0  0  0  0
    3.7392    0.7753    2.3387 H   0  0  0  0  0  0  0  0  0  0  0  0
    4.6752   -1.4750    2.4316 H   0  0  0  0  0  0  0  0  0  0  0  0
    6.5577   -2.9896    1.9707 H   0  0  0  0  0  0  0  0  0  0  0  0
    8.3178   -2.3392    0.3570 H   0  0  0  0  0  0  0  0  0  0  0  0
    8.2055   -0.1802   -0.7996 H   0  0  0  0  0  0  0  0  0  0  0  0
    7.2331    1.5077   -2.3255 H   0  0  0  0  0  0  0  0  0  0  0  0
    6.8657    3.1892   -1.7856 H   0  0  0  0  0  0  0  0  0  0  0  0
    8.1965    2.2735   -0.9820 H   0  0  0  0  0  0  0  0  0  0  0  0
    1.3239    0.3348    2.3227 H   0  0  0  0  0  0  0  0  0  0  0  0
    2.3320   -1.1666    2.1927 H   0  0  0  0  0  0  0  0  0  0  0  0
   -0.1480   -1.5723    2.5535 H   0  0  0  0  0  0  0  0  0  0  0  0
    0.5217   -2.3891    1.1126 H   0  0  0  0  0  0  0  0  0  0  0  0
  1  2  1  0
  2  3  1  0
  3  4  1  0
  4  5  1  0
  5  6  1  0
  6  7  1  0
  7  8  2  0
  8  9  1  0
  9 10  2  0
 10 11  1  0
 11 12  2  0
 12 13  1  0
 13 14  1  0
 14 15  1  0
 15 16  1  0
 16 17  1  0
 17 18  1  0
 18 19  1  0
 19 20  1  0
 20 21  2  0
 20 22  1  0
 22 23  1  0
 23 24  2  0
 24 25  1  0
 25 26  2  0
 26 27  1  0
 27 28  2  0
 28 29  1  0
 29 30  1  0
 19 31  1  0
 31 32  1  0
 32 33  1  0
 17 34  1  0
 34 35  2  0
 34  3  1  0
 12  7  1  0
 33 17  1  0
 28 23  1  0
  1 36  1  0
  1 37  1  0
  1 38  1  0
  2 39  1  0
  2 40  1  0
  4 41  1  0
  4 42  1  0
  5 43  1  0
  5 44  1  0
  8 45  1  0
  9 46  1  0
 10 47  1  0
 11 48  1  0
 13 49  1  0
 13 50  1  0
 14 51  1  0
 14 52  1  0
 15 53  1  0
 15 54  1  0
 16 55  1  0
 16 56  1  0
 18 57  1  0
 18 58  1  0
 22 59  1  0
 22 60  1  0
 24 61  1  0
 25 62  1  0
 26 63  1  0
 27 64  1  0
 30 65  1  0
 30 66  1  0
 30 67  1  0
 31 68  1  0
 31 69  1  0
 32 70  1  0
 32 71  1  0
M  END
$$$$
