
     RDKit          3D

 64 67  0  0  0  0  0  0  0  0999 V2000
    2.9441   -2.6240    0.4548 O   0  0  0  0  0  0  0  0  0  0  0  0
    2.3784   -1.9538   -0.4498 C   0  0  0  0  0  0  0  0  0  0  0  0
    0.8714   -1.9678   -0.5527 C   0  0  0  0  0  0  0  0  0  0  0  0
    0.2102   -0.8827    0.2225 N   0  0  0  0  0  0  0  0  0  0  0  0
    0.5300   -0.9158    1.6749 C   0  0  0  0  0  0  0  0  0  0  0  0
    0.1889   -2.2545    2.3756 C   0  0  0  0  0  0  0  0  0  0  0  0
   -1.2447   -2.7626    2.1390 C   0  0  0  0  0  0  0  0  0  0  0  0
   -2.3170   -1.9412    2.8897 C   0  0  0  0  0  0  0  0  0  0  0  0
   -3.5829   -1.7108    2.0465 C   0  0  0  0  0  0  0  0  0  0  0  0
   -3.3334   -0.6898    0.9379 C   0  0  0  0  0  0  0  0  0  0  0  0
   -4.5322   -0.4521    0.2108 O   0  0  0  0  0  0  0  0  0  0  0  0
   -4.6578    0.3989   -0.9041 C   0  0  0  0  0  0  0  0  0  0  0  0
   -5.9541    0.6074   -1.3970 C   0  0  0  0  0  0  0  0  0  0  0  0
   -6.1791    1.4432   -2.4919 C   0  0  0  0  0  0  0  0  0  0  0  0
   -5.1062    2.0750   -3.1204 C   0  0  0  0  0  0  0  0  0  0  0  0
   -3.8058    1.8741   -2.6548 C   0  0  0  0  0  0  0  0  0  0  0  0
   -3.5664    1.0477   -1.5471 C   0  0  0  0  0  0  0  0  0  0  0  0
   -2.2451    0.8860   -1.1187 O   0  0  0  0  0  0  0  0  0  0  0  0
   -1.6273    1.7855   -0.2420 C   0  0  0  0  0  0  0  0  0  0  0  0
   -2.3219    2.8565    0.2379 N   0  0  0  0  0  0  0  0  0  0  0  0
   -1.7810    3.7306    1.1252 C   0  0  0  0  0  0  0  0  0  0  0  0
   -0.4777    3.5436    1.5808 C   0  0  0  0  0  0  0  0  0  0  0  0
    0.2621    2.4619    1.1055 C   0  0  0  0  0  0  0  0  0  0  0  0
   -0.3017    1.5682    0.1798 C   0  0  0  0  0  0  0  0  0  0  0  0
    0.5359    0.4372   -0.3752 C   0  0  0  0  0  0  0  0  0  0  0  0
    3.1589   -1.1403   -1.3393 N   0  0  0  0  0  0  0  0  0  0  0  0
    4.5910   -0.9061   -1.1215 C   0  0  0  0  0  0  0  0  0  0  0  0
    4.8394   -0.1194    0.1587 C   0  0  0  0  0  0  0  0  0  0  0  0
    6.1730    0.5728   -0.0594 C   0  0  0  0  0  0  0  0  0  0  0  0
    6.3028    0.7842   -1.5662 C   0  0  0  0  0  0  0  0  0  0  0  0
    5.2117   -0.0554   -2.2297 C   0  0  0  0  0  0  0  0  0  0  0  0
    0.4915   -2.9597   -0.2330 H   0  0  0  0  0  0  0  0  0  0  0  0
    0.5815   -1.8943   -1.6239 H   0  0  0  0  0  0  0  0  0  0  0  0
   -0.0399   -0.1197    2.1964 H   0  0  0  0  0  0  0  0  0  0  0  0
    1.6060   -0.6874    1.8419 H   0  0  0  0  0  0  0  0  0  0  0  0
    0.9015   -3.0377    2.0454 H   0  0  0  0  0  0  0  0  0  0  0  0
    0.3541   -2.1367    3.4688 H   0  0  0  0  0  0  0  0  0  0  0  0
   -1.2997   -3.8136    2.4990 H   0  0  0  0  0  0  0  0  0  0  0  0
   -1.4480   -2.8178    1.0522 H   0  0  0  0  0  0  0  0  0  0  0  0
   -1.9220   -0.9593    3.2326 H   0  0  0  0  0  0  0  0  0  0  0  0
   -2.6071   -2.4956    3.8100 H   0  0  0  0  0  0  0  0  0  0  0  0
   -3.9306   -2.6719    1.6065 H   0  0  0  0  0  0  0  0  0  0  0  0
   -4.3879   -1.3260    2.7105 H   0  0  0  0  0  0  0  0  0  0  0  0
   -2.5639   -1.0823    0.2464 H   0  0  0  0  0  0  0  0  0  0  0  0
   -2.9951    0.2590    1.4030 H   0  0  0  0  0  0  0  0  0  0  0  0
   -6.7978    0.1281   -0.9126 H   0  0  0  0  0  0  0  0  0  0  0  0
   -7.1874    1.6013   -2.8537 H   0  0  0  0  0  0  0  0  0  0  0  0
   -5.2828    2.7231   -3.9678 H   0  0  0  0  0  0  0  0  0  0  0  0
   -2.9778    2.3684   -3.1498 H   0  0  0  0  0  0  0  0  0  0  0  0
   -2.3658    4.5691    1.4794 H   0  0  0  0  0  0  0  0  0  0  0  0
   -0.0424    4.2337    2.2917 H   0  0  0  0  0  0  0  0  0  0  0  0
    1.2781    2.3253    1.4553 H   0  0  0  0  0  0  0  0  0  0  0  0
    1.6120    0.6747   -0.2277 H   0  0  0  0  0  0  0  0  0  0  0  0
    0.3698    0.4091   -1.4749 H   0  0  0  0  0  0  0  0  0  0  0  0
    2.6729   -0.6828   -2.1452 H   0  0  0  0  0  0  0  0  0  0  0  0
    5.1291   -1.8800   -1.0684 H   0  0  0  0  0  0  0  0  0  0  0  0
    4.8723   -0.7859    1.0491 H   0  0  0  0  0  0  0  0  0  0  0  0
    4.0461    0.6487    0.3004 H   0  0  0  0  0  0  0  0  0  0  0  0
    6.2156    1.5383    0.4908 H   0  0  0  0  0  0  0  0  0  0  0  0
    6.9954   -0.0852    0.2998 H   0  0  0  0  0  0  0  0  0  0  0  0
    7.3116    0.4692   -1.9174 H   0  0  0  0  0  0  0  0  0  0  0  0
    6.1603    1.8610   -1.8137 H   0  0  0  0  0  0  0  0  0  0  0  0
    5.6310   -0.6972   -3.0344 H   0  0  0  0  0  0  0  0  0  0  0  0
    4.4562    0.6276   -2.6757 H   0  0  0  0  0  0  0  0  0  0  0  0
  1  2  2  0
  2  3  1  0
  3  4  1  0
  4  5  1  0
  5  6  1  0
  6  7  1  0
  7  8  1  0
  8  9  1  0
  9 10  1  0
 10 11  1  0
 11 12  1  0
 12 13  2  0
 13 14  1  0
 14 15  2  0
 15 16  1  0
 16 17  2  0
 17 18  1  0
 18 19  1  0
 19 20  2  0
 20 21  1  0
 21 22  2  0
 22 23  1  0
 23 24  2  0
 24 25  1  0
  2 26  1  0
 26 27  1  0
 27 28  1  0
 28 29  1  0
 29 30  1  0
 30 31  1  0
 25  4  1  0
 31 27  1  0
 17 12  1  0
 24 19  1  0
  3 32  1  0
  3 33  1  0
  5 34  1  0
  5 35  1  0
  6 36  1  0
  6 37  1  0
  7 38  1  0
  7 39  1  0
  8 40  1  0
  8 41  1  0
  9 42  1  0
  9 43  1  0
 10 44  1  0
 10 45  1  0
 13 46  1  0
 14 47  1  0
 15 48  1  0
 16 49  1  0
 21 50  1  0
 22 51  1  0
 23 52  1  0
 25 53  1  0
 25 54  1  0
 26 55  1  0
 27 56  1  0
 28 57  1  0
 28 58  1  0
 29 59  1  0
 29 60  1  0
 30 61  1  0
 30 62  1  0
 31 63  1  0
 31 64  1  0
M  END
$$$$
