
     RDKit          3D

 58 60  0  0  0  0  0  0  0  0999 V2000
    5.8696    2.3082    2.5982 C   0  0  0  0  0  0  0  0  0  0  0  0
    4.8032    1.7227    1.7352 C   0  0  0  0  0  0  0  0  0  0  0  0
    3.5479    1.3303    2.1445 C   0  0  0  0  0  0  0  0  0  0  0  0
    2.9725    0.8406    0.9891 C   0  0  0  0  0  0  0  0  0  0  0  0
    1.6275    0.2406    0.8874 C   0  0  0  0  0  0  0  0  0  0  0  0
    0.9175    0.1744    1.9263 O   0  0  0  0  0  0  0  0  0  0  0  0
    1.1190   -0.2858   -0.3615 N   0  0  0  0  0  0  0  0  0  0  0  0
    1.1913    0.5169   -1.6023 C   0  0  0  0  0  0  0  0  0  0  0  0
    0.8256    2.0028   -1.3940 C   0  0  0  0  0  0  0  0  0  0  0  0
   -0.6004    2.2133   -0.8641 C   0  0  0  0  0  0  0  0  0  0  0  0
   -1.6622    2.1409   -1.9743 C   0  0  0  0  0  0  0  0  0  0  0  0
   -2.9780    1.8830   -1.3869 N   0  0  0  0  0  0  0  0  0  0  0  0
   -3.6554    2.9139   -0.6019 C   0  0  0  0  0  0  0  0  0  0  0  0
   -3.5416    0.5675   -1.4663 C   0  0  0  0  0  0  0  0  0  0  0  0
   -3.6929    0.0101   -2.5863 O   0  0  0  0  0  0  0  0  0  0  0  0
   -3.9079   -0.1583   -0.2445 C   0  0  0  0  0  0  0  0  0  0  0  0
   -5.2241   -0.0963    0.2323 C   0  0  0  0  0  0  0  0  0  0  0  0
   -5.5869   -0.7998    1.3836 C   0  0  0  0  0  0  0  0  0  0  0  0
   -4.6387   -1.5694    2.0603 C   0  0  0  0  0  0  0  0  0  0  0  0
   -3.3246   -1.6421    1.5877 C   0  0  0  0  0  0  0  0  0  0  0  0
   -2.9451   -0.9364    0.4279 C   0  0  0  0  0  0  0  0  0  0  0  0
   -1.6353   -0.9911   -0.0839 O   0  0  0  0  0  0  0  0  0  0  0  0
   -0.6363   -1.9112    0.3544 C   0  0  0  0  0  0  0  0  0  0  0  0
    0.6716   -1.7012   -0.4397 C   0  0  0  0  0  0  0  0  0  0  0  0
    1.8139   -2.6688    0.0100 C   0  0  0  0  0  0  0  0  0  0  0  0
    1.3677   -4.1405    0.0646 C   0  0  0  0  0  0  0  0  0  0  0  0
    3.0256   -2.5541   -0.9299 C   0  0  0  0  0  0  0  0  0  0  0  0
    3.8497    0.9432   -0.0291 N   0  0  0  0  0  0  0  0  0  0  0  0
    4.9341    1.4754    0.4535 O   0  0  0  0  0  0  0  0  0  0  0  0
    6.2313    1.5428    3.3172 H   0  0  0  0  0  0  0  0  0  0  0  0
    6.7194    2.6451    1.9702 H   0  0  0  0  0  0  0  0  0  0  0  0
    5.4649    3.1779    3.1601 H   0  0  0  0  0  0  0  0  0  0  0  0
    3.1235    1.3780    3.1393 H   0  0  0  0  0  0  0  0  0  0  0  0
    0.5205    0.0923   -2.3785 H   0  0  0  0  0  0  0  0  0  0  0  0
    2.2196    0.4579   -2.0144 H   0  0  0  0  0  0  0  0  0  0  0  0
    1.5420    2.4658   -0.6852 H   0  0  0  0  0  0  0  0  0  0  0  0
    0.9486    2.5449   -2.3568 H   0  0  0  0  0  0  0  0  0  0  0  0
   -0.8227    1.4767   -0.0622 H   0  0  0  0  0  0  0  0  0  0  0  0
   -0.6575    3.2215   -0.3951 H   0  0  0  0  0  0  0  0  0  0  0  0
   -1.6818    3.1028   -2.5352 H   0  0  0  0  0  0  0  0  0  0  0  0
   -1.4109    1.3413   -2.7069 H   0  0  0  0  0  0  0  0  0  0  0  0
   -4.7168    2.9974   -0.9253 H   0  0  0  0  0  0  0  0  0  0  0  0
   -3.1688    3.9019   -0.7377 H   0  0  0  0  0  0  0  0  0  0  0  0
   -3.6188    2.6465    0.4779 H   0  0  0  0  0  0  0  0  0  0  0  0
   -5.9664    0.4975   -0.2871 H   0  0  0  0  0  0  0  0  0  0  0  0
   -6.6021   -0.7478    1.7511 H   0  0  0  0  0  0  0  0  0  0  0  0
   -4.9210   -2.1136    2.9525 H   0  0  0  0  0  0  0  0  0  0  0  0
   -2.6150   -2.2515    2.1326 H   0  0  0  0  0  0  0  0  0  0  0  0
   -0.4494   -1.7896    1.4410 H   0  0  0  0  0  0  0  0  0  0  0  0
   -1.0221   -2.9376    0.1780 H   0  0  0  0  0  0  0  0  0  0  0  0
    0.4295   -1.9586   -1.4958 H   0  0  0  0  0  0  0  0  0  0  0  0
    2.1478   -2.3892    1.0338 H   0  0  0  0  0  0  0  0  0  0  0  0
    0.6625   -4.3019    0.9081 H   0  0  0  0  0  0  0  0  0  0  0  0
    2.2406   -4.8090    0.2458 H   0  0  0  0  0  0  0  0  0  0  0  0
    0.8836   -4.4424   -0.8908 H   0  0  0  0  0  0  0  0  0  0  0  0
    3.8548   -3.1972   -0.5679 H   0  0  0  0  0  0  0  0  0  0  0  0
    2.7517   -2.8654   -1.9599 H   0  0  0  0  0  0  0  0  0  0  0  0
    3.4054   -1.5155   -0.9628 H   0  0  0  0  0  0  0  0  0  0  0  0
  1  2  1  0
  2  3  2  0
  3  4  1  0
  4  5  1  0
  5  6  2  0
  5  7  1  0
  7  8  1  0
  8  9  1  0
  9 10  1  0
 10 11  1  0
 11 12  1  0
 12 13  1  0
 12 14  1  0
 14 15  2  0
 14 16  1  0
 16 17  2  0
 17 18  1  0
 18 19  2  0
 19 20  1  0
 20 21  2  0
 21 22  1  0
 22 23  1  0
 23 24  1  0
 24 25  1  0
 25 26  1  0
 25 27  1  0
  4 28  2  0
 28 29  1  0
 29  2  1  0
 24  7  1  0
 21 16  1  0
  1 30  1  0
  1 31  1  0
  1 32  1  0
  3 33  1  0
  8 34  1  0
  8 35  1  0
  9 36  1  0
  9 37  1  0
 10 38  1  0
 10 39  1  0
 11 40  1  0
 11 41  1  0
 13 42  1  0
 13 43  1  0
 13 44  1  0
 17 45  1  0
 18 46  1  0
 19 47  1  0
 20 48  1  0
 23 49  1  0
 23 50  1  0
 24 51  1  0
 25 52  1  0
 26 53  1  0
 26 54  1  0
 26 55  1  0
 27 56  1  0
 27 57  1  0
 27 58  1  0
M  END
$$$$
