
     RDKit          3D

 79 83  0  0  0  0  0  0  0  0999 V2000
    1.4289    1.6854   -1.7146 O   0  0  0  0  0  0  0  0  0  0  0  0
    1.9587    0.9883   -0.8045 C   0  0  0  0  0  0  0  0  0  0  0  0
    1.0568    0.0857    0.0058 C   0  0  0  0  0  0  0  0  0  0  0  0
   -0.2151    0.7698    0.3174 N   0  0  0  0  0  0  0  0  0  0  0  0
   -0.0188    1.7910    1.3574 C   0  0  0  0  0  0  0  0  0  0  0  0
   -1.3454    2.4925    1.6196 C   0  0  0  0  0  0  0  0  0  0  0  0
   -2.3357    1.5729    2.0448 O   0  0  0  0  0  0  0  0  0  0  0  0
   -2.5767    0.5220    1.1055 C   0  0  0  0  0  0  0  0  0  0  0  0
   -3.2520    1.0624   -0.2007 C   0  0  0  0  0  0  0  0  0  0  0  0
   -4.3563    2.1368    0.0040 C   0  0  0  0  0  0  0  0  0  0  0  0
   -5.7826    1.5698    0.0943 C   0  0  0  0  0  0  0  0  0  0  0  0
   -6.3376    1.1337   -1.2755 C   0  0  0  0  0  0  0  0  0  0  0  0
   -7.4086    0.0813   -1.1152 C   0  0  0  0  0  0  0  0  0  0  0  0
   -8.7543    0.3935   -1.3633 C   0  0  0  0  0  0  0  0  0  0  0  0
   -9.7432   -0.5814   -1.2094 C   0  0  0  0  0  0  0  0  0  0  0  0
   -9.3981   -1.8732   -0.8065 C   0  0  0  0  0  0  0  0  0  0  0  0
   -8.0632   -2.1945   -0.5466 C   0  0  0  0  0  0  0  0  0  0  0  0
   -7.0597   -1.2182   -0.6927 C   0  0  0  0  0  0  0  0  0  0  0  0
   -5.7112   -1.4857   -0.4153 O   0  0  0  0  0  0  0  0  0  0  0  0
   -5.1938   -2.7211    0.0593 C   0  0  0  0  0  0  0  0  0  0  0  0
   -3.6963   -2.5621    0.3186 C   0  0  0  0  0  0  0  0  0  0  0  0
   -3.4539   -1.8893    1.5974 N   0  0  0  0  0  0  0  0  0  0  0  0
   -3.5157   -0.4649    1.7963 C   0  0  0  0  0  0  0  0  0  0  0  0
   -4.3173   -0.0243    2.6651 O   0  0  0  0  0  0  0  0  0  0  0  0
   -1.2304   -0.1966    0.7745 C   0  0  0  0  0  0  0  0  0  0  0  0
    3.3924    1.0397   -0.6018 N   0  0  0  0  0  0  0  0  0  0  0  0
    4.0463    0.1731    0.3936 C   0  0  0  0  0  0  0  0  0  0  0  0
    5.5689    0.3651    0.4137 C   0  0  0  0  0  0  0  0  0  0  0  0
    6.1520    0.3129   -1.0154 C   0  0  0  0  0  0  0  0  0  0  0  0
    7.6738    0.5882   -1.0119 C   0  0  0  0  0  0  0  0  0  0  0  0
    8.4478   -0.4755   -0.2745 C   0  0  0  0  0  0  0  0  0  0  0  0
    8.9111   -0.2444    1.0320 C   0  0  0  0  0  0  0  0  0  0  0  0
    9.6160   -1.2414    1.7146 C   0  0  0  0  0  0  0  0  0  0  0  0
    9.8590   -2.4736    1.1012 C   0  0  0  0  0  0  0  0  0  0  0  0
    9.3945   -2.7142   -0.1949 C   0  0  0  0  0  0  0  0  0  0  0  0
    8.6906   -1.7200   -0.8816 C   0  0  0  0  0  0  0  0  0  0  0  0
    5.4226    1.2887   -1.9851 C   0  0  0  0  0  0  0  0  0  0  0  0
    4.2154    1.9983   -1.3565 C   0  0  0  0  0  0  0  0  0  0  0  0
    1.5393   -0.2684    0.9410 H   0  0  0  0  0  0  0  0  0  0  0  0
    0.8641   -0.8122   -0.6206 H   0  0  0  0  0  0  0  0  0  0  0  0
    0.7178    2.5521    1.0199 H   0  0  0  0  0  0  0  0  0  0  0  0
    0.3552    1.3356    2.3024 H   0  0  0  0  0  0  0  0  0  0  0  0
   -1.6720    3.0560    0.7200 H   0  0  0  0  0  0  0  0  0  0  0  0
   -1.1957    3.2416    2.4257 H   0  0  0  0  0  0  0  0  0  0  0  0
   -3.6395    0.2173   -0.8006 H   0  0  0  0  0  0  0  0  0  0  0  0
   -2.4687    1.5208   -0.8423 H   0  0  0  0  0  0  0  0  0  0  0  0
   -4.3208    2.8535   -0.8459 H   0  0  0  0  0  0  0  0  0  0  0  0
   -4.1590    2.7374    0.9152 H   0  0  0  0  0  0  0  0  0  0  0  0
   -6.4529    2.3558    0.5046 H   0  0  0  0  0  0  0  0  0  0  0  0
   -5.8034    0.7367    0.8205 H   0  0  0  0  0  0  0  0  0  0  0  0
   -5.5374    0.7159   -1.9217 H   0  0  0  0  0  0  0  0  0  0  0  0
   -6.7335    2.0252   -1.8086 H   0  0  0  0  0  0  0  0  0  0  0  0
   -9.0382    1.3907   -1.6764 H   0  0  0  0  0  0  0  0  0  0  0  0
  -10.7782   -0.3347   -1.4057 H   0  0  0  0  0  0  0  0  0  0  0  0
  -10.1670   -2.6270   -0.6930 H   0  0  0  0  0  0  0  0  0  0  0  0
   -7.8213   -3.2004   -0.2315 H   0  0  0  0  0  0  0  0  0  0  0  0
   -5.7110   -3.0228    0.9960 H   0  0  0  0  0  0  0  0  0  0  0  0
   -5.3497   -3.5032   -0.7149 H   0  0  0  0  0  0  0  0  0  0  0  0
   -3.2297   -2.0201   -0.5255 H   0  0  0  0  0  0  0  0  0  0  0  0
   -3.2309   -3.5704    0.3592 H   0  0  0  0  0  0  0  0  0  0  0  0
   -3.6162   -2.4740    2.4483 H   0  0  0  0  0  0  0  0  0  0  0  0
   -1.3907   -0.9470   -0.0241 H   0  0  0  0  0  0  0  0  0  0  0  0
   -0.8616   -0.7374    1.6775 H   0  0  0  0  0  0  0  0  0  0  0  0
    3.6560    0.4062    1.4078 H   0  0  0  0  0  0  0  0  0  0  0  0
    3.8232   -0.8894    0.1530 H   0  0  0  0  0  0  0  0  0  0  0  0
    6.0160   -0.4350    1.0418 H   0  0  0  0  0  0  0  0  0  0  0  0
    5.8133    1.3420    0.8877 H   0  0  0  0  0  0  0  0  0  0  0  0
    5.9943   -0.7214   -1.3999 H   0  0  0  0  0  0  0  0  0  0  0  0
    7.8744    1.5920   -0.5707 H   0  0  0  0  0  0  0  0  0  0  0  0
    8.0449    0.6241   -2.0605 H   0  0  0  0  0  0  0  0  0  0  0  0
    8.7260    0.7054    1.5210 H   0  0  0  0  0  0  0  0  0  0  0  0
    9.9760   -1.0587    2.7194 H   0  0  0  0  0  0  0  0  0  0  0  0
   10.4062   -3.2426    1.6309 H   0  0  0  0  0  0  0  0  0  0  0  0
    9.5784   -3.6721   -0.6675 H   0  0  0  0  0  0  0  0  0  0  0  0
    8.3311   -1.9200   -1.8842 H   0  0  0  0  0  0  0  0  0  0  0  0
    6.1136    2.0721   -2.3717 H   0  0  0  0  0  0  0  0  0  0  0  0
    5.0694    0.7138   -2.8702 H   0  0  0  0  0  0  0  0  0  0  0  0
    4.5694    2.7943   -0.6657 H   0  0  0  0  0  0  0  0  0  0  0  0
    3.6401    2.4979   -2.1650 H   0  0  0  0  0  0  0  0  0  0  0  0
  1  2  2  0
  2  3  1  0
  3  4  1  0
  4  5  1  0
  5  6  1  0
  6  7  1  0
  7  8  1  0
  8  9  1  0
  9 10  1  0
 10 11  1  0
 11 12  1  0
 12 13  1  0
 13 14  2  0
 14 15  1  0
 15 16  2  0
 16 17  1  0
 17 18  2  0
 18 19  1  0
 19 20  1  0
 20 21  1  0
 21 22  1  0
 22 23  1  0
 23 24  2  0
  8 25  1  0
  2 26  1  0
 26 27  1  0
 27 28  1  0
 28 29  1  0
 29 30  1  0
 30 31  1  0
 31 32  2  0
 32 33  1  0
 33 34  2  0
 34 35  1  0
 35 36  2  0
 29 37  1  0
 37 38  1  0
 25  4  1  0
 38 26  1  0
 23  8  1  0
 36 31  1  0
 18 13  1  0
  3 39  1  0
  3 40  1  0
  5 41  1  0
  5 42  1  0
  6 43  1  0
  6 44  1  0
  9 45  1  0
  9 46  1  0
 10 47  1  0
 10 48  1  0
 11 49  1  0
 11 50  1  0
 12 51  1  0
 12 52  1  0
 14 53  1  0
 15 54  1  0
 16 55  1  0
 17 56  1  0
 20 57  1  0
 20 58  1  0
 21 59  1  0
 21 60  1  0
 22 61  1  0
 25 62  1  0
 25 63  1  0
 27 64  1  0
 27 65  1  0
 28 66  1  0
 28 67  1  0
 29 68  1  0
 30 69  1  0
 30 70  1  0
 32 71  1  0
 33 72  1  0
 34 73  1  0
 35 74  1  0
 36 75  1  0
 37 76  1  0
 37 77  1  0
 38 78  1  0
 38 79  1  0
M  END
$$$$
