
     RDKit          3D

 66 69  0  0  0  0  0  0  0  0999 V2000
    6.5803   -1.7164   -2.9119 C   0  0  0  0  0  0  0  0  0  0  0  0
    6.3339   -1.7414   -1.4280 C   0  0  0  0  0  0  0  0  0  0  0  0
    7.2722   -2.3497   -0.5809 C   0  0  0  0  0  0  0  0  0  0  0  0
    7.0425   -2.3839    0.7942 C   0  0  0  0  0  0  0  0  0  0  0  0
    5.9114   -1.8396    1.3104 N   0  0  0  0  0  0  0  0  0  0  0  0
    4.9794   -1.2468    0.5209 C   0  0  0  0  0  0  0  0  0  0  0  0
    5.1645   -1.1782   -0.8708 C   0  0  0  0  0  0  0  0  0  0  0  0
    4.1483   -0.6042   -1.7120 N   0  0  0  0  0  0  0  0  0  0  0  0
    3.3748    0.5449   -1.3360 C   0  0  0  0  0  0  0  0  0  0  0  0
    3.7911    1.3284   -0.4401 O   0  0  0  0  0  0  0  0  0  0  0  0
    2.0748    0.8404   -2.0262 C   0  0  0  0  0  0  0  0  0  0  0  0
    0.9820    0.9528   -1.0368 N   0  0  0  0  0  0  0  0  0  0  0  0
    0.6472   -0.3721   -0.4458 C   0  0  0  0  0  0  0  0  0  0  0  0
    0.4895   -0.2457    1.0802 C   0  0  0  0  0  0  0  0  0  0  0  0
   -0.2679   -1.4373    1.7255 C   0  0  0  0  0  0  0  0  0  0  0  0
   -1.7676   -1.1734    2.0907 C   0  0  0  0  0  0  0  0  0  0  0  0
   -1.8885   -0.0011    3.0975 C   0  0  0  0  0  0  0  0  0  0  0  0
   -2.3326   -2.4423    2.7639 C   0  0  0  0  0  0  0  0  0  0  0  0
   -2.5904   -0.8840    0.8103 C   0  0  0  0  0  0  0  0  0  0  0  0
   -3.8456   -0.2756    1.1153 O   0  0  0  0  0  0  0  0  0  0  0  0
   -4.7670    0.1531    0.1475 C   0  0  0  0  0  0  0  0  0  0  0  0
   -6.1193   -0.1339    0.3743 C   0  0  0  0  0  0  0  0  0  0  0  0
   -7.0861    0.1876   -0.5806 C   0  0  0  0  0  0  0  0  0  0  0  0
   -6.7109    0.8055   -1.7737 C   0  0  0  0  0  0  0  0  0  0  0  0
   -5.3725    1.1328   -2.0002 C   0  0  0  0  0  0  0  0  0  0  0  0
   -4.3973    0.8498   -1.0357 C   0  0  0  0  0  0  0  0  0  0  0  0
   -3.0902    1.2874   -1.2809 O   0  0  0  0  0  0  0  0  0  0  0  0
   -2.4017    2.1753   -0.4417 C   0  0  0  0  0  0  0  0  0  0  0  0
   -3.0768    2.8641    0.5218 N   0  0  0  0  0  0  0  0  0  0  0  0
   -2.4546    3.7380    1.3544 C   0  0  0  0  0  0  0  0  0  0  0  0
   -1.0847    3.9626    1.2324 C   0  0  0  0  0  0  0  0  0  0  0  0
   -0.3635    3.2762    0.2557 C   0  0  0  0  0  0  0  0  0  0  0  0
   -1.0079    2.3537   -0.5838 C   0  0  0  0  0  0  0  0  0  0  0  0
   -0.2052    1.6193   -1.6350 C   0  0  0  0  0  0  0  0  0  0  0  0
    7.6322   -1.9791   -3.1525 H   0  0  0  0  0  0  0  0  0  0  0  0
    6.3835   -0.7008   -3.3154 H   0  0  0  0  0  0  0  0  0  0  0  0
    5.9116   -2.4476   -3.4118 H   0  0  0  0  0  0  0  0  0  0  0  0
    8.1743   -2.7963   -0.9805 H   0  0  0  0  0  0  0  0  0  0  0  0
    7.7614   -2.8518    1.4522 H   0  0  0  0  0  0  0  0  0  0  0  0
    4.0801   -0.8554    0.9773 H   0  0  0  0  0  0  0  0  0  0  0  0
    3.9628   -1.0393   -2.6431 H   0  0  0  0  0  0  0  0  0  0  0  0
    1.8367    0.0583   -2.7817 H   0  0  0  0  0  0  0  0  0  0  0  0
    2.2188    1.8000   -2.5683 H   0  0  0  0  0  0  0  0  0  0  0  0
    1.4520   -1.1207   -0.6230 H   0  0  0  0  0  0  0  0  0  0  0  0
   -0.2475   -0.8220   -0.9228 H   0  0  0  0  0  0  0  0  0  0  0  0
    1.5101   -0.1931    1.5187 H   0  0  0  0  0  0  0  0  0  0  0  0
    0.0110    0.7149    1.3332 H   0  0  0  0  0  0  0  0  0  0  0  0
    0.2732   -1.7116    2.6584 H   0  0  0  0  0  0  0  0  0  0  0  0
   -0.1954   -2.3293    1.0639 H   0  0  0  0  0  0  0  0  0  0  0  0
   -2.8966    0.0172    3.5644 H   0  0  0  0  0  0  0  0  0  0  0  0
   -1.1398   -0.1018    3.9115 H   0  0  0  0  0  0  0  0  0  0  0  0
   -1.7500    0.9816    2.6039 H   0  0  0  0  0  0  0  0  0  0  0  0
   -3.4099   -2.3137    3.0060 H   0  0  0  0  0  0  0  0  0  0  0  0
   -1.7882   -2.6606    3.7080 H   0  0  0  0  0  0  0  0  0  0  0  0
   -2.2318   -3.3231    2.0934 H   0  0  0  0  0  0  0  0  0  0  0  0
   -2.7611   -1.8178    0.2304 H   0  0  0  0  0  0  0  0  0  0  0  0
   -2.0136   -0.2167    0.1739 H   0  0  0  0  0  0  0  0  0  0  0  0
   -6.4180   -0.6376    1.2848 H   0  0  0  0  0  0  0  0  0  0  0  0
   -8.1257   -0.0548   -0.4002 H   0  0  0  0  0  0  0  0  0  0  0  0
   -7.4596    1.0448   -2.5179 H   0  0  0  0  0  0  0  0  0  0  0  0
   -5.0949    1.6403   -2.9154 H   0  0  0  0  0  0  0  0  0  0  0  0
   -3.0263    4.2630    2.1081 H   0  0  0  0  0  0  0  0  0  0  0  0
   -0.5858    4.6639    1.8883 H   0  0  0  0  0  0  0  0  0  0  0  0
    0.7003    3.4548    0.1600 H   0  0  0  0  0  0  0  0  0  0  0  0
   -0.8256    0.8948   -2.2061 H   0  0  0  0  0  0  0  0  0  0  0  0
    0.1003    2.3933   -2.3729 H   0  0  0  0  0  0  0  0  0  0  0  0
  1  2  1  0
  2  3  2  0
  3  4  1  0
  4  5  2  0
  5  6  1  0
  6  7  2  0
  7  8  1  0
  8  9  1  0
  9 10  2  0
  9 11  1  0
 11 12  1  0
 12 13  1  0
 13 14  1  0
 14 15  1  0
 15 16  1  0
 16 17  1  0
 16 18  1  0
 16 19  1  0
 19 20  1  0
 20 21  1  0
 21 22  2  0
 22 23  1  0
 23 24  2  0
 24 25  1  0
 25 26  2  0
 26 27  1  0
 27 28  1  0
 28 29  2  0
 29 30  1  0
 30 31  2  0
 31 32  1  0
 32 33  2  0
 33 34  1  0
  7  2  1  0
 34 12  1  0
 26 21  1  0
 33 28  1  0
  1 35  1  0
  1 36  1  0
  1 37  1  0
  3 38  1  0
  4 39  1  0
  6 40  1  0
  8 41  1  0
 11 42  1  0
 11 43  1  0
 13 44  1  0
 13 45  1  0
 14 46  1  0
 14 47  1  0
 15 48  1  0
 15 49  1  0
 17 50  1  0
 17 51  1  0
 17 52  1  0
 18 53  1  0
 18 54  1  0
 18 55  1  0
 19 56  1  0
 19 57  1  0
 22 58  1  0
 23 59  1  0
 24 60  1  0
 25 61  1  0
 30 62  1  0
 31 63  1  0
 32 64  1  0
 34 65  1  0
 34 66  1  0
M  END
$$$$
