
     RDKit          3D

 68 71  0  0  0  0  0  0  0  0999 V2000
    2.7683    1.9585   -0.9358 O   0  0  0  0  0  0  0  0  0  0  0  0
    2.2735    1.0454   -0.2218 C   0  0  0  0  0  0  0  0  0  0  0  0
    1.1022    1.3517    0.6632 C   0  0  0  0  0  0  0  0  0  0  0  0
   -0.0458    0.4836    0.3301 N   0  0  0  0  0  0  0  0  0  0  0  0
   -1.0384    0.4474    1.4345 C   0  0  0  0  0  0  0  0  0  0  0  0
   -1.1690   -0.9933    1.9481 C   0  0  0  0  0  0  0  0  0  0  0  0
   -1.9788   -1.1121    3.2549 C   0  0  0  0  0  0  0  0  0  0  0  0
   -3.4512   -0.6807    3.1344 C   0  0  0  0  0  0  0  0  0  0  0  0
   -4.3191   -1.6870    2.3498 C   0  0  0  0  0  0  0  0  0  0  0  0
   -5.4523   -0.9812    1.6059 C   0  0  0  0  0  0  0  0  0  0  0  0
   -4.8957   -0.2118    0.5439 O   0  0  0  0  0  0  0  0  0  0  0  0
   -5.6059    0.6821   -0.2683 C   0  0  0  0  0  0  0  0  0  0  0  0
   -6.9922    0.8810   -0.1286 C   0  0  0  0  0  0  0  0  0  0  0  0
   -7.6481    1.8343   -0.9121 C   0  0  0  0  0  0  0  0  0  0  0  0
   -6.9297    2.6006   -1.8320 C   0  0  0  0  0  0  0  0  0  0  0  0
   -5.5563    2.3970   -1.9902 C   0  0  0  0  0  0  0  0  0  0  0  0
   -4.8948    1.4235   -1.2331 C   0  0  0  0  0  0  0  0  0  0  0  0
   -3.5222    1.2263   -1.4311 O   0  0  0  0  0  0  0  0  0  0  0  0
   -2.9460   -0.0334   -1.6455 C   0  0  0  0  0  0  0  0  0  0  0  0
   -3.7221   -1.0784   -2.0517 N   0  0  0  0  0  0  0  0  0  0  0  0
   -3.2056   -2.3114   -2.2925 C   0  0  0  0  0  0  0  0  0  0  0  0
   -1.8387   -2.5380   -2.1372 C   0  0  0  0  0  0  0  0  0  0  0  0
   -1.0158   -1.4900   -1.7262 C   0  0  0  0  0  0  0  0  0  0  0  0
   -1.5614   -0.2230   -1.4668 C   0  0  0  0  0  0  0  0  0  0  0  0
   -0.6638    0.8784   -0.9575 C   0  0  0  0  0  0  0  0  0  0  0  0
    2.8198   -0.2804   -0.2579 N   0  0  0  0  0  0  0  0  0  0  0  0
    3.9772   -0.6258   -1.0794 C   0  0  0  0  0  0  0  0  0  0  0  0
    5.2623   -0.1237   -0.4276 C   0  0  0  0  0  0  0  0  0  0  0  0
    6.3651   -0.3747   -1.2954 O   0  0  0  0  0  0  0  0  0  0  0  0
    7.6920   -0.0208   -1.0089 C   0  0  0  0  0  0  0  0  0  0  0  0
    8.6716   -0.2688   -1.9794 C   0  0  0  0  0  0  0  0  0  0  0  0
   10.0070    0.0718   -1.7428 C   0  0  0  0  0  0  0  0  0  0  0  0
   10.3746    0.6595   -0.5295 C   0  0  0  0  0  0  0  0  0  0  0  0
    9.4070    0.9076    0.4481 C   0  0  0  0  0  0  0  0  0  0  0  0
    8.0699    0.5722    0.2132 C   0  0  0  0  0  0  0  0  0  0  0  0
    0.8182    2.4260    0.5849 H   0  0  0  0  0  0  0  0  0  0  0  0
    1.4408    1.1636    1.7059 H   0  0  0  0  0  0  0  0  0  0  0  0
   -2.0349    0.8046    1.0961 H   0  0  0  0  0  0  0  0  0  0  0  0
   -0.7500    1.1096    2.2826 H   0  0  0  0  0  0  0  0  0  0  0  0
   -1.6112   -1.6304    1.1556 H   0  0  0  0  0  0  0  0  0  0  0  0
   -0.1493   -1.3871    2.1493 H   0  0  0  0  0  0  0  0  0  0  0  0
   -1.4874   -0.4891    4.0338 H   0  0  0  0  0  0  0  0  0  0  0  0
   -1.9364   -2.1649    3.6104 H   0  0  0  0  0  0  0  0  0  0  0  0
   -3.5108    0.3377    2.6984 H   0  0  0  0  0  0  0  0  0  0  0  0
   -3.8715   -0.5919    4.1598 H   0  0  0  0  0  0  0  0  0  0  0  0
   -3.7219   -2.2573    1.6093 H   0  0  0  0  0  0  0  0  0  0  0  0
   -4.7513   -2.4258    3.0593 H   0  0  0  0  0  0  0  0  0  0  0  0
   -6.0064   -0.3231    2.3098 H   0  0  0  0  0  0  0  0  0  0  0  0
   -6.1491   -1.7391    1.1867 H   0  0  0  0  0  0  0  0  0  0  0  0
   -7.5684    0.3138    0.5894 H   0  0  0  0  0  0  0  0  0  0  0  0
   -8.7138    1.9849   -0.7986 H   0  0  0  0  0  0  0  0  0  0  0  0
   -7.4372    3.3463   -2.4298 H   0  0  0  0  0  0  0  0  0  0  0  0
   -5.0075    2.9856   -2.7140 H   0  0  0  0  0  0  0  0  0  0  0  0
   -3.8575   -3.1142   -2.6093 H   0  0  0  0  0  0  0  0  0  0  0  0
   -1.4212   -3.5186   -2.3280 H   0  0  0  0  0  0  0  0  0  0  0  0
    0.0448   -1.6674   -1.5932 H   0  0  0  0  0  0  0  0  0  0  0  0
   -1.2042    1.8453   -0.8496 H   0  0  0  0  0  0  0  0  0  0  0  0
    0.1151    1.0416   -1.7335 H   0  0  0  0  0  0  0  0  0  0  0  0
    2.3409   -1.0415    0.2749 H   0  0  0  0  0  0  0  0  0  0  0  0
    4.0367   -1.7306   -1.1853 H   0  0  0  0  0  0  0  0  0  0  0  0
    3.8625   -0.1898   -2.0953 H   0  0  0  0  0  0  0  0  0  0  0  0
    5.1866    0.9690   -0.2361 H   0  0  0  0  0  0  0  0  0  0  0  0
    5.4137   -0.6571    0.5363 H   0  0  0  0  0  0  0  0  0  0  0  0
    8.3949   -0.7244   -2.9221 H   0  0  0  0  0  0  0  0  0  0  0  0
   10.7567   -0.1204   -2.5003 H   0  0  0  0  0  0  0  0  0  0  0  0
   11.4086    0.9219   -0.3470 H   0  0  0  0  0  0  0  0  0  0  0  0
    9.6924    1.3602    1.3891 H   0  0  0  0  0  0  0  0  0  0  0  0
    7.3405    0.7761    0.9852 H   0  0  0  0  0  0  0  0  0  0  0  0
  1  2  2  0
  2  3  1  0
  3  4  1  0
  4  5  1  0
  5  6  1  0
  6  7  1  0
  7  8  1  0
  8  9  1  0
  9 10  1  0
 10 11  1  0
 11 12  1  0
 12 13  2  0
 13 14  1  0
 14 15  2  0
 15 16  1  0
 16 17  2  0
 17 18  1  0
 18 19  1  0
 19 20  2  0
 20 21  1  0
 21 22  2  0
 22 23  1  0
 23 24  2  0
 24 25  1  0
  2 26  1  0
 26 27  1  0
 27 28  1  0
 28 29  1  0
 29 30  1  0
 30 31  2  0
 31 32  1  0
 32 33  2  0
 33 34  1  0
 34 35  2  0
 25  4  1  0
 35 30  1  0
 17 12  1  0
 24 19  1  0
  3 36  1  0
  3 37  1  0
  5 38  1  0
  5 39  1  0
  6 40  1  0
  6 41  1  0
  7 42  1  0
  7 43  1  0
  8 44  1  0
  8 45  1  0
  9 46  1  0
  9 47  1  0
 10 48  1  0
 10 49  1  0
 13 50  1  0
 14 51  1  0
 15 52  1  0
 16 53  1  0
 21 54  1  0
 22 55  1  0
 23 56  1  0
 25 57  1  0
 25 58  1  0
 26 59  1  0
 27 60  1  0
 27 61  1  0
 28 62  1  0
 28 63  1  0
 31 64  1  0
 32 65  1  0
 33 66  1  0
 34 67  1  0
 35 68  1  0
M  END
$$$$
