
     RDKit          3D

 72 76  0  0  0  0  0  0  0  0999 V2000
   -2.1123   -4.0727    0.1939 C   0  0  0  0  0  0  0  0  0  0  0  0
   -1.0632   -3.0329    0.5770 C   0  0  0  0  0  0  0  0  0  0  0  0
   -1.4669   -1.6756    0.1660 N   0  0  0  0  0  0  0  0  0  0  0  0
   -1.8335   -0.7084    1.2157 C   0  0  0  0  0  0  0  0  0  0  0  0
   -3.3388   -0.3948    1.2145 C   0  0  0  0  0  0  0  0  0  0  0  0
   -3.5289    1.0012    1.4223 O   0  0  0  0  0  0  0  0  0  0  0  0
   -4.6586    1.6924    0.9785 C   0  0  0  0  0  0  0  0  0  0  0  0
   -5.5979    2.1010    1.9330 C   0  0  0  0  0  0  0  0  0  0  0  0
   -6.7246    2.8311    1.5525 C   0  0  0  0  0  0  0  0  0  0  0  0
   -6.9191    3.1665    0.2133 C   0  0  0  0  0  0  0  0  0  0  0  0
   -5.9876    2.7736   -0.7502 C   0  0  0  0  0  0  0  0  0  0  0  0
   -4.8428    2.0375   -0.3873 C   0  0  0  0  0  0  0  0  0  0  0  0
   -3.8725    1.6198   -1.4774 C   0  0  0  0  0  0  0  0  0  0  0  0
   -2.4355    2.0964   -1.2119 C   0  0  0  0  0  0  0  0  0  0  0  0
   -1.4907    1.9027   -2.4033 C   0  0  0  0  0  0  0  0  0  0  0  0
   -1.3840    0.4671   -2.9750 C   0  0  0  0  0  0  0  0  0  0  0  0
   -0.6778   -0.6694   -2.1494 C   0  0  0  0  0  0  0  0  0  0  0  0
    0.5373   -0.0975   -1.3771 C   0  0  0  0  0  0  0  0  0  0  0  0
    1.3860   -1.1829   -0.8849 N   0  0  0  0  0  0  0  0  0  0  0  0
    2.0911   -1.0917    0.3702 C   0  0  0  0  0  0  0  0  0  0  0  0
    2.4347   -2.1488    0.9661 O   0  0  0  0  0  0  0  0  0  0  0  0
    2.4595    0.2286    0.9918 C   0  0  0  0  0  0  0  0  0  0  0  0
    3.9084    0.3150    1.1467 N   0  0  0  0  0  0  0  0  0  0  0  0
    4.6292    0.3147    2.4238 C   0  0  0  0  0  0  0  0  0  0  0  0
    6.0640    0.4802    2.0058 C   0  0  0  0  0  0  0  0  0  0  0  0
    7.1954    0.5576    2.8192 C   0  0  0  0  0  0  0  0  0  0  0  0
    8.4504    0.7341    2.2091 C   0  0  0  0  0  0  0  0  0  0  0  0
    8.5548    0.8329    0.8057 C   0  0  0  0  0  0  0  0  0  0  0  0
    7.4058    0.7542    0.0016 C   0  0  0  0  0  0  0  0  0  0  0  0
    6.1763    0.5753    0.6340 C   0  0  0  0  0  0  0  0  0  0  0  0
    4.8475    0.4755    0.0871 C   0  0  0  0  0  0  0  0  0  0  0  0
    4.5436    0.5251   -1.1341 O   0  0  0  0  0  0  0  0  0  0  0  0
    1.7584   -2.2178   -1.8494 C   0  0  0  0  0  0  0  0  0  0  0  0
    0.5295   -2.6716   -2.6397 C   0  0  0  0  0  0  0  0  0  0  0  0
   -0.2170   -1.5824   -3.1477 O   0  0  0  0  0  0  0  0  0  0  0  0
   -1.7013   -1.3745   -1.2365 C   0  0  0  0  0  0  0  0  0  0  0  0
   -2.7569   -1.8127   -1.7693 O   0  0  0  0  0  0  0  0  0  0  0  0
   -1.8539   -5.0488    0.6590 H   0  0  0  0  0  0  0  0  0  0  0  0
   -3.1116   -3.7611    0.5652 H   0  0  0  0  0  0  0  0  0  0  0  0
   -2.1485   -4.2084   -0.9069 H   0  0  0  0  0  0  0  0  0  0  0  0
   -0.9174   -3.0926    1.6766 H   0  0  0  0  0  0  0  0  0  0  0  0
   -0.0830   -3.2963    0.1396 H   0  0  0  0  0  0  0  0  0  0  0  0
   -1.2247    0.2064    1.1121 H   0  0  0  0  0  0  0  0  0  0  0  0
   -1.5658   -1.0884    2.2247 H   0  0  0  0  0  0  0  0  0  0  0  0
   -3.8393   -0.9531    2.0345 H   0  0  0  0  0  0  0  0  0  0  0  0
   -3.8252   -0.7161    0.2755 H   0  0  0  0  0  0  0  0  0  0  0  0
   -5.4502    1.8512    2.9763 H   0  0  0  0  0  0  0  0  0  0  0  0
   -7.4471    3.1392    2.2977 H   0  0  0  0  0  0  0  0  0  0  0  0
   -7.7935    3.7336   -0.0795 H   0  0  0  0  0  0  0  0  0  0  0  0
   -6.1634    3.0470   -1.7835 H   0  0  0  0  0  0  0  0  0  0  0  0
   -3.9072    0.5205   -1.5833 H   0  0  0  0  0  0  0  0  0  0  0  0
   -4.1967    2.0364   -2.4564 H   0  0  0  0  0  0  0  0  0  0  0  0
   -2.4591    3.1809   -0.9666 H   0  0  0  0  0  0  0  0  0  0  0  0
   -2.0011    1.5850   -0.3481 H   0  0  0  0  0  0  0  0  0  0  0  0
   -0.4849    2.2847   -2.1311 H   0  0  0  0  0  0  0  0  0  0  0  0
   -1.8494    2.5629   -3.2240 H   0  0  0  0  0  0  0  0  0  0  0  0
   -0.8005    0.5915   -3.9160 H   0  0  0  0  0  0  0  0  0  0  0  0
   -2.3823    0.1302   -3.3261 H   0  0  0  0  0  0  0  0  0  0  0  0
    0.1828    0.5389   -0.5470 H   0  0  0  0  0  0  0  0  0  0  0  0
    1.1491    0.5348   -2.0578 H   0  0  0  0  0  0  0  0  0  0  0  0
    2.1224    1.0919    0.3833 H   0  0  0  0  0  0  0  0  0  0  0  0
    1.9687    0.2994    1.9863 H   0  0  0  0  0  0  0  0  0  0  0  0
    4.4818   -0.6525    2.9501 H   0  0  0  0  0  0  0  0  0  0  0  0
    4.3038    1.1716    3.0521 H   0  0  0  0  0  0  0  0  0  0  0  0
    7.1082    0.4874    3.8955 H   0  0  0  0  0  0  0  0  0  0  0  0
    9.3415    0.7986    2.8198 H   0  0  0  0  0  0  0  0  0  0  0  0
    9.5249    0.9710    0.3454 H   0  0  0  0  0  0  0  0  0  0  0  0
    7.4746    0.8334   -1.0766 H   0  0  0  0  0  0  0  0  0  0  0  0
    2.2010   -3.1021   -1.3428 H   0  0  0  0  0  0  0  0  0  0  0  0
    2.5159   -1.8027   -2.5495 H   0  0  0  0  0  0  0  0  0  0  0  0
   -0.1159   -3.3492   -2.0523 H   0  0  0  0  0  0  0  0  0  0  0  0
    0.8844   -3.2739   -3.5020 H   0  0  0  0  0  0  0  0  0  0  0  0
  1  2  1  0
  2  3  1  0
  3  4  1  0
  4  5  1  0
  5  6  1  0
  6  7  1  0
  7  8  2  0
  8  9  1  0
  9 10  2  0
 10 11  1  0
 11 12  2  0
 12 13  1  0
 13 14  1  0
 14 15  1  0
 15 16  1  0
 16 17  1  0
 17 18  1  0
 18 19  1  0
 19 20  1  0
 20 21  2  0
 20 22  1  0
 22 23  1  0
 23 24  1  0
 24 25  1  0
 25 26  2  0
 26 27  1  0
 27 28  2  0
 28 29  1  0
 29 30  2  0
 30 31  1  0
 31 32  2  0
 19 33  1  0
 33 34  1  0
 34 35  1  0
 17 36  1  0
 36 37  2  0
 36  3  1  0
 12  7  1  0
 35 17  1  0
 31 23  1  0
 30 25  1  0
  1 38  1  0
  1 39  1  0
  1 40  1  0
  2 41  1  0
  2 42  1  0
  4 43  1  0
  4 44  1  0
  5 45  1  0
  5 46  1  0
  8 47  1  0
  9 48  1  0
 10 49  1  0
 11 50  1  0
 13 51  1  0
 13 52  1  0
 14 53  1  0
 14 54  1  0
 15 55  1  0
 15 56  1  0
 16 57  1  0
 16 58  1  0
 18 59  1  0
 18 60  1  0
 22 61  1  0
 22 62  1  0
 24 63  1  0
 24 64  1  0
 26 65  1  0
 27 66  1  0
 28 67  1  0
 29 68  1  0
 33 69  1  0
 33 70  1  0
 34 71  1  0
 34 72  1  0
M  END
$$$$
