
     RDKit          3D

 66 68  0  0  0  0  0  0  0  0999 V2000
    6.6925    0.1062    1.7594 C   0  0  0  0  0  0  0  0  0  0  0  0
    5.7367   -0.8562    1.0538 C   0  0  0  0  0  0  0  0  0  0  0  0
    5.5963   -0.5377   -0.3885 N   0  0  0  0  0  0  0  0  0  0  0  0
    4.9048   -1.6203   -1.1294 C   0  0  0  0  0  0  0  0  0  0  0  0
    3.3656   -1.4697   -1.1841 C   0  0  0  0  0  0  0  0  0  0  0  0
    2.8792   -0.4647   -0.2335 N   0  0  0  0  0  0  0  0  0  0  0  0
    1.7332   -0.7575    0.5798 C   0  0  0  0  0  0  0  0  0  0  0  0
    1.8196   -1.6507    1.4681 O   0  0  0  0  0  0  0  0  0  0  0  0
    0.4242   -0.0346    0.3780 C   0  0  0  0  0  0  0  0  0  0  0  0
    0.4557    1.3561    1.0414 C   0  0  0  0  0  0  0  0  0  0  0  0
   -0.9268    1.8892    1.2793 C   0  0  0  0  0  0  0  0  0  0  0  0
   -1.3802    1.9004    2.4540 O   0  0  0  0  0  0  0  0  0  0  0  0
   -1.7175    2.3846    0.1840 N   0  0  0  0  0  0  0  0  0  0  0  0
   -2.9792    3.1180    0.3400 C   0  0  0  0  0  0  0  0  0  0  0  0
   -2.7566    4.4363    1.0893 C   0  0  0  0  0  0  0  0  0  0  0  0
   -4.0361    2.2575    0.9975 C   0  0  0  0  0  0  0  0  0  0  0  0
   -4.0905    2.1989    2.2560 O   0  0  0  0  0  0  0  0  0  0  0  0
   -5.0012    1.5232    0.2181 N   0  0  0  0  0  0  0  0  0  0  0  0
   -6.3311    1.2901    0.7919 C   0  0  0  0  0  0  0  0  0  0  0  0
   -4.6486    0.8765   -1.0556 C   0  0  0  0  0  0  0  0  0  0  0  0
   -4.3183   -0.6051   -0.8384 C   0  0  0  0  0  0  0  0  0  0  0  0
   -2.9039   -0.7942   -0.8084 O   0  0  0  0  0  0  0  0  0  0  0  0
   -2.2848   -2.0537   -0.7423 C   0  0  0  0  0  0  0  0  0  0  0  0
   -2.9501   -3.1786   -0.2169 C   0  0  0  0  0  0  0  0  0  0  0  0
   -2.3189   -4.4253   -0.1911 C   0  0  0  0  0  0  0  0  0  0  0  0
   -1.0263   -4.5670   -0.6942 C   0  0  0  0  0  0  0  0  0  0  0  0
   -0.3565   -3.4610   -1.2225 C   0  0  0  0  0  0  0  0  0  0  0  0
   -0.9731   -2.2005   -1.2333 C   0  0  0  0  0  0  0  0  0  0  0  0
   -0.2686   -1.0591   -1.8398 C   0  0  0  0  0  0  0  0  0  0  0  0
   -0.0069   -1.0886   -3.0739 O   0  0  0  0  0  0  0  0  0  0  0  0
    0.1429    0.0724   -1.0586 N   0  0  0  0  0  0  0  0  0  0  0  0
    3.5299    0.8475   -0.1433 C   0  0  0  0  0  0  0  0  0  0  0  0
    4.9708    0.7756   -0.6647 C   0  0  0  0  0  0  0  0  0  0  0  0
    6.9587   -0.3030    2.7563 H   0  0  0  0  0  0  0  0  0  0  0  0
    7.6261    0.2268    1.1710 H   0  0  0  0  0  0  0  0  0  0  0  0
    6.2130    1.0957    1.9141 H   0  0  0  0  0  0  0  0  0  0  0  0
    4.7539   -0.8620    1.5731 H   0  0  0  0  0  0  0  0  0  0  0  0
    6.1740   -1.8742    1.1661 H   0  0  0  0  0  0  0  0  0  0  0  0
    5.1615   -2.6219   -0.7126 H   0  0  0  0  0  0  0  0  0  0  0  0
    5.2932   -1.6291   -2.1711 H   0  0  0  0  0  0  0  0  0  0  0  0
    2.8982   -2.4601   -0.9881 H   0  0  0  0  0  0  0  0  0  0  0  0
    3.0583   -1.1586   -2.2063 H   0  0  0  0  0  0  0  0  0  0  0  0
   -0.3767   -0.6311    0.8703 H   0  0  0  0  0  0  0  0  0  0  0  0
    0.9881    1.2899    2.0192 H   0  0  0  0  0  0  0  0  0  0  0  0
    1.0110    2.0851    0.4157 H   0  0  0  0  0  0  0  0  0  0  0  0
   -1.3255    2.3128   -0.7811 H   0  0  0  0  0  0  0  0  0  0  0  0
   -3.3477    3.4090   -0.6696 H   0  0  0  0  0  0  0  0  0  0  0  0
   -2.3931    4.2601    2.1219 H   0  0  0  0  0  0  0  0  0  0  0  0
   -3.7051    5.0142    1.1397 H   0  0  0  0  0  0  0  0  0  0  0  0
   -2.0054    5.0515    0.5494 H   0  0  0  0  0  0  0  0  0  0  0  0
   -6.2437    0.7130    1.7371 H   0  0  0  0  0  0  0  0  0  0  0  0
   -6.9795    0.7191    0.0935 H   0  0  0  0  0  0  0  0  0  0  0  0
   -6.8225    2.2632    0.9965 H   0  0  0  0  0  0  0  0  0  0  0  0
   -5.5082    0.9635   -1.7559 H   0  0  0  0  0  0  0  0  0  0  0  0
   -3.7987    1.3851   -1.5545 H   0  0  0  0  0  0  0  0  0  0  0  0
   -4.7761   -0.9681    0.1075 H   0  0  0  0  0  0  0  0  0  0  0  0
   -4.7417   -1.2012   -1.6761 H   0  0  0  0  0  0  0  0  0  0  0  0
   -3.9515   -3.0962    0.1798 H   0  0  0  0  0  0  0  0  0  0  0  0
   -2.8314   -5.2864    0.2178 H   0  0  0  0  0  0  0  0  0  0  0  0
   -0.5460   -5.5360   -0.6740 H   0  0  0  0  0  0  0  0  0  0  0  0
    0.6459   -3.5835   -1.6166 H   0  0  0  0  0  0  0  0  0  0  0  0
    0.5407    0.8877   -1.5794 H   0  0  0  0  0  0  0  0  0  0  0  0
    3.5506    1.1838    0.9191 H   0  0  0  0  0  0  0  0  0  0  0  0
    2.9625    1.5950   -0.7355 H   0  0  0  0  0  0  0  0  0  0  0  0
    4.9653    0.9458   -1.7657 H   0  0  0  0  0  0  0  0  0  0  0  0
    5.5756    1.6017   -0.2340 H   0  0  0  0  0  0  0  0  0  0  0  0
  1  2  1  0
  2  3  1  0
  3  4  1  0
  4  5  1  0
  5  6  1  0
  6  7  1  0
  7  8  2  0
  7  9  1  0
  9 10  1  0
 10 11  1  0
 11 12  2  0
 11 13  1  0
 13 14  1  0
 14 15  1  0
 14 16  1  0
 16 17  2  0
 16 18  1  0
 18 19  1  0
 18 20  1  0
 20 21  1  0
 21 22  1  0
 22 23  1  0
 23 24  2  0
 24 25  1  0
 25 26  2  0
 26 27  1  0
 27 28  2  0
 28 29  1  0
 29 30  2  0
 29 31  1  0
  6 32  1  0
 32 33  1  0
 33  3  1  0
 31  9  1  0
 28 23  1  0
  1 34  1  0
  1 35  1  0
  1 36  1  0
  2 37  1  0
  2 38  1  0
  4 39  1  0
  4 40  1  0
  5 41  1  0
  5 42  1  0
  9 43  1  0
 10 44  1  0
 10 45  1  0
 13 46  1  0
 14 47  1  0
 15 48  1  0
 15 49  1  0
 15 50  1  0
 19 51  1  0
 19 52  1  0
 19 53  1  0
 20 54  1  0
 20 55  1  0
 21 56  1  0
 21 57  1  0
 24 58  1  0
 25 59  1  0
 26 60  1  0
 27 61  1  0
 31 62  1  0
 32 63  1  0
 32 64  1  0
 33 65  1  0
 33 66  1  0
M  END
$$$$
