
     RDKit          3D

 77 79  0  0  0  0  0  0  0  0999 V2000
    4.2440   -2.1580    2.7271 O   0  0  0  0  0  0  0  0  0  0  0  0
    3.9894   -2.4803    1.5318 C   0  0  0  0  0  0  0  0  0  0  0  0
    3.0213   -3.5954    1.2449 C   0  0  0  0  0  0  0  0  0  0  0  0
    1.7395   -3.5020    2.0881 C   0  0  0  0  0  0  0  0  0  0  0  0
    1.0081   -2.1989    1.8720 C   0  0  0  0  0  0  0  0  0  0  0  0
    1.0629   -1.1919    2.8365 C   0  0  0  0  0  0  0  0  0  0  0  0
    0.4027    0.0145    2.6288 C   0  0  0  0  0  0  0  0  0  0  0  0
   -0.3299    0.2646    1.4599 C   0  0  0  0  0  0  0  0  0  0  0  0
   -0.3952   -0.7636    0.4580 C   0  0  0  0  0  0  0  0  0  0  0  0
    0.2899   -1.9762    0.6922 C   0  0  0  0  0  0  0  0  0  0  0  0
   -1.1344   -0.6629   -0.8659 C   0  0  0  0  0  0  0  0  0  0  0  0
   -2.6046   -0.7807   -0.7186 N   0  0  0  0  0  0  0  0  0  0  0  0
   -2.9928   -2.1540   -0.3211 C   0  0  0  0  0  0  0  0  0  0  0  0
   -4.3970   -2.1766    0.2185 C   0  0  0  0  0  0  0  0  0  0  0  0
   -4.6928   -1.5190    1.4249 C   0  0  0  0  0  0  0  0  0  0  0  0
   -5.9982   -1.5264    1.9261 C   0  0  0  0  0  0  0  0  0  0  0  0
   -7.0144   -2.1877    1.2267 C   0  0  0  0  0  0  0  0  0  0  0  0
   -6.7283   -2.8363    0.0221 C   0  0  0  0  0  0  0  0  0  0  0  0
   -5.4247   -2.8322   -0.4823 C   0  0  0  0  0  0  0  0  0  0  0  0
   -3.3046   -0.3528   -1.9646 C   0  0  0  0  0  0  0  0  0  0  0  0
   -4.2669    0.7627   -1.6473 C   0  0  0  0  0  0  0  0  0  0  0  0
   -5.3301    0.4857   -1.0278 O   0  0  0  0  0  0  0  0  0  0  0  0
   -3.9796    2.1418   -1.9455 N   0  0  0  0  0  0  0  0  0  0  0  0
   -3.2504    2.6014   -3.1296 C   0  0  0  0  0  0  0  0  0  0  0  0
   -1.7451    2.7889   -2.8704 C   0  0  0  0  0  0  0  0  0  0  0  0
   -1.4103    3.7041   -1.6678 C   0  0  0  0  0  0  0  0  0  0  0  0
   -0.6740    2.9768   -0.5229 C   0  0  0  0  0  0  0  0  0  0  0  0
   -1.6373    2.2197    0.3965 C   0  0  0  0  0  0  0  0  0  0  0  0
   -0.9442    1.5364    1.4353 O   0  0  0  0  0  0  0  0  0  0  0  0
    4.6623   -1.8185    0.4500 N   0  0  0  0  0  0  0  0  0  0  0  0
    5.5683   -0.6894    0.6544 C   0  0  0  0  0  0  0  0  0  0  0  0
    4.7697    0.5992    0.9083 C   0  0  0  0  0  0  0  0  0  0  0  0
    5.6702    1.8186    1.1865 C   0  0  0  0  0  0  0  0  0  0  0  0
    6.5692    2.2537    0.0125 C   0  0  0  0  0  0  0  0  0  0  0  0
    5.7841    2.7035   -1.2292 C   0  0  0  0  0  0  0  0  0  0  0  0
    5.3795    1.6016   -1.9948 O   0  0  0  0  0  0  0  0  0  0  0  0
    2.7497   -3.5976    0.1676 H   0  0  0  0  0  0  0  0  0  0  0  0
    3.5242   -4.5612    1.4624 H   0  0  0  0  0  0  0  0  0  0  0  0
    1.9925   -3.6359    3.1637 H   0  0  0  0  0  0  0  0  0  0  0  0
    1.0702   -4.3461    1.8127 H   0  0  0  0  0  0  0  0  0  0  0  0
    1.6184   -1.3385    3.7553 H   0  0  0  0  0  0  0  0  0  0  0  0
    0.4599    0.7799    3.3950 H   0  0  0  0  0  0  0  0  0  0  0  0
    0.2617   -2.7650   -0.0515 H   0  0  0  0  0  0  0  0  0  0  0  0
   -0.8495    0.2914   -1.3227 H   0  0  0  0  0  0  0  0  0  0  0  0
   -0.7684   -1.4285   -1.5897 H   0  0  0  0  0  0  0  0  0  0  0  0
   -2.8728   -2.8624   -1.1726 H   0  0  0  0  0  0  0  0  0  0  0  0
   -2.3407   -2.5322    0.4934 H   0  0  0  0  0  0  0  0  0  0  0  0
   -3.9126   -1.0026    1.9747 H   0  0  0  0  0  0  0  0  0  0  0  0
   -6.2217   -1.0221    2.8575 H   0  0  0  0  0  0  0  0  0  0  0  0
   -8.0255   -2.1911    1.6154 H   0  0  0  0  0  0  0  0  0  0  0  0
   -7.5169   -3.3456   -0.5209 H   0  0  0  0  0  0  0  0  0  0  0  0
   -5.2150   -3.3384   -1.4187 H   0  0  0  0  0  0  0  0  0  0  0  0
   -2.6000   -0.0383   -2.7631 H   0  0  0  0  0  0  0  0  0  0  0  0
   -3.8842   -1.1844   -2.4265 H   0  0  0  0  0  0  0  0  0  0  0  0
   -4.5482    2.8604   -1.4409 H   0  0  0  0  0  0  0  0  0  0  0  0
   -3.6726    3.5789   -3.4519 H   0  0  0  0  0  0  0  0  0  0  0  0
   -3.4037    1.8907   -3.9711 H   0  0  0  0  0  0  0  0  0  0  0  0
   -1.2474    1.8090   -2.7998 H   0  0  0  0  0  0  0  0  0  0  0  0
   -1.3184    3.2518   -3.7871 H   0  0  0  0  0  0  0  0  0  0  0  0
   -2.3185    4.2167   -1.2816 H   0  0  0  0  0  0  0  0  0  0  0  0
   -0.7353    4.5119   -2.0299 H   0  0  0  0  0  0  0  0  0  0  0  0
    0.1072    2.3004   -0.9284 H   0  0  0  0  0  0  0  0  0  0  0  0
   -0.1461    3.7403    0.0898 H   0  0  0  0  0  0  0  0  0  0  0  0
   -2.3035    1.5489   -0.1395 H   0  0  0  0  0  0  0  0  0  0  0  0
   -2.2987    2.9693    0.8799 H   0  0  0  0  0  0  0  0  0  0  0  0
    4.5496   -2.1931   -0.5197 H   0  0  0  0  0  0  0  0  0  0  0  0
    6.2490   -0.9007    1.5095 H   0  0  0  0  0  0  0  0  0  0  0  0
    6.1890   -0.5706   -0.2606 H   0  0  0  0  0  0  0  0  0  0  0  0
    4.1008    0.8067    0.0480 H   0  0  0  0  0  0  0  0  0  0  0  0
    4.1143    0.4502    1.7980 H   0  0  0  0  0  0  0  0  0  0  0  0
    6.3202    1.5928    2.0591 H   0  0  0  0  0  0  0  0  0  0  0  0
    5.0234    2.6784    1.4778 H   0  0  0  0  0  0  0  0  0  0  0  0
    7.1743    3.1208    0.3629 H   0  0  0  0  0  0  0  0  0  0  0  0
    7.2944    1.4513   -0.2502 H   0  0  0  0  0  0  0  0  0  0  0  0
    6.4186    3.3787   -1.8472 H   0  0  0  0  0  0  0  0  0  0  0  0
    4.8877    3.2848   -0.9317 H   0  0  0  0  0  0  0  0  0  0  0  0
    6.1885    1.2707   -2.4705 H   0  0  0  0  0  0  0  0  0  0  0  0
  1  2  2  0
  2  3  1  0
  3  4  1  0
  4  5  1  0
  5  6  2  0
  6  7  1  0
  7  8  2  0
  8  9  1  0
  9 10  2  0
  9 11  1  0
 11 12  1  0
 12 13  1  0
 13 14  1  0
 14 15  2  0
 15 16  1  0
 16 17  2  0
 17 18  1  0
 18 19  2  0
 12 20  1  0
 20 21  1  0
 21 22  2  0
 21 23  1  0
 23 24  1  0
 24 25  1  0
 25 26  1  0
 26 27  1  0
 27 28  1  0
 28 29  1  0
  2 30  1  0
 30 31  1  0
 31 32  1  0
 32 33  1  0
 33 34  1  0
 34 35  1  0
 35 36  1  0
 10  5  1  0
 19 14  1  0
 29  8  1  0
  3 37  1  0
  3 38  1  0
  4 39  1  0
  4 40  1  0
  6 41  1  0
  7 42  1  0
 10 43  1  0
 11 44  1  0
 11 45  1  0
 13 46  1  0
 13 47  1  0
 15 48  1  0
 16 49  1  0
 17 50  1  0
 18 51  1  0
 19 52  1  0
 20 53  1  0
 20 54  1  0
 23 55  1  0
 24 56  1  0
 24 57  1  0
 25 58  1  0
 25 59  1  0
 26 60  1  0
 26 61  1  0
 27 62  1  0
 27 63  1  0
 28 64  1  0
 28 65  1  0
 30 66  1  0
 31 67  1  0
 31 68  1  0
 32 69  1  0
 32 70  1  0
 33 71  1  0
 33 72  1  0
 34 73  1  0
 34 74  1  0
 35 75  1  0
 35 76  1  0
 36 77  1  0
M  END
$$$$
