
     RDKit          3D

 65 67  0  0  0  0  0  0  0  0999 V2000
   -5.3131    2.0084   -2.8675 C   0  0  0  0  0  0  0  0  0  0  0  0
   -5.7354    2.1927   -1.4134 C   0  0  0  0  0  0  0  0  0  0  0  0
   -4.7885    1.5920   -0.5301 O   0  0  0  0  0  0  0  0  0  0  0  0
   -3.5035    2.0738   -0.2301 C   0  0  0  0  0  0  0  0  0  0  0  0
   -3.0918    3.3546   -0.6488 C   0  0  0  0  0  0  0  0  0  0  0  0
   -1.8228    3.8330   -0.3333 C   0  0  0  0  0  0  0  0  0  0  0  0
   -0.9408    3.0470    0.3987 C   0  0  0  0  0  0  0  0  0  0  0  0
   -1.3187    1.7700    0.8338 C   0  0  0  0  0  0  0  0  0  0  0  0
   -2.6085    1.2713    0.5276 C   0  0  0  0  0  0  0  0  0  0  0  0
   -2.9455   -0.0111    1.0080 O   0  0  0  0  0  0  0  0  0  0  0  0
   -3.9480   -0.8842    0.4860 C   0  0  0  0  0  0  0  0  0  0  0  0
   -3.9423   -2.2053    1.2587 C   0  0  0  0  0  0  0  0  0  0  0  0
   -2.6243   -2.9880    1.1357 C   0  0  0  0  0  0  0  0  0  0  0  0
   -2.4766   -3.7565   -0.1997 C   0  0  0  0  0  0  0  0  0  0  0  0
   -1.3952   -3.1927   -1.1323 C   0  0  0  0  0  0  0  0  0  0  0  0
   -0.0841   -3.1833   -0.4746 N   0  0  0  0  0  0  0  0  0  0  0  0
    0.5782   -2.0153    0.0447 C   0  0  0  0  0  0  0  0  0  0  0  0
    1.5188   -2.1730    0.8703 O   0  0  0  0  0  0  0  0  0  0  0  0
    0.2316   -0.6227   -0.4205 C   0  0  0  0  0  0  0  0  0  0  0  0
    0.6893    0.3985    0.5373 N   0  0  0  0  0  0  0  0  0  0  0  0
    2.0212    0.9659    0.4638 C   0  0  0  0  0  0  0  0  0  0  0  0
    2.3162    1.9627    1.1783 O   0  0  0  0  0  0  0  0  0  0  0  0
    3.0664    0.4495   -0.4964 C   0  0  0  0  0  0  0  0  0  0  0  0
    4.4171    0.5682    0.0893 N   0  0  0  0  0  0  0  0  0  0  0  0
    4.6606   -0.4973    1.0839 C   0  0  0  0  0  0  0  0  0  0  0  0
    5.9587   -0.2206    1.8656 C   0  0  0  0  0  0  0  0  0  0  0  0
    6.9366    0.6680    1.0812 C   0  0  0  0  0  0  0  0  0  0  0  0
    6.8763    0.3567   -0.4161 C   0  0  0  0  0  0  0  0  0  0  0  0
    5.4461    0.5292   -0.9761 C   0  0  0  0  0  0  0  0  0  0  0  0
   -0.2834    0.9075    1.5210 C   0  0  0  0  0  0  0  0  0  0  0  0
   -4.3899    2.5836   -3.0821 H   0  0  0  0  0  0  0  0  0  0  0  0
   -5.1275    0.9329   -3.0723 H   0  0  0  0  0  0  0  0  0  0  0  0
   -6.1213    2.3671   -3.5384 H   0  0  0  0  0  0  0  0  0  0  0  0
   -5.8850    3.2656   -1.1708 H   0  0  0  0  0  0  0  0  0  0  0  0
   -6.7116    1.6836   -1.2675 H   0  0  0  0  0  0  0  0  0  0  0  0
   -3.7485    3.9998   -1.2146 H   0  0  0  0  0  0  0  0  0  0  0  0
   -1.5200    4.8172   -0.6652 H   0  0  0  0  0  0  0  0  0  0  0  0
    0.0481    3.4294    0.6146 H   0  0  0  0  0  0  0  0  0  0  0  0
   -3.7722   -1.0649   -0.5967 H   0  0  0  0  0  0  0  0  0  0  0  0
   -4.9537   -0.4400    0.6334 H   0  0  0  0  0  0  0  0  0  0  0  0
   -4.7941   -2.8368    0.9253 H   0  0  0  0  0  0  0  0  0  0  0  0
   -4.1138   -1.9757    2.3337 H   0  0  0  0  0  0  0  0  0  0  0  0
   -2.6145   -3.7374    1.9584 H   0  0  0  0  0  0  0  0  0  0  0  0
   -1.7666   -2.3134    1.3348 H   0  0  0  0  0  0  0  0  0  0  0  0
   -3.4406   -3.7851   -0.7520 H   0  0  0  0  0  0  0  0  0  0  0  0
   -2.2148   -4.8142    0.0242 H   0  0  0  0  0  0  0  0  0  0  0  0
   -1.6944   -2.2004   -1.5130 H   0  0  0  0  0  0  0  0  0  0  0  0
   -1.3311   -3.8515   -2.0252 H   0  0  0  0  0  0  0  0  0  0  0  0
    0.3240   -4.1134   -0.2280 H   0  0  0  0  0  0  0  0  0  0  0  0
    0.6589   -0.4394   -1.4282 H   0  0  0  0  0  0  0  0  0  0  0  0
   -0.8606   -0.5322   -0.5350 H   0  0  0  0  0  0  0  0  0  0  0  0
    2.8750   -0.6036   -0.7922 H   0  0  0  0  0  0  0  0  0  0  0  0
    2.9893    1.0717   -1.4150 H   0  0  0  0  0  0  0  0  0  0  0  0
    4.7340   -1.4874    0.5776 H   0  0  0  0  0  0  0  0  0  0  0  0
    3.8214   -0.5556    1.8117 H   0  0  0  0  0  0  0  0  0  0  0  0
    5.7173    0.2782    2.8294 H   0  0  0  0  0  0  0  0  0  0  0  0
    6.4486   -1.1893    2.1041 H   0  0  0  0  0  0  0  0  0  0  0  0
    6.6762    1.7376    1.2390 H   0  0  0  0  0  0  0  0  0  0  0  0
    7.9708    0.5098    1.4571 H   0  0  0  0  0  0  0  0  0  0  0  0
    7.2108   -0.6924   -0.5759 H   0  0  0  0  0  0  0  0  0  0  0  0
    7.5811    1.0190   -0.9642 H   0  0  0  0  0  0  0  0  0  0  0  0
    5.2414   -0.2966   -1.6957 H   0  0  0  0  0  0  0  0  0  0  0  0
    5.4030    1.4851   -1.5431 H   0  0  0  0  0  0  0  0  0  0  0  0
    0.2169    1.4993    2.3169 H   0  0  0  0  0  0  0  0  0  0  0  0
   -0.7506    0.0503    2.0495 H   0  0  0  0  0  0  0  0  0  0  0  0
  1  2  1  0
  2  3  1  0
  3  4  1  0
  4  5  2  0
  5  6  1  0
  6  7  2  0
  7  8  1  0
  8  9  2  0
  9 10  1  0
 10 11  1  0
 11 12  1  0
 12 13  1  0
 13 14  1  0
 14 15  1  0
 15 16  1  0
 16 17  1  0
 17 18  2  0
 17 19  1  0
 19 20  1  0
 20 21  1  0
 21 22  2  0
 21 23  1  0
 23 24  1  0
 24 25  1  0
 25 26  1  0
 26 27  1  0
 27 28  1  0
 28 29  1  0
 20 30  1  0
  9  4  1  0
 29 24  1  0
 30  8  1  0
  1 31  1  0
  1 32  1  0
  1 33  1  0
  2 34  1  0
  2 35  1  0
  5 36  1  0
  6 37  1  0
  7 38  1  0
 11 39  1  0
 11 40  1  0
 12 41  1  0
 12 42  1  0
 13 43  1  0
 13 44  1  0
 14 45  1  0
 14 46  1  0
 15 47  1  0
 15 48  1  0
 16 49  1  0
 19 50  1  0
 19 51  1  0
 23 52  1  0
 23 53  1  0
 25 54  1  0
 25 55  1  0
 26 56  1  0
 26 57  1  0
 27 58  1  0
 27 59  1  0
 28 60  1  0
 28 61  1  0
 29 62  1  0
 29 63  1  0
 30 64  1  0
 30 65  1  0
M  END
$$$$
