
     RDKit          3D

 70 73  0  0  0  0  0  0  0  0999 V2000
   -4.3129    4.8112    2.4470 C   0  0  0  0  0  0  0  0  0  0  0  0
   -3.2723    5.1096    1.3675 C   0  0  0  0  0  0  0  0  0  0  0  0
   -2.8736    3.8599    0.5682 C   0  0  0  0  0  0  0  0  0  0  0  0
   -2.0569    2.8600    1.4021 C   0  0  0  0  0  0  0  0  0  0  0  0
   -1.5159    1.7797    0.5576 N   0  0  0  0  0  0  0  0  0  0  0  0
   -2.4284    0.8359   -0.1244 C   0  0  0  0  0  0  0  0  0  0  0  0
   -3.3993    0.1755    0.8718 C   0  0  0  0  0  0  0  0  0  0  0  0
   -4.2236   -0.8423    0.2960 O   0  0  0  0  0  0  0  0  0  0  0  0
   -3.9093   -1.7614   -0.7203 C   0  0  0  0  0  0  0  0  0  0  0  0
   -4.7917   -1.7893   -1.8099 C   0  0  0  0  0  0  0  0  0  0  0  0
   -4.6415   -2.7198   -2.8367 C   0  0  0  0  0  0  0  0  0  0  0  0
   -3.6129   -3.6552   -2.7824 C   0  0  0  0  0  0  0  0  0  0  0  0
   -2.7249   -3.6529   -1.7078 C   0  0  0  0  0  0  0  0  0  0  0  0
   -2.8398   -2.7049   -0.6695 C   0  0  0  0  0  0  0  0  0  0  0  0
   -1.8026   -2.7623    0.4326 C   0  0  0  0  0  0  0  0  0  0  0  0
   -0.3964   -2.4799   -0.1402 C   0  0  0  0  0  0  0  0  0  0  0  0
    0.5995   -1.8854    0.8768 C   0  0  0  0  0  0  0  0  0  0  0  0
    0.3908   -0.3876    1.1586 C   0  0  0  0  0  0  0  0  0  0  0  0
    0.8216    0.6844    0.0679 C   0  0  0  0  0  0  0  0  0  0  0  0
    2.2634    1.2050    0.4016 C   0  0  0  0  0  0  0  0  0  0  0  0
    3.2722    0.2910   -0.1105 N   0  0  0  0  0  0  0  0  0  0  0  0
    4.5320    0.1371    0.5720 C   0  0  0  0  0  0  0  0  0  0  0  0
    4.9527    1.0655    1.3141 O   0  0  0  0  0  0  0  0  0  0  0  0
    5.3283   -1.1048    0.4414 C   0  0  0  0  0  0  0  0  0  0  0  0
    4.8416   -2.3407    0.0601 C   0  0  0  0  0  0  0  0  0  0  0  0
    5.9351   -3.1816    0.1181 C   0  0  0  0  0  0  0  0  0  0  0  0
    7.0201   -2.4879    0.5112 N   0  0  0  0  0  0  0  0  0  0  0  0
    6.6485   -1.2323    0.7051 N   0  0  0  0  0  0  0  0  0  0  0  0
    7.5708   -0.1872    1.1378 C   0  0  0  0  0  0  0  0  0  0  0  0
    3.1672    0.0414   -1.5387 C   0  0  0  0  0  0  0  0  0  0  0  0
    1.7845   -0.5185   -1.8373 C   0  0  0  0  0  0  0  0  0  0  0  0
    0.6992    0.2249   -1.2844 O   0  0  0  0  0  0  0  0  0  0  0  0
   -0.1339    1.8894    0.1450 C   0  0  0  0  0  0  0  0  0  0  0  0
    0.2709    3.0187   -0.2494 O   0  0  0  0  0  0  0  0  0  0  0  0
   -4.6542    5.7646    2.9041 H   0  0  0  0  0  0  0  0  0  0  0  0
   -3.8763    4.1799    3.2490 H   0  0  0  0  0  0  0  0  0  0  0  0
   -5.1934    4.2953    2.0073 H   0  0  0  0  0  0  0  0  0  0  0  0
   -3.7039    5.8536    0.6629 H   0  0  0  0  0  0  0  0  0  0  0  0
   -2.3742    5.5700    1.8331 H   0  0  0  0  0  0  0  0  0  0  0  0
   -2.2621    4.1844   -0.3017 H   0  0  0  0  0  0  0  0  0  0  0  0
   -3.7888    3.3684    0.1735 H   0  0  0  0  0  0  0  0  0  0  0  0
   -2.6791    2.4299    2.2121 H   0  0  0  0  0  0  0  0  0  0  0  0
   -1.2248    3.3961    1.9115 H   0  0  0  0  0  0  0  0  0  0  0  0
   -1.8472    0.0516   -0.6437 H   0  0  0  0  0  0  0  0  0  0  0  0
   -3.0066    1.3727   -0.9054 H   0  0  0  0  0  0  0  0  0  0  0  0
   -2.8783   -0.2050    1.7686 H   0  0  0  0  0  0  0  0  0  0  0  0
   -4.0930    0.9544    1.2483 H   0  0  0  0  0  0  0  0  0  0  0  0
   -5.6114   -1.0832   -1.8547 H   0  0  0  0  0  0  0  0  0  0  0  0
   -5.3325   -2.7240   -3.6694 H   0  0  0  0  0  0  0  0  0  0  0  0
   -3.5043   -4.3862   -3.5738 H   0  0  0  0  0  0  0  0  0  0  0  0
   -1.9353   -4.3942   -1.6880 H   0  0  0  0  0  0  0  0  0  0  0  0
   -1.8088   -3.7821    0.8763 H   0  0  0  0  0  0  0  0  0  0  0  0
   -2.0478   -2.0894    1.2631 H   0  0  0  0  0  0  0  0  0  0  0  0
    0.0275   -3.4382   -0.5110 H   0  0  0  0  0  0  0  0  0  0  0  0
   -0.4878   -1.8255   -1.0248 H   0  0  0  0  0  0  0  0  0  0  0  0
    1.6460   -2.0612    0.5654 H   0  0  0  0  0  0  0  0  0  0  0  0
    0.4851   -2.4432    1.8324 H   0  0  0  0  0  0  0  0  0  0  0  0
   -0.6554   -0.2760    1.4664 H   0  0  0  0  0  0  0  0  0  0  0  0
    0.9262   -0.1731    2.1079 H   0  0  0  0  0  0  0  0  0  0  0  0
    2.3847    1.3540    1.4967 H   0  0  0  0  0  0  0  0  0  0  0  0
    2.4647    2.1953   -0.0607 H   0  0  0  0  0  0  0  0  0  0  0  0
    3.8308   -2.6052   -0.2172 H   0  0  0  0  0  0  0  0  0  0  0  0
    5.9376   -4.2386   -0.1101 H   0  0  0  0  0  0  0  0  0  0  0  0
    7.5029    0.6847    0.4537 H   0  0  0  0  0  0  0  0  0  0  0  0
    7.3248    0.1269    2.1736 H   0  0  0  0  0  0  0  0  0  0  0  0
    8.6158   -0.5661    1.1179 H   0  0  0  0  0  0  0  0  0  0  0  0
    3.9389   -0.6767   -1.8872 H   0  0  0  0  0  0  0  0  0  0  0  0
    3.3157    0.9933   -2.0952 H   0  0  0  0  0  0  0  0  0  0  0  0
    1.7440   -1.5814   -1.5486 H   0  0  0  0  0  0  0  0  0  0  0  0
    1.6582   -0.5205   -2.9400 H   0  0  0  0  0  0  0  0  0  0  0  0
  1  2  1  0
  2  3  1  0
  3  4  1  0
  4  5  1  0
  5  6  1  0
  6  7  1  0
  7  8  1  0
  8  9  1  0
  9 10  2  0
 10 11  1  0
 11 12  2  0
 12 13  1  0
 13 14  2  0
 14 15  1  0
 15 16  1  0
 16 17  1  0
 17 18  1  0
 18 19  1  0
 19 20  1  0
 20 21  1  0
 21 22  1  0
 22 23  2  0
 22 24  1  0
 24 25  2  0
 25 26  1  0
 26 27  2  0
 27 28  1  0
 28 29  1  0
 21 30  1  0
 30 31  1  0
 31 32  1  0
 19 33  1  0
 33 34  2  0
 33  5  1  0
 14  9  1  0
 32 19  1  0
 28 24  1  0
  1 35  1  0
  1 36  1  0
  1 37  1  0
  2 38  1  0
  2 39  1  0
  3 40  1  0
  3 41  1  0
  4 42  1  0
  4 43  1  0
  6 44  1  0
  6 45  1  0
  7 46  1  0
  7 47  1  0
 10 48  1  0
 11 49  1  0
 12 50  1  0
 13 51  1  0
 15 52  1  0
 15 53  1  0
 16 54  1  0
 16 55  1  0
 17 56  1  0
 17 57  1  0
 18 58  1  0
 18 59  1  0
 20 60  1  0
 20 61  1  0
 25 62  1  0
 26 63  1  0
 29 64  1  0
 29 65  1  0
 29 66  1  0
 30 67  1  0
 30 68  1  0
 31 69  1  0
 31 70  1  0
M  END
$$$$
