
     RDKit          3D

 85 88  0  0  0  0  0  0  0  0999 V2000
   -7.1375    2.0203   -0.2752 C   0  0  0  0  0  0  0  0  0  0  0  0
   -5.6121    2.0089   -0.2758 C   0  0  0  0  0  0  0  0  0  0  0  0
   -5.0813    0.8392    0.4359 N   0  0  0  0  0  0  0  0  0  0  0  0
   -5.1779    0.7723    1.9017 C   0  0  0  0  0  0  0  0  0  0  0  0
   -3.7901    0.8087    2.5451 C   0  0  0  0  0  0  0  0  0  0  0  0
   -3.0329   -0.3598    2.2384 O   0  0  0  0  0  0  0  0  0  0  0  0
   -2.8076   -1.3966    3.1571 C   0  0  0  0  0  0  0  0  0  0  0  0
   -3.8435   -1.8808    3.9745 C   0  0  0  0  0  0  0  0  0  0  0  0
   -3.5865   -2.8784    4.9196 C   0  0  0  0  0  0  0  0  0  0  0  0
   -2.2964   -3.3858    5.0681 C   0  0  0  0  0  0  0  0  0  0  0  0
   -1.2603   -2.9108    4.2591 C   0  0  0  0  0  0  0  0  0  0  0  0
   -1.5129   -1.9329    3.2849 C   0  0  0  0  0  0  0  0  0  0  0  0
   -0.4008   -1.4016    2.4844 C   0  0  0  0  0  0  0  0  0  0  0  0
    0.6358   -0.9766    3.0636 O   0  0  0  0  0  0  0  0  0  0  0  0
   -0.4927   -1.3768    1.0551 N   0  0  0  0  0  0  0  0  0  0  0  0
    0.2268   -0.3833    0.2497 C   0  0  0  0  0  0  0  0  0  0  0  0
    1.7096   -0.6594    0.2499 C   0  0  0  0  0  0  0  0  0  0  0  0
    2.1365   -1.8454    0.3464 O   0  0  0  0  0  0  0  0  0  0  0  0
    2.6272    0.4323    0.0705 N   0  0  0  0  0  0  0  0  0  0  0  0
    4.0776    0.2833    0.1667 C   0  0  0  0  0  0  0  0  0  0  0  0
    4.6329   -0.5097   -1.0232 C   0  0  0  0  0  0  0  0  0  0  0  0
    5.9563   -0.0788   -1.3406 O   0  0  0  0  0  0  0  0  0  0  0  0
    7.0920   -0.2417   -0.5298 C   0  0  0  0  0  0  0  0  0  0  0  0
    7.0985   -1.1004    0.5832 C   0  0  0  0  0  0  0  0  0  0  0  0
    8.2399   -1.2225    1.3757 C   0  0  0  0  0  0  0  0  0  0  0  0
    9.4009   -0.5068    1.0589 C   0  0  0  0  0  0  0  0  0  0  0  0
   10.6157   -0.6134    1.9319 C   0  0  0  0  0  0  0  0  0  0  0  0
    9.3986    0.3579   -0.0455 C   0  0  0  0  0  0  0  0  0  0  0  0
    8.2498    0.4889   -0.8492 C   0  0  0  0  0  0  0  0  0  0  0  0
    8.2185    1.3336   -1.9686 O   0  0  0  0  0  0  0  0  0  0  0  0
    9.2857    2.1849   -2.3656 C   0  0  0  0  0  0  0  0  0  0  0  0
   -0.3093   -0.3432   -1.2044 C   0  0  0  0  0  0  0  0  0  0  0  0
   -1.2410    0.8217   -1.3935 C   0  0  0  0  0  0  0  0  0  0  0  0
   -0.7493    1.9192   -1.7778 O   0  0  0  0  0  0  0  0  0  0  0  0
   -2.6381    0.7653   -1.0667 N   0  0  0  0  0  0  0  0  0  0  0  0
   -3.4388   -0.4662   -1.0908 C   0  0  0  0  0  0  0  0  0  0  0  0
   -3.7196   -0.9105   -2.5437 C   0  0  0  0  0  0  0  0  0  0  0  0
   -4.5384    0.0904   -3.3225 C   0  0  0  0  0  0  0  0  0  0  0  0
   -3.9031    1.1423   -4.0053 C   0  0  0  0  0  0  0  0  0  0  0  0
   -4.6660    2.1044   -4.6756 C   0  0  0  0  0  0  0  0  0  0  0  0
   -6.0631    2.0292   -4.6595 C   0  0  0  0  0  0  0  0  0  0  0  0
   -6.7025    0.9847   -3.9841 C   0  0  0  0  0  0  0  0  0  0  0  0
   -5.9451    0.0133   -3.3248 C   0  0  0  0  0  0  0  0  0  0  0  0
   -4.7201   -0.3541   -0.2836 C   0  0  0  0  0  0  0  0  0  0  0  0
   -5.4409   -1.3794   -0.1629 O   0  0  0  0  0  0  0  0  0  0  0  0
   -7.5306    2.0179    0.7663 H   0  0  0  0  0  0  0  0  0  0  0  0
   -7.5267    1.1442   -0.8312 H   0  0  0  0  0  0  0  0  0  0  0  0
   -7.4759    2.9398   -0.7797 H   0  0  0  0  0  0  0  0  0  0  0  0
   -5.2308    2.9351    0.2038 H   0  0  0  0  0  0  0  0  0  0  0  0
   -5.2873    2.0059   -1.3348 H   0  0  0  0  0  0  0  0  0  0  0  0
   -5.7497    1.6482    2.2938 H   0  0  0  0  0  0  0  0  0  0  0  0
   -5.7244   -0.1475    2.2071 H   0  0  0  0  0  0  0  0  0  0  0  0
   -3.2360    1.6942    2.1723 H   0  0  0  0  0  0  0  0  0  0  0  0
   -3.8910    0.9267    3.6446 H   0  0  0  0  0  0  0  0  0  0  0  0
   -4.8426   -1.4796    3.8914 H   0  0  0  0  0  0  0  0  0  0  0  0
   -4.3839   -3.2545    5.5468 H   0  0  0  0  0  0  0  0  0  0  0  0
   -2.1009   -4.1433    5.8142 H   0  0  0  0  0  0  0  0  0  0  0  0
   -0.2635   -3.3084    4.3902 H   0  0  0  0  0  0  0  0  0  0  0  0
   -1.1115   -2.0839    0.5990 H   0  0  0  0  0  0  0  0  0  0  0  0
    0.0750    0.6115    0.7293 H   0  0  0  0  0  0  0  0  0  0  0  0
    2.2411    1.3933   -0.0805 H   0  0  0  0  0  0  0  0  0  0  0  0
    4.5287    1.2941    0.1729 H   0  0  0  0  0  0  0  0  0  0  0  0
    4.3401   -0.2177    1.1244 H   0  0  0  0  0  0  0  0  0  0  0  0
    3.9993   -0.3320   -1.9180 H   0  0  0  0  0  0  0  0  0  0  0  0
    4.6140   -1.6018   -0.8220 H   0  0  0  0  0  0  0  0  0  0  0  0
    6.2251   -1.6776    0.8470 H   0  0  0  0  0  0  0  0  0  0  0  0
    8.2139   -1.8803    2.2355 H   0  0  0  0  0  0  0  0  0  0  0  0
   10.6128    0.2220    2.6641 H   0  0  0  0  0  0  0  0  0  0  0  0
   10.6273   -1.5836    2.4769 H   0  0  0  0  0  0  0  0  0  0  0  0
   11.5403   -0.5513    1.3167 H   0  0  0  0  0  0  0  0  0  0  0  0
   10.2913    0.9203   -0.2743 H   0  0  0  0  0  0  0  0  0  0  0  0
    9.5001    2.9252   -1.5627 H   0  0  0  0  0  0  0  0  0  0  0  0
    8.9899    2.7269   -3.2868 H   0  0  0  0  0  0  0  0  0  0  0  0
   10.1918    1.5850   -2.5957 H   0  0  0  0  0  0  0  0  0  0  0  0
   -0.7901   -1.2997   -1.5032 H   0  0  0  0  0  0  0  0  0  0  0  0
    0.5354   -0.2051   -1.9163 H   0  0  0  0  0  0  0  0  0  0  0  0
   -3.1210    1.6858   -1.0708 H   0  0  0  0  0  0  0  0  0  0  0  0
   -2.8648   -1.2768   -0.6029 H   0  0  0  0  0  0  0  0  0  0  0  0
   -4.2421   -1.8894   -2.5355 H   0  0  0  0  0  0  0  0  0  0  0  0
   -2.7567   -1.0834   -3.0664 H   0  0  0  0  0  0  0  0  0  0  0  0
   -2.8205    1.2166   -4.0164 H   0  0  0  0  0  0  0  0  0  0  0  0
   -4.1782    2.9132   -5.2095 H   0  0  0  0  0  0  0  0  0  0  0  0
   -6.6527    2.7793   -5.1739 H   0  0  0  0  0  0  0  0  0  0  0  0
   -7.7859    0.9304   -3.9699 H   0  0  0  0  0  0  0  0  0  0  0  0
   -6.4534   -0.7860   -2.7978 H   0  0  0  0  0  0  0  0  0  0  0  0
  1  2  1  0
  2  3  1  0
  3  4  1  0
  4  5  1  0
  5  6  1  0
  6  7  1  0
  7  8  2  0
  8  9  1  0
  9 10  2  0
 10 11  1  0
 11 12  2  0
 12 13  1  0
 13 14  2  0
 13 15  1  0
 15 16  1  0
 16 17  1  0
 17 18  2  0
 17 19  1  0
 19 20  1  0
 20 21  1  0
 21 22  1  0
 22 23  1  0
 23 24  2  0
 24 25  1  0
 25 26  2  0
 26 27  1  0
 26 28  1  0
 28 29  2  0
 29 30  1  0
 30 31  1  0
 16 32  1  0
 32 33  1  0
 33 34  2  0
 33 35  1  0
 35 36  1  0
 36 37  1  0
 37 38  1  0
 38 39  2  0
 39 40  1  0
 40 41  2  0
 41 42  1  0
 42 43  2  0
 36 44  1  0
 44 45  2  0
 44  3  1  0
 12  7  1  0
 29 23  1  0
 43 38  1  0
  1 46  1  0
  1 47  1  0
  1 48  1  0
  2 49  1  0
  2 50  1  0
  4 51  1  0
  4 52  1  0
  5 53  1  0
  5 54  1  0
  8 55  1  0
  9 56  1  0
 10 57  1  0
 11 58  1  0
 15 59  1  0
 16 60  1  0
 19 61  1  0
 20 62  1  0
 20 63  1  0
 21 64  1  0
 21 65  1  0
 24 66  1  0
 25 67  1  0
 27 68  1  0
 27 69  1  0
 27 70  1  0
 28 71  1  0
 31 72  1  0
 31 73  1  0
 31 74  1  0
 32 75  1  0
 32 76  1  0
 35 77  1  0
 36 78  1  0
 37 79  1  0
 37 80  1  0
 39 81  1  0
 40 82  1  0
 41 83  1  0
 42 84  1  0
 43 85  1  0
M  END
$$$$
