
     RDKit          3D

 78 80  0  0  0  0  0  0  0  0999 V2000
    8.4216   -2.6745    0.9146 C   0  0  0  0  0  0  0  0  0  0  0  0
    7.3471   -1.6437    0.7229 C   0  0  0  0  0  0  0  0  0  0  0  0
    6.3099   -1.5224    1.6623 C   0  0  0  0  0  0  0  0  0  0  0  0
    5.3254   -0.5434    1.5032 C   0  0  0  0  0  0  0  0  0  0  0  0
    5.3579    0.3193    0.3992 C   0  0  0  0  0  0  0  0  0  0  0  0
    4.3273    1.3598    0.2350 C   0  0  0  0  0  0  0  0  0  0  0  0
    4.6990    2.5554    0.0791 O   0  0  0  0  0  0  0  0  0  0  0  0
    2.9189    1.0399    0.2402 N   0  0  0  0  0  0  0  0  0  0  0  0
    1.9336    2.0926    0.5204 C   0  0  0  0  0  0  0  0  0  0  0  0
    1.6939    2.9540   -0.7332 C   0  0  0  0  0  0  0  0  0  0  0  0
    0.2873    3.5737   -0.7880 C   0  0  0  0  0  0  0  0  0  0  0  0
   -0.7844    2.5770   -1.2564 C   0  0  0  0  0  0  0  0  0  0  0  0
   -1.2118    1.7466   -0.1797 O   0  0  0  0  0  0  0  0  0  0  0  0
   -2.2752    2.1041    0.6502 C   0  0  0  0  0  0  0  0  0  0  0  0
   -2.0070    2.5546    1.9476 C   0  0  0  0  0  0  0  0  0  0  0  0
   -3.0475    3.0015    2.7659 C   0  0  0  0  0  0  0  0  0  0  0  0
   -4.3622    2.9987    2.2911 C   0  0  0  0  0  0  0  0  0  0  0  0
   -5.6649    3.5779    3.3135 Cl  0  0  0  0  0  0  0  0  0  0  0  0
   -4.6405    2.5240    1.0048 C   0  0  0  0  0  0  0  0  0  0  0  0
   -3.6052    2.0402    0.1881 C   0  0  0  0  0  0  0  0  0  0  0  0
   -3.9214    1.4589   -1.1331 C   0  0  0  0  0  0  0  0  0  0  0  0
   -4.7301    2.0576   -1.8930 O   0  0  0  0  0  0  0  0  0  0  0  0
   -3.3327    0.2133   -1.5578 N   0  0  0  0  0  0  0  0  0  0  0  0
   -2.7815    0.1374   -2.9174 C   0  0  0  0  0  0  0  0  0  0  0  0
   -3.4042   -0.9705   -0.6623 C   0  0  0  0  0  0  0  0  0  0  0  0
   -4.8390   -1.5863   -0.5914 C   0  0  0  0  0  0  0  0  0  0  0  0
   -5.7732   -0.7911    0.3332 C   0  0  0  0  0  0  0  0  0  0  0  0
   -5.4979   -1.7641   -1.9687 C   0  0  0  0  0  0  0  0  0  0  0  0
   -2.3851   -2.0479   -0.9980 C   0  0  0  0  0  0  0  0  0  0  0  0
   -2.4163   -2.6358   -2.1126 O   0  0  0  0  0  0  0  0  0  0  0  0
   -1.4753   -2.5148    0.0077 N   0  0  0  0  0  0  0  0  0  0  0  0
   -1.6833   -3.8528    0.5624 C   0  0  0  0  0  0  0  0  0  0  0  0
   -0.4615   -1.6120    0.5638 C   0  0  0  0  0  0  0  0  0  0  0  0
    0.9491   -2.2025    0.4041 C   0  0  0  0  0  0  0  0  0  0  0  0
    2.0409   -1.2085    0.8326 C   0  0  0  0  0  0  0  0  0  0  0  0
    2.4282   -0.2399   -0.2978 C   0  0  0  0  0  0  0  0  0  0  0  0
    6.4118    0.2231   -0.5210 C   0  0  0  0  0  0  0  0  0  0  0  0
    7.4006   -0.7537   -0.3635 C   0  0  0  0  0  0  0  0  0  0  0  0
    8.4058   -0.8339   -1.2712 F   0  0  0  0  0  0  0  0  0  0  0  0
    8.7001   -3.1289   -0.0603 H   0  0  0  0  0  0  0  0  0  0  0  0
    9.3175   -2.1955    1.3628 H   0  0  0  0  0  0  0  0  0  0  0  0
    8.0769   -3.4915    1.5846 H   0  0  0  0  0  0  0  0  0  0  0  0
    6.2687   -2.1768    2.5240 H   0  0  0  0  0  0  0  0  0  0  0  0
    4.5484   -0.4444    2.2519 H   0  0  0  0  0  0  0  0  0  0  0  0
    2.2886    2.7342    1.3562 H   0  0  0  0  0  0  0  0  0  0  0  0
    0.9933    1.6225    0.8721 H   0  0  0  0  0  0  0  0  0  0  0  0
    1.8731    2.3619   -1.6571 H   0  0  0  0  0  0  0  0  0  0  0  0
    2.4394    3.7783   -0.7369 H   0  0  0  0  0  0  0  0  0  0  0  0
    0.3143    4.4099   -1.5196 H   0  0  0  0  0  0  0  0  0  0  0  0
    0.0133    4.0092    0.1972 H   0  0  0  0  0  0  0  0  0  0  0  0
   -1.6497    3.1360   -1.6757 H   0  0  0  0  0  0  0  0  0  0  0  0
   -0.3869    1.9361   -2.0715 H   0  0  0  0  0  0  0  0  0  0  0  0
   -0.9876    2.5851    2.3112 H   0  0  0  0  0  0  0  0  0  0  0  0
   -2.8294    3.3616    3.7632 H   0  0  0  0  0  0  0  0  0  0  0  0
   -5.6651    2.5079    0.6535 H   0  0  0  0  0  0  0  0  0  0  0  0
   -1.7203   -0.1855   -2.8788 H   0  0  0  0  0  0  0  0  0  0  0  0
   -3.3692   -0.5746   -3.5314 H   0  0  0  0  0  0  0  0  0  0  0  0
   -2.8046    1.1295   -3.4177 H   0  0  0  0  0  0  0  0  0  0  0  0
   -3.1397   -0.6349    0.3640 H   0  0  0  0  0  0  0  0  0  0  0  0
   -4.7539   -2.5988   -0.1353 H   0  0  0  0  0  0  0  0  0  0  0  0
   -6.7011   -1.3725    0.5193 H   0  0  0  0  0  0  0  0  0  0  0  0
   -5.2892   -0.6019    1.3142 H   0  0  0  0  0  0  0  0  0  0  0  0
   -6.0645    0.1747   -0.1253 H   0  0  0  0  0  0  0  0  0  0  0  0
   -4.8725   -2.3953   -2.6306 H   0  0  0  0  0  0  0  0  0  0  0  0
   -6.4796   -2.2718   -1.8561 H   0  0  0  0  0  0  0  0  0  0  0  0
   -5.6690   -0.7812   -2.4568 H   0  0  0  0  0  0  0  0  0  0  0  0
   -1.0627   -4.0147    1.4684 H   0  0  0  0  0  0  0  0  0  0  0  0
   -2.7475   -3.9780    0.8560 H   0  0  0  0  0  0  0  0  0  0  0  0
   -1.4214   -4.6176   -0.1988 H   0  0  0  0  0  0  0  0  0  0  0  0
   -0.5032   -0.6363    0.0404 H   0  0  0  0  0  0  0  0  0  0  0  0
   -0.6802   -1.4306    1.6386 H   0  0  0  0  0  0  0  0  0  0  0  0
    1.0359   -3.1063    1.0444 H   0  0  0  0  0  0  0  0  0  0  0  0
    1.1118   -2.5217   -0.6493 H   0  0  0  0  0  0  0  0  0  0  0  0
    2.9395   -1.7928    1.1175 H   0  0  0  0  0  0  0  0  0  0  0  0
    1.7097   -0.6507    1.7357 H   0  0  0  0  0  0  0  0  0  0  0  0
    3.1942   -0.7125   -0.9506 H   0  0  0  0  0  0  0  0  0  0  0  0
    1.5525   -0.0428   -0.9539 H   0  0  0  0  0  0  0  0  0  0  0  0
    6.4615    0.8987   -1.3665 H   0  0  0  0  0  0  0  0  0  0  0  0
  1  2  1  0
  2  3  2  0
  3  4  1  0
  4  5  2  0
  5  6  1  0
  6  7  2  0
  6  8  1  0
  8  9  1  0
  9 10  1  0
 10 11  1  0
 11 12  1  0
 12 13  1  0
 13 14  1  0
 14 15  2  0
 15 16  1  0
 16 17  2  0
 17 18  1  0
 17 19  1  0
 19 20  2  0
 20 21  1  0
 21 22  2  0
 21 23  1  0
 23 24  1  0
 23 25  1  0
 25 26  1  0
 26 27  1  0
 26 28  1  0
 25 29  1  0
 29 30  2  0
 29 31  1  0
 31 32  1  0
 31 33  1  0
 33 34  1  0
 34 35  1  0
 35 36  1  0
  5 37  1  0
 37 38  2  0
 38 39  1  0
 38  2  1  0
 36  8  1  0
 20 14  1  0
  1 40  1  0
  1 41  1  0
  1 42  1  0
  3 43  1  0
  4 44  1  0
  9 45  1  0
  9 46  1  0
 10 47  1  0
 10 48  1  0
 11 49  1  0
 11 50  1  0
 12 51  1  0
 12 52  1  0
 15 53  1  0
 16 54  1  0
 19 55  1  0
 24 56  1  0
 24 57  1  0
 24 58  1  0
 25 59  1  0
 26 60  1  0
 27 61  1  0
 27 62  1  0
 27 63  1  0
 28 64  1  0
 28 65  1  0
 28 66  1  0
 32 67  1  0
 32 68  1  0
 32 69  1  0
 33 70  1  0
 33 71  1  0
 34 72  1  0
 34 73  1  0
 35 74  1  0
 35 75  1  0
 36 76  1  0
 36 77  1  0
 37 78  1  0
M  END
$$$$
