
     RDKit          3D

 66 68  0  0  0  0  0  0  0  0999 V2000
    6.4258    1.4580    1.5099 C   0  0  0  0  0  0  0  0  0  0  0  0
    6.2648    0.8359    0.1610 C   0  0  0  0  0  0  0  0  0  0  0  0
    6.9074    1.2645   -0.9444 N   0  0  0  0  0  0  0  0  0  0  0  0
    6.5146    0.5078   -1.9574 N   0  0  0  0  0  0  0  0  0  0  0  0
    5.6236   -0.4025   -1.5216 C   0  0  0  0  0  0  0  0  0  0  0  0
    4.9436   -1.4070   -2.3966 C   0  0  0  0  0  0  0  0  0  0  0  0
    5.4444   -0.2334   -0.1612 C   0  0  0  0  0  0  0  0  0  0  0  0
    4.4826   -0.9585    0.7368 C   0  0  0  0  0  0  0  0  0  0  0  0
    3.1153   -0.2629    0.7324 C   0  0  0  0  0  0  0  0  0  0  0  0
    2.0881   -0.9775    1.5771 C   0  0  0  0  0  0  0  0  0  0  0  0
    2.4706   -1.8356    2.4213 O   0  0  0  0  0  0  0  0  0  0  0  0
    0.6761   -0.6870    1.4513 N   0  0  0  0  0  0  0  0  0  0  0  0
   -0.3084   -1.6347    2.0021 C   0  0  0  0  0  0  0  0  0  0  0  0
   -0.4149   -2.9071    1.1416 C   0  0  0  0  0  0  0  0  0  0  0  0
   -0.7033   -2.6294   -0.3441 C   0  0  0  0  0  0  0  0  0  0  0  0
   -2.1193   -2.0835   -0.5896 C   0  0  0  0  0  0  0  0  0  0  0  0
   -2.2378   -1.5468   -1.9458 N   0  0  0  0  0  0  0  0  0  0  0  0
   -3.4425   -0.9469   -2.4402 C   0  0  0  0  0  0  0  0  0  0  0  0
   -3.5378   -0.6810   -3.6683 O   0  0  0  0  0  0  0  0  0  0  0  0
   -4.5917   -0.6622   -1.5610 C   0  0  0  0  0  0  0  0  0  0  0  0
   -5.7896   -1.3619   -1.7708 C   0  0  0  0  0  0  0  0  0  0  0  0
   -6.9183   -1.0798   -0.9974 C   0  0  0  0  0  0  0  0  0  0  0  0
   -8.4062   -1.9720   -1.2570 Cl  0  0  0  0  0  0  0  0  0  0  0  0
   -6.8616   -0.0860   -0.0189 C   0  0  0  0  0  0  0  0  0  0  0  0
   -5.6808    0.6315    0.1858 C   0  0  0  0  0  0  0  0  0  0  0  0
   -4.5343    0.3576   -0.5865 C   0  0  0  0  0  0  0  0  0  0  0  0
   -3.3377    1.0704   -0.4006 O   0  0  0  0  0  0  0  0  0  0  0  0
   -3.2754    2.4558   -0.0564 C   0  0  0  0  0  0  0  0  0  0  0  0
   -1.8265    2.8531    0.2611 C   0  0  0  0  0  0  0  0  0  0  0  0
   -1.6565    4.3732    0.2007 C   0  0  0  0  0  0  0  0  0  0  0  0
   -1.4665    2.3826    1.6048 N   0  0  0  0  0  0  0  0  0  0  0  0
   -0.3881    1.4800    1.8955 C   0  0  0  0  0  0  0  0  0  0  0  0
    0.0986    1.4657    3.0587 O   0  0  0  0  0  0  0  0  0  0  0  0
    0.1857    0.5666    0.8488 C   0  0  0  0  0  0  0  0  0  0  0  0
    7.1438    2.3034    1.4587 H   0  0  0  0  0  0  0  0  0  0  0  0
    6.8104    0.7025    2.2261 H   0  0  0  0  0  0  0  0  0  0  0  0
    5.4463    1.8388    1.8668 H   0  0  0  0  0  0  0  0  0  0  0  0
    6.8499    0.6254   -2.9393 H   0  0  0  0  0  0  0  0  0  0  0  0
    5.2815   -1.2949   -3.4480 H   0  0  0  0  0  0  0  0  0  0  0  0
    5.1881   -2.4320   -2.0478 H   0  0  0  0  0  0  0  0  0  0  0  0
    3.8448   -1.2577   -2.3553 H   0  0  0  0  0  0  0  0  0  0  0  0
    4.8919   -0.9819    1.7697 H   0  0  0  0  0  0  0  0  0  0  0  0
    4.3726   -2.0079    0.3878 H   0  0  0  0  0  0  0  0  0  0  0  0
    3.2298    0.7741    1.1144 H   0  0  0  0  0  0  0  0  0  0  0  0
    2.7459   -0.2216   -0.3151 H   0  0  0  0  0  0  0  0  0  0  0  0
   -0.0203   -1.9156    3.0380 H   0  0  0  0  0  0  0  0  0  0  0  0
   -1.3072   -1.1586    2.0920 H   0  0  0  0  0  0  0  0  0  0  0  0
    0.5424   -3.4667    1.2141 H   0  0  0  0  0  0  0  0  0  0  0  0
   -1.2108   -3.5625    1.5577 H   0  0  0  0  0  0  0  0  0  0  0  0
    0.0579   -1.9268   -0.7464 H   0  0  0  0  0  0  0  0  0  0  0  0
   -0.5932   -3.5805   -0.9091 H   0  0  0  0  0  0  0  0  0  0  0  0
   -2.3529   -1.2801    0.1323 H   0  0  0  0  0  0  0  0  0  0  0  0
   -2.8607   -2.8994   -0.4483 H   0  0  0  0  0  0  0  0  0  0  0  0
   -1.4371   -1.6436   -2.6119 H   0  0  0  0  0  0  0  0  0  0  0  0
   -5.8440   -2.1292   -2.5347 H   0  0  0  0  0  0  0  0  0  0  0  0
   -7.7333    0.1322    0.5855 H   0  0  0  0  0  0  0  0  0  0  0  0
   -5.6686    1.3815    0.9626 H   0  0  0  0  0  0  0  0  0  0  0  0
   -3.9073    2.6813    0.8273 H   0  0  0  0  0  0  0  0  0  0  0  0
   -3.6572    3.0457   -0.9186 H   0  0  0  0  0  0  0  0  0  0  0  0
   -1.1561    2.4219   -0.5119 H   0  0  0  0  0  0  0  0  0  0  0  0
   -1.8805    4.7460   -0.8219 H   0  0  0  0  0  0  0  0  0  0  0  0
   -0.6072    4.6444    0.4477 H   0  0  0  0  0  0  0  0  0  0  0  0
   -2.3359    4.8724    0.9254 H   0  0  0  0  0  0  0  0  0  0  0  0
   -1.9668    2.8081    2.4188 H   0  0  0  0  0  0  0  0  0  0  0  0
    0.9813    1.1173    0.3125 H   0  0  0  0  0  0  0  0  0  0  0  0
   -0.5914    0.3174    0.1000 H   0  0  0  0  0  0  0  0  0  0  0  0
  1  2  1  0
  2  3  2  0
  3  4  1  0
  4  5  1  0
  5  6  1  0
  5  7  2  0
  7  8  1  0
  8  9  1  0
  9 10  1  0
 10 11  2  0
 10 12  1  0
 12 13  1  0
 13 14  1  0
 14 15  1  0
 15 16  1  0
 16 17  1  0
 17 18  1  0
 18 19  2  0
 18 20  1  0
 20 21  2  0
 21 22  1  0
 22 23  1  0
 22 24  2  0
 24 25  1  0
 25 26  2  0
 26 27  1  0
 27 28  1  0
 28 29  1  0
 29 30  1  0
 29 31  1  0
 31 32  1  0
 32 33  2  0
 32 34  1  0
  7  2  1  0
 34 12  1  0
 26 20  1  0
  1 35  1  0
  1 36  1  0
  1 37  1  0
  4 38  1  0
  6 39  1  0
  6 40  1  0
  6 41  1  0
  8 42  1  0
  8 43  1  0
  9 44  1  0
  9 45  1  0
 13 46  1  0
 13 47  1  0
 14 48  1  0
 14 49  1  0
 15 50  1  0
 15 51  1  0
 16 52  1  0
 16 53  1  0
 17 54  1  0
 21 55  1  0
 24 56  1  0
 25 57  1  0
 28 58  1  0
 28 59  1  0
 29 60  1  0
 30 61  1  0
 30 62  1  0
 30 63  1  0
 31 64  1  0
 34 65  1  0
 34 66  1  0
M  END
$$$$
