
     RDKit          3D

 66 69  0  0  0  0  0  0  0  0999 V2000
   -1.1794    6.5425    1.1491 C   0  0  0  0  0  0  0  0  0  0  0  0
   -0.9336    5.1066    1.6032 C   0  0  0  0  0  0  0  0  0  0  0  0
   -1.1432    4.1189    0.4504 C   0  0  0  0  0  0  0  0  0  0  0  0
   -0.8653    2.6806    0.8999 C   0  0  0  0  0  0  0  0  0  0  0  0
   -1.1286    1.7370   -0.1936 N   0  0  0  0  0  0  0  0  0  0  0  0
   -2.5286    1.2615   -0.3885 C   0  0  0  0  0  0  0  0  0  0  0  0
   -2.6210   -0.2059    0.0244 C   0  0  0  0  0  0  0  0  0  0  0  0
   -3.8909   -0.7882    0.1892 O   0  0  0  0  0  0  0  0  0  0  0  0
   -4.0931   -2.1903    0.0998 C   0  0  0  0  0  0  0  0  0  0  0  0
   -5.4322   -2.5746   -0.0600 C   0  0  0  0  0  0  0  0  0  0  0  0
   -5.7875   -3.9036   -0.2724 C   0  0  0  0  0  0  0  0  0  0  0  0
   -4.8079   -4.8870   -0.3274 C   0  0  0  0  0  0  0  0  0  0  0  0
   -3.4685   -4.5538   -0.1387 C   0  0  0  0  0  0  0  0  0  0  0  0
   -3.0643   -3.2248    0.1063 C   0  0  0  0  0  0  0  0  0  0  0  0
   -1.5643   -3.0691    0.4400 C   0  0  0  0  0  0  0  0  0  0  0  0
   -0.6091   -3.2257   -0.7902 C   0  0  0  0  0  0  0  0  0  0  0  0
    0.6590   -2.3019   -0.8132 C   0  0  0  0  0  0  0  0  0  0  0  0
    0.2081   -0.8552   -1.0501 C   0  0  0  0  0  0  0  0  0  0  0  0
    0.9952    0.4713   -1.1537 C   0  0  0  0  0  0  0  0  0  0  0  0
    1.8887    0.7375    0.0854 C   0  0  0  0  0  0  0  0  0  0  0  0
    3.1250   -0.0325    0.0001 N   0  0  0  0  0  0  0  0  0  0  0  0
    3.6861   -0.6417    1.1783 C   0  0  0  0  0  0  0  0  0  0  0  0
    2.9303   -1.2774    1.9620 O   0  0  0  0  0  0  0  0  0  0  0  0
    5.1199   -0.5265    1.5117 C   0  0  0  0  0  0  0  0  0  0  0  0
    5.7969   -1.2983    2.4514 C   0  0  0  0  0  0  0  0  0  0  0  0
    7.1031   -0.9656    2.6324 N   0  0  0  0  0  0  0  0  0  0  0  0
    7.4807    0.0736    1.8565 C   0  0  0  0  0  0  0  0  0  0  0  0
    6.1993    0.6219    0.9180 S   0  0  0  0  0  0  0  0  0  0  0  0
    3.8622    0.0513   -1.2545 C   0  0  0  0  0  0  0  0  0  0  0  0
    2.9129   -0.2262   -2.4159 C   0  0  0  0  0  0  0  0  0  0  0  0
    1.7364    0.5638   -2.3729 O   0  0  0  0  0  0  0  0  0  0  0  0
   -0.1062    1.5692   -1.2188 C   0  0  0  0  0  0  0  0  0  0  0  0
   -0.1359    2.3415   -2.2153 O   0  0  0  0  0  0  0  0  0  0  0  0
   -0.4612    6.8223    0.3490 H   0  0  0  0  0  0  0  0  0  0  0  0
   -1.0412    7.2328    2.0082 H   0  0  0  0  0  0  0  0  0  0  0  0
   -2.2165    6.6549    0.7666 H   0  0  0  0  0  0  0  0  0  0  0  0
    0.1076    5.0239    1.9858 H   0  0  0  0  0  0  0  0  0  0  0  0
   -1.6335    4.8671    2.4333 H   0  0  0  0  0  0  0  0  0  0  0  0
   -2.1910    4.1954    0.0860 H   0  0  0  0  0  0  0  0  0  0  0  0
   -0.4596    4.3790   -0.3865 H   0  0  0  0  0  0  0  0  0  0  0  0
   -1.5042    2.4281    1.7748 H   0  0  0  0  0  0  0  0  0  0  0  0
    0.1880    2.5974    1.2367 H   0  0  0  0  0  0  0  0  0  0  0  0
   -3.2345    1.8497    0.2376 H   0  0  0  0  0  0  0  0  0  0  0  0
   -2.8326    1.3897   -1.4502 H   0  0  0  0  0  0  0  0  0  0  0  0
   -2.1010   -0.2805    0.9996 H   0  0  0  0  0  0  0  0  0  0  0  0
   -2.2172   -0.7600   -0.8245 H   0  0  0  0  0  0  0  0  0  0  0  0
   -6.2101   -1.8210   -0.0517 H   0  0  0  0  0  0  0  0  0  0  0  0
   -6.8282   -4.1692   -0.4090 H   0  0  0  0  0  0  0  0  0  0  0  0
   -5.0881   -5.9180   -0.5018 H   0  0  0  0  0  0  0  0  0  0  0  0
   -2.7362   -5.3524   -0.1588 H   0  0  0  0  0  0  0  0  0  0  0  0
   -1.3414   -2.1990    1.0638 H   0  0  0  0  0  0  0  0  0  0  0  0
   -1.2997   -3.8860    1.1479 H   0  0  0  0  0  0  0  0  0  0  0  0
   -0.2622   -4.2816   -0.8275 H   0  0  0  0  0  0  0  0  0  0  0  0
   -1.1857   -3.0692   -1.7286 H   0  0  0  0  0  0  0  0  0  0  0  0
    1.2242   -2.3967    0.1385 H   0  0  0  0  0  0  0  0  0  0  0  0
    1.2964   -2.6569   -1.6421 H   0  0  0  0  0  0  0  0  0  0  0  0
   -0.4545   -0.8765   -1.9446 H   0  0  0  0  0  0  0  0  0  0  0  0
   -0.2782   -0.6927   -0.0912 H   0  0  0  0  0  0  0  0  0  0  0  0
    2.1608    1.8152    0.1213 H   0  0  0  0  0  0  0  0  0  0  0  0
    1.3397    0.5007    1.0230 H   0  0  0  0  0  0  0  0  0  0  0  0
    5.3333   -2.1047    3.0039 H   0  0  0  0  0  0  0  0  0  0  0  0
    8.4787    0.4897    1.8578 H   0  0  0  0  0  0  0  0  0  0  0  0
    4.6844   -0.6966   -1.2803 H   0  0  0  0  0  0  0  0  0  0  0  0
    4.2937    1.0699   -1.3624 H   0  0  0  0  0  0  0  0  0  0  0  0
    2.6763   -1.2993   -2.4816 H   0  0  0  0  0  0  0  0  0  0  0  0
    3.4499    0.0157   -3.3572 H   0  0  0  0  0  0  0  0  0  0  0  0
  1  2  1  0
  2  3  1  0
  3  4  1  0
  4  5  1  0
  5  6  1  0
  6  7  1  0
  7  8  1  0
  8  9  1  0
  9 10  2  0
 10 11  1  0
 11 12  2  0
 12 13  1  0
 13 14  2  0
 14 15  1  0
 15 16  1  0
 16 17  1  0
 17 18  1  0
 18 19  1  0
 19 20  1  0
 20 21  1  0
 21 22  1  0
 22 23  2  0
 22 24  1  0
 24 25  2  0
 25 26  1  0
 26 27  2  0
 27 28  1  0
 21 29  1  0
 29 30  1  0
 30 31  1  0
 19 32  1  0
 32 33  2  0
 32  5  1  0
 14  9  1  0
 31 19  1  0
 28 24  1  0
  1 34  1  0
  1 35  1  0
  1 36  1  0
  2 37  1  0
  2 38  1  0
  3 39  1  0
  3 40  1  0
  4 41  1  0
  4 42  1  0
  6 43  1  0
  6 44  1  0
  7 45  1  0
  7 46  1  0
 10 47  1  0
 11 48  1  0
 12 49  1  0
 13 50  1  0
 15 51  1  0
 15 52  1  0
 16 53  1  0
 16 54  1  0
 17 55  1  0
 17 56  1  0
 18 57  1  0
 18 58  1  0
 20 59  1  0
 20 60  1  0
 25 61  1  0
 27 62  1  0
 29 63  1  0
 29 64  1  0
 30 65  1  0
 30 66  1  0
M  END
$$$$
