
     RDKit          3D

 84 87  0  0  0  0  0  0  0  0999 V2000
   -7.1966    3.8089   -0.2978 C   0  0  0  0  0  0  0  0  0  0  0  0
   -6.2262    3.1623    0.6960 C   0  0  0  0  0  0  0  0  0  0  0  0
   -6.1292    4.0280    1.9645 C   0  0  0  0  0  0  0  0  0  0  0  0
   -4.8382    2.9195    0.0405 C   0  0  0  0  0  0  0  0  0  0  0  0
   -3.9984    1.8290    0.7636 C   0  0  0  0  0  0  0  0  0  0  0  0
   -2.6843    1.6564    0.1362 N   0  0  0  0  0  0  0  0  0  0  0  0
   -1.5595    1.1803    0.8946 C   0  0  0  0  0  0  0  0  0  0  0  0
   -1.4008    1.5918    2.0763 O   0  0  0  0  0  0  0  0  0  0  0  0
   -0.6162    0.1257    0.3493 C   0  0  0  0  0  0  0  0  0  0  0  0
   -0.2168    0.3455   -1.1348 C   0  0  0  0  0  0  0  0  0  0  0  0
    1.2867    0.4094   -1.2914 C   0  0  0  0  0  0  0  0  0  0  0  0
    1.9390   -0.5987   -1.6752 O   0  0  0  0  0  0  0  0  0  0  0  0
    1.9820    1.6091   -0.9122 N   0  0  0  0  0  0  0  0  0  0  0  0
    3.4407    1.7000   -0.9189 C   0  0  0  0  0  0  0  0  0  0  0  0
    4.0436    0.8273    0.1553 C   0  0  0  0  0  0  0  0  0  0  0  0
    3.6338    0.9558    1.4933 C   0  0  0  0  0  0  0  0  0  0  0  0
    4.2031    0.1542    2.4878 C   0  0  0  0  0  0  0  0  0  0  0  0
    5.1863   -0.7843    2.1544 C   0  0  0  0  0  0  0  0  0  0  0  0
    5.6062   -0.9253    0.8221 C   0  0  0  0  0  0  0  0  0  0  0  0
    6.7281   -1.8654    0.4586 C   0  0  0  0  0  0  0  0  0  0  0  0
    7.9870   -1.1275    0.4092 N   0  0  0  0  0  0  0  0  0  0  0  0
    8.6598   -0.7361   -0.8172 C   0  0  0  0  0  0  0  0  0  0  0  0
    9.8659    0.1267   -0.3823 C   0  0  0  0  0  0  0  0  0  0  0  0
    9.8958    0.1399    1.1566 C   0  0  0  0  0  0  0  0  0  0  0  0
    8.7016   -0.6405    1.5276 C   0  0  0  0  0  0  0  0  0  0  0  0
    8.3543   -0.8710    2.7196 O   0  0  0  0  0  0  0  0  0  0  0  0
    5.0335   -0.1126   -0.1713 C   0  0  0  0  0  0  0  0  0  0  0  0
   -0.8422   -0.6538   -2.0249 N   0  0  0  0  0  0  0  0  0  0  0  0
   -0.5253   -2.0567   -2.0279 C   0  0  0  0  0  0  0  0  0  0  0  0
    0.3187   -2.4857   -2.8642 O   0  0  0  0  0  0  0  0  0  0  0  0
   -1.2459   -3.0339   -1.1607 C   0  0  0  0  0  0  0  0  0  0  0  0
   -0.6555   -4.2856   -0.8921 C   0  0  0  0  0  0  0  0  0  0  0  0
   -1.3264   -5.2466   -0.1264 C   0  0  0  0  0  0  0  0  0  0  0  0
   -2.6005   -4.9768    0.3718 C   0  0  0  0  0  0  0  0  0  0  0  0
   -3.2123   -3.7517    0.0965 C   0  0  0  0  0  0  0  0  0  0  0  0
   -2.5455   -2.7820   -0.6647 C   0  0  0  0  0  0  0  0  0  0  0  0
   -3.1723   -1.5645   -0.9003 O   0  0  0  0  0  0  0  0  0  0  0  0
   -4.2425   -1.4456   -1.8356 C   0  0  0  0  0  0  0  0  0  0  0  0
   -4.9316   -0.1014   -1.6313 C   0  0  0  0  0  0  0  0  0  0  0  0
   -5.5012   -0.0018   -0.2746 N   0  0  0  0  0  0  0  0  0  0  0  0
   -6.7180   -0.7622    0.0244 C   0  0  0  0  0  0  0  0  0  0  0  0
   -4.7107    0.4948    0.8293 C   0  0  0  0  0  0  0  0  0  0  0  0
   -4.6531   -0.1694    1.9021 O   0  0  0  0  0  0  0  0  0  0  0  0
   -8.1838    3.9694    0.1868 H   0  0  0  0  0  0  0  0  0  0  0  0
   -6.8099    4.7787   -0.6624 H   0  0  0  0  0  0  0  0  0  0  0  0
   -7.3480    3.1429   -1.1818 H   0  0  0  0  0  0  0  0  0  0  0  0
   -6.6690    2.1933    0.9998 H   0  0  0  0  0  0  0  0  0  0  0  0
   -7.1439    4.2012    2.3799 H   0  0  0  0  0  0  0  0  0  0  0  0
   -5.5317    3.5198    2.7446 H   0  0  0  0  0  0  0  0  0  0  0  0
   -5.6594    5.0101    1.7368 H   0  0  0  0  0  0  0  0  0  0  0  0
   -4.2554    3.8727    0.0291 H   0  0  0  0  0  0  0  0  0  0  0  0
   -4.9682    2.6282   -1.0256 H   0  0  0  0  0  0  0  0  0  0  0  0
   -3.8401    2.1792    1.8071 H   0  0  0  0  0  0  0  0  0  0  0  0
   -2.4569    2.2231   -0.7265 H   0  0  0  0  0  0  0  0  0  0  0  0
   -1.0942   -0.8631    0.5083 H   0  0  0  0  0  0  0  0  0  0  0  0
    0.2958    0.1179    0.9867 H   0  0  0  0  0  0  0  0  0  0  0  0
   -0.5695    1.3446   -1.4692 H   0  0  0  0  0  0  0  0  0  0  0  0
    1.4309    2.4458   -0.5871 H   0  0  0  0  0  0  0  0  0  0  0  0
    3.7408    2.7478   -0.7256 H   0  0  0  0  0  0  0  0  0  0  0  0
    3.8235    1.4231   -1.9281 H   0  0  0  0  0  0  0  0  0  0  0  0
    2.8797    1.6816    1.7673 H   0  0  0  0  0  0  0  0  0  0  0  0
    3.8799    0.2583    3.5220 H   0  0  0  0  0  0  0  0  0  0  0  0
    5.6108   -1.4103    2.9273 H   0  0  0  0  0  0  0  0  0  0  0  0
    6.5189   -2.3241   -0.5337 H   0  0  0  0  0  0  0  0  0  0  0  0
    6.8117   -2.6958    1.1883 H   0  0  0  0  0  0  0  0  0  0  0  0
    7.9674   -0.1531   -1.4600 H   0  0  0  0  0  0  0  0  0  0  0  0
    8.9945   -1.6372   -1.3759 H   0  0  0  0  0  0  0  0  0  0  0  0
    9.7569    1.1699   -0.7762 H   0  0  0  0  0  0  0  0  0  0  0  0
   10.8170   -0.3044   -0.7847 H   0  0  0  0  0  0  0  0  0  0  0  0
    9.8207    1.1718    1.5534 H   0  0  0  0  0  0  0  0  0  0  0  0
   10.8105   -0.3627    1.5341 H   0  0  0  0  0  0  0  0  0  0  0  0
    5.3732   -0.2030   -1.1998 H   0  0  0  0  0  0  0  0  0  0  0  0
   -1.4565   -0.2981   -2.7949 H   0  0  0  0  0  0  0  0  0  0  0  0
    0.3381   -4.5138   -1.2636 H   0  0  0  0  0  0  0  0  0  0  0  0
   -0.8517   -6.1951    0.0805 H   0  0  0  0  0  0  0  0  0  0  0  0
   -3.1149   -5.7125    0.9734 H   0  0  0  0  0  0  0  0  0  0  0  0
   -4.1963   -3.5455    0.4945 H   0  0  0  0  0  0  0  0  0  0  0  0
   -4.9794   -2.2716   -1.6988 H   0  0  0  0  0  0  0  0  0  0  0  0
   -3.8307   -1.5002   -2.8723 H   0  0  0  0  0  0  0  0  0  0  0  0
   -4.1837    0.6989   -1.8159 H   0  0  0  0  0  0  0  0  0  0  0  0
   -5.7395    0.0145   -2.3863 H   0  0  0  0  0  0  0  0  0  0  0  0
   -7.2061   -0.3712    0.9425 H   0  0  0  0  0  0  0  0  0  0  0  0
   -6.4575   -1.8230    0.1964 H   0  0  0  0  0  0  0  0  0  0  0  0
   -7.4409   -0.6938   -0.8162 H   0  0  0  0  0  0  0  0  0  0  0  0
  1  2  1  0
  2  3  1  0
  2  4  1  0
  4  5  1  0
  5  6  1  0
  6  7  1  0
  7  8  2  0
  7  9  1  0
  9 10  1  0
 10 11  1  0
 11 12  2  0
 11 13  1  0
 13 14  1  0
 14 15  1  0
 15 16  2  0
 16 17  1  0
 17 18  2  0
 18 19  1  0
 19 20  1  0
 20 21  1  0
 21 22  1  0
 22 23  1  0
 23 24  1  0
 24 25  1  0
 25 26  2  0
 19 27  2  0
 10 28  1  0
 28 29  1  0
 29 30  2  0
 29 31  1  0
 31 32  2  0
 32 33  1  0
 33 34  2  0
 34 35  1  0
 35 36  2  0
 36 37  1  0
 37 38  1  0
 38 39  1  0
 39 40  1  0
 40 41  1  0
 40 42  1  0
 42 43  2  0
 42  5  1  0
 27 15  1  0
 36 31  1  0
 25 21  1  0
  1 44  1  0
  1 45  1  0
  1 46  1  0
  2 47  1  0
  3 48  1  0
  3 49  1  0
  3 50  1  0
  4 51  1  0
  4 52  1  0
  5 53  1  0
  6 54  1  0
  9 55  1  0
  9 56  1  0
 10 57  1  0
 13 58  1  0
 14 59  1  0
 14 60  1  0
 16 61  1  0
 17 62  1  0
 18 63  1  0
 20 64  1  0
 20 65  1  0
 22 66  1  0
 22 67  1  0
 23 68  1  0
 23 69  1  0
 24 70  1  0
 24 71  1  0
 27 72  1  0
 28 73  1  0
 32 74  1  0
 33 75  1  0
 34 76  1  0
 35 77  1  0
 38 78  1  0
 38 79  1  0
 39 80  1  0
 39 81  1  0
 41 82  1  0
 41 83  1  0
 41 84  1  0
M  END
$$$$
