
     RDKit          3D

 81 84  0  0  0  0  0  0  0  0999 V2000
   -8.0237    0.4009   -0.7073 C   0  0  0  0  0  0  0  0  0  0  0  0
   -7.1783    0.2033    0.5090 C   0  0  0  0  0  0  0  0  0  0  0  0
   -7.6024    0.4591    1.7622 N   0  0  0  0  0  0  0  0  0  0  0  0
   -6.6207    0.1650    2.5651 O   0  0  0  0  0  0  0  0  0  0  0  0
   -5.5762   -0.2774    1.9026 C   0  0  0  0  0  0  0  0  0  0  0  0
   -4.3053   -0.7152    2.5564 C   0  0  0  0  0  0  0  0  0  0  0  0
   -5.8758   -0.2634    0.5496 C   0  0  0  0  0  0  0  0  0  0  0  0
   -5.0341   -0.6956   -0.5851 C   0  0  0  0  0  0  0  0  0  0  0  0
   -5.5827   -1.1931   -1.6057 O   0  0  0  0  0  0  0  0  0  0  0  0
   -3.6007   -0.5838   -0.5347 N   0  0  0  0  0  0  0  0  0  0  0  0
   -2.9984    0.7212   -0.2143 C   0  0  0  0  0  0  0  0  0  0  0  0
   -2.4428    1.4092   -1.4745 C   0  0  0  0  0  0  0  0  0  0  0  0
   -1.7200    2.7323   -1.1544 C   0  0  0  0  0  0  0  0  0  0  0  0
   -0.2518    2.5460   -0.7449 C   0  0  0  0  0  0  0  0  0  0  0  0
   -0.1676    1.7582    0.4376 O   0  0  0  0  0  0  0  0  0  0  0  0
    0.8824    1.7599    1.3677 C   0  0  0  0  0  0  0  0  0  0  0  0
    0.5457    1.4573    2.6937 C   0  0  0  0  0  0  0  0  0  0  0  0
    1.5025    1.5179    3.7070 C   0  0  0  0  0  0  0  0  0  0  0  0
    2.8148    1.8813    3.4064 C   0  0  0  0  0  0  0  0  0  0  0  0
    4.0034    2.0078    4.6894 Cl  0  0  0  0  0  0  0  0  0  0  0  0
    3.1804    2.1387    2.0823 C   0  0  0  0  0  0  0  0  0  0  0  0
    2.2347    2.0499    1.0489 C   0  0  0  0  0  0  0  0  0  0  0  0
    2.7103    2.2586   -0.3305 C   0  0  0  0  0  0  0  0  0  0  0  0
    3.0184    3.4335   -0.6710 O   0  0  0  0  0  0  0  0  0  0  0  0
    2.8996    1.1671   -1.2655 N   0  0  0  0  0  0  0  0  0  0  0  0
    3.5520    1.4806   -2.5466 C   0  0  0  0  0  0  0  0  0  0  0  0
    2.5415   -0.2361   -0.9380 C   0  0  0  0  0  0  0  0  0  0  0  0
    3.8158   -1.0989   -0.7857 C   0  0  0  0  0  0  0  0  0  0  0  0
    4.6420   -0.6770    0.4005 C   0  0  0  0  0  0  0  0  0  0  0  0
    4.3226   -1.1483    1.6851 C   0  0  0  0  0  0  0  0  0  0  0  0
    5.1012   -0.7752    2.7845 C   0  0  0  0  0  0  0  0  0  0  0  0
    6.1943    0.0793    2.6122 C   0  0  0  0  0  0  0  0  0  0  0  0
    6.5085    0.5653    1.3403 C   0  0  0  0  0  0  0  0  0  0  0  0
    5.7354    0.1902    0.2371 C   0  0  0  0  0  0  0  0  0  0  0  0
    1.6143   -0.8262   -1.9879 C   0  0  0  0  0  0  0  0  0  0  0  0
    1.0800   -0.0750   -2.8489 O   0  0  0  0  0  0  0  0  0  0  0  0
    1.3150   -2.2337   -2.0168 N   0  0  0  0  0  0  0  0  0  0  0  0
    1.3352   -2.9206   -3.3101 C   0  0  0  0  0  0  0  0  0  0  0  0
    0.8414   -2.9447   -0.8194 C   0  0  0  0  0  0  0  0  0  0  0  0
   -0.6874   -3.0926   -0.8446 C   0  0  0  0  0  0  0  0  0  0  0  0
   -1.4040   -1.7962   -0.4311 C   0  0  0  0  0  0  0  0  0  0  0  0
   -2.8017   -1.7028   -1.0655 C   0  0  0  0  0  0  0  0  0  0  0  0
   -7.4598    0.9805   -1.4681 H   0  0  0  0  0  0  0  0  0  0  0  0
   -8.9476    0.9584   -0.4458 H   0  0  0  0  0  0  0  0  0  0  0  0
   -8.3059   -0.5863   -1.1290 H   0  0  0  0  0  0  0  0  0  0  0  0
   -3.8446   -1.5511    1.9914 H   0  0  0  0  0  0  0  0  0  0  0  0
   -4.5192   -1.0663    3.5872 H   0  0  0  0  0  0  0  0  0  0  0  0
   -3.5997    0.1386    2.6080 H   0  0  0  0  0  0  0  0  0  0  0  0
   -3.7531    1.3953    0.2453 H   0  0  0  0  0  0  0  0  0  0  0  0
   -2.2159    0.5747    0.5507 H   0  0  0  0  0  0  0  0  0  0  0  0
   -3.3007    1.6282   -2.1474 H   0  0  0  0  0  0  0  0  0  0  0  0
   -1.7590    0.7371   -2.0327 H   0  0  0  0  0  0  0  0  0  0  0  0
   -2.2646    3.2891   -0.3601 H   0  0  0  0  0  0  0  0  0  0  0  0
   -1.7360    3.3673   -2.0669 H   0  0  0  0  0  0  0  0  0  0  0  0
    0.1845    3.5513   -0.5582 H   0  0  0  0  0  0  0  0  0  0  0  0
    0.3044    2.0565   -1.5686 H   0  0  0  0  0  0  0  0  0  0  0  0
   -0.4777    1.2057    2.9426 H   0  0  0  0  0  0  0  0  0  0  0  0
    1.2168    1.3039    4.7293 H   0  0  0  0  0  0  0  0  0  0  0  0
    4.2082    2.3946    1.8565 H   0  0  0  0  0  0  0  0  0  0  0  0
    2.9362    2.2132   -3.1103 H   0  0  0  0  0  0  0  0  0  0  0  0
    4.5579    1.9137   -2.3623 H   0  0  0  0  0  0  0  0  0  0  0  0
    3.6752    0.5777   -3.1797 H   0  0  0  0  0  0  0  0  0  0  0  0
    1.9870   -0.2802    0.0192 H   0  0  0  0  0  0  0  0  0  0  0  0
    3.5444   -2.1670   -0.6492 H   0  0  0  0  0  0  0  0  0  0  0  0
    4.4278   -1.0587   -1.7116 H   0  0  0  0  0  0  0  0  0  0  0  0
    3.4741   -1.8060    1.8328 H   0  0  0  0  0  0  0  0  0  0  0  0
    4.8523   -1.1420    3.7715 H   0  0  0  0  0  0  0  0  0  0  0  0
    6.7926    0.3716    3.4656 H   0  0  0  0  0  0  0  0  0  0  0  0
    7.3504    1.2334    1.2090 H   0  0  0  0  0  0  0  0  0  0  0  0
    5.9919    0.5712   -0.7428 H   0  0  0  0  0  0  0  0  0  0  0  0
    2.3457   -2.8319   -3.7622 H   0  0  0  0  0  0  0  0  0  0  0  0
    1.0976   -3.9998   -3.1952 H   0  0  0  0  0  0  0  0  0  0  0  0
    0.5860   -2.4654   -3.9922 H   0  0  0  0  0  0  0  0  0  0  0  0
    1.3028   -3.9560   -0.7909 H   0  0  0  0  0  0  0  0  0  0  0  0
    1.1564   -2.4282    0.1120 H   0  0  0  0  0  0  0  0  0  0  0  0
   -1.0065   -3.4119   -1.8615 H   0  0  0  0  0  0  0  0  0  0  0  0
   -0.9834   -3.9010   -0.1412 H   0  0  0  0  0  0  0  0  0  0  0  0
   -1.4896   -1.7699    0.6772 H   0  0  0  0  0  0  0  0  0  0  0  0
   -0.8062   -0.9177   -0.7448 H   0  0  0  0  0  0  0  0  0  0  0  0
   -2.7045   -1.5908   -2.1668 H   0  0  0  0  0  0  0  0  0  0  0  0
   -3.3357   -2.6584   -0.8663 H   0  0  0  0  0  0  0  0  0  0  0  0
  1  2  1  0
  2  3  2  0
  3  4  1  0
  4  5  1  0
  5  6  1  0
  5  7  2  0
  7  8  1  0
  8  9  2  0
  8 10  1  0
 10 11  1  0
 11 12  1  0
 12 13  1  0
 13 14  1  0
 14 15  1  0
 15 16  1  0
 16 17  2  0
 17 18  1  0
 18 19  2  0
 19 20  1  0
 19 21  1  0
 21 22  2  0
 22 23  1  0
 23 24  2  0
 23 25  1  0
 25 26  1  0
 25 27  1  0
 27 28  1  0
 28 29  1  0
 29 30  2  0
 30 31  1  0
 31 32  2  0
 32 33  1  0
 33 34  2  0
 27 35  1  0
 35 36  2  0
 35 37  1  0
 37 38  1  0
 37 39  1  0
 39 40  1  0
 40 41  1  0
 41 42  1  0
  7  2  1  0
 42 10  1  0
 22 16  1  0
 34 29  1  0
  1 43  1  0
  1 44  1  0
  1 45  1  0
  6 46  1  0
  6 47  1  0
  6 48  1  0
 11 49  1  0
 11 50  1  0
 12 51  1  0
 12 52  1  0
 13 53  1  0
 13 54  1  0
 14 55  1  0
 14 56  1  0
 17 57  1  0
 18 58  1  0
 21 59  1  0
 26 60  1  0
 26 61  1  0
 26 62  1  0
 27 63  1  0
 28 64  1  0
 28 65  1  0
 30 66  1  0
 31 67  1  0
 32 68  1  0
 33 69  1  0
 34 70  1  0
 38 71  1  0
 38 72  1  0
 38 73  1  0
 39 74  1  0
 39 75  1  0
 40 76  1  0
 40 77  1  0
 41 78  1  0
 41 79  1  0
 42 80  1  0
 42 81  1  0
M  END
$$$$
