
     RDKit          3D

 68 71  0  0  0  0  0  0  0  0999 V2000
    8.3482    1.6122    1.9558 C   0  0  0  0  0  0  0  0  0  0  0  0
    7.1069    2.2984    2.1112 O   0  0  0  0  0  0  0  0  0  0  0  0
    5.8600    1.6638    2.2201 C   0  0  0  0  0  0  0  0  0  0  0  0
    4.7178    2.4625    2.3522 C   0  0  0  0  0  0  0  0  0  0  0  0
    3.4511    1.8819    2.4518 C   0  0  0  0  0  0  0  0  0  0  0  0
    3.3082    0.4857    2.4401 C   0  0  0  0  0  0  0  0  0  0  0  0
    1.9347   -0.1282    2.4947 C   0  0  0  0  0  0  0  0  0  0  0  0
    1.3192   -0.0739    1.1698 N   0  0  0  0  0  0  0  0  0  0  0  0
    1.7433   -0.9323    0.1014 C   0  0  0  0  0  0  0  0  0  0  0  0
    2.3368   -2.0137    0.3575 O   0  0  0  0  0  0  0  0  0  0  0  0
    1.4813   -0.5513   -1.3293 C   0  0  0  0  0  0  0  0  0  0  0  0
    0.0520   -0.6865   -1.6979 N   0  0  0  0  0  0  0  0  0  0  0  0
   -0.1836   -0.1253   -3.0569 C   0  0  0  0  0  0  0  0  0  0  0  0
    0.0756    1.3929   -3.1877 C   0  0  0  0  0  0  0  0  0  0  0  0
   -0.4786    2.2693   -2.0427 C   0  0  0  0  0  0  0  0  0  0  0  0
   -1.9464    2.7184   -2.2171 C   0  0  0  0  0  0  0  0  0  0  0  0
   -3.0116    1.6749   -1.8393 C   0  0  0  0  0  0  0  0  0  0  0  0
   -2.8472    1.1500   -0.4131 C   0  0  0  0  0  0  0  0  0  0  0  0
   -4.0300    0.4664   -0.0052 O   0  0  0  0  0  0  0  0  0  0  0  0
   -4.0864   -0.2735    1.1798 C   0  0  0  0  0  0  0  0  0  0  0  0
   -5.0192    0.0944    2.1587 C   0  0  0  0  0  0  0  0  0  0  0  0
   -5.0396   -0.5625    3.3906 C   0  0  0  0  0  0  0  0  0  0  0  0
   -4.1394   -1.6012    3.6470 C   0  0  0  0  0  0  0  0  0  0  0  0
   -3.2278   -1.9971    2.6618 C   0  0  0  0  0  0  0  0  0  0  0  0
   -3.2199   -1.3676    1.4129 C   0  0  0  0  0  0  0  0  0  0  0  0
   -2.3545   -1.8512    0.4211 O   0  0  0  0  0  0  0  0  0  0  0  0
   -2.7661   -2.1488   -0.8873 C   0  0  0  0  0  0  0  0  0  0  0  0
   -4.0968   -2.2869   -1.1719 N   0  0  0  0  0  0  0  0  0  0  0  0
   -4.5400   -2.6154   -2.4147 C   0  0  0  0  0  0  0  0  0  0  0  0
   -3.6265   -2.8440   -3.4425 C   0  0  0  0  0  0  0  0  0  0  0  0
   -2.2629   -2.7085   -3.1863 C   0  0  0  0  0  0  0  0  0  0  0  0
   -1.8122   -2.3401   -1.9070 C   0  0  0  0  0  0  0  0  0  0  0  0
   -0.3318   -2.1253   -1.6644 C   0  0  0  0  0  0  0  0  0  0  0  0
    4.4512   -0.3207    2.3008 C   0  0  0  0  0  0  0  0  0  0  0  0
    5.7193    0.2616    2.1937 C   0  0  0  0  0  0  0  0  0  0  0  0
    8.3265    0.9849    1.0401 H   0  0  0  0  0  0  0  0  0  0  0  0
    9.1676    2.3528    1.8555 H   0  0  0  0  0  0  0  0  0  0  0  0
    8.5479    0.9763    2.8445 H   0  0  0  0  0  0  0  0  0  0  0  0
    4.8105    3.5416    2.3673 H   0  0  0  0  0  0  0  0  0  0  0  0
    2.5803    2.5218    2.5303 H   0  0  0  0  0  0  0  0  0  0  0  0
    1.9716   -1.1795    2.8585 H   0  0  0  0  0  0  0  0  0  0  0  0
    1.3054    0.4432    3.2120 H   0  0  0  0  0  0  0  0  0  0  0  0
    0.6340    0.6956    0.9697 H   0  0  0  0  0  0  0  0  0  0  0  0
    1.8180    0.5002   -1.4231 H   0  0  0  0  0  0  0  0  0  0  0  0
    2.1263   -1.1535   -2.0030 H   0  0  0  0  0  0  0  0  0  0  0  0
    0.4478   -0.6577   -3.8026 H   0  0  0  0  0  0  0  0  0  0  0  0
   -1.2331   -0.2885   -3.3630 H   0  0  0  0  0  0  0  0  0  0  0  0
   -0.3270    1.7468   -4.1630 H   0  0  0  0  0  0  0  0  0  0  0  0
    1.1766    1.5585   -3.2513 H   0  0  0  0  0  0  0  0  0  0  0  0
   -0.3013    1.8112   -1.0538 H   0  0  0  0  0  0  0  0  0  0  0  0
    0.1303    3.2007   -2.0299 H   0  0  0  0  0  0  0  0  0  0  0  0
   -2.1079    3.6123   -1.5751 H   0  0  0  0  0  0  0  0  0  0  0  0
   -2.1199    3.0505   -3.2661 H   0  0  0  0  0  0  0  0  0  0  0  0
   -4.0090    2.1597   -1.9227 H   0  0  0  0  0  0  0  0  0  0  0  0
   -3.0093    0.8338   -2.5596 H   0  0  0  0  0  0  0  0  0  0  0  0
   -2.6459    1.9817    0.2903 H   0  0  0  0  0  0  0  0  0  0  0  0
   -1.9885    0.4586   -0.3925 H   0  0  0  0  0  0  0  0  0  0  0  0
   -5.7054    0.9125    1.9739 H   0  0  0  0  0  0  0  0  0  0  0  0
   -5.7476   -0.2551    4.1526 H   0  0  0  0  0  0  0  0  0  0  0  0
   -4.1523   -2.1068    4.6045 H   0  0  0  0  0  0  0  0  0  0  0  0
   -2.5515   -2.8164    2.8611 H   0  0  0  0  0  0  0  0  0  0  0  0
   -5.6002   -2.7169   -2.5991 H   0  0  0  0  0  0  0  0  0  0  0  0
   -3.9717   -3.1214   -4.4321 H   0  0  0  0  0  0  0  0  0  0  0  0
   -1.5573   -2.8737   -3.9925 H   0  0  0  0  0  0  0  0  0  0  0  0
    0.2636   -2.7021   -2.4074 H   0  0  0  0  0  0  0  0  0  0  0  0
   -0.1000   -2.5645   -0.6702 H   0  0  0  0  0  0  0  0  0  0  0  0
    4.3567   -1.3998    2.2719 H   0  0  0  0  0  0  0  0  0  0  0  0
    6.5797   -0.3852    2.0857 H   0  0  0  0  0  0  0  0  0  0  0  0
  1  2  1  0
  2  3  1  0
  3  4  2  0
  4  5  1  0
  5  6  2  0
  6  7  1  0
  7  8  1  0
  8  9  1  0
  9 10  2  0
  9 11  1  0
 11 12  1  0
 12 13  1  0
 13 14  1  0
 14 15  1  0
 15 16  1  0
 16 17  1  0
 17 18  1  0
 18 19  1  0
 19 20  1  0
 20 21  2  0
 21 22  1  0
 22 23  2  0
 23 24  1  0
 24 25  2  0
 25 26  1  0
 26 27  1  0
 27 28  2  0
 28 29  1  0
 29 30  2  0
 30 31  1  0
 31 32  2  0
 32 33  1  0
  6 34  1  0
 34 35  2  0
 35  3  1  0
 33 12  1  0
 25 20  1  0
 32 27  1  0
  1 36  1  0
  1 37  1  0
  1 38  1  0
  4 39  1  0
  5 40  1  0
  7 41  1  0
  7 42  1  0
  8 43  1  0
 11 44  1  0
 11 45  1  0
 13 46  1  0
 13 47  1  0
 14 48  1  0
 14 49  1  0
 15 50  1  0
 15 51  1  0
 16 52  1  0
 16 53  1  0
 17 54  1  0
 17 55  1  0
 18 56  1  0
 18 57  1  0
 21 58  1  0
 22 59  1  0
 23 60  1  0
 24 61  1  0
 29 62  1  0
 30 63  1  0
 31 64  1  0
 33 65  1  0
 33 66  1  0
 34 67  1  0
 35 68  1  0
M  END
$$$$
