
     RDKit          3D

 73 76  0  0  0  0  0  0  0  0999 V2000
   -2.3937    4.4613   -1.1988 C   0  0  0  0  0  0  0  0  0  0  0  0
   -2.2378    4.2814    0.3204 C   0  0  0  0  0  0  0  0  0  0  0  0
   -2.7528    5.5436    1.0323 C   0  0  0  0  0  0  0  0  0  0  0  0
   -2.9984    3.0403    0.8464 C   0  0  0  0  0  0  0  0  0  0  0  0
   -2.5205    1.6867    0.2694 C   0  0  0  0  0  0  0  0  0  0  0  0
   -3.5111    0.5805    0.6681 C   0  0  0  0  0  0  0  0  0  0  0  0
   -3.1899   -0.6378    0.0050 O   0  0  0  0  0  0  0  0  0  0  0  0
   -3.9173   -1.8338    0.1438 C   0  0  0  0  0  0  0  0  0  0  0  0
   -4.9230   -1.9736    1.1234 C   0  0  0  0  0  0  0  0  0  0  0  0
   -5.6249   -3.1737    1.2517 C   0  0  0  0  0  0  0  0  0  0  0  0
   -5.3347   -4.2495    0.4051 C   0  0  0  0  0  0  0  0  0  0  0  0
   -4.3441   -4.1272   -0.5709 C   0  0  0  0  0  0  0  0  0  0  0  0
   -3.6334   -2.9235   -0.7154 C   0  0  0  0  0  0  0  0  0  0  0  0
   -2.5634   -2.8328   -1.7753 C   0  0  0  0  0  0  0  0  0  0  0  0
   -1.3299   -3.6746   -1.3970 C   0  0  0  0  0  0  0  0  0  0  0  0
   -0.0384   -3.1935   -2.0930 C   0  0  0  0  0  0  0  0  0  0  0  0
    0.8251   -2.2679   -1.2154 C   0  0  0  0  0  0  0  0  0  0  0  0
    0.1002   -0.9472   -0.8731 C   0  0  0  0  0  0  0  0  0  0  0  0
    0.9289    0.1635   -0.1565 C   0  0  0  0  0  0  0  0  0  0  0  0
    2.2068    0.5380   -1.0018 C   0  0  0  0  0  0  0  0  0  0  0  0
    3.5118   -0.0280   -0.4265 C   0  0  0  0  0  0  0  0  0  0  0  0
    3.6775    0.4360    0.9593 N   0  0  0  0  0  0  0  0  0  0  0  0
    4.9466    0.9279    1.4341 C   0  0  0  0  0  0  0  0  0  0  0  0
    4.9687    1.8333    2.3124 O   0  0  0  0  0  0  0  0  0  0  0  0
    6.2291    0.4043    0.9247 C   0  0  0  0  0  0  0  0  0  0  0  0
    7.3528    1.1596    1.0219 N   0  0  0  0  0  0  0  0  0  0  0  0
    8.5432    0.7130    0.5411 C   0  0  0  0  0  0  0  0  0  0  0  0
    8.6264   -0.5423   -0.0582 C   0  0  0  0  0  0  0  0  0  0  0  0
    7.4682   -1.3103   -0.1439 C   0  0  0  0  0  0  0  0  0  0  0  0
    6.2960   -0.8258    0.3432 N   0  0  0  0  0  0  0  0  0  0  0  0
    2.5026    0.5149    1.8431 C   0  0  0  0  0  0  0  0  0  0  0  0
    1.3423   -0.3134    1.2763 C   0  0  0  0  0  0  0  0  0  0  0  0
   -0.0172    1.3760   -0.0680 C   0  0  0  0  0  0  0  0  0  0  0  0
    0.1374    2.3565   -0.8517 O   0  0  0  0  0  0  0  0  0  0  0  0
   -1.1822    1.3568    0.7762 N   0  0  0  0  0  0  0  0  0  0  0  0
   -3.4662    4.4395   -1.4882 H   0  0  0  0  0  0  0  0  0  0  0  0
   -1.9600    5.4334   -1.5196 H   0  0  0  0  0  0  0  0  0  0  0  0
   -1.8659    3.6610   -1.7571 H   0  0  0  0  0  0  0  0  0  0  0  0
   -1.1572    4.1759    0.5686 H   0  0  0  0  0  0  0  0  0  0  0  0
   -2.6873    5.4332    2.1358 H   0  0  0  0  0  0  0  0  0  0  0  0
   -3.8143    5.7416    0.7508 H   0  0  0  0  0  0  0  0  0  0  0  0
   -2.1389    6.4198    0.7444 H   0  0  0  0  0  0  0  0  0  0  0  0
   -4.0804    3.1783    0.6231 H   0  0  0  0  0  0  0  0  0  0  0  0
   -2.8987    3.0029    1.9542 H   0  0  0  0  0  0  0  0  0  0  0  0
   -2.5149    1.7265   -0.8404 H   0  0  0  0  0  0  0  0  0  0  0  0
   -3.4672    0.4306    1.7685 H   0  0  0  0  0  0  0  0  0  0  0  0
   -4.5436    0.8768    0.3798 H   0  0  0  0  0  0  0  0  0  0  0  0
   -5.1555   -1.1687    1.8050 H   0  0  0  0  0  0  0  0  0  0  0  0
   -6.3850   -3.2769    2.0180 H   0  0  0  0  0  0  0  0  0  0  0  0
   -5.8721   -5.1843    0.5107 H   0  0  0  0  0  0  0  0  0  0  0  0
   -4.1205   -4.9744   -1.2128 H   0  0  0  0  0  0  0  0  0  0  0  0
   -2.2870   -1.7747   -1.9620 H   0  0  0  0  0  0  0  0  0  0  0  0
   -2.9736   -3.1995   -2.7402 H   0  0  0  0  0  0  0  0  0  0  0  0
   -1.5350   -4.7200   -1.7057 H   0  0  0  0  0  0  0  0  0  0  0  0
   -1.1831   -3.6930   -0.2962 H   0  0  0  0  0  0  0  0  0  0  0  0
   -0.2705   -2.6995   -3.0603 H   0  0  0  0  0  0  0  0  0  0  0  0
    0.5760   -4.0854   -2.3399 H   0  0  0  0  0  0  0  0  0  0  0  0
    1.0867   -2.8159   -0.2877 H   0  0  0  0  0  0  0  0  0  0  0  0
    1.7624   -2.0613   -1.7700 H   0  0  0  0  0  0  0  0  0  0  0  0
   -0.7571   -1.1995   -0.2168 H   0  0  0  0  0  0  0  0  0  0  0  0
   -0.3072   -0.5257   -1.8211 H   0  0  0  0  0  0  0  0  0  0  0  0
    2.3668    1.6376   -1.0254 H   0  0  0  0  0  0  0  0  0  0  0  0
    2.0939    0.2293   -2.0637 H   0  0  0  0  0  0  0  0  0  0  0  0
    4.3505    0.3290   -1.0661 H   0  0  0  0  0  0  0  0  0  0  0  0
    3.5047   -1.1392   -0.4447 H   0  0  0  0  0  0  0  0  0  0  0  0
    9.4249    1.3339    0.6259 H   0  0  0  0  0  0  0  0  0  0  0  0
    9.5683   -0.9133   -0.4448 H   0  0  0  0  0  0  0  0  0  0  0  0
    7.4931   -2.2861   -0.6115 H   0  0  0  0  0  0  0  0  0  0  0  0
    2.1931    1.5803    1.9592 H   0  0  0  0  0  0  0  0  0  0  0  0
    2.7667    0.1182    2.8513 H   0  0  0  0  0  0  0  0  0  0  0  0
    0.4968   -0.3195    1.9867 H   0  0  0  0  0  0  0  0  0  0  0  0
    1.6933   -1.3638    1.2506 H   0  0  0  0  0  0  0  0  0  0  0  0
   -1.0871    1.1344    1.7893 H   0  0  0  0  0  0  0  0  0  0  0  0
  1  2  1  0
  2  3  1  0
  2  4  1  0
  4  5  1  0
  5  6  1  0
  6  7  1  0
  7  8  1  0
  8  9  2  0
  9 10  1  0
 10 11  2  0
 11 12  1  0
 12 13  2  0
 13 14  1  0
 14 15  1  0
 15 16  1  0
 16 17  1  0
 17 18  1  0
 18 19  1  0
 19 20  1  0
 20 21  1  0
 21 22  1  0
 22 23  1  0
 23 24  2  0
 23 25  1  0
 25 26  2  0
 26 27  1  0
 27 28  2  0
 28 29  1  0
 29 30  2  0
 22 31  1  0
 31 32  1  0
 19 33  1  0
 33 34  2  0
 33 35  1  0
 35  5  1  0
 13  8  1  0
 32 19  1  0
 30 25  1  0
  1 36  1  0
  1 37  1  0
  1 38  1  0
  2 39  1  0
  3 40  1  0
  3 41  1  0
  3 42  1  0
  4 43  1  0
  4 44  1  0
  5 45  1  0
  6 46  1  0
  6 47  1  0
  9 48  1  0
 10 49  1  0
 11 50  1  0
 12 51  1  0
 14 52  1  0
 14 53  1  0
 15 54  1  0
 15 55  1  0
 16 56  1  0
 16 57  1  0
 17 58  1  0
 17 59  1  0
 18 60  1  0
 18 61  1  0
 20 62  1  0
 20 63  1  0
 21 64  1  0
 21 65  1  0
 27 66  1  0
 28 67  1  0
 29 68  1  0
 31 69  1  0
 31 70  1  0
 32 71  1  0
 32 72  1  0
 35 73  1  0
M  END
$$$$
