
     RDKit          3D

 67 69  0  0  0  0  0  0  0  0999 V2000
    3.2169   -2.3223   -0.1169 O   0  0  0  0  0  0  0  0  0  0  0  0
    2.7766   -2.1245    1.0490 C   0  0  0  0  0  0  0  0  0  0  0  0
    1.5229   -2.8293    1.5097 C   0  0  0  0  0  0  0  0  0  0  0  0
    0.3018   -2.3858    0.7942 N   0  0  0  0  0  0  0  0  0  0  0  0
    0.2878   -2.8362   -0.6188 C   0  0  0  0  0  0  0  0  0  0  0  0
   -1.1534   -3.0835   -1.1097 C   0  0  0  0  0  0  0  0  0  0  0  0
   -1.5521   -2.1256   -2.2439 C   0  0  0  0  0  0  0  0  0  0  0  0
   -2.9917   -2.3789   -2.7541 C   0  0  0  0  0  0  0  0  0  0  0  0
   -3.9580   -1.2311   -2.4169 C   0  0  0  0  0  0  0  0  0  0  0  0
   -4.3080   -1.1942   -0.9235 C   0  0  0  0  0  0  0  0  0  0  0  0
   -4.9530    0.0294   -0.5643 O   0  0  0  0  0  0  0  0  0  0  0  0
   -4.4253    1.3186   -0.7554 C   0  0  0  0  0  0  0  0  0  0  0  0
   -5.3164    2.3175   -1.1684 C   0  0  0  0  0  0  0  0  0  0  0  0
   -4.8558    3.5912   -1.5076 C   0  0  0  0  0  0  0  0  0  0  0  0
   -3.4964    3.8859   -1.4225 C   0  0  0  0  0  0  0  0  0  0  0  0
   -2.6015    2.9212   -0.9568 C   0  0  0  0  0  0  0  0  0  0  0  0
   -3.0546    1.6504   -0.5789 C   0  0  0  0  0  0  0  0  0  0  0  0
   -2.1159    0.7716   -0.0234 O   0  0  0  0  0  0  0  0  0  0  0  0
   -2.2396    0.1928    1.2464 C   0  0  0  0  0  0  0  0  0  0  0  0
   -3.3246    0.4710    2.0228 N   0  0  0  0  0  0  0  0  0  0  0  0
   -3.5036   -0.0961    3.2438 C   0  0  0  0  0  0  0  0  0  0  0  0
   -2.5587   -0.9892    3.7430 C   0  0  0  0  0  0  0  0  0  0  0  0
   -1.4285   -1.2839    2.9816 C   0  0  0  0  0  0  0  0  0  0  0  0
   -1.2508   -0.6987    1.7166 C   0  0  0  0  0  0  0  0  0  0  0  0
    0.0337   -0.9321    0.9531 C   0  0  0  0  0  0  0  0  0  0  0  0
    3.4678   -1.2383    1.9428 N   0  0  0  0  0  0  0  0  0  0  0  0
    4.6455   -0.4742    1.5406 C   0  0  0  0  0  0  0  0  0  0  0  0
    4.2280    0.7639    0.7402 C   0  0  0  0  0  0  0  0  0  0  0  0
    5.4459    1.6281    0.3936 C   0  0  0  0  0  0  0  0  0  0  0  0
    5.0281    2.8969   -0.3623 C   0  0  0  0  0  0  0  0  0  0  0  0
    6.2183    3.8280   -0.6130 C   0  0  0  0  0  0  0  0  0  0  0  0
    7.1133    3.2546   -1.5294 O   0  0  0  0  0  0  0  0  0  0  0  0
    1.6587   -3.9267    1.3927 H   0  0  0  0  0  0  0  0  0  0  0  0
    1.3852   -2.6688    2.5989 H   0  0  0  0  0  0  0  0  0  0  0  0
    0.8301   -2.1169   -1.2736 H   0  0  0  0  0  0  0  0  0  0  0  0
    0.8335   -3.8017   -0.7225 H   0  0  0  0  0  0  0  0  0  0  0  0
   -1.2303   -4.1261   -1.4905 H   0  0  0  0  0  0  0  0  0  0  0  0
   -1.8669   -3.0029   -0.2634 H   0  0  0  0  0  0  0  0  0  0  0  0
   -1.4298   -1.0769   -1.9017 H   0  0  0  0  0  0  0  0  0  0  0  0
   -0.8454   -2.2707   -3.0889 H   0  0  0  0  0  0  0  0  0  0  0  0
   -3.4023   -3.3385   -2.3692 H   0  0  0  0  0  0  0  0  0  0  0  0
   -2.9580   -2.4744   -3.8623 H   0  0  0  0  0  0  0  0  0  0  0  0
   -3.5110   -0.2689   -2.7445 H   0  0  0  0  0  0  0  0  0  0  0  0
   -4.8982   -1.3685   -2.9939 H   0  0  0  0  0  0  0  0  0  0  0  0
   -5.0007   -2.0314   -0.6974 H   0  0  0  0  0  0  0  0  0  0  0  0
   -3.4189   -1.3590   -0.3024 H   0  0  0  0  0  0  0  0  0  0  0  0
   -6.3692    2.0891   -1.2781 H   0  0  0  0  0  0  0  0  0  0  0  0
   -5.5532    4.3406   -1.8620 H   0  0  0  0  0  0  0  0  0  0  0  0
   -3.1367    4.8682   -1.7003 H   0  0  0  0  0  0  0  0  0  0  0  0
   -1.5527    3.1683   -0.8665 H   0  0  0  0  0  0  0  0  0  0  0  0
   -4.3773    0.1530    3.8292 H   0  0  0  0  0  0  0  0  0  0  0  0
   -2.6902   -1.4306    4.7210 H   0  0  0  0  0  0  0  0  0  0  0  0
   -0.6866   -1.9578    3.3887 H   0  0  0  0  0  0  0  0  0  0  0  0
    0.8384   -0.4190    1.5243 H   0  0  0  0  0  0  0  0  0  0  0  0
    0.0085   -0.4149   -0.0292 H   0  0  0  0  0  0  0  0  0  0  0  0
    3.1436   -1.1590    2.9337 H   0  0  0  0  0  0  0  0  0  0  0  0
    5.3297   -1.1154    0.9427 H   0  0  0  0  0  0  0  0  0  0  0  0
    5.1915   -0.1507    2.4546 H   0  0  0  0  0  0  0  0  0  0  0  0
    3.5113    1.3618    1.3463 H   0  0  0  0  0  0  0  0  0  0  0  0
    3.7175    0.4468   -0.1964 H   0  0  0  0  0  0  0  0  0  0  0  0
    5.9708    1.9162    1.3316 H   0  0  0  0  0  0  0  0  0  0  0  0
    6.1443    1.0349   -0.2356 H   0  0  0  0  0  0  0  0  0  0  0  0
    4.5661    2.6196   -1.3369 H   0  0  0  0  0  0  0  0  0  0  0  0
    4.2713    3.4495    0.2374 H   0  0  0  0  0  0  0  0  0  0  0  0
    6.7300    4.0770    0.3473 H   0  0  0  0  0  0  0  0  0  0  0  0
    5.8388    4.7812   -1.0424 H   0  0  0  0  0  0  0  0  0  0  0  0
    7.7597    2.7158   -1.0025 H   0  0  0  0  0  0  0  0  0  0  0  0
  1  2  2  0
  2  3  1  0
  3  4  1  0
  4  5  1  0
  5  6  1  0
  6  7  1  0
  7  8  1  0
  8  9  1  0
  9 10  1  0
 10 11  1  0
 11 12  1  0
 12 13  2  0
 13 14  1  0
 14 15  2  0
 15 16  1  0
 16 17  2  0
 17 18  1  0
 18 19  1  0
 19 20  2  0
 20 21  1  0
 21 22  2  0
 22 23  1  0
 23 24  2  0
 24 25  1  0
  2 26  1  0
 26 27  1  0
 27 28  1  0
 28 29  1  0
 29 30  1  0
 30 31  1  0
 31 32  1  0
 25  4  1  0
 17 12  1  0
 24 19  1  0
  3 33  1  0
  3 34  1  0
  5 35  1  0
  5 36  1  0
  6 37  1  0
  6 38  1  0
  7 39  1  0
  7 40  1  0
  8 41  1  0
  8 42  1  0
  9 43  1  0
  9 44  1  0
 10 45  1  0
 10 46  1  0
 13 47  1  0
 14 48  1  0
 15 49  1  0
 16 50  1  0
 21 51  1  0
 22 52  1  0
 23 53  1  0
 25 54  1  0
 25 55  1  0
 26 56  1  0
 27 57  1  0
 27 58  1  0
 28 59  1  0
 28 60  1  0
 29 61  1  0
 29 62  1  0
 30 63  1  0
 30 64  1  0
 31 65  1  0
 31 66  1  0
 32 67  1  0
M  END
$$$$
