
     RDKit          3D

 66 68  0  0  0  0  0  0  0  0999 V2000
   -1.6414    4.3904    1.6386 C   0  0  0  0  0  0  0  0  0  0  0  0
   -2.7481    3.6953    0.8308 C   0  0  0  0  0  0  0  0  0  0  0  0
   -3.0274    4.4690   -0.4695 C   0  0  0  0  0  0  0  0  0  0  0  0
   -2.4145    2.1921    0.6122 C   0  0  0  0  0  0  0  0  0  0  0  0
   -3.5004    1.4474   -0.1769 C   0  0  0  0  0  0  0  0  0  0  0  0
   -3.3246    0.0449    0.0020 O   0  0  0  0  0  0  0  0  0  0  0  0
   -4.0659   -0.9507   -0.6534 C   0  0  0  0  0  0  0  0  0  0  0  0
   -5.0031   -0.6491   -1.6613 C   0  0  0  0  0  0  0  0  0  0  0  0
   -5.6990   -1.6764   -2.3078 C   0  0  0  0  0  0  0  0  0  0  0  0
   -5.4623   -3.0113   -1.9659 C   0  0  0  0  0  0  0  0  0  0  0  0
   -6.3261   -4.2945   -2.7945 Cl  0  0  0  0  0  0  0  0  0  0  0  0
   -4.5407   -3.3214   -0.9622 C   0  0  0  0  0  0  0  0  0  0  0  0
   -3.8511   -2.2961   -0.2969 C   0  0  0  0  0  0  0  0  0  0  0  0
   -2.9444   -2.6346    0.8127 C   0  0  0  0  0  0  0  0  0  0  0  0
   -3.2728   -2.3204    1.9887 O   0  0  0  0  0  0  0  0  0  0  0  0
   -1.6978   -3.3032    0.5863 N   0  0  0  0  0  0  0  0  0  0  0  0
   -1.0546   -3.3335   -0.7299 C   0  0  0  0  0  0  0  0  0  0  0  0
    0.4531   -3.6015   -0.6020 C   0  0  0  0  0  0  0  0  0  0  0  0
    1.1972   -2.4701    0.1340 C   0  0  0  0  0  0  0  0  0  0  0  0
    1.5818   -1.3097   -0.7989 C   0  0  0  0  0  0  0  0  0  0  0  0
    1.9730   -0.1131   -0.0323 N   0  0  0  0  0  0  0  0  0  0  0  0
    2.9946   -0.1564    0.9866 C   0  0  0  0  0  0  0  0  0  0  0  0
    2.9008    0.6035    1.9916 O   0  0  0  0  0  0  0  0  0  0  0  0
    4.1947   -1.0588    0.8802 C   0  0  0  0  0  0  0  0  0  0  0  0
    5.4651   -0.2552    0.9612 C   0  0  0  0  0  0  0  0  0  0  0  0
    6.1772   -0.1666    2.1695 C   0  0  0  0  0  0  0  0  0  0  0  0
    7.3407    0.6056    2.2460 C   0  0  0  0  0  0  0  0  0  0  0  0
    7.7962    1.3007    1.1222 C   0  0  0  0  0  0  0  0  0  0  0  0
    7.0869    1.2278   -0.0806 C   0  0  0  0  0  0  0  0  0  0  0  0
    7.5293    1.9058   -1.1689 F   0  0  0  0  0  0  0  0  0  0  0  0
    5.9232    0.4545   -0.1617 C   0  0  0  0  0  0  0  0  0  0  0  0
    1.2527    1.1472   -0.2677 C   0  0  0  0  0  0  0  0  0  0  0  0
   -0.0803    1.1634    0.4267 C   0  0  0  0  0  0  0  0  0  0  0  0
   -0.2609    0.4667    1.4648 O   0  0  0  0  0  0  0  0  0  0  0  0
   -1.1186    2.0267   -0.0601 N   0  0  0  0  0  0  0  0  0  0  0  0
   -1.9396    5.4338    1.8785 H   0  0  0  0  0  0  0  0  0  0  0  0
   -0.6865    4.4182    1.0704 H   0  0  0  0  0  0  0  0  0  0  0  0
   -1.4722    3.8499    2.5961 H   0  0  0  0  0  0  0  0  0  0  0  0
   -3.6745    3.7457    1.4456 H   0  0  0  0  0  0  0  0  0  0  0  0
   -2.1677    4.4287   -1.1666 H   0  0  0  0  0  0  0  0  0  0  0  0
   -3.9284    4.0617   -0.9726 H   0  0  0  0  0  0  0  0  0  0  0  0
   -3.2387    5.5365   -0.2394 H   0  0  0  0  0  0  0  0  0  0  0  0
   -2.3757    1.7309    1.6251 H   0  0  0  0  0  0  0  0  0  0  0  0
   -3.4165    1.7031   -1.2552 H   0  0  0  0  0  0  0  0  0  0  0  0
   -4.5090    1.7334    0.1925 H   0  0  0  0  0  0  0  0  0  0  0  0
   -5.2072    0.3739   -1.9463 H   0  0  0  0  0  0  0  0  0  0  0  0
   -6.4183   -1.4355   -3.0811 H   0  0  0  0  0  0  0  0  0  0  0  0
   -4.3679   -4.3562   -0.6936 H   0  0  0  0  0  0  0  0  0  0  0  0
   -1.1782   -3.6595    1.4228 H   0  0  0  0  0  0  0  0  0  0  0  0
   -1.5229   -4.1339   -1.3406 H   0  0  0  0  0  0  0  0  0  0  0  0
   -1.2117   -2.3671   -1.2537 H   0  0  0  0  0  0  0  0  0  0  0  0
    0.5967   -4.5520   -0.0415 H   0  0  0  0  0  0  0  0  0  0  0  0
    0.8913   -3.7517   -1.6131 H   0  0  0  0  0  0  0  0  0  0  0  0
    0.5880   -2.0847    0.9776 H   0  0  0  0  0  0  0  0  0  0  0  0
    2.1231   -2.8976    0.5727 H   0  0  0  0  0  0  0  0  0  0  0  0
    2.4121   -1.6181   -1.4676 H   0  0  0  0  0  0  0  0  0  0  0  0
    0.7203   -1.0688   -1.4585 H   0  0  0  0  0  0  0  0  0  0  0  0
    4.1545   -1.8081    1.7005 H   0  0  0  0  0  0  0  0  0  0  0  0
    4.1950   -1.6230   -0.0742 H   0  0  0  0  0  0  0  0  0  0  0  0
    5.8308   -0.6913    3.0514 H   0  0  0  0  0  0  0  0  0  0  0  0
    7.8865    0.6685    3.1782 H   0  0  0  0  0  0  0  0  0  0  0  0
    8.6978    1.8973    1.1860 H   0  0  0  0  0  0  0  0  0  0  0  0
    5.3777    0.4077   -1.0962 H   0  0  0  0  0  0  0  0  0  0  0  0
    1.8503    2.0127    0.0881 H   0  0  0  0  0  0  0  0  0  0  0  0
    1.1085    1.2913   -1.3606 H   0  0  0  0  0  0  0  0  0  0  0  0
   -0.9498    2.5358   -0.9595 H   0  0  0  0  0  0  0  0  0  0  0  0
  1  2  1  0
  2  3  1  0
  2  4  1  0
  4  5  1  0
  5  6  1  0
  6  7  1  0
  7  8  2  0
  8  9  1  0
  9 10  2  0
 10 11  1  0
 10 12  1  0
 12 13  2  0
 13 14  1  0
 14 15  2  0
 14 16  1  0
 16 17  1  0
 17 18  1  0
 18 19  1  0
 19 20  1  0
 20 21  1  0
 21 22  1  0
 22 23  2  0
 22 24  1  0
 24 25  1  0
 25 26  2  0
 26 27  1  0
 27 28  2  0
 28 29  1  0
 29 30  1  0
 29 31  2  0
 21 32  1  0
 32 33  1  0
 33 34  2  0
 33 35  1  0
 35  4  1  0
 13  7  1  0
 31 25  1  0
  1 36  1  0
  1 37  1  0
  1 38  1  0
  2 39  1  0
  3 40  1  0
  3 41  1  0
  3 42  1  0
  4 43  1  0
  5 44  1  0
  5 45  1  0
  8 46  1  0
  9 47  1  0
 12 48  1  0
 16 49  1  0
 17 50  1  0
 17 51  1  0
 18 52  1  0
 18 53  1  0
 19 54  1  0
 19 55  1  0
 20 56  1  0
 20 57  1  0
 24 58  1  0
 24 59  1  0
 26 60  1  0
 27 61  1  0
 28 62  1  0
 31 63  1  0
 32 64  1  0
 32 65  1  0
 35 66  1  0
M  END
$$$$
