
     RDKit          3D

 73 77  0  0  0  0  0  0  0  0999 V2000
   -0.2234   -2.7272    1.3315 C   0  0  0  0  0  0  0  0  0  0  0  0
   -1.5204   -2.1974    1.9261 C   0  0  0  0  0  0  0  0  0  0  0  0
   -2.0226   -1.0558    1.1473 N   0  0  0  0  0  0  0  0  0  0  0  0
   -3.4224   -1.0727    0.6845 C   0  0  0  0  0  0  0  0  0  0  0  0
   -4.3332   -0.4002    1.7161 C   0  0  0  0  0  0  0  0  0  0  0  0
   -5.6988   -0.3353    1.2915 O   0  0  0  0  0  0  0  0  0  0  0  0
   -6.1701    0.0788    0.0332 C   0  0  0  0  0  0  0  0  0  0  0  0
   -6.9683   -0.8344   -0.6708 C   0  0  0  0  0  0  0  0  0  0  0  0
   -7.4935   -0.5135   -1.9232 C   0  0  0  0  0  0  0  0  0  0  0  0
   -7.2413    0.7347   -2.4867 C   0  0  0  0  0  0  0  0  0  0  0  0
   -6.4691    1.6677   -1.7948 C   0  0  0  0  0  0  0  0  0  0  0  0
   -5.9325    1.3668   -0.5279 C   0  0  0  0  0  0  0  0  0  0  0  0
   -5.0840    2.4260    0.1373 C   0  0  0  0  0  0  0  0  0  0  0  0
   -3.6873    2.4781   -0.5164 C   0  0  0  0  0  0  0  0  0  0  0  0
   -2.5637    2.8049    0.4799 C   0  0  0  0  0  0  0  0  0  0  0  0
   -1.1549    2.4163   -0.0256 C   0  0  0  0  0  0  0  0  0  0  0  0
   -0.8144    0.8860   -0.1032 C   0  0  0  0  0  0  0  0  0  0  0  0
    0.7487    0.7344   -0.2102 C   0  0  0  0  0  0  0  0  0  0  0  0
    1.1235   -0.4448   -0.9985 N   0  0  0  0  0  0  0  0  0  0  0  0
    2.3363   -1.1699   -0.7330 C   0  0  0  0  0  0  0  0  0  0  0  0
    2.3364   -2.4253   -0.8452 O   0  0  0  0  0  0  0  0  0  0  0  0
    3.5934   -0.4630   -0.4037 C   0  0  0  0  0  0  0  0  0  0  0  0
    3.7548    0.8715   -0.5022 N   0  0  0  0  0  0  0  0  0  0  0  0
    5.0243    1.1351   -0.2309 N   0  0  0  0  0  0  0  0  0  0  0  0
    5.6843    0.0203    0.0389 N   0  0  0  0  0  0  0  0  0  0  0  0
    7.0900   -0.0128    0.3229 C   0  0  0  0  0  0  0  0  0  0  0  0
    7.9885    0.6136   -0.5553 C   0  0  0  0  0  0  0  0  0  0  0  0
    9.3596    0.6129   -0.2815 C   0  0  0  0  0  0  0  0  0  0  0  0
    9.8412   -0.0002    0.8786 C   0  0  0  0  0  0  0  0  0  0  0  0
    8.9508   -0.6090    1.7694 C   0  0  0  0  0  0  0  0  0  0  0  0
    7.5772   -0.6126    1.4988 C   0  0  0  0  0  0  0  0  0  0  0  0
    6.7221   -1.1700    2.3933 F   0  0  0  0  0  0  0  0  0  0  0  0
    4.8221   -1.0122   -0.0683 C   0  0  0  0  0  0  0  0  0  0  0  0
    5.1673   -2.4687    0.0276 C   0  0  0  0  0  0  0  0  0  0  0  0
    0.3834   -0.7481   -2.2223 C   0  0  0  0  0  0  0  0  0  0  0  0
   -0.7568    0.2474   -2.3960 C   0  0  0  0  0  0  0  0  0  0  0  0
   -1.5109    0.3017   -1.2056 O   0  0  0  0  0  0  0  0  0  0  0  0
   -1.2644    0.1764    1.1719 C   0  0  0  0  0  0  0  0  0  0  0  0
   -0.8798    0.6290    2.2872 O   0  0  0  0  0  0  0  0  0  0  0  0
    0.5765   -1.9649    1.4181 H   0  0  0  0  0  0  0  0  0  0  0  0
    0.0984   -3.6351    1.8841 H   0  0  0  0  0  0  0  0  0  0  0  0
   -0.3763   -2.9936    0.2614 H   0  0  0  0  0  0  0  0  0  0  0  0
   -2.2608   -3.0252    1.9433 H   0  0  0  0  0  0  0  0  0  0  0  0
   -1.3457   -1.8869    2.9792 H   0  0  0  0  0  0  0  0  0  0  0  0
   -3.5204   -0.5755   -0.2939 H   0  0  0  0  0  0  0  0  0  0  0  0
   -3.7673   -2.1168    0.5265 H   0  0  0  0  0  0  0  0  0  0  0  0
   -4.2989   -0.9961    2.6528 H   0  0  0  0  0  0  0  0  0  0  0  0
   -3.9572    0.5964    1.9847 H   0  0  0  0  0  0  0  0  0  0  0  0
   -7.1704   -1.8108   -0.2494 H   0  0  0  0  0  0  0  0  0  0  0  0
   -8.0948   -1.2369   -2.4591 H   0  0  0  0  0  0  0  0  0  0  0  0
   -7.6458    0.9841   -3.4598 H   0  0  0  0  0  0  0  0  0  0  0  0
   -6.2839    2.6321   -2.2529 H   0  0  0  0  0  0  0  0  0  0  0  0
   -5.0530    2.2748    1.2314 H   0  0  0  0  0  0  0  0  0  0  0  0
   -5.5700    3.4180    0.0088 H   0  0  0  0  0  0  0  0  0  0  0  0
   -3.6889    3.2448   -1.3215 H   0  0  0  0  0  0  0  0  0  0  0  0
   -3.4864    1.5243   -1.0235 H   0  0  0  0  0  0  0  0  0  0  0  0
   -2.5783    3.9033    0.6512 H   0  0  0  0  0  0  0  0  0  0  0  0
   -2.7402    2.3488    1.4700 H   0  0  0  0  0  0  0  0  0  0  0  0
   -0.9952    2.8836   -1.0222 H   0  0  0  0  0  0  0  0  0  0  0  0
   -0.4307    2.9041    0.6657 H   0  0  0  0  0  0  0  0  0  0  0  0
    1.2182    0.6892    0.7982 H   0  0  0  0  0  0  0  0  0  0  0  0
    1.1807    1.6247   -0.7175 H   0  0  0  0  0  0  0  0  0  0  0  0
    7.6244    1.0919   -1.4564 H   0  0  0  0  0  0  0  0  0  0  0  0
   10.0469    1.0935   -0.9664 H   0  0  0  0  0  0  0  0  0  0  0  0
   10.9035    0.0028    1.0924 H   0  0  0  0  0  0  0  0  0  0  0  0
    9.3264   -1.0687    2.6752 H   0  0  0  0  0  0  0  0  0  0  0  0
    6.2486   -2.6178    0.2145 H   0  0  0  0  0  0  0  0  0  0  0  0
    4.5929   -2.9348    0.8540 H   0  0  0  0  0  0  0  0  0  0  0  0
    4.9135   -2.9765   -0.9269 H   0  0  0  0  0  0  0  0  0  0  0  0
   -0.0303   -1.7783   -2.1601 H   0  0  0  0  0  0  0  0  0  0  0  0
    1.0604   -0.6834   -3.1006 H   0  0  0  0  0  0  0  0  0  0  0  0
   -0.3709    1.2526   -2.6794 H   0  0  0  0  0  0  0  0  0  0  0  0
   -1.4173   -0.0961   -3.2210 H   0  0  0  0  0  0  0  0  0  0  0  0
  1  2  1  0
  2  3  1  0
  3  4  1  0
  4  5  1  0
  5  6  1  0
  6  7  1  0
  7  8  2  0
  8  9  1  0
  9 10  2  0
 10 11  1  0
 11 12  2  0
 12 13  1  0
 13 14  1  0
 14 15  1  0
 15 16  1  0
 16 17  1  0
 17 18  1  0
 18 19  1  0
 19 20  1  0
 20 21  2  0
 20 22  1  0
 22 23  1  0
 23 24  2  0
 24 25  1  0
 25 26  1  0
 26 27  2  0
 27 28  1  0
 28 29  2  0
 29 30  1  0
 30 31  2  0
 31 32  1  0
 25 33  1  0
 33 34  1  0
 19 35  1  0
 35 36  1  0
 36 37  1  0
 17 38  1  0
 38 39  2  0
 38  3  1  0
 12  7  1  0
 37 17  1  0
 33 22  2  0
 31 26  1  0
  1 40  1  0
  1 41  1  0
  1 42  1  0
  2 43  1  0
  2 44  1  0
  4 45  1  0
  4 46  1  0
  5 47  1  0
  5 48  1  0
  8 49  1  0
  9 50  1  0
 10 51  1  0
 11 52  1  0
 13 53  1  0
 13 54  1  0
 14 55  1  0
 14 56  1  0
 15 57  1  0
 15 58  1  0
 16 59  1  0
 16 60  1  0
 18 61  1  0
 18 62  1  0
 27 63  1  0
 28 64  1  0
 29 65  1  0
 30 66  1  0
 34 67  1  0
 34 68  1  0
 34 69  1  0
 35 70  1  0
 35 71  1  0
 36 72  1  0
 36 73  1  0
M  END
$$$$
