
     RDKit          3D

 83 86  0  0  0  0  0  0  0  0999 V2000
   11.1500    0.3558    3.0264 C   0  0  0  0  0  0  0  0  0  0  0  0
    9.8586   -0.1314    2.3835 C   0  0  0  0  0  0  0  0  0  0  0  0
    9.1745    0.9704    1.7958 O   0  0  0  0  0  0  0  0  0  0  0  0
    7.9618    0.8785    1.0979 C   0  0  0  0  0  0  0  0  0  0  0  0
    7.2708   -0.3408    0.9380 C   0  0  0  0  0  0  0  0  0  0  0  0
    6.0669   -0.3810    0.2267 C   0  0  0  0  0  0  0  0  0  0  0  0
    5.5423    0.7897   -0.3479 C   0  0  0  0  0  0  0  0  0  0  0  0
    4.2269    0.7563   -1.0793 C   0  0  0  0  0  0  0  0  0  0  0  0
    3.0878    0.9870   -0.1156 C   0  0  0  0  0  0  0  0  0  0  0  0
    3.0867    2.0699    0.5334 O   0  0  0  0  0  0  0  0  0  0  0  0
    2.0395    0.0126    0.1286 N   0  0  0  0  0  0  0  0  0  0  0  0
    1.2923    0.1071    1.4048 C   0  0  0  0  0  0  0  0  0  0  0  0
    0.2764    1.2854    1.4059 C   0  0  0  0  0  0  0  0  0  0  0  0
   -1.2070    0.8561    1.3491 C   0  0  0  0  0  0  0  0  0  0  0  0
   -1.4957    0.1111    0.0376 C   0  0  0  0  0  0  0  0  0  0  0  0
   -2.9555   -0.3424   -0.2927 C   0  0  0  0  0  0  0  0  0  0  0  0
   -3.8065    0.8971   -0.7044 C   0  0  0  0  0  0  0  0  0  0  0  0
   -5.3139    0.6696   -0.4970 C   0  0  0  0  0  0  0  0  0  0  0  0
   -5.6750    0.2610    0.8924 N   0  0  0  0  0  0  0  0  0  0  0  0
   -6.4645    1.2918    1.5985 C   0  0  0  0  0  0  0  0  0  0  0  0
   -7.8570    1.3621    1.0317 C   0  0  0  0  0  0  0  0  0  0  0  0
   -8.7388    0.2802    1.1719 C   0  0  0  0  0  0  0  0  0  0  0  0
  -10.0120    0.3557    0.6020 C   0  0  0  0  0  0  0  0  0  0  0  0
  -10.3947    1.5021   -0.0969 C   0  0  0  0  0  0  0  0  0  0  0  0
   -9.4929    2.5618   -0.2146 C   0  0  0  0  0  0  0  0  0  0  0  0
   -8.2548    2.4696    0.3431 N   0  0  0  0  0  0  0  0  0  0  0  0
   -4.5334   -0.1872    1.7209 C   0  0  0  0  0  0  0  0  0  0  0  0
   -3.5984   -1.0972    0.9175 C   0  0  0  0  0  0  0  0  0  0  0  0
   -2.8556   -1.3062   -1.4872 C   0  0  0  0  0  0  0  0  0  0  0  0
   -3.8836   -1.8877   -1.9412 O   0  0  0  0  0  0  0  0  0  0  0  0
   -1.6047   -1.5350   -2.0771 O   0  0  0  0  0  0  0  0  0  0  0  0
   -1.3079   -2.6040   -2.9630 C   0  0  0  0  0  0  0  0  0  0  0  0
    0.1890   -2.9911   -2.8686 C   0  0  0  0  0  0  0  0  0  0  0  0
    0.4262   -4.1028   -3.7042 O   0  0  0  0  0  0  0  0  0  0  0  0
    1.1969   -1.8460   -3.2109 C   0  0  0  0  0  0  0  0  0  0  0  0
    2.4678   -2.4123   -3.4195 O   0  0  0  0  0  0  0  0  0  0  0  0
    1.3200   -0.7049   -2.1634 C   0  0  0  0  0  0  0  0  0  0  0  0
    1.8253   -1.1469   -0.7664 C   0  0  0  0  0  0  0  0  0  0  0  0
    6.2269    2.0031   -0.1790 C   0  0  0  0  0  0  0  0  0  0  0  0
    7.4236    2.0459    0.5418 C   0  0  0  0  0  0  0  0  0  0  0  0
   11.7036   -0.5063    3.4600 H   0  0  0  0  0  0  0  0  0  0  0  0
   10.9176    1.0778    3.8364 H   0  0  0  0  0  0  0  0  0  0  0  0
   11.7924    0.8504    2.2651 H   0  0  0  0  0  0  0  0  0  0  0  0
   10.1031   -0.8830    1.6012 H   0  0  0  0  0  0  0  0  0  0  0  0
    9.2200   -0.5967    3.1644 H   0  0  0  0  0  0  0  0  0  0  0  0
    7.6522   -1.2610    1.3620 H   0  0  0  0  0  0  0  0  0  0  0  0
    5.5407   -1.3228    0.1258 H   0  0  0  0  0  0  0  0  0  0  0  0
    4.2024    1.5521   -1.8560 H   0  0  0  0  0  0  0  0  0  0  0  0
    4.1461   -0.2024   -1.6243 H   0  0  0  0  0  0  0  0  0  0  0  0
    2.0200    0.2633    2.2313 H   0  0  0  0  0  0  0  0  0  0  0  0
    0.7909   -0.8504    1.6560 H   0  0  0  0  0  0  0  0  0  0  0  0
    0.4823    1.9795    0.5608 H   0  0  0  0  0  0  0  0  0  0  0  0
    0.4237    1.8774    2.3366 H   0  0  0  0  0  0  0  0  0  0  0  0
   -1.4283    0.2149    2.2298 H   0  0  0  0  0  0  0  0  0  0  0  0
   -1.8368    1.7709    1.4205 H   0  0  0  0  0  0  0  0  0  0  0  0
   -0.8718   -0.8017    0.0759 H   0  0  0  0  0  0  0  0  0  0  0  0
   -1.1402    0.7535   -0.7931 H   0  0  0  0  0  0  0  0  0  0  0  0
   -3.6165    1.1657   -1.7705 H   0  0  0  0  0  0  0  0  0  0  0  0
   -3.5214    1.7886   -0.1075 H   0  0  0  0  0  0  0  0  0  0  0  0
   -5.8457    1.5960   -0.8150 H   0  0  0  0  0  0  0  0  0  0  0  0
   -5.6584   -0.1249   -1.1908 H   0  0  0  0  0  0  0  0  0  0  0  0
   -5.9632    2.2848    1.5342 H   0  0  0  0  0  0  0  0  0  0  0  0
   -6.5535    1.0432    2.6817 H   0  0  0  0  0  0  0  0  0  0  0  0
   -8.4393   -0.6111    1.7107 H   0  0  0  0  0  0  0  0  0  0  0  0
  -10.6998   -0.4728    0.7009 H   0  0  0  0  0  0  0  0  0  0  0  0
  -11.3779    1.5667   -0.5466 H   0  0  0  0  0  0  0  0  0  0  0  0
   -9.7724    3.4530   -0.7577 H   0  0  0  0  0  0  0  0  0  0  0  0
   -4.9205   -0.7647    2.5917 H   0  0  0  0  0  0  0  0  0  0  0  0
   -3.9651    0.6783    2.1266 H   0  0  0  0  0  0  0  0  0  0  0  0
   -2.8222   -1.5267    1.5873 H   0  0  0  0  0  0  0  0  0  0  0  0
   -4.2081   -1.9669    0.5812 H   0  0  0  0  0  0  0  0  0  0  0  0
   -1.5900   -2.3267   -4.0012 H   0  0  0  0  0  0  0  0  0  0  0  0
   -1.8996   -3.4994   -2.6617 H   0  0  0  0  0  0  0  0  0  0  0  0
    0.3799   -3.3364   -1.8342 H   0  0  0  0  0  0  0  0  0  0  0  0
    0.2237   -3.8274   -4.6349 H   0  0  0  0  0  0  0  0  0  0  0  0
    0.8571   -1.3792   -4.1673 H   0  0  0  0  0  0  0  0  0  0  0  0
    3.0157   -1.7390   -3.9020 H   0  0  0  0  0  0  0  0  0  0  0  0
    2.0210    0.0498   -2.5820 H   0  0  0  0  0  0  0  0  0  0  0  0
    0.3648   -0.1676   -2.0741 H   0  0  0  0  0  0  0  0  0  0  0  0
    1.0863   -1.8399   -0.3192 H   0  0  0  0  0  0  0  0  0  0  0  0
    2.7632   -1.7329   -0.8564 H   0  0  0  0  0  0  0  0  0  0  0  0
    5.8275    2.9192   -0.5984 H   0  0  0  0  0  0  0  0  0  0  0  0
    7.9379    2.9920    0.6674 H   0  0  0  0  0  0  0  0  0  0  0  0
  1  2  1  0
  2  3  1  0
  3  4  1  0
  4  5  2  0
  5  6  1  0
  6  7  2  0
  7  8  1  0
  8  9  1  0
  9 10  2  0
  9 11  1  0
 11 12  1  0
 12 13  1  0
 13 14  1  0
 14 15  1  0
 15 16  1  0
 16 17  1  0
 17 18  1  0
 18 19  1  0
 19 20  1  0
 20 21  1  0
 21 22  2  0
 22 23  1  0
 23 24  2  0
 24 25  1  0
 25 26  2  0
 19 27  1  0
 27 28  1  0
 16 29  1  0
 29 30  2  0
 29 31  1  0
 31 32  1  0
 32 33  1  0
 33 34  1  0
 33 35  1  0
 35 36  1  0
 35 37  1  0
 37 38  1  0
  7 39  1  0
 39 40  2  0
 40  4  1  0
 38 11  1  0
 28 16  1  0
 26 21  1  0
  1 41  1  0
  1 42  1  0
  1 43  1  0
  2 44  1  0
  2 45  1  0
  5 46  1  0
  6 47  1  0
  8 48  1  0
  8 49  1  0
 12 50  1  0
 12 51  1  0
 13 52  1  0
 13 53  1  0
 14 54  1  0
 14 55  1  0
 15 56  1  0
 15 57  1  0
 17 58  1  0
 17 59  1  0
 18 60  1  0
 18 61  1  0
 20 62  1  0
 20 63  1  0
 22 64  1  0
 23 65  1  0
 24 66  1  0
 25 67  1  0
 27 68  1  0
 27 69  1  0
 28 70  1  0
 28 71  1  0
 32 72  1  0
 32 73  1  0
 33 74  1  0
 34 75  1  0
 35 76  1  0
 36 77  1  0
 37 78  1  0
 37 79  1  0
 38 80  1  0
 38 81  1  0
 39 82  1  0
 40 83  1  0
M  END
$$$$
