
     RDKit          3D

 91 94  0  0  0  0  0  0  0  0999 V2000
   10.4851    0.5730   -1.1885 C   0  0  0  0  0  0  0  0  0  0  0  0
    9.4637    1.4154   -1.9458 C   0  0  0  0  0  0  0  0  0  0  0  0
    8.5323    2.0156   -1.0462 O   0  0  0  0  0  0  0  0  0  0  0  0
    7.5046    1.3453   -0.3602 C   0  0  0  0  0  0  0  0  0  0  0  0
    7.1658    0.0050   -0.6309 C   0  0  0  0  0  0  0  0  0  0  0  0
    6.1602   -0.6317    0.0990 C   0  0  0  0  0  0  0  0  0  0  0  0
    5.4685    0.0584    1.1027 C   0  0  0  0  0  0  0  0  0  0  0  0
    4.3951   -0.6328    1.9049 C   0  0  0  0  0  0  0  0  0  0  0  0
    2.9950   -0.4130    1.3135 C   0  0  0  0  0  0  0  0  0  0  0  0
    2.7736   -1.2114    0.0217 C   0  0  0  0  0  0  0  0  0  0  0  0
    1.3789   -1.1214   -0.4073 N   0  0  0  0  0  0  0  0  0  0  0  0
    0.3208   -1.8150    0.2729 C   0  0  0  0  0  0  0  0  0  0  0  0
    0.5885   -2.5755    1.2450 O   0  0  0  0  0  0  0  0  0  0  0  0
   -1.1090   -1.6497   -0.1847 C   0  0  0  0  0  0  0  0  0  0  0  0
   -1.5980   -0.1869   -0.1046 C   0  0  0  0  0  0  0  0  0  0  0  0
   -1.5548    0.4118    1.2851 C   0  0  0  0  0  0  0  0  0  0  0  0
   -0.4482    0.4449    1.8879 O   0  0  0  0  0  0  0  0  0  0  0  0
   -2.6989    1.0023    1.9381 N   0  0  0  0  0  0  0  0  0  0  0  0
   -4.0601    1.1648    1.4025 C   0  0  0  0  0  0  0  0  0  0  0  0
   -4.1018    2.1608    0.2222 C   0  0  0  0  0  0  0  0  0  0  0  0
   -3.5206    3.4959    0.6146 C   0  0  0  0  0  0  0  0  0  0  0  0
   -2.1860    3.8098    0.3023 C   0  0  0  0  0  0  0  0  0  0  0  0
   -1.6374    5.0327    0.7015 C   0  0  0  0  0  0  0  0  0  0  0  0
   -2.4130    5.9468    1.4200 C   0  0  0  0  0  0  0  0  0  0  0  0
   -3.7382    5.6382    1.7434 C   0  0  0  0  0  0  0  0  0  0  0  0
   -4.2916    4.4167    1.3444 C   0  0  0  0  0  0  0  0  0  0  0  0
   -4.6988   -0.1735    1.1199 C   0  0  0  0  0  0  0  0  0  0  0  0
   -4.4286   -1.1483    1.8706 O   0  0  0  0  0  0  0  0  0  0  0  0
   -5.7494   -0.3126    0.1531 N   0  0  0  0  0  0  0  0  0  0  0  0
   -7.1396   -0.1374    0.5853 C   0  0  0  0  0  0  0  0  0  0  0  0
   -7.7059   -1.4533    1.1096 C   0  0  0  0  0  0  0  0  0  0  0  0
   -5.4428   -0.7592   -1.2108 C   0  0  0  0  0  0  0  0  0  0  0  0
   -4.9359   -2.2111   -1.2345 C   0  0  0  0  0  0  0  0  0  0  0  0
   -3.6979   -2.2724   -1.9372 O   0  0  0  0  0  0  0  0  0  0  0  0
   -3.0655   -3.4806   -2.2359 C   0  0  0  0  0  0  0  0  0  0  0  0
   -3.0503   -3.9065   -3.5692 C   0  0  0  0  0  0  0  0  0  0  0  0
   -2.4544   -5.1188   -3.9181 C   0  0  0  0  0  0  0  0  0  0  0  0
   -1.8682   -5.9165   -2.9349 C   0  0  0  0  0  0  0  0  0  0  0  0
   -1.8624   -5.4958   -1.6030 C   0  0  0  0  0  0  0  0  0  0  0  0
   -2.4373   -4.2660   -1.2398 C   0  0  0  0  0  0  0  0  0  0  0  0
   -2.3787   -3.8494    0.1792 C   0  0  0  0  0  0  0  0  0  0  0  0
   -2.6476   -4.6995    1.0708 O   0  0  0  0  0  0  0  0  0  0  0  0
   -2.0084   -2.5210    0.5827 N   0  0  0  0  0  0  0  0  0  0  0  0
    5.7753    1.4051    1.3485 C   0  0  0  0  0  0  0  0  0  0  0  0
    6.7977    2.0518    0.6263 C   0  0  0  0  0  0  0  0  0  0  0  0
    7.1479    3.3906    0.8675 O   0  0  0  0  0  0  0  0  0  0  0  0
    6.5424    4.2197    1.8552 C   0  0  0  0  0  0  0  0  0  0  0  0
   10.0010   -0.3081   -0.7248 H   0  0  0  0  0  0  0  0  0  0  0  0
   11.2679    0.2152   -1.8894 H   0  0  0  0  0  0  0  0  0  0  0  0
   10.9630    1.1831   -0.3947 H   0  0  0  0  0  0  0  0  0  0  0  0
    8.9412    0.8102   -2.7178 H   0  0  0  0  0  0  0  0  0  0  0  0
   10.0055    2.2284   -2.4732 H   0  0  0  0  0  0  0  0  0  0  0  0
    7.6747   -0.5586   -1.3994 H   0  0  0  0  0  0  0  0  0  0  0  0
    5.9210   -1.6650   -0.1190 H   0  0  0  0  0  0  0  0  0  0  0  0
    4.4061   -0.2363    2.9449 H   0  0  0  0  0  0  0  0  0  0  0  0
    4.6089   -1.7214    1.9820 H   0  0  0  0  0  0  0  0  0  0  0  0
    2.2521   -0.7328    2.0756 H   0  0  0  0  0  0  0  0  0  0  0  0
    2.8256    0.6685    1.1196 H   0  0  0  0  0  0  0  0  0  0  0  0
    3.0453   -2.2790    0.1717 H   0  0  0  0  0  0  0  0  0  0  0  0
    3.4243   -0.7997   -0.7797 H   0  0  0  0  0  0  0  0  0  0  0  0
    1.1602   -0.5868   -1.2784 H   0  0  0  0  0  0  0  0  0  0  0  0
   -1.1266   -1.9356   -1.2547 H   0  0  0  0  0  0  0  0  0  0  0  0
   -2.6208   -0.1765   -0.5084 H   0  0  0  0  0  0  0  0  0  0  0  0
   -0.9876    0.4512   -0.7787 H   0  0  0  0  0  0  0  0  0  0  0  0
   -2.5429    1.3565    2.9093 H   0  0  0  0  0  0  0  0  0  0  0  0
   -4.6839    1.6134    2.2079 H   0  0  0  0  0  0  0  0  0  0  0  0
   -3.5638    1.7755   -0.6646 H   0  0  0  0  0  0  0  0  0  0  0  0
   -5.1568    2.3112   -0.0947 H   0  0  0  0  0  0  0  0  0  0  0  0
   -1.5709    3.1071   -0.2468 H   0  0  0  0  0  0  0  0  0  0  0  0
   -0.6099    5.2689    0.4555 H   0  0  0  0  0  0  0  0  0  0  0  0
   -1.9861    6.8915    1.7327 H   0  0  0  0  0  0  0  0  0  0  0  0
   -4.3338    6.3443    2.3082 H   0  0  0  0  0  0  0  0  0  0  0  0
   -5.3166    4.1855    1.6082 H   0  0  0  0  0  0  0  0  0  0  0  0
   -7.7641    0.2210   -0.2608 H   0  0  0  0  0  0  0  0  0  0  0  0
   -7.1951    0.6320    1.3845 H   0  0  0  0  0  0  0  0  0  0  0  0
   -7.6796   -2.2267    0.3141 H   0  0  0  0  0  0  0  0  0  0  0  0
   -8.7578   -1.3044    1.4356 H   0  0  0  0  0  0  0  0  0  0  0  0
   -7.1120   -1.8061    1.9790 H   0  0  0  0  0  0  0  0  0  0  0  0
   -4.6950   -0.0732   -1.6594 H   0  0  0  0  0  0  0  0  0  0  0  0
   -6.3460   -0.6869   -1.8550 H   0  0  0  0  0  0  0  0  0  0  0  0
   -5.6831   -2.8527   -1.7524 H   0  0  0  0  0  0  0  0  0  0  0  0
   -4.8064   -2.6166   -0.2103 H   0  0  0  0  0  0  0  0  0  0  0  0
   -3.5162   -3.2988   -4.3344 H   0  0  0  0  0  0  0  0  0  0  0  0
   -2.4555   -5.4450   -4.9498 H   0  0  0  0  0  0  0  0  0  0  0  0
   -1.4130   -6.8603   -3.2052 H   0  0  0  0  0  0  0  0  0  0  0  0
   -1.3910   -6.1242   -0.8561 H   0  0  0  0  0  0  0  0  0  0  0  0
   -2.1403   -2.2905    1.5929 H   0  0  0  0  0  0  0  0  0  0  0  0
    5.2224    1.9344    2.1133 H   0  0  0  0  0  0  0  0  0  0  0  0
    7.0230    5.2187    1.8316 H   0  0  0  0  0  0  0  0  0  0  0  0
    6.6878    3.7798    2.8644 H   0  0  0  0  0  0  0  0  0  0  0  0
    5.4590    4.3433    1.6443 H   0  0  0  0  0  0  0  0  0  0  0  0
  1  2  1  0
  2  3  1  0
  3  4  1  0
  4  5  2  0
  5  6  1  0
  6  7  2  0
  7  8  1  0
  8  9  1  0
  9 10  1  0
 10 11  1  0
 11 12  1  0
 12 13  2  0
 12 14  1  0
 14 15  1  0
 15 16  1  0
 16 17  2  0
 16 18  1  0
 18 19  1  0
 19 20  1  0
 20 21  1  0
 21 22  2  0
 22 23  1  0
 23 24  2  0
 24 25  1  0
 25 26  2  0
 19 27  1  0
 27 28  2  0
 27 29  1  0
 29 30  1  0
 30 31  1  0
 29 32  1  0
 32 33  1  0
 33 34  1  0
 34 35  1  0
 35 36  2  0
 36 37  1  0
 37 38  2  0
 38 39  1  0
 39 40  2  0
 40 41  1  0
 41 42  2  0
 41 43  1  0
  7 44  1  0
 44 45  2  0
 45 46  1  0
 46 47  1  0
 45  4  1  0
 43 14  1  0
 26 21  1  0
 40 35  1  0
  1 48  1  0
  1 49  1  0
  1 50  1  0
  2 51  1  0
  2 52  1  0
  5 53  1  0
  6 54  1  0
  8 55  1  0
  8 56  1  0
  9 57  1  0
  9 58  1  0
 10 59  1  0
 10 60  1  0
 11 61  1  0
 14 62  1  0
 15 63  1  0
 15 64  1  0
 18 65  1  0
 19 66  1  0
 20 67  1  0
 20 68  1  0
 22 69  1  0
 23 70  1  0
 24 71  1  0
 25 72  1  0
 26 73  1  0
 30 74  1  0
 30 75  1  0
 31 76  1  0
 31 77  1  0
 31 78  1  0
 32 79  1  0
 32 80  1  0
 33 81  1  0
 33 82  1  0
 36 83  1  0
 37 84  1  0
 38 85  1  0
 39 86  1  0
 43 87  1  0
 44 88  1  0
 47 89  1  0
 47 90  1  0
 47 91  1  0
M  END
$$$$
