
     RDKit          3D

 70 72  0  0  0  0  0  0  0  0999 V2000
    9.4676    0.5456    0.5821 C   0  0  0  0  0  0  0  0  0  0  0  0
    8.0086    0.7004    0.2922 C   0  0  0  0  0  0  0  0  0  0  0  0
    7.5080    0.8530   -0.9979 C   0  0  0  0  0  0  0  0  0  0  0  0
    5.8301    0.8885   -0.8948 S   0  0  0  0  0  0  0  0  0  0  0  0
    5.8179    0.7192    0.7779 C   0  0  0  0  0  0  0  0  0  0  0  0
    4.5836    0.5792    1.6088 C   0  0  0  0  0  0  0  0  0  0  0  0
    4.1516   -0.8920    1.6628 C   0  0  0  0  0  0  0  0  0  0  0  0
    2.7931   -1.0726    2.3574 C   0  0  0  0  0  0  0  0  0  0  0  0
    1.7277   -0.3786    1.6318 N   0  0  0  0  0  0  0  0  0  0  0  0
    1.2785   -0.7904    0.3324 C   0  0  0  0  0  0  0  0  0  0  0  0
    1.7180   -1.8590   -0.1731 O   0  0  0  0  0  0  0  0  0  0  0  0
    0.3014    0.0815   -0.4278 C   0  0  0  0  0  0  0  0  0  0  0  0
   -0.2471   -0.6077   -1.6978 C   0  0  0  0  0  0  0  0  0  0  0  0
   -1.1452   -1.7482   -1.3282 C   0  0  0  0  0  0  0  0  0  0  0  0
   -0.7447   -2.9312   -1.5001 O   0  0  0  0  0  0  0  0  0  0  0  0
   -2.4557   -1.4916   -0.7991 N   0  0  0  0  0  0  0  0  0  0  0  0
   -2.8738   -1.9701    0.5310 C   0  0  0  0  0  0  0  0  0  0  0  0
   -2.7699   -3.5227    0.6532 C   0  0  0  0  0  0  0  0  0  0  0  0
   -3.5270   -4.2731   -0.4497 C   0  0  0  0  0  0  0  0  0  0  0  0
   -3.2406   -3.9527    1.9057 O   0  0  0  0  0  0  0  0  0  0  0  0
   -4.2623   -1.4332    0.8704 C   0  0  0  0  0  0  0  0  0  0  0  0
   -5.2087   -2.2426    1.0998 O   0  0  0  0  0  0  0  0  0  0  0  0
   -4.5378   -0.0161    0.9061 N   0  0  0  0  0  0  0  0  0  0  0  0
   -5.8965    0.3904    0.5153 C   0  0  0  0  0  0  0  0  0  0  0  0
   -3.7920    0.8408    1.8447 C   0  0  0  0  0  0  0  0  0  0  0  0
   -3.4003    2.2014    1.2472 C   0  0  0  0  0  0  0  0  0  0  0  0
   -2.2777    2.0880    0.3727 O   0  0  0  0  0  0  0  0  0  0  0  0
   -2.2945    2.2664   -1.0177 C   0  0  0  0  0  0  0  0  0  0  0  0
   -3.4753    2.1627   -1.7763 C   0  0  0  0  0  0  0  0  0  0  0  0
   -3.4565    2.4256   -3.1483 C   0  0  0  0  0  0  0  0  0  0  0  0
   -2.2653    2.8063   -3.7769 C   0  0  0  0  0  0  0  0  0  0  0  0
   -1.0816    2.8787   -3.0452 C   0  0  0  0  0  0  0  0  0  0  0  0
   -1.0843    2.5782   -1.6741 C   0  0  0  0  0  0  0  0  0  0  0  0
    0.1953    2.5762   -0.9514 C   0  0  0  0  0  0  0  0  0  0  0  0
    0.6832    3.6750   -0.5626 O   0  0  0  0  0  0  0  0  0  0  0  0
    0.9404    1.3618   -0.7597 N   0  0  0  0  0  0  0  0  0  0  0  0
    7.0681    0.6099    1.2718 N   0  0  0  0  0  0  0  0  0  0  0  0
   10.0547    1.2628   -0.0301 H   0  0  0  0  0  0  0  0  0  0  0  0
    9.7853   -0.4926    0.3401 H   0  0  0  0  0  0  0  0  0  0  0  0
    9.6682    0.7457    1.6573 H   0  0  0  0  0  0  0  0  0  0  0  0
    8.0956    0.9126   -1.9080 H   0  0  0  0  0  0  0  0  0  0  0  0
    3.7816    1.1992    1.1529 H   0  0  0  0  0  0  0  0  0  0  0  0
    4.7799    0.9590    2.6362 H   0  0  0  0  0  0  0  0  0  0  0  0
    4.9163   -1.4751    2.2211 H   0  0  0  0  0  0  0  0  0  0  0  0
    4.0991   -1.3050    0.6328 H   0  0  0  0  0  0  0  0  0  0  0  0
    2.8555   -0.6744    3.3948 H   0  0  0  0  0  0  0  0  0  0  0  0
    2.5530   -2.1568    2.4222 H   0  0  0  0  0  0  0  0  0  0  0  0
    1.2895    0.4603    2.0770 H   0  0  0  0  0  0  0  0  0  0  0  0
   -0.5408    0.2767    0.2660 H   0  0  0  0  0  0  0  0  0  0  0  0
   -0.8374    0.0948   -2.3123 H   0  0  0  0  0  0  0  0  0  0  0  0
    0.5889   -0.9630   -2.3379 H   0  0  0  0  0  0  0  0  0  0  0  0
   -2.9571   -0.6701   -1.2003 H   0  0  0  0  0  0  0  0  0  0  0  0
   -2.1601   -1.5562    1.2738 H   0  0  0  0  0  0  0  0  0  0  0  0
   -1.6980   -3.8143    0.5728 H   0  0  0  0  0  0  0  0  0  0  0  0
   -3.2778   -5.3562   -0.3874 H   0  0  0  0  0  0  0  0  0  0  0  0
   -4.6246   -4.1623   -0.3454 H   0  0  0  0  0  0  0  0  0  0  0  0
   -3.2272   -3.9159   -1.4562 H   0  0  0  0  0  0  0  0  0  0  0  0
   -2.5630   -3.6769    2.5766 H   0  0  0  0  0  0  0  0  0  0  0  0
   -6.6159    0.0955    1.3097 H   0  0  0  0  0  0  0  0  0  0  0  0
   -6.1837   -0.1143   -0.4342 H   0  0  0  0  0  0  0  0  0  0  0  0
   -5.9825    1.4853    0.3592 H   0  0  0  0  0  0  0  0  0  0  0  0
   -2.8686    0.3413    2.2023 H   0  0  0  0  0  0  0  0  0  0  0  0
   -4.4234    1.0138    2.7465 H   0  0  0  0  0  0  0  0  0  0  0  0
   -3.0809    2.8504    2.0936 H   0  0  0  0  0  0  0  0  0  0  0  0
   -4.2468    2.7378    0.7752 H   0  0  0  0  0  0  0  0  0  0  0  0
   -4.4114    1.8784   -1.3244 H   0  0  0  0  0  0  0  0  0  0  0  0
   -4.3687    2.3403   -3.7232 H   0  0  0  0  0  0  0  0  0  0  0  0
   -2.2545    3.0229   -4.8358 H   0  0  0  0  0  0  0  0  0  0  0  0
   -0.1569    3.1537   -3.5457 H   0  0  0  0  0  0  0  0  0  0  0  0
    1.9752    1.4555   -0.6334 H   0  0  0  0  0  0  0  0  0  0  0  0
  1  2  1  0
  2  3  2  0
  3  4  1  0
  4  5  1  0
  5  6  1  0
  6  7  1  0
  7  8  1  0
  8  9  1  0
  9 10  1  0
 10 11  2  0
 10 12  1  0
 12 13  1  0
 13 14  1  0
 14 15  2  0
 14 16  1  0
 16 17  1  0
 17 18  1  0
 18 19  1  0
 18 20  1  0
 17 21  1  0
 21 22  2  0
 21 23  1  0
 23 24  1  0
 23 25  1  0
 25 26  1  0
 26 27  1  0
 27 28  1  0
 28 29  2  0
 29 30  1  0
 30 31  2  0
 31 32  1  0
 32 33  2  0
 33 34  1  0
 34 35  2  0
 34 36  1  0
  5 37  2  0
 37  2  1  0
 36 12  1  0
 33 28  1  0
  1 38  1  0
  1 39  1  0
  1 40  1  0
  3 41  1  0
  6 42  1  0
  6 43  1  0
  7 44  1  0
  7 45  1  0
  8 46  1  0
  8 47  1  0
  9 48  1  0
 12 49  1  0
 13 50  1  0
 13 51  1  0
 16 52  1  0
 17 53  1  0
 18 54  1  0
 19 55  1  0
 19 56  1  0
 19 57  1  0
 20 58  1  0
 24 59  1  0
 24 60  1  0
 24 61  1  0
 25 62  1  0
 25 63  1  0
 26 64  1  0
 26 65  1  0
 29 66  1  0
 30 67  1  0
 31 68  1  0
 32 69  1  0
 36 70  1  0
M  END
$$$$
