
     RDKit          3D

 72 74  0  0  0  0  0  0  0  0999 V2000
    0.8196    4.5082    0.8075 C   0  0  0  0  0  0  0  0  0  0  0  0
    1.1926    3.4576   -0.2494 C   0  0  0  0  0  0  0  0  0  0  0  0
    1.1274    4.0919   -1.6460 C   0  0  0  0  0  0  0  0  0  0  0  0
    0.2548    2.2288   -0.1026 C   0  0  0  0  0  0  0  0  0  0  0  0
    0.5898    0.9543   -0.9226 C   0  0  0  0  0  0  0  0  0  0  0  0
    2.0886    0.6413   -0.9956 C   0  0  0  0  0  0  0  0  0  0  0  0
    2.2716   -0.7240   -1.3626 O   0  0  0  0  0  0  0  0  0  0  0  0
    3.5036   -1.3753   -1.2546 C   0  0  0  0  0  0  0  0  0  0  0  0
    4.1244   -1.8185   -2.4279 C   0  0  0  0  0  0  0  0  0  0  0  0
    5.3805   -2.4250   -2.3783 C   0  0  0  0  0  0  0  0  0  0  0  0
    6.0263   -2.5945   -1.1532 C   0  0  0  0  0  0  0  0  0  0  0  0
    7.6105   -3.3411   -1.0941 Cl  0  0  0  0  0  0  0  0  0  0  0  0
    5.4038   -2.1820    0.0290 C   0  0  0  0  0  0  0  0  0  0  0  0
    4.1281   -1.5976   -0.0037 C   0  0  0  0  0  0  0  0  0  0  0  0
    3.4738   -1.2338    1.2721 C   0  0  0  0  0  0  0  0  0  0  0  0
    4.1261   -0.5831    2.1330 O   0  0  0  0  0  0  0  0  0  0  0  0
    2.1187   -1.6070    1.5600 N   0  0  0  0  0  0  0  0  0  0  0  0
    1.5525   -2.8718    1.0869 C   0  0  0  0  0  0  0  0  0  0  0  0
    0.1845   -3.1582    1.7334 C   0  0  0  0  0  0  0  0  0  0  0  0
   -0.9371   -2.2525    1.1959 C   0  0  0  0  0  0  0  0  0  0  0  0
   -1.4337   -2.6955   -0.1965 C   0  0  0  0  0  0  0  0  0  0  0  0
   -1.8030   -1.5491   -1.0484 N   0  0  0  0  0  0  0  0  0  0  0  0
   -3.0806   -0.8913   -0.8632 C   0  0  0  0  0  0  0  0  0  0  0  0
   -3.6301   -0.2895   -1.8246 O   0  0  0  0  0  0  0  0  0  0  0  0
   -3.7705   -0.8711    0.4383 C   0  0  0  0  0  0  0  0  0  0  0  0
   -4.4371   -1.9316    1.0172 C   0  0  0  0  0  0  0  0  0  0  0  0
   -5.0496   -1.3903    2.1314 C   0  0  0  0  0  0  0  0  0  0  0  0
   -4.7854   -0.0711    2.1996 N   0  0  0  0  0  0  0  0  0  0  0  0
   -4.0186    0.2422    1.1648 N   0  0  0  0  0  0  0  0  0  0  0  0
   -3.5109    1.5938    0.9103 C   0  0  0  0  0  0  0  0  0  0  0  0
   -4.6682    2.5486    0.6230 C   0  0  0  0  0  0  0  0  0  0  0  0
   -2.6755    2.0794    2.0988 C   0  0  0  0  0  0  0  0  0  0  0  0
   -1.0303   -1.3636   -2.2952 C   0  0  0  0  0  0  0  0  0  0  0  0
   -0.9585    0.0694   -2.7727 C   0  0  0  0  0  0  0  0  0  0  0  0
   -1.7183    0.4292   -3.7137 O   0  0  0  0  0  0  0  0  0  0  0  0
   -0.0032    1.0143   -2.2620 N   0  0  0  0  0  0  0  0  0  0  0  0
    1.5121    5.3758    0.7538 H   0  0  0  0  0  0  0  0  0  0  0  0
    0.8978    4.0736    1.8272 H   0  0  0  0  0  0  0  0  0  0  0  0
   -0.2181    4.8704    0.6502 H   0  0  0  0  0  0  0  0  0  0  0  0
    2.2431    3.1585   -0.0497 H   0  0  0  0  0  0  0  0  0  0  0  0
    1.6611    3.4615   -2.3862 H   0  0  0  0  0  0  0  0  0  0  0  0
    1.6339    5.0823   -1.6481 H   0  0  0  0  0  0  0  0  0  0  0  0
    0.0708    4.2371   -1.9643 H   0  0  0  0  0  0  0  0  0  0  0  0
    0.2621    1.9275    0.9691 H   0  0  0  0  0  0  0  0  0  0  0  0
   -0.7859    2.5410   -0.3335 H   0  0  0  0  0  0  0  0  0  0  0  0
    0.1233    0.1202   -0.3728 H   0  0  0  0  0  0  0  0  0  0  0  0
    2.5865    1.2924   -1.7450 H   0  0  0  0  0  0  0  0  0  0  0  0
    2.5493    0.8335   -0.0059 H   0  0  0  0  0  0  0  0  0  0  0  0
    3.6395   -1.6694   -3.3837 H   0  0  0  0  0  0  0  0  0  0  0  0
    5.8572   -2.7511   -3.2933 H   0  0  0  0  0  0  0  0  0  0  0  0
    5.9054   -2.3399    0.9752 H   0  0  0  0  0  0  0  0  0  0  0  0
    1.6133   -1.0545    2.2894 H   0  0  0  0  0  0  0  0  0  0  0  0
    1.4665   -2.8555   -0.0169 H   0  0  0  0  0  0  0  0  0  0  0  0
    2.2438   -3.6975    1.3597 H   0  0  0  0  0  0  0  0  0  0  0  0
   -0.0887   -4.2238    1.5648 H   0  0  0  0  0  0  0  0  0  0  0  0
    0.2701   -3.0189    2.8327 H   0  0  0  0  0  0  0  0  0  0  0  0
   -0.6011   -1.1987    1.1964 H   0  0  0  0  0  0  0  0  0  0  0  0
   -1.7893   -2.3035    1.9078 H   0  0  0  0  0  0  0  0  0  0  0  0
   -2.3027   -3.3761   -0.0837 H   0  0  0  0  0  0  0  0  0  0  0  0
   -0.6636   -3.3153   -0.7043 H   0  0  0  0  0  0  0  0  0  0  0  0
   -4.5058   -2.9505    0.6630 H   0  0  0  0  0  0  0  0  0  0  0  0
   -5.6700   -1.9239    2.8390 H   0  0  0  0  0  0  0  0  0  0  0  0
   -2.8523    1.5870    0.0165 H   0  0  0  0  0  0  0  0  0  0  0  0
   -5.3295    2.6445    1.5118 H   0  0  0  0  0  0  0  0  0  0  0  0
   -4.2736    3.5543    0.3585 H   0  0  0  0  0  0  0  0  0  0  0  0
   -5.2683    2.1665   -0.2313 H   0  0  0  0  0  0  0  0  0  0  0  0
   -2.2493    3.0821    1.8821 H   0  0  0  0  0  0  0  0  0  0  0  0
   -3.2996    2.1444    3.0148 H   0  0  0  0  0  0  0  0  0  0  0  0
   -1.8384    1.3733    2.2836 H   0  0  0  0  0  0  0  0  0  0  0  0
   -1.4875   -1.9915   -3.0890 H   0  0  0  0  0  0  0  0  0  0  0  0
    0.0100   -1.7287   -2.1660 H   0  0  0  0  0  0  0  0  0  0  0  0
    0.2111    1.8313   -2.8711 H   0  0  0  0  0  0  0  0  0  0  0  0
  1  2  1  0
  2  3  1  0
  2  4  1  0
  4  5  1  0
  5  6  1  0
  6  7  1  0
  7  8  1  0
  8  9  2  0
  9 10  1  0
 10 11  2  0
 11 12  1  0
 11 13  1  0
 13 14  2  0
 14 15  1  0
 15 16  2  0
 15 17  1  0
 17 18  1  0
 18 19  1  0
 19 20  1  0
 20 21  1  0
 21 22  1  0
 22 23  1  0
 23 24  2  0
 23 25  1  0
 25 26  2  0
 26 27  1  0
 27 28  2  0
 28 29  1  0
 29 30  1  0
 30 31  1  0
 30 32  1  0
 22 33  1  0
 33 34  1  0
 34 35  2  0
 34 36  1  0
 36  5  1  0
 14  8  1  0
 29 25  1  0
  1 37  1  0
  1 38  1  0
  1 39  1  0
  2 40  1  0
  3 41  1  0
  3 42  1  0
  3 43  1  0
  4 44  1  0
  4 45  1  0
  5 46  1  0
  6 47  1  0
  6 48  1  0
  9 49  1  0
 10 50  1  0
 13 51  1  0
 17 52  1  0
 18 53  1  0
 18 54  1  0
 19 55  1  0
 19 56  1  0
 20 57  1  0
 20 58  1  0
 21 59  1  0
 21 60  1  0
 26 61  1  0
 27 62  1  0
 30 63  1  0
 31 64  1  0
 31 65  1  0
 31 66  1  0
 32 67  1  0
 32 68  1  0
 32 69  1  0
 33 70  1  0
 33 71  1  0
 36 72  1  0
M  END
$$$$
