
     RDKit          3D

 61 64  0  0  0  0  0  0  0  0999 V2000
    7.8026    1.5567   -0.0483 C   0  0  0  0  0  0  0  0  0  0  0  0
    7.6443    0.1955    0.6172 C   0  0  0  0  0  0  0  0  0  0  0  0
    6.2340   -0.1735    0.6828 N   0  0  0  0  0  0  0  0  0  0  0  0
    5.5229   -0.7554   -0.3007 C   0  0  0  0  0  0  0  0  0  0  0  0
    4.2186   -0.8779    0.1317 C   0  0  0  0  0  0  0  0  0  0  0  0
    3.1032   -1.5010   -0.6074 C   0  0  0  0  0  0  0  0  0  0  0  0
    3.3701   -2.2526   -1.5840 O   0  0  0  0  0  0  0  0  0  0  0  0
    1.7280   -1.2866   -0.2380 N   0  0  0  0  0  0  0  0  0  0  0  0
    0.7376   -2.3345   -0.4862 C   0  0  0  0  0  0  0  0  0  0  0  0
   -0.6163   -1.9303    0.1109 C   0  0  0  0  0  0  0  0  0  0  0  0
   -1.0816   -0.6742   -0.3614 O   0  0  0  0  0  0  0  0  0  0  0  0
   -0.0962    0.3585   -0.4486 C   0  0  0  0  0  0  0  0  0  0  0  0
   -0.6793    1.6845    0.1208 C   0  0  0  0  0  0  0  0  0  0  0  0
   -1.1668    1.6730    1.5923 C   0  0  0  0  0  0  0  0  0  0  0  0
   -2.4705    0.8974    1.8595 C   0  0  0  0  0  0  0  0  0  0  0  0
   -3.7192    1.5478    1.2287 C   0  0  0  0  0  0  0  0  0  0  0  0
   -4.6644    0.4969    0.7008 C   0  0  0  0  0  0  0  0  0  0  0  0
   -5.6964    0.0165    1.5239 C   0  0  0  0  0  0  0  0  0  0  0  0
   -6.5571   -0.9831    1.0674 C   0  0  0  0  0  0  0  0  0  0  0  0
   -6.3901   -1.5201   -0.2093 C   0  0  0  0  0  0  0  0  0  0  0  0
   -5.3581   -1.0645   -1.0327 C   0  0  0  0  0  0  0  0  0  0  0  0
   -4.4797   -0.0571   -0.5853 C   0  0  0  0  0  0  0  0  0  0  0  0
   -3.4211    0.4094   -1.3841 O   0  0  0  0  0  0  0  0  0  0  0  0
   -3.1459   -0.0393   -2.7091 C   0  0  0  0  0  0  0  0  0  0  0  0
   -1.9456    0.7133   -3.2873 C   0  0  0  0  0  0  0  0  0  0  0  0
   -0.6841    0.0597   -2.9357 N   0  0  0  0  0  0  0  0  0  0  0  0
    0.1809    0.5932   -1.9260 C   0  0  0  0  0  0  0  0  0  0  0  0
    1.1853    1.2677   -2.2826 O   0  0  0  0  0  0  0  0  0  0  0  0
    1.2488    0.0047    0.2612 C   0  0  0  0  0  0  0  0  0  0  0  0
    4.2127   -0.3497    1.4125 C   0  0  0  0  0  0  0  0  0  0  0  0
    5.4517    0.0824    1.7198 N   0  0  0  0  0  0  0  0  0  0  0  0
    7.2505    2.3295    0.5278 H   0  0  0  0  0  0  0  0  0  0  0  0
    8.8775    1.8331   -0.0830 H   0  0  0  0  0  0  0  0  0  0  0  0
    7.4073    1.5225   -1.0859 H   0  0  0  0  0  0  0  0  0  0  0  0
    8.2083   -0.5693    0.0398 H   0  0  0  0  0  0  0  0  0  0  0  0
    8.0686    0.2351    1.6440 H   0  0  0  0  0  0  0  0  0  0  0  0
    5.9226   -1.0597   -1.2602 H   0  0  0  0  0  0  0  0  0  0  0  0
    1.0723   -3.2837   -0.0149 H   0  0  0  0  0  0  0  0  0  0  0  0
    0.6281   -2.4937   -1.5806 H   0  0  0  0  0  0  0  0  0  0  0  0
   -0.5492   -1.9080    1.2205 H   0  0  0  0  0  0  0  0  0  0  0  0
   -1.3670   -2.7036   -0.1551 H   0  0  0  0  0  0  0  0  0  0  0  0
   -1.4987    2.0375   -0.5350 H   0  0  0  0  0  0  0  0  0  0  0  0
    0.1079    2.4679    0.0474 H   0  0  0  0  0  0  0  0  0  0  0  0
   -1.3285    2.7272    1.9080 H   0  0  0  0  0  0  0  0  0  0  0  0
   -0.3733    1.2792    2.2576 H   0  0  0  0  0  0  0  0  0  0  0  0
   -2.6254    0.8615    2.9604 H   0  0  0  0  0  0  0  0  0  0  0  0
   -2.3620   -0.1599    1.5554 H   0  0  0  0  0  0  0  0  0  0  0  0
   -4.2311    2.1704    1.9956 H   0  0  0  0  0  0  0  0  0  0  0  0
   -3.4643    2.2514    0.4117 H   0  0  0  0  0  0  0  0  0  0  0  0
   -5.8329    0.4153    2.5217 H   0  0  0  0  0  0  0  0  0  0  0  0
   -7.3528   -1.3449    1.7061 H   0  0  0  0  0  0  0  0  0  0  0  0
   -7.0585   -2.2959   -0.5598 H   0  0  0  0  0  0  0  0  0  0  0  0
   -5.2485   -1.5069   -2.0130 H   0  0  0  0  0  0  0  0  0  0  0  0
   -4.0329    0.1649   -3.3475 H   0  0  0  0  0  0  0  0  0  0  0  0
   -2.9468   -1.1335   -2.7111 H   0  0  0  0  0  0  0  0  0  0  0  0
   -1.9484    1.7747   -2.9557 H   0  0  0  0  0  0  0  0  0  0  0  0
   -2.0410    0.7195   -4.3953 H   0  0  0  0  0  0  0  0  0  0  0  0
   -0.2276   -0.5105   -3.6829 H   0  0  0  0  0  0  0  0  0  0  0  0
    1.1037   -0.0831    1.3559 H   0  0  0  0  0  0  0  0  0  0  0  0
    2.0010    0.8048    0.0851 H   0  0  0  0  0  0  0  0  0  0  0  0
    3.3728   -0.2992    2.0903 H   0  0  0  0  0  0  0  0  0  0  0  0
  1  2  1  0
  2  3  1  0
  3  4  1  0
  4  5  2  0
  5  6  1  0
  6  7  2  0
  6  8  1  0
  8  9  1  0
  9 10  1  0
 10 11  1  0
 11 12  1  0
 12 13  1  0
 13 14  1  0
 14 15  1  0
 15 16  1  0
 16 17  1  0
 17 18  2  0
 18 19  1  0
 19 20  2  0
 20 21  1  0
 21 22  2  0
 22 23  1  0
 23 24  1  0
 24 25  1  0
 25 26  1  0
 26 27  1  0
 27 28  2  0
 12 29  1  0
  5 30  1  0
 30 31  2  0
 31  3  1  0
 29  8  1  0
 27 12  1  0
 22 17  1  0
  1 32  1  0
  1 33  1  0
  1 34  1  0
  2 35  1  0
  2 36  1  0
  4 37  1  0
  9 38  1  0
  9 39  1  0
 10 40  1  0
 10 41  1  0
 13 42  1  0
 13 43  1  0
 14 44  1  0
 14 45  1  0
 15 46  1  0
 15 47  1  0
 16 48  1  0
 16 49  1  0
 18 50  1  0
 19 51  1  0
 20 52  1  0
 21 53  1  0
 24 54  1  0
 24 55  1  0
 25 56  1  0
 25 57  1  0
 26 58  1  0
 29 59  1  0
 29 60  1  0
 30 61  1  0
M  END
$$$$
