
     RDKit          3D

 59 62  0  0  0  0  0  0  0  0999 V2000
   -4.0963    2.0912   -0.2726 C   0  0  0  0  0  0  0  0  0  0  0  0
   -5.3541    1.3349    0.0375 C   0  0  0  0  0  0  0  0  0  0  0  0
   -6.5111    1.7419   -0.5495 N   0  0  0  0  0  0  0  0  0  0  0  0
   -7.6898    1.1185   -0.3014 C   0  0  0  0  0  0  0  0  0  0  0  0
   -7.7327    0.0628    0.5475 N   0  0  0  0  0  0  0  0  0  0  0  0
   -6.6076   -0.3909    1.1571 C   0  0  0  0  0  0  0  0  0  0  0  0
   -5.3725    0.2186    0.9035 C   0  0  0  0  0  0  0  0  0  0  0  0
   -4.1553   -0.3125    1.5555 C   0  0  0  0  0  0  0  0  0  0  0  0
   -4.1625   -0.4617    2.8083 O   0  0  0  0  0  0  0  0  0  0  0  0
   -2.9877   -0.6902    0.7932 N   0  0  0  0  0  0  0  0  0  0  0  0
   -3.1446   -1.3432   -0.5072 C   0  0  0  0  0  0  0  0  0  0  0  0
   -1.8975   -1.1151   -1.3608 C   0  0  0  0  0  0  0  0  0  0  0  0
   -0.7094   -1.4464   -0.6654 O   0  0  0  0  0  0  0  0  0  0  0  0
   -0.5166   -0.6884    0.5271 C   0  0  0  0  0  0  0  0  0  0  0  0
   -0.3392    0.8452    0.2463 C   0  0  0  0  0  0  0  0  0  0  0  0
    0.6793    1.1887   -0.8607 C   0  0  0  0  0  0  0  0  0  0  0  0
    2.0600    1.5829   -0.2945 C   0  0  0  0  0  0  0  0  0  0  0  0
    3.1648    1.4347   -1.3617 C   0  0  0  0  0  0  0  0  0  0  0  0
    4.5193    1.1317   -0.7598 C   0  0  0  0  0  0  0  0  0  0  0  0
    5.5950    2.0159   -0.9491 C   0  0  0  0  0  0  0  0  0  0  0  0
    6.8788    1.6672   -0.5124 C   0  0  0  0  0  0  0  0  0  0  0  0
    7.1065    0.4207    0.0847 C   0  0  0  0  0  0  0  0  0  0  0  0
    6.0427   -0.4736    0.2709 C   0  0  0  0  0  0  0  0  0  0  0  0
    4.7469   -0.1103   -0.1239 C   0  0  0  0  0  0  0  0  0  0  0  0
    3.6583   -0.9420    0.1475 O   0  0  0  0  0  0  0  0  0  0  0  0
    3.5393   -2.2814   -0.3087 C   0  0  0  0  0  0  0  0  0  0  0  0
    2.0526   -2.6129   -0.4462 C   0  0  0  0  0  0  0  0  0  0  0  0
    1.3609   -2.4516    0.8356 N   0  0  0  0  0  0  0  0  0  0  0  0
    0.7232   -1.2255    1.2357 C   0  0  0  0  0  0  0  0  0  0  0  0
    1.1220   -0.6581    2.2911 O   0  0  0  0  0  0  0  0  0  0  0  0
   -1.7156   -0.9066    1.4877 C   0  0  0  0  0  0  0  0  0  0  0  0
   -4.3424    3.1090   -0.6370 H   0  0  0  0  0  0  0  0  0  0  0  0
   -3.5334    1.5596   -1.0665 H   0  0  0  0  0  0  0  0  0  0  0  0
   -3.4702    2.2005    0.6395 H   0  0  0  0  0  0  0  0  0  0  0  0
   -8.5927    1.4641   -0.7864 H   0  0  0  0  0  0  0  0  0  0  0  0
   -6.6741   -1.2396    1.8266 H   0  0  0  0  0  0  0  0  0  0  0  0
   -3.2899   -2.4332   -0.3493 H   0  0  0  0  0  0  0  0  0  0  0  0
   -4.0284   -0.9527   -1.0527 H   0  0  0  0  0  0  0  0  0  0  0  0
   -1.9670   -1.7791   -2.2488 H   0  0  0  0  0  0  0  0  0  0  0  0
   -1.8596   -0.0803   -1.7604 H   0  0  0  0  0  0  0  0  0  0  0  0
   -0.0790    1.3816    1.1859 H   0  0  0  0  0  0  0  0  0  0  0  0
   -1.3144    1.2776   -0.0522 H   0  0  0  0  0  0  0  0  0  0  0  0
    0.7610    0.3359   -1.5693 H   0  0  0  0  0  0  0  0  0  0  0  0
    0.2916    2.0496   -1.4548 H   0  0  0  0  0  0  0  0  0  0  0  0
    2.0307    2.6375    0.0593 H   0  0  0  0  0  0  0  0  0  0  0  0
    2.2844    0.9648    0.5910 H   0  0  0  0  0  0  0  0  0  0  0  0
    3.1964    2.3608   -1.9773 H   0  0  0  0  0  0  0  0  0  0  0  0
    2.9300    0.5972   -2.0595 H   0  0  0  0  0  0  0  0  0  0  0  0
    5.4447    2.9644   -1.4495 H   0  0  0  0  0  0  0  0  0  0  0  0
    7.7017    2.3594   -0.6533 H   0  0  0  0  0  0  0  0  0  0  0  0
    8.1034    0.1516    0.4127 H   0  0  0  0  0  0  0  0  0  0  0  0
    6.2193   -1.4273    0.7557 H   0  0  0  0  0  0  0  0  0  0  0  0
    4.0223   -2.3883   -1.3046 H   0  0  0  0  0  0  0  0  0  0  0  0
    4.0287   -2.9742    0.4131 H   0  0  0  0  0  0  0  0  0  0  0  0
    1.9464   -3.6654   -0.7884 H   0  0  0  0  0  0  0  0  0  0  0  0
    1.6131   -1.9531   -1.2223 H   0  0  0  0  0  0  0  0  0  0  0  0
    1.6531   -3.1008    1.6021 H   0  0  0  0  0  0  0  0  0  0  0  0
   -1.7045   -1.9482    1.8787 H   0  0  0  0  0  0  0  0  0  0  0  0
   -1.6284   -0.2159    2.3560 H   0  0  0  0  0  0  0  0  0  0  0  0
  1  2  1  0
  2  3  2  0
  3  4  1  0
  4  5  2  0
  5  6  1  0
  6  7  2  0
  7  8  1  0
  8  9  2  0
  8 10  1  0
 10 11  1  0
 11 12  1  0
 12 13  1  0
 13 14  1  0
 14 15  1  0
 15 16  1  0
 16 17  1  0
 17 18  1  0
 18 19  1  0
 19 20  2  0
 20 21  1  0
 21 22  2  0
 22 23  1  0
 23 24  2  0
 24 25  1  0
 25 26  1  0
 26 27  1  0
 27 28  1  0
 28 29  1  0
 29 30  2  0
 14 31  1  0
  7  2  1  0
 31 10  1  0
 29 14  1  0
 24 19  1  0
  1 32  1  0
  1 33  1  0
  1 34  1  0
  4 35  1  0
  6 36  1  0
 11 37  1  0
 11 38  1  0
 12 39  1  0
 12 40  1  0
 15 41  1  0
 15 42  1  0
 16 43  1  0
 16 44  1  0
 17 45  1  0
 17 46  1  0
 18 47  1  0
 18 48  1  0
 20 49  1  0
 21 50  1  0
 22 51  1  0
 23 52  1  0
 26 53  1  0
 26 54  1  0
 27 55  1  0
 27 56  1  0
 28 57  1  0
 31 58  1  0
 31 59  1  0
M  END
$$$$
