
     RDKit          3D

 80 82  0  0  0  0  0  0  0  0999 V2000
    6.1346   -2.3792    2.6732 C   0  0  0  0  0  0  0  0  0  0  0  0
    6.4651   -1.1442    2.0717 O   0  0  0  0  0  0  0  0  0  0  0  0
    5.2994   -0.4931    1.5949 C   0  0  0  0  0  0  0  0  0  0  0  0
    4.8871   -1.0099    0.1990 C   0  0  0  0  0  0  0  0  0  0  0  0
    6.0723   -1.0508   -0.7667 C   0  0  0  0  0  0  0  0  0  0  0  0
    5.4760   -0.7695   -2.1383 C   0  0  0  0  0  0  0  0  0  0  0  0
    4.2134    0.0407   -1.8714 C   0  0  0  0  0  0  0  0  0  0  0  0
    3.8892   -0.1708   -0.4678 N   0  0  0  0  0  0  0  0  0  0  0  0
    2.6990    0.3576    0.1554 C   0  0  0  0  0  0  0  0  0  0  0  0
    2.7669    0.8407    1.3154 O   0  0  0  0  0  0  0  0  0  0  0  0
    1.3644    0.4111   -0.5550 C   0  0  0  0  0  0  0  0  0  0  0  0
    1.2977    1.6363   -1.4925 C   0  0  0  0  0  0  0  0  0  0  0  0
   -0.1105    1.9099   -1.9346 C   0  0  0  0  0  0  0  0  0  0  0  0
   -0.5026    1.4907   -3.0579 O   0  0  0  0  0  0  0  0  0  0  0  0
   -1.0059    2.6206   -1.0680 N   0  0  0  0  0  0  0  0  0  0  0  0
   -2.4475    2.7351   -1.3186 C   0  0  0  0  0  0  0  0  0  0  0  0
   -2.8875    4.2247   -1.4141 C   0  0  0  0  0  0  0  0  0  0  0  0
   -2.4005    5.0875   -0.2358 C   0  0  0  0  0  0  0  0  0  0  0  0
   -2.4133    4.8445   -2.7373 C   0  0  0  0  0  0  0  0  0  0  0  0
   -3.1876    1.9414   -0.2690 C   0  0  0  0  0  0  0  0  0  0  0  0
   -3.9885    2.5031    0.5270 O   0  0  0  0  0  0  0  0  0  0  0  0
   -2.9640    0.5284   -0.1797 N   0  0  0  0  0  0  0  0  0  0  0  0
   -3.2952   -0.2339    1.0284 C   0  0  0  0  0  0  0  0  0  0  0  0
   -4.8181   -0.5243    1.1376 C   0  0  0  0  0  0  0  0  0  0  0  0
   -5.5879   -0.7076   -0.1981 C   0  0  0  0  0  0  0  0  0  0  0  0
   -5.1040   -1.9240   -1.0004 C   0  0  0  0  0  0  0  0  0  0  0  0
   -7.0893   -0.8437    0.0897 C   0  0  0  0  0  0  0  0  0  0  0  0
   -2.4499   -1.5151    1.1283 C   0  0  0  0  0  0  0  0  0  0  0  0
   -1.0724   -1.2086    0.9099 O   0  0  0  0  0  0  0  0  0  0  0  0
   -0.0183   -1.8752    1.5450 C   0  0  0  0  0  0  0  0  0  0  0  0
   -0.0324   -2.0802    2.9350 C   0  0  0  0  0  0  0  0  0  0  0  0
    0.9961   -2.7951    3.5544 C   0  0  0  0  0  0  0  0  0  0  0  0
    2.0369   -3.3252    2.7908 C   0  0  0  0  0  0  0  0  0  0  0  0
    2.0648   -3.1203    1.4109 C   0  0  0  0  0  0  0  0  0  0  0  0
    1.0681   -2.3528    0.7841 C   0  0  0  0  0  0  0  0  0  0  0  0
    1.1319   -2.1486   -0.6798 C   0  0  0  0  0  0  0  0  0  0  0  0
    1.2440   -3.1568   -1.4248 O   0  0  0  0  0  0  0  0  0  0  0  0
    1.0909   -0.8406   -1.2790 N   0  0  0  0  0  0  0  0  0  0  0  0
    5.4363   -2.2460    3.5310 H   0  0  0  0  0  0  0  0  0  0  0  0
    5.7061   -3.0875    1.9317 H   0  0  0  0  0  0  0  0  0  0  0  0
    7.0662   -2.8388    3.0667 H   0  0  0  0  0  0  0  0  0  0  0  0
    5.5251    0.5912    1.5189 H   0  0  0  0  0  0  0  0  0  0  0  0
    4.4551   -0.5904    2.3140 H   0  0  0  0  0  0  0  0  0  0  0  0
    4.4695   -2.0310    0.2920 H   0  0  0  0  0  0  0  0  0  0  0  0
    6.5896   -2.0354   -0.7416 H   0  0  0  0  0  0  0  0  0  0  0  0
    6.8049   -0.2479   -0.5240 H   0  0  0  0  0  0  0  0  0  0  0  0
    6.1888   -0.2186   -2.7902 H   0  0  0  0  0  0  0  0  0  0  0  0
    5.2015   -1.7334   -2.6240 H   0  0  0  0  0  0  0  0  0  0  0  0
    3.3953   -0.3200   -2.5297 H   0  0  0  0  0  0  0  0  0  0  0  0
    4.4060    1.1212   -2.0466 H   0  0  0  0  0  0  0  0  0  0  0  0
    0.5800    0.5489    0.2179 H   0  0  0  0  0  0  0  0  0  0  0  0
    1.9321    1.4827   -2.3897 H   0  0  0  0  0  0  0  0  0  0  0  0
    1.6845    2.5368   -0.9672 H   0  0  0  0  0  0  0  0  0  0  0  0
   -0.6282    2.9668   -0.1548 H   0  0  0  0  0  0  0  0  0  0  0  0
   -2.7051    2.2549   -2.2879 H   0  0  0  0  0  0  0  0  0  0  0  0
   -4.0004    4.2574   -1.4214 H   0  0  0  0  0  0  0  0  0  0  0  0
   -2.8853    6.0846   -0.2734 H   0  0  0  0  0  0  0  0  0  0  0  0
   -2.6608    4.6241    0.7362 H   0  0  0  0  0  0  0  0  0  0  0  0
   -1.2999    5.2383   -0.2767 H   0  0  0  0  0  0  0  0  0  0  0  0
   -2.8203    4.2711   -3.5962 H   0  0  0  0  0  0  0  0  0  0  0  0
   -1.3022    4.8450   -2.7988 H   0  0  0  0  0  0  0  0  0  0  0  0
   -2.7761    5.8908   -2.8225 H   0  0  0  0  0  0  0  0  0  0  0  0
   -2.4650    0.0566   -0.9670 H   0  0  0  0  0  0  0  0  0  0  0  0
   -3.0053    0.3779    1.9130 H   0  0  0  0  0  0  0  0  0  0  0  0
   -5.2775    0.3372    1.6737 H   0  0  0  0  0  0  0  0  0  0  0  0
   -4.9851   -1.4128    1.7879 H   0  0  0  0  0  0  0  0  0  0  0  0
   -5.4569    0.1996   -0.8269 H   0  0  0  0  0  0  0  0  0  0  0  0
   -4.0885   -1.7434   -1.4078 H   0  0  0  0  0  0  0  0  0  0  0  0
   -5.7706   -2.1021   -1.8704 H   0  0  0  0  0  0  0  0  0  0  0  0
   -5.0962   -2.8384   -0.3683 H   0  0  0  0  0  0  0  0  0  0  0  0
   -7.6582   -0.9281   -0.8604 H   0  0  0  0  0  0  0  0  0  0  0  0
   -7.2887   -1.7459    0.7080 H   0  0  0  0  0  0  0  0  0  0  0  0
   -7.4630    0.0517    0.6305 H   0  0  0  0  0  0  0  0  0  0  0  0
   -2.6072   -1.9708    2.1299 H   0  0  0  0  0  0  0  0  0  0  0  0
   -2.7618   -2.2635    0.3761 H   0  0  0  0  0  0  0  0  0  0  0  0
   -0.8304   -1.6772    3.5431 H   0  0  0  0  0  0  0  0  0  0  0  0
    0.9794   -2.9509    4.6231 H   0  0  0  0  0  0  0  0  0  0  0  0
    2.8195   -3.8975    3.2684 H   0  0  0  0  0  0  0  0  0  0  0  0
    2.8648   -3.5609    0.8308 H   0  0  0  0  0  0  0  0  0  0  0  0
    0.9055   -0.7988   -2.3092 H   0  0  0  0  0  0  0  0  0  0  0  0
  1  2  1  0
  2  3  1  0
  3  4  1  0
  4  5  1  0
  5  6  1  0
  6  7  1  0
  7  8  1  0
  8  9  1  0
  9 10  2  0
  9 11  1  0
 11 12  1  0
 12 13  1  0
 13 14  2  0
 13 15  1  0
 15 16  1  0
 16 17  1  0
 17 18  1  0
 17 19  1  0
 16 20  1  0
 20 21  2  0
 20 22  1  0
 22 23  1  0
 23 24  1  0
 24 25  1  0
 25 26  1  0
 25 27  1  0
 23 28  1  0
 28 29  1  0
 29 30  1  0
 30 31  2  0
 31 32  1  0
 32 33  2  0
 33 34  1  0
 34 35  2  0
 35 36  1  0
 36 37  2  0
 36 38  1  0
  8  4  1  0
 38 11  1  0
 35 30  1  0
  1 39  1  0
  1 40  1  0
  1 41  1  0
  3 42  1  0
  3 43  1  0
  4 44  1  0
  5 45  1  0
  5 46  1  0
  6 47  1  0
  6 48  1  0
  7 49  1  0
  7 50  1  0
 11 51  1  0
 12 52  1  0
 12 53  1  0
 15 54  1  0
 16 55  1  0
 17 56  1  0
 18 57  1  0
 18 58  1  0
 18 59  1  0
 19 60  1  0
 19 61  1  0
 19 62  1  0
 22 63  1  0
 23 64  1  0
 24 65  1  0
 24 66  1  0
 25 67  1  0
 26 68  1  0
 26 69  1  0
 26 70  1  0
 27 71  1  0
 27 72  1  0
 27 73  1  0
 28 74  1  0
 28 75  1  0
 31 76  1  0
 32 77  1  0
 33 78  1  0
 34 79  1  0
 38 80  1  0
M  END
$$$$
