
     RDKit          3D

 98102  0  0  0  0  0  0  0  0999 V2000
   -6.3899   -0.2419    1.9071 C   0  0  0  0  0  0  0  0  0  0  0  0
   -5.1092    0.0551    1.2535 N   0  0  0  0  0  0  0  0  0  0  0  0
   -4.5942    1.3916    1.4268 C   0  0  0  0  0  0  0  0  0  0  0  0
   -4.5761    1.8955    2.5816 O   0  0  0  0  0  0  0  0  0  0  0  0
   -4.0836    2.2137    0.2737 C   0  0  0  0  0  0  0  0  0  0  0  0
   -4.9417    3.4815    0.0739 C   0  0  0  0  0  0  0  0  0  0  0  0
   -6.3060    3.1776   -0.5610 C   0  0  0  0  0  0  0  0  0  0  0  0
   -7.1791    4.4020   -0.6033 C   0  0  0  0  0  0  0  0  0  0  0  0
   -8.5556    4.3232   -0.2297 N   0  0  0  0  0  0  0  0  0  0  0  0
   -6.7113    5.4981   -1.0192 O   0  0  0  0  0  0  0  0  0  0  0  0
   -2.7022    2.6183    0.5487 N   0  0  0  0  0  0  0  0  0  0  0  0
   -1.6669    2.5633   -0.4425 C   0  0  0  0  0  0  0  0  0  0  0  0
   -1.8205    1.8740   -1.4865 O   0  0  0  0  0  0  0  0  0  0  0  0
   -0.4048    3.3571   -0.2650 C   0  0  0  0  0  0  0  0  0  0  0  0
    0.3871    2.9504    0.9879 C   0  0  0  0  0  0  0  0  0  0  0  0
    0.8649    1.4729    0.9544 C   0  0  0  0  0  0  0  0  0  0  0  0
    2.3633    1.3974    1.1238 C   0  0  0  0  0  0  0  0  0  0  0  0
    2.8642    1.0394    2.2276 O   0  0  0  0  0  0  0  0  0  0  0  0
    3.2141    1.7911    0.0369 N   0  0  0  0  0  0  0  0  0  0  0  0
    4.6674    1.9010    0.1656 C   0  0  0  0  0  0  0  0  0  0  0  0
    5.3908    0.6589   -0.2981 C   0  0  0  0  0  0  0  0  0  0  0  0
    4.7203   -0.4755   -0.7962 C   0  0  0  0  0  0  0  0  0  0  0  0
    5.4474   -1.5767   -1.2588 C   0  0  0  0  0  0  0  0  0  0  0  0
    6.8437   -1.5617   -1.2291 C   0  0  0  0  0  0  0  0  0  0  0  0
    7.5307   -0.4517   -0.7086 C   0  0  0  0  0  0  0  0  0  0  0  0
    9.0372   -0.4008   -0.7201 C   0  0  0  0  0  0  0  0  0  0  0  0
    9.6137   -1.6807   -0.3028 N   0  0  0  0  0  0  0  0  0  0  0  0
   10.5345   -2.4635   -1.1075 C   0  0  0  0  0  0  0  0  0  0  0  0
   10.8931   -3.7009   -0.2608 C   0  0  0  0  0  0  0  0  0  0  0  0
   10.3275   -3.4656    1.1495 C   0  0  0  0  0  0  0  0  0  0  0  0
    9.5256   -2.2359    0.9944 C   0  0  0  0  0  0  0  0  0  0  0  0
    8.8533   -1.7156    1.9228 O   0  0  0  0  0  0  0  0  0  0  0  0
    6.7957    0.6578   -0.2591 C   0  0  0  0  0  0  0  0  0  0  0  0
    0.1922    0.6900    2.0018 N   0  0  0  0  0  0  0  0  0  0  0  0
    0.1084   -0.7427    1.9606 C   0  0  0  0  0  0  0  0  0  0  0  0
   -0.0580   -1.3873    3.0299 O   0  0  0  0  0  0  0  0  0  0  0  0
    0.2402   -1.4756    0.6936 C   0  0  0  0  0  0  0  0  0  0  0  0
    1.4342   -2.1734    0.4482 C   0  0  0  0  0  0  0  0  0  0  0  0
    1.6666   -2.7537   -0.7964 C   0  0  0  0  0  0  0  0  0  0  0  0
    0.7142   -2.6382   -1.8111 C   0  0  0  0  0  0  0  0  0  0  0  0
   -0.4828   -1.9600   -1.5720 C   0  0  0  0  0  0  0  0  0  0  0  0
   -0.7466   -1.3994   -0.3163 C   0  0  0  0  0  0  0  0  0  0  0  0
   -1.9950   -0.7900   -0.1202 O   0  0  0  0  0  0  0  0  0  0  0  0
   -2.7978   -0.9771    1.0490 C   0  0  0  0  0  0  0  0  0  0  0  0
   -4.3106   -1.0644    0.6929 C   0  0  0  0  0  0  0  0  0  0  0  0
   -4.5807   -1.2788   -0.8173 C   0  0  0  0  0  0  0  0  0  0  0  0
   -6.0453   -1.4873   -1.1122 C   0  0  0  0  0  0  0  0  0  0  0  0
   -6.8272   -0.4309   -1.6087 C   0  0  0  0  0  0  0  0  0  0  0  0
   -8.1947   -0.6084   -1.8368 C   0  0  0  0  0  0  0  0  0  0  0  0
   -8.7890   -1.8478   -1.5877 C   0  0  0  0  0  0  0  0  0  0  0  0
   -8.0189   -2.9106   -1.1063 C   0  0  0  0  0  0  0  0  0  0  0  0
   -6.6519   -2.7308   -0.8649 C   0  0  0  0  0  0  0  0  0  0  0  0
   -6.7190   -1.2830    1.7152 H   0  0  0  0  0  0  0  0  0  0  0  0
   -6.3001   -0.1018    3.0043 H   0  0  0  0  0  0  0  0  0  0  0  0
   -7.1776    0.4323    1.5149 H   0  0  0  0  0  0  0  0  0  0  0  0
   -4.1289    1.6166   -0.6551 H   0  0  0  0  0  0  0  0  0  0  0  0
   -5.0802    4.0076    1.0442 H   0  0  0  0  0  0  0  0  0  0  0  0
   -4.3953    4.1771   -0.6008 H   0  0  0  0  0  0  0  0  0  0  0  0
   -6.8165    2.3776    0.0129 H   0  0  0  0  0  0  0  0  0  0  0  0
   -6.1567    2.8275   -1.6017 H   0  0  0  0  0  0  0  0  0  0  0  0
   -9.1671    5.1698   -0.2847 H   0  0  0  0  0  0  0  0  0  0  0  0
   -8.9729    3.4190    0.0893 H   0  0  0  0  0  0  0  0  0  0  0  0
   -2.5169    3.1580    1.4279 H   0  0  0  0  0  0  0  0  0  0  0  0
   -0.6751    4.4337   -0.1885 H   0  0  0  0  0  0  0  0  0  0  0  0
    0.2420    3.2387   -1.1619 H   0  0  0  0  0  0  0  0  0  0  0  0
   -0.2242    3.1542    1.8933 H   0  0  0  0  0  0  0  0  0  0  0  0
    1.2566    3.6424    1.0607 H   0  0  0  0  0  0  0  0  0  0  0  0
    0.6326    1.0321   -0.0384 H   0  0  0  0  0  0  0  0  0  0  0  0
    2.7811    2.0174   -0.8884 H   0  0  0  0  0  0  0  0  0  0  0  0
    5.0116    2.7578   -0.4521 H   0  0  0  0  0  0  0  0  0  0  0  0
    4.9515    2.1242    1.2180 H   0  0  0  0  0  0  0  0  0  0  0  0
    3.6404   -0.5138   -0.8471 H   0  0  0  0  0  0  0  0  0  0  0  0
    4.9265   -2.4419   -1.6458 H   0  0  0  0  0  0  0  0  0  0  0  0
    7.3864   -2.4169   -1.6104 H   0  0  0  0  0  0  0  0  0  0  0  0
    9.3762   -0.1501   -1.7504 H   0  0  0  0  0  0  0  0  0  0  0  0
    9.4092    0.3956   -0.0390 H   0  0  0  0  0  0  0  0  0  0  0  0
   10.0537   -2.7581   -2.0659 H   0  0  0  0  0  0  0  0  0  0  0  0
   11.4452   -1.8614   -1.3100 H   0  0  0  0  0  0  0  0  0  0  0  0
   10.4242   -4.6061   -0.7049 H   0  0  0  0  0  0  0  0  0  0  0  0
   11.9949   -3.8490   -0.2242 H   0  0  0  0  0  0  0  0  0  0  0  0
    9.6888   -4.3129    1.4796 H   0  0  0  0  0  0  0  0  0  0  0  0
   11.1458   -3.2888    1.8777 H   0  0  0  0  0  0  0  0  0  0  0  0
    7.3175    1.5325    0.1138 H   0  0  0  0  0  0  0  0  0  0  0  0
    0.0031    1.1467    2.9236 H   0  0  0  0  0  0  0  0  0  0  0  0
    2.2022   -2.2240    1.2088 H   0  0  0  0  0  0  0  0  0  0  0  0
    2.5893   -3.2841   -0.9813 H   0  0  0  0  0  0  0  0  0  0  0  0
    0.9042   -3.0704   -2.7845 H   0  0  0  0  0  0  0  0  0  0  0  0
   -1.2227   -1.8918   -2.3586 H   0  0  0  0  0  0  0  0  0  0  0  0
   -2.5864   -0.1651    1.7744 H   0  0  0  0  0  0  0  0  0  0  0  0
   -2.5019   -1.9302    1.5469 H   0  0  0  0  0  0  0  0  0  0  0  0
   -4.6577   -2.0031    1.1820 H   0  0  0  0  0  0  0  0  0  0  0  0
   -4.0251   -2.1806   -1.1559 H   0  0  0  0  0  0  0  0  0  0  0  0
   -4.1855   -0.4373   -1.4200 H   0  0  0  0  0  0  0  0  0  0  0  0
   -6.3743    0.5269   -1.8190 H   0  0  0  0  0  0  0  0  0  0  0  0
   -8.7937    0.2144   -2.2068 H   0  0  0  0  0  0  0  0  0  0  0  0
   -9.8471   -1.9853   -1.7610 H   0  0  0  0  0  0  0  0  0  0  0  0
   -8.4811   -3.8735   -0.9202 H   0  0  0  0  0  0  0  0  0  0  0  0
   -6.0678   -3.5558   -0.4767 H   0  0  0  0  0  0  0  0  0  0  0  0
  1  2  1  0
  2  3  1  0
  3  4  2  0
  3  5  1  0
  5  6  1  0
  6  7  1  0
  7  8  1  0
  8  9  1  0
  8 10  2  0
  5 11  1  0
 11 12  1  0
 12 13  2  0
 12 14  1  0
 14 15  1  0
 15 16  1  0
 16 17  1  0
 17 18  2  0
 17 19  1  0
 19 20  1  0
 20 21  1  0
 21 22  2  0
 22 23  1  0
 23 24  2  0
 24 25  1  0
 25 26  1  0
 26 27  1  0
 27 28  1  0
 28 29  1  0
 29 30  1  0
 30 31  1  0
 31 32  2  0
 25 33  2  0
 16 34  1  0
 34 35  1  0
 35 36  2  0
 35 37  1  0
 37 38  2  0
 38 39  1  0
 39 40  2  0
 40 41  1  0
 41 42  2  0
 42 43  1  0
 43 44  1  0
 44 45  1  0
 45 46  1  0
 46 47  1  0
 47 48  2  0
 48 49  1  0
 49 50  2  0
 50 51  1  0
 51 52  2  0
 45  2  1  0
 52 47  1  0
 33 21  1  0
 42 37  1  0
 31 27  1  0
  1 53  1  0
  1 54  1  0
  1 55  1  0
  5 56  1  0
  6 57  1  0
  6 58  1  0
  7 59  1  0
  7 60  1  0
  9 61  1  0
  9 62  1  0
 11 63  1  0
 14 64  1  0
 14 65  1  0
 15 66  1  0
 15 67  1  0
 16 68  1  0
 19 69  1  0
 20 70  1  0
 20 71  1  0
 22 72  1  0
 23 73  1  0
 24 74  1  0
 26 75  1  0
 26 76  1  0
 28 77  1  0
 28 78  1  0
 29 79  1  0
 29 80  1  0
 30 81  1  0
 30 82  1  0
 33 83  1  0
 34 84  1  0
 38 85  1  0
 39 86  1  0
 40 87  1  0
 41 88  1  0
 44 89  1  0
 44 90  1  0
 45 91  1  0
 46 92  1  0
 46 93  1  0
 48 94  1  0
 49 95  1  0
 50 96  1  0
 51 97  1  0
 52 98  1  0
M  END
$$$$
