
     RDKit          3D

 78 80  0  0  0  0  0  0  0  0999 V2000
   11.8252    1.5906   -0.1828 C   0  0  0  0  0  0  0  0  0  0  0  0
   10.8268    1.6346    0.8324 O   0  0  0  0  0  0  0  0  0  0  0  0
    9.4898    1.2595    0.6401 C   0  0  0  0  0  0  0  0  0  0  0  0
    8.9935    0.8407   -0.6096 C   0  0  0  0  0  0  0  0  0  0  0  0
    7.6526    0.4662   -0.7482 C   0  0  0  0  0  0  0  0  0  0  0  0
    6.7882    0.5007    0.3611 C   0  0  0  0  0  0  0  0  0  0  0  0
    5.4404    0.1181    0.2801 O   0  0  0  0  0  0  0  0  0  0  0  0
    4.7997   -0.3503   -0.9033 C   0  0  0  0  0  0  0  0  0  0  0  0
    3.3615   -0.7379   -0.5688 C   0  0  0  0  0  0  0  0  0  0  0  0
    2.6287   -1.3084   -1.7871 C   0  0  0  0  0  0  0  0  0  0  0  0
    1.2975   -1.7588   -1.3895 N   0  0  0  0  0  0  0  0  0  0  0  0
    0.2234   -0.8360   -1.1524 C   0  0  0  0  0  0  0  0  0  0  0  0
    0.2092    0.2842   -1.7308 O   0  0  0  0  0  0  0  0  0  0  0  0
   -0.8979   -1.2172   -0.2240 C   0  0  0  0  0  0  0  0  0  0  0  0
   -2.0052   -2.0144   -0.9485 C   0  0  0  0  0  0  0  0  0  0  0  0
   -2.8414   -1.1948   -1.9042 C   0  0  0  0  0  0  0  0  0  0  0  0
   -2.2673   -0.6280   -2.8721 O   0  0  0  0  0  0  0  0  0  0  0  0
   -4.2686   -1.0477   -1.7697 N   0  0  0  0  0  0  0  0  0  0  0  0
   -5.1261   -1.8378   -0.8776 C   0  0  0  0  0  0  0  0  0  0  0  0
   -5.2601   -3.3100   -1.3764 C   0  0  0  0  0  0  0  0  0  0  0  0
   -6.1854   -4.1372   -0.4688 C   0  0  0  0  0  0  0  0  0  0  0  0
   -5.6966   -3.4334   -2.8460 C   0  0  0  0  0  0  0  0  0  0  0  0
   -6.4586   -1.1387   -0.6830 C   0  0  0  0  0  0  0  0  0  0  0  0
   -7.3158   -1.1505   -1.6068 O   0  0  0  0  0  0  0  0  0  0  0  0
   -6.7773   -0.4558    0.5391 N   0  0  0  0  0  0  0  0  0  0  0  0
   -5.8119    0.3469    1.2915 C   0  0  0  0  0  0  0  0  0  0  0  0
   -5.4606    1.6115    0.5043 C   0  0  0  0  0  0  0  0  0  0  0  0
   -4.5542    2.5499    1.2974 C   0  0  0  0  0  0  0  0  0  0  0  0
   -3.2983    1.9244    1.5654 O   0  0  0  0  0  0  0  0  0  0  0  0
   -2.1677    2.6039    2.0478 C   0  0  0  0  0  0  0  0  0  0  0  0
   -2.2958    3.8895    2.6132 C   0  0  0  0  0  0  0  0  0  0  0  0
   -1.1842    4.5712    3.1046 C   0  0  0  0  0  0  0  0  0  0  0  0
    0.0749    3.9881    3.0313 C   0  0  0  0  0  0  0  0  0  0  0  0
    0.2245    2.7207    2.4770 C   0  0  0  0  0  0  0  0  0  0  0  0
   -0.8843    1.9993    1.9886 C   0  0  0  0  0  0  0  0  0  0  0  0
   -0.6327    0.6100    1.5066 C   0  0  0  0  0  0  0  0  0  0  0  0
    0.3421   -0.0200    2.0057 O   0  0  0  0  0  0  0  0  0  0  0  0
   -1.4118   -0.0290    0.4741 N   0  0  0  0  0  0  0  0  0  0  0  0
    7.2840    0.9287    1.5992 C   0  0  0  0  0  0  0  0  0  0  0  0
    8.6231    1.3048    1.7374 C   0  0  0  0  0  0  0  0  0  0  0  0
   12.7884    1.9341    0.2434 H   0  0  0  0  0  0  0  0  0  0  0  0
   11.9474    0.5495   -0.5529 H   0  0  0  0  0  0  0  0  0  0  0  0
   11.5509    2.2676   -1.0185 H   0  0  0  0  0  0  0  0  0  0  0  0
    9.6345    0.7970   -1.4796 H   0  0  0  0  0  0  0  0  0  0  0  0
    7.2992    0.1511   -1.7200 H   0  0  0  0  0  0  0  0  0  0  0  0
    5.3413   -1.2396   -1.2937 H   0  0  0  0  0  0  0  0  0  0  0  0
    4.8015    0.4557   -1.6688 H   0  0  0  0  0  0  0  0  0  0  0  0
    3.3690   -1.5040    0.2387 H   0  0  0  0  0  0  0  0  0  0  0  0
    2.8190    0.1584   -0.1921 H   0  0  0  0  0  0  0  0  0  0  0  0
    2.5521   -0.5403   -2.5863 H   0  0  0  0  0  0  0  0  0  0  0  0
    3.1976   -2.1720   -2.1984 H   0  0  0  0  0  0  0  0  0  0  0  0
    1.1966   -2.7462   -1.0571 H   0  0  0  0  0  0  0  0  0  0  0  0
   -0.4780   -1.9096    0.5380 H   0  0  0  0  0  0  0  0  0  0  0  0
   -2.6232   -2.4967   -0.1701 H   0  0  0  0  0  0  0  0  0  0  0  0
   -1.5408   -2.8447   -1.5239 H   0  0  0  0  0  0  0  0  0  0  0  0
   -4.7305   -0.3863   -2.4343 H   0  0  0  0  0  0  0  0  0  0  0  0
   -4.6508   -1.8863    0.1197 H   0  0  0  0  0  0  0  0  0  0  0  0
   -4.2541   -3.7785   -1.3105 H   0  0  0  0  0  0  0  0  0  0  0  0
   -5.8443   -4.0762    0.5893 H   0  0  0  0  0  0  0  0  0  0  0  0
   -6.1541   -5.2063   -0.7708 H   0  0  0  0  0  0  0  0  0  0  0  0
   -7.2355   -3.7808   -0.5352 H   0  0  0  0  0  0  0  0  0  0  0  0
   -5.0079   -2.8721   -3.5096 H   0  0  0  0  0  0  0  0  0  0  0  0
   -5.6589   -4.4974   -3.1557 H   0  0  0  0  0  0  0  0  0  0  0  0
   -6.7331   -3.0720   -2.9999 H   0  0  0  0  0  0  0  0  0  0  0  0
   -7.7895   -0.3336    0.7732 H   0  0  0  0  0  0  0  0  0  0  0  0
   -4.8959   -0.2354    1.5225 H   0  0  0  0  0  0  0  0  0  0  0  0
   -6.2696    0.6357    2.2653 H   0  0  0  0  0  0  0  0  0  0  0  0
   -6.4005    2.1547    0.2658 H   0  0  0  0  0  0  0  0  0  0  0  0
   -4.9604    1.3379   -0.4518 H   0  0  0  0  0  0  0  0  0  0  0  0
   -4.3890    3.4671    0.6898 H   0  0  0  0  0  0  0  0  0  0  0  0
   -5.0510    2.8396    2.2482 H   0  0  0  0  0  0  0  0  0  0  0  0
   -3.2617    4.3691    2.6967 H   0  0  0  0  0  0  0  0  0  0  0  0
   -1.2999    5.5488    3.5567 H   0  0  0  0  0  0  0  0  0  0  0  0
    0.9377    4.5158    3.4135 H   0  0  0  0  0  0  0  0  0  0  0  0
    1.2188    2.2912    2.4445 H   0  0  0  0  0  0  0  0  0  0  0  0
   -2.3269    0.3694    0.1670 H   0  0  0  0  0  0  0  0  0  0  0  0
    6.6274    0.9690    2.4607 H   0  0  0  0  0  0  0  0  0  0  0  0
    8.9907    1.6288    2.7031 H   0  0  0  0  0  0  0  0  0  0  0  0
  1  2  1  0
  2  3  1  0
  3  4  2  0
  4  5  1  0
  5  6  2  0
  6  7  1  0
  7  8  1  0
  8  9  1  0
  9 10  1  0
 10 11  1  0
 11 12  1  0
 12 13  2  0
 12 14  1  0
 14 15  1  0
 15 16  1  0
 16 17  2  0
 16 18  1  0
 18 19  1  0
 19 20  1  0
 20 21  1  0
 20 22  1  0
 19 23  1  0
 23 24  2  0
 23 25  1  0
 25 26  1  0
 26 27  1  0
 27 28  1  0
 28 29  1  0
 29 30  1  0
 30 31  2  0
 31 32  1  0
 32 33  2  0
 33 34  1  0
 34 35  2  0
 35 36  1  0
 36 37  2  0
 36 38  1  0
  6 39  1  0
 39 40  2  0
 40  3  1  0
 38 14  1  0
 35 30  1  0
  1 41  1  0
  1 42  1  0
  1 43  1  0
  4 44  1  0
  5 45  1  0
  8 46  1  0
  8 47  1  0
  9 48  1  0
  9 49  1  0
 10 50  1  0
 10 51  1  0
 11 52  1  0
 14 53  1  0
 15 54  1  0
 15 55  1  0
 18 56  1  0
 19 57  1  0
 20 58  1  0
 21 59  1  0
 21 60  1  0
 21 61  1  0
 22 62  1  0
 22 63  1  0
 22 64  1  0
 25 65  1  0
 26 66  1  0
 26 67  1  0
 27 68  1  0
 27 69  1  0
 28 70  1  0
 28 71  1  0
 31 72  1  0
 32 73  1  0
 33 74  1  0
 34 75  1  0
 38 76  1  0
 39 77  1  0
 40 78  1  0
M  END
$$$$
