
     RDKit          3D

 70 73  0  0  0  0  0  0  0  0999 V2000
    5.4220    2.8842    1.9051 C   0  0  0  0  0  0  0  0  0  0  0  0
    4.7259    2.7666    0.5817 C   0  0  0  0  0  0  0  0  0  0  0  0
    4.4093    3.9174   -0.1567 C   0  0  0  0  0  0  0  0  0  0  0  0
    3.7304    3.8076   -1.3735 C   0  0  0  0  0  0  0  0  0  0  0  0
    3.3542    2.5514   -1.8542 C   0  0  0  0  0  0  0  0  0  0  0  0
    3.6241    1.3982   -1.1032 C   0  0  0  0  0  0  0  0  0  0  0  0
    3.2095    0.0712   -1.5941 C   0  0  0  0  0  0  0  0  0  0  0  0
    4.1069   -0.7217   -1.9943 O   0  0  0  0  0  0  0  0  0  0  0  0
    1.8190   -0.3332   -1.6293 N   0  0  0  0  0  0  0  0  0  0  0  0
    1.4641   -1.6916   -2.0709 C   0  0  0  0  0  0  0  0  0  0  0  0
    1.7574   -2.7135   -0.9636 C   0  0  0  0  0  0  0  0  0  0  0  0
    1.1974   -4.1141   -1.2822 C   0  0  0  0  0  0  0  0  0  0  0  0
   -0.2143   -4.3414   -0.7140 C   0  0  0  0  0  0  0  0  0  0  0  0
   -1.2405   -3.6594   -1.5039 N   0  0  0  0  0  0  0  0  0  0  0  0
   -2.5929   -3.5117   -1.0450 C   0  0  0  0  0  0  0  0  0  0  0  0
   -3.5001   -3.2214   -1.8709 O   0  0  0  0  0  0  0  0  0  0  0  0
   -2.9546   -3.7433    0.3638 C   0  0  0  0  0  0  0  0  0  0  0  0
   -3.6218   -4.9374    0.6827 C   0  0  0  0  0  0  0  0  0  0  0  0
   -3.8618   -5.2821    2.0147 C   0  0  0  0  0  0  0  0  0  0  0  0
   -4.6667   -6.7914    2.3994 Cl  0  0  0  0  0  0  0  0  0  0  0  0
   -3.4337   -4.4379    3.0405 C   0  0  0  0  0  0  0  0  0  0  0  0
   -2.7884   -3.2386    2.7350 C   0  0  0  0  0  0  0  0  0  0  0  0
   -2.5666   -2.8615    1.4049 C   0  0  0  0  0  0  0  0  0  0  0  0
   -1.9668   -1.6115    1.1856 O   0  0  0  0  0  0  0  0  0  0  0  0
   -2.2861   -0.7302    0.1103 C   0  0  0  0  0  0  0  0  0  0  0  0
   -2.0148    0.7208    0.5443 C   0  0  0  0  0  0  0  0  0  0  0  0
   -2.4305    1.7539   -0.5237 C   0  0  0  0  0  0  0  0  0  0  0  0
   -2.2607    3.1659   -0.0211 C   0  0  0  0  0  0  0  0  0  0  0  0
   -3.2103    3.7240    0.8510 C   0  0  0  0  0  0  0  0  0  0  0  0
   -3.0438    5.0241    1.3383 C   0  0  0  0  0  0  0  0  0  0  0  0
   -1.9252    5.7732    0.9644 C   0  0  0  0  0  0  0  0  0  0  0  0
   -0.9693    5.2216    0.1064 C   0  0  0  0  0  0  0  0  0  0  0  0
   -1.1346    3.9234   -0.3857 C   0  0  0  0  0  0  0  0  0  0  0  0
   -0.6282    0.9124    1.0031 N   0  0  0  0  0  0  0  0  0  0  0  0
    0.5692    0.4727    0.3361 C   0  0  0  0  0  0  0  0  0  0  0  0
    1.5479    0.1144    1.0434 O   0  0  0  0  0  0  0  0  0  0  0  0
    0.7425    0.5569   -1.1602 C   0  0  0  0  0  0  0  0  0  0  0  0
    4.3204    1.5089    0.1084 C   0  0  0  0  0  0  0  0  0  0  0  0
    6.0654    3.7899    1.9291 H   0  0  0  0  0  0  0  0  0  0  0  0
    4.6659    2.9562    2.7163 H   0  0  0  0  0  0  0  0  0  0  0  0
    6.0660    1.9989    2.0892 H   0  0  0  0  0  0  0  0  0  0  0  0
    4.6875    4.8986    0.2084 H   0  0  0  0  0  0  0  0  0  0  0  0
    3.4963    4.6983   -1.9427 H   0  0  0  0  0  0  0  0  0  0  0  0
    2.8353    2.4773   -2.8019 H   0  0  0  0  0  0  0  0  0  0  0  0
    2.0339   -1.9523   -2.9897 H   0  0  0  0  0  0  0  0  0  0  0  0
    0.3907   -1.7337   -2.3422 H   0  0  0  0  0  0  0  0  0  0  0  0
    1.3564   -2.3509    0.0072 H   0  0  0  0  0  0  0  0  0  0  0  0
    2.8595   -2.7937   -0.8465 H   0  0  0  0  0  0  0  0  0  0  0  0
    1.8675   -4.8624   -0.8072 H   0  0  0  0  0  0  0  0  0  0  0  0
    1.2181   -4.3191   -2.3751 H   0  0  0  0  0  0  0  0  0  0  0  0
   -0.4344   -5.4306   -0.7205 H   0  0  0  0  0  0  0  0  0  0  0  0
   -0.2424   -4.0010    0.3432 H   0  0  0  0  0  0  0  0  0  0  0  0
   -1.0619   -3.4895   -2.5192 H   0  0  0  0  0  0  0  0  0  0  0  0
   -3.9231   -5.6181   -0.1051 H   0  0  0  0  0  0  0  0  0  0  0  0
   -3.6056   -4.7061    4.0756 H   0  0  0  0  0  0  0  0  0  0  0  0
   -2.4765   -2.5838    3.5386 H   0  0  0  0  0  0  0  0  0  0  0  0
   -1.6944   -1.0018   -0.7813 H   0  0  0  0  0  0  0  0  0  0  0  0
   -3.3643   -0.8299   -0.1431 H   0  0  0  0  0  0  0  0  0  0  0  0
   -2.6824    0.8979    1.4193 H   0  0  0  0  0  0  0  0  0  0  0  0
   -1.8764    1.6181   -1.4715 H   0  0  0  0  0  0  0  0  0  0  0  0
   -3.5029    1.5971   -0.7779 H   0  0  0  0  0  0  0  0  0  0  0  0
   -4.0796    3.1523    1.1511 H   0  0  0  0  0  0  0  0  0  0  0  0
   -3.7838    5.4511    2.0034 H   0  0  0  0  0  0  0  0  0  0  0  0
   -1.7988    6.7810    1.3387 H   0  0  0  0  0  0  0  0  0  0  0  0
   -0.1021    5.8005   -0.1807 H   0  0  0  0  0  0  0  0  0  0  0  0
   -0.3871    3.5125   -1.0505 H   0  0  0  0  0  0  0  0  0  0  0  0
   -0.5167    1.1984    2.0039 H   0  0  0  0  0  0  0  0  0  0  0  0
    0.9483    1.6048   -1.4441 H   0  0  0  0  0  0  0  0  0  0  0  0
   -0.1906    0.2965   -1.6815 H   0  0  0  0  0  0  0  0  0  0  0  0
    4.5434    0.6170    0.6844 H   0  0  0  0  0  0  0  0  0  0  0  0
  1  2  1  0
  2  3  2  0
  3  4  1  0
  4  5  2  0
  5  6  1  0
  6  7  1  0
  7  8  2  0
  7  9  1  0
  9 10  1  0
 10 11  1  0
 11 12  1  0
 12 13  1  0
 13 14  1  0
 14 15  1  0
 15 16  2  0
 15 17  1  0
 17 18  2  0
 18 19  1  0
 19 20  1  0
 19 21  2  0
 21 22  1  0
 22 23  2  0
 23 24  1  0
 24 25  1  0
 25 26  1  0
 26 27  1  0
 27 28  1  0
 28 29  2  0
 29 30  1  0
 30 31  2  0
 31 32  1  0
 32 33  2  0
 26 34  1  0
 34 35  1  0
 35 36  2  0
 35 37  1  0
  6 38  2  0
 38  2  1  0
 37  9  1  0
 23 17  1  0
 33 28  1  0
  1 39  1  0
  1 40  1  0
  1 41  1  0
  3 42  1  0
  4 43  1  0
  5 44  1  0
 10 45  1  0
 10 46  1  0
 11 47  1  0
 11 48  1  0
 12 49  1  0
 12 50  1  0
 13 51  1  0
 13 52  1  0
 14 53  1  0
 18 54  1  0
 21 55  1  0
 22 56  1  0
 25 57  1  0
 25 58  1  0
 26 59  1  0
 27 60  1  0
 27 61  1  0
 29 62  1  0
 30 63  1  0
 31 64  1  0
 32 65  1  0
 33 66  1  0
 34 67  1  0
 37 68  1  0
 37 69  1  0
 38 70  1  0
M  END
$$$$
