
     RDKit          3D

 57 60  0  0  0  0  0  0  0  0999 V2000
    4.1654   -2.6882    0.2823 Cl  0  0  0  0  0  0  0  0  0  0  0  0
    5.3300   -1.4041   -0.0251 C   0  0  0  0  0  0  0  0  0  0  0  0
    6.6774   -1.6627    0.2543 C   0  0  0  0  0  0  0  0  0  0  0  0
    7.6453   -0.6823    0.0308 C   0  0  0  0  0  0  0  0  0  0  0  0
    7.2758    0.5704   -0.4569 C   0  0  0  0  0  0  0  0  0  0  0  0
    5.9358    0.8392   -0.7419 C   0  0  0  0  0  0  0  0  0  0  0  0
    4.9484   -0.1444   -0.5445 C   0  0  0  0  0  0  0  0  0  0  0  0
    3.5140    0.1879   -0.8922 C   0  0  0  0  0  0  0  0  0  0  0  0
    2.8395    0.9999    0.2238 C   0  0  0  0  0  0  0  0  0  0  0  0
    1.5854    1.5785   -0.2551 N   0  0  0  0  0  0  0  0  0  0  0  0
    0.4587    0.9876   -0.5567 C   0  0  0  0  0  0  0  0  0  0  0  0
    0.2642   -0.4315   -0.3985 N   0  0  0  0  0  0  0  0  0  0  0  0
    0.5693   -1.1596    0.8378 C   0  0  0  0  0  0  0  0  0  0  0  0
   -0.2811   -2.4331    0.9715 C   0  0  0  0  0  0  0  0  0  0  0  0
   -1.6832   -2.1585    1.5616 C   0  0  0  0  0  0  0  0  0  0  0  0
   -2.7793   -2.9747    0.8599 C   0  0  0  0  0  0  0  0  0  0  0  0
   -3.1707   -2.3938   -0.5129 C   0  0  0  0  0  0  0  0  0  0  0  0
   -4.3972   -1.6638   -0.4436 O   0  0  0  0  0  0  0  0  0  0  0  0
   -4.6227   -0.4677    0.2609 C   0  0  0  0  0  0  0  0  0  0  0  0
   -5.8965   -0.2912    0.8201 C   0  0  0  0  0  0  0  0  0  0  0  0
   -6.2186    0.8802    1.5086 C   0  0  0  0  0  0  0  0  0  0  0  0
   -5.2640    1.8869    1.6594 C   0  0  0  0  0  0  0  0  0  0  0  0
   -3.9985    1.7371    1.0952 C   0  0  0  0  0  0  0  0  0  0  0  0
   -3.6741    0.5827    0.3594 C   0  0  0  0  0  0  0  0  0  0  0  0
   -2.4333    0.5140   -0.2874 O   0  0  0  0  0  0  0  0  0  0  0  0
   -1.9619    1.5540   -1.0994 C   0  0  0  0  0  0  0  0  0  0  0  0
   -2.8606    2.3480   -1.7490 N   0  0  0  0  0  0  0  0  0  0  0  0
   -2.4813    3.3787   -2.5459 C   0  0  0  0  0  0  0  0  0  0  0  0
   -1.1305    3.6567   -2.7239 C   0  0  0  0  0  0  0  0  0  0  0  0
   -0.1806    2.8685   -2.0754 C   0  0  0  0  0  0  0  0  0  0  0  0
   -0.5784    1.7956   -1.2521 C   0  0  0  0  0  0  0  0  0  0  0  0
    6.9745   -2.6290    0.6395 H   0  0  0  0  0  0  0  0  0  0  0  0
    8.6846   -0.8922    0.2425 H   0  0  0  0  0  0  0  0  0  0  0  0
    8.0273    1.3316   -0.6224 H   0  0  0  0  0  0  0  0  0  0  0  0
    5.6669    1.8163   -1.1242 H   0  0  0  0  0  0  0  0  0  0  0  0
    2.9274   -0.7281   -1.1101 H   0  0  0  0  0  0  0  0  0  0  0  0
    3.5018    0.7881   -1.8287 H   0  0  0  0  0  0  0  0  0  0  0  0
    3.5055    1.8464    0.4996 H   0  0  0  0  0  0  0  0  0  0  0  0
    2.6939    0.4125    1.1517 H   0  0  0  0  0  0  0  0  0  0  0  0
   -0.2788   -0.9117   -1.1486 H   0  0  0  0  0  0  0  0  0  0  0  0
    1.6289   -1.4798    0.8153 H   0  0  0  0  0  0  0  0  0  0  0  0
    0.4119   -0.5001    1.7214 H   0  0  0  0  0  0  0  0  0  0  0  0
    0.2462   -3.1393    1.6487 H   0  0  0  0  0  0  0  0  0  0  0  0
   -0.3407   -2.9411   -0.0154 H   0  0  0  0  0  0  0  0  0  0  0  0
   -1.9375   -1.0869    1.5325 H   0  0  0  0  0  0  0  0  0  0  0  0
   -1.6782   -2.4361    2.6390 H   0  0  0  0  0  0  0  0  0  0  0  0
   -3.6781   -3.0232    1.5154 H   0  0  0  0  0  0  0  0  0  0  0  0
   -2.4259   -4.0241    0.7335 H   0  0  0  0  0  0  0  0  0  0  0  0
   -2.3695   -1.7904   -0.9712 H   0  0  0  0  0  0  0  0  0  0  0  0
   -3.3357   -3.2442   -1.2077 H   0  0  0  0  0  0  0  0  0  0  0  0
   -6.6465   -1.0668    0.7149 H   0  0  0  0  0  0  0  0  0  0  0  0
   -7.2071    1.0084    1.9266 H   0  0  0  0  0  0  0  0  0  0  0  0
   -5.5153    2.7962    2.1873 H   0  0  0  0  0  0  0  0  0  0  0  0
   -3.2697    2.5337    1.2054 H   0  0  0  0  0  0  0  0  0  0  0  0
   -3.2316    3.9837   -3.0397 H   0  0  0  0  0  0  0  0  0  0  0  0
   -0.8205    4.4784   -3.3534 H   0  0  0  0  0  0  0  0  0  0  0  0
    0.8695    3.0873   -2.2361 H   0  0  0  0  0  0  0  0  0  0  0  0
  1  2  1  0
  2  3  2  0
  3  4  1  0
  4  5  2  0
  5  6  1  0
  6  7  2  0
  7  8  1  0
  8  9  1  0
  9 10  1  0
 10 11  2  3
 11 12  1  0
 12 13  1  0
 13 14  1  0
 14 15  1  0
 15 16  1  0
 16 17  1  0
 17 18  1  0
 18 19  1  0
 19 20  2  0
 20 21  1  0
 21 22  2  0
 22 23  1  0
 23 24  2  0
 24 25  1  0
 25 26  1  0
 26 27  2  0
 27 28  1  0
 28 29  2  0
 29 30  1  0
 30 31  2  0
  7  2  1  0
 31 11  1  0
 24 19  1  0
 31 26  1  0
  3 32  1  0
  4 33  1  0
  5 34  1  0
  6 35  1  0
  8 36  1  0
  8 37  1  0
  9 38  1  0
  9 39  1  0
 12 40  1  0
 13 41  1  0
 13 42  1  0
 14 43  1  0
 14 44  1  0
 15 45  1  0
 15 46  1  0
 16 47  1  0
 16 48  1  0
 17 49  1  0
 17 50  1  0
 20 51  1  0
 21 52  1  0
 22 53  1  0
 23 54  1  0
 28 55  1  0
 29 56  1  0
 30 57  1  0
M  END
$$$$
