
     RDKit          3D

 73 77  0  0  0  0  0  0  0  0999 V2000
   -1.3460   -4.3623    0.4094 C   0  0  0  0  0  0  0  0  0  0  0  0
   -0.7957   -3.6021   -0.8019 C   0  0  0  0  0  0  0  0  0  0  0  0
   -1.5078   -2.3300   -1.0229 N   0  0  0  0  0  0  0  0  0  0  0  0
   -2.9509   -2.3779   -1.3241 C   0  0  0  0  0  0  0  0  0  0  0  0
   -3.7963   -1.8206   -0.1690 C   0  0  0  0  0  0  0  0  0  0  0  0
   -4.1117   -0.4636   -0.4452 O   0  0  0  0  0  0  0  0  0  0  0  0
   -4.8036    0.4138    0.3999 C   0  0  0  0  0  0  0  0  0  0  0  0
   -5.1491    0.0621    1.7199 C   0  0  0  0  0  0  0  0  0  0  0  0
   -5.7966    0.9872    2.5438 C   0  0  0  0  0  0  0  0  0  0  0  0
   -6.0938    2.2678    2.0696 C   0  0  0  0  0  0  0  0  0  0  0  0
   -5.7630    2.6246    0.7627 C   0  0  0  0  0  0  0  0  0  0  0  0
   -5.1398    1.6974   -0.0901 C   0  0  0  0  0  0  0  0  0  0  0  0
   -4.8252    2.0912   -1.5165 C   0  0  0  0  0  0  0  0  0  0  0  0
   -3.5390    2.9281   -1.6488 C   0  0  0  0  0  0  0  0  0  0  0  0
   -2.3010    2.3224   -0.9634 C   0  0  0  0  0  0  0  0  0  0  0  0
   -1.7604    1.0627   -1.6845 C   0  0  0  0  0  0  0  0  0  0  0  0
   -0.8282    0.1786   -0.7979 C   0  0  0  0  0  0  0  0  0  0  0  0
    0.5595    0.8950   -0.7345 C   0  0  0  0  0  0  0  0  0  0  0  0
    1.3942    0.3874    0.3559 N   0  0  0  0  0  0  0  0  0  0  0  0
    2.8139    0.6340    0.3036 C   0  0  0  0  0  0  0  0  0  0  0  0
    3.2548    1.5518   -0.4415 O   0  0  0  0  0  0  0  0  0  0  0  0
    3.7776   -0.1469    1.1597 C   0  0  0  0  0  0  0  0  0  0  0  0
    5.1150   -0.2879    0.4808 C   0  0  0  0  0  0  0  0  0  0  0  0
    5.5156   -1.3094   -0.3733 C   0  0  0  0  0  0  0  0  0  0  0  0
    4.7293   -2.5339   -0.7150 C   0  0  0  0  0  0  0  0  0  0  0  0
    6.7337   -1.0315   -0.9002 N   0  0  0  0  0  0  0  0  0  0  0  0
    7.0384    0.1672   -0.3598 C   0  0  0  0  0  0  0  0  0  0  0  0
    8.1925    0.9034   -0.6213 C   0  0  0  0  0  0  0  0  0  0  0  0
    8.3241    2.1555    0.0019 C   0  0  0  0  0  0  0  0  0  0  0  0
    7.3052    2.6398    0.8476 C   0  0  0  0  0  0  0  0  0  0  0  0
    6.1665    1.8554    1.0755 C   0  0  0  0  0  0  0  0  0  0  0  0
    6.0863    0.6426    0.4629 N   0  0  0  0  0  0  0  0  0  0  0  0
    0.7356    0.2017    1.6467 C   0  0  0  0  0  0  0  0  0  0  0  0
   -0.5542   -0.5731    1.4382 C   0  0  0  0  0  0  0  0  0  0  0  0
   -1.4050    0.0676    0.5027 O   0  0  0  0  0  0  0  0  0  0  0  0
   -0.7237   -1.1983   -1.4658 C   0  0  0  0  0  0  0  0  0  0  0  0
    0.0351   -1.3466   -2.4657 O   0  0  0  0  0  0  0  0  0  0  0  0
   -0.8190   -5.3331    0.5061 H   0  0  0  0  0  0  0  0  0  0  0  0
   -1.2001   -3.7700    1.3363 H   0  0  0  0  0  0  0  0  0  0  0  0
   -2.4264   -4.5786    0.2908 H   0  0  0  0  0  0  0  0  0  0  0  0
    0.2856   -3.4145   -0.6203 H   0  0  0  0  0  0  0  0  0  0  0  0
   -0.8840   -4.2330   -1.7117 H   0  0  0  0  0  0  0  0  0  0  0  0
   -3.2708   -3.4249   -1.5230 H   0  0  0  0  0  0  0  0  0  0  0  0
   -3.1644   -1.8257   -2.2647 H   0  0  0  0  0  0  0  0  0  0  0  0
   -3.2473   -1.9124    0.7913 H   0  0  0  0  0  0  0  0  0  0  0  0
   -4.7440   -2.3972   -0.0947 H   0  0  0  0  0  0  0  0  0  0  0  0
   -4.9141   -0.9148    2.1188 H   0  0  0  0  0  0  0  0  0  0  0  0
   -6.0641    0.7145    3.5554 H   0  0  0  0  0  0  0  0  0  0  0  0
   -6.5879    2.9850    2.7159 H   0  0  0  0  0  0  0  0  0  0  0  0
   -6.0037    3.6174    0.4060 H   0  0  0  0  0  0  0  0  0  0  0  0
   -5.6702    2.6913   -1.9144 H   0  0  0  0  0  0  0  0  0  0  0  0
   -4.7672    1.1975   -2.1723 H   0  0  0  0  0  0  0  0  0  0  0  0
   -3.7284    3.9281   -1.2039 H   0  0  0  0  0  0  0  0  0  0  0  0
   -3.3187    3.0830   -2.7269 H   0  0  0  0  0  0  0  0  0  0  0  0
   -1.5091    3.0993   -0.9548 H   0  0  0  0  0  0  0  0  0  0  0  0
   -2.5433    2.1230    0.1008 H   0  0  0  0  0  0  0  0  0  0  0  0
   -1.1984    1.4093   -2.5854 H   0  0  0  0  0  0  0  0  0  0  0  0
   -2.5928    0.4605   -2.0931 H   0  0  0  0  0  0  0  0  0  0  0  0
    0.4223    1.9835   -0.5607 H   0  0  0  0  0  0  0  0  0  0  0  0
    1.0918    0.7839   -1.7074 H   0  0  0  0  0  0  0  0  0  0  0  0
    3.9003    0.3683    2.1376 H   0  0  0  0  0  0  0  0  0  0  0  0
    3.3620   -1.1583    1.3590 H   0  0  0  0  0  0  0  0  0  0  0  0
    5.2699   -3.1358   -1.4727 H   0  0  0  0  0  0  0  0  0  0  0  0
    4.5877   -3.1490    0.1985 H   0  0  0  0  0  0  0  0  0  0  0  0
    3.7366   -2.2437   -1.1202 H   0  0  0  0  0  0  0  0  0  0  0  0
    8.9570    0.5268   -1.2896 H   0  0  0  0  0  0  0  0  0  0  0  0
    9.2079    2.7559   -0.1754 H   0  0  0  0  0  0  0  0  0  0  0  0
    7.4018    3.6089    1.3233 H   0  0  0  0  0  0  0  0  0  0  0  0
    5.3729    2.2153    1.7201 H   0  0  0  0  0  0  0  0  0  0  0  0
    1.3770   -0.3579    2.3587 H   0  0  0  0  0  0  0  0  0  0  0  0
    0.5023    1.1933    2.0923 H   0  0  0  0  0  0  0  0  0  0  0  0
   -0.3159   -1.6095    1.1377 H   0  0  0  0  0  0  0  0  0  0  0  0
   -1.0912   -0.6394    2.4051 H   0  0  0  0  0  0  0  0  0  0  0  0
  1  2  1  0
  2  3  1  0
  3  4  1  0
  4  5  1  0
  5  6  1  0
  6  7  1  0
  7  8  2  0
  8  9  1  0
  9 10  2  0
 10 11  1  0
 11 12  2  0
 12 13  1  0
 13 14  1  0
 14 15  1  0
 15 16  1  0
 16 17  1  0
 17 18  1  0
 18 19  1  0
 19 20  1  0
 20 21  2  0
 20 22  1  0
 22 23  1  0
 23 24  2  0
 24 25  1  0
 24 26  1  0
 26 27  2  0
 27 28  1  0
 28 29  2  0
 29 30  1  0
 30 31  2  0
 31 32  1  0
 19 33  1  0
 33 34  1  0
 34 35  1  0
 17 36  1  0
 36 37  2  0
 36  3  1  0
 12  7  1  0
 35 17  1  0
 32 23  1  0
 32 27  1  0
  1 38  1  0
  1 39  1  0
  1 40  1  0
  2 41  1  0
  2 42  1  0
  4 43  1  0
  4 44  1  0
  5 45  1  0
  5 46  1  0
  8 47  1  0
  9 48  1  0
 10 49  1  0
 11 50  1  0
 13 51  1  0
 13 52  1  0
 14 53  1  0
 14 54  1  0
 15 55  1  0
 15 56  1  0
 16 57  1  0
 16 58  1  0
 18 59  1  0
 18 60  1  0
 22 61  1  0
 22 62  1  0
 25 63  1  0
 25 64  1  0
 25 65  1  0
 28 66  1  0
 29 67  1  0
 30 68  1  0
 31 69  1  0
 33 70  1  0
 33 71  1  0
 34 72  1  0
 34 73  1  0
M  END
$$$$
