
     RDKit          3D

 91 94  0  0  0  0  0  0  0  0999 V2000
    5.7922   -4.1283    1.6756 C   0  0  0  0  0  0  0  0  0  0  0  0
    5.0664   -2.9949    1.2156 O   0  0  0  0  0  0  0  0  0  0  0  0
    5.4031   -2.2501    0.0764 C   0  0  0  0  0  0  0  0  0  0  0  0
    6.4334   -2.6291   -0.7978 C   0  0  0  0  0  0  0  0  0  0  0  0
    6.7391   -1.8416   -1.9075 C   0  0  0  0  0  0  0  0  0  0  0  0
    6.0356   -0.6480   -2.1583 C   0  0  0  0  0  0  0  0  0  0  0  0
    6.3289    0.1590   -3.2721 O   0  0  0  0  0  0  0  0  0  0  0  0
    7.3006   -0.1506   -4.2670 C   0  0  0  0  0  0  0  0  0  0  0  0
    5.0166   -0.2459   -1.2688 C   0  0  0  0  0  0  0  0  0  0  0  0
    4.2489    1.0360   -1.5294 C   0  0  0  0  0  0  0  0  0  0  0  0
    3.7611    1.6579   -0.2848 N   0  0  0  0  0  0  0  0  0  0  0  0
    4.6619    2.5645    0.4489 C   0  0  0  0  0  0  0  0  0  0  0  0
    4.9979    2.0137    1.8140 C   0  0  0  0  0  0  0  0  0  0  0  0
    5.9644    1.0001    1.9551 C   0  0  0  0  0  0  0  0  0  0  0  0
    6.2469    0.4649    3.2151 C   0  0  0  0  0  0  0  0  0  0  0  0
    5.5893    0.9573    4.3491 C   0  0  0  0  0  0  0  0  0  0  0  0
    4.6518    1.9909    4.2219 C   0  0  0  0  0  0  0  0  0  0  0  0
    4.3525    2.5132    2.9610 C   0  0  0  0  0  0  0  0  0  0  0  0
    2.3959    1.4724    0.1697 C   0  0  0  0  0  0  0  0  0  0  0  0
    1.9589    2.1637    1.1288 O   0  0  0  0  0  0  0  0  0  0  0  0
    1.4430    0.4971   -0.4790 C   0  0  0  0  0  0  0  0  0  0  0  0
    0.5087    1.1999   -1.4791 C   0  0  0  0  0  0  0  0  0  0  0  0
   -0.8381    1.4698   -0.8637 C   0  0  0  0  0  0  0  0  0  0  0  0
   -1.0455    2.6103   -0.0732 C   0  0  0  0  0  0  0  0  0  0  0  0
   -2.2518    2.7852    0.6125 C   0  0  0  0  0  0  0  0  0  0  0  0
   -3.2687    1.8329    0.5009 C   0  0  0  0  0  0  0  0  0  0  0  0
   -3.1067    0.7266   -0.3581 C   0  0  0  0  0  0  0  0  0  0  0  0
   -1.8662    0.5236   -0.9870 C   0  0  0  0  0  0  0  0  0  0  0  0
   -4.1699   -0.3423   -0.3897 C   0  0  0  0  0  0  0  0  0  0  0  0
   -4.3433   -1.0422   -1.6862 N   0  0  0  0  0  0  0  0  0  0  0  0
   -4.5627   -0.1079   -2.8358 C   0  0  0  0  0  0  0  0  0  0  0  0
   -4.3864   -0.8326   -4.1779 C   0  0  0  0  0  0  0  0  0  0  0  0
   -5.9094    0.6501   -2.8004 C   0  0  0  0  0  0  0  0  0  0  0  0
   -5.4003   -2.0885   -1.5781 C   0  0  0  0  0  0  0  0  0  0  0  0
   -5.1932   -3.0332   -0.4085 C   0  0  0  0  0  0  0  0  0  0  0  0
   -4.3176   -3.9322   -0.5263 O   0  0  0  0  0  0  0  0  0  0  0  0
   -5.9262   -2.9406    0.8349 N   0  0  0  0  0  0  0  0  0  0  0  0
   -6.8147   -1.8447    1.2506 C   0  0  0  0  0  0  0  0  0  0  0  0
   -6.1529   -0.9851    2.3474 C   0  0  0  0  0  0  0  0  0  0  0  0
   -6.6877    0.4620    2.3460 C   0  0  0  0  0  0  0  0  0  0  0  0
   -5.8495    1.4320    3.1982 C   0  0  0  0  0  0  0  0  0  0  0  0
   -4.4228    1.6725    2.6727 C   0  0  0  0  0  0  0  0  0  0  0  0
   -4.4292    1.9571    1.2734 O   0  0  0  0  0  0  0  0  0  0  0  0
    4.6870   -1.0797   -0.1804 C   0  0  0  0  0  0  0  0  0  0  0  0
    6.8457   -3.8491    1.8796 H   0  0  0  0  0  0  0  0  0  0  0  0
    5.7528   -4.9450    0.9238 H   0  0  0  0  0  0  0  0  0  0  0  0
    5.3361   -4.4919    2.6168 H   0  0  0  0  0  0  0  0  0  0  0  0
    6.9963   -3.5365   -0.6369 H   0  0  0  0  0  0  0  0  0  0  0  0
    7.5299   -2.1718   -2.5656 H   0  0  0  0  0  0  0  0  0  0  0  0
    8.3078   -0.2440   -3.8068 H   0  0  0  0  0  0  0  0  0  0  0  0
    7.3288    0.6729   -5.0108 H   0  0  0  0  0  0  0  0  0  0  0  0
    7.0277   -1.0962   -4.7850 H   0  0  0  0  0  0  0  0  0  0  0  0
    3.4194    0.8358   -2.2379 H   0  0  0  0  0  0  0  0  0  0  0  0
    4.8950    1.7686   -2.0622 H   0  0  0  0  0  0  0  0  0  0  0  0
    5.6144    2.7208   -0.1119 H   0  0  0  0  0  0  0  0  0  0  0  0
    4.1889    3.5693    0.5328 H   0  0  0  0  0  0  0  0  0  0  0  0
    6.5089    0.6326    1.0947 H   0  0  0  0  0  0  0  0  0  0  0  0
    6.9806   -0.3255    3.3105 H   0  0  0  0  0  0  0  0  0  0  0  0
    5.8205    0.5485    5.3261 H   0  0  0  0  0  0  0  0  0  0  0  0
    4.1583    2.3912    5.1031 H   0  0  0  0  0  0  0  0  0  0  0  0
    3.6273    3.3160    2.8786 H   0  0  0  0  0  0  0  0  0  0  0  0
    1.9872   -0.3201   -0.9878 H   0  0  0  0  0  0  0  0  0  0  0  0
    0.8597   -0.0125    0.3165 H   0  0  0  0  0  0  0  0  0  0  0  0
    0.3832    0.5543   -2.3748 H   0  0  0  0  0  0  0  0  0  0  0  0
    0.9538    2.1503   -1.8464 H   0  0  0  0  0  0  0  0  0  0  0  0
   -0.2612    3.3454    0.0403 H   0  0  0  0  0  0  0  0  0  0  0  0
   -2.3891    3.6472    1.2542 H   0  0  0  0  0  0  0  0  0  0  0  0
   -1.6959   -0.3797   -1.5609 H   0  0  0  0  0  0  0  0  0  0  0  0
   -5.1418    0.0730   -0.0695 H   0  0  0  0  0  0  0  0  0  0  0  0
   -3.8321   -1.0738    0.3697 H   0  0  0  0  0  0  0  0  0  0  0  0
   -3.7697    0.6714   -2.8328 H   0  0  0  0  0  0  0  0  0  0  0  0
   -4.2859   -0.0882   -5.0007 H   0  0  0  0  0  0  0  0  0  0  0  0
   -5.2607   -1.4815   -4.3993 H   0  0  0  0  0  0  0  0  0  0  0  0
   -3.4635   -1.4537   -4.1590 H   0  0  0  0  0  0  0  0  0  0  0  0
   -6.7637   -0.0132   -3.0323 H   0  0  0  0  0  0  0  0  0  0  0  0
   -5.9066    1.4515   -3.5689 H   0  0  0  0  0  0  0  0  0  0  0  0
   -6.0838    1.1394   -1.8185 H   0  0  0  0  0  0  0  0  0  0  0  0
   -6.4111   -1.6507   -1.5475 H   0  0  0  0  0  0  0  0  0  0  0  0
   -5.3747   -2.7199   -2.4864 H   0  0  0  0  0  0  0  0  0  0  0  0
   -5.7303   -3.6737    1.5524 H   0  0  0  0  0  0  0  0  0  0  0  0
   -7.1213   -1.2194    0.3936 H   0  0  0  0  0  0  0  0  0  0  0  0
   -7.7499   -2.2838    1.6608 H   0  0  0  0  0  0  0  0  0  0  0  0
   -5.0600   -0.9848    2.2074 H   0  0  0  0  0  0  0  0  0  0  0  0
   -6.3406   -1.4481    3.3405 H   0  0  0  0  0  0  0  0  0  0  0  0
   -7.7193    0.4455    2.7551 H   0  0  0  0  0  0  0  0  0  0  0  0
   -6.7661    0.8667    1.3149 H   0  0  0  0  0  0  0  0  0  0  0  0
   -5.7989    1.0553    4.2433 H   0  0  0  0  0  0  0  0  0  0  0  0
   -6.3737    2.4104    3.2267 H   0  0  0  0  0  0  0  0  0  0  0  0
   -3.7923    0.7795    2.8756 H   0  0  0  0  0  0  0  0  0  0  0  0
   -3.9714    2.5273    3.2198 H   0  0  0  0  0  0  0  0  0  0  0  0
    3.8998   -0.8051    0.5064 H   0  0  0  0  0  0  0  0  0  0  0  0
  1  2  1  0
  2  3  1  0
  3  4  2  0
  4  5  1  0
  5  6  2  0
  6  7  1  0
  7  8  1  0
  6  9  1  0
  9 10  1  0
 10 11  1  0
 11 12  1  0
 12 13  1  0
 13 14  2  0
 14 15  1  0
 15 16  2  0
 16 17  1  0
 17 18  2  0
 11 19  1  0
 19 20  2  0
 19 21  1  0
 21 22  1  0
 22 23  1  0
 23 24  2  0
 24 25  1  0
 25 26  2  0
 26 27  1  0
 27 28  2  0
 27 29  1  0
 29 30  1  0
 30 31  1  0
 31 32  1  0
 31 33  1  0
 30 34  1  0
 34 35  1  0
 35 36  2  0
 35 37  1  0
 37 38  1  0
 38 39  1  0
 39 40  1  0
 40 41  1  0
 41 42  1  0
 42 43  1  0
  9 44  2  0
 44  3  1  0
 18 13  1  0
 28 23  1  0
 43 26  1  0
  1 45  1  0
  1 46  1  0
  1 47  1  0
  4 48  1  0
  5 49  1  0
  8 50  1  0
  8 51  1  0
  8 52  1  0
 10 53  1  0
 10 54  1  0
 12 55  1  0
 12 56  1  0
 14 57  1  0
 15 58  1  0
 16 59  1  0
 17 60  1  0
 18 61  1  0
 21 62  1  0
 21 63  1  0
 22 64  1  0
 22 65  1  0
 24 66  1  0
 25 67  1  0
 28 68  1  0
 29 69  1  0
 29 70  1  0
 31 71  1  0
 32 72  1  0
 32 73  1  0
 32 74  1  0
 33 75  1  0
 33 76  1  0
 33 77  1  0
 34 78  1  0
 34 79  1  0
 37 80  1  0
 38 81  1  0
 38 82  1  0
 39 83  1  0
 39 84  1  0
 40 85  1  0
 40 86  1  0
 41 87  1  0
 41 88  1  0
 42 89  1  0
 42 90  1  0
 44 91  1  0
M  END
$$$$
