
     RDKit          3D

 74 76  0  0  0  0  0  0  0  0999 V2000
    4.3749   -3.5736    0.3602 C   0  0  0  0  0  0  0  0  0  0  0  0
    4.5369   -2.1738    0.3707 O   0  0  0  0  0  0  0  0  0  0  0  0
    4.8426   -1.7259   -0.9345 C   0  0  0  0  0  0  0  0  0  0  0  0
    4.9013   -0.1890   -0.9629 C   0  0  0  0  0  0  0  0  0  0  0  0
    6.0175    0.3667   -0.0731 C   0  0  0  0  0  0  0  0  0  0  0  0
    5.3319    0.8628    1.1973 C   0  0  0  0  0  0  0  0  0  0  0  0
    3.8685    1.0748    0.8301 C   0  0  0  0  0  0  0  0  0  0  0  0
    3.6687    0.3768   -0.4305 N   0  0  0  0  0  0  0  0  0  0  0  0
    2.4084    0.3108   -1.1247 C   0  0  0  0  0  0  0  0  0  0  0  0
    2.3841   -0.0574   -2.3314 O   0  0  0  0  0  0  0  0  0  0  0  0
    1.1049    0.5885   -0.4108 C   0  0  0  0  0  0  0  0  0  0  0  0
    0.6228   -0.6733    0.3410 C   0  0  0  0  0  0  0  0  0  0  0  0
    0.0532   -1.7307   -0.5755 C   0  0  0  0  0  0  0  0  0  0  0  0
    0.8428   -2.5573   -1.1060 O   0  0  0  0  0  0  0  0  0  0  0  0
   -1.3413   -1.7729   -0.9321 N   0  0  0  0  0  0  0  0  0  0  0  0
   -2.4009   -1.0945   -0.1704 C   0  0  0  0  0  0  0  0  0  0  0  0
   -2.7309   -1.8588    1.1368 C   0  0  0  0  0  0  0  0  0  0  0  0
   -3.5791   -3.1498    0.9916 C   0  0  0  0  0  0  0  0  0  0  0  0
   -3.9990   -3.6481    2.3818 C   0  0  0  0  0  0  0  0  0  0  0  0
   -2.8288   -4.2667    0.2514 C   0  0  0  0  0  0  0  0  0  0  0  0
   -3.6307   -0.8302   -1.0226 C   0  0  0  0  0  0  0  0  0  0  0  0
   -3.9892   -1.7081   -1.8564 O   0  0  0  0  0  0  0  0  0  0  0  0
   -4.4268    0.3745   -0.8805 N   0  0  0  0  0  0  0  0  0  0  0  0
   -5.6002    0.5460   -1.7436 C   0  0  0  0  0  0  0  0  0  0  0  0
   -4.0897    1.4320    0.0888 C   0  0  0  0  0  0  0  0  0  0  0  0
   -2.9530    2.3224   -0.4368 C   0  0  0  0  0  0  0  0  0  0  0  0
   -1.9665    2.4969    0.5820 O   0  0  0  0  0  0  0  0  0  0  0  0
   -0.9214    3.4281    0.5026 C   0  0  0  0  0  0  0  0  0  0  0  0
   -0.7712    4.3331    1.5613 C   0  0  0  0  0  0  0  0  0  0  0  0
    0.2120    5.3241    1.5156 C   0  0  0  0  0  0  0  0  0  0  0  0
    1.0630    5.4142    0.4134 C   0  0  0  0  0  0  0  0  0  0  0  0
    0.9474    4.4996   -0.6356 C   0  0  0  0  0  0  0  0  0  0  0  0
   -0.0254    3.4879   -0.5929 C   0  0  0  0  0  0  0  0  0  0  0  0
   -0.0349    2.4767   -1.6617 C   0  0  0  0  0  0  0  0  0  0  0  0
   -0.1779    2.8456   -2.8577 O   0  0  0  0  0  0  0  0  0  0  0  0
    0.1003    1.0801   -1.3653 N   0  0  0  0  0  0  0  0  0  0  0  0
    5.2983   -4.0856    0.0091 H   0  0  0  0  0  0  0  0  0  0  0  0
    3.5037   -3.8711   -0.2646 H   0  0  0  0  0  0  0  0  0  0  0  0
    4.1750   -3.9137    1.3971 H   0  0  0  0  0  0  0  0  0  0  0  0
    5.8268   -2.1281   -1.2665 H   0  0  0  0  0  0  0  0  0  0  0  0
    4.0655   -2.0578   -1.6607 H   0  0  0  0  0  0  0  0  0  0  0  0
    5.0582    0.1553   -2.0095 H   0  0  0  0  0  0  0  0  0  0  0  0
    6.4987    1.2292   -0.5852 H   0  0  0  0  0  0  0  0  0  0  0  0
    6.8032   -0.3852    0.1603 H   0  0  0  0  0  0  0  0  0  0  0  0
    5.7971    1.8029    1.5663 H   0  0  0  0  0  0  0  0  0  0  0  0
    5.4095    0.0842    1.9881 H   0  0  0  0  0  0  0  0  0  0  0  0
    3.2099    0.6523    1.6194 H   0  0  0  0  0  0  0  0  0  0  0  0
    3.6555    2.1581    0.6949 H   0  0  0  0  0  0  0  0  0  0  0  0
    1.2794    1.3708    0.3567 H   0  0  0  0  0  0  0  0  0  0  0  0
   -0.1040   -0.3843    1.1249 H   0  0  0  0  0  0  0  0  0  0  0  0
    1.4774   -1.1149    0.8997 H   0  0  0  0  0  0  0  0  0  0  0  0
   -1.5902   -2.3314   -1.7792 H   0  0  0  0  0  0  0  0  0  0  0  0
   -2.0046   -0.1095    0.1198 H   0  0  0  0  0  0  0  0  0  0  0  0
   -3.2812   -1.1584    1.8011 H   0  0  0  0  0  0  0  0  0  0  0  0
   -1.7840   -2.1017    1.6667 H   0  0  0  0  0  0  0  0  0  0  0  0
   -4.5135   -2.9218    0.4355 H   0  0  0  0  0  0  0  0  0  0  0  0
   -4.6487   -4.5450    2.2912 H   0  0  0  0  0  0  0  0  0  0  0  0
   -4.5790   -2.8638    2.9134 H   0  0  0  0  0  0  0  0  0  0  0  0
   -3.1067   -3.9100    2.9905 H   0  0  0  0  0  0  0  0  0  0  0  0
   -3.3804   -5.2273    0.3363 H   0  0  0  0  0  0  0  0  0  0  0  0
   -2.7566   -4.0378   -0.8289 H   0  0  0  0  0  0  0  0  0  0  0  0
   -1.8098   -4.4049    0.6719 H   0  0  0  0  0  0  0  0  0  0  0  0
   -6.3408   -0.2543   -1.5324 H   0  0  0  0  0  0  0  0  0  0  0  0
   -6.0893    1.5300   -1.5827 H   0  0  0  0  0  0  0  0  0  0  0  0
   -5.2930    0.4892   -2.8093 H   0  0  0  0  0  0  0  0  0  0  0  0
   -3.8279    0.9792    1.0671 H   0  0  0  0  0  0  0  0  0  0  0  0
   -4.9766    2.0687    0.2997 H   0  0  0  0  0  0  0  0  0  0  0  0
   -3.3646    3.3129   -0.7297 H   0  0  0  0  0  0  0  0  0  0  0  0
   -2.5020    1.8640   -1.3383 H   0  0  0  0  0  0  0  0  0  0  0  0
   -1.4388    4.2833    2.4124 H   0  0  0  0  0  0  0  0  0  0  0  0
    0.3085    6.0287    2.3318 H   0  0  0  0  0  0  0  0  0  0  0  0
    1.8227    6.1846    0.3784 H   0  0  0  0  0  0  0  0  0  0  0  0
    1.6373    4.5614   -1.4685 H   0  0  0  0  0  0  0  0  0  0  0  0
   -0.2494    0.4202   -2.0962 H   0  0  0  0  0  0  0  0  0  0  0  0
  1  2  1  0
  2  3  1  0
  3  4  1  0
  4  5  1  0
  5  6  1  0
  6  7  1  0
  7  8  1  0
  8  9  1  0
  9 10  2  0
  9 11  1  0
 11 12  1  0
 12 13  1  0
 13 14  2  0
 13 15  1  0
 15 16  1  0
 16 17  1  0
 17 18  1  0
 18 19  1  0
 18 20  1  0
 16 21  1  0
 21 22  2  0
 21 23  1  0
 23 24  1  0
 23 25  1  0
 25 26  1  0
 26 27  1  0
 27 28  1  0
 28 29  2  0
 29 30  1  0
 30 31  2  0
 31 32  1  0
 32 33  2  0
 33 34  1  0
 34 35  2  0
 34 36  1  0
  8  4  1  0
 36 11  1  0
 33 28  1  0
  1 37  1  0
  1 38  1  0
  1 39  1  0
  3 40  1  0
  3 41  1  0
  4 42  1  0
  5 43  1  0
  5 44  1  0
  6 45  1  0
  6 46  1  0
  7 47  1  0
  7 48  1  0
 11 49  1  0
 12 50  1  0
 12 51  1  0
 15 52  1  0
 16 53  1  0
 17 54  1  0
 17 55  1  0
 18 56  1  0
 19 57  1  0
 19 58  1  0
 19 59  1  0
 20 60  1  0
 20 61  1  0
 20 62  1  0
 24 63  1  0
 24 64  1  0
 24 65  1  0
 25 66  1  0
 25 67  1  0
 26 68  1  0
 26 69  1  0
 29 70  1  0
 30 71  1  0
 31 72  1  0
 32 73  1  0
 36 74  1  0
M  END
$$$$
