
     RDKit          3D

 76 78  0  0  0  0  0  0  0  0999 V2000
   -6.0753    2.2486    0.9713 C   0  0  0  0  0  0  0  0  0  0  0  0
   -5.0472    1.3619    1.3567 O   0  0  0  0  0  0  0  0  0  0  0  0
   -4.8054    0.4023    0.3390 C   0  0  0  0  0  0  0  0  0  0  0  0
   -3.7224    0.9159   -0.6554 C   0  0  0  0  0  0  0  0  0  0  0  0
   -2.9244    2.0363   -0.1100 N   0  0  0  0  0  0  0  0  0  0  0  0
   -3.1239    3.3831   -0.5960 C   0  0  0  0  0  0  0  0  0  0  0  0
   -3.5060    3.6554   -2.0193 C   0  0  0  0  0  0  0  0  0  0  0  0
   -2.9981    4.3608    0.1903 O   0  0  0  0  0  0  0  0  0  0  0  0
   -1.9857    1.8122    1.0069 C   0  0  0  0  0  0  0  0  0  0  0  0
   -0.8343    0.8698    0.6292 C   0  0  0  0  0  0  0  0  0  0  0  0
   -0.0776    1.3364   -0.6298 C   0  0  0  0  0  0  0  0  0  0  0  0
    1.1632    0.5644   -0.9090 N   0  0  0  0  0  0  0  0  0  0  0  0
    2.2822    0.9726   -0.0291 C   0  0  0  0  0  0  0  0  0  0  0  0
    3.5579    0.9916   -0.8180 C   0  0  0  0  0  0  0  0  0  0  0  0
    3.6137    1.6580   -1.8871 O   0  0  0  0  0  0  0  0  0  0  0  0
    4.7061    0.2362   -0.3953 N   0  0  0  0  0  0  0  0  0  0  0  0
    5.1088   -0.8899   -1.2483 C   0  0  0  0  0  0  0  0  0  0  0  0
    6.5443   -1.3292   -0.9574 C   0  0  0  0  0  0  0  0  0  0  0  0
    6.7051   -1.6442    0.5295 C   0  0  0  0  0  0  0  0  0  0  0  0
    6.3085   -0.4595    1.3667 C   0  0  0  0  0  0  0  0  0  0  0  0
    6.9026   -0.2684    2.6240 C   0  0  0  0  0  0  0  0  0  0  0  0
    6.5515    0.8297    3.4086 C   0  0  0  0  0  0  0  0  0  0  0  0
    5.6055    1.7448    2.9468 C   0  0  0  0  0  0  0  0  0  0  0  0
    4.9992    1.5620    1.7011 C   0  0  0  0  0  0  0  0  0  0  0  0
    5.3177    0.4404    0.9070 C   0  0  0  0  0  0  0  0  0  0  0  0
    0.9915   -0.9097   -0.8963 C   0  0  0  0  0  0  0  0  0  0  0  0
    0.0538   -1.3969   -2.0145 C   0  0  0  0  0  0  0  0  0  0  0  0
   -0.2367   -2.9039   -1.9252 C   0  0  0  0  0  0  0  0  0  0  0  0
   -1.1115   -3.2989   -0.7257 C   0  0  0  0  0  0  0  0  0  0  0  0
   -2.2617   -2.4794   -0.6789 O   0  0  0  0  0  0  0  0  0  0  0  0
   -3.2860   -3.0964    0.0746 C   0  0  0  0  0  0  0  0  0  0  0  0
   -4.5394   -2.2072    0.0680 C   0  0  0  0  0  0  0  0  0  0  0  0
   -4.8340   -1.8640   -1.2655 O   0  0  0  0  0  0  0  0  0  0  0  0
   -4.3825   -0.9467    0.9926 C   0  0  0  0  0  0  0  0  0  0  0  0
   -5.1005   -1.1531    2.1863 O   0  0  0  0  0  0  0  0  0  0  0  0
   -6.1063    3.0947    1.6876 H   0  0  0  0  0  0  0  0  0  0  0  0
   -5.9001    2.6728   -0.0423 H   0  0  0  0  0  0  0  0  0  0  0  0
   -7.0614    1.7343    1.0058 H   0  0  0  0  0  0  0  0  0  0  0  0
   -5.7406    0.1921   -0.2306 H   0  0  0  0  0  0  0  0  0  0  0  0
   -4.2416    1.2195   -1.5858 H   0  0  0  0  0  0  0  0  0  0  0  0
   -3.0454    0.0992   -0.9776 H   0  0  0  0  0  0  0  0  0  0  0  0
   -4.5969    3.4991   -2.1487 H   0  0  0  0  0  0  0  0  0  0  0  0
   -3.2616    4.7055   -2.2947 H   0  0  0  0  0  0  0  0  0  0  0  0
   -2.9410    2.9798   -2.6987 H   0  0  0  0  0  0  0  0  0  0  0  0
   -1.5416    2.7721    1.3532 H   0  0  0  0  0  0  0  0  0  0  0  0
   -2.5287    1.3882    1.8773 H   0  0  0  0  0  0  0  0  0  0  0  0
   -1.2492   -0.1439    0.4732 H   0  0  0  0  0  0  0  0  0  0  0  0
   -0.1285    0.8213    1.4871 H   0  0  0  0  0  0  0  0  0  0  0  0
    0.1619    2.4170   -0.5376 H   0  0  0  0  0  0  0  0  0  0  0  0
   -0.7484    1.2853   -1.5108 H   0  0  0  0  0  0  0  0  0  0  0  0
    2.3802    0.2914    0.8468 H   0  0  0  0  0  0  0  0  0  0  0  0
    2.1327    1.9961    0.3785 H   0  0  0  0  0  0  0  0  0  0  0  0
    5.0341   -0.6074   -2.3217 H   0  0  0  0  0  0  0  0  0  0  0  0
    4.4226   -1.7452   -1.0732 H   0  0  0  0  0  0  0  0  0  0  0  0
    6.7872   -2.2295   -1.5599 H   0  0  0  0  0  0  0  0  0  0  0  0
    7.2507   -0.5184   -1.2457 H   0  0  0  0  0  0  0  0  0  0  0  0
    6.0732   -2.5145    0.8057 H   0  0  0  0  0  0  0  0  0  0  0  0
    7.7650   -1.9150    0.7204 H   0  0  0  0  0  0  0  0  0  0  0  0
    7.6460   -0.9670    2.9923 H   0  0  0  0  0  0  0  0  0  0  0  0
    7.0199    0.9767    4.3723 H   0  0  0  0  0  0  0  0  0  0  0  0
    5.3464    2.6019    3.5536 H   0  0  0  0  0  0  0  0  0  0  0  0
    4.2965    2.3089    1.3590 H   0  0  0  0  0  0  0  0  0  0  0  0
    0.6504   -1.2535    0.1011 H   0  0  0  0  0  0  0  0  0  0  0  0
    1.9790   -1.3940   -1.0645 H   0  0  0  0  0  0  0  0  0  0  0  0
   -0.9126   -0.8533   -2.0099 H   0  0  0  0  0  0  0  0  0  0  0  0
    0.5456   -1.1885   -2.9907 H   0  0  0  0  0  0  0  0  0  0  0  0
    0.7191   -3.4716   -1.8864 H   0  0  0  0  0  0  0  0  0  0  0  0
   -0.7634   -3.2072   -2.8560 H   0  0  0  0  0  0  0  0  0  0  0  0
   -1.3617   -4.3790   -0.8410 H   0  0  0  0  0  0  0  0  0  0  0  0
   -0.5358   -3.1864    0.2175 H   0  0  0  0  0  0  0  0  0  0  0  0
   -2.9566   -3.2796    1.1268 H   0  0  0  0  0  0  0  0  0  0  0  0
   -3.5716   -4.0704   -0.3878 H   0  0  0  0  0  0  0  0  0  0  0  0
   -5.3663   -2.8424    0.4714 H   0  0  0  0  0  0  0  0  0  0  0  0
   -5.8238   -1.8243   -1.3534 H   0  0  0  0  0  0  0  0  0  0  0  0
   -3.3184   -0.8496    1.2903 H   0  0  0  0  0  0  0  0  0  0  0  0
   -6.0674   -1.1498    1.9594 H   0  0  0  0  0  0  0  0  0  0  0  0
  1  2  1  0
  2  3  1  0
  3  4  1  0
  4  5  1  0
  5  6  1  0
  6  7  1  0
  6  8  2  0
  5  9  1  0
  9 10  1  0
 10 11  1  0
 11 12  1  0
 12 13  1  0
 13 14  1  0
 14 15  2  0
 14 16  1  0
 16 17  1  0
 17 18  1  0
 18 19  1  0
 19 20  1  0
 20 21  2  0
 21 22  1  0
 22 23  2  0
 23 24  1  0
 24 25  2  0
 12 26  1  0
 26 27  1  0
 27 28  1  0
 28 29  1  0
 29 30  1  0
 30 31  1  0
 31 32  1  0
 32 33  1  0
 32 34  1  0
 34 35  1  0
 34  3  1  0
 25 16  1  0
 25 20  1  0
  1 36  1  0
  1 37  1  0
  1 38  1  0
  3 39  1  0
  4 40  1  0
  4 41  1  0
  7 42  1  0
  7 43  1  0
  7 44  1  0
  9 45  1  0
  9 46  1  0
 10 47  1  0
 10 48  1  0
 11 49  1  0
 11 50  1  0
 13 51  1  0
 13 52  1  0
 17 53  1  0
 17 54  1  0
 18 55  1  0
 18 56  1  0
 19 57  1  0
 19 58  1  0
 21 59  1  0
 22 60  1  0
 23 61  1  0
 24 62  1  0
 26 63  1  0
 26 64  1  0
 27 65  1  0
 27 66  1  0
 28 67  1  0
 28 68  1  0
 29 69  1  0
 29 70  1  0
 31 71  1  0
 31 72  1  0
 32 73  1  0
 33 74  1  0
 34 75  1  0
 35 76  1  0
M  END
$$$$
