
     RDKit          3D

 70 73  0  0  0  0  0  0  0  0999 V2000
   -3.9365   -4.6260    1.1024 C   0  0  0  0  0  0  0  0  0  0  0  0
   -2.9626   -3.7050    0.6660 O   0  0  0  0  0  0  0  0  0  0  0  0
   -3.5994   -2.5386    0.1813 C   0  0  0  0  0  0  0  0  0  0  0  0
   -2.5359   -1.5230   -0.3323 C   0  0  0  0  0  0  0  0  0  0  0  0
   -1.7556   -2.1813   -1.5444 C   0  0  0  0  0  0  0  0  0  0  0  0
   -0.3346   -2.7594   -1.3023 C   0  0  0  0  0  0  0  0  0  0  0  0
    0.8437   -1.7601   -1.1385 C   0  0  0  0  0  0  0  0  0  0  0  0
    0.7431   -0.4720   -1.9820 C   0  0  0  0  0  0  0  0  0  0  0  0
    1.7469    0.5171   -1.5605 N   0  0  0  0  0  0  0  0  0  0  0  0
    3.1516    0.2302   -1.7350 C   0  0  0  0  0  0  0  0  0  0  0  0
    3.5145   -0.5852   -2.6266 O   0  0  0  0  0  0  0  0  0  0  0  0
    4.2072    0.8897   -0.8882 C   0  0  0  0  0  0  0  0  0  0  0  0
    5.0962   -0.1462   -0.2545 C   0  0  0  0  0  0  0  0  0  0  0  0
    6.3667   -0.4207   -0.7882 C   0  0  0  0  0  0  0  0  0  0  0  0
    7.1797   -1.3957   -0.2012 C   0  0  0  0  0  0  0  0  0  0  0  0
    6.7277   -2.1071    0.9156 C   0  0  0  0  0  0  0  0  0  0  0  0
    7.7505   -3.3254    1.6532 Cl  0  0  0  0  0  0  0  0  0  0  0  0
    5.4584   -1.8482    1.4423 C   0  0  0  0  0  0  0  0  0  0  0  0
    4.6428   -0.8748    0.8584 C   0  0  0  0  0  0  0  0  0  0  0  0
    1.2954    1.8357   -1.0798 C   0  0  0  0  0  0  0  0  0  0  0  0
    1.0390    1.8255    0.4390 C   0  0  0  0  0  0  0  0  0  0  0  0
   -0.3470    2.0093    0.7449 O   0  0  0  0  0  0  0  0  0  0  0  0
   -1.0254    3.2403    0.7528 C   0  0  0  0  0  0  0  0  0  0  0  0
   -0.4440    4.4054    0.2137 C   0  0  0  0  0  0  0  0  0  0  0  0
   -1.1175    5.6271    0.2740 C   0  0  0  0  0  0  0  0  0  0  0  0
   -2.3708    5.7072    0.8793 C   0  0  0  0  0  0  0  0  0  0  0  0
   -2.9608    4.5641    1.4190 C   0  0  0  0  0  0  0  0  0  0  0  0
   -2.3070    3.3224    1.3477 C   0  0  0  0  0  0  0  0  0  0  0  0
   -2.9510    2.1408    1.9621 C   0  0  0  0  0  0  0  0  0  0  0  0
   -3.5309    2.2507    3.0768 O   0  0  0  0  0  0  0  0  0  0  0  0
   -2.9456    0.8738    1.2951 N   0  0  0  0  0  0  0  0  0  0  0  0
   -3.8989    0.6264    0.2132 C   0  0  0  0  0  0  0  0  0  0  0  0
   -3.2546   -0.2442   -0.8744 C   0  0  0  0  0  0  0  0  0  0  0  0
   -2.2937   -0.2731    1.9210 C   0  0  0  0  0  0  0  0  0  0  0  0
   -1.5968   -1.1030    0.8396 C   0  0  0  0  0  0  0  0  0  0  0  0
   -4.5939   -4.9449    0.2619 H   0  0  0  0  0  0  0  0  0  0  0  0
   -4.5452   -4.2093    1.9383 H   0  0  0  0  0  0  0  0  0  0  0  0
   -3.4179   -5.5287    1.4868 H   0  0  0  0  0  0  0  0  0  0  0  0
   -4.2883   -2.7922   -0.6581 H   0  0  0  0  0  0  0  0  0  0  0  0
   -4.2187   -2.0806    0.9817 H   0  0  0  0  0  0  0  0  0  0  0  0
   -1.7222   -1.5128   -2.4287 H   0  0  0  0  0  0  0  0  0  0  0  0
   -2.3605   -3.0270   -1.9404 H   0  0  0  0  0  0  0  0  0  0  0  0
   -0.0953   -3.3954   -2.1831 H   0  0  0  0  0  0  0  0  0  0  0  0
   -0.3569   -3.4481   -0.4309 H   0  0  0  0  0  0  0  0  0  0  0  0
    0.9908   -1.5117   -0.0683 H   0  0  0  0  0  0  0  0  0  0  0  0
    1.7763   -2.2907   -1.4283 H   0  0  0  0  0  0  0  0  0  0  0  0
   -0.2591   -0.0230   -1.8690 H   0  0  0  0  0  0  0  0  0  0  0  0
    0.8786   -0.7135   -3.0585 H   0  0  0  0  0  0  0  0  0  0  0  0
    4.7979    1.5848   -1.5271 H   0  0  0  0  0  0  0  0  0  0  0  0
    3.7546    1.4990   -0.0776 H   0  0  0  0  0  0  0  0  0  0  0  0
    6.7263    0.1200   -1.6548 H   0  0  0  0  0  0  0  0  0  0  0  0
    8.1599   -1.5990   -0.6136 H   0  0  0  0  0  0  0  0  0  0  0  0
    5.1034   -2.3989    2.3036 H   0  0  0  0  0  0  0  0  0  0  0  0
    3.6590   -0.6872    1.2722 H   0  0  0  0  0  0  0  0  0  0  0  0
    0.3763    2.1443   -1.6252 H   0  0  0  0  0  0  0  0  0  0  0  0
    2.0533    2.6103   -1.3279 H   0  0  0  0  0  0  0  0  0  0  0  0
    1.3643    0.8570    0.8741 H   0  0  0  0  0  0  0  0  0  0  0  0
    1.6419    2.6124    0.9423 H   0  0  0  0  0  0  0  0  0  0  0  0
    0.5307    4.3813   -0.2517 H   0  0  0  0  0  0  0  0  0  0  0  0
   -0.6629    6.5163   -0.1433 H   0  0  0  0  0  0  0  0  0  0  0  0
   -2.8863    6.6577    0.9318 H   0  0  0  0  0  0  0  0  0  0  0  0
   -3.9362    4.6462    1.8844 H   0  0  0  0  0  0  0  0  0  0  0  0
   -4.2205    1.5878   -0.2459 H   0  0  0  0  0  0  0  0  0  0  0  0
   -4.8055    0.1317    0.6215 H   0  0  0  0  0  0  0  0  0  0  0  0
   -2.5163    0.4012   -1.3989 H   0  0  0  0  0  0  0  0  0  0  0  0
   -4.0301   -0.5252   -1.6213 H   0  0  0  0  0  0  0  0  0  0  0  0
   -3.0377   -0.8769    2.4807 H   0  0  0  0  0  0  0  0  0  0  0  0
   -1.5271    0.0726    2.6504 H   0  0  0  0  0  0  0  0  0  0  0  0
   -0.8084   -0.4471    0.4377 H   0  0  0  0  0  0  0  0  0  0  0  0
   -1.1189   -1.9870    1.3144 H   0  0  0  0  0  0  0  0  0  0  0  0
  1  2  1  0
  2  3  1  0
  3  4  1  0
  4  5  1  0
  5  6  1  0
  6  7  1  0
  7  8  1  0
  8  9  1  0
  9 10  1  0
 10 11  2  0
 10 12  1  0
 12 13  1  0
 13 14  2  0
 14 15  1  0
 15 16  2  0
 16 17  1  0
 16 18  1  0
 18 19  2  0
  9 20  1  0
 20 21  1  0
 21 22  1  0
 22 23  1  0
 23 24  2  0
 24 25  1  0
 25 26  2  0
 26 27  1  0
 27 28  2  0
 28 29  1  0
 29 30  2  0
 29 31  1  0
 31 32  1  0
 32 33  1  0
 31 34  1  0
 34 35  1  0
 33  4  1  0
 35  4  1  0
 19 13  1  0
 28 23  1  0
  1 36  1  0
  1 37  1  0
  1 38  1  0
  3 39  1  0
  3 40  1  0
  5 41  1  0
  5 42  1  0
  6 43  1  0
  6 44  1  0
  7 45  1  0
  7 46  1  0
  8 47  1  0
  8 48  1  0
 12 49  1  0
 12 50  1  0
 14 51  1  0
 15 52  1  0
 18 53  1  0
 19 54  1  0
 20 55  1  0
 20 56  1  0
 21 57  1  0
 21 58  1  0
 24 59  1  0
 25 60  1  0
 26 61  1  0
 27 62  1  0
 32 63  1  0
 32 64  1  0
 33 65  1  0
 33 66  1  0
 34 67  1  0
 34 68  1  0
 35 69  1  0
 35 70  1  0
M  END
$$$$
