
     RDKit          3D

 63 65  0  0  0  0  0  0  0  0999 V2000
    0.2093    3.7650   -0.2022 O   0  0  0  0  0  0  0  0  0  0  0  0
   -0.8578    3.2017   -0.5659 C   0  0  0  0  0  0  0  0  0  0  0  0
   -0.8007    2.2494   -1.7338 C   0  0  0  0  0  0  0  0  0  0  0  0
   -0.7178    0.7843   -1.2594 C   0  0  0  0  0  0  0  0  0  0  0  0
    0.6678    0.4810   -0.7497 C   0  0  0  0  0  0  0  0  0  0  0  0
    1.5928    0.2251   -1.5686 O   0  0  0  0  0  0  0  0  0  0  0  0
    0.9430    0.5387    0.6574 N   0  0  0  0  0  0  0  0  0  0  0  0
    2.2757    0.2999    1.2052 C   0  0  0  0  0  0  0  0  0  0  0  0
    2.5861   -1.1976    1.2188 C   0  0  0  0  0  0  0  0  0  0  0  0
    3.8888   -1.4373    1.7502 O   0  0  0  0  0  0  0  0  0  0  0  0
    5.0984   -1.2267    1.0679 C   0  0  0  0  0  0  0  0  0  0  0  0
    6.2951   -1.4239    1.7694 C   0  0  0  0  0  0  0  0  0  0  0  0
    7.5283   -1.2301    1.1398 C   0  0  0  0  0  0  0  0  0  0  0  0
    7.5758   -0.8385   -0.2005 C   0  0  0  0  0  0  0  0  0  0  0  0
    8.7719   -0.6507   -0.8105 F   0  0  0  0  0  0  0  0  0  0  0  0
    6.3894   -0.6421   -0.9121 C   0  0  0  0  0  0  0  0  0  0  0  0
    5.1541   -0.8354   -0.2857 C   0  0  0  0  0  0  0  0  0  0  0  0
   -1.0838   -0.1333   -2.3484 N   0  0  0  0  0  0  0  0  0  0  0  0
   -1.1330   -1.5683   -2.2396 C   0  0  0  0  0  0  0  0  0  0  0  0
   -1.3498   -2.2460   -3.2797 O   0  0  0  0  0  0  0  0  0  0  0  0
   -0.8783   -2.2918   -0.9743 C   0  0  0  0  0  0  0  0  0  0  0  0
    0.1701   -3.2269   -0.9443 C   0  0  0  0  0  0  0  0  0  0  0  0
    0.4718   -3.9187    0.2309 C   0  0  0  0  0  0  0  0  0  0  0  0
   -0.2684   -3.6836    1.3896 C   0  0  0  0  0  0  0  0  0  0  0  0
   -1.3235   -2.7699    1.3706 C   0  0  0  0  0  0  0  0  0  0  0  0
   -1.6568   -2.0933    0.1910 C   0  0  0  0  0  0  0  0  0  0  0  0
   -2.7430   -1.2163    0.2205 O   0  0  0  0  0  0  0  0  0  0  0  0
   -3.9144   -1.3774   -0.5739 C   0  0  0  0  0  0  0  0  0  0  0  0
   -4.5212   -0.0081   -0.8723 C   0  0  0  0  0  0  0  0  0  0  0  0
   -4.6820    0.7598    0.3638 N   0  0  0  0  0  0  0  0  0  0  0  0
   -3.7705    1.7898    0.7776 C   0  0  0  0  0  0  0  0  0  0  0  0
   -3.3801    1.8094    1.9762 O   0  0  0  0  0  0  0  0  0  0  0  0
   -3.4006    2.9339   -0.1399 C   0  0  0  0  0  0  0  0  0  0  0  0
   -4.4380    4.0595   -0.0271 C   0  0  0  0  0  0  0  0  0  0  0  0
   -4.5026    4.5478    1.2856 O   0  0  0  0  0  0  0  0  0  0  0  0
   -2.0616    3.4492    0.1863 N   0  0  0  0  0  0  0  0  0  0  0  0
   -1.6773    2.4050   -2.3927 H   0  0  0  0  0  0  0  0  0  0  0  0
    0.0840    2.4889   -2.3651 H   0  0  0  0  0  0  0  0  0  0  0  0
   -1.4426    0.6594   -0.4365 H   0  0  0  0  0  0  0  0  0  0  0  0
    0.1818    0.8273    1.3127 H   0  0  0  0  0  0  0  0  0  0  0  0
    3.0307    0.8592    0.6135 H   0  0  0  0  0  0  0  0  0  0  0  0
    2.3158    0.6814    2.2485 H   0  0  0  0  0  0  0  0  0  0  0  0
    2.4891   -1.6455    0.2078 H   0  0  0  0  0  0  0  0  0  0  0  0
    1.8472   -1.7013    1.8766 H   0  0  0  0  0  0  0  0  0  0  0  0
    6.2682   -1.7272    2.8084 H   0  0  0  0  0  0  0  0  0  0  0  0
    8.4463   -1.3839    1.6922 H   0  0  0  0  0  0  0  0  0  0  0  0
    6.4258   -0.3407   -1.9512 H   0  0  0  0  0  0  0  0  0  0  0  0
    4.2555   -0.6793   -0.8645 H   0  0  0  0  0  0  0  0  0  0  0  0
   -1.2883    0.2669   -3.2927 H   0  0  0  0  0  0  0  0  0  0  0  0
    0.7697   -3.4061   -1.8286 H   0  0  0  0  0  0  0  0  0  0  0  0
    1.2896   -4.6274    0.2464 H   0  0  0  0  0  0  0  0  0  0  0  0
   -0.0253   -4.2109    2.3030 H   0  0  0  0  0  0  0  0  0  0  0  0
   -1.8996   -2.6005    2.2715 H   0  0  0  0  0  0  0  0  0  0  0  0
   -3.6887   -1.8918   -1.5313 H   0  0  0  0  0  0  0  0  0  0  0  0
   -4.6452   -1.9992   -0.0143 H   0  0  0  0  0  0  0  0  0  0  0  0
   -3.8711    0.5174   -1.5985 H   0  0  0  0  0  0  0  0  0  0  0  0
   -5.5161   -0.1457   -1.3464 H   0  0  0  0  0  0  0  0  0  0  0  0
   -5.3052    0.3497    1.0959 H   0  0  0  0  0  0  0  0  0  0  0  0
   -3.4372    2.6007   -1.1887 H   0  0  0  0  0  0  0  0  0  0  0  0
   -4.1563    4.8846   -0.7194 H   0  0  0  0  0  0  0  0  0  0  0  0
   -5.4368    3.6735   -0.3335 H   0  0  0  0  0  0  0  0  0  0  0  0
   -5.1913    5.2623    1.2799 H   0  0  0  0  0  0  0  0  0  0  0  0
   -1.9571    4.0047    1.0661 H   0  0  0  0  0  0  0  0  0  0  0  0
  1  2  2  0
  2  3  1  0
  3  4  1  0
  4  5  1  0
  5  6  2  0
  5  7  1  0
  7  8  1  0
  8  9  1  0
  9 10  1  0
 10 11  1  0
 11 12  2  0
 12 13  1  0
 13 14  2  0
 14 15  1  0
 14 16  1  0
 16 17  2  0
  4 18  1  0
 18 19  1  0
 19 20  2  0
 19 21  1  0
 21 22  2  0
 22 23  1  0
 23 24  2  0
 24 25  1  0
 25 26  2  0
 26 27  1  0
 27 28  1  0
 28 29  1  0
 29 30  1  0
 30 31  1  0
 31 32  2  0
 31 33  1  0
 33 34  1  0
 34 35  1  0
 33 36  1  0
 36  2  1  0
 17 11  1  0
 26 21  1  0
  3 37  1  0
  3 38  1  0
  4 39  1  0
  7 40  1  0
  8 41  1  0
  8 42  1  0
  9 43  1  0
  9 44  1  0
 12 45  1  0
 13 46  1  0
 16 47  1  0
 17 48  1  0
 18 49  1  0
 22 50  1  0
 23 51  1  0
 24 52  1  0
 25 53  1  0
 28 54  1  0
 28 55  1  0
 29 56  1  0
 29 57  1  0
 30 58  1  0
 33 59  1  0
 34 60  1  0
 34 61  1  0
 35 62  1  0
 36 63  1  0
M  END
$$$$
