
     RDKit          3D

 60 63  0  0  0  0  0  0  0  0999 V2000
   -0.0394    1.9077    0.7081 O   0  0  0  0  0  0  0  0  0  0  0  0
   -1.2021    1.5296    0.3849 C   0  0  0  0  0  0  0  0  0  0  0  0
   -1.3887    0.6795   -0.7604 N   0  0  0  0  0  0  0  0  0  0  0  0
   -0.3079    0.3203   -1.6785 C   0  0  0  0  0  0  0  0  0  0  0  0
    0.2341   -1.1339   -1.4727 C   0  0  0  0  0  0  0  0  0  0  0  0
   -0.9257   -2.1815   -1.6308 C   0  0  0  0  0  0  0  0  0  0  0  0
   -1.8794   -2.3393   -0.4180 C   0  0  0  0  0  0  0  0  0  0  0  0
   -3.3622   -2.3607   -0.8342 C   0  0  0  0  0  0  0  0  0  0  0  0
   -4.3065   -2.3178    0.3844 C   0  0  0  0  0  0  0  0  0  0  0  0
   -4.6788   -0.8891    0.8128 C   0  0  0  0  0  0  0  0  0  0  0  0
   -3.5062   -0.1007    1.0296 O   0  0  0  0  0  0  0  0  0  0  0  0
   -3.5124    1.2563    1.3894 C   0  0  0  0  0  0  0  0  0  0  0  0
   -4.6324    1.8405    2.0176 C   0  0  0  0  0  0  0  0  0  0  0  0
   -4.6058    3.1780    2.4145 C   0  0  0  0  0  0  0  0  0  0  0  0
   -3.4679    3.9510    2.1926 C   0  0  0  0  0  0  0  0  0  0  0  0
   -2.3546    3.3922    1.5579 C   0  0  0  0  0  0  0  0  0  0  0  0
   -2.3684    2.0499    1.1404 C   0  0  0  0  0  0  0  0  0  0  0  0
    1.2786   -1.4034   -2.6243 C   0  0  0  0  0  0  0  0  0  0  0  0
    2.5433   -2.1189   -2.1369 C   0  0  0  0  0  0  0  0  0  0  0  0
    3.2439   -1.2509   -1.0897 C   0  0  0  0  0  0  0  0  0  0  0  0
    2.2964   -0.7600   -0.0758 N   0  0  0  0  0  0  0  0  0  0  0  0
    2.7711    0.0878    0.9944 C   0  0  0  0  0  0  0  0  0  0  0  0
    2.0788    0.2545    2.0351 O   0  0  0  0  0  0  0  0  0  0  0  0
    4.0675    0.7733    0.9002 C   0  0  0  0  0  0  0  0  0  0  0  0
    4.1398    2.0688    0.3698 C   0  0  0  0  0  0  0  0  0  0  0  0
    5.3768    2.7097    0.2562 C   0  0  0  0  0  0  0  0  0  0  0  0
    5.4459    3.9605   -0.2655 F   0  0  0  0  0  0  0  0  0  0  0  0
    6.5442    2.0586    0.6697 C   0  0  0  0  0  0  0  0  0  0  0  0
    6.4750    0.7667    1.2021 C   0  0  0  0  0  0  0  0  0  0  0  0
    7.6073    0.1335    1.5982 F   0  0  0  0  0  0  0  0  0  0  0  0
    5.2385    0.1252    1.3188 C   0  0  0  0  0  0  0  0  0  0  0  0
    0.9166   -1.2745   -0.0666 C   0  0  0  0  0  0  0  0  0  0  0  0
   -2.3639    0.5365   -1.1063 H   0  0  0  0  0  0  0  0  0  0  0  0
   -0.6946    0.4172   -2.7167 H   0  0  0  0  0  0  0  0  0  0  0  0
    0.5264    1.0532   -1.5884 H   0  0  0  0  0  0  0  0  0  0  0  0
   -0.4794   -3.1843   -1.8186 H   0  0  0  0  0  0  0  0  0  0  0  0
   -1.5009   -1.9338   -2.5513 H   0  0  0  0  0  0  0  0  0  0  0  0
   -1.6438   -3.2887    0.1108 H   0  0  0  0  0  0  0  0  0  0  0  0
   -1.7205   -1.5431    0.3235 H   0  0  0  0  0  0  0  0  0  0  0  0
   -3.5896   -1.5099   -1.5146 H   0  0  0  0  0  0  0  0  0  0  0  0
   -3.5512   -3.2995   -1.4015 H   0  0  0  0  0  0  0  0  0  0  0  0
   -5.2505   -2.8469    0.1176 H   0  0  0  0  0  0  0  0  0  0  0  0
   -3.8551   -2.8618    1.2441 H   0  0  0  0  0  0  0  0  0  0  0  0
   -5.2678   -0.9615    1.7514 H   0  0  0  0  0  0  0  0  0  0  0  0
   -5.3072   -0.4122    0.0287 H   0  0  0  0  0  0  0  0  0  0  0  0
   -5.5188    1.2593    2.2308 H   0  0  0  0  0  0  0  0  0  0  0  0
   -5.4704    3.6164    2.8945 H   0  0  0  0  0  0  0  0  0  0  0  0
   -3.4512    4.9879    2.4995 H   0  0  0  0  0  0  0  0  0  0  0  0
   -1.4937    4.0210    1.3577 H   0  0  0  0  0  0  0  0  0  0  0  0
    1.6096   -0.4523   -3.1020 H   0  0  0  0  0  0  0  0  0  0  0  0
    0.8311   -2.0064   -3.4467 H   0  0  0  0  0  0  0  0  0  0  0  0
    2.2734   -3.1062   -1.7004 H   0  0  0  0  0  0  0  0  0  0  0  0
    3.2322   -2.2991   -2.9908 H   0  0  0  0  0  0  0  0  0  0  0  0
    4.0439   -1.8476   -0.5974 H   0  0  0  0  0  0  0  0  0  0  0  0
    3.7110   -0.3828   -1.6053 H   0  0  0  0  0  0  0  0  0  0  0  0
    3.2450    2.5724    0.0306 H   0  0  0  0  0  0  0  0  0  0  0  0
    7.5012    2.5530    0.5725 H   0  0  0  0  0  0  0  0  0  0  0  0
    5.1932   -0.8837    1.7120 H   0  0  0  0  0  0  0  0  0  0  0  0
    0.9549   -2.3462    0.2318 H   0  0  0  0  0  0  0  0  0  0  0  0
    0.3174   -0.7636    0.7112 H   0  0  0  0  0  0  0  0  0  0  0  0
  1  2  2  0
  2  3  1  0
  3  4  1  0
  4  5  1  0
  5  6  1  0
  6  7  1  0
  7  8  1  0
  8  9  1  0
  9 10  1  0
 10 11  1  0
 11 12  1  0
 12 13  2  0
 13 14  1  0
 14 15  2  0
 15 16  1  0
 16 17  2  0
  5 18  1  0
 18 19  1  0
 19 20  1  0
 20 21  1  0
 21 22  1  0
 22 23  2  0
 22 24  1  0
 24 25  2  0
 25 26  1  0
 26 27  1  0
 26 28  2  0
 28 29  1  0
 29 30  1  0
 29 31  2  0
 21 32  1  0
 17  2  1  0
 31 24  1  0
 32  5  1  0
 17 12  1  0
  3 33  1  0
  4 34  1  0
  4 35  1  0
  6 36  1  0
  6 37  1  0
  7 38  1  0
  7 39  1  0
  8 40  1  0
  8 41  1  0
  9 42  1  0
  9 43  1  0
 10 44  1  0
 10 45  1  0
 13 46  1  0
 14 47  1  0
 15 48  1  0
 16 49  1  0
 18 50  1  0
 18 51  1  0
 19 52  1  0
 19 53  1  0
 20 54  1  0
 20 55  1  0
 25 56  1  0
 28 57  1  0
 31 58  1  0
 32 59  1  0
 32 60  1  0
M  END
$$$$
