
     RDKit          3D

 98103  0  0  0  0  0  0  0  0999 V2000
   -7.5069   -1.3777    3.2529 O   0  0  0  0  0  0  0  0  0  0  0  0
   -6.9614   -1.0926    2.1527 C   0  0  0  0  0  0  0  0  0  0  0  0
   -5.9104   -1.9370    1.6614 N   0  0  0  0  0  0  0  0  0  0  0  0
   -5.5749   -2.0435    0.2410 C   0  0  0  0  0  0  0  0  0  0  0  0
   -4.4259   -3.0376    0.0098 C   0  0  0  0  0  0  0  0  0  0  0  0
   -3.1249   -2.5818    0.6876 C   0  0  0  0  0  0  0  0  0  0  0  0
   -2.0468   -3.4554    0.3545 O   0  0  0  0  0  0  0  0  0  0  0  0
   -1.5128   -3.7053   -0.9242 C   0  0  0  0  0  0  0  0  0  0  0  0
   -0.9585   -4.9793   -1.1283 C   0  0  0  0  0  0  0  0  0  0  0  0
   -0.4140   -5.3356   -2.3631 C   0  0  0  0  0  0  0  0  0  0  0  0
   -0.3996   -4.4160   -3.4097 C   0  0  0  0  0  0  0  0  0  0  0  0
   -0.9311   -3.1386   -3.2268 C   0  0  0  0  0  0  0  0  0  0  0  0
   -1.4865   -2.7629   -1.9915 C   0  0  0  0  0  0  0  0  0  0  0  0
   -1.9587   -1.3747   -1.8709 C   0  0  0  0  0  0  0  0  0  0  0  0
   -3.0729   -1.0661   -2.3699 O   0  0  0  0  0  0  0  0  0  0  0  0
   -1.1302   -0.3436   -1.3117 N   0  0  0  0  0  0  0  0  0  0  0  0
   -0.0175   -0.6100   -0.3895 C   0  0  0  0  0  0  0  0  0  0  0  0
    1.1425   -1.2418   -1.1165 C   0  0  0  0  0  0  0  0  0  0  0  0
    1.4876   -0.8038   -2.2489 O   0  0  0  0  0  0  0  0  0  0  0  0
    1.8904   -2.2938   -0.4874 N   0  0  0  0  0  0  0  0  0  0  0  0
    3.1771   -2.7621   -0.9994 C   0  0  0  0  0  0  0  0  0  0  0  0
    4.2332   -1.6886   -0.8929 C   0  0  0  0  0  0  0  0  0  0  0  0
    5.2178   -1.5721   -1.8874 C   0  0  0  0  0  0  0  0  0  0  0  0
    6.2196   -0.6030   -1.7842 C   0  0  0  0  0  0  0  0  0  0  0  0
    6.2467    0.2717   -0.6894 C   0  0  0  0  0  0  0  0  0  0  0  0
    7.3022    1.3433   -0.6050 C   0  0  0  0  0  0  0  0  0  0  0  0
    8.6050    0.7540   -0.2286 N   0  0  0  0  0  0  0  0  0  0  0  0
    8.7203    0.5418    1.2364 C   0  0  0  0  0  0  0  0  0  0  0  0
    9.5263    1.6658    1.9153 C   0  0  0  0  0  0  0  0  0  0  0  0
   10.8478    1.8117    1.4112 O   0  0  0  0  0  0  0  0  0  0  0  0
   10.9995    1.3817    0.0640 C   0  0  0  0  0  0  0  0  0  0  0  0
    9.7242    1.5558   -0.7774 C   0  0  0  0  0  0  0  0  0  0  0  0
    5.2873    0.1342    0.3248 C   0  0  0  0  0  0  0  0  0  0  0  0
    4.2982   -0.8491    0.2316 C   0  0  0  0  0  0  0  0  0  0  0  0
    0.4499    0.6975    0.2814 C   0  0  0  0  0  0  0  0  0  0  0  0
   -0.5971    1.2794    1.2657 C   0  0  0  0  0  0  0  0  0  0  0  0
   -0.9671    2.7131    0.9550 C   0  0  0  0  0  0  0  0  0  0  0  0
   -0.0645    3.4954    0.5542 O   0  0  0  0  0  0  0  0  0  0  0  0
   -2.2843    3.2466    1.2225 N   0  0  0  0  0  0  0  0  0  0  0  0
   -2.5495    4.6792    1.1525 C   0  0  0  0  0  0  0  0  0  0  0  0
   -3.9723    4.8691    1.6539 C   0  0  0  0  0  0  0  0  0  0  0  0
   -4.3048    3.5897    2.4096 C   0  0  0  0  0  0  0  0  0  0  0  0
   -3.4051    2.5101    1.7953 C   0  0  0  0  0  0  0  0  0  0  0  0
   -4.1362    1.7197    0.6954 C   0  0  0  0  0  0  0  0  0  0  0  0
   -5.2105    0.9698    1.2644 O   0  0  0  0  0  0  0  0  0  0  0  0
   -6.5822    1.0932    0.9622 C   0  0  0  0  0  0  0  0  0  0  0  0
   -7.1153    2.2095    0.2780 C   0  0  0  0  0  0  0  0  0  0  0  0
   -8.4896    2.2979    0.0240 C   0  0  0  0  0  0  0  0  0  0  0  0
   -9.3472    1.2893    0.4611 C   0  0  0  0  0  0  0  0  0  0  0  0
   -8.8357    0.1905    1.1544 C   0  0  0  0  0  0  0  0  0  0  0  0
   -7.4567    0.0756    1.3951 C   0  0  0  0  0  0  0  0  0  0  0  0
   -5.5427   -2.6564    2.3225 H   0  0  0  0  0  0  0  0  0  0  0  0
   -5.2817   -1.0574   -0.1771 H   0  0  0  0  0  0  0  0  0  0  0  0
   -6.4744   -2.3985   -0.3160 H   0  0  0  0  0  0  0  0  0  0  0  0
   -4.7136   -4.0423    0.3945 H   0  0  0  0  0  0  0  0  0  0  0  0
   -4.2628   -3.1314   -1.0840 H   0  0  0  0  0  0  0  0  0  0  0  0
   -2.8855   -1.5252    0.4578 H   0  0  0  0  0  0  0  0  0  0  0  0
   -3.2562   -2.6317    1.7868 H   0  0  0  0  0  0  0  0  0  0  0  0
   -0.9692   -5.7098   -0.3282 H   0  0  0  0  0  0  0  0  0  0  0  0
   -0.0072   -6.3288   -2.5091 H   0  0  0  0  0  0  0  0  0  0  0  0
    0.0254   -4.6919   -4.3669 H   0  0  0  0  0  0  0  0  0  0  0  0
   -0.8954   -2.4324   -4.0502 H   0  0  0  0  0  0  0  0  0  0  0  0
   -1.3262    0.6375   -1.6041 H   0  0  0  0  0  0  0  0  0  0  0  0
   -0.3646   -1.3059    0.4043 H   0  0  0  0  0  0  0  0  0  0  0  0
    1.5302   -2.7107    0.4026 H   0  0  0  0  0  0  0  0  0  0  0  0
    3.5075   -3.6386   -0.4067 H   0  0  0  0  0  0  0  0  0  0  0  0
    3.0461   -3.0963   -2.0503 H   0  0  0  0  0  0  0  0  0  0  0  0
    5.2108   -2.2274   -2.7474 H   0  0  0  0  0  0  0  0  0  0  0  0
    6.9697   -0.5300   -2.5607 H   0  0  0  0  0  0  0  0  0  0  0  0
    7.0004    2.1445    0.1101 H   0  0  0  0  0  0  0  0  0  0  0  0
    7.3640    1.8267   -1.6060 H   0  0  0  0  0  0  0  0  0  0  0  0
    9.2433   -0.4208    1.4176 H   0  0  0  0  0  0  0  0  0  0  0  0
    7.7268    0.4484    1.7270 H   0  0  0  0  0  0  0  0  0  0  0  0
    9.5872    1.4541    3.0038 H   0  0  0  0  0  0  0  0  0  0  0  0
    8.9879    2.6281    1.7931 H   0  0  0  0  0  0  0  0  0  0  0  0
   11.8128    1.9817   -0.3992 H   0  0  0  0  0  0  0  0  0  0  0  0
   11.3203    0.3138    0.0513 H   0  0  0  0  0  0  0  0  0  0  0  0
    9.9315    1.2202   -1.8148 H   0  0  0  0  0  0  0  0  0  0  0  0
    9.4727    2.6418   -0.8029 H   0  0  0  0  0  0  0  0  0  0  0  0
    5.3080    0.7841    1.1893 H   0  0  0  0  0  0  0  0  0  0  0  0
    3.5806   -0.9502    1.0370 H   0  0  0  0  0  0  0  0  0  0  0  0
    1.3870    0.5040    0.8493 H   0  0  0  0  0  0  0  0  0  0  0  0
    0.7136    1.4260   -0.5148 H   0  0  0  0  0  0  0  0  0  0  0  0
   -1.4977    0.6354    1.2921 H   0  0  0  0  0  0  0  0  0  0  0  0
   -0.1736    1.2556    2.2938 H   0  0  0  0  0  0  0  0  0  0  0  0
   -1.8370    5.2225    1.8112 H   0  0  0  0  0  0  0  0  0  0  0  0
   -2.4537    5.0395    0.1038 H   0  0  0  0  0  0  0  0  0  0  0  0
   -4.6575    4.9771    0.7849 H   0  0  0  0  0  0  0  0  0  0  0  0
   -4.0615    5.7652    2.3084 H   0  0  0  0  0  0  0  0  0  0  0  0
   -5.3867    3.3531    2.3519 H   0  0  0  0  0  0  0  0  0  0  0  0
   -4.0355    3.7280    3.4804 H   0  0  0  0  0  0  0  0  0  0  0  0
   -3.0566    1.8271    2.6001 H   0  0  0  0  0  0  0  0  0  0  0  0
   -4.4571    2.3967   -0.1222 H   0  0  0  0  0  0  0  0  0  0  0  0
   -3.4379    0.9948    0.2235 H   0  0  0  0  0  0  0  0  0  0  0  0
   -6.4919    3.0310   -0.0392 H   0  0  0  0  0  0  0  0  0  0  0  0
   -8.8956    3.1578   -0.4983 H   0  0  0  0  0  0  0  0  0  0  0  0
  -10.4119    1.3625    0.2722 H   0  0  0  0  0  0  0  0  0  0  0  0
   -9.5165   -0.5851    1.4931 H   0  0  0  0  0  0  0  0  0  0  0  0
  1  2  2  0
  2  3  1  0
  3  4  1  0
  4  5  1  0
  5  6  1  0
  6  7  1  0
  7  8  1  0
  8  9  2  0
  9 10  1  0
 10 11  2  0
 11 12  1  0
 12 13  2  0
 13 14  1  0
 14 15  2  0
 14 16  1  0
 16 17  1  0
 17 18  1  0
 18 19  2  0
 18 20  1  0
 20 21  1  0
 21 22  1  0
 22 23  2  0
 23 24  1  0
 24 25  2  0
 25 26  1  0
 26 27  1  0
 27 28  1  0
 28 29  1  0
 29 30  1  0
 30 31  1  0
 31 32  1  0
 25 33  1  0
 33 34  2  0
 17 35  1  0
 35 36  1  0
 36 37  1  0
 37 38  2  0
 37 39  1  0
 39 40  1  0
 40 41  1  0
 41 42  1  0
 42 43  1  0
 43 44  1  0
 44 45  1  0
 45 46  1  0
 46 47  2  0
 47 48  1  0
 48 49  2  0
 49 50  1  0
 50 51  2  0
 51  2  1  0
 13  8  1  0
 34 22  1  0
 43 39  1  0
 51 46  1  0
 32 27  1  0
  3 52  1  0
  4 53  1  0
  4 54  1  0
  5 55  1  0
  5 56  1  0
  6 57  1  0
  6 58  1  0
  9 59  1  0
 10 60  1  0
 11 61  1  0
 12 62  1  0
 16 63  1  0
 17 64  1  0
 20 65  1  0
 21 66  1  0
 21 67  1  0
 23 68  1  0
 24 69  1  0
 26 70  1  0
 26 71  1  0
 28 72  1  0
 28 73  1  0
 29 74  1  0
 29 75  1  0
 31 76  1  0
 31 77  1  0
 32 78  1  0
 32 79  1  0
 33 80  1  0
 34 81  1  0
 35 82  1  0
 35 83  1  0
 36 84  1  0
 36 85  1  0
 40 86  1  0
 40 87  1  0
 41 88  1  0
 41 89  1  0
 42 90  1  0
 42 91  1  0
 43 92  1  0
 44 93  1  0
 44 94  1  0
 47 95  1  0
 48 96  1  0
 49 97  1  0
 50 98  1  0
M  END
$$$$
