
     RDKit          3D

 82 86  0  0  0  0  0  0  0  0999 V2000
    5.6374   -3.1165   -0.7559 C   0  0  0  0  0  0  0  0  0  0  0  0
    6.3839   -2.1158    0.0691 C   0  0  0  0  0  0  0  0  0  0  0  0
    7.3280   -2.4262    0.9273 O   0  0  0  0  0  0  0  0  0  0  0  0
    7.7932   -1.3663    1.5247 N   0  0  0  0  0  0  0  0  0  0  0  0
    7.1189   -0.3023    1.0413 C   0  0  0  0  0  0  0  0  0  0  0  0
    7.3792    1.1093    1.5088 C   0  0  0  0  0  0  0  0  0  0  0  0
    6.0973    1.8018    1.9915 C   0  0  0  0  0  0  0  0  0  0  0  0
    8.0849    1.9293    0.4221 C   0  0  0  0  0  0  0  0  0  0  0  0
    6.1957   -0.7497    0.1030 C   0  0  0  0  0  0  0  0  0  0  0  0
    5.2671    0.0369   -0.7257 C   0  0  0  0  0  0  0  0  0  0  0  0
    5.7250    0.5920   -1.7595 O   0  0  0  0  0  0  0  0  0  0  0  0
    3.8617    0.1518   -0.3988 N   0  0  0  0  0  0  0  0  0  0  0  0
    3.3330   -0.4503    0.8359 C   0  0  0  0  0  0  0  0  0  0  0  0
    1.8513   -0.8153    0.6865 C   0  0  0  0  0  0  0  0  0  0  0  0
    1.0177    0.4141    0.2289 C   0  0  0  0  0  0  0  0  0  0  0  0
   -0.4642    0.1521    0.1462 N   0  0  0  0  0  0  0  0  0  0  0  0
   -1.0004   -0.4959    1.3871 C   0  0  0  0  0  0  0  0  0  0  0  0
   -1.2308   -2.0130    1.2119 C   0  0  0  0  0  0  0  0  0  0  0  0
   -2.3489   -2.4465    0.2240 C   0  0  0  0  0  0  0  0  0  0  0  0
   -3.8559   -2.1872    0.6110 C   0  0  0  0  0  0  0  0  0  0  0  0
   -4.0984   -2.3006    2.1327 C   0  0  0  0  0  0  0  0  0  0  0  0
   -4.7376   -3.2374   -0.1023 C   0  0  0  0  0  0  0  0  0  0  0  0
   -4.2700   -0.7881    0.1091 C   0  0  0  0  0  0  0  0  0  0  0  0
   -5.6109   -0.4422    0.4351 O   0  0  0  0  0  0  0  0  0  0  0  0
   -6.1681    0.8545    0.3700 C   0  0  0  0  0  0  0  0  0  0  0  0
   -7.5486    0.9411    0.6021 C   0  0  0  0  0  0  0  0  0  0  0  0
   -8.1991    2.1783    0.6396 C   0  0  0  0  0  0  0  0  0  0  0  0
   -7.4796    3.3537    0.4353 C   0  0  0  0  0  0  0  0  0  0  0  0
   -6.1081    3.2957    0.1807 C   0  0  0  0  0  0  0  0  0  0  0  0
   -5.4382    2.0637    0.1327 C   0  0  0  0  0  0  0  0  0  0  0  0
   -4.0570    2.0990   -0.1012 O   0  0  0  0  0  0  0  0  0  0  0  0
   -3.4791    1.7070   -1.3154 C   0  0  0  0  0  0  0  0  0  0  0  0
   -4.2457    1.6551   -2.4416 N   0  0  0  0  0  0  0  0  0  0  0  0
   -3.7618    1.1967   -3.6241 C   0  0  0  0  0  0  0  0  0  0  0  0
   -2.4471    0.7459   -3.7067 C   0  0  0  0  0  0  0  0  0  0  0  0
   -1.6339    0.7887   -2.5743 C   0  0  0  0  0  0  0  0  0  0  0  0
   -2.1288    1.2844   -1.3565 C   0  0  0  0  0  0  0  0  0  0  0  0
   -1.2135    1.4199   -0.1469 C   0  0  0  0  0  0  0  0  0  0  0  0
    1.5959    0.8234   -1.1500 C   0  0  0  0  0  0  0  0  0  0  0  0
    3.0706    1.2142   -1.0415 C   0  0  0  0  0  0  0  0  0  0  0  0
    5.0963   -2.6133   -1.5819 H   0  0  0  0  0  0  0  0  0  0  0  0
    6.3492   -3.8528   -1.1861 H   0  0  0  0  0  0  0  0  0  0  0  0
    4.9030   -3.6473   -0.1137 H   0  0  0  0  0  0  0  0  0  0  0  0
    8.0691    1.0548    2.3807 H   0  0  0  0  0  0  0  0  0  0  0  0
    5.5943    1.1819    2.7676 H   0  0  0  0  0  0  0  0  0  0  0  0
    6.3482    2.7850    2.4461 H   0  0  0  0  0  0  0  0  0  0  0  0
    5.3914    1.9818    1.1547 H   0  0  0  0  0  0  0  0  0  0  0  0
    8.3221    2.9442    0.8065 H   0  0  0  0  0  0  0  0  0  0  0  0
    7.4475    2.0360   -0.4779 H   0  0  0  0  0  0  0  0  0  0  0  0
    9.0388    1.4363    0.1361 H   0  0  0  0  0  0  0  0  0  0  0  0
    3.8854   -1.3763    1.0974 H   0  0  0  0  0  0  0  0  0  0  0  0
    3.4535    0.2699    1.6719 H   0  0  0  0  0  0  0  0  0  0  0  0
    1.7545   -1.6371   -0.0548 H   0  0  0  0  0  0  0  0  0  0  0  0
    1.5330   -1.2079    1.6708 H   0  0  0  0  0  0  0  0  0  0  0  0
    1.1960    1.2443    0.9534 H   0  0  0  0  0  0  0  0  0  0  0  0
   -0.3293   -0.3255    2.2522 H   0  0  0  0  0  0  0  0  0  0  0  0
   -1.9304   -0.0494    1.7695 H   0  0  0  0  0  0  0  0  0  0  0  0
   -1.4131   -2.4686    2.2081 H   0  0  0  0  0  0  0  0  0  0  0  0
   -0.2891   -2.4749    0.8528 H   0  0  0  0  0  0  0  0  0  0  0  0
   -2.2100   -3.5430    0.0918 H   0  0  0  0  0  0  0  0  0  0  0  0
   -2.1280   -2.0107   -0.7743 H   0  0  0  0  0  0  0  0  0  0  0  0
   -5.1838   -2.2201    2.3665 H   0  0  0  0  0  0  0  0  0  0  0  0
   -3.5817   -1.4873    2.6871 H   0  0  0  0  0  0  0  0  0  0  0  0
   -3.7342   -3.2787    2.5127 H   0  0  0  0  0  0  0  0  0  0  0  0
   -4.4802   -4.2623    0.2403 H   0  0  0  0  0  0  0  0  0  0  0  0
   -5.8145   -3.0688    0.1118 H   0  0  0  0  0  0  0  0  0  0  0  0
   -4.5878   -3.1923   -1.2015 H   0  0  0  0  0  0  0  0  0  0  0  0
   -4.1558   -0.7489   -0.9956 H   0  0  0  0  0  0  0  0  0  0  0  0
   -3.6139   -0.0667    0.5908 H   0  0  0  0  0  0  0  0  0  0  0  0
   -8.1178    0.0367    0.7740 H   0  0  0  0  0  0  0  0  0  0  0  0
   -9.2628    2.2236    0.8333 H   0  0  0  0  0  0  0  0  0  0  0  0
   -7.9855    4.3095    0.4609 H   0  0  0  0  0  0  0  0  0  0  0  0
   -5.5543    4.2142    0.0280 H   0  0  0  0  0  0  0  0  0  0  0  0
   -4.4037    1.1679   -4.4947 H   0  0  0  0  0  0  0  0  0  0  0  0
   -2.0565    0.3685   -4.6445 H   0  0  0  0  0  0  0  0  0  0  0  0
   -0.6219    0.4309   -2.6580 H   0  0  0  0  0  0  0  0  0  0  0  0
   -0.5424    2.2837   -0.3412 H   0  0  0  0  0  0  0  0  0  0  0  0
   -1.7825    1.7842    0.7335 H   0  0  0  0  0  0  0  0  0  0  0  0
    1.5057   -0.0277   -1.8577 H   0  0  0  0  0  0  0  0  0  0  0  0
    1.0660    1.6828   -1.5994 H   0  0  0  0  0  0  0  0  0  0  0  0
    3.4414    1.4173   -2.0708 H   0  0  0  0  0  0  0  0  0  0  0  0
    3.1691    2.1512   -0.4501 H   0  0  0  0  0  0  0  0  0  0  0  0
  1  2  1  0
  2  3  1  0
  3  4  1  0
  4  5  2  0
  5  6  1  0
  6  7  1  0
  6  8  1  0
  5  9  1  0
  9 10  1  0
 10 11  2  0
 10 12  1  0
 12 13  1  0
 13 14  1  0
 14 15  1  0
 15 16  1  0
 16 17  1  0
 17 18  1  0
 18 19  1  0
 19 20  1  0
 20 21  1  0
 20 22  1  0
 20 23  1  0
 23 24  1  0
 24 25  1  0
 25 26  2  0
 26 27  1  0
 27 28  2  0
 28 29  1  0
 29 30  2  0
 30 31  1  0
 31 32  1  0
 32 33  2  0
 33 34  1  0
 34 35  2  0
 35 36  1  0
 36 37  2  0
 37 38  1  0
 15 39  1  0
 39 40  1  0
  9  2  2  0
 40 12  1  0
 38 16  1  0
 30 25  1  0
 37 32  1  0
  1 41  1  0
  1 42  1  0
  1 43  1  0
  6 44  1  0
  7 45  1  0
  7 46  1  0
  7 47  1  0
  8 48  1  0
  8 49  1  0
  8 50  1  0
 13 51  1  0
 13 52  1  0
 14 53  1  0
 14 54  1  0
 15 55  1  0
 17 56  1  0
 17 57  1  0
 18 58  1  0
 18 59  1  0
 19 60  1  0
 19 61  1  0
 21 62  1  0
 21 63  1  0
 21 64  1  0
 22 65  1  0
 22 66  1  0
 22 67  1  0
 23 68  1  0
 23 69  1  0
 26 70  1  0
 27 71  1  0
 28 72  1  0
 29 73  1  0
 34 74  1  0
 35 75  1  0
 36 76  1  0
 38 77  1  0
 38 78  1  0
 39 79  1  0
 39 80  1  0
 40 81  1  0
 40 82  1  0
M  END
$$$$
