
     RDKit          3D

 83 85  0  0  0  0  0  0  0  0999 V2000
   -5.4874   -4.8630   -0.3950 C   0  0  0  0  0  0  0  0  0  0  0  0
   -4.6942   -4.1857    0.7343 C   0  0  0  0  0  0  0  0  0  0  0  0
   -4.0951   -5.2563    1.6574 C   0  0  0  0  0  0  0  0  0  0  0  0
   -3.5657   -3.2698    0.1941 C   0  0  0  0  0  0  0  0  0  0  0  0
   -4.0631   -2.0206   -0.5824 C   0  0  0  0  0  0  0  0  0  0  0  0
   -2.9878   -1.2928   -1.2841 N   0  0  0  0  0  0  0  0  0  0  0  0
   -1.6706   -1.8022   -1.5542 C   0  0  0  0  0  0  0  0  0  0  0  0
   -1.3113   -1.9793   -2.7501 O   0  0  0  0  0  0  0  0  0  0  0  0
   -0.6880   -2.0489   -0.4440 C   0  0  0  0  0  0  0  0  0  0  0  0
    0.6072   -1.2447   -0.6496 C   0  0  0  0  0  0  0  0  0  0  0  0
    1.4701   -1.2351    0.6337 C   0  0  0  0  0  0  0  0  0  0  0  0
    2.9210   -0.8676    0.4039 C   0  0  0  0  0  0  0  0  0  0  0  0
    3.5391   -0.2148    1.2834 O   0  0  0  0  0  0  0  0  0  0  0  0
    3.6498   -1.4011   -0.7133 N   0  0  0  0  0  0  0  0  0  0  0  0
    4.9718   -0.9087   -1.0915 C   0  0  0  0  0  0  0  0  0  0  0  0
    4.8562    0.4724   -1.7344 C   0  0  0  0  0  0  0  0  0  0  0  0
    6.1381    0.9666   -2.1123 O   0  0  0  0  0  0  0  0  0  0  0  0
    7.0993    1.4958   -1.2349 C   0  0  0  0  0  0  0  0  0  0  0  0
    8.3460    1.8571   -1.7643 C   0  0  0  0  0  0  0  0  0  0  0  0
    9.3445    2.3854   -0.9396 C   0  0  0  0  0  0  0  0  0  0  0  0
    9.1040    2.5569    0.4254 C   0  0  0  0  0  0  0  0  0  0  0  0
   10.0751    3.0585    1.2264 F   0  0  0  0  0  0  0  0  0  0  0  0
    7.8606    2.2099    0.9649 C   0  0  0  0  0  0  0  0  0  0  0  0
    6.8587    1.6829    0.1426 C   0  0  0  0  0  0  0  0  0  0  0  0
    0.8560   -0.4062    1.6898 N   0  0  0  0  0  0  0  0  0  0  0  0
    0.6953    1.0316    1.7053 C   0  0  0  0  0  0  0  0  0  0  0  0
    0.3855    1.5933    2.7893 O   0  0  0  0  0  0  0  0  0  0  0  0
    0.8956    1.8887    0.5184 C   0  0  0  0  0  0  0  0  0  0  0  0
    2.1842    2.4114    0.3122 C   0  0  0  0  0  0  0  0  0  0  0  0
    2.4615    3.2188   -0.7887 C   0  0  0  0  0  0  0  0  0  0  0  0
    1.4506    3.5357   -1.6916 C   0  0  0  0  0  0  0  0  0  0  0  0
    0.1522    3.0851   -1.4700 C   0  0  0  0  0  0  0  0  0  0  0  0
   -0.1575    2.2871   -0.3599 C   0  0  0  0  0  0  0  0  0  0  0  0
   -1.5152    1.9482   -0.2168 O   0  0  0  0  0  0  0  0  0  0  0  0
   -2.1450    1.2931    0.8797 C   0  0  0  0  0  0  0  0  0  0  0  0
   -3.6551    1.1511    0.5942 C   0  0  0  0  0  0  0  0  0  0  0  0
   -4.4782    2.3428    1.1720 C   0  0  0  0  0  0  0  0  0  0  0  0
   -4.0558    3.6806    0.5426 C   0  0  0  0  0  0  0  0  0  0  0  0
   -5.9861    2.1348    0.9530 C   0  0  0  0  0  0  0  0  0  0  0  0
   -4.1289   -0.1220    1.1475 N   0  0  0  0  0  0  0  0  0  0  0  0
   -4.8145   -1.0872    0.3394 C   0  0  0  0  0  0  0  0  0  0  0  0
   -6.0607   -1.2271    0.4765 O   0  0  0  0  0  0  0  0  0  0  0  0
   -6.0787   -4.1180   -0.9652 H   0  0  0  0  0  0  0  0  0  0  0  0
   -6.2106   -5.5930    0.0269 H   0  0  0  0  0  0  0  0  0  0  0  0
   -4.8063   -5.3979   -1.0931 H   0  0  0  0  0  0  0  0  0  0  0  0
   -5.4016   -3.5834    1.3464 H   0  0  0  0  0  0  0  0  0  0  0  0
   -3.5610   -4.7780    2.5068 H   0  0  0  0  0  0  0  0  0  0  0  0
   -4.8970   -5.8962    2.0789 H   0  0  0  0  0  0  0  0  0  0  0  0
   -3.3788   -5.8977    1.1000 H   0  0  0  0  0  0  0  0  0  0  0  0
   -2.9170   -3.8844   -0.4681 H   0  0  0  0  0  0  0  0  0  0  0  0
   -2.9579   -2.9292    1.0580 H   0  0  0  0  0  0  0  0  0  0  0  0
   -4.7673   -2.3616   -1.3703 H   0  0  0  0  0  0  0  0  0  0  0  0
   -3.3213   -0.5525   -1.9457 H   0  0  0  0  0  0  0  0  0  0  0  0
   -1.1405   -1.7745    0.5247 H   0  0  0  0  0  0  0  0  0  0  0  0
   -0.4523   -3.1341   -0.4073 H   0  0  0  0  0  0  0  0  0  0  0  0
    0.3738   -0.2130   -0.9685 H   0  0  0  0  0  0  0  0  0  0  0  0
    1.1548   -1.7144   -1.4928 H   0  0  0  0  0  0  0  0  0  0  0  0
    1.5022   -2.2837    1.0055 H   0  0  0  0  0  0  0  0  0  0  0  0
    3.2768   -2.2329   -1.2211 H   0  0  0  0  0  0  0  0  0  0  0  0
    5.4303   -1.6100   -1.8219 H   0  0  0  0  0  0  0  0  0  0  0  0
    5.6286   -0.8727   -0.1977 H   0  0  0  0  0  0  0  0  0  0  0  0
    4.3565    1.1849   -1.0541 H   0  0  0  0  0  0  0  0  0  0  0  0
    4.2304    0.3927   -2.6481 H   0  0  0  0  0  0  0  0  0  0  0  0
    8.5419    1.7270   -2.8206 H   0  0  0  0  0  0  0  0  0  0  0  0
   10.3054    2.6580   -1.3601 H   0  0  0  0  0  0  0  0  0  0  0  0
    7.6742    2.3494    2.0215 H   0  0  0  0  0  0  0  0  0  0  0  0
    5.9075    1.4346    0.5894 H   0  0  0  0  0  0  0  0  0  0  0  0
    0.5755   -0.9071    2.5640 H   0  0  0  0  0  0  0  0  0  0  0  0
    2.9825    2.2035    1.0130 H   0  0  0  0  0  0  0  0  0  0  0  0
    3.4630    3.5984   -0.9430 H   0  0  0  0  0  0  0  0  0  0  0  0
    1.6694    4.1548   -2.5502 H   0  0  0  0  0  0  0  0  0  0  0  0
   -0.6322    3.3687   -2.1628 H   0  0  0  0  0  0  0  0  0  0  0  0
   -1.7009    0.2902    1.0001 H   0  0  0  0  0  0  0  0  0  0  0  0
   -1.9797    1.8706    1.8161 H   0  0  0  0  0  0  0  0  0  0  0  0
   -3.8044    1.1439   -0.5078 H   0  0  0  0  0  0  0  0  0  0  0  0
   -4.3023    2.4091    2.2688 H   0  0  0  0  0  0  0  0  0  0  0  0
   -4.1618    3.6422   -0.5661 H   0  0  0  0  0  0  0  0  0  0  0  0
   -4.6835    4.5105    0.9355 H   0  0  0  0  0  0  0  0  0  0  0  0
   -3.0004    3.9176    0.7926 H   0  0  0  0  0  0  0  0  0  0  0  0
   -6.2041    1.9731   -0.1242 H   0  0  0  0  0  0  0  0  0  0  0  0
   -6.5562    3.0186    1.3106 H   0  0  0  0  0  0  0  0  0  0  0  0
   -6.3496    1.2619    1.5348 H   0  0  0  0  0  0  0  0  0  0  0  0
   -4.1698   -0.2297    2.1858 H   0  0  0  0  0  0  0  0  0  0  0  0
  1  2  1  0
  2  3  1  0
  2  4  1  0
  4  5  1  0
  5  6  1  0
  6  7  1  0
  7  8  2  0
  7  9  1  0
  9 10  1  0
 10 11  1  0
 11 12  1  0
 12 13  2  0
 12 14  1  0
 14 15  1  0
 15 16  1  0
 16 17  1  0
 17 18  1  0
 18 19  2  0
 19 20  1  0
 20 21  2  0
 21 22  1  0
 21 23  1  0
 23 24  2  0
 11 25  1  0
 25 26  1  0
 26 27  2  0
 26 28  1  0
 28 29  2  0
 29 30  1  0
 30 31  2  0
 31 32  1  0
 32 33  2  0
 33 34  1  0
 34 35  1  0
 35 36  1  0
 36 37  1  0
 37 38  1  0
 37 39  1  0
 36 40  1  0
 40 41  1  0
 41 42  2  0
 41  5  1  0
 24 18  1  0
 33 28  1  0
  1 43  1  0
  1 44  1  0
  1 45  1  0
  2 46  1  0
  3 47  1  0
  3 48  1  0
  3 49  1  0
  4 50  1  0
  4 51  1  0
  5 52  1  0
  6 53  1  0
  9 54  1  0
  9 55  1  0
 10 56  1  0
 10 57  1  0
 11 58  1  0
 14 59  1  0
 15 60  1  0
 15 61  1  0
 16 62  1  0
 16 63  1  0
 19 64  1  0
 20 65  1  0
 23 66  1  0
 24 67  1  0
 25 68  1  0
 29 69  1  0
 30 70  1  0
 31 71  1  0
 32 72  1  0
 35 73  1  0
 35 74  1  0
 36 75  1  0
 37 76  1  0
 38 77  1  0
 38 78  1  0
 38 79  1  0
 39 80  1  0
 39 81  1  0
 39 82  1  0
 40 83  1  0
M  END
$$$$
