
     RDKit          3D

 61 64  0  0  0  0  0  0  0  0999 V2000
   -1.5452   -1.0659    2.9701 C   0  0  0  0  0  0  0  0  0  0  0  0
   -0.9500   -1.3927    1.6660 N   0  0  0  0  0  0  0  0  0  0  0  0
    0.4878   -1.1300    1.4567 C   0  0  0  0  0  0  0  0  0  0  0  0
    0.8139    0.1313    0.5655 C   0  0  0  0  0  0  0  0  0  0  0  0
   -0.1565    1.3299    0.8880 C   0  0  0  0  0  0  0  0  0  0  0  0
   -1.4790    1.3337    0.0944 C   0  0  0  0  0  0  0  0  0  0  0  0
   -2.5105    2.3596    0.6199 C   0  0  0  0  0  0  0  0  0  0  0  0
   -3.8906    1.7428    0.9298 C   0  0  0  0  0  0  0  0  0  0  0  0
   -4.4520    0.9488   -0.2325 C   0  0  0  0  0  0  0  0  0  0  0  0
   -4.9778    1.6375   -1.3385 C   0  0  0  0  0  0  0  0  0  0  0  0
   -5.4423    0.9389   -2.4539 C   0  0  0  0  0  0  0  0  0  0  0  0
   -5.3805   -0.4537   -2.4817 C   0  0  0  0  0  0  0  0  0  0  0  0
   -4.8571   -1.1550   -1.3931 C   0  0  0  0  0  0  0  0  0  0  0  0
   -4.3859   -0.4651   -0.2569 C   0  0  0  0  0  0  0  0  0  0  0  0
   -3.8880   -1.1447    0.8711 O   0  0  0  0  0  0  0  0  0  0  0  0
   -3.1931   -2.3962    0.8700 C   0  0  0  0  0  0  0  0  0  0  0  0
   -1.7083   -2.1842    0.7171 C   0  0  0  0  0  0  0  0  0  0  0  0
   -1.1225   -2.7416   -0.2494 O   0  0  0  0  0  0  0  0  0  0  0  0
    2.2574    0.6166    0.9082 C   0  0  0  0  0  0  0  0  0  0  0  0
    3.3377   -0.3953    0.5100 C   0  0  0  0  0  0  0  0  0  0  0  0
    3.2106   -0.7360   -0.9111 N   0  0  0  0  0  0  0  0  0  0  0  0
    4.3904   -1.0707   -1.6649 C   0  0  0  0  0  0  0  0  0  0  0  0
    4.4488   -2.1820   -2.2608 O   0  0  0  0  0  0  0  0  0  0  0  0
    5.5350   -0.1332   -1.7568 C   0  0  0  0  0  0  0  0  0  0  0  0
    6.8130   -0.5898   -2.1156 C   0  0  0  0  0  0  0  0  0  0  0  0
    7.8469    0.2845   -2.2132 N   0  0  0  0  0  0  0  0  0  0  0  0
    7.6665    1.6093   -1.9711 C   0  0  0  0  0  0  0  0  0  0  0  0
    6.4344    2.0810   -1.6551 N   0  0  0  0  0  0  0  0  0  0  0  0
    5.3708    1.2429   -1.5465 C   0  0  0  0  0  0  0  0  0  0  0  0
    1.9023   -1.1783   -1.4021 C   0  0  0  0  0  0  0  0  0  0  0  0
    0.7930   -0.2098   -0.9589 C   0  0  0  0  0  0  0  0  0  0  0  0
   -1.8498   -1.9985    3.4895 H   0  0  0  0  0  0  0  0  0  0  0  0
   -0.8340   -0.5229    3.6263 H   0  0  0  0  0  0  0  0  0  0  0  0
   -2.4275   -0.4133    2.8383 H   0  0  0  0  0  0  0  0  0  0  0  0
    0.9739   -0.9982    2.4471 H   0  0  0  0  0  0  0  0  0  0  0  0
    0.9701   -2.0455    1.0617 H   0  0  0  0  0  0  0  0  0  0  0  0
   -0.3714    1.3416    1.9785 H   0  0  0  0  0  0  0  0  0  0  0  0
    0.3386    2.3011    0.6637 H   0  0  0  0  0  0  0  0  0  0  0  0
   -1.2682    1.5748   -0.9710 H   0  0  0  0  0  0  0  0  0  0  0  0
   -1.9007    0.3227    0.1040 H   0  0  0  0  0  0  0  0  0  0  0  0
   -2.6417    3.1604   -0.1423 H   0  0  0  0  0  0  0  0  0  0  0  0
   -2.1406    2.8620    1.5421 H   0  0  0  0  0  0  0  0  0  0  0  0
   -4.5966    2.5660    1.1782 H   0  0  0  0  0  0  0  0  0  0  0  0
   -3.8205    1.1199    1.8443 H   0  0  0  0  0  0  0  0  0  0  0  0
   -5.0226    2.7191   -1.3374 H   0  0  0  0  0  0  0  0  0  0  0  0
   -5.8511    1.4793   -3.2976 H   0  0  0  0  0  0  0  0  0  0  0  0
   -5.7549   -0.9948   -3.3426 H   0  0  0  0  0  0  0  0  0  0  0  0
   -4.8635   -2.2339   -1.4364 H   0  0  0  0  0  0  0  0  0  0  0  0
   -3.5707   -3.0810    0.0873 H   0  0  0  0  0  0  0  0  0  0  0  0
   -3.3798   -2.9024    1.8385 H   0  0  0  0  0  0  0  0  0  0  0  0
    2.4781    1.5652    0.3693 H   0  0  0  0  0  0  0  0  0  0  0  0
    2.3459    0.8379    1.9951 H   0  0  0  0  0  0  0  0  0  0  0  0
    4.3338    0.0462    0.7278 H   0  0  0  0  0  0  0  0  0  0  0  0
    3.2512   -1.3184    1.1215 H   0  0  0  0  0  0  0  0  0  0  0  0
    6.9882   -1.6403   -2.3199 H   0  0  0  0  0  0  0  0  0  0  0  0
    8.5011    2.2906   -2.0546 H   0  0  0  0  0  0  0  0  0  0  0  0
    4.3994    1.6548   -1.3089 H   0  0  0  0  0  0  0  0  0  0  0  0
    1.9054   -1.2096   -2.5136 H   0  0  0  0  0  0  0  0  0  0  0  0
    1.6958   -2.2082   -1.0462 H   0  0  0  0  0  0  0  0  0  0  0  0
    0.9260    0.7326   -1.5362 H   0  0  0  0  0  0  0  0  0  0  0  0
   -0.1831   -0.6398   -1.2612 H   0  0  0  0  0  0  0  0  0  0  0  0
  1  2  1  0
  2  3  1  0
  3  4  1  0
  4  5  1  0
  5  6  1  0
  6  7  1  0
  7  8  1  0
  8  9  1  0
  9 10  2  0
 10 11  1  0
 11 12  2  0
 12 13  1  0
 13 14  2  0
 14 15  1  0
 15 16  1  0
 16 17  1  0
 17 18  2  0
  4 19  1  0
 19 20  1  0
 20 21  1  0
 21 22  1  0
 22 23  2  0
 22 24  1  0
 24 25  2  0
 25 26  1  0
 26 27  2  0
 27 28  1  0
 28 29  2  0
 21 30  1  0
 30 31  1  0
 17  2  1  0
 29 24  1  0
 31  4  1  0
 14  9  1  0
  1 32  1  0
  1 33  1  0
  1 34  1  0
  3 35  1  0
  3 36  1  0
  5 37  1  0
  5 38  1  0
  6 39  1  0
  6 40  1  0
  7 41  1  0
  7 42  1  0
  8 43  1  0
  8 44  1  0
 10 45  1  0
 11 46  1  0
 12 47  1  0
 13 48  1  0
 16 49  1  0
 16 50  1  0
 19 51  1  0
 19 52  1  0
 20 53  1  0
 20 54  1  0
 25 55  1  0
 27 56  1  0
 29 57  1  0
 30 58  1  0
 30 59  1  0
 31 60  1  0
 31 61  1  0
M  END
$$$$
