
     RDKit          3D

 71 74  0  0  0  0  0  0  0  0999 V2000
   -1.8791   -3.0826    0.6447 C   0  0  0  0  0  0  0  0  0  0  0  0
   -2.1034   -1.8098    1.3373 N   0  0  0  0  0  0  0  0  0  0  0  0
   -1.0257   -0.8082    1.5152 C   0  0  0  0  0  0  0  0  0  0  0  0
   -0.2765   -0.3444    0.2106 C   0  0  0  0  0  0  0  0  0  0  0  0
    0.6412   -1.5120   -0.3268 C   0  0  0  0  0  0  0  0  0  0  0  0
    2.0637   -1.0803   -0.7043 C   0  0  0  0  0  0  0  0  0  0  0  0
    2.7033   -0.4448    0.4541 N   0  0  0  0  0  0  0  0  0  0  0  0
    4.0629   -0.7321    0.8227 C   0  0  0  0  0  0  0  0  0  0  0  0
    4.3865   -0.7211    2.0406 O   0  0  0  0  0  0  0  0  0  0  0  0
    5.1088   -1.0549   -0.2140 C   0  0  0  0  0  0  0  0  0  0  0  0
    6.4487   -0.3546    0.0914 C   0  0  0  0  0  0  0  0  0  0  0  0
    6.3539    1.1720    0.0634 C   0  0  0  0  0  0  0  0  0  0  0  0
    7.7204    1.6765   -0.3980 C   0  0  0  0  0  0  0  0  0  0  0  0
    8.5219    0.4536   -0.8334 C   0  0  0  0  0  0  0  0  0  0  0  0
    7.5306   -0.6941   -0.9248 C   0  0  0  0  0  0  0  0  0  0  0  0
    1.9354    0.4994    1.2724 C   0  0  0  0  0  0  0  0  0  0  0  0
    0.6234    0.8905    0.5815 C   0  0  0  0  0  0  0  0  0  0  0  0
   -1.3172    0.0540   -0.9016 C   0  0  0  0  0  0  0  0  0  0  0  0
   -1.9017    1.5012   -0.8506 C   0  0  0  0  0  0  0  0  0  0  0  0
   -1.1917    2.2942   -1.7716 O   0  0  0  0  0  0  0  0  0  0  0  0
   -3.4212    1.5218   -1.2006 C   0  0  0  0  0  0  0  0  0  0  0  0
   -3.7892    2.7274   -1.8322 O   0  0  0  0  0  0  0  0  0  0  0  0
   -4.2770    1.3160    0.0711 C   0  0  0  0  0  0  0  0  0  0  0  0
   -5.5869    0.6291   -0.2378 C   0  0  0  0  0  0  0  0  0  0  0  0
   -6.6368    1.3620   -0.8171 C   0  0  0  0  0  0  0  0  0  0  0  0
   -7.8342    0.7258   -1.1592 C   0  0  0  0  0  0  0  0  0  0  0  0
   -7.9644   -0.6550   -1.0018 C   0  0  0  0  0  0  0  0  0  0  0  0
   -6.9064   -1.3995   -0.4767 C   0  0  0  0  0  0  0  0  0  0  0  0
   -5.7314   -0.7627   -0.0603 C   0  0  0  0  0  0  0  0  0  0  0  0
   -4.7155   -1.5167    0.5307 O   0  0  0  0  0  0  0  0  0  0  0  0
   -4.5759   -1.5783    1.9475 C   0  0  0  0  0  0  0  0  0  0  0  0
   -3.1455   -1.8207    2.3246 C   0  0  0  0  0  0  0  0  0  0  0  0
   -2.8553   -2.0383    3.5312 O   0  0  0  0  0  0  0  0  0  0  0  0
   -2.7873   -3.7198    0.6900 H   0  0  0  0  0  0  0  0  0  0  0  0
   -1.0437   -3.6357    1.1208 H   0  0  0  0  0  0  0  0  0  0  0  0
   -1.6793   -2.9209   -0.4285 H   0  0  0  0  0  0  0  0  0  0  0  0
   -0.2929   -1.2066    2.2505 H   0  0  0  0  0  0  0  0  0  0  0  0
   -1.4740    0.0961    1.9863 H   0  0  0  0  0  0  0  0  0  0  0  0
    0.2023   -2.0097   -1.2179 H   0  0  0  0  0  0  0  0  0  0  0  0
    0.7564   -2.3026    0.4432 H   0  0  0  0  0  0  0  0  0  0  0  0
    2.6304   -1.9820   -1.0203 H   0  0  0  0  0  0  0  0  0  0  0  0
    2.0382   -0.3691   -1.5590 H   0  0  0  0  0  0  0  0  0  0  0  0
    5.2597   -2.1559   -0.2282 H   0  0  0  0  0  0  0  0  0  0  0  0
    4.7534   -0.7409   -1.2199 H   0  0  0  0  0  0  0  0  0  0  0  0
    6.8116   -0.6693    1.0971 H   0  0  0  0  0  0  0  0  0  0  0  0
    6.1009    1.5724    1.0699 H   0  0  0  0  0  0  0  0  0  0  0  0
    5.5738    1.5040   -0.6600 H   0  0  0  0  0  0  0  0  0  0  0  0
    8.2394    2.2064    0.4273 H   0  0  0  0  0  0  0  0  0  0  0  0
    7.6005    2.3810   -1.2497 H   0  0  0  0  0  0  0  0  0  0  0  0
    9.2893    0.2167   -0.0638 H   0  0  0  0  0  0  0  0  0  0  0  0
    9.0278    0.6241   -1.8099 H   0  0  0  0  0  0  0  0  0  0  0  0
    8.0154   -1.6657   -0.6923 H   0  0  0  0  0  0  0  0  0  0  0  0
    7.1079   -0.7328   -1.9549 H   0  0  0  0  0  0  0  0  0  0  0  0
    1.7281    0.0534    2.2681 H   0  0  0  0  0  0  0  0  0  0  0  0
    2.5386    1.4211    1.4262 H   0  0  0  0  0  0  0  0  0  0  0  0
    0.0946    1.6004    1.2526 H   0  0  0  0  0  0  0  0  0  0  0  0
    0.8934    1.4556   -0.3363 H   0  0  0  0  0  0  0  0  0  0  0  0
   -0.8486   -0.0752   -1.9044 H   0  0  0  0  0  0  0  0  0  0  0  0
   -2.1470   -0.6807   -0.9001 H   0  0  0  0  0  0  0  0  0  0  0  0
   -1.8026    1.9245    0.1741 H   0  0  0  0  0  0  0  0  0  0  0  0
   -1.0567    3.1866   -1.3551 H   0  0  0  0  0  0  0  0  0  0  0  0
   -3.6307    0.7082   -1.9269 H   0  0  0  0  0  0  0  0  0  0  0  0
   -3.5457    3.4700   -1.2196 H   0  0  0  0  0  0  0  0  0  0  0  0
   -4.4709    2.2943    0.5658 H   0  0  0  0  0  0  0  0  0  0  0  0
   -3.7068    0.7304    0.8198 H   0  0  0  0  0  0  0  0  0  0  0  0
   -6.5158    2.4195   -1.0351 H   0  0  0  0  0  0  0  0  0  0  0  0
   -8.6445    1.2980   -1.5912 H   0  0  0  0  0  0  0  0  0  0  0  0
   -8.8754   -1.1540   -1.3079 H   0  0  0  0  0  0  0  0  0  0  0  0
   -6.9972   -2.4717   -0.3876 H   0  0  0  0  0  0  0  0  0  0  0  0
   -5.2185   -2.3940    2.3390 H   0  0  0  0  0  0  0  0  0  0  0  0
   -4.8895   -0.6095    2.4098 H   0  0  0  0  0  0  0  0  0  0  0  0
  1  2  1  0
  2  3  1  0
  3  4  1  0
  4  5  1  0
  5  6  1  0
  6  7  1  0
  7  8  1  0
  8  9  2  0
  8 10  1  0
 10 11  1  0
 11 12  1  0
 12 13  1  0
 13 14  1  0
 14 15  1  0
  7 16  1  0
 16 17  1  0
  4 18  1  0
 18 19  1  0
 19 20  1  0
 19 21  1  0
 21 22  1  0
 21 23  1  0
 23 24  1  0
 24 25  2  0
 25 26  1  0
 26 27  2  0
 27 28  1  0
 28 29  2  0
 29 30  1  0
 30 31  1  0
 31 32  1  0
 32 33  2  0
 32  2  1  0
 17  4  1  0
 29 24  1  0
 15 11  1  0
  1 34  1  0
  1 35  1  0
  1 36  1  0
  3 37  1  0
  3 38  1  0
  5 39  1  0
  5 40  1  0
  6 41  1  0
  6 42  1  0
 10 43  1  0
 10 44  1  0
 11 45  1  0
 12 46  1  0
 12 47  1  0
 13 48  1  0
 13 49  1  0
 14 50  1  0
 14 51  1  0
 15 52  1  0
 15 53  1  0
 16 54  1  0
 16 55  1  0
 17 56  1  0
 17 57  1  0
 18 58  1  0
 18 59  1  0
 19 60  1  0
 20 61  1  0
 21 62  1  0
 22 63  1  0
 23 64  1  0
 23 65  1  0
 25 66  1  0
 26 67  1  0
 27 68  1  0
 28 69  1  0
 31 70  1  0
 31 71  1  0
M  END
$$$$
