
     RDKit          3D

 76 79  0  0  0  0  0  0  0  0999 V2000
   -5.3581   -1.7553   -0.7519 O   0  0  0  0  0  0  0  0  0  0  0  0
   -4.5934   -0.9408   -1.3398 C   0  0  0  0  0  0  0  0  0  0  0  0
   -5.2016    0.2671   -2.0081 C   0  0  0  0  0  0  0  0  0  0  0  0
   -6.2887    0.8725   -1.1569 C   0  0  0  0  0  0  0  0  0  0  0  0
   -7.6389    0.7120   -1.5145 C   0  0  0  0  0  0  0  0  0  0  0  0
   -8.6495    1.2574   -0.7169 C   0  0  0  0  0  0  0  0  0  0  0  0
   -8.3229    1.9595    0.4462 C   0  0  0  0  0  0  0  0  0  0  0  0
   -6.9838    2.1152    0.8152 C   0  0  0  0  0  0  0  0  0  0  0  0
   -5.9671    1.5753    0.0197 C   0  0  0  0  0  0  0  0  0  0  0  0
   -4.6737    1.7292    0.4006 F   0  0  0  0  0  0  0  0  0  0  0  0
   -3.1733   -1.2126   -1.3979 N   0  0  0  0  0  0  0  0  0  0  0  0
   -2.3461   -0.6644   -2.4878 C   0  0  0  0  0  0  0  0  0  0  0  0
   -1.6249    0.6227   -2.0477 C   0  0  0  0  0  0  0  0  0  0  0  0
   -0.2352    0.3207   -1.4769 C   0  0  0  0  0  0  0  0  0  0  0  0
    0.4184    1.5691   -0.8496 C   0  0  0  0  0  0  0  0  0  0  0  0
    1.6030    1.2622    0.1184 C   0  0  0  0  0  0  0  0  0  0  0  0
    2.6184    0.2865   -0.5394 C   0  0  0  0  0  0  0  0  0  0  0  0
    3.9043    0.1517    0.2881 C   0  0  0  0  0  0  0  0  0  0  0  0
    4.5487    1.4704    0.4598 N   0  0  0  0  0  0  0  0  0  0  0  0
    5.8318    1.3344    1.1797 C   0  0  0  0  0  0  0  0  0  0  0  0
    6.8922    0.7789    0.2707 C   0  0  0  0  0  0  0  0  0  0  0  0
    7.6959   -0.2981    0.6752 C   0  0  0  0  0  0  0  0  0  0  0  0
    8.6884   -0.7713   -0.1855 C   0  0  0  0  0  0  0  0  0  0  0  0
    8.8737   -0.1698   -1.4317 C   0  0  0  0  0  0  0  0  0  0  0  0
    8.0610    0.9054   -1.7990 C   0  0  0  0  0  0  0  0  0  0  0  0
    7.1021    1.3555   -0.9459 N   0  0  0  0  0  0  0  0  0  0  0  0
    3.6492    2.3797    1.1953 C   0  0  0  0  0  0  0  0  0  0  0  0
    2.3483    2.5980    0.4089 C   0  0  0  0  0  0  0  0  0  0  0  0
    1.0426    0.6603    1.4063 C   0  0  0  0  0  0  0  0  0  0  0  0
    0.8843    1.3766    2.4334 O   0  0  0  0  0  0  0  0  0  0  0  0
    0.6313   -0.6773    1.4245 O   0  0  0  0  0  0  0  0  0  0  0  0
    0.2110   -1.3543    2.6050 C   0  0  0  0  0  0  0  0  0  0  0  0
   -0.5483   -2.6506    2.2492 C   0  0  0  0  0  0  0  0  0  0  0  0
   -0.0254   -3.2335    1.0838 O   0  0  0  0  0  0  0  0  0  0  0  0
   -2.0869   -2.4455    2.1271 C   0  0  0  0  0  0  0  0  0  0  0  0
   -2.7684   -3.6753    2.0909 O   0  0  0  0  0  0  0  0  0  0  0  0
   -2.5663   -1.5108    0.9862 C   0  0  0  0  0  0  0  0  0  0  0  0
   -2.5779   -2.1420   -0.4211 C   0  0  0  0  0  0  0  0  0  0  0  0
   -4.4379    1.0467   -2.1958 H   0  0  0  0  0  0  0  0  0  0  0  0
   -5.6015   -0.0419   -2.9959 H   0  0  0  0  0  0  0  0  0  0  0  0
   -7.9094    0.1648   -2.4093 H   0  0  0  0  0  0  0  0  0  0  0  0
   -9.6874    1.1330   -0.9993 H   0  0  0  0  0  0  0  0  0  0  0  0
   -9.1073    2.3788    1.0620 H   0  0  0  0  0  0  0  0  0  0  0  0
   -6.7344    2.6557    1.7205 H   0  0  0  0  0  0  0  0  0  0  0  0
   -2.9804   -0.4457   -3.3731 H   0  0  0  0  0  0  0  0  0  0  0  0
   -1.6166   -1.4266   -2.8404 H   0  0  0  0  0  0  0  0  0  0  0  0
   -2.2392    1.1541   -1.2881 H   0  0  0  0  0  0  0  0  0  0  0  0
   -1.5095    1.2977   -2.9243 H   0  0  0  0  0  0  0  0  0  0  0  0
   -0.3305   -0.4782   -0.7279 H   0  0  0  0  0  0  0  0  0  0  0  0
    0.4132   -0.0630   -2.2944 H   0  0  0  0  0  0  0  0  0  0  0  0
    0.7659    2.2148   -1.6857 H   0  0  0  0  0  0  0  0  0  0  0  0
   -0.3462    2.1556   -0.2926 H   0  0  0  0  0  0  0  0  0  0  0  0
    2.8907    0.6586   -1.5521 H   0  0  0  0  0  0  0  0  0  0  0  0
    2.1751   -0.7246   -0.6676 H   0  0  0  0  0  0  0  0  0  0  0  0
    4.5866   -0.5368   -0.2575 H   0  0  0  0  0  0  0  0  0  0  0  0
    3.6743   -0.3129    1.2740 H   0  0  0  0  0  0  0  0  0  0  0  0
    6.1936    2.3305    1.5188 H   0  0  0  0  0  0  0  0  0  0  0  0
    5.7086    0.7052    2.0913 H   0  0  0  0  0  0  0  0  0  0  0  0
    7.5559   -0.7654    1.6418 H   0  0  0  0  0  0  0  0  0  0  0  0
    9.3124   -1.6037    0.1126 H   0  0  0  0  0  0  0  0  0  0  0  0
    9.6416   -0.5303   -2.1050 H   0  0  0  0  0  0  0  0  0  0  0  0
    8.1930    1.3837   -2.7606 H   0  0  0  0  0  0  0  0  0  0  0  0
    4.1351    3.3734    1.3166 H   0  0  0  0  0  0  0  0  0  0  0  0
    3.4296    1.9836    2.2124 H   0  0  0  0  0  0  0  0  0  0  0  0
    1.6915    3.3020    0.9654 H   0  0  0  0  0  0  0  0  0  0  0  0
    2.6150    3.0973   -0.5494 H   0  0  0  0  0  0  0  0  0  0  0  0
    1.1174   -1.6105    3.1966 H   0  0  0  0  0  0  0  0  0  0  0  0
   -0.4274   -0.6916    3.2298 H   0  0  0  0  0  0  0  0  0  0  0  0
   -0.4018   -3.3575    3.0997 H   0  0  0  0  0  0  0  0  0  0  0  0
    0.8796   -3.5729    1.3130 H   0  0  0  0  0  0  0  0  0  0  0  0
   -2.4051   -1.9531    3.0726 H   0  0  0  0  0  0  0  0  0  0  0  0
   -2.3346   -4.2475    1.4072 H   0  0  0  0  0  0  0  0  0  0  0  0
   -1.9659   -0.5773    0.9768 H   0  0  0  0  0  0  0  0  0  0  0  0
   -3.6061   -1.2032    1.2348 H   0  0  0  0  0  0  0  0  0  0  0  0
   -3.1666   -3.0837   -0.4197 H   0  0  0  0  0  0  0  0  0  0  0  0
   -1.5458   -2.4125   -0.7210 H   0  0  0  0  0  0  0  0  0  0  0  0
  1  2  2  0
  2  3  1  0
  3  4  1  0
  4  5  2  0
  5  6  1  0
  6  7  2  0
  7  8  1  0
  8  9  2  0
  9 10  1  0
  2 11  1  0
 11 12  1  0
 12 13  1  0
 13 14  1  0
 14 15  1  0
 15 16  1  0
 16 17  1  0
 17 18  1  0
 18 19  1  0
 19 20  1  0
 20 21  1  0
 21 22  2  0
 22 23  1  0
 23 24  2  0
 24 25  1  0
 25 26  2  0
 19 27  1  0
 27 28  1  0
 16 29  1  0
 29 30  2  0
 29 31  1  0
 31 32  1  0
 32 33  1  0
 33 34  1  0
 33 35  1  0
 35 36  1  0
 35 37  1  0
 37 38  1  0
  9  4  1  0
 38 11  1  0
 28 16  1  0
 26 21  1  0
  3 39  1  0
  3 40  1  0
  5 41  1  0
  6 42  1  0
  7 43  1  0
  8 44  1  0
 12 45  1  0
 12 46  1  0
 13 47  1  0
 13 48  1  0
 14 49  1  0
 14 50  1  0
 15 51  1  0
 15 52  1  0
 17 53  1  0
 17 54  1  0
 18 55  1  0
 18 56  1  0
 20 57  1  0
 20 58  1  0
 22 59  1  0
 23 60  1  0
 24 61  1  0
 25 62  1  0
 27 63  1  0
 27 64  1  0
 28 65  1  0
 28 66  1  0
 32 67  1  0
 32 68  1  0
 33 69  1  0
 34 70  1  0
 35 71  1  0
 36 72  1  0
 37 73  1  0
 37 74  1  0
 38 75  1  0
 38 76  1  0
M  END
$$$$
