
     RDKit          3D

 70 72  0  0  0  0  0  0  0  0999 V2000
   -1.5020    5.4882   -1.7182 C   0  0  0  0  0  0  0  0  0  0  0  0
   -2.1666    5.1424   -0.3848 C   0  0  0  0  0  0  0  0  0  0  0  0
   -2.2621    3.6301   -0.1355 C   0  0  0  0  0  0  0  0  0  0  0  0
   -0.9014    2.9915    0.1672 C   0  0  0  0  0  0  0  0  0  0  0  0
   -1.0346    1.5379    0.3151 N   0  0  0  0  0  0  0  0  0  0  0  0
   -1.5467    0.9648    1.5696 C   0  0  0  0  0  0  0  0  0  0  0  0
   -2.9628    0.4038    1.4228 C   0  0  0  0  0  0  0  0  0  0  0  0
   -2.9632   -0.7222    0.5466 O   0  0  0  0  0  0  0  0  0  0  0  0
   -4.0173   -1.6421    0.4021 C   0  0  0  0  0  0  0  0  0  0  0  0
   -5.1034   -1.6930    1.3018 C   0  0  0  0  0  0  0  0  0  0  0  0
   -6.0946   -2.6672    1.1574 C   0  0  0  0  0  0  0  0  0  0  0  0
   -6.0217   -3.5924    0.1137 C   0  0  0  0  0  0  0  0  0  0  0  0
   -4.9668   -3.5358   -0.8008 C   0  0  0  0  0  0  0  0  0  0  0  0
   -3.9721   -2.5539   -0.6749 C   0  0  0  0  0  0  0  0  0  0  0  0
   -2.8707   -2.4642   -1.7001 C   0  0  0  0  0  0  0  0  0  0  0  0
   -1.5942   -3.1988   -1.2435 C   0  0  0  0  0  0  0  0  0  0  0  0
   -0.3103   -2.4206   -1.6056 C   0  0  0  0  0  0  0  0  0  0  0  0
    0.2641   -1.6033   -0.4173 C   0  0  0  0  0  0  0  0  0  0  0  0
    0.6488   -0.1271   -0.7617 C   0  0  0  0  0  0  0  0  0  0  0  0
    1.6230    0.4451    0.3132 C   0  0  0  0  0  0  0  0  0  0  0  0
    2.9607   -0.1210    0.1477 N   0  0  0  0  0  0  0  0  0  0  0  0
    3.7561   -0.4741    1.2983 C   0  0  0  0  0  0  0  0  0  0  0  0
    3.1914   -0.9715    2.3110 O   0  0  0  0  0  0  0  0  0  0  0  0
    5.2575   -0.3345    1.2846 C   0  0  0  0  0  0  0  0  0  0  0  0
    5.8187    0.0324    2.6623 C   0  0  0  0  0  0  0  0  0  0  0  0
    7.2077    0.2851    2.5576 O   0  0  0  0  0  0  0  0  0  0  0  0
    7.9473   -0.8036    3.0631 C   0  0  0  0  0  0  0  0  0  0  0  0
    3.5227   -0.0962   -1.2003 C   0  0  0  0  0  0  0  0  0  0  0  0
    2.4936   -0.6681   -2.1706 C   0  0  0  0  0  0  0  0  0  0  0  0
    1.2403   -0.0102   -2.0582 O   0  0  0  0  0  0  0  0  0  0  0  0
   -0.6313    0.7051   -0.7882 C   0  0  0  0  0  0  0  0  0  0  0  0
   -1.3351    0.7133   -1.8316 O   0  0  0  0  0  0  0  0  0  0  0  0
   -1.9955    4.9462   -2.5530 H   0  0  0  0  0  0  0  0  0  0  0  0
   -0.4211    5.2331   -1.7023 H   0  0  0  0  0  0  0  0  0  0  0  0
   -1.5914    6.5779   -1.9078 H   0  0  0  0  0  0  0  0  0  0  0  0
   -1.6129    5.6325    0.4468 H   0  0  0  0  0  0  0  0  0  0  0  0
   -3.1971    5.5564   -0.3979 H   0  0  0  0  0  0  0  0  0  0  0  0
   -2.9271    3.4701    0.7383 H   0  0  0  0  0  0  0  0  0  0  0  0
   -2.7324    3.1304   -1.0088 H   0  0  0  0  0  0  0  0  0  0  0  0
   -0.1872    3.2150   -0.6533 H   0  0  0  0  0  0  0  0  0  0  0  0
   -0.4738    3.4269    1.0961 H   0  0  0  0  0  0  0  0  0  0  0  0
   -1.5665    1.7457    2.3619 H   0  0  0  0  0  0  0  0  0  0  0  0
   -0.8789    0.1619    1.9361 H   0  0  0  0  0  0  0  0  0  0  0  0
   -3.6527    1.1796    1.0274 H   0  0  0  0  0  0  0  0  0  0  0  0
   -3.2969    0.0988    2.4357 H   0  0  0  0  0  0  0  0  0  0  0  0
   -5.1916   -0.9955    2.1230 H   0  0  0  0  0  0  0  0  0  0  0  0
   -6.9168   -2.7081    1.8630 H   0  0  0  0  0  0  0  0  0  0  0  0
   -6.7882   -4.3512    0.0086 H   0  0  0  0  0  0  0  0  0  0  0  0
   -4.9306   -4.2523   -1.6138 H   0  0  0  0  0  0  0  0  0  0  0  0
   -3.2105   -2.8864   -2.6744 H   0  0  0  0  0  0  0  0  0  0  0  0
   -2.6743   -1.3906   -1.8996 H   0  0  0  0  0  0  0  0  0  0  0  0
   -1.5665   -4.1882   -1.7520 H   0  0  0  0  0  0  0  0  0  0  0  0
   -1.6164   -3.4264   -0.1536 H   0  0  0  0  0  0  0  0  0  0  0  0
    0.4591   -3.1590   -1.9217 H   0  0  0  0  0  0  0  0  0  0  0  0
   -0.4890   -1.7805   -2.4974 H   0  0  0  0  0  0  0  0  0  0  0  0
   -0.4454   -1.5942    0.4358 H   0  0  0  0  0  0  0  0  0  0  0  0
    1.1553   -2.1474   -0.0342 H   0  0  0  0  0  0  0  0  0  0  0  0
    1.2445    0.2381    1.3330 H   0  0  0  0  0  0  0  0  0  0  0  0
    1.7024    1.5484    0.2040 H   0  0  0  0  0  0  0  0  0  0  0  0
    5.5514    0.4660    0.5704 H   0  0  0  0  0  0  0  0  0  0  0  0
    5.7055   -1.2924    0.9412 H   0  0  0  0  0  0  0  0  0  0  0  0
    5.3307    0.9720    3.0035 H   0  0  0  0  0  0  0  0  0  0  0  0
    5.5553   -0.7561    3.4105 H   0  0  0  0  0  0  0  0  0  0  0  0
    9.0214   -0.6377    2.8411 H   0  0  0  0  0  0  0  0  0  0  0  0
    7.8319   -0.8672    4.1669 H   0  0  0  0  0  0  0  0  0  0  0  0
    7.6474   -1.7627    2.5893 H   0  0  0  0  0  0  0  0  0  0  0  0
    3.7677    0.9518   -1.4802 H   0  0  0  0  0  0  0  0  0  0  0  0
    4.4465   -0.7104   -1.2609 H   0  0  0  0  0  0  0  0  0  0  0  0
    2.3985   -1.7661   -2.0278 H   0  0  0  0  0  0  0  0  0  0  0  0
    2.8703   -0.5182   -3.2041 H   0  0  0  0  0  0  0  0  0  0  0  0
  1  2  1  0
  2  3  1  0
  3  4  1  0
  4  5  1  0
  5  6  1  0
  6  7  1  0
  7  8  1  0
  8  9  1  0
  9 10  2  0
 10 11  1  0
 11 12  2  0
 12 13  1  0
 13 14  2  0
 14 15  1  0
 15 16  1  0
 16 17  1  0
 17 18  1  0
 18 19  1  0
 19 20  1  0
 20 21  1  0
 21 22  1  0
 22 23  2  0
 22 24  1  0
 24 25  1  0
 25 26  1  0
 26 27  1  0
 21 28  1  0
 28 29  1  0
 29 30  1  0
 19 31  1  0
 31 32  2  0
 31  5  1  0
 14  9  1  0
 30 19  1  0
  1 33  1  0
  1 34  1  0
  1 35  1  0
  2 36  1  0
  2 37  1  0
  3 38  1  0
  3 39  1  0
  4 40  1  0
  4 41  1  0
  6 42  1  0
  6 43  1  0
  7 44  1  0
  7 45  1  0
 10 46  1  0
 11 47  1  0
 12 48  1  0
 13 49  1  0
 15 50  1  0
 15 51  1  0
 16 52  1  0
 16 53  1  0
 17 54  1  0
 17 55  1  0
 18 56  1  0
 18 57  1  0
 20 58  1  0
 20 59  1  0
 24 60  1  0
 24 61  1  0
 25 62  1  0
 25 63  1  0
 27 64  1  0
 27 65  1  0
 27 66  1  0
 28 67  1  0
 28 68  1  0
 29 69  1  0
 29 70  1  0
M  END
$$$$
