
     RDKit          3D

 84 86  0  0  0  0  0  0  0  0999 V2000
   10.0391    1.7728   -1.3313 C   0  0  0  0  0  0  0  0  0  0  0  0
    8.7990    1.1285   -1.0665 O   0  0  0  0  0  0  0  0  0  0  0  0
    8.6702   -0.1080   -0.4139 C   0  0  0  0  0  0  0  0  0  0  0  0
    9.7861   -0.8145    0.0772 C   0  0  0  0  0  0  0  0  0  0  0  0
    9.6163   -2.0411    0.7229 C   0  0  0  0  0  0  0  0  0  0  0  0
    8.3385   -2.5750    0.8879 C   0  0  0  0  0  0  0  0  0  0  0  0
    7.2253   -1.8852    0.4052 C   0  0  0  0  0  0  0  0  0  0  0  0
    7.3822   -0.6459   -0.2512 C   0  0  0  0  0  0  0  0  0  0  0  0
    6.2915    0.0784   -0.7649 O   0  0  0  0  0  0  0  0  0  0  0  0
    4.9181   -0.3006   -0.6555 C   0  0  0  0  0  0  0  0  0  0  0  0
    4.3775    0.0155    0.7427 C   0  0  0  0  0  0  0  0  0  0  0  0
    3.0092   -0.5014    0.8937 N   0  0  0  0  0  0  0  0  0  0  0  0
    2.8200   -1.8410    1.4592 C   0  0  0  0  0  0  0  0  0  0  0  0
    1.8891    0.2781    0.4057 C   0  0  0  0  0  0  0  0  0  0  0  0
    2.1117    1.2858   -0.3190 O   0  0  0  0  0  0  0  0  0  0  0  0
    0.4477   -0.0820    0.7141 C   0  0  0  0  0  0  0  0  0  0  0  0
   -0.3043   -0.4872   -0.5685 C   0  0  0  0  0  0  0  0  0  0  0  0
   -1.7040   -1.0385   -0.2539 C   0  0  0  0  0  0  0  0  0  0  0  0
   -2.5337   -1.2113   -1.5033 C   0  0  0  0  0  0  0  0  0  0  0  0
   -1.9680   -1.6380   -2.5451 O   0  0  0  0  0  0  0  0  0  0  0  0
   -3.9548   -0.9764   -1.5466 N   0  0  0  0  0  0  0  0  0  0  0  0
   -4.8283   -0.6678   -0.4019 C   0  0  0  0  0  0  0  0  0  0  0  0
   -5.7319   -1.8761   -0.0807 C   0  0  0  0  0  0  0  0  0  0  0  0
   -4.9526   -3.1202    0.4114 C   0  0  0  0  0  0  0  0  0  0  0  0
   -4.4027   -2.9272    1.8342 C   0  0  0  0  0  0  0  0  0  0  0  0
   -5.8623   -4.3556    0.3780 C   0  0  0  0  0  0  0  0  0  0  0  0
   -5.6940    0.5320   -0.7289 C   0  0  0  0  0  0  0  0  0  0  0  0
   -6.1778    0.6206   -1.8926 O   0  0  0  0  0  0  0  0  0  0  0  0
   -6.0824    1.5085    0.2692 N   0  0  0  0  0  0  0  0  0  0  0  0
   -7.3385    2.2392    0.0612 C   0  0  0  0  0  0  0  0  0  0  0  0
   -5.2286    1.8638    1.4173 C   0  0  0  0  0  0  0  0  0  0  0  0
   -4.0658    2.7533    0.9740 C   0  0  0  0  0  0  0  0  0  0  0  0
   -3.0620    1.9813    0.3209 O   0  0  0  0  0  0  0  0  0  0  0  0
   -2.1926    2.5505   -0.6111 C   0  0  0  0  0  0  0  0  0  0  0  0
   -2.6853    2.9398   -1.8643 C   0  0  0  0  0  0  0  0  0  0  0  0
   -1.8445    3.5616   -2.7894 C   0  0  0  0  0  0  0  0  0  0  0  0
   -0.5093    3.8088   -2.4628 C   0  0  0  0  0  0  0  0  0  0  0  0
   -0.0074    3.4183   -1.2182 C   0  0  0  0  0  0  0  0  0  0  0  0
   -0.8344    2.7567   -0.2972 C   0  0  0  0  0  0  0  0  0  0  0  0
   -0.2930    2.3770    1.0187 C   0  0  0  0  0  0  0  0  0  0  0  0
    0.0781    3.2870    1.8072 O   0  0  0  0  0  0  0  0  0  0  0  0
   -0.2242    1.0069    1.4483 N   0  0  0  0  0  0  0  0  0  0  0  0
    9.8458    2.7337   -1.8537 H   0  0  0  0  0  0  0  0  0  0  0  0
   10.6681    1.1325   -1.9844 H   0  0  0  0  0  0  0  0  0  0  0  0
   10.5684    1.9878   -0.3799 H   0  0  0  0  0  0  0  0  0  0  0  0
   10.7879   -0.4235   -0.0342 H   0  0  0  0  0  0  0  0  0  0  0  0
   10.4774   -2.5789    1.0977 H   0  0  0  0  0  0  0  0  0  0  0  0
    8.2104   -3.5263    1.3899 H   0  0  0  0  0  0  0  0  0  0  0  0
    6.2509   -2.3281    0.5488 H   0  0  0  0  0  0  0  0  0  0  0  0
    4.3389    0.2813   -1.4037 H   0  0  0  0  0  0  0  0  0  0  0  0
    4.7857   -1.3761   -0.9039 H   0  0  0  0  0  0  0  0  0  0  0  0
    5.0407   -0.4262    1.5171 H   0  0  0  0  0  0  0  0  0  0  0  0
    4.3929    1.1136    0.9135 H   0  0  0  0  0  0  0  0  0  0  0  0
    2.2198   -2.4632    0.7620 H   0  0  0  0  0  0  0  0  0  0  0  0
    3.7918   -2.3567    1.6150 H   0  0  0  0  0  0  0  0  0  0  0  0
    2.3088   -1.7655    2.4412 H   0  0  0  0  0  0  0  0  0  0  0  0
    0.4298   -0.9710    1.3755 H   0  0  0  0  0  0  0  0  0  0  0  0
    0.2775   -1.2802   -1.0891 H   0  0  0  0  0  0  0  0  0  0  0  0
   -0.3760    0.3733   -1.2650 H   0  0  0  0  0  0  0  0  0  0  0  0
   -1.6112   -2.0244    0.2494 H   0  0  0  0  0  0  0  0  0  0  0  0
   -2.1794   -0.3432    0.4525 H   0  0  0  0  0  0  0  0  0  0  0  0
   -4.4219   -1.1567   -2.4649 H   0  0  0  0  0  0  0  0  0  0  0  0
   -4.2380   -0.4415    0.4866 H   0  0  0  0  0  0  0  0  0  0  0  0
   -6.3008   -2.1382   -1.0010 H   0  0  0  0  0  0  0  0  0  0  0  0
   -6.4784   -1.5855    0.6935 H   0  0  0  0  0  0  0  0  0  0  0  0
   -4.0993   -3.3185   -0.2724 H   0  0  0  0  0  0  0  0  0  0  0  0
   -3.8884   -3.8520    2.1729 H   0  0  0  0  0  0  0  0  0  0  0  0
   -5.2254   -2.6980    2.5446 H   0  0  0  0  0  0  0  0  0  0  0  0
   -3.6572   -2.1084    1.8687 H   0  0  0  0  0  0  0  0  0  0  0  0
   -5.3016   -5.2569    0.7106 H   0  0  0  0  0  0  0  0  0  0  0  0
   -6.7417   -4.2132    1.0437 H   0  0  0  0  0  0  0  0  0  0  0  0
   -6.2228   -4.5410   -0.6567 H   0  0  0  0  0  0  0  0  0  0  0  0
   -7.5379    2.9665    0.8751 H   0  0  0  0  0  0  0  0  0  0  0  0
   -7.2928    2.8030   -0.8946 H   0  0  0  0  0  0  0  0  0  0  0  0
   -8.1839    1.5194    0.0207 H   0  0  0  0  0  0  0  0  0  0  0  0
   -4.8720    0.9653    1.9573 H   0  0  0  0  0  0  0  0  0  0  0  0
   -5.8171    2.4292    2.1719 H   0  0  0  0  0  0  0  0  0  0  0  0
   -4.4517    3.5535    0.3027 H   0  0  0  0  0  0  0  0  0  0  0  0
   -3.6113    3.2399    1.8642 H   0  0  0  0  0  0  0  0  0  0  0  0
   -3.7236    2.7668   -2.1155 H   0  0  0  0  0  0  0  0  0  0  0  0
   -2.2304    3.8647   -3.7552 H   0  0  0  0  0  0  0  0  0  0  0  0
    0.1365    4.3055   -3.1736 H   0  0  0  0  0  0  0  0  0  0  0  0
    1.0260    3.6320   -0.9727 H   0  0  0  0  0  0  0  0  0  0  0  0
   -0.4114    0.8341    2.4631 H   0  0  0  0  0  0  0  0  0  0  0  0
  1  2  1  0
  2  3  1  0
  3  4  2  0
  4  5  1  0
  5  6  2  0
  6  7  1  0
  7  8  2  0
  8  9  1  0
  9 10  1  0
 10 11  1  0
 11 12  1  0
 12 13  1  0
 12 14  1  0
 14 15  2  0
 14 16  1  0
 16 17  1  0
 17 18  1  0
 18 19  1  0
 19 20  2  0
 19 21  1  0
 21 22  1  0
 22 23  1  0
 23 24  1  0
 24 25  1  0
 24 26  1  0
 22 27  1  0
 27 28  2  0
 27 29  1  0
 29 30  1  0
 29 31  1  0
 31 32  1  0
 32 33  1  0
 33 34  1  0
 34 35  2  0
 35 36  1  0
 36 37  2  0
 37 38  1  0
 38 39  2  0
 39 40  1  0
 40 41  2  0
 40 42  1  0
  8  3  1  0
 42 16  1  0
 39 34  1  0
  1 43  1  0
  1 44  1  0
  1 45  1  0
  4 46  1  0
  5 47  1  0
  6 48  1  0
  7 49  1  0
 10 50  1  0
 10 51  1  0
 11 52  1  0
 11 53  1  0
 13 54  1  0
 13 55  1  0
 13 56  1  0
 16 57  1  0
 17 58  1  0
 17 59  1  0
 18 60  1  0
 18 61  1  0
 21 62  1  0
 22 63  1  0
 23 64  1  0
 23 65  1  0
 24 66  1  0
 25 67  1  0
 25 68  1  0
 25 69  1  0
 26 70  1  0
 26 71  1  0
 26 72  1  0
 30 73  1  0
 30 74  1  0
 30 75  1  0
 31 76  1  0
 31 77  1  0
 32 78  1  0
 32 79  1  0
 35 80  1  0
 36 81  1  0
 37 82  1  0
 38 83  1  0
 42 84  1  0
M  END
$$$$
