
     RDKit          3D

 84 86  0  0  0  0  0  0  0  0999 V2000
    8.9074   -1.9096   -3.2679 C   0  0  0  0  0  0  0  0  0  0  0  0
    8.6134   -2.0945   -1.8869 O   0  0  0  0  0  0  0  0  0  0  0  0
    7.7967   -1.2422   -1.1274 C   0  0  0  0  0  0  0  0  0  0  0  0
    7.1957   -0.0946   -1.6799 C   0  0  0  0  0  0  0  0  0  0  0  0
    6.3872    0.7291   -0.8940 C   0  0  0  0  0  0  0  0  0  0  0  0
    6.1740    0.4288    0.4575 C   0  0  0  0  0  0  0  0  0  0  0  0
    5.2603    1.2883    1.2920 C   0  0  0  0  0  0  0  0  0  0  0  0
    3.8191    0.7804    1.1941 C   0  0  0  0  0  0  0  0  0  0  0  0
    2.8748    1.6039    2.0755 C   0  0  0  0  0  0  0  0  0  0  0  0
    1.5127    1.0894    1.9653 N   0  0  0  0  0  0  0  0  0  0  0  0
    0.7132    1.2790    0.7900 C   0  0  0  0  0  0  0  0  0  0  0  0
    1.0665    2.1182   -0.0849 O   0  0  0  0  0  0  0  0  0  0  0  0
   -0.5471    0.4748    0.6014 C   0  0  0  0  0  0  0  0  0  0  0  0
   -1.7108    0.9802    1.4739 C   0  0  0  0  0  0  0  0  0  0  0  0
   -2.2138    2.3602    1.1148 C   0  0  0  0  0  0  0  0  0  0  0  0
   -1.3973    3.3204    1.1130 O   0  0  0  0  0  0  0  0  0  0  0  0
   -3.6063    2.6447    0.8872 N   0  0  0  0  0  0  0  0  0  0  0  0
   -4.6231    1.6388    0.5391 C   0  0  0  0  0  0  0  0  0  0  0  0
   -6.0490    2.2294    0.6650 C   0  0  0  0  0  0  0  0  0  0  0  0
   -6.3902    3.3466   -0.3646 C   0  0  0  0  0  0  0  0  0  0  0  0
   -7.1885    2.7911   -1.5551 C   0  0  0  0  0  0  0  0  0  0  0  0
   -7.1884    4.4747    0.3058 C   0  0  0  0  0  0  0  0  0  0  0  0
   -4.3707    1.0913   -0.8514 C   0  0  0  0  0  0  0  0  0  0  0  0
   -3.8112    1.8467   -1.6950 O   0  0  0  0  0  0  0  0  0  0  0  0
   -4.8200   -0.2206   -1.2697 N   0  0  0  0  0  0  0  0  0  0  0  0
   -4.6809   -0.5871   -2.6837 C   0  0  0  0  0  0  0  0  0  0  0  0
   -5.2924   -1.2444   -0.3225 C   0  0  0  0  0  0  0  0  0  0  0  0
   -4.1435   -2.1428    0.1795 C   0  0  0  0  0  0  0  0  0  0  0  0
   -2.8988   -1.7708   -0.4123 O   0  0  0  0  0  0  0  0  0  0  0  0
   -1.7391   -2.5636   -0.4443 C   0  0  0  0  0  0  0  0  0  0  0  0
   -1.6810   -3.8370    0.1564 C   0  0  0  0  0  0  0  0  0  0  0  0
   -0.5252   -4.6133    0.0494 C   0  0  0  0  0  0  0  0  0  0  0  0
    0.5807   -4.1343   -0.6557 C   0  0  0  0  0  0  0  0  0  0  0  0
    0.5418   -2.8661   -1.2395 C   0  0  0  0  0  0  0  0  0  0  0  0
   -0.6054   -2.0696   -1.1203 C   0  0  0  0  0  0  0  0  0  0  0  0
   -0.5987   -0.6935   -1.6553 C   0  0  0  0  0  0  0  0  0  0  0  0
   -0.2947   -0.4972   -2.8621 O   0  0  0  0  0  0  0  0  0  0  0  0
   -0.9273    0.4254   -0.8176 N   0  0  0  0  0  0  0  0  0  0  0  0
    6.7610   -0.7207    1.0083 C   0  0  0  0  0  0  0  0  0  0  0  0
    7.5776   -1.5576    0.2226 C   0  0  0  0  0  0  0  0  0  0  0  0
    8.1834   -2.7118    0.7459 O   0  0  0  0  0  0  0  0  0  0  0  0
    8.0492   -3.1540    2.0930 C   0  0  0  0  0  0  0  0  0  0  0  0
    7.9714   -1.9377   -3.8653 H   0  0  0  0  0  0  0  0  0  0  0  0
    9.4329   -0.9430   -3.4209 H   0  0  0  0  0  0  0  0  0  0  0  0
    9.5681   -2.7321   -3.6098 H   0  0  0  0  0  0  0  0  0  0  0  0
    7.3416    0.1661   -2.7187 H   0  0  0  0  0  0  0  0  0  0  0  0
    5.9225    1.6004   -1.3406 H   0  0  0  0  0  0  0  0  0  0  0  0
    5.5926    1.2704    2.3549 H   0  0  0  0  0  0  0  0  0  0  0  0
    5.3068    2.3446    0.9428 H   0  0  0  0  0  0  0  0  0  0  0  0
    3.7795   -0.2845    1.5154 H   0  0  0  0  0  0  0  0  0  0  0  0
    3.4849    0.8381    0.1340 H   0  0  0  0  0  0  0  0  0  0  0  0
    2.8991    2.6751    1.7785 H   0  0  0  0  0  0  0  0  0  0  0  0
    3.2038    1.5333    3.1352 H   0  0  0  0  0  0  0  0  0  0  0  0
    1.1233    0.5337    2.7607 H   0  0  0  0  0  0  0  0  0  0  0  0
   -0.3170   -0.5511    0.9624 H   0  0  0  0  0  0  0  0  0  0  0  0
   -2.5134    0.2258    1.4132 H   0  0  0  0  0  0  0  0  0  0  0  0
   -1.3887    0.9985    2.5370 H   0  0  0  0  0  0  0  0  0  0  0  0
   -3.8847    3.6499    0.9329 H   0  0  0  0  0  0  0  0  0  0  0  0
   -4.5680    0.8277    1.2903 H   0  0  0  0  0  0  0  0  0  0  0  0
   -6.7948    1.4067    0.5936 H   0  0  0  0  0  0  0  0  0  0  0  0
   -6.1468    2.6202    1.7037 H   0  0  0  0  0  0  0  0  0  0  0  0
   -5.4590    3.8030   -0.7634 H   0  0  0  0  0  0  0  0  0  0  0  0
   -7.3517    3.5861   -2.3113 H   0  0  0  0  0  0  0  0  0  0  0  0
   -6.6406    1.9645   -2.0457 H   0  0  0  0  0  0  0  0  0  0  0  0
   -8.1767    2.4130   -1.2187 H   0  0  0  0  0  0  0  0  0  0  0  0
   -6.5895    4.9327    1.1232 H   0  0  0  0  0  0  0  0  0  0  0  0
   -8.1368    4.0829    0.7319 H   0  0  0  0  0  0  0  0  0  0  0  0
   -7.4275    5.2696   -0.4317 H   0  0  0  0  0  0  0  0  0  0  0  0
   -3.6168   -0.4996   -2.9917 H   0  0  0  0  0  0  0  0  0  0  0  0
   -5.3027    0.0885   -3.3074 H   0  0  0  0  0  0  0  0  0  0  0  0
   -5.0087   -1.6303   -2.8698 H   0  0  0  0  0  0  0  0  0  0  0  0
   -6.0554   -1.8813   -0.8226 H   0  0  0  0  0  0  0  0  0  0  0  0
   -5.8373   -0.7923    0.5305 H   0  0  0  0  0  0  0  0  0  0  0  0
   -4.0581   -2.0612    1.2856 H   0  0  0  0  0  0  0  0  0  0  0  0
   -4.3873   -3.1957   -0.0831 H   0  0  0  0  0  0  0  0  0  0  0  0
   -2.5205   -4.2333    0.7112 H   0  0  0  0  0  0  0  0  0  0  0  0
   -0.4872   -5.5913    0.5098 H   0  0  0  0  0  0  0  0  0  0  0  0
    1.4727   -4.7407   -0.7366 H   0  0  0  0  0  0  0  0  0  0  0  0
    1.4161   -2.4937   -1.7609 H   0  0  0  0  0  0  0  0  0  0  0  0
   -1.1898    1.3192   -1.2913 H   0  0  0  0  0  0  0  0  0  0  0  0
    6.5728   -0.9583    2.0463 H   0  0  0  0  0  0  0  0  0  0  0  0
    8.4386   -2.3822    2.7912 H   0  0  0  0  0  0  0  0  0  0  0  0
    6.9842   -3.3731    2.3177 H   0  0  0  0  0  0  0  0  0  0  0  0
    8.6366   -4.0848    2.2296 H   0  0  0  0  0  0  0  0  0  0  0  0
  1  2  1  0
  2  3  1  0
  3  4  2  0
  4  5  1  0
  5  6  2  0
  6  7  1  0
  7  8  1  0
  8  9  1  0
  9 10  1  0
 10 11  1  0
 11 12  2  0
 11 13  1  0
 13 14  1  0
 14 15  1  0
 15 16  2  0
 15 17  1  0
 17 18  1  0
 18 19  1  0
 19 20  1  0
 20 21  1  0
 20 22  1  0
 18 23  1  0
 23 24  2  0
 23 25  1  0
 25 26  1  0
 25 27  1  0
 27 28  1  0
 28 29  1  0
 29 30  1  0
 30 31  2  0
 31 32  1  0
 32 33  2  0
 33 34  1  0
 34 35  2  0
 35 36  1  0
 36 37  2  0
 36 38  1  0
  6 39  1  0
 39 40  2  0
 40 41  1  0
 41 42  1  0
 40  3  1  0
 38 13  1  0
 35 30  1  0
  1 43  1  0
  1 44  1  0
  1 45  1  0
  4 46  1  0
  5 47  1  0
  7 48  1  0
  7 49  1  0
  8 50  1  0
  8 51  1  0
  9 52  1  0
  9 53  1  0
 10 54  1  0
 13 55  1  0
 14 56  1  0
 14 57  1  0
 17 58  1  0
 18 59  1  0
 19 60  1  0
 19 61  1  0
 20 62  1  0
 21 63  1  0
 21 64  1  0
 21 65  1  0
 22 66  1  0
 22 67  1  0
 22 68  1  0
 26 69  1  0
 26 70  1  0
 26 71  1  0
 27 72  1  0
 27 73  1  0
 28 74  1  0
 28 75  1  0
 31 76  1  0
 32 77  1  0
 33 78  1  0
 34 79  1  0
 38 80  1  0
 39 81  1  0
 42 82  1  0
 42 83  1  0
 42 84  1  0
M  END
$$$$
