
     RDKit          3D

 72 75  0  0  0  0  0  0  0  0999 V2000
   -2.2468    5.7408    1.3951 C   0  0  0  0  0  0  0  0  0  0  0  0
   -2.3283    4.2834    1.8496 C   0  0  0  0  0  0  0  0  0  0  0  0
   -2.3339    3.3281    0.6507 C   0  0  0  0  0  0  0  0  0  0  0  0
   -2.5611    1.8819    1.1037 C   0  0  0  0  0  0  0  0  0  0  0  0
   -2.5236    0.9605   -0.0460 N   0  0  0  0  0  0  0  0  0  0  0  0
   -3.8026    0.4245   -0.5478 C   0  0  0  0  0  0  0  0  0  0  0  0
   -4.3705   -0.6582    0.3936 C   0  0  0  0  0  0  0  0  0  0  0  0
   -4.3624   -1.9672   -0.1819 O   0  0  0  0  0  0  0  0  0  0  0  0
   -3.2638   -2.5923   -0.7869 C   0  0  0  0  0  0  0  0  0  0  0  0
   -3.2188   -2.6210   -2.1876 C   0  0  0  0  0  0  0  0  0  0  0  0
   -2.2421   -3.3585   -2.8575 C   0  0  0  0  0  0  0  0  0  0  0  0
   -1.3108   -4.0991   -2.1351 C   0  0  0  0  0  0  0  0  0  0  0  0
   -1.3375   -4.0822   -0.7397 C   0  0  0  0  0  0  0  0  0  0  0  0
   -2.2855   -3.3039   -0.0469 C   0  0  0  0  0  0  0  0  0  0  0  0
   -2.2338   -3.2848    1.4620 C   0  0  0  0  0  0  0  0  0  0  0  0
   -0.9160   -2.6875    2.0068 C   0  0  0  0  0  0  0  0  0  0  0  0
   -0.7256   -1.1960    1.6687 C   0  0  0  0  0  0  0  0  0  0  0  0
    0.0690   -0.9760    0.3633 C   0  0  0  0  0  0  0  0  0  0  0  0
    0.0607    0.4861   -0.1834 C   0  0  0  0  0  0  0  0  0  0  0  0
    1.1486    0.6188   -1.2963 C   0  0  0  0  0  0  0  0  0  0  0  0
    2.4963    0.6538   -0.7304 N   0  0  0  0  0  0  0  0  0  0  0  0
    3.6132    0.3465   -1.5855 C   0  0  0  0  0  0  0  0  0  0  0  0
    3.5285    0.5749   -2.8227 O   0  0  0  0  0  0  0  0  0  0  0  0
    4.8706   -0.2161   -1.0476 C   0  0  0  0  0  0  0  0  0  0  0  0
    5.0463   -1.1332   -0.0242 C   0  0  0  0  0  0  0  0  0  0  0  0
    3.9825   -1.8137    0.7699 C   0  0  0  0  0  0  0  0  0  0  0  0
    6.3557   -1.4259    0.0940 N   0  0  0  0  0  0  0  0  0  0  0  0
    6.9872   -0.7325   -0.8077 O   0  0  0  0  0  0  0  0  0  0  0  0
    6.1551   -0.0028   -1.5151 C   0  0  0  0  0  0  0  0  0  0  0  0
    6.5730    0.8930   -2.6381 C   0  0  0  0  0  0  0  0  0  0  0  0
    2.7040    1.5530    0.4023 C   0  0  0  0  0  0  0  0  0  0  0  0
    1.5842    1.3656    1.4241 C   0  0  0  0  0  0  0  0  0  0  0  0
    0.2971    1.4578    0.8331 O   0  0  0  0  0  0  0  0  0  0  0  0
   -1.3166    0.7592   -0.8214 C   0  0  0  0  0  0  0  0  0  0  0  0
   -1.4173    0.7567   -2.0836 O   0  0  0  0  0  0  0  0  0  0  0  0
   -2.2548    6.4060    2.2840 H   0  0  0  0  0  0  0  0  0  0  0  0
   -1.3074    5.9150    0.8257 H   0  0  0  0  0  0  0  0  0  0  0  0
   -3.1203    5.9944    0.7543 H   0  0  0  0  0  0  0  0  0  0  0  0
   -1.4500    4.0581    2.4987 H   0  0  0  0  0  0  0  0  0  0  0  0
   -3.2573    4.1475    2.4494 H   0  0  0  0  0  0  0  0  0  0  0  0
   -3.1517    3.6096   -0.0502 H   0  0  0  0  0  0  0  0  0  0  0  0
   -1.3647    3.4132    0.1119 H   0  0  0  0  0  0  0  0  0  0  0  0
   -1.8258    1.5805    1.8741 H   0  0  0  0  0  0  0  0  0  0  0  0
   -3.5546    1.8283    1.6014 H   0  0  0  0  0  0  0  0  0  0  0  0
   -4.5339    1.2591   -0.6245 H   0  0  0  0  0  0  0  0  0  0  0  0
   -3.7048    0.0289   -1.5782 H   0  0  0  0  0  0  0  0  0  0  0  0
   -3.8657   -0.6659    1.3759 H   0  0  0  0  0  0  0  0  0  0  0  0
   -5.4273   -0.4052    0.6139 H   0  0  0  0  0  0  0  0  0  0  0  0
   -3.9716   -2.1010   -2.7634 H   0  0  0  0  0  0  0  0  0  0  0  0
   -2.2276   -3.3789   -3.9396 H   0  0  0  0  0  0  0  0  0  0  0  0
   -0.5712   -4.6939   -2.6582 H   0  0  0  0  0  0  0  0  0  0  0  0
   -0.6081   -4.6694   -0.1962 H   0  0  0  0  0  0  0  0  0  0  0  0
   -2.3206   -4.3326    1.8216 H   0  0  0  0  0  0  0  0  0  0  0  0
   -3.0962   -2.7433    1.8982 H   0  0  0  0  0  0  0  0  0  0  0  0
   -0.0410   -3.2800    1.6589 H   0  0  0  0  0  0  0  0  0  0  0  0
   -0.9335   -2.7977    3.1151 H   0  0  0  0  0  0  0  0  0  0  0  0
   -0.1907   -0.7085    2.5087 H   0  0  0  0  0  0  0  0  0  0  0  0
   -1.7088   -0.7194    1.6186 H   0  0  0  0  0  0  0  0  0  0  0  0
    1.1102   -1.3077    0.5423 H   0  0  0  0  0  0  0  0  0  0  0  0
   -0.3152   -1.6358   -0.4373 H   0  0  0  0  0  0  0  0  0  0  0  0
    1.0621   -0.2308   -2.0108 H   0  0  0  0  0  0  0  0  0  0  0  0
    0.9955    1.5614   -1.8678 H   0  0  0  0  0  0  0  0  0  0  0  0
    4.4334   -2.5692    1.4462 H   0  0  0  0  0  0  0  0  0  0  0  0
    3.4430   -1.0735    1.3910 H   0  0  0  0  0  0  0  0  0  0  0  0
    3.2707   -2.3238    0.0847 H   0  0  0  0  0  0  0  0  0  0  0  0
    7.6796    0.9874   -2.6567 H   0  0  0  0  0  0  0  0  0  0  0  0
    6.1292    1.9004   -2.5026 H   0  0  0  0  0  0  0  0  0  0  0  0
    6.2318    0.4651   -3.6033 H   0  0  0  0  0  0  0  0  0  0  0  0
    2.7016    2.6040    0.0414 H   0  0  0  0  0  0  0  0  0  0  0  0
    3.6850    1.3576    0.8891 H   0  0  0  0  0  0  0  0  0  0  0  0
    1.7151    0.4145    1.9715 H   0  0  0  0  0  0  0  0  0  0  0  0
    1.6706    2.1722    2.1812 H   0  0  0  0  0  0  0  0  0  0  0  0
  1  2  1  0
  2  3  1  0
  3  4  1  0
  4  5  1  0
  5  6  1  0
  6  7  1  0
  7  8  1  0
  8  9  1  0
  9 10  2  0
 10 11  1  0
 11 12  2  0
 12 13  1  0
 13 14  2  0
 14 15  1  0
 15 16  1  0
 16 17  1  0
 17 18  1  0
 18 19  1  0
 19 20  1  0
 20 21  1  0
 21 22  1  0
 22 23  2  0
 22 24  1  0
 24 25  1  0
 25 26  1  0
 25 27  2  0
 27 28  1  0
 28 29  1  0
 29 30  1  0
 21 31  1  0
 31 32  1  0
 32 33  1  0
 19 34  1  0
 34 35  2  0
 34  5  1  0
 14  9  1  0
 33 19  1  0
 29 24  2  0
  1 36  1  0
  1 37  1  0
  1 38  1  0
  2 39  1  0
  2 40  1  0
  3 41  1  0
  3 42  1  0
  4 43  1  0
  4 44  1  0
  6 45  1  0
  6 46  1  0
  7 47  1  0
  7 48  1  0
 10 49  1  0
 11 50  1  0
 12 51  1  0
 13 52  1  0
 15 53  1  0
 15 54  1  0
 16 55  1  0
 16 56  1  0
 17 57  1  0
 17 58  1  0
 18 59  1  0
 18 60  1  0
 20 61  1  0
 20 62  1  0
 26 63  1  0
 26 64  1  0
 26 65  1  0
 30 66  1  0
 30 67  1  0
 30 68  1  0
 31 69  1  0
 31 70  1  0
 32 71  1  0
 32 72  1  0
M  END
$$$$
