
     RDKit          3D

 74 76  0  0  0  0  0  0  0  0999 V2000
   -1.8391    2.4988    0.3549 C   0  0  0  0  0  0  0  0  0  0  0  0
   -2.5773    1.2456    0.8653 C   0  0  0  0  0  0  0  0  0  0  0  0
   -1.6105    0.2708    1.5533 C   0  0  0  0  0  0  0  0  0  0  0  0
   -3.4262    0.5525   -0.1593 N   0  0  0  0  0  0  0  0  0  0  0  0
   -4.7627    1.1947   -0.2853 C   0  0  0  0  0  0  0  0  0  0  0  0
   -5.6554    0.8661    0.8912 C   0  0  0  0  0  0  0  0  0  0  0  0
   -5.6057    1.6076    1.9117 O   0  0  0  0  0  0  0  0  0  0  0  0
   -6.5562   -0.2576    0.9054 N   0  0  0  0  0  0  0  0  0  0  0  0
   -7.0223   -0.9834   -0.2767 C   0  0  0  0  0  0  0  0  0  0  0  0
   -5.9877   -2.0002   -0.7716 C   0  0  0  0  0  0  0  0  0  0  0  0
   -5.5325   -2.9675    0.3351 C   0  0  0  0  0  0  0  0  0  0  0  0
   -4.5887   -4.0557   -0.2088 C   0  0  0  0  0  0  0  0  0  0  0  0
   -3.1070   -3.6654   -0.1750 C   0  0  0  0  0  0  0  0  0  0  0  0
   -2.9007   -2.3812   -0.7644 O   0  0  0  0  0  0  0  0  0  0  0  0
   -1.6426   -1.8199   -1.0401 C   0  0  0  0  0  0  0  0  0  0  0  0
   -0.4541   -2.5617   -0.9010 C   0  0  0  0  0  0  0  0  0  0  0  0
    0.7768   -2.0037   -1.2485 C   0  0  0  0  0  0  0  0  0  0  0  0
    0.8438   -0.7054   -1.7671 C   0  0  0  0  0  0  0  0  0  0  0  0
    2.1752   -0.0957   -2.1169 C   0  0  0  0  0  0  0  0  0  0  0  0
    2.7307    0.7033   -0.9287 C   0  0  0  0  0  0  0  0  0  0  0  0
    4.1159    1.2513   -1.1889 C   0  0  0  0  0  0  0  0  0  0  0  0
    4.5053    1.3933   -2.3812 O   0  0  0  0  0  0  0  0  0  0  0  0
    4.9728    1.6704   -0.1006 N   0  0  0  0  0  0  0  0  0  0  0  0
    4.4374    1.7566    1.2691 C   0  0  0  0  0  0  0  0  0  0  0  0
    5.4446    2.3905    2.2354 C   0  0  0  0  0  0  0  0  0  0  0  0
    6.7972    1.6849    2.1186 C   0  0  0  0  0  0  0  0  0  0  0  0
    7.3475    1.6576    0.6620 C   0  0  0  0  0  0  0  0  0  0  0  0
    7.8413    0.2461    0.2790 C   0  0  0  0  0  0  0  0  0  0  0  0
    8.8217   -0.2004    1.1757 O   0  0  0  0  0  0  0  0  0  0  0  0
    6.3282    2.1764   -0.3785 C   0  0  0  0  0  0  0  0  0  0  0  0
   -0.3300    0.0519   -1.8755 C   0  0  0  0  0  0  0  0  0  0  0  0
   -1.5691   -0.4798   -1.4769 C   0  0  0  0  0  0  0  0  0  0  0  0
   -2.8009    0.3988   -1.5025 C   0  0  0  0  0  0  0  0  0  0  0  0
   -1.0005    2.2346   -0.3192 H   0  0  0  0  0  0  0  0  0  0  0  0
   -2.5353    3.1788   -0.1785 H   0  0  0  0  0  0  0  0  0  0  0  0
   -1.4093    3.0532    1.2172 H   0  0  0  0  0  0  0  0  0  0  0  0
   -3.2213    1.6070    1.6901 H   0  0  0  0  0  0  0  0  0  0  0  0
   -1.2734    0.6942    2.5246 H   0  0  0  0  0  0  0  0  0  0  0  0
   -2.1182   -0.6982    1.7512 H   0  0  0  0  0  0  0  0  0  0  0  0
   -0.7034    0.0879    0.9438 H   0  0  0  0  0  0  0  0  0  0  0  0
   -5.2770    0.8880   -1.2164 H   0  0  0  0  0  0  0  0  0  0  0  0
   -4.6626    2.2983   -0.3657 H   0  0  0  0  0  0  0  0  0  0  0  0
   -7.0422   -0.4671    1.8071 H   0  0  0  0  0  0  0  0  0  0  0  0
   -7.2806   -0.2697   -1.0874 H   0  0  0  0  0  0  0  0  0  0  0  0
   -7.9578   -1.5280   -0.0192 H   0  0  0  0  0  0  0  0  0  0  0  0
   -6.4497   -2.5834   -1.5970 H   0  0  0  0  0  0  0  0  0  0  0  0
   -5.1221   -1.4651   -1.1950 H   0  0  0  0  0  0  0  0  0  0  0  0
   -6.4330   -3.4650    0.7605 H   0  0  0  0  0  0  0  0  0  0  0  0
   -5.0368   -2.4109    1.1589 H   0  0  0  0  0  0  0  0  0  0  0  0
   -4.8741   -4.3342   -1.2463 H   0  0  0  0  0  0  0  0  0  0  0  0
   -4.7096   -4.9714    0.4112 H   0  0  0  0  0  0  0  0  0  0  0  0
   -2.5551   -4.4324   -0.7553 H   0  0  0  0  0  0  0  0  0  0  0  0
   -2.7379   -3.6583    0.8728 H   0  0  0  0  0  0  0  0  0  0  0  0
   -0.4676   -3.5747   -0.5252 H   0  0  0  0  0  0  0  0  0  0  0  0
    1.6776   -2.5918   -1.1220 H   0  0  0  0  0  0  0  0  0  0  0  0
    2.8941   -0.8978   -2.3979 H   0  0  0  0  0  0  0  0  0  0  0  0
    2.0580    0.5700   -3.0025 H   0  0  0  0  0  0  0  0  0  0  0  0
    2.7619    0.0327   -0.0461 H   0  0  0  0  0  0  0  0  0  0  0  0
    2.0504    1.5526   -0.7107 H   0  0  0  0  0  0  0  0  0  0  0  0
    3.5068    2.3657    1.2707 H   0  0  0  0  0  0  0  0  0  0  0  0
    4.1940    0.7341    1.6339 H   0  0  0  0  0  0  0  0  0  0  0  0
    5.5610    3.4723    2.0037 H   0  0  0  0  0  0  0  0  0  0  0  0
    5.0662    2.3035    3.2774 H   0  0  0  0  0  0  0  0  0  0  0  0
    6.6766    0.6539    2.5187 H   0  0  0  0  0  0  0  0  0  0  0  0
    7.5259    2.2009    2.7807 H   0  0  0  0  0  0  0  0  0  0  0  0
    8.2283    2.3377    0.6127 H   0  0  0  0  0  0  0  0  0  0  0  0
    8.2544    0.2434   -0.7559 H   0  0  0  0  0  0  0  0  0  0  0  0
    6.9883   -0.4664    0.3011 H   0  0  0  0  0  0  0  0  0  0  0  0
    9.6501    0.3077    0.9699 H   0  0  0  0  0  0  0  0  0  0  0  0
    6.3048    3.2873   -0.3454 H   0  0  0  0  0  0  0  0  0  0  0  0
    6.6667    1.9002   -1.4003 H   0  0  0  0  0  0  0  0  0  0  0  0
   -0.2725    1.0674   -2.2497 H   0  0  0  0  0  0  0  0  0  0  0  0
   -2.5826    1.3939   -1.9501 H   0  0  0  0  0  0  0  0  0  0  0  0
   -3.5124   -0.0908   -2.2022 H   0  0  0  0  0  0  0  0  0  0  0  0
  1  2  1  0
  2  3  1  0
  2  4  1  0
  4  5  1  0
  5  6  1  0
  6  7  2  0
  6  8  1  0
  8  9  1  0
  9 10  1  0
 10 11  1  0
 11 12  1  0
 12 13  1  0
 13 14  1  0
 14 15  1  0
 15 16  2  0
 16 17  1  0
 17 18  2  0
 18 19  1  0
 19 20  1  0
 20 21  1  0
 21 22  2  0
 21 23  1  0
 23 24  1  0
 24 25  1  0
 25 26  1  0
 26 27  1  0
 27 28  1  0
 28 29  1  0
 27 30  1  0
 18 31  1  0
 31 32  2  0
 32 33  1  0
 33  4  1  0
 32 15  1  0
 30 23  1  0
  1 34  1  0
  1 35  1  0
  1 36  1  0
  2 37  1  0
  3 38  1  0
  3 39  1  0
  3 40  1  0
  5 41  1  0
  5 42  1  0
  8 43  1  0
  9 44  1  0
  9 45  1  0
 10 46  1  0
 10 47  1  0
 11 48  1  0
 11 49  1  0
 12 50  1  0
 12 51  1  0
 13 52  1  0
 13 53  1  0
 16 54  1  0
 17 55  1  0
 19 56  1  0
 19 57  1  0
 20 58  1  0
 20 59  1  0
 24 60  1  0
 24 61  1  0
 25 62  1  0
 25 63  1  0
 26 64  1  0
 26 65  1  0
 27 66  1  0
 28 67  1  0
 28 68  1  0
 29 69  1  0
 30 70  1  0
 30 71  1  0
 31 72  1  0
 33 73  1  0
 33 74  1  0
M  END
$$$$
