
     RDKit          3D

 69 72  0  0  0  0  0  0  0  0999 V2000
    5.8069    1.3914   -1.7393 C   0  0  0  0  0  0  0  0  0  0  0  0
    6.4026    0.7766   -0.5530 C   0  0  0  0  0  0  0  0  0  0  0  0
    7.7503    0.6024   -0.4457 C   0  0  0  0  0  0  0  0  0  0  0  0
    8.2934    0.0094    0.6850 C   0  0  0  0  0  0  0  0  0  0  0  0
    7.4415   -0.3913    1.6777 C   0  0  0  0  0  0  0  0  0  0  0  0
    6.0805   -0.2008    1.5391 C   0  0  0  0  0  0  0  0  0  0  0  0
    5.0313   -0.4318    2.2145 N   0  0  0  0  0  0  0  0  0  0  0  0
    3.8480   -0.2511    2.0609 C   0  0  0  0  0  0  0  0  0  0  0  0
    2.4177   -0.0327    1.8753 C   0  0  0  0  0  0  0  0  0  0  0  0
    1.8339    0.3156    3.0389 O   0  0  0  0  0  0  0  0  0  0  0  0
    1.5053   -0.0939    0.8534 N   0  0  0  0  0  0  0  0  0  0  0  0
    0.1364    0.4049    1.1525 C   0  0  0  0  0  0  0  0  0  0  0  0
    0.2633    1.8738    1.5723 C   0  0  0  0  0  0  0  0  0  0  0  0
   -0.1886    2.7204    0.3843 C   0  0  0  0  0  0  0  0  0  0  0  0
   -1.6692    2.6683    0.1699 C   0  0  0  0  0  0  0  0  0  0  0  0
   -1.9912    2.2775   -1.1731 N   0  0  0  0  0  0  0  0  0  0  0  0
   -3.3018    2.2417   -1.7148 C   0  0  0  0  0  0  0  0  0  0  0  0
   -3.4955    2.6381   -2.8905 O   0  0  0  0  0  0  0  0  0  0  0  0
   -4.4963    1.7603   -0.9769 C   0  0  0  0  0  0  0  0  0  0  0  0
   -5.6484    2.5376   -1.0202 C   0  0  0  0  0  0  0  0  0  0  0  0
   -6.8097    2.2394   -0.3479 C   0  0  0  0  0  0  0  0  0  0  0  0
   -8.2566    3.2058   -0.3949 Cl  0  0  0  0  0  0  0  0  0  0  0  0
   -6.7859    1.0874    0.4050 C   0  0  0  0  0  0  0  0  0  0  0  0
   -5.6650    0.2881    0.4739 C   0  0  0  0  0  0  0  0  0  0  0  0
   -4.5007    0.6112   -0.2183 C   0  0  0  0  0  0  0  0  0  0  0  0
   -3.3859   -0.2120   -0.1380 O   0  0  0  0  0  0  0  0  0  0  0  0
   -2.7360   -0.9581   -1.1241 C   0  0  0  0  0  0  0  0  0  0  0  0
   -1.7871   -1.9386   -0.4273 C   0  0  0  0  0  0  0  0  0  0  0  0
   -2.5099   -3.3011   -0.4862 C   0  0  0  0  0  0  0  0  0  0  0  0
   -1.6990   -4.3861    0.1635 C   0  0  0  0  0  0  0  0  0  0  0  0
   -3.8831   -3.2618    0.0813 C   0  0  0  0  0  0  0  0  0  0  0  0
   -0.5177   -2.0529   -1.0772 N   0  0  0  0  0  0  0  0  0  0  0  0
    0.7965   -1.8915   -0.6785 C   0  0  0  0  0  0  0  0  0  0  0  0
    1.4719   -2.9997   -0.4308 O   0  0  0  0  0  0  0  0  0  0  0  0
    1.6579   -0.6932   -0.4607 C   0  0  0  0  0  0  0  0  0  0  0  0
    4.2967    0.4240    0.5828 C   0  0  0  0  0  0  0  0  0  0  0  0
    5.5750    0.3762    0.4365 N   0  0  0  0  0  0  0  0  0  0  0  0
    5.7165    0.6547   -2.5850 H   0  0  0  0  0  0  0  0  0  0  0  0
    4.8456    1.8585   -1.4780 H   0  0  0  0  0  0  0  0  0  0  0  0
    6.4595    2.2107   -2.1424 H   0  0  0  0  0  0  0  0  0  0  0  0
    8.4330    0.9125   -1.2207 H   0  0  0  0  0  0  0  0  0  0  0  0
    9.3808   -0.1267    0.7591 H   0  0  0  0  0  0  0  0  0  0  0  0
    7.7797   -0.8592    2.5885 H   0  0  0  0  0  0  0  0  0  0  0  0
   -0.2390   -0.1876    1.9729 H   0  0  0  0  0  0  0  0  0  0  0  0
   -0.4844    0.3672    0.2543 H   0  0  0  0  0  0  0  0  0  0  0  0
    1.3151    2.1508    1.7573 H   0  0  0  0  0  0  0  0  0  0  0  0
   -0.4188    2.0378    2.4072 H   0  0  0  0  0  0  0  0  0  0  0  0
    0.2105    3.7549    0.5174 H   0  0  0  0  0  0  0  0  0  0  0  0
    0.3150    2.3057   -0.5212 H   0  0  0  0  0  0  0  0  0  0  0  0
   -2.1552    1.9969    0.9326 H   0  0  0  0  0  0  0  0  0  0  0  0
   -2.0725    3.6900    0.4065 H   0  0  0  0  0  0  0  0  0  0  0  0
   -1.1793    1.9966   -1.8065 H   0  0  0  0  0  0  0  0  0  0  0  0
   -5.6472    3.4550   -1.6430 H   0  0  0  0  0  0  0  0  0  0  0  0
   -7.6550    0.7845    0.9605 H   0  0  0  0  0  0  0  0  0  0  0  0
   -5.7417   -0.6092    1.1197 H   0  0  0  0  0  0  0  0  0  0  0  0
   -2.2103   -0.3062   -1.8180 H   0  0  0  0  0  0  0  0  0  0  0  0
   -3.4485   -1.5414   -1.7863 H   0  0  0  0  0  0  0  0  0  0  0  0
   -1.7639   -1.6985    0.6518 H   0  0  0  0  0  0  0  0  0  0  0  0
   -2.5894   -3.6049   -1.5693 H   0  0  0  0  0  0  0  0  0  0  0  0
   -1.1219   -5.0024   -0.5821 H   0  0  0  0  0  0  0  0  0  0  0  0
   -1.0709   -4.0318    0.9887 H   0  0  0  0  0  0  0  0  0  0  0  0
   -2.4312   -5.1142    0.6061 H   0  0  0  0  0  0  0  0  0  0  0  0
   -3.9701   -4.0587    0.8762 H   0  0  0  0  0  0  0  0  0  0  0  0
   -4.1663   -2.2860    0.5028 H   0  0  0  0  0  0  0  0  0  0  0  0
   -4.6314   -3.5791   -0.7011 H   0  0  0  0  0  0  0  0  0  0  0  0
   -0.6246   -2.3697   -2.1167 H   0  0  0  0  0  0  0  0  0  0  0  0
    2.7490   -1.0426   -0.5015 H   0  0  0  0  0  0  0  0  0  0  0  0
    1.6208    0.0638   -1.2475 H   0  0  0  0  0  0  0  0  0  0  0  0
    3.5148    0.8252    0.0443 H   0  0  0  0  0  0  0  0  0  0  0  0
  1  2  1  0
  2  3  2  0
  3  4  1  0
  4  5  2  0
  5  6  1  0
  6  7  2  0
  7  8  1  0
  8  9  1  0
  9 10  2  0
  9 11  1  0
 11 12  1  0
 12 13  1  0
 13 14  1  0
 14 15  1  0
 15 16  1  0
 16 17  1  0
 17 18  2  0
 17 19  1  0
 19 20  2  0
 20 21  1  0
 21 22  1  0
 21 23  2  0
 23 24  1  0
 24 25  2  0
 25 26  1  0
 26 27  1  0
 27 28  1  0
 28 29  1  0
 29 30  1  0
 29 31  1  0
 28 32  1  0
 32 33  1  0
 33 34  2  0
 33 35  1  0
  8 36  2  0
 36 37  1  0
 37  2  1  0
 37  6  1  0
 35 11  1  0
 25 19  1  0
  1 38  1  0
  1 39  1  0
  1 40  1  0
  3 41  1  0
  4 42  1  0
  5 43  1  0
 12 44  1  0
 12 45  1  0
 13 46  1  0
 13 47  1  0
 14 48  1  0
 14 49  1  0
 15 50  1  0
 15 51  1  0
 16 52  1  0
 20 53  1  0
 23 54  1  0
 24 55  1  0
 27 56  1  0
 27 57  1  0
 28 58  1  0
 29 59  1  0
 30 60  1  0
 30 61  1  0
 30 62  1  0
 31 63  1  0
 31 64  1  0
 31 65  1  0
 32 66  1  0
 35 67  1  0
 35 68  1  0
 36 69  1  0
M  END
$$$$
