
     RDKit          3D

 81 84  0  0  0  0  0  0  0  0999 V2000
    8.3919   -0.7479    3.2275 C   0  0  0  0  0  0  0  0  0  0  0  0
    7.7442   -0.5855    1.8949 C   0  0  0  0  0  0  0  0  0  0  0  0
    8.3706   -0.8315    0.7238 N   0  0  0  0  0  0  0  0  0  0  0  0
    7.5395   -0.6750   -0.3459 C   0  0  0  0  0  0  0  0  0  0  0  0
    8.0344   -0.8758   -1.7421 C   0  0  0  0  0  0  0  0  0  0  0  0
    6.2273   -0.3039   -0.0181 C   0  0  0  0  0  0  0  0  0  0  0  0
    5.1218   -0.0187   -0.9565 C   0  0  0  0  0  0  0  0  0  0  0  0
    5.3959    0.4820   -2.0804 O   0  0  0  0  0  0  0  0  0  0  0  0
    3.7412   -0.2365   -0.5915 N   0  0  0  0  0  0  0  0  0  0  0  0
    2.7376    0.7174   -1.0978 C   0  0  0  0  0  0  0  0  0  0  0  0
    2.8944    2.0836   -0.4176 C   0  0  0  0  0  0  0  0  0  0  0  0
    1.9223    3.1361   -0.9818 C   0  0  0  0  0  0  0  0  0  0  0  0
    0.5727    3.1707   -0.2566 C   0  0  0  0  0  0  0  0  0  0  0  0
   -0.1281    1.9332   -0.3605 O   0  0  0  0  0  0  0  0  0  0  0  0
   -1.0552    1.6758   -1.3753 C   0  0  0  0  0  0  0  0  0  0  0  0
   -0.6180    1.3141   -2.6587 C   0  0  0  0  0  0  0  0  0  0  0  0
   -1.5442    1.0234   -3.6621 C   0  0  0  0  0  0  0  0  0  0  0  0
   -2.9130    1.1061   -3.3974 C   0  0  0  0  0  0  0  0  0  0  0  0
   -4.0770    0.7537   -4.6618 Cl  0  0  0  0  0  0  0  0  0  0  0  0
   -3.3563    1.4694   -2.1218 C   0  0  0  0  0  0  0  0  0  0  0  0
   -2.4357    1.7346   -1.1004 C   0  0  0  0  0  0  0  0  0  0  0  0
   -2.9271    2.1397    0.2269 C   0  0  0  0  0  0  0  0  0  0  0  0
   -2.5477    3.2396    0.7106 O   0  0  0  0  0  0  0  0  0  0  0  0
   -3.8317    1.3072    0.9803 N   0  0  0  0  0  0  0  0  0  0  0  0
   -5.0630    1.9276    1.4791 C   0  0  0  0  0  0  0  0  0  0  0  0
   -3.4968   -0.0867    1.3593 C   0  0  0  0  0  0  0  0  0  0  0  0
   -3.9437   -1.0903    0.2648 C   0  0  0  0  0  0  0  0  0  0  0  0
   -5.4309   -1.0557    0.0008 C   0  0  0  0  0  0  0  0  0  0  0  0
   -6.3427   -1.3437    1.0306 C   0  0  0  0  0  0  0  0  0  0  0  0
   -7.7193   -1.3005    0.7897 C   0  0  0  0  0  0  0  0  0  0  0  0
   -8.1964   -0.9970   -0.4892 C   0  0  0  0  0  0  0  0  0  0  0  0
   -7.2982   -0.7632   -1.5313 C   0  0  0  0  0  0  0  0  0  0  0  0
   -5.9221   -0.8047   -1.2920 C   0  0  0  0  0  0  0  0  0  0  0  0
   -2.0256   -0.2465    1.7038 C   0  0  0  0  0  0  0  0  0  0  0  0
   -1.3764    0.7257    2.1774 O   0  0  0  0  0  0  0  0  0  0  0  0
   -1.3993   -1.5341    1.6453 N   0  0  0  0  0  0  0  0  0  0  0  0
   -1.6353   -2.4866    2.7309 C   0  0  0  0  0  0  0  0  0  0  0  0
   -0.4568   -1.8388    0.5650 C   0  0  0  0  0  0  0  0  0  0  0  0
    0.9714   -1.4837    0.9843 C   0  0  0  0  0  0  0  0  0  0  0  0
    1.9975   -2.0167   -0.0311 C   0  0  0  0  0  0  0  0  0  0  0  0
    3.4067   -1.4356    0.2146 C   0  0  0  0  0  0  0  0  0  0  0  0
    6.1310   -0.1813    1.6597 S   0  0  0  0  0  0  0  0  0  0  0  0
    9.4969   -0.7415    3.1191 H   0  0  0  0  0  0  0  0  0  0  0  0
    8.0736   -1.7146    3.6755 H   0  0  0  0  0  0  0  0  0  0  0  0
    8.0876    0.0834    3.8950 H   0  0  0  0  0  0  0  0  0  0  0  0
    9.0116   -1.4008   -1.7331 H   0  0  0  0  0  0  0  0  0  0  0  0
    7.3147   -1.4882   -2.3228 H   0  0  0  0  0  0  0  0  0  0  0  0
    8.1676    0.1120   -2.2297 H   0  0  0  0  0  0  0  0  0  0  0  0
    2.8556    0.8235   -2.1990 H   0  0  0  0  0  0  0  0  0  0  0  0
    1.7116    0.3600   -0.9348 H   0  0  0  0  0  0  0  0  0  0  0  0
    3.9307    2.4462   -0.5883 H   0  0  0  0  0  0  0  0  0  0  0  0
    2.7588    1.9737    0.6821 H   0  0  0  0  0  0  0  0  0  0  0  0
    1.7745    3.0015   -2.0737 H   0  0  0  0  0  0  0  0  0  0  0  0
    2.3916    4.1360   -0.8562 H   0  0  0  0  0  0  0  0  0  0  0  0
   -0.0463    3.9957   -0.6692 H   0  0  0  0  0  0  0  0  0  0  0  0
    0.7407    3.3944    0.8164 H   0  0  0  0  0  0  0  0  0  0  0  0
    0.4387    1.2278   -2.8758 H   0  0  0  0  0  0  0  0  0  0  0  0
   -1.1983    0.7354   -4.6457 H   0  0  0  0  0  0  0  0  0  0  0  0
   -4.4191    1.5631   -1.9329 H   0  0  0  0  0  0  0  0  0  0  0  0
   -4.8219    2.8303    2.0758 H   0  0  0  0  0  0  0  0  0  0  0  0
   -5.6413    1.2338    2.1233 H   0  0  0  0  0  0  0  0  0  0  0  0
   -5.7015    2.2235    0.6216 H   0  0  0  0  0  0  0  0  0  0  0  0
   -4.0289   -0.3477    2.2987 H   0  0  0  0  0  0  0  0  0  0  0  0
   -3.6980   -2.1253    0.5827 H   0  0  0  0  0  0  0  0  0  0  0  0
   -3.3699   -0.9065   -0.6683 H   0  0  0  0  0  0  0  0  0  0  0  0
   -5.9927   -1.5976    2.0226 H   0  0  0  0  0  0  0  0  0  0  0  0
   -8.4147   -1.5059    1.5916 H   0  0  0  0  0  0  0  0  0  0  0  0
   -9.2620   -0.9635   -0.6744 H   0  0  0  0  0  0  0  0  0  0  0  0
   -7.6686   -0.5558   -2.5288 H   0  0  0  0  0  0  0  0  0  0  0  0
   -5.2459   -0.6558   -2.1192 H   0  0  0  0  0  0  0  0  0  0  0  0
   -2.6934   -2.8217    2.7127 H   0  0  0  0  0  0  0  0  0  0  0  0
   -0.9803   -3.3786    2.6275 H   0  0  0  0  0  0  0  0  0  0  0  0
   -1.4266   -2.0086    3.7094 H   0  0  0  0  0  0  0  0  0  0  0  0
   -0.5198   -2.9183    0.3108 H   0  0  0  0  0  0  0  0  0  0  0  0
   -0.7299   -1.2681   -0.3516 H   0  0  0  0  0  0  0  0  0  0  0  0
    1.1875   -1.9317    1.9786 H   0  0  0  0  0  0  0  0  0  0  0  0
    1.0533   -0.3821    1.0876 H   0  0  0  0  0  0  0  0  0  0  0  0
    2.0480   -3.1204    0.1008 H   0  0  0  0  0  0  0  0  0  0  0  0
    1.6759   -1.8483   -1.0829 H   0  0  0  0  0  0  0  0  0  0  0  0
    3.5474   -1.2153    1.2963 H   0  0  0  0  0  0  0  0  0  0  0  0
    4.1330   -2.2438   -0.0415 H   0  0  0  0  0  0  0  0  0  0  0  0
  1  2  1  0
  2  3  2  0
  3  4  1  0
  4  5  1  0
  4  6  2  0
  6  7  1  0
  7  8  2  0
  7  9  1  0
  9 10  1  0
 10 11  1  0
 11 12  1  0
 12 13  1  0
 13 14  1  0
 14 15  1  0
 15 16  2  0
 16 17  1  0
 17 18  2  0
 18 19  1  0
 18 20  1  0
 20 21  2  0
 21 22  1  0
 22 23  2  0
 22 24  1  0
 24 25  1  0
 24 26  1  0
 26 27  1  0
 27 28  1  0
 28 29  2  0
 29 30  1  0
 30 31  2  0
 31 32  1  0
 32 33  2  0
 26 34  1  0
 34 35  2  0
 34 36  1  0
 36 37  1  0
 36 38  1  0
 38 39  1  0
 39 40  1  0
 40 41  1  0
  6 42  1  0
 42  2  1  0
 41  9  1  0
 21 15  1  0
 33 28  1  0
  1 43  1  0
  1 44  1  0
  1 45  1  0
  5 46  1  0
  5 47  1  0
  5 48  1  0
 10 49  1  0
 10 50  1  0
 11 51  1  0
 11 52  1  0
 12 53  1  0
 12 54  1  0
 13 55  1  0
 13 56  1  0
 16 57  1  0
 17 58  1  0
 20 59  1  0
 25 60  1  0
 25 61  1  0
 25 62  1  0
 26 63  1  0
 27 64  1  0
 27 65  1  0
 29 66  1  0
 30 67  1  0
 31 68  1  0
 32 69  1  0
 33 70  1  0
 37 71  1  0
 37 72  1  0
 37 73  1  0
 38 74  1  0
 38 75  1  0
 39 76  1  0
 39 77  1  0
 40 78  1  0
 40 79  1  0
 41 80  1  0
 41 81  1  0
M  END
$$$$
