
     RDKit          3D

 60 62  0  0  0  0  0  0  0  0999 V2000
    6.8398   -2.0920    1.0345 C   0  0  0  0  0  0  0  0  0  0  0  0
    7.1844   -0.9195    0.3273 O   0  0  0  0  0  0  0  0  0  0  0  0
    6.1285   -0.5419   -0.5378 C   0  0  0  0  0  0  0  0  0  0  0  0
    5.1129    0.3068    0.1844 C   0  0  0  0  0  0  0  0  0  0  0  0
    5.4949    1.0191    1.1558 O   0  0  0  0  0  0  0  0  0  0  0  0
    3.7345    0.3583   -0.2416 N   0  0  0  0  0  0  0  0  0  0  0  0
    2.7172    0.9471    0.6417 C   0  0  0  0  0  0  0  0  0  0  0  0
    1.3780    0.2279    0.4395 C   0  0  0  0  0  0  0  0  0  0  0  0
    0.8431    0.2881   -1.0418 C   0  0  0  0  0  0  0  0  0  0  0  0
   -0.2779    1.3758   -1.3116 C   0  0  0  0  0  0  0  0  0  0  0  0
   -0.5180    2.4802   -0.2541 C   0  0  0  0  0  0  0  0  0  0  0  0
   -1.6410    2.1175    0.7381 C   0  0  0  0  0  0  0  0  0  0  0  0
   -3.0436    2.3418    0.1425 C   0  0  0  0  0  0  0  0  0  0  0  0
   -4.0949    1.5945    0.9266 C   0  0  0  0  0  0  0  0  0  0  0  0
   -4.9213    2.2858    1.8282 C   0  0  0  0  0  0  0  0  0  0  0  0
   -5.8921    1.6015    2.5617 C   0  0  0  0  0  0  0  0  0  0  0  0
   -6.0452    0.2220    2.4064 C   0  0  0  0  0  0  0  0  0  0  0  0
   -5.2191   -0.4822    1.5265 C   0  0  0  0  0  0  0  0  0  0  0  0
   -4.2301    0.1948    0.7863 C   0  0  0  0  0  0  0  0  0  0  0  0
   -3.3593   -0.4848   -0.0814 O   0  0  0  0  0  0  0  0  0  0  0  0
   -3.2391   -1.9027   -0.1758 C   0  0  0  0  0  0  0  0  0  0  0  0
   -2.0139   -2.2511   -1.0367 C   0  0  0  0  0  0  0  0  0  0  0  0
   -1.7954   -3.7643   -1.0837 C   0  0  0  0  0  0  0  0  0  0  0  0
   -0.8185   -1.5912   -0.4998 N   0  0  0  0  0  0  0  0  0  0  0  0
    0.2084   -1.0697   -1.3595 C   0  0  0  0  0  0  0  0  0  0  0  0
    0.5074   -1.6968   -2.4125 O   0  0  0  0  0  0  0  0  0  0  0  0
    2.0332    0.5772   -2.0202 C   0  0  0  0  0  0  0  0  0  0  0  0
    3.3440   -0.0899   -1.5872 C   0  0  0  0  0  0  0  0  0  0  0  0
    5.8839   -1.9693    1.5937 H   0  0  0  0  0  0  0  0  0  0  0  0
    6.7772   -2.9627    0.3452 H   0  0  0  0  0  0  0  0  0  0  0  0
    7.6379   -2.3071    1.7747 H   0  0  0  0  0  0  0  0  0  0  0  0
    6.5597    0.0703   -1.3548 H   0  0  0  0  0  0  0  0  0  0  0  0
    5.6458   -1.4209   -1.0216 H   0  0  0  0  0  0  0  0  0  0  0  0
    2.6214    2.0303    0.4262 H   0  0  0  0  0  0  0  0  0  0  0  0
    3.0134    0.8327    1.7064 H   0  0  0  0  0  0  0  0  0  0  0  0
    1.5667   -0.8316    0.7305 H   0  0  0  0  0  0  0  0  0  0  0  0
    0.6454    0.5935    1.1814 H   0  0  0  0  0  0  0  0  0  0  0  0
   -1.2514    0.8870   -1.5308 H   0  0  0  0  0  0  0  0  0  0  0  0
   -0.0645    1.8976   -2.2712 H   0  0  0  0  0  0  0  0  0  0  0  0
   -0.7999    3.4233   -0.7730 H   0  0  0  0  0  0  0  0  0  0  0  0
    0.4135    2.7209    0.2920 H   0  0  0  0  0  0  0  0  0  0  0  0
   -1.5294    1.0632    1.0587 H   0  0  0  0  0  0  0  0  0  0  0  0
   -1.5368    2.7494    1.6460 H   0  0  0  0  0  0  0  0  0  0  0  0
   -3.2643    3.4323    0.1308 H   0  0  0  0  0  0  0  0  0  0  0  0
   -3.0908    2.0046   -0.9138 H   0  0  0  0  0  0  0  0  0  0  0  0
   -4.8139    3.3553    1.9602 H   0  0  0  0  0  0  0  0  0  0  0  0
   -6.5305    2.1416    3.2482 H   0  0  0  0  0  0  0  0  0  0  0  0
   -6.8025   -0.3055    2.9739 H   0  0  0  0  0  0  0  0  0  0  0  0
   -5.3575   -1.5525    1.4266 H   0  0  0  0  0  0  0  0  0  0  0  0
   -4.1585   -2.3211   -0.6384 H   0  0  0  0  0  0  0  0  0  0  0  0
   -3.1119   -2.3342    0.8407 H   0  0  0  0  0  0  0  0  0  0  0  0
   -2.2092   -1.8895   -2.0713 H   0  0  0  0  0  0  0  0  0  0  0  0
   -0.9196   -4.0057   -1.7233 H   0  0  0  0  0  0  0  0  0  0  0  0
   -1.6065   -4.1558   -0.0606 H   0  0  0  0  0  0  0  0  0  0  0  0
   -2.6938   -4.2672   -1.5054 H   0  0  0  0  0  0  0  0  0  0  0  0
   -0.8128   -1.3226    0.5066 H   0  0  0  0  0  0  0  0  0  0  0  0
    1.7859    0.2816   -3.0632 H   0  0  0  0  0  0  0  0  0  0  0  0
    2.2272    1.6736   -2.0529 H   0  0  0  0  0  0  0  0  0  0  0  0
    3.2317   -1.1943   -1.5941 H   0  0  0  0  0  0  0  0  0  0  0  0
    4.1273    0.1935   -2.3232 H   0  0  0  0  0  0  0  0  0  0  0  0
  1  2  1  0
  2  3  1  0
  3  4  1  0
  4  5  2  0
  4  6  1  0
  6  7  1  0
  7  8  1  0
  8  9  1  0
  9 10  1  0
 10 11  1  0
 11 12  1  0
 12 13  1  0
 13 14  1  0
 14 15  2  0
 15 16  1  0
 16 17  2  0
 17 18  1  0
 18 19  2  0
 19 20  1  0
 20 21  1  0
 21 22  1  0
 22 23  1  0
 22 24  1  0
 24 25  1  0
 25 26  2  0
  9 27  1  0
 27 28  1  0
 28  6  1  0
 25  9  1  0
 19 14  1  0
  1 29  1  0
  1 30  1  0
  1 31  1  0
  3 32  1  0
  3 33  1  0
  7 34  1  0
  7 35  1  0
  8 36  1  0
  8 37  1  0
 10 38  1  0
 10 39  1  0
 11 40  1  0
 11 41  1  0
 12 42  1  0
 12 43  1  0
 13 44  1  0
 13 45  1  0
 15 46  1  0
 16 47  1  0
 17 48  1  0
 18 49  1  0
 21 50  1  0
 21 51  1  0
 22 52  1  0
 23 53  1  0
 23 54  1  0
 23 55  1  0
 24 56  1  0
 27 57  1  0
 27 58  1  0
 28 59  1  0
 28 60  1  0
M  END
$$$$
