
     RDKit          3D

 57 59  0  0  0  0  0  0  0  0999 V2000
    2.7432    1.2777    3.1632 C   0  0  0  0  0  0  0  0  0  0  0  0
    1.5598    1.4928    2.2112 C   0  0  0  0  0  0  0  0  0  0  0  0
    2.0454    1.8739    0.7975 C   0  0  0  0  0  0  0  0  0  0  0  0
    2.4358    0.7182    0.0523 O   0  0  0  0  0  0  0  0  0  0  0  0
    3.6951    0.0975    0.0571 C   0  0  0  0  0  0  0  0  0  0  0  0
    4.8544    0.7650    0.5027 C   0  0  0  0  0  0  0  0  0  0  0  0
    6.0871    0.1114    0.5222 C   0  0  0  0  0  0  0  0  0  0  0  0
    6.1848   -1.2124    0.0985 C   0  0  0  0  0  0  0  0  0  0  0  0
    7.7356   -2.0321    0.1311 Cl  0  0  0  0  0  0  0  0  0  0  0  0
    5.0478   -1.8844   -0.3541 C   0  0  0  0  0  0  0  0  0  0  0  0
    3.7995   -1.2374   -0.3959 C   0  0  0  0  0  0  0  0  0  0  0  0
    2.6150   -2.0027   -0.8579 C   0  0  0  0  0  0  0  0  0  0  0  0
    2.5433   -3.2344   -0.5924 O   0  0  0  0  0  0  0  0  0  0  0  0
    1.5721   -1.3832   -1.6290 N   0  0  0  0  0  0  0  0  0  0  0  0
    0.4206   -2.1604   -2.0901 C   0  0  0  0  0  0  0  0  0  0  0  0
   -0.6714   -1.2745   -2.7182 C   0  0  0  0  0  0  0  0  0  0  0  0
   -1.6266   -0.6534   -1.6813 C   0  0  0  0  0  0  0  0  0  0  0  0
   -1.1205    0.6837   -1.1240 C   0  0  0  0  0  0  0  0  0  0  0  0
   -1.9903    1.1407   -0.0282 N   0  0  0  0  0  0  0  0  0  0  0  0
   -3.3550    1.4920   -0.3185 C   0  0  0  0  0  0  0  0  0  0  0  0
   -3.6256    2.1383   -1.3662 O   0  0  0  0  0  0  0  0  0  0  0  0
   -4.4724    1.0613    0.5864 C   0  0  0  0  0  0  0  0  0  0  0  0
   -5.4582    0.2953   -0.1705 N   0  0  0  0  0  0  0  0  0  0  0  0
   -5.3676   -0.9935   -0.5370 C   0  0  0  0  0  0  0  0  0  0  0  0
   -6.4737   -1.2923   -1.3000 C   0  0  0  0  0  0  0  0  0  0  0  0
   -7.2494   -0.1944   -1.4225 N   0  0  0  0  0  0  0  0  0  0  0  0
   -6.5953    0.7573   -0.7241 C   0  0  0  0  0  0  0  0  0  0  0  0
   -1.4227    1.4444    1.2946 C   0  0  0  0  0  0  0  0  0  0  0  0
   -0.6800    0.2548    1.8449 C   0  0  0  0  0  0  0  0  0  0  0  0
   -1.3181   -0.8190    2.0135 O   0  0  0  0  0  0  0  0  0  0  0  0
    0.7217    0.2847    2.1715 N   0  0  0  0  0  0  0  0  0  0  0  0
    2.3665    1.0997    4.1928 H   0  0  0  0  0  0  0  0  0  0  0  0
    3.3939    2.1774    3.1833 H   0  0  0  0  0  0  0  0  0  0  0  0
    3.3471    0.3986    2.8572 H   0  0  0  0  0  0  0  0  0  0  0  0
    0.9739    2.3385    2.6325 H   0  0  0  0  0  0  0  0  0  0  0  0
    1.2128    2.3524    0.2475 H   0  0  0  0  0  0  0  0  0  0  0  0
    2.8396    2.6458    0.8279 H   0  0  0  0  0  0  0  0  0  0  0  0
    4.8242    1.7890    0.8386 H   0  0  0  0  0  0  0  0  0  0  0  0
    6.9673    0.6367    0.8697 H   0  0  0  0  0  0  0  0  0  0  0  0
    5.1416   -2.9120   -0.6837 H   0  0  0  0  0  0  0  0  0  0  0  0
    1.7219   -0.4206   -2.0067 H   0  0  0  0  0  0  0  0  0  0  0  0
    0.7735   -2.8870   -2.8543 H   0  0  0  0  0  0  0  0  0  0  0  0
   -0.0026   -2.7475   -1.2463 H   0  0  0  0  0  0  0  0  0  0  0  0
   -1.2821   -1.9266   -3.3813 H   0  0  0  0  0  0  0  0  0  0  0  0
   -0.2246   -0.4923   -3.3701 H   0  0  0  0  0  0  0  0  0  0  0  0
   -2.6058   -0.4739   -2.1774 H   0  0  0  0  0  0  0  0  0  0  0  0
   -1.8133   -1.3643   -0.8469 H   0  0  0  0  0  0  0  0  0  0  0  0
   -0.0828    0.5590   -0.7623 H   0  0  0  0  0  0  0  0  0  0  0  0
   -1.1012    1.4474   -1.9319 H   0  0  0  0  0  0  0  0  0  0  0  0
   -4.9481    1.9595    1.0366 H   0  0  0  0  0  0  0  0  0  0  0  0
   -4.0832    0.4281    1.4129 H   0  0  0  0  0  0  0  0  0  0  0  0
   -4.5548   -1.6603   -0.2809 H   0  0  0  0  0  0  0  0  0  0  0  0
   -6.6976   -2.2505   -1.7494 H   0  0  0  0  0  0  0  0  0  0  0  0
   -6.9441    1.7782   -0.6308 H   0  0  0  0  0  0  0  0  0  0  0  0
   -2.2215    1.7121    2.0182 H   0  0  0  0  0  0  0  0  0  0  0  0
   -0.7876    2.3431    1.2098 H   0  0  0  0  0  0  0  0  0  0  0  0
    1.1526   -0.6248    2.4582 H   0  0  0  0  0  0  0  0  0  0  0  0
  1  2  1  0
  2  3  1  0
  3  4  1  0
  4  5  1  0
  5  6  2  0
  6  7  1  0
  7  8  2  0
  8  9  1  0
  8 10  1  0
 10 11  2  0
 11 12  1  0
 12 13  2  0
 12 14  1  0
 14 15  1  0
 15 16  1  0
 16 17  1  0
 17 18  1  0
 18 19  1  0
 19 20  1  0
 20 21  2  0
 20 22  1  0
 22 23  1  0
 23 24  1  0
 24 25  2  0
 25 26  1  0
 26 27  2  0
 19 28  1  0
 28 29  1  0
 29 30  2  0
 29 31  1  0
 31  2  1  0
 11  5  1  0
 27 23  1  0
  1 32  1  0
  1 33  1  0
  1 34  1  0
  2 35  1  0
  3 36  1  0
  3 37  1  0
  6 38  1  0
  7 39  1  0
 10 40  1  0
 14 41  1  0
 15 42  1  0
 15 43  1  0
 16 44  1  0
 16 45  1  0
 17 46  1  0
 17 47  1  0
 18 48  1  0
 18 49  1  0
 22 50  1  0
 22 51  1  0
 24 52  1  0
 25 53  1  0
 27 54  1  0
 28 55  1  0
 28 56  1  0
 31 57  1  0
M  END
$$$$
