
     RDKit          3D

 86 89  0  0  0  0  0  0  0  0999 V2000
    4.5640    1.3010   -2.1345 C   0  0  0  0  0  0  0  0  0  0  0  0
    3.3090    1.8062   -1.4079 C   0  0  0  0  0  0  0  0  0  0  0  0
    3.1291    3.3244   -1.6158 C   0  0  0  0  0  0  0  0  0  0  0  0
    3.2539    1.3529    0.0222 N   0  0  0  0  0  0  0  0  0  0  0  0
    4.0478    2.1908    0.9665 C   0  0  0  0  0  0  0  0  0  0  0  0
    5.5275    2.2411    0.6573 C   0  0  0  0  0  0  0  0  0  0  0  0
    6.0148    3.3296    0.2494 O   0  0  0  0  0  0  0  0  0  0  0  0
    6.4082    1.1101    0.7981 N   0  0  0  0  0  0  0  0  0  0  0  0
    6.1545   -0.0579    1.6405 C   0  0  0  0  0  0  0  0  0  0  0  0
    5.7112   -1.2485    0.7780 C   0  0  0  0  0  0  0  0  0  0  0  0
    5.1732   -2.4267    1.6192 C   0  0  0  0  0  0  0  0  0  0  0  0
    3.6394   -2.5340    1.5711 C   0  0  0  0  0  0  0  0  0  0  0  0
    2.9585   -1.3492    2.2640 C   0  0  0  0  0  0  0  0  0  0  0  0
    1.5558   -1.3478    2.0259 O   0  0  0  0  0  0  0  0  0  0  0  0
    0.9782   -1.1692    0.7616 C   0  0  0  0  0  0  0  0  0  0  0  0
    0.1874   -2.2164    0.2746 C   0  0  0  0  0  0  0  0  0  0  0  0
   -0.4936   -2.0966   -0.9342 C   0  0  0  0  0  0  0  0  0  0  0  0
   -0.4189   -0.9106   -1.6679 C   0  0  0  0  0  0  0  0  0  0  0  0
   -1.2361   -0.7422   -2.9241 C   0  0  0  0  0  0  0  0  0  0  0  0
   -2.7193   -0.4987   -2.6106 C   0  0  0  0  0  0  0  0  0  0  0  0
   -2.9336    0.7497   -1.7821 C   0  0  0  0  0  0  0  0  0  0  0  0
   -2.4192    1.8269   -2.1893 O   0  0  0  0  0  0  0  0  0  0  0  0
   -3.7196    0.7393   -0.5620 N   0  0  0  0  0  0  0  0  0  0  0  0
   -4.7692   -0.2709   -0.3609 C   0  0  0  0  0  0  0  0  0  0  0  0
   -4.2600   -1.4066    0.5379 C   0  0  0  0  0  0  0  0  0  0  0  0
   -5.2209   -2.5632    0.5198 C   0  0  0  0  0  0  0  0  0  0  0  0
   -6.3286   -2.5799    1.3847 C   0  0  0  0  0  0  0  0  0  0  0  0
   -7.2443   -3.6360    1.3350 C   0  0  0  0  0  0  0  0  0  0  0  0
   -7.0684   -4.6739    0.4151 C   0  0  0  0  0  0  0  0  0  0  0  0
   -5.9767   -4.6559   -0.4580 C   0  0  0  0  0  0  0  0  0  0  0  0
   -5.0575   -3.6031   -0.4100 C   0  0  0  0  0  0  0  0  0  0  0  0
   -3.4843    1.7116    0.5295 C   0  0  0  0  0  0  0  0  0  0  0  0
   -2.0097    1.7632    0.9750 C   0  0  0  0  0  0  0  0  0  0  0  0
   -1.8312    3.0021    1.8471 C   0  0  0  0  0  0  0  0  0  0  0  0
   -2.9544    4.1949    1.1790 S   0  0  0  0  0  6  0  0  0  0  0  0
   -3.7710    4.8529    2.2561 O   0  0  0  0  0  0  0  0  0  0  0  0
   -2.2374    5.2235    0.3501 O   0  0  0  0  0  0  0  0  0  0  0  0
   -3.9460    3.1298    0.1703 C   0  0  0  0  0  0  0  0  0  0  0  0
    0.3557    0.1506   -1.1825 C   0  0  0  0  0  0  0  0  0  0  0  0
    1.1017    0.0321    0.0077 C   0  0  0  0  0  0  0  0  0  0  0  0
    1.8456    1.2590    0.5188 C   0  0  0  0  0  0  0  0  0  0  0  0
    4.7617    0.2425   -1.8867 H   0  0  0  0  0  0  0  0  0  0  0  0
    4.4071    1.3614   -3.2338 H   0  0  0  0  0  0  0  0  0  0  0  0
    5.4568    1.9107   -1.9088 H   0  0  0  0  0  0  0  0  0  0  0  0
    2.4925    1.3264   -1.9709 H   0  0  0  0  0  0  0  0  0  0  0  0
    2.2386    3.7064   -1.0792 H   0  0  0  0  0  0  0  0  0  0  0  0
    2.9825    3.5392   -2.6966 H   0  0  0  0  0  0  0  0  0  0  0  0
    4.0191    3.8926   -1.2814 H   0  0  0  0  0  0  0  0  0  0  0  0
    3.9420    1.8142    2.0029 H   0  0  0  0  0  0  0  0  0  0  0  0
    3.6407    3.2260    1.0003 H   0  0  0  0  0  0  0  0  0  0  0  0
    7.3391    1.1617    0.3259 H   0  0  0  0  0  0  0  0  0  0  0  0
    5.4307    0.1844    2.4406 H   0  0  0  0  0  0  0  0  0  0  0  0
    7.0995   -0.3345    2.1574 H   0  0  0  0  0  0  0  0  0  0  0  0
    4.9435   -0.9181    0.0491 H   0  0  0  0  0  0  0  0  0  0  0  0
    6.5895   -1.5941    0.1887 H   0  0  0  0  0  0  0  0  0  0  0  0
    5.5195   -2.3608    2.6750 H   0  0  0  0  0  0  0  0  0  0  0  0
    5.5884   -3.3717    1.2049 H   0  0  0  0  0  0  0  0  0  0  0  0
    3.3102   -2.6002    0.5098 H   0  0  0  0  0  0  0  0  0  0  0  0
    3.3252   -3.4722    2.0761 H   0  0  0  0  0  0  0  0  0  0  0  0
    3.1367   -1.4107    3.3592 H   0  0  0  0  0  0  0  0  0  0  0  0
    3.3804   -0.4066    1.9082 H   0  0  0  0  0  0  0  0  0  0  0  0
    0.0877   -3.1278    0.8510 H   0  0  0  0  0  0  0  0  0  0  0  0
   -1.1056   -2.9193   -1.2823 H   0  0  0  0  0  0  0  0  0  0  0  0
   -1.1458   -1.6629   -3.5408 H   0  0  0  0  0  0  0  0  0  0  0  0
   -0.8414    0.0938   -3.5428 H   0  0  0  0  0  0  0  0  0  0  0  0
   -3.2756   -0.3855   -3.5652 H   0  0  0  0  0  0  0  0  0  0  0  0
   -3.1141   -1.4022   -2.1082 H   0  0  0  0  0  0  0  0  0  0  0  0
   -5.1198   -0.6676   -1.3390 H   0  0  0  0  0  0  0  0  0  0  0  0
   -5.6591    0.2022    0.1132 H   0  0  0  0  0  0  0  0  0  0  0  0
   -3.2556   -1.7461    0.2015 H   0  0  0  0  0  0  0  0  0  0  0  0
   -4.1378   -1.0337    1.5791 H   0  0  0  0  0  0  0  0  0  0  0  0
   -6.4827   -1.7761    2.0931 H   0  0  0  0  0  0  0  0  0  0  0  0
   -8.0950   -3.6450    2.0037 H   0  0  0  0  0  0  0  0  0  0  0  0
   -7.7794   -5.4897    0.3752 H   0  0  0  0  0  0  0  0  0  0  0  0
   -5.8443   -5.4577   -1.1727 H   0  0  0  0  0  0  0  0  0  0  0  0
   -4.2216   -3.5960   -1.0989 H   0  0  0  0  0  0  0  0  0  0  0  0
   -4.0689    1.4105    1.4297 H   0  0  0  0  0  0  0  0  0  0  0  0
   -1.7291    0.8423    1.5309 H   0  0  0  0  0  0  0  0  0  0  0  0
   -1.3410    1.8670    0.0989 H   0  0  0  0  0  0  0  0  0  0  0  0
   -2.1187    2.7743    2.8962 H   0  0  0  0  0  0  0  0  0  0  0  0
   -0.7834    3.3711    1.8131 H   0  0  0  0  0  0  0  0  0  0  0  0
   -3.7753    3.3774   -0.8946 H   0  0  0  0  0  0  0  0  0  0  0  0
   -5.0247    3.2648    0.4044 H   0  0  0  0  0  0  0  0  0  0  0  0
    0.3308    1.0936   -1.7140 H   0  0  0  0  0  0  0  0  0  0  0  0
    1.8059    1.2372    1.6291 H   0  0  0  0  0  0  0  0  0  0  0  0
    1.2751    2.1739    0.2526 H   0  0  0  0  0  0  0  0  0  0  0  0
  1  2  1  0
  2  3  1  0
  2  4  1  0
  4  5  1  0
  5  6  1  0
  6  7  2  0
  6  8  1  0
  8  9  1  0
  9 10  1  0
 10 11  1  0
 11 12  1  0
 12 13  1  0
 13 14  1  0
 14 15  1  0
 15 16  2  0
 16 17  1  0
 17 18  2  0
 18 19  1  0
 19 20  1  0
 20 21  1  0
 21 22  2  0
 21 23  1  0
 23 24  1  0
 24 25  1  0
 25 26  1  0
 26 27  2  0
 27 28  1  0
 28 29  2  0
 29 30  1  0
 30 31  2  0
 23 32  1  0
 32 33  1  0
 33 34  1  0
 34 35  1  0
 35 36  2  0
 35 37  2  0
 35 38  1  0
 18 39  1  0
 39 40  2  0
 40 41  1  0
 41  4  1  0
 40 15  1  0
 31 26  1  0
 38 32  1  0
  1 42  1  0
  1 43  1  0
  1 44  1  0
  2 45  1  0
  3 46  1  0
  3 47  1  0
  3 48  1  0
  5 49  1  0
  5 50  1  0
  8 51  1  0
  9 52  1  0
  9 53  1  0
 10 54  1  0
 10 55  1  0
 11 56  1  0
 11 57  1  0
 12 58  1  0
 12 59  1  0
 13 60  1  0
 13 61  1  0
 16 62  1  0
 17 63  1  0
 19 64  1  0
 19 65  1  0
 20 66  1  0
 20 67  1  0
 24 68  1  0
 24 69  1  0
 25 70  1  0
 25 71  1  0
 27 72  1  0
 28 73  1  0
 29 74  1  0
 30 75  1  0
 31 76  1  0
 32 77  1  0
 33 78  1  0
 33 79  1  0
 34 80  1  0
 34 81  1  0
 38 82  1  0
 38 83  1  0
 39 84  1  0
 41 85  1  0
 41 86  1  0
M  END
$$$$
