
     RDKit          3D

 82 85  0  0  0  0  0  0  0  0999 V2000
   -0.6155   -4.8580   -1.7475 C   0  0  0  0  0  0  0  0  0  0  0  0
   -1.7092   -4.1158   -0.9893 C   0  0  0  0  0  0  0  0  0  0  0  0
   -1.4644   -4.1855    0.5255 C   0  0  0  0  0  0  0  0  0  0  0  0
   -2.5075   -3.3984    1.3294 C   0  0  0  0  0  0  0  0  0  0  0  0
   -2.5000   -1.9691    0.9637 N   0  0  0  0  0  0  0  0  0  0  0  0
   -3.7742   -1.3590    0.5477 C   0  0  0  0  0  0  0  0  0  0  0  0
   -4.5806   -0.8246    1.7512 C   0  0  0  0  0  0  0  0  0  0  0  0
   -4.6845    0.6096    1.7287 O   0  0  0  0  0  0  0  0  0  0  0  0
   -5.2785    1.3507    0.6979 C   0  0  0  0  0  0  0  0  0  0  0  0
   -6.3230    0.7982   -0.0707 C   0  0  0  0  0  0  0  0  0  0  0  0
   -6.8981    1.5286   -1.1112 C   0  0  0  0  0  0  0  0  0  0  0  0
   -6.4426    2.8195   -1.3970 C   0  0  0  0  0  0  0  0  0  0  0  0
   -5.4265    3.3937   -0.6297 C   0  0  0  0  0  0  0  0  0  0  0  0
   -4.8297    2.6701    0.4216 C   0  0  0  0  0  0  0  0  0  0  0  0
   -3.7414    3.3605    1.2279 C   0  0  0  0  0  0  0  0  0  0  0  0
   -2.4384    3.6028    0.4136 C   0  0  0  0  0  0  0  0  0  0  0  0
   -1.3044    2.5907    0.6935 C   0  0  0  0  0  0  0  0  0  0  0  0
   -1.7832    1.1477    0.4591 C   0  0  0  0  0  0  0  0  0  0  0  0
   -0.7611   -0.0460    0.4878 C   0  0  0  0  0  0  0  0  0  0  0  0
    0.6388    0.3389    1.0639 C   0  0  0  0  0  0  0  0  0  0  0  0
    1.4726    1.0691    0.1045 N   0  0  0  0  0  0  0  0  0  0  0  0
    2.5632    1.8677    0.6148 C   0  0  0  0  0  0  0  0  0  0  0  0
    2.4936    2.3328    1.7858 O   0  0  0  0  0  0  0  0  0  0  0  0
    3.7767    2.2120   -0.2208 C   0  0  0  0  0  0  0  0  0  0  0  0
    5.0908    2.1066    0.5641 C   0  0  0  0  0  0  0  0  0  0  0  0
    5.3173    0.7476    1.0596 N   0  0  0  0  0  0  0  0  0  0  0  0
    5.1926    0.3701    2.3373 C   0  0  0  0  0  0  0  0  0  0  0  0
    5.5886   -0.9453    2.4367 C   0  0  0  0  0  0  0  0  0  0  0  0
    5.9757   -1.3973    1.2289 N   0  0  0  0  0  0  0  0  0  0  0  0
    5.7922   -0.3439    0.4014 C   0  0  0  0  0  0  0  0  0  0  0  0
    6.2019   -0.3734   -1.0567 C   0  0  0  0  0  0  0  0  0  0  0  0
    5.6227   -1.6001   -1.7563 C   0  0  0  0  0  0  0  0  0  0  0  0
    7.7316   -0.3719   -1.1628 C   0  0  0  0  0  0  0  0  0  0  0  0
    1.4418    0.6266   -1.2921 C   0  0  0  0  0  0  0  0  0  0  0  0
    0.0251    0.2740   -1.7216 C   0  0  0  0  0  0  0  0  0  0  0  0
   -0.5997   -0.6080   -0.8072 O   0  0  0  0  0  0  0  0  0  0  0  0
   -1.3613   -1.1606    1.3742 C   0  0  0  0  0  0  0  0  0  0  0  0
   -0.7794   -1.4675    2.4608 O   0  0  0  0  0  0  0  0  0  0  0  0
    0.3725   -4.3967   -1.5474 H   0  0  0  0  0  0  0  0  0  0  0  0
   -0.5859   -5.9310   -1.4415 H   0  0  0  0  0  0  0  0  0  0  0  0
   -0.8185   -4.8171   -2.8390 H   0  0  0  0  0  0  0  0  0  0  0  0
   -1.7426   -3.0656   -1.3386 H   0  0  0  0  0  0  0  0  0  0  0  0
   -2.6822   -4.5795   -1.2280 H   0  0  0  0  0  0  0  0  0  0  0  0
   -1.5074   -5.2490    0.8464 H   0  0  0  0  0  0  0  0  0  0  0  0
   -0.4489   -3.7915    0.7664 H   0  0  0  0  0  0  0  0  0  0  0  0
   -2.2860   -3.5096    2.4135 H   0  0  0  0  0  0  0  0  0  0  0  0
   -3.5134   -3.8478    1.1771 H   0  0  0  0  0  0  0  0  0  0  0  0
   -4.3813   -2.0958   -0.0415 H   0  0  0  0  0  0  0  0  0  0  0  0
   -3.5977   -0.5636   -0.1960 H   0  0  0  0  0  0  0  0  0  0  0  0
   -5.5830   -1.2885    1.7541 H   0  0  0  0  0  0  0  0  0  0  0  0
   -4.0805   -1.1105    2.6933 H   0  0  0  0  0  0  0  0  0  0  0  0
   -6.7052   -0.2000    0.1308 H   0  0  0  0  0  0  0  0  0  0  0  0
   -7.6943    1.0953   -1.6956 H   0  0  0  0  0  0  0  0  0  0  0  0
   -6.8861    3.3815   -2.2107 H   0  0  0  0  0  0  0  0  0  0  0  0
   -5.0980    4.4104   -0.8539 H   0  0  0  0  0  0  0  0  0  0  0  0
   -4.1450    4.3502    1.5304 H   0  0  0  0  0  0  0  0  0  0  0  0
   -3.5192    2.8186    2.1686 H   0  0  0  0  0  0  0  0  0  0  0  0
   -2.0433    4.6138    0.6665 H   0  0  0  0  0  0  0  0  0  0  0  0
   -2.6484    3.6126   -0.6798 H   0  0  0  0  0  0  0  0  0  0  0  0
   -0.4642    2.8171    0.0168 H   0  0  0  0  0  0  0  0  0  0  0  0
   -0.9674    2.7137    1.7472 H   0  0  0  0  0  0  0  0  0  0  0  0
   -2.3367    1.1346   -0.4932 H   0  0  0  0  0  0  0  0  0  0  0  0
   -2.5095    0.9790    1.2554 H   0  0  0  0  0  0  0  0  0  0  0  0
    0.5079    0.9213    1.9949 H   0  0  0  0  0  0  0  0  0  0  0  0
    1.1999   -0.5768    1.3391 H   0  0  0  0  0  0  0  0  0  0  0  0
    3.8597    1.5517   -1.1016 H   0  0  0  0  0  0  0  0  0  0  0  0
    3.6605    3.2564   -0.5911 H   0  0  0  0  0  0  0  0  0  0  0  0
    5.9348    2.4112   -0.0864 H   0  0  0  0  0  0  0  0  0  0  0  0
    5.0797    2.8193    1.4180 H   0  0  0  0  0  0  0  0  0  0  0  0
    4.8749    1.0174    3.1514 H   0  0  0  0  0  0  0  0  0  0  0  0
    5.6061   -1.5464    3.3433 H   0  0  0  0  0  0  0  0  0  0  0  0
    5.8343    0.5373   -1.5904 H   0  0  0  0  0  0  0  0  0  0  0  0
    4.5187   -1.6007   -1.6625 H   0  0  0  0  0  0  0  0  0  0  0  0
    6.0207   -2.5260   -1.3030 H   0  0  0  0  0  0  0  0  0  0  0  0
    5.8919   -1.5948   -2.8344 H   0  0  0  0  0  0  0  0  0  0  0  0
    8.1578   -1.2940   -0.7035 H   0  0  0  0  0  0  0  0  0  0  0  0
    8.0418   -0.3020   -2.2254 H   0  0  0  0  0  0  0  0  0  0  0  0
    8.1477    0.5125   -0.6445 H   0  0  0  0  0  0  0  0  0  0  0  0
    1.7852    1.4376   -1.9576 H   0  0  0  0  0  0  0  0  0  0  0  0
    2.1071   -0.2577   -1.4181 H   0  0  0  0  0  0  0  0  0  0  0  0
    0.0899   -0.2385   -2.7066 H   0  0  0  0  0  0  0  0  0  0  0  0
   -0.5683    1.1987   -1.8871 H   0  0  0  0  0  0  0  0  0  0  0  0
  1  2  1  0
  2  3  1  0
  3  4  1  0
  4  5  1  0
  5  6  1  0
  6  7  1  0
  7  8  1  0
  8  9  1  0
  9 10  2  0
 10 11  1  0
 11 12  2  0
 12 13  1  0
 13 14  2  0
 14 15  1  0
 15 16  1  0
 16 17  1  0
 17 18  1  0
 18 19  1  0
 19 20  1  0
 20 21  1  0
 21 22  1  0
 22 23  2  0
 22 24  1  0
 24 25  1  0
 25 26  1  0
 26 27  1  0
 27 28  2  0
 28 29  1  0
 29 30  2  0
 30 31  1  0
 31 32  1  0
 31 33  1  0
 21 34  1  0
 34 35  1  0
 35 36  1  0
 19 37  1  0
 37 38  2  0
 37  5  1  0
 14  9  1  0
 36 19  1  0
 30 26  1  0
  1 39  1  0
  1 40  1  0
  1 41  1  0
  2 42  1  0
  2 43  1  0
  3 44  1  0
  3 45  1  0
  4 46  1  0
  4 47  1  0
  6 48  1  0
  6 49  1  0
  7 50  1  0
  7 51  1  0
 10 52  1  0
 11 53  1  0
 12 54  1  0
 13 55  1  0
 15 56  1  0
 15 57  1  0
 16 58  1  0
 16 59  1  0
 17 60  1  0
 17 61  1  0
 18 62  1  0
 18 63  1  0
 20 64  1  0
 20 65  1  0
 24 66  1  0
 24 67  1  0
 25 68  1  0
 25 69  1  0
 27 70  1  0
 28 71  1  0
 31 72  1  0
 32 73  1  0
 32 74  1  0
 32 75  1  0
 33 76  1  0
 33 77  1  0
 33 78  1  0
 34 79  1  0
 34 80  1  0
 35 81  1  0
 35 82  1  0
M  END
$$$$
