
     RDKit          3D

 84 87  0  0  0  0  0  0  0  0999 V2000
   -6.4310    3.6813   -1.8402 C   0  0  0  0  0  0  0  0  0  0  0  0
   -5.7853    2.5315   -1.1215 C   0  0  0  0  0  0  0  0  0  0  0  0
   -4.4103    2.5582   -0.8486 C   0  0  0  0  0  0  0  0  0  0  0  0
   -3.8076    1.5101   -0.1503 C   0  0  0  0  0  0  0  0  0  0  0  0
   -4.5722    0.4213    0.2935 C   0  0  0  0  0  0  0  0  0  0  0  0
   -5.9517    0.3874    0.0118 C   0  0  0  0  0  0  0  0  0  0  0  0
   -6.5554    1.4504   -0.6698 C   0  0  0  0  0  0  0  0  0  0  0  0
   -6.7378   -0.6932    0.4252 O   0  0  0  0  0  0  0  0  0  0  0  0
   -6.1840   -1.9245    0.8918 C   0  0  0  0  0  0  0  0  0  0  0  0
   -5.8598   -2.8202   -0.3174 C   0  0  0  0  0  0  0  0  0  0  0  0
   -7.2373   -2.6268    1.7657 C   0  0  0  0  0  0  0  0  0  0  0  0
   -4.9221   -1.6384    1.7466 C   0  0  0  0  0  0  0  0  0  0  0  0
   -3.9035   -0.7044    1.0543 C   0  0  0  0  0  0  0  0  0  0  0  0
   -3.0087   -1.4567    0.1686 N   0  0  0  0  0  0  0  0  0  0  0  0
   -1.9461   -2.2851    0.6651 C   0  0  0  0  0  0  0  0  0  0  0  0
   -1.7392   -2.3742    1.9067 O   0  0  0  0  0  0  0  0  0  0  0  0
   -1.1233   -3.0890   -0.3053 C   0  0  0  0  0  0  0  0  0  0  0  0
    0.1366   -3.7207    0.3090 C   0  0  0  0  0  0  0  0  0  0  0  0
    1.2080   -2.6991    0.6051 C   0  0  0  0  0  0  0  0  0  0  0  0
    1.5049   -2.3398    1.9268 C   0  0  0  0  0  0  0  0  0  0  0  0
    2.5518   -1.4581    2.2011 C   0  0  0  0  0  0  0  0  0  0  0  0
    3.3244   -0.9197    1.1547 C   0  0  0  0  0  0  0  0  0  0  0  0
    3.0146   -1.2589   -0.1795 C   0  0  0  0  0  0  0  0  0  0  0  0
    1.9532   -2.1401   -0.4420 C   0  0  0  0  0  0  0  0  0  0  0  0
    3.8182   -0.7190   -1.3418 C   0  0  0  0  0  0  0  0  0  0  0  0
    3.0700    0.3479   -2.0420 N   0  0  0  0  0  0  0  0  0  0  0  0
    3.1069    0.3767   -3.5296 C   0  0  0  0  0  0  0  0  0  0  0  0
    4.4603   -0.0307   -4.1483 C   0  0  0  0  0  0  0  0  0  0  0  0
    1.9862   -0.5150   -4.0696 C   0  0  0  0  0  0  0  0  0  0  0  0
    3.0125    1.6645   -1.3575 C   0  0  0  0  0  0  0  0  0  0  0  0
    4.3700    2.2791   -1.0707 C   0  0  0  0  0  0  0  0  0  0  0  0
    5.2879    2.1717   -1.9302 O   0  0  0  0  0  0  0  0  0  0  0  0
    4.6334    3.0444    0.1228 N   0  0  0  0  0  0  0  0  0  0  0  0
    3.7132    3.1177    1.2572 C   0  0  0  0  0  0  0  0  0  0  0  0
    4.3963    3.6206    2.5394 C   0  0  0  0  0  0  0  0  0  0  0  0
    5.6389    2.8427    3.0612 C   0  0  0  0  0  0  0  0  0  0  0  0
    5.9467    1.4366    2.4978 C   0  0  0  0  0  0  0  0  0  0  0  0
    4.8299    0.3939    2.6860 C   0  0  0  0  0  0  0  0  0  0  0  0
    4.3960   -0.0475    1.4022 O   0  0  0  0  0  0  0  0  0  0  0  0
   -6.6442    4.4940   -1.1169 H   0  0  0  0  0  0  0  0  0  0  0  0
   -5.7596    4.0687   -2.6364 H   0  0  0  0  0  0  0  0  0  0  0  0
   -7.3844    3.3654   -2.3189 H   0  0  0  0  0  0  0  0  0  0  0  0
   -3.8031    3.3904   -1.1802 H   0  0  0  0  0  0  0  0  0  0  0  0
   -2.7427    1.5436    0.0486 H   0  0  0  0  0  0  0  0  0  0  0  0
   -7.6216    1.4256   -0.8577 H   0  0  0  0  0  0  0  0  0  0  0  0
   -6.7916   -3.1214   -0.8394 H   0  0  0  0  0  0  0  0  0  0  0  0
   -5.3254   -3.7386    0.0023 H   0  0  0  0  0  0  0  0  0  0  0  0
   -5.2384   -2.2796   -1.0554 H   0  0  0  0  0  0  0  0  0  0  0  0
   -7.5013   -1.9961    2.6396 H   0  0  0  0  0  0  0  0  0  0  0  0
   -6.8560   -3.5990    2.1390 H   0  0  0  0  0  0  0  0  0  0  0  0
   -8.1663   -2.8055    1.1871 H   0  0  0  0  0  0  0  0  0  0  0  0
   -4.4371   -2.5925    2.0488 H   0  0  0  0  0  0  0  0  0  0  0  0
   -5.2381   -1.1365    2.6885 H   0  0  0  0  0  0  0  0  0  0  0  0
   -3.2872   -0.2366    1.8550 H   0  0  0  0  0  0  0  0  0  0  0  0
   -3.1079   -1.3582   -0.8668 H   0  0  0  0  0  0  0  0  0  0  0  0
   -0.8427   -2.4452   -1.1685 H   0  0  0  0  0  0  0  0  0  0  0  0
   -1.7692   -3.9058   -0.6968 H   0  0  0  0  0  0  0  0  0  0  0  0
   -0.1311   -4.2992    1.2223 H   0  0  0  0  0  0  0  0  0  0  0  0
    0.5457   -4.4580   -0.4137 H   0  0  0  0  0  0  0  0  0  0  0  0
    0.9372   -2.7630    2.7469 H   0  0  0  0  0  0  0  0  0  0  0  0
    2.7659   -1.2166    3.2338 H   0  0  0  0  0  0  0  0  0  0  0  0
    1.7228   -2.4114   -1.4655 H   0  0  0  0  0  0  0  0  0  0  0  0
    4.8200   -0.3588   -1.0223 H   0  0  0  0  0  0  0  0  0  0  0  0
    4.0040   -1.5794   -2.0170 H   0  0  0  0  0  0  0  0  0  0  0  0
    2.8912    1.4050   -3.8962 H   0  0  0  0  0  0  0  0  0  0  0  0
    5.3077    0.4922   -3.6633 H   0  0  0  0  0  0  0  0  0  0  0  0
    4.4712    0.2429   -5.2265 H   0  0  0  0  0  0  0  0  0  0  0  0
    4.6363   -1.1244   -4.0877 H   0  0  0  0  0  0  0  0  0  0  0  0
    1.0104   -0.2019   -3.6354 H   0  0  0  0  0  0  0  0  0  0  0  0
    1.9215   -0.4261   -5.1768 H   0  0  0  0  0  0  0  0  0  0  0  0
    2.1679   -1.5795   -3.8031 H   0  0  0  0  0  0  0  0  0  0  0  0
    2.4313    1.5289   -0.4290 H   0  0  0  0  0  0  0  0  0  0  0  0
    2.4187    2.3926   -1.9520 H   0  0  0  0  0  0  0  0  0  0  0  0
    5.5685    3.5050    0.1997 H   0  0  0  0  0  0  0  0  0  0  0  0
    2.8807    3.8021    0.9962 H   0  0  0  0  0  0  0  0  0  0  0  0
    3.2603    2.1384    1.4670 H   0  0  0  0  0  0  0  0  0  0  0  0
    3.6264    3.6230    3.3402 H   0  0  0  0  0  0  0  0  0  0  0  0
    4.6825    4.6865    2.3870 H   0  0  0  0  0  0  0  0  0  0  0  0
    5.5636    2.7632    4.1655 H   0  0  0  0  0  0  0  0  0  0  0  0
    6.5369    3.4670    2.8685 H   0  0  0  0  0  0  0  0  0  0  0  0
    6.8562    1.0630    3.0217 H   0  0  0  0  0  0  0  0  0  0  0  0
    6.2399    1.5119    1.4296 H   0  0  0  0  0  0  0  0  0  0  0  0
    5.2183   -0.4799    3.2553 H   0  0  0  0  0  0  0  0  0  0  0  0
    3.9779    0.8290    3.2547 H   0  0  0  0  0  0  0  0  0  0  0  0
  1  2  1  0
  2  3  2  0
  3  4  1  0
  4  5  2  0
  5  6  1  0
  6  7  2  0
  6  8  1  0
  8  9  1  0
  9 10  1  0
  9 11  1  0
  9 12  1  0
 12 13  1  0
 13 14  1  0
 14 15  1  0
 15 16  2  0
 15 17  1  0
 17 18  1  0
 18 19  1  0
 19 20  2  0
 20 21  1  0
 21 22  2  0
 22 23  1  0
 23 24  2  0
 23 25  1  0
 25 26  1  0
 26 27  1  0
 27 28  1  0
 27 29  1  0
 26 30  1  0
 30 31  1  0
 31 32  2  0
 31 33  1  0
 33 34  1  0
 34 35  1  0
 35 36  1  0
 36 37  1  0
 37 38  1  0
 38 39  1  0
  7  2  1  0
 24 19  1  0
 13  5  1  0
 39 22  1  0
  1 40  1  0
  1 41  1  0
  1 42  1  0
  3 43  1  0
  4 44  1  0
  7 45  1  0
 10 46  1  0
 10 47  1  0
 10 48  1  0
 11 49  1  0
 11 50  1  0
 11 51  1  0
 12 52  1  0
 12 53  1  0
 13 54  1  0
 14 55  1  0
 17 56  1  0
 17 57  1  0
 18 58  1  0
 18 59  1  0
 20 60  1  0
 21 61  1  0
 24 62  1  0
 25 63  1  0
 25 64  1  0
 27 65  1  0
 28 66  1  0
 28 67  1  0
 28 68  1  0
 29 69  1  0
 29 70  1  0
 29 71  1  0
 30 72  1  0
 30 73  1  0
 33 74  1  0
 34 75  1  0
 34 76  1  0
 35 77  1  0
 35 78  1  0
 36 79  1  0
 36 80  1  0
 37 81  1  0
 37 82  1  0
 38 83  1  0
 38 84  1  0
M  END
$$$$
