
     RDKit          3D

 55 58  0  0  0  0  0  0  0  0999 V2000
   -3.6578    1.9648    2.3597 O   0  0  0  0  0  0  0  0  0  0  0  0
   -4.2374    1.5977    1.3026 C   0  0  0  0  0  0  0  0  0  0  0  0
   -5.3622    0.7169    1.3824 N   0  0  0  0  0  0  0  0  0  0  0  0
   -5.2192   -0.5781    2.0409 C   0  0  0  0  0  0  0  0  0  0  0  0
   -4.8690   -1.6687    1.0234 C   0  0  0  0  0  0  0  0  0  0  0  0
   -3.7914   -1.2567    0.2012 O   0  0  0  0  0  0  0  0  0  0  0  0
   -3.2025   -2.3785   -0.4313 C   0  0  0  0  0  0  0  0  0  0  0  0
   -2.5798   -1.9733   -1.7734 C   0  0  0  0  0  0  0  0  0  0  0  0
   -1.7205   -0.8367   -1.6623 O   0  0  0  0  0  0  0  0  0  0  0  0
   -0.4351   -0.8102   -1.0908 C   0  0  0  0  0  0  0  0  0  0  0  0
    0.1670   -1.9734   -0.5763 C   0  0  0  0  0  0  0  0  0  0  0  0
    1.4254   -1.9199    0.0214 C   0  0  0  0  0  0  0  0  0  0  0  0
    2.1303   -0.7117    0.0965 C   0  0  0  0  0  0  0  0  0  0  0  0
    3.4697   -0.6848    0.7339 C   0  0  0  0  0  0  0  0  0  0  0  0
    3.7148   -1.4982    1.6681 O   0  0  0  0  0  0  0  0  0  0  0  0
    4.4816    0.2509    0.3142 N   0  0  0  0  0  0  0  0  0  0  0  0
    5.8260    0.2489    0.8229 C   0  0  0  0  0  0  0  0  0  0  0  0
    6.4793    1.4703    1.0472 C   0  0  0  0  0  0  0  0  0  0  0  0
    7.7935    1.4936    1.5230 C   0  0  0  0  0  0  0  0  0  0  0  0
    8.4732    0.2964    1.7617 C   0  0  0  0  0  0  0  0  0  0  0  0
    7.8413   -0.9266    1.5175 C   0  0  0  0  0  0  0  0  0  0  0  0
    8.7030   -2.4288    1.7979 Cl  0  0  0  0  0  0  0  0  0  0  0  0
    6.5240   -0.9531    1.0444 C   0  0  0  0  0  0  0  0  0  0  0  0
    1.5444    0.4501   -0.4321 C   0  0  0  0  0  0  0  0  0  0  0  0
    0.2700    0.4179   -1.0270 C   0  0  0  0  0  0  0  0  0  0  0  0
   -0.2448    1.6887   -1.6875 C   0  0  0  0  0  0  0  0  0  0  0  0
   -1.7164    1.9418   -1.4725 C   0  0  0  0  0  0  0  0  0  0  0  0
   -2.5494    2.2368   -2.5637 C   0  0  0  0  0  0  0  0  0  0  0  0
   -3.9254    2.3864   -2.3788 C   0  0  0  0  0  0  0  0  0  0  0  0
   -4.4850    2.2187   -1.1105 C   0  0  0  0  0  0  0  0  0  0  0  0
   -3.6617    1.9432   -0.0073 C   0  0  0  0  0  0  0  0  0  0  0  0
   -2.2732    1.8545   -0.1873 C   0  0  0  0  0  0  0  0  0  0  0  0
   -6.1353    0.8141    0.6865 H   0  0  0  0  0  0  0  0  0  0  0  0
   -6.1738   -0.8386    2.5441 H   0  0  0  0  0  0  0  0  0  0  0  0
   -4.4285   -0.5319    2.8208 H   0  0  0  0  0  0  0  0  0  0  0  0
   -5.7612   -1.8625    0.3870 H   0  0  0  0  0  0  0  0  0  0  0  0
   -4.6294   -2.5975    1.5952 H   0  0  0  0  0  0  0  0  0  0  0  0
   -3.9422   -3.1862   -0.6512 H   0  0  0  0  0  0  0  0  0  0  0  0
   -2.4261   -2.8019    0.2397 H   0  0  0  0  0  0  0  0  0  0  0  0
   -3.4041   -1.7081   -2.4674 H   0  0  0  0  0  0  0  0  0  0  0  0
   -2.0350   -2.8289   -2.2259 H   0  0  0  0  0  0  0  0  0  0  0  0
   -0.3212   -2.9336   -0.6408 H   0  0  0  0  0  0  0  0  0  0  0  0
    1.8592   -2.8337    0.4087 H   0  0  0  0  0  0  0  0  0  0  0  0
    4.2288    1.0218   -0.3399 H   0  0  0  0  0  0  0  0  0  0  0  0
    5.9638    2.4043    0.8630 H   0  0  0  0  0  0  0  0  0  0  0  0
    8.2857    2.4399    1.7060 H   0  0  0  0  0  0  0  0  0  0  0  0
    9.4908    0.3208    2.1296 H   0  0  0  0  0  0  0  0  0  0  0  0
    6.0600   -1.9060    0.8281 H   0  0  0  0  0  0  0  0  0  0  0  0
    2.0662    1.3951   -0.3692 H   0  0  0  0  0  0  0  0  0  0  0  0
   -0.0164    1.6188   -2.7735 H   0  0  0  0  0  0  0  0  0  0  0  0
    0.3014    2.5773   -1.3011 H   0  0  0  0  0  0  0  0  0  0  0  0
   -2.1386    2.3302   -3.5612 H   0  0  0  0  0  0  0  0  0  0  0  0
   -4.5633    2.6052   -3.2255 H   0  0  0  0  0  0  0  0  0  0  0  0
   -5.5586    2.3035   -0.9954 H   0  0  0  0  0  0  0  0  0  0  0  0
   -1.6346    1.6188    0.6556 H   0  0  0  0  0  0  0  0  0  0  0  0
  1  2  2  0
  2  3  1  0
  3  4  1  0
  4  5  1  0
  5  6  1  0
  6  7  1  0
  7  8  1  0
  8  9  1  0
  9 10  1  0
 10 11  2  0
 11 12  1  0
 12 13  2  0
 13 14  1  0
 14 15  2  0
 14 16  1  0
 16 17  1  0
 17 18  2  0
 18 19  1  0
 19 20  2  0
 20 21  1  0
 21 22  1  0
 21 23  2  0
 13 24  1  0
 24 25  2  0
 25 26  1  0
 26 27  1  0
 27 28  1  0
 28 29  2  0
 29 30  1  0
 30 31  2  0
 31 32  1  0
 31  2  1  0
 25 10  1  0
 32 27  2  0
 23 17  1  0
  3 33  1  0
  4 34  1  0
  4 35  1  0
  5 36  1  0
  5 37  1  0
  7 38  1  0
  7 39  1  0
  8 40  1  0
  8 41  1  0
 11 42  1  0
 12 43  1  0
 16 44  1  0
 18 45  1  0
 19 46  1  0
 20 47  1  0
 23 48  1  0
 24 49  1  0
 26 50  1  0
 26 51  1  0
 28 52  1  0
 29 53  1  0
 30 54  1  0
 32 55  1  0
M  END
$$$$
