
     RDKit          3D

 76 79  0  0  0  0  0  0  0  0999 V2000
   -3.1587    5.8643   -1.1248 C   0  0  0  0  0  0  0  0  0  0  0  0
   -3.7099    4.6392   -1.8536 C   0  0  0  0  0  0  0  0  0  0  0  0
   -2.7832    3.4166   -1.7376 C   0  0  0  0  0  0  0  0  0  0  0  0
   -2.7683    2.8224   -0.3205 C   0  0  0  0  0  0  0  0  0  0  0  0
   -2.0422    1.5440   -0.2972 N   0  0  0  0  0  0  0  0  0  0  0  0
   -2.7217    0.2974   -0.7001 C   0  0  0  0  0  0  0  0  0  0  0  0
   -4.1912    0.2145   -1.0524 C   0  0  0  0  0  0  0  0  0  0  0  0
   -4.4616   -1.1977   -1.1665 O   0  0  0  0  0  0  0  0  0  0  0  0
   -4.6911   -2.0219   -0.0450 C   0  0  0  0  0  0  0  0  0  0  0  0
   -5.9330   -1.8960    0.5939 C   0  0  0  0  0  0  0  0  0  0  0  0
   -6.2818   -2.7285    1.6559 C   0  0  0  0  0  0  0  0  0  0  0  0
   -5.4001   -3.7138    2.0879 C   0  0  0  0  0  0  0  0  0  0  0  0
   -4.1503   -3.8497    1.4829 C   0  0  0  0  0  0  0  0  0  0  0  0
   -3.7408   -2.9861    0.4454 C   0  0  0  0  0  0  0  0  0  0  0  0
   -2.3289   -3.1919   -0.1207 C   0  0  0  0  0  0  0  0  0  0  0  0
   -1.1951   -3.2679    0.9850 C   0  0  0  0  0  0  0  0  0  0  0  0
    0.0310   -2.3033    0.8545 C   0  0  0  0  0  0  0  0  0  0  0  0
   -0.4875   -0.8687    0.7304 C   0  0  0  0  0  0  0  0  0  0  0  0
    0.2745    0.4833    0.6686 C   0  0  0  0  0  0  0  0  0  0  0  0
    1.6284    0.2956   -0.0660 C   0  0  0  0  0  0  0  0  0  0  0  0
    2.5635   -0.4510    0.7769 N   0  0  0  0  0  0  0  0  0  0  0  0
    3.5279   -1.3332    0.1644 C   0  0  0  0  0  0  0  0  0  0  0  0
    3.2014   -1.9883   -0.8634 O   0  0  0  0  0  0  0  0  0  0  0  0
    4.9052   -1.5354    0.7517 C   0  0  0  0  0  0  0  0  0  0  0  0
    5.9998   -1.6256   -0.3223 C   0  0  0  0  0  0  0  0  0  0  0  0
    6.1385   -0.3372   -1.0907 C   0  0  0  0  0  0  0  0  0  0  0  0
    5.5492   -0.0647   -2.3088 C   0  0  0  0  0  0  0  0  0  0  0  0
    5.9020    1.2440   -2.5805 C   0  0  0  0  0  0  0  0  0  0  0  0
    6.6547    1.7304   -1.5741 N   0  0  0  0  0  0  0  0  0  0  0  0
    6.7997    0.7666   -0.6778 N   0  0  0  0  0  0  0  0  0  0  0  0
    7.5082    0.9509    0.5848 C   0  0  0  0  0  0  0  0  0  0  0  0
    2.7063   -0.0035    2.1629 C   0  0  0  0  0  0  0  0  0  0  0  0
    1.3309    0.2429    2.7894 C   0  0  0  0  0  0  0  0  0  0  0  0
    0.4879    1.0308    1.9677 O   0  0  0  0  0  0  0  0  0  0  0  0
   -0.5795    1.5649   -0.0929 C   0  0  0  0  0  0  0  0  0  0  0  0
    0.0365    2.6077   -0.4507 O   0  0  0  0  0  0  0  0  0  0  0  0
   -2.1314    6.0964   -1.4770 H   0  0  0  0  0  0  0  0  0  0  0  0
   -3.8089    6.7419   -1.3300 H   0  0  0  0  0  0  0  0  0  0  0  0
   -3.1459    5.6972   -0.0299 H   0  0  0  0  0  0  0  0  0  0  0  0
   -4.7230    4.3941   -1.4657 H   0  0  0  0  0  0  0  0  0  0  0  0
   -3.8200    4.8974   -2.9290 H   0  0  0  0  0  0  0  0  0  0  0  0
   -1.7525    3.6983   -2.0446 H   0  0  0  0  0  0  0  0  0  0  0  0
   -3.1391    2.6483   -2.4569 H   0  0  0  0  0  0  0  0  0  0  0  0
   -3.8050    2.6822    0.0496 H   0  0  0  0  0  0  0  0  0  0  0  0
   -2.2823    3.5354    0.3793 H   0  0  0  0  0  0  0  0  0  0  0  0
   -2.1875   -0.1325   -1.5766 H   0  0  0  0  0  0  0  0  0  0  0  0
   -2.7506   -0.3293    0.1895 H   0  0  0  0  0  0  0  0  0  0  0  0
   -4.8351    0.6692   -0.2686 H   0  0  0  0  0  0  0  0  0  0  0  0
   -4.3873    0.7060   -2.0271 H   0  0  0  0  0  0  0  0  0  0  0  0
   -6.6464   -1.1619    0.2432 H   0  0  0  0  0  0  0  0  0  0  0  0
   -7.2488   -2.6227    2.1303 H   0  0  0  0  0  0  0  0  0  0  0  0
   -5.6834   -4.3774    2.8956 H   0  0  0  0  0  0  0  0  0  0  0  0
   -3.4919   -4.6336    1.8366 H   0  0  0  0  0  0  0  0  0  0  0  0
   -2.3399   -4.1676   -0.6536 H   0  0  0  0  0  0  0  0  0  0  0  0
   -2.1171   -2.4637   -0.9207 H   0  0  0  0  0  0  0  0  0  0  0  0
   -0.8020   -4.3072    1.0107 H   0  0  0  0  0  0  0  0  0  0  0  0
   -1.6338   -3.0907    1.9914 H   0  0  0  0  0  0  0  0  0  0  0  0
    0.6762   -2.4260    1.7453 H   0  0  0  0  0  0  0  0  0  0  0  0
    0.6380   -2.5913   -0.0334 H   0  0  0  0  0  0  0  0  0  0  0  0
   -1.2691   -0.7488    1.5130 H   0  0  0  0  0  0  0  0  0  0  0  0
   -0.7792   -0.9650   -0.3100 H   0  0  0  0  0  0  0  0  0  0  0  0
    2.0951    1.2781   -0.2935 H   0  0  0  0  0  0  0  0  0  0  0  0
    1.4574   -0.2209   -1.0354 H   0  0  0  0  0  0  0  0  0  0  0  0
    5.1633   -0.7065    1.4414 H   0  0  0  0  0  0  0  0  0  0  0  0
    4.9001   -2.4780    1.3405 H   0  0  0  0  0  0  0  0  0  0  0  0
    6.9672   -1.8711    0.1642 H   0  0  0  0  0  0  0  0  0  0  0  0
    5.7737   -2.4590   -1.0235 H   0  0  0  0  0  0  0  0  0  0  0  0
    4.9365   -0.7214   -2.9128 H   0  0  0  0  0  0  0  0  0  0  0  0
    5.6191    1.8098   -3.4565 H   0  0  0  0  0  0  0  0  0  0  0  0
    6.7775    1.0970    1.4084 H   0  0  0  0  0  0  0  0  0  0  0  0
    8.1470    0.0701    0.8040 H   0  0  0  0  0  0  0  0  0  0  0  0
    8.1607    1.8482    0.5249 H   0  0  0  0  0  0  0  0  0  0  0  0
    3.2266   -0.7720    2.7744 H   0  0  0  0  0  0  0  0  0  0  0  0
    3.2997    0.9364    2.1826 H   0  0  0  0  0  0  0  0  0  0  0  0
    1.4871    0.7930    3.7409 H   0  0  0  0  0  0  0  0  0  0  0  0
    0.8344   -0.7039    3.0777 H   0  0  0  0  0  0  0  0  0  0  0  0
  1  2  1  0
  2  3  1  0
  3  4  1  0
  4  5  1  0
  5  6  1  0
  6  7  1  0
  7  8  1  0
  8  9  1  0
  9 10  2  0
 10 11  1  0
 11 12  2  0
 12 13  1  0
 13 14  2  0
 14 15  1  0
 15 16  1  0
 16 17  1  0
 17 18  1  0
 18 19  1  0
 19 20  1  0
 20 21  1  0
 21 22  1  0
 22 23  2  0
 22 24  1  0
 24 25  1  0
 25 26  1  0
 26 27  2  0
 27 28  1  0
 28 29  2  0
 29 30  1  0
 30 31  1  0
 21 32  1  0
 32 33  1  0
 33 34  1  0
 19 35  1  0
 35 36  2  0
 35  5  1  0
 14  9  1  0
 34 19  1  0
 30 26  1  0
  1 37  1  0
  1 38  1  0
  1 39  1  0
  2 40  1  0
  2 41  1  0
  3 42  1  0
  3 43  1  0
  4 44  1  0
  4 45  1  0
  6 46  1  0
  6 47  1  0
  7 48  1  0
  7 49  1  0
 10 50  1  0
 11 51  1  0
 12 52  1  0
 13 53  1  0
 15 54  1  0
 15 55  1  0
 16 56  1  0
 16 57  1  0
 17 58  1  0
 17 59  1  0
 18 60  1  0
 18 61  1  0
 20 62  1  0
 20 63  1  0
 24 64  1  0
 24 65  1  0
 25 66  1  0
 25 67  1  0
 27 68  1  0
 28 69  1  0
 31 70  1  0
 31 71  1  0
 31 72  1  0
 32 73  1  0
 32 74  1  0
 33 75  1  0
 33 76  1  0
M  END
$$$$
