
     RDKit          3D

 61 64  0  0  0  0  0  0  0  0999 V2000
    0.0280   -0.2482    2.5778 C   0  0  0  0  0  0  0  0  0  0  0  0
   -0.5267   -0.8871    1.3793 N   0  0  0  0  0  0  0  0  0  0  0  0
   -1.4209   -2.0448    1.5385 C   0  0  0  0  0  0  0  0  0  0  0  0
   -2.6734   -1.7148    2.3593 C   0  0  0  0  0  0  0  0  0  0  0  0
   -3.3845   -0.6188    1.7822 O   0  0  0  0  0  0  0  0  0  0  0  0
   -4.1439   -0.6679    0.6048 C   0  0  0  0  0  0  0  0  0  0  0  0
   -4.5427   -1.8890    0.0234 C   0  0  0  0  0  0  0  0  0  0  0  0
   -5.3698   -1.8946   -1.1047 C   0  0  0  0  0  0  0  0  0  0  0  0
   -5.7976   -0.6955   -1.6716 C   0  0  0  0  0  0  0  0  0  0  0  0
   -5.3587    0.5184   -1.1425 C   0  0  0  0  0  0  0  0  0  0  0  0
   -4.5167    0.5450   -0.0140 C   0  0  0  0  0  0  0  0  0  0  0  0
   -3.9890    1.8729    0.4813 C   0  0  0  0  0  0  0  0  0  0  0  0
   -2.4663    2.0217    0.2869 C   0  0  0  0  0  0  0  0  0  0  0  0
   -1.9881    1.7810   -1.1657 C   0  0  0  0  0  0  0  0  0  0  0  0
   -1.2669    0.4269   -1.3555 C   0  0  0  0  0  0  0  0  0  0  0  0
    0.1941    0.3442   -0.7721 C   0  0  0  0  0  0  0  0  0  0  0  0
    1.2096    0.1162   -1.9497 C   0  0  0  0  0  0  0  0  0  0  0  0
    2.5613    0.4566   -1.4992 N   0  0  0  0  0  0  0  0  0  0  0  0
    3.7000   -0.2398   -2.0379 C   0  0  0  0  0  0  0  0  0  0  0  0
    3.6829   -0.6063   -3.2432 O   0  0  0  0  0  0  0  0  0  0  0  0
    4.9074   -0.4966   -1.2172 C   0  0  0  0  0  0  0  0  0  0  0  0
    6.1720   -0.5009   -1.8275 C   0  0  0  0  0  0  0  0  0  0  0  0
    7.3278   -0.7160   -1.0679 C   0  0  0  0  0  0  0  0  0  0  0  0
    8.5397   -0.6893   -1.6682 F   0  0  0  0  0  0  0  0  0  0  0  0
    7.2324   -0.9438    0.3056 C   0  0  0  0  0  0  0  0  0  0  0  0
    5.9783   -0.9587    0.9222 C   0  0  0  0  0  0  0  0  0  0  0  0
    4.8207   -0.7434    0.1677 C   0  0  0  0  0  0  0  0  0  0  0  0
    3.6160   -0.8072    0.7878 F   0  0  0  0  0  0  0  0  0  0  0  0
    2.7499    1.7407   -0.8152 C   0  0  0  0  0  0  0  0  0  0  0  0
    1.3966    2.4174   -0.5862 C   0  0  0  0  0  0  0  0  0  0  0  0
    0.4840    1.5114    0.0105 O   0  0  0  0  0  0  0  0  0  0  0  0
    0.2739   -0.8461    0.1883 C   0  0  0  0  0  0  0  0  0  0  0  0
    1.0719   -1.8059   -0.0289 O   0  0  0  0  0  0  0  0  0  0  0  0
    0.6532    0.6325    2.3106 H   0  0  0  0  0  0  0  0  0  0  0  0
    0.6617   -0.9731    3.1289 H   0  0  0  0  0  0  0  0  0  0  0  0
   -0.7808    0.1142    3.2404 H   0  0  0  0  0  0  0  0  0  0  0  0
   -0.8687   -2.8694    2.0329 H   0  0  0  0  0  0  0  0  0  0  0  0
   -1.7456   -2.4059    0.5424 H   0  0  0  0  0  0  0  0  0  0  0  0
   -2.3858   -1.4540    3.3954 H   0  0  0  0  0  0  0  0  0  0  0  0
   -3.3298   -2.6066    2.4413 H   0  0  0  0  0  0  0  0  0  0  0  0
   -4.2410   -2.8426    0.4396 H   0  0  0  0  0  0  0  0  0  0  0  0
   -5.7022   -2.8341   -1.5274 H   0  0  0  0  0  0  0  0  0  0  0  0
   -6.4728   -0.6991   -2.5217 H   0  0  0  0  0  0  0  0  0  0  0  0
   -5.6667    1.4378   -1.6227 H   0  0  0  0  0  0  0  0  0  0  0  0
   -4.4854    2.7121   -0.0555 H   0  0  0  0  0  0  0  0  0  0  0  0
   -4.2400    1.9875    1.5569 H   0  0  0  0  0  0  0  0  0  0  0  0
   -1.9361    1.3614    1.0008 H   0  0  0  0  0  0  0  0  0  0  0  0
   -2.1990    3.0640    0.5670 H   0  0  0  0  0  0  0  0  0  0  0  0
   -1.3184    2.6086   -1.4826 H   0  0  0  0  0  0  0  0  0  0  0  0
   -2.8521    1.8253   -1.8628 H   0  0  0  0  0  0  0  0  0  0  0  0
   -1.9143   -0.3793   -0.9470 H   0  0  0  0  0  0  0  0  0  0  0  0
   -1.2574    0.2287   -2.4502 H   0  0  0  0  0  0  0  0  0  0  0  0
    0.9642    0.7723   -2.8166 H   0  0  0  0  0  0  0  0  0  0  0  0
    1.1597   -0.9327   -2.3305 H   0  0  0  0  0  0  0  0  0  0  0  0
    6.2621   -0.3195   -2.8896 H   0  0  0  0  0  0  0  0  0  0  0  0
    8.1295   -1.1119    0.8855 H   0  0  0  0  0  0  0  0  0  0  0  0
    5.9033   -1.1461    1.9871 H   0  0  0  0  0  0  0  0  0  0  0  0
    3.2441    1.5856    0.1646 H   0  0  0  0  0  0  0  0  0  0  0  0
    3.3935    2.4047   -1.4304 H   0  0  0  0  0  0  0  0  0  0  0  0
    1.5289    3.2885    0.0908 H   0  0  0  0  0  0  0  0  0  0  0  0
    0.9946    2.8134   -1.5460 H   0  0  0  0  0  0  0  0  0  0  0  0
  1  2  1  0
  2  3  1  0
  3  4  1  0
  4  5  1  0
  5  6  1  0
  6  7  2  0
  7  8  1  0
  8  9  2  0
  9 10  1  0
 10 11  2  0
 11 12  1  0
 12 13  1  0
 13 14  1  0
 14 15  1  0
 15 16  1  0
 16 17  1  0
 17 18  1  0
 18 19  1  0
 19 20  2  0
 19 21  1  0
 21 22  2  0
 22 23  1  0
 23 24  1  0
 23 25  2  0
 25 26  1  0
 26 27  2  0
 27 28  1  0
 18 29  1  0
 29 30  1  0
 30 31  1  0
 16 32  1  0
 32 33  2  0
 32  2  1  0
 11  6  1  0
 31 16  1  0
 27 21  1  0
  1 34  1  0
  1 35  1  0
  1 36  1  0
  3 37  1  0
  3 38  1  0
  4 39  1  0
  4 40  1  0
  7 41  1  0
  8 42  1  0
  9 43  1  0
 10 44  1  0
 12 45  1  0
 12 46  1  0
 13 47  1  0
 13 48  1  0
 14 49  1  0
 14 50  1  0
 15 51  1  0
 15 52  1  0
 17 53  1  0
 17 54  1  0
 22 55  1  0
 25 56  1  0
 26 57  1  0
 29 58  1  0
 29 59  1  0
 30 60  1  0
 30 61  1  0
M  END
$$$$
