
     RDKit          3D

 66 70  0  0  0  0  0  0  0  0999 V2000
   -1.6039    3.3853   -1.3112 C   0  0  0  0  0  0  0  0  0  0  0  0
   -2.0585    2.0156   -0.8013 C   0  0  0  0  0  0  0  0  0  0  0  0
   -3.5839    1.9757   -0.6444 C   0  0  0  0  0  0  0  0  0  0  0  0
   -3.9269    0.8483    0.1499 O   0  0  0  0  0  0  0  0  0  0  0  0
   -5.2279    0.3986    0.4169 C   0  0  0  0  0  0  0  0  0  0  0  0
   -6.3663    1.0542   -0.0879 C   0  0  0  0  0  0  0  0  0  0  0  0
   -7.6423    0.5511    0.1783 C   0  0  0  0  0  0  0  0  0  0  0  0
   -7.7946   -0.6050    0.9464 C   0  0  0  0  0  0  0  0  0  0  0  0
   -6.6720   -1.2594    1.4588 C   0  0  0  0  0  0  0  0  0  0  0  0
   -5.3841   -0.7594    1.2063 C   0  0  0  0  0  0  0  0  0  0  0  0
   -4.1700   -1.4474    1.7848 C   0  0  0  0  0  0  0  0  0  0  0  0
   -3.3285   -2.1227    0.6840 C   0  0  0  0  0  0  0  0  0  0  0  0
   -1.8574   -2.3119    1.0932 C   0  0  0  0  0  0  0  0  0  0  0  0
   -1.0051   -1.0098    1.0603 C   0  0  0  0  0  0  0  0  0  0  0  0
   -0.2231   -0.6953   -0.2606 C   0  0  0  0  0  0  0  0  0  0  0  0
    0.7293    0.5331    0.0009 C   0  0  0  0  0  0  0  0  0  0  0  0
    2.1725    0.1425    0.3426 C   0  0  0  0  0  0  0  0  0  0  0  0
    2.7459   -0.6636   -0.7431 N   0  0  0  0  0  0  0  0  0  0  0  0
    4.1311   -0.5360   -1.1197 C   0  0  0  0  0  0  0  0  0  0  0  0
    4.4675   -0.7523   -2.3153 O   0  0  0  0  0  0  0  0  0  0  0  0
    5.1732   -0.1943   -0.1273 C   0  0  0  0  0  0  0  0  0  0  0  0
    5.0028   -0.2853    1.2152 N   0  0  0  0  0  0  0  0  0  0  0  0
    6.1404    0.0562    1.8088 N   0  0  0  0  0  0  0  0  0  0  0  0
    7.0404    0.3588    0.8610 C   0  0  0  0  0  0  0  0  0  0  0  0
    8.3622    0.7656    1.0279 C   0  0  0  0  0  0  0  0  0  0  0  0
    9.1141    1.0296   -0.1322 C   0  0  0  0  0  0  0  0  0  0  0  0
    8.5318    0.8830   -1.4120 C   0  0  0  0  0  0  0  0  0  0  0  0
    7.1925    0.4693   -1.5453 C   0  0  0  0  0  0  0  0  0  0  0  0
    6.4749    0.2121   -0.3754 C   0  0  0  0  0  0  0  0  0  0  0  0
    1.8740   -1.5704   -1.4992 C   0  0  0  0  0  0  0  0  0  0  0  0
    0.6442   -1.9437   -0.6649 C   0  0  0  0  0  0  0  0  0  0  0  0
   -1.2172   -0.3648   -1.3896 C   0  0  0  0  0  0  0  0  0  0  0  0
   -1.6775   -1.3071   -2.0911 O   0  0  0  0  0  0  0  0  0  0  0  0
   -1.6182    0.9757   -1.7411 N   0  0  0  0  0  0  0  0  0  0  0  0
   -0.5012    3.3923   -1.4421 H   0  0  0  0  0  0  0  0  0  0  0  0
   -2.0820    3.6171   -2.2869 H   0  0  0  0  0  0  0  0  0  0  0  0
   -1.8728    4.1771   -0.5802 H   0  0  0  0  0  0  0  0  0  0  0  0
   -1.6121    1.8682    0.1973 H   0  0  0  0  0  0  0  0  0  0  0  0
   -3.9439    2.8952   -0.1323 H   0  0  0  0  0  0  0  0  0  0  0  0
   -4.0647    1.9015   -1.6445 H   0  0  0  0  0  0  0  0  0  0  0  0
   -6.2747    1.9494   -0.6875 H   0  0  0  0  0  0  0  0  0  0  0  0
   -8.5152    1.0574   -0.2135 H   0  0  0  0  0  0  0  0  0  0  0  0
   -8.7846   -0.9926    1.1484 H   0  0  0  0  0  0  0  0  0  0  0  0
   -6.8084   -2.1510    2.0580 H   0  0  0  0  0  0  0  0  0  0  0  0
   -4.4678   -2.2139    2.5333 H   0  0  0  0  0  0  0  0  0  0  0  0
   -3.5773   -0.6902    2.3386 H   0  0  0  0  0  0  0  0  0  0  0  0
   -3.3812   -1.5620   -0.2672 H   0  0  0  0  0  0  0  0  0  0  0  0
   -3.7706   -3.1219    0.4782 H   0  0  0  0  0  0  0  0  0  0  0  0
   -1.4136   -3.1005    0.4558 H   0  0  0  0  0  0  0  0  0  0  0  0
   -1.8381   -2.7220    2.1270 H   0  0  0  0  0  0  0  0  0  0  0  0
   -1.6341   -0.1410    1.3360 H   0  0  0  0  0  0  0  0  0  0  0  0
   -0.2563   -1.0978    1.8788 H   0  0  0  0  0  0  0  0  0  0  0  0
    0.3588    1.1685    0.8324 H   0  0  0  0  0  0  0  0  0  0  0  0
    0.7890    1.1797   -0.9020 H   0  0  0  0  0  0  0  0  0  0  0  0
    2.7586    1.0775    0.4809 H   0  0  0  0  0  0  0  0  0  0  0  0
    2.1981   -0.4347    1.2917 H   0  0  0  0  0  0  0  0  0  0  0  0
    6.2879    0.0744    2.8422 H   0  0  0  0  0  0  0  0  0  0  0  0
    8.7961    0.8753    2.0132 H   0  0  0  0  0  0  0  0  0  0  0  0
   10.1445    1.3486   -0.0438 H   0  0  0  0  0  0  0  0  0  0  0  0
    9.1195    1.0920   -2.2963 H   0  0  0  0  0  0  0  0  0  0  0  0
    6.7456    0.3640   -2.5242 H   0  0  0  0  0  0  0  0  0  0  0  0
    1.5612   -1.0836   -2.4481 H   0  0  0  0  0  0  0  0  0  0  0  0
    2.4266   -2.5038   -1.7457 H   0  0  0  0  0  0  0  0  0  0  0  0
    0.0621   -2.7056   -1.2242 H   0  0  0  0  0  0  0  0  0  0  0  0
    1.0142   -2.4574    0.2509 H   0  0  0  0  0  0  0  0  0  0  0  0
   -1.9031    1.1133   -2.7381 H   0  0  0  0  0  0  0  0  0  0  0  0
  1  2  1  0
  2  3  1  0
  3  4  1  0
  4  5  1  0
  5  6  2  0
  6  7  1  0
  7  8  2  0
  8  9  1  0
  9 10  2  0
 10 11  1  0
 11 12  1  0
 12 13  1  0
 13 14  1  0
 14 15  1  0
 15 16  1  0
 16 17  1  0
 17 18  1  0
 18 19  1  0
 19 20  2  0
 19 21  1  0
 21 22  2  0
 22 23  1  0
 23 24  1  0
 24 25  2  0
 25 26  1  0
 26 27  2  0
 27 28  1  0
 28 29  2  0
 18 30  1  0
 30 31  1  0
 15 32  1  0
 32 33  2  0
 32 34  1  0
 34  2  1  0
 10  5  1  0
 31 15  1  0
 29 21  1  0
 29 24  1  0
  1 35  1  0
  1 36  1  0
  1 37  1  0
  2 38  1  0
  3 39  1  0
  3 40  1  0
  6 41  1  0
  7 42  1  0
  8 43  1  0
  9 44  1  0
 11 45  1  0
 11 46  1  0
 12 47  1  0
 12 48  1  0
 13 49  1  0
 13 50  1  0
 14 51  1  0
 14 52  1  0
 16 53  1  0
 16 54  1  0
 17 55  1  0
 17 56  1  0
 23 57  1  0
 25 58  1  0
 26 59  1  0
 27 60  1  0
 28 61  1  0
 30 62  1  0
 30 63  1  0
 31 64  1  0
 31 65  1  0
 34 66  1  0
M  END
$$$$
