
     RDKit          3D

 68 70  0  0  0  0  0  0  0  0999 V2000
   -2.6404    3.9700   -2.7691 C   0  0  0  0  0  0  0  0  0  0  0  0
   -3.3098    2.5942   -2.8107 C   0  0  0  0  0  0  0  0  0  0  0  0
   -3.2201    2.0834   -4.1175 O   0  0  0  0  0  0  0  0  0  0  0  0
   -2.6642    1.6251   -1.7907 C   0  0  0  0  0  0  0  0  0  0  0  0
   -1.2522    1.3817   -2.1206 N   0  0  0  0  0  0  0  0  0  0  0  0
   -0.1719    1.3617   -1.1711 C   0  0  0  0  0  0  0  0  0  0  0  0
    0.9983    1.5754   -1.5869 O   0  0  0  0  0  0  0  0  0  0  0  0
   -0.3679    1.0470    0.2948 C   0  0  0  0  0  0  0  0  0  0  0  0
    0.0820   -0.3758    0.6815 C   0  0  0  0  0  0  0  0  0  0  0  0
    1.5496   -0.5921    0.4107 C   0  0  0  0  0  0  0  0  0  0  0  0
    1.9156   -1.2665   -0.5917 O   0  0  0  0  0  0  0  0  0  0  0  0
    2.5288    0.0011    1.2750 N   0  0  0  0  0  0  0  0  0  0  0  0
    3.9631   -0.0839    1.0106 C   0  0  0  0  0  0  0  0  0  0  0  0
    4.3510    0.8516   -0.1377 C   0  0  0  0  0  0  0  0  0  0  0  0
    5.8287    0.7720   -0.4100 C   0  0  0  0  0  0  0  0  0  0  0  0
    6.7218    1.6204    0.2654 C   0  0  0  0  0  0  0  0  0  0  0  0
    8.0975    1.5227    0.0337 C   0  0  0  0  0  0  0  0  0  0  0  0
    8.5910    0.5730   -0.8654 C   0  0  0  0  0  0  0  0  0  0  0  0
    9.9250    0.4787   -1.0877 F   0  0  0  0  0  0  0  0  0  0  0  0
    7.7092   -0.2840   -1.5305 C   0  0  0  0  0  0  0  0  0  0  0  0
    6.3332   -0.1901   -1.3011 C   0  0  0  0  0  0  0  0  0  0  0  0
   -0.7291   -1.3859   -0.0095 N   0  0  0  0  0  0  0  0  0  0  0  0
   -1.0275   -2.6635    0.5739 C   0  0  0  0  0  0  0  0  0  0  0  0
   -1.0495   -3.6834   -0.1663 O   0  0  0  0  0  0  0  0  0  0  0  0
   -1.3204   -2.8156    2.0160 C   0  0  0  0  0  0  0  0  0  0  0  0
   -0.7105   -3.8669    2.7217 C   0  0  0  0  0  0  0  0  0  0  0  0
   -0.9023   -4.0017    4.0988 C   0  0  0  0  0  0  0  0  0  0  0  0
   -1.7050   -3.0904    4.7859 C   0  0  0  0  0  0  0  0  0  0  0  0
   -2.3345   -2.0537    4.0944 C   0  0  0  0  0  0  0  0  0  0  0  0
   -2.1735   -1.9219    2.7099 C   0  0  0  0  0  0  0  0  0  0  0  0
   -2.8638   -0.8929    2.0608 O   0  0  0  0  0  0  0  0  0  0  0  0
   -3.8606   -1.1396    1.0716 C   0  0  0  0  0  0  0  0  0  0  0  0
   -4.4167    0.1907    0.5484 C   0  0  0  0  0  0  0  0  0  0  0  0
   -4.5674    0.1457   -0.9111 N   0  0  0  0  0  0  0  0  0  0  0  0
   -5.8186   -0.3282   -1.5049 C   0  0  0  0  0  0  0  0  0  0  0  0
   -3.4233    0.3202   -1.7648 C   0  0  0  0  0  0  0  0  0  0  0  0
   -3.1210   -0.5889   -2.5857 O   0  0  0  0  0  0  0  0  0  0  0  0
   -2.7066    4.4019   -1.7476 H   0  0  0  0  0  0  0  0  0  0  0  0
   -1.5722    3.8976   -3.0648 H   0  0  0  0  0  0  0  0  0  0  0  0
   -3.1550    4.6575   -3.4734 H   0  0  0  0  0  0  0  0  0  0  0  0
   -4.3807    2.7456   -2.5325 H   0  0  0  0  0  0  0  0  0  0  0  0
   -4.0094    1.4973   -4.2568 H   0  0  0  0  0  0  0  0  0  0  0  0
   -2.7410    2.1242   -0.8065 H   0  0  0  0  0  0  0  0  0  0  0  0
   -0.9962    1.2555   -3.1266 H   0  0  0  0  0  0  0  0  0  0  0  0
   -1.4205    1.1650    0.6024 H   0  0  0  0  0  0  0  0  0  0  0  0
    0.2103    1.7849    0.8923 H   0  0  0  0  0  0  0  0  0  0  0  0
   -0.0645   -0.4693    1.7780 H   0  0  0  0  0  0  0  0  0  0  0  0
    2.2107    0.4859    2.1444 H   0  0  0  0  0  0  0  0  0  0  0  0
    4.5187    0.2140    1.9269 H   0  0  0  0  0  0  0  0  0  0  0  0
    4.2385   -1.1340    0.7691 H   0  0  0  0  0  0  0  0  0  0  0  0
    3.7880    0.5800   -1.0567 H   0  0  0  0  0  0  0  0  0  0  0  0
    4.0681    1.8950    0.1239 H   0  0  0  0  0  0  0  0  0  0  0  0
    6.3532    2.3545    0.9710 H   0  0  0  0  0  0  0  0  0  0  0  0
    8.7804    2.1825    0.5534 H   0  0  0  0  0  0  0  0  0  0  0  0
    8.0914   -1.0242   -2.2214 H   0  0  0  0  0  0  0  0  0  0  0  0
    5.6614   -0.8658   -1.8159 H   0  0  0  0  0  0  0  0  0  0  0  0
   -0.8123   -1.3142   -1.0488 H   0  0  0  0  0  0  0  0  0  0  0  0
   -0.0618   -4.5680    2.2102 H   0  0  0  0  0  0  0  0  0  0  0  0
   -0.4178   -4.8070    4.6361 H   0  0  0  0  0  0  0  0  0  0  0  0
   -1.8450   -3.1910    5.8544 H   0  0  0  0  0  0  0  0  0  0  0  0
   -2.9680   -1.3602    4.6324 H   0  0  0  0  0  0  0  0  0  0  0  0
   -4.6853   -1.7360    1.5189 H   0  0  0  0  0  0  0  0  0  0  0  0
   -3.4359   -1.7339    0.2379 H   0  0  0  0  0  0  0  0  0  0  0  0
   -5.3960    0.3980    1.0321 H   0  0  0  0  0  0  0  0  0  0  0  0
   -3.7574    1.0311    0.8406 H   0  0  0  0  0  0  0  0  0  0  0  0
   -5.6501   -1.2957   -2.0234 H   0  0  0  0  0  0  0  0  0  0  0  0
   -6.6011   -0.4807   -0.7321 H   0  0  0  0  0  0  0  0  0  0  0  0
   -6.1882    0.4198   -2.2374 H   0  0  0  0  0  0  0  0  0  0  0  0
  1  2  1  0
  2  3  1  0
  2  4  1  0
  4  5  1  0
  5  6  1  0
  6  7  2  0
  6  8  1  0
  8  9  1  0
  9 10  1  0
 10 11  2  0
 10 12  1  0
 12 13  1  0
 13 14  1  0
 14 15  1  0
 15 16  2  0
 16 17  1  0
 17 18  2  0
 18 19  1  0
 18 20  1  0
 20 21  2  0
  9 22  1  0
 22 23  1  0
 23 24  2  0
 23 25  1  0
 25 26  2  0
 26 27  1  0
 27 28  2  0
 28 29  1  0
 29 30  2  0
 30 31  1  0
 31 32  1  0
 32 33  1  0
 33 34  1  0
 34 35  1  0
 34 36  1  0
 36 37  2  0
 36  4  1  0
 21 15  1  0
 30 25  1  0
  1 38  1  0
  1 39  1  0
  1 40  1  0
  2 41  1  0
  3 42  1  0
  4 43  1  0
  5 44  1  0
  8 45  1  0
  8 46  1  0
  9 47  1  0
 12 48  1  0
 13 49  1  0
 13 50  1  0
 14 51  1  0
 14 52  1  0
 16 53  1  0
 17 54  1  0
 20 55  1  0
 21 56  1  0
 22 57  1  0
 26 58  1  0
 27 59  1  0
 28 60  1  0
 29 61  1  0
 32 62  1  0
 32 63  1  0
 33 64  1  0
 33 65  1  0
 35 66  1  0
 35 67  1  0
 35 68  1  0
M  END
$$$$
