
     RDKit          3D

 77 80  0  0  0  0  0  0  0  0999 V2000
   -0.0693    5.3578   -0.6961 C   0  0  0  0  0  0  0  0  0  0  0  0
   -0.3906    4.6751    0.6354 C   0  0  0  0  0  0  0  0  0  0  0  0
   -0.5340    3.1508    0.5034 C   0  0  0  0  0  0  0  0  0  0  0  0
   -1.7317    2.7480   -0.3691 C   0  0  0  0  0  0  0  0  0  0  0  0
   -2.0543    1.3201   -0.1918 N   0  0  0  0  0  0  0  0  0  0  0  0
   -3.1306    0.9957    0.7660 C   0  0  0  0  0  0  0  0  0  0  0  0
   -4.5178    0.9671    0.0928 C   0  0  0  0  0  0  0  0  0  0  0  0
   -4.9192   -0.3750   -0.1924 O   0  0  0  0  0  0  0  0  0  0  0  0
   -5.1866   -1.3580    0.7762 C   0  0  0  0  0  0  0  0  0  0  0  0
   -5.6265   -1.0103    2.0686 C   0  0  0  0  0  0  0  0  0  0  0  0
   -5.8770   -1.9983    3.0224 C   0  0  0  0  0  0  0  0  0  0  0  0
   -5.6907   -3.3420    2.7041 C   0  0  0  0  0  0  0  0  0  0  0  0
   -5.2544   -3.7042    1.4293 C   0  0  0  0  0  0  0  0  0  0  0  0
   -4.9944   -2.7235    0.4539 C   0  0  0  0  0  0  0  0  0  0  0  0
   -4.5113   -3.1606   -0.9172 C   0  0  0  0  0  0  0  0  0  0  0  0
   -3.1604   -2.5475   -1.3258 C   0  0  0  0  0  0  0  0  0  0  0  0
   -2.0028   -2.8572   -0.3504 C   0  0  0  0  0  0  0  0  0  0  0  0
   -0.9894   -1.7112   -0.0648 C   0  0  0  0  0  0  0  0  0  0  0  0
   -0.6708   -0.6710   -1.1953 C   0  0  0  0  0  0  0  0  0  0  0  0
    0.6682    0.0554   -0.8750 C   0  0  0  0  0  0  0  0  0  0  0  0
    1.8014   -0.8424   -1.1119 N   0  0  0  0  0  0  0  0  0  0  0  0
    2.7303   -1.2207   -0.0724 C   0  0  0  0  0  0  0  0  0  0  0  0
    3.3537   -2.3131   -0.1671 O   0  0  0  0  0  0  0  0  0  0  0  0
    2.9224   -0.3599    1.1560 C   0  0  0  0  0  0  0  0  0  0  0  0
    4.2140   -0.6651    1.9314 C   0  0  0  0  0  0  0  0  0  0  0  0
    5.4354   -0.2996    1.1455 C   0  0  0  0  0  0  0  0  0  0  0  0
    5.9555    0.9415    1.0970 N   0  0  0  0  0  0  0  0  0  0  0  0
    7.0057    0.7511    0.2708 C   0  0  0  0  0  0  0  0  0  0  0  0
    7.9885    1.8237   -0.0760 C   0  0  0  0  0  0  0  0  0  0  0  0
    9.0912    1.8988    0.9733 C   0  0  0  0  0  0  0  0  0  0  0  0
    7.1197   -0.5263   -0.1427 N   0  0  0  0  0  0  0  0  0  0  0  0
    6.1236   -1.1431    0.4156 O   0  0  0  0  0  0  0  0  0  0  0  0
    1.8260   -1.4835   -2.4234 C   0  0  0  0  0  0  0  0  0  0  0  0
    0.4953   -2.1977   -2.6257 C   0  0  0  0  0  0  0  0  0  0  0  0
   -0.6027   -1.3087   -2.4771 O   0  0  0  0  0  0  0  0  0  0  0  0
   -1.7487    0.4195   -1.2809 C   0  0  0  0  0  0  0  0  0  0  0  0
   -2.3099    0.6256   -2.3957 O   0  0  0  0  0  0  0  0  0  0  0  0
   -0.9438    5.3046   -1.3830 H   0  0  0  0  0  0  0  0  0  0  0  0
    0.8140    4.8807   -1.1768 H   0  0  0  0  0  0  0  0  0  0  0  0
    0.1620    6.4280   -0.5187 H   0  0  0  0  0  0  0  0  0  0  0  0
    0.4339    4.8906    1.3500 H   0  0  0  0  0  0  0  0  0  0  0  0
   -1.3233    5.1096    1.0606 H   0  0  0  0  0  0  0  0  0  0  0  0
   -0.6655    2.7204    1.5220 H   0  0  0  0  0  0  0  0  0  0  0  0
    0.4038    2.7373    0.0746 H   0  0  0  0  0  0  0  0  0  0  0  0
   -2.6172    3.3706   -0.0970 H   0  0  0  0  0  0  0  0  0  0  0  0
   -1.5054    2.9681   -1.4379 H   0  0  0  0  0  0  0  0  0  0  0  0
   -2.9334    0.0389    1.2798 H   0  0  0  0  0  0  0  0  0  0  0  0
   -3.1468    1.7567    1.5792 H   0  0  0  0  0  0  0  0  0  0  0  0
   -4.4956    1.5435   -0.8552 H   0  0  0  0  0  0  0  0  0  0  0  0
   -5.2733    1.4702    0.7328 H   0  0  0  0  0  0  0  0  0  0  0  0
   -5.7856    0.0220    2.3468 H   0  0  0  0  0  0  0  0  0  0  0  0
   -6.2199   -1.7185    4.0093 H   0  0  0  0  0  0  0  0  0  0  0  0
   -5.8893   -4.1057    3.4441 H   0  0  0  0  0  0  0  0  0  0  0  0
   -5.1132   -4.7566    1.2064 H   0  0  0  0  0  0  0  0  0  0  0  0
   -5.2766   -2.8654   -1.6671 H   0  0  0  0  0  0  0  0  0  0  0  0
   -4.4230   -4.2672   -0.9720 H   0  0  0  0  0  0  0  0  0  0  0  0
   -3.3089   -1.4761   -1.4664 H   0  0  0  0  0  0  0  0  0  0  0  0
   -2.8915   -2.9442   -2.3295 H   0  0  0  0  0  0  0  0  0  0  0  0
   -2.3983   -3.1900    0.6363 H   0  0  0  0  0  0  0  0  0  0  0  0
   -1.4515   -3.7416   -0.7476 H   0  0  0  0  0  0  0  0  0  0  0  0
   -0.0425   -2.2169    0.2261 H   0  0  0  0  0  0  0  0  0  0  0  0
   -1.2684   -1.1863    0.8660 H   0  0  0  0  0  0  0  0  0  0  0  0
    0.6457    0.4157    0.1744 H   0  0  0  0  0  0  0  0  0  0  0  0
    0.7897    0.9434   -1.5354 H   0  0  0  0  0  0  0  0  0  0  0  0
    2.0606   -0.5274    1.8381 H   0  0  0  0  0  0  0  0  0  0  0  0
    2.9222    0.7125    0.8604 H   0  0  0  0  0  0  0  0  0  0  0  0
    4.2130   -0.0780    2.8754 H   0  0  0  0  0  0  0  0  0  0  0  0
    4.2545   -1.7411    2.2096 H   0  0  0  0  0  0  0  0  0  0  0  0
    8.4360    1.6106   -1.0709 H   0  0  0  0  0  0  0  0  0  0  0  0
    7.4662    2.8027   -0.1328 H   0  0  0  0  0  0  0  0  0  0  0  0
    8.6596    2.1431    1.9684 H   0  0  0  0  0  0  0  0  0  0  0  0
    9.6320    0.9280    1.0346 H   0  0  0  0  0  0  0  0  0  0  0  0
    9.8145    2.6953    0.6925 H   0  0  0  0  0  0  0  0  0  0  0  0
    2.6635   -2.2072   -2.5203 H   0  0  0  0  0  0  0  0  0  0  0  0
    1.9564   -0.7089   -3.2114 H   0  0  0  0  0  0  0  0  0  0  0  0
    0.4154   -3.0645   -1.9377 H   0  0  0  0  0  0  0  0  0  0  0  0
    0.4725   -2.6088   -3.6569 H   0  0  0  0  0  0  0  0  0  0  0  0
  1  2  1  0
  2  3  1  0
  3  4  1  0
  4  5  1  0
  5  6  1  0
  6  7  1  0
  7  8  1  0
  8  9  1  0
  9 10  2  0
 10 11  1  0
 11 12  2  0
 12 13  1  0
 13 14  2  0
 14 15  1  0
 15 16  1  0
 16 17  1  0
 17 18  1  0
 18 19  1  0
 19 20  1  0
 20 21  1  0
 21 22  1  0
 22 23  2  0
 22 24  1  0
 24 25  1  0
 25 26  1  0
 26 27  2  0
 27 28  1  0
 28 29  1  0
 29 30  1  0
 28 31  2  0
 31 32  1  0
 21 33  1  0
 33 34  1  0
 34 35  1  0
 19 36  1  0
 36 37  2  0
 36  5  1  0
 14  9  1  0
 35 19  1  0
 32 26  1  0
  1 38  1  0
  1 39  1  0
  1 40  1  0
  2 41  1  0
  2 42  1  0
  3 43  1  0
  3 44  1  0
  4 45  1  0
  4 46  1  0
  6 47  1  0
  6 48  1  0
  7 49  1  0
  7 50  1  0
 10 51  1  0
 11 52  1  0
 12 53  1  0
 13 54  1  0
 15 55  1  0
 15 56  1  0
 16 57  1  0
 16 58  1  0
 17 59  1  0
 17 60  1  0
 18 61  1  0
 18 62  1  0
 20 63  1  0
 20 64  1  0
 24 65  1  0
 24 66  1  0
 25 67  1  0
 25 68  1  0
 29 69  1  0
 29 70  1  0
 30 71  1  0
 30 72  1  0
 30 73  1  0
 33 74  1  0
 33 75  1  0
 34 76  1  0
 34 77  1  0
M  END
$$$$
