
     RDKit          3D

 68 70  0  0  0  0  0  0  0  0999 V2000
    5.9125   -1.3116   -1.2163 C   0  0  0  0  0  0  0  0  0  0  0  0
    5.6228   -1.8284    0.1951 C   0  0  0  0  0  0  0  0  0  0  0  0
    5.1964   -0.7070    1.1584 C   0  0  0  0  0  0  0  0  0  0  0  0
    3.7615   -0.1980    0.9298 C   0  0  0  0  0  0  0  0  0  0  0  0
    2.7012   -1.1764    1.4501 C   0  0  0  0  0  0  0  0  0  0  0  0
    1.3156   -0.6043    1.2845 C   0  0  0  0  0  0  0  0  0  0  0  0
    0.7169   -0.1897    2.3128 O   0  0  0  0  0  0  0  0  0  0  0  0
    0.6865   -0.4873   -0.0158 N   0  0  0  0  0  0  0  0  0  0  0  0
    0.9778   -1.5029   -1.0634 C   0  0  0  0  0  0  0  0  0  0  0  0
    0.5195   -2.9379   -0.6774 C   0  0  0  0  0  0  0  0  0  0  0  0
   -0.9749   -3.2266   -0.9428 C   0  0  0  0  0  0  0  0  0  0  0  0
   -1.8317   -2.1250   -0.3303 C   0  0  0  0  0  0  0  0  0  0  0  0
   -3.2405   -2.4508   -0.1118 N   0  0  0  0  0  0  0  0  0  0  0  0
   -4.0679   -3.0457   -1.1621 C   0  0  0  0  0  0  0  0  0  0  0  0
   -3.8673   -2.1109    1.1389 C   0  0  0  0  0  0  0  0  0  0  0  0
   -4.3005   -3.0553    1.8497 O   0  0  0  0  0  0  0  0  0  0  0  0
   -4.1679   -0.7007    1.5647 C   0  0  0  0  0  0  0  0  0  0  0  0
   -5.3958   -0.4939    2.2247 C   0  0  0  0  0  0  0  0  0  0  0  0
   -5.7669    0.7679    2.6918 C   0  0  0  0  0  0  0  0  0  0  0  0
   -4.9172    1.8536    2.5156 C   0  0  0  0  0  0  0  0  0  0  0  0
   -3.6909    1.6812    1.8783 C   0  0  0  0  0  0  0  0  0  0  0  0
   -3.2966    0.4193    1.3898 C   0  0  0  0  0  0  0  0  0  0  0  0
   -2.0535    0.2669    0.7587 O   0  0  0  0  0  0  0  0  0  0  0  0
   -1.0794    1.2870    0.5353 C   0  0  0  0  0  0  0  0  0  0  0  0
    0.0525    0.8004   -0.4181 C   0  0  0  0  0  0  0  0  0  0  0  0
    1.1422    1.8856   -0.5711 C   0  0  0  0  0  0  0  0  0  0  0  0
    0.6487    3.0915   -1.3322 C   0  0  0  0  0  0  0  0  0  0  0  0
    0.1043    4.1947   -0.6533 C   0  0  0  0  0  0  0  0  0  0  0  0
   -0.3923    5.2876   -1.3699 C   0  0  0  0  0  0  0  0  0  0  0  0
   -0.3444    5.2911   -2.7669 C   0  0  0  0  0  0  0  0  0  0  0  0
    0.1992    4.2003   -3.4477 C   0  0  0  0  0  0  0  0  0  0  0  0
    0.6895    3.1021   -2.7351 C   0  0  0  0  0  0  0  0  0  0  0  0
    6.6626   -0.4902   -1.1850 H   0  0  0  0  0  0  0  0  0  0  0  0
    6.3269   -2.1371   -1.8357 H   0  0  0  0  0  0  0  0  0  0  0  0
    4.9835   -0.9497   -1.7029 H   0  0  0  0  0  0  0  0  0  0  0  0
    6.5553   -2.2888    0.5885 H   0  0  0  0  0  0  0  0  0  0  0  0
    4.8586   -2.6333    0.1526 H   0  0  0  0  0  0  0  0  0  0  0  0
    5.2967   -1.0712    2.2036 H   0  0  0  0  0  0  0  0  0  0  0  0
    5.9007    0.1463    1.0583 H   0  0  0  0  0  0  0  0  0  0  0  0
    3.5966    0.0090   -0.1440 H   0  0  0  0  0  0  0  0  0  0  0  0
    3.6433    0.7661    1.4693 H   0  0  0  0  0  0  0  0  0  0  0  0
    2.7767   -2.1484    0.9236 H   0  0  0  0  0  0  0  0  0  0  0  0
    2.8841   -1.3750    2.5285 H   0  0  0  0  0  0  0  0  0  0  0  0
    2.0720   -1.5170   -1.2619 H   0  0  0  0  0  0  0  0  0  0  0  0
    0.5096   -1.2294   -2.0334 H   0  0  0  0  0  0  0  0  0  0  0  0
    0.7397   -3.1422    0.3932 H   0  0  0  0  0  0  0  0  0  0  0  0
    1.1161   -3.6667   -1.2714 H   0  0  0  0  0  0  0  0  0  0  0  0
   -1.1490   -3.2767   -2.0390 H   0  0  0  0  0  0  0  0  0  0  0  0
   -1.2403   -4.2067   -0.4928 H   0  0  0  0  0  0  0  0  0  0  0  0
   -1.3770   -1.9187    0.6646 H   0  0  0  0  0  0  0  0  0  0  0  0
   -1.7887   -1.2533   -1.0168 H   0  0  0  0  0  0  0  0  0  0  0  0
   -4.4850   -4.0094   -0.8105 H   0  0  0  0  0  0  0  0  0  0  0  0
   -4.8927   -2.3535   -1.4180 H   0  0  0  0  0  0  0  0  0  0  0  0
   -3.4853   -3.2264   -2.0892 H   0  0  0  0  0  0  0  0  0  0  0  0
   -6.0860   -1.3150    2.3701 H   0  0  0  0  0  0  0  0  0  0  0  0
   -6.7158    0.9023    3.1971 H   0  0  0  0  0  0  0  0  0  0  0  0
   -5.2013    2.8286    2.8912 H   0  0  0  0  0  0  0  0  0  0  0  0
   -3.0461    2.5415    1.7853 H   0  0  0  0  0  0  0  0  0  0  0  0
   -1.5819    2.1494    0.0491 H   0  0  0  0  0  0  0  0  0  0  0  0
   -0.6731    1.6400    1.5063 H   0  0  0  0  0  0  0  0  0  0  0  0
   -0.4214    0.6712   -1.4162 H   0  0  0  0  0  0  0  0  0  0  0  0
    1.5182    2.1914    0.4296 H   0  0  0  0  0  0  0  0  0  0  0  0
    2.0044    1.4563   -1.1193 H   0  0  0  0  0  0  0  0  0  0  0  0
    0.0503    4.2013    0.4269 H   0  0  0  0  0  0  0  0  0  0  0  0
   -0.8176    6.1298   -0.8432 H   0  0  0  0  0  0  0  0  0  0  0  0
   -0.7261    6.1374   -3.3220 H   0  0  0  0  0  0  0  0  0  0  0  0
    0.2363    4.2030   -4.5302 H   0  0  0  0  0  0  0  0  0  0  0  0
    1.0963    2.2584   -3.2763 H   0  0  0  0  0  0  0  0  0  0  0  0
  1  2  1  0
  2  3  1  0
  3  4  1  0
  4  5  1  0
  5  6  1  0
  6  7  2  0
  6  8  1  0
  8  9  1  0
  9 10  1  0
 10 11  1  0
 11 12  1  0
 12 13  1  0
 13 14  1  0
 13 15  1  0
 15 16  2  0
 15 17  1  0
 17 18  2  0
 18 19  1  0
 19 20  2  0
 20 21  1  0
 21 22  2  0
 22 23  1  0
 23 24  1  0
 24 25  1  0
 25 26  1  0
 26 27  1  0
 27 28  2  0
 28 29  1  0
 29 30  2  0
 30 31  1  0
 31 32  2  0
 25  8  1  0
 32 27  1  0
 22 17  1  0
  1 33  1  0
  1 34  1  0
  1 35  1  0
  2 36  1  0
  2 37  1  0
  3 38  1  0
  3 39  1  0
  4 40  1  0
  4 41  1  0
  5 42  1  0
  5 43  1  0
  9 44  1  0
  9 45  1  0
 10 46  1  0
 10 47  1  0
 11 48  1  0
 11 49  1  0
 12 50  1  0
 12 51  1  0
 14 52  1  0
 14 53  1  0
 14 54  1  0
 18 55  1  0
 19 56  1  0
 20 57  1  0
 21 58  1  0
 24 59  1  0
 24 60  1  0
 25 61  1  0
 26 62  1  0
 26 63  1  0
 28 64  1  0
 29 65  1  0
 30 66  1  0
 31 67  1  0
 32 68  1  0
M  END
$$$$
