
     RDKit          3D

 65 68  0  0  0  0  0  0  0  0999 V2000
   -0.6887   -3.0848   -0.0087 C   0  0  0  0  0  0  0  0  0  0  0  0
   -0.9327   -1.6959    0.4006 N   0  0  0  0  0  0  0  0  0  0  0  0
   -0.9227   -0.6386   -0.6301 C   0  0  0  0  0  0  0  0  0  0  0  0
    0.3490    0.2956   -0.6955 C   0  0  0  0  0  0  0  0  0  0  0  0
    1.0404    0.5788    0.6836 C   0  0  0  0  0  0  0  0  0  0  0  0
    1.9075   -0.5677    1.2194 C   0  0  0  0  0  0  0  0  0  0  0  0
    2.8400   -1.0166    0.1878 N   0  0  0  0  0  0  0  0  0  0  0  0
    4.1696   -1.4204    0.5597 C   0  0  0  0  0  0  0  0  0  0  0  0
    4.3455   -2.1161    1.5976 O   0  0  0  0  0  0  0  0  0  0  0  0
    5.3669   -0.9712   -0.2355 C   0  0  0  0  0  0  0  0  0  0  0  0
    5.9466    0.3940    0.1964 C   0  0  0  0  0  0  0  0  0  0  0  0
    6.8884    0.2938    1.3930 C   0  0  0  0  0  0  0  0  0  0  0  0
    5.5652    1.0200    1.5382 C   0  0  0  0  0  0  0  0  0  0  0  0
    2.2716   -1.4313   -1.0923 C   0  0  0  0  0  0  0  0  0  0  0  0
    1.4157   -0.3056   -1.6761 C   0  0  0  0  0  0  0  0  0  0  0  0
   -0.0826    1.6728   -1.3441 C   0  0  0  0  0  0  0  0  0  0  0  0
   -1.1532    2.5333   -0.5958 C   0  0  0  0  0  0  0  0  0  0  0  0
   -0.7790    3.8860   -0.6951 O   0  0  0  0  0  0  0  0  0  0  0  0
   -2.6099    2.3323   -1.1616 C   0  0  0  0  0  0  0  0  0  0  0  0
   -3.0119    3.4411   -1.9313 O   0  0  0  0  0  0  0  0  0  0  0  0
   -3.6870    2.0038   -0.0664 C   0  0  0  0  0  0  0  0  0  0  0  0
   -4.3189    0.6345   -0.2630 C   0  0  0  0  0  0  0  0  0  0  0  0
   -5.0503    0.4137   -1.4459 C   0  0  0  0  0  0  0  0  0  0  0  0
   -5.6488   -0.8217   -1.6986 C   0  0  0  0  0  0  0  0  0  0  0  0
   -5.5390   -1.8546   -0.7698 C   0  0  0  0  0  0  0  0  0  0  0  0
   -4.8399   -1.6508    0.4195 C   0  0  0  0  0  0  0  0  0  0  0  0
   -4.2295   -0.4195    0.6909 C   0  0  0  0  0  0  0  0  0  0  0  0
   -3.6106   -0.2720    1.9381 O   0  0  0  0  0  0  0  0  0  0  0  0
   -2.1990   -0.2184    2.1386 C   0  0  0  0  0  0  0  0  0  0  0  0
   -1.5061   -1.4929    1.7216 C   0  0  0  0  0  0  0  0  0  0  0  0
   -1.4440   -2.4232    2.5711 O   0  0  0  0  0  0  0  0  0  0  0  0
   -0.4530   -3.1663   -1.0914 H   0  0  0  0  0  0  0  0  0  0  0  0
   -1.5957   -3.6998    0.1793 H   0  0  0  0  0  0  0  0  0  0  0  0
    0.1591   -3.5018    0.5743 H   0  0  0  0  0  0  0  0  0  0  0  0
   -1.0975   -1.0835   -1.6335 H   0  0  0  0  0  0  0  0  0  0  0  0
   -1.8229   -0.0465   -0.4890 H   0  0  0  0  0  0  0  0  0  0  0  0
    0.3235    0.8594    1.4715 H   0  0  0  0  0  0  0  0  0  0  0  0
    1.7152    1.4570    0.5699 H   0  0  0  0  0  0  0  0  0  0  0  0
    2.4648   -0.1928    2.1060 H   0  0  0  0  0  0  0  0  0  0  0  0
    1.2917   -1.4217    1.5623 H   0  0  0  0  0  0  0  0  0  0  0  0
    5.0863   -0.8782   -1.3038 H   0  0  0  0  0  0  0  0  0  0  0  0
    6.1578   -1.7533   -0.1928 H   0  0  0  0  0  0  0  0  0  0  0  0
    6.3409    1.0777   -0.5885 H   0  0  0  0  0  0  0  0  0  0  0  0
    7.7667    0.9727    1.3556 H   0  0  0  0  0  0  0  0  0  0  0  0
    6.9106   -0.6790    1.9349 H   0  0  0  0  0  0  0  0  0  0  0  0
    5.6715    2.1253    1.5770 H   0  0  0  0  0  0  0  0  0  0  0  0
    4.8480    0.4842    2.1947 H   0  0  0  0  0  0  0  0  0  0  0  0
    3.0680   -1.6868   -1.8219 H   0  0  0  0  0  0  0  0  0  0  0  0
    1.6767   -2.3492   -0.9503 H   0  0  0  0  0  0  0  0  0  0  0  0
    0.9334   -0.6660   -2.6103 H   0  0  0  0  0  0  0  0  0  0  0  0
    2.1297    0.4906   -1.9847 H   0  0  0  0  0  0  0  0  0  0  0  0
    0.8334    2.2982   -1.4435 H   0  0  0  0  0  0  0  0  0  0  0  0
   -0.4101    1.5030   -2.3941 H   0  0  0  0  0  0  0  0  0  0  0  0
   -1.1121    2.2694    0.4717 H   0  0  0  0  0  0  0  0  0  0  0  0
   -1.2109    4.3685    0.0580 H   0  0  0  0  0  0  0  0  0  0  0  0
   -2.5882    1.4893   -1.8832 H   0  0  0  0  0  0  0  0  0  0  0  0
   -3.1919    4.1946   -1.3113 H   0  0  0  0  0  0  0  0  0  0  0  0
   -4.5129    2.7469   -0.1214 H   0  0  0  0  0  0  0  0  0  0  0  0
   -3.2941    2.1276    0.9605 H   0  0  0  0  0  0  0  0  0  0  0  0
   -5.1551    1.2055   -2.1781 H   0  0  0  0  0  0  0  0  0  0  0  0
   -6.2017   -0.9752   -2.6161 H   0  0  0  0  0  0  0  0  0  0  0  0
   -6.0066   -2.8113   -0.9643 H   0  0  0  0  0  0  0  0  0  0  0  0
   -4.7764   -2.4538    1.1432 H   0  0  0  0  0  0  0  0  0  0  0  0
   -2.0095   -0.0528    3.2199 H   0  0  0  0  0  0  0  0  0  0  0  0
   -1.7914    0.6504    1.6329 H   0  0  0  0  0  0  0  0  0  0  0  0
  1  2  1  0
  2  3  1  0
  3  4  1  0
  4  5  1  0
  5  6  1  0
  6  7  1  0
  7  8  1  0
  8  9  2  0
  8 10  1  0
 10 11  1  0
 11 12  1  0
 12 13  1  0
  7 14  1  0
 14 15  1  0
  4 16  1  0
 16 17  1  0
 17 18  1  0
 17 19  1  0
 19 20  1  0
 19 21  1  0
 21 22  1  0
 22 23  2  0
 23 24  1  0
 24 25  2  0
 25 26  1  0
 26 27  2  0
 27 28  1  0
 28 29  1  0
 29 30  1  0
 30 31  2  0
 30  2  1  0
 15  4  1  0
 27 22  1  0
 13 11  1  0
  1 32  1  0
  1 33  1  0
  1 34  1  0
  3 35  1  0
  3 36  1  0
  5 37  1  0
  5 38  1  0
  6 39  1  0
  6 40  1  0
 10 41  1  0
 10 42  1  0
 11 43  1  0
 12 44  1  0
 12 45  1  0
 13 46  1  0
 13 47  1  0
 14 48  1  0
 14 49  1  0
 15 50  1  0
 15 51  1  0
 16 52  1  0
 16 53  1  0
 17 54  1  0
 18 55  1  0
 19 56  1  0
 20 57  1  0
 21 58  1  0
 21 59  1  0
 23 60  1  0
 24 61  1  0
 25 62  1  0
 26 63  1  0
 29 64  1  0
 29 65  1  0
M  END
$$$$
