
     RDKit          3D

 68 69  0  0  0  0  0  0  0  0999 V2000
   -5.2051   -3.8132   -0.7135 C   0  0  0  0  0  0  0  0  0  0  0  0
   -3.8105   -3.1930   -0.8749 C   0  0  0  0  0  0  0  0  0  0  0  0
   -3.1403   -3.7509   -2.1403 C   0  0  0  0  0  0  0  0  0  0  0  0
   -3.9217   -1.6475   -0.9093 C   0  0  0  0  0  0  0  0  0  0  0  0
   -2.5670   -0.9166   -0.7641 C   0  0  0  0  0  0  0  0  0  0  0  0
   -1.9591   -1.1756    0.5487 N   0  0  0  0  0  0  0  0  0  0  0  0
   -0.5541   -1.0621    0.8245 C   0  0  0  0  0  0  0  0  0  0  0  0
   -0.0868   -1.6778    1.8210 O   0  0  0  0  0  0  0  0  0  0  0  0
    0.3673   -0.2704   -0.0751 C   0  0  0  0  0  0  0  0  0  0  0  0
    1.6828    0.1936    0.5851 C   0  0  0  0  0  0  0  0  0  0  0  0
    2.6530   -0.9518    0.7574 C   0  0  0  0  0  0  0  0  0  0  0  0
    2.7483   -1.5502    1.8641 O   0  0  0  0  0  0  0  0  0  0  0  0
    3.4420   -1.3836   -0.3605 N   0  0  0  0  0  0  0  0  0  0  0  0
    4.4698   -2.4174   -0.2508 C   0  0  0  0  0  0  0  0  0  0  0  0
    5.7057   -1.8999    0.5134 C   0  0  0  0  0  0  0  0  0  0  0  0
    6.6521   -2.9276    0.6725 O   0  0  0  0  0  0  0  0  0  0  0  0
    6.3473   -0.6711   -0.1548 C   0  0  0  0  0  0  0  0  0  0  0  0
    6.7275   -0.9640   -1.4716 O   0  0  0  0  0  0  0  0  0  0  0  0
    1.4281    0.8875    1.8578 N   0  0  0  0  0  0  0  0  0  0  0  0
    1.1533    2.2938    1.9593 C   0  0  0  0  0  0  0  0  0  0  0  0
    1.0534    2.8216    3.0992 O   0  0  0  0  0  0  0  0  0  0  0  0
    1.0516    3.1501    0.7673 C   0  0  0  0  0  0  0  0  0  0  0  0
    2.2496    3.6790    0.2573 C   0  0  0  0  0  0  0  0  0  0  0  0
    2.2519    4.4329   -0.9158 C   0  0  0  0  0  0  0  0  0  0  0  0
    1.0590    4.6652   -1.5965 C   0  0  0  0  0  0  0  0  0  0  0  0
   -0.1411    4.1559   -1.0978 C   0  0  0  0  0  0  0  0  0  0  0  0
   -0.1736    3.4136    0.0910 C   0  0  0  0  0  0  0  0  0  0  0  0
   -1.4431    2.9758    0.5125 O   0  0  0  0  0  0  0  0  0  0  0  0
   -1.8086    2.5038    1.8064 C   0  0  0  0  0  0  0  0  0  0  0  0
   -3.3356    2.4440    1.9219 C   0  0  0  0  0  0  0  0  0  0  0  0
   -3.9608    1.2769    1.1452 C   0  0  0  0  0  0  0  0  0  0  0  0
   -3.6817    1.3862   -0.2873 N   0  0  0  0  0  0  0  0  0  0  0  0
   -2.7549    0.5661   -1.0209 C   0  0  0  0  0  0  0  0  0  0  0  0
   -2.1513    1.0800   -2.0012 O   0  0  0  0  0  0  0  0  0  0  0  0
   -5.1314   -4.9207   -0.6536 H   0  0  0  0  0  0  0  0  0  0  0  0
   -5.6799   -3.4522    0.2239 H   0  0  0  0  0  0  0  0  0  0  0  0
   -5.8565   -3.5436   -1.5731 H   0  0  0  0  0  0  0  0  0  0  0  0
   -3.2057   -3.5058    0.0035 H   0  0  0  0  0  0  0  0  0  0  0  0
   -3.6589   -3.3887   -3.0535 H   0  0  0  0  0  0  0  0  0  0  0  0
   -3.1718   -4.8614   -2.1326 H   0  0  0  0  0  0  0  0  0  0  0  0
   -2.0720   -3.4561   -2.1856 H   0  0  0  0  0  0  0  0  0  0  0  0
   -4.5914   -1.3108   -0.0879 H   0  0  0  0  0  0  0  0  0  0  0  0
   -4.4047   -1.3432   -1.8646 H   0  0  0  0  0  0  0  0  0  0  0  0
   -1.8842   -1.3084   -1.5470 H   0  0  0  0  0  0  0  0  0  0  0  0
   -2.5350   -1.6466    1.2838 H   0  0  0  0  0  0  0  0  0  0  0  0
    0.5936   -0.8745   -0.9800 H   0  0  0  0  0  0  0  0  0  0  0  0
   -0.1623    0.6383   -0.4129 H   0  0  0  0  0  0  0  0  0  0  0  0
    2.1738    0.9018   -0.1163 H   0  0  0  0  0  0  0  0  0  0  0  0
    3.2640   -0.9612   -1.2997 H   0  0  0  0  0  0  0  0  0  0  0  0
    4.7694   -2.7422   -1.2705 H   0  0  0  0  0  0  0  0  0  0  0  0
    4.0497   -3.3054    0.2687 H   0  0  0  0  0  0  0  0  0  0  0  0
    5.3815   -1.5929    1.5305 H   0  0  0  0  0  0  0  0  0  0  0  0
    6.9290   -3.2265   -0.2326 H   0  0  0  0  0  0  0  0  0  0  0  0
    7.2424   -0.3656    0.4328 H   0  0  0  0  0  0  0  0  0  0  0  0
    5.6257    0.1763   -0.1506 H   0  0  0  0  0  0  0  0  0  0  0  0
    7.1307   -0.1323   -1.8335 H   0  0  0  0  0  0  0  0  0  0  0  0
    1.3798    0.3323    2.7427 H   0  0  0  0  0  0  0  0  0  0  0  0
    3.1899    3.4894    0.7622 H   0  0  0  0  0  0  0  0  0  0  0  0
    3.1818    4.8304   -1.3025 H   0  0  0  0  0  0  0  0  0  0  0  0
    1.0624    5.2439   -2.5109 H   0  0  0  0  0  0  0  0  0  0  0  0
   -1.0614    4.3518   -1.6339 H   0  0  0  0  0  0  0  0  0  0  0  0
   -1.3804    1.4964    1.9892 H   0  0  0  0  0  0  0  0  0  0  0  0
   -1.4384    3.2165    2.5734 H   0  0  0  0  0  0  0  0  0  0  0  0
   -3.6035    2.3288    2.9946 H   0  0  0  0  0  0  0  0  0  0  0  0
   -3.7728    3.4039    1.5705 H   0  0  0  0  0  0  0  0  0  0  0  0
   -3.6146    0.3211    1.5695 H   0  0  0  0  0  0  0  0  0  0  0  0
   -5.0617    1.3082    1.2912 H   0  0  0  0  0  0  0  0  0  0  0  0
   -4.0343    2.2459   -0.7658 H   0  0  0  0  0  0  0  0  0  0  0  0
  1  2  1  0
  2  3  1  0
  2  4  1  0
  4  5  1  0
  5  6  1  0
  6  7  1  0
  7  8  2  0
  7  9  1  0
  9 10  1  0
 10 11  1  0
 11 12  2  0
 11 13  1  0
 13 14  1  0
 14 15  1  0
 15 16  1  0
 15 17  1  0
 17 18  1  0
 10 19  1  0
 19 20  1  0
 20 21  2  0
 20 22  1  0
 22 23  2  0
 23 24  1  0
 24 25  2  0
 25 26  1  0
 26 27  2  0
 27 28  1  0
 28 29  1  0
 29 30  1  0
 30 31  1  0
 31 32  1  0
 32 33  1  0
 33 34  2  0
 33  5  1  0
 27 22  1  0
  1 35  1  0
  1 36  1  0
  1 37  1  0
  2 38  1  0
  3 39  1  0
  3 40  1  0
  3 41  1  0
  4 42  1  0
  4 43  1  0
  5 44  1  0
  6 45  1  0
  9 46  1  0
  9 47  1  0
 10 48  1  0
 13 49  1  0
 14 50  1  0
 14 51  1  0
 15 52  1  0
 16 53  1  0
 17 54  1  0
 17 55  1  0
 18 56  1  0
 19 57  1  0
 23 58  1  0
 24 59  1  0
 25 60  1  0
 26 61  1  0
 29 62  1  0
 29 63  1  0
 30 64  1  0
 30 65  1  0
 31 66  1  0
 31 67  1  0
 32 68  1  0
M  END
$$$$
