
     RDKit          3D

 66 68  0  0  0  0  0  0  0  0999 V2000
    1.6375   -0.1133   -1.8905 O   0  0  0  0  0  0  0  0  0  0  0  0
    2.2722    0.0391   -0.8086 C   0  0  0  0  0  0  0  0  0  0  0  0
    3.6946    0.4200   -0.8389 C   0  0  0  0  0  0  0  0  0  0  0  0
    4.4953    0.0463   -1.8475 C   0  0  0  0  0  0  0  0  0  0  0  0
    5.9229    0.3979   -1.8916 C   0  0  0  0  0  0  0  0  0  0  0  0
    6.5499    1.4645   -1.2830 C   0  0  0  0  0  0  0  0  0  0  0  0
    7.8635    1.4382   -1.5932 N   0  0  0  0  0  0  0  0  0  0  0  0
    8.0054    0.3351   -2.3693 C   0  0  0  0  0  0  0  0  0  0  0  0
    6.8428   -0.3087   -2.5736 N   0  0  0  0  0  0  0  0  0  0  0  0
    1.6101   -0.1672    0.4522 N   0  0  0  0  0  0  0  0  0  0  0  0
    2.2128   -1.1226    1.4038 C   0  0  0  0  0  0  0  0  0  0  0  0
    1.2321   -2.2534    1.7635 C   0  0  0  0  0  0  0  0  0  0  0  0
    0.5713   -2.0515    3.1440 C   0  0  0  0  0  0  0  0  0  0  0  0
   -0.6970   -2.8945    3.2826 C   0  0  0  0  0  0  0  0  0  0  0  0
   -1.6687   -2.4135    2.3717 O   0  0  0  0  0  0  0  0  0  0  0  0
   -2.6519   -3.3972    2.1292 C   0  0  0  0  0  0  0  0  0  0  0  0
   -3.6070   -2.9222    1.0106 C   0  0  0  0  0  0  0  0  0  0  0  0
   -4.5155   -3.9487    0.6865 O   0  0  0  0  0  0  0  0  0  0  0  0
   -2.8760   -2.4159   -0.2732 C   0  0  0  0  0  0  0  0  0  0  0  0
   -1.6738   -3.1236   -0.4785 O   0  0  0  0  0  0  0  0  0  0  0  0
   -2.6193   -0.8763   -0.2125 C   0  0  0  0  0  0  0  0  0  0  0  0
   -3.7846   -0.2184   -0.6500 O   0  0  0  0  0  0  0  0  0  0  0  0
   -1.4221   -0.4350   -1.0847 C   0  0  0  0  0  0  0  0  0  0  0  0
   -1.1857    1.0220   -0.9730 N   0  0  0  0  0  0  0  0  0  0  0  0
   -1.8917    1.9043   -1.8725 C   0  0  0  0  0  0  0  0  0  0  0  0
   -2.0476    1.5634   -3.0791 O   0  0  0  0  0  0  0  0  0  0  0  0
   -2.4351    3.2050   -1.4192 C   0  0  0  0  0  0  0  0  0  0  0  0
   -2.4242    4.3145   -2.2872 C   0  0  0  0  0  0  0  0  0  0  0  0
   -2.9316    5.5454   -1.8603 C   0  0  0  0  0  0  0  0  0  0  0  0
   -3.4845    5.6761   -0.5866 C   0  0  0  0  0  0  0  0  0  0  0  0
   -3.9571    6.8787   -0.1731 F   0  0  0  0  0  0  0  0  0  0  0  0
   -3.5320    4.5684    0.2690 C   0  0  0  0  0  0  0  0  0  0  0  0
   -3.0118    3.3381   -0.1456 C   0  0  0  0  0  0  0  0  0  0  0  0
   -0.1196    1.6295   -0.1357 C   0  0  0  0  0  0  0  0  0  0  0  0
    0.5093    0.7016    0.9295 C   0  0  0  0  0  0  0  0  0  0  0  0
    4.0959    0.9624    0.0131 H   0  0  0  0  0  0  0  0  0  0  0  0
    4.1140   -0.6160   -2.6210 H   0  0  0  0  0  0  0  0  0  0  0  0
    6.0882    2.2148   -0.6559 H   0  0  0  0  0  0  0  0  0  0  0  0
    8.9531    0.0150   -2.7976 H   0  0  0  0  0  0  0  0  0  0  0  0
    6.6873   -1.1691   -3.1436 H   0  0  0  0  0  0  0  0  0  0  0  0
    3.1138   -1.5982    0.9559 H   0  0  0  0  0  0  0  0  0  0  0  0
    2.5594   -0.5866    2.3146 H   0  0  0  0  0  0  0  0  0  0  0  0
    0.4716   -2.3399    0.9580 H   0  0  0  0  0  0  0  0  0  0  0  0
    1.7779   -3.2235    1.7774 H   0  0  0  0  0  0  0  0  0  0  0  0
    0.3077   -0.9882    3.3205 H   0  0  0  0  0  0  0  0  0  0  0  0
    1.2951   -2.3470    3.9393 H   0  0  0  0  0  0  0  0  0  0  0  0
   -1.0893   -2.7888    4.3217 H   0  0  0  0  0  0  0  0  0  0  0  0
   -0.4268   -3.9652    3.1200 H   0  0  0  0  0  0  0  0  0  0  0  0
   -3.2495   -3.5720    3.0525 H   0  0  0  0  0  0  0  0  0  0  0  0
   -2.1899   -4.3624    1.8134 H   0  0  0  0  0  0  0  0  0  0  0  0
   -4.2154   -2.0854    1.4266 H   0  0  0  0  0  0  0  0  0  0  0  0
   -3.9865   -4.7253    0.3537 H   0  0  0  0  0  0  0  0  0  0  0  0
   -3.5437   -2.5952   -1.1519 H   0  0  0  0  0  0  0  0  0  0  0  0
   -1.9164   -4.0124   -0.8441 H   0  0  0  0  0  0  0  0  0  0  0  0
   -2.3842   -0.5830    0.8344 H   0  0  0  0  0  0  0  0  0  0  0  0
   -4.0261    0.4523    0.0412 H   0  0  0  0  0  0  0  0  0  0  0  0
   -0.5164   -0.9927   -0.7792 H   0  0  0  0  0  0  0  0  0  0  0  0
   -1.5997   -0.7210   -2.1410 H   0  0  0  0  0  0  0  0  0  0  0  0
   -2.0054    4.2320   -3.2825 H   0  0  0  0  0  0  0  0  0  0  0  0
   -2.9053    6.3999   -2.5278 H   0  0  0  0  0  0  0  0  0  0  0  0
   -3.9631    4.6725    1.2572 H   0  0  0  0  0  0  0  0  0  0  0  0
   -3.0397    2.5016    0.5393 H   0  0  0  0  0  0  0  0  0  0  0  0
    0.6589    2.0919   -0.7883 H   0  0  0  0  0  0  0  0  0  0  0  0
   -0.5603    2.4767    0.4335 H   0  0  0  0  0  0  0  0  0  0  0  0
    0.9012    1.3424    1.7599 H   0  0  0  0  0  0  0  0  0  0  0  0
   -0.2894    0.0840    1.3856 H   0  0  0  0  0  0  0  0  0  0  0  0
  1  2  2  0
  2  3  1  0
  3  4  2  0
  4  5  1  0
  5  6  2  0
  6  7  1  0
  7  8  2  0
  8  9  1  0
  2 10  1  0
 10 11  1  0
 11 12  1  0
 12 13  1  0
 13 14  1  0
 14 15  1  0
 15 16  1  0
 16 17  1  0
 17 18  1  0
 17 19  1  0
 19 20  1  0
 19 21  1  0
 21 22  1  0
 21 23  1  0
 23 24  1  0
 24 25  1  0
 25 26  2  0
 25 27  1  0
 27 28  2  0
 28 29  1  0
 29 30  2  0
 30 31  1  0
 30 32  1  0
 32 33  2  0
 24 34  1  0
 34 35  1  0
  9  5  1  0
 35 10  1  0
 33 27  1  0
  3 36  1  0
  4 37  1  0
  6 38  1  0
  8 39  1  0
  9 40  1  0
 11 41  1  0
 11 42  1  0
 12 43  1  0
 12 44  1  0
 13 45  1  0
 13 46  1  0
 14 47  1  0
 14 48  1  0
 16 49  1  0
 16 50  1  0
 17 51  1  0
 18 52  1  0
 19 53  1  0
 20 54  1  0
 21 55  1  0
 22 56  1  0
 23 57  1  0
 23 58  1  0
 28 59  1  0
 29 60  1  0
 32 61  1  0
 33 62  1  0
 34 63  1  0
 34 64  1  0
 35 65  1  0
 35 66  1  0
M  END
$$$$
