
     RDKit          3D

 68 71  0  0  0  0  0  0  0  0999 V2000
   -0.0589   -3.5365   -1.8381 C   0  0  0  0  0  0  0  0  0  0  0  0
   -1.4392   -2.9276   -1.6116 C   0  0  0  0  0  0  0  0  0  0  0  0
   -1.3788   -1.8884   -0.5710 N   0  0  0  0  0  0  0  0  0  0  0  0
   -2.1065   -2.1444    0.6871 C   0  0  0  0  0  0  0  0  0  0  0  0
   -3.6029   -1.8434    0.5500 C   0  0  0  0  0  0  0  0  0  0  0  0
   -3.7839   -0.6665   -0.2324 O   0  0  0  0  0  0  0  0  0  0  0  0
   -4.5657    0.4511    0.0961 C   0  0  0  0  0  0  0  0  0  0  0  0
   -5.6121    0.3896    1.0358 C   0  0  0  0  0  0  0  0  0  0  0  0
   -6.3518    1.5352    1.3407 C   0  0  0  0  0  0  0  0  0  0  0  0
   -6.0636    2.7460    0.7088 C   0  0  0  0  0  0  0  0  0  0  0  0
   -5.0408    2.8147   -0.2394 C   0  0  0  0  0  0  0  0  0  0  0  0
   -4.2891    1.6718   -0.5551 C   0  0  0  0  0  0  0  0  0  0  0  0
   -3.1978    1.7558   -1.5980 C   0  0  0  0  0  0  0  0  0  0  0  0
   -1.9453    2.5500   -1.1699 C   0  0  0  0  0  0  0  0  0  0  0  0
   -1.5367    2.4878    0.3158 C   0  0  0  0  0  0  0  0  0  0  0  0
   -1.0698    1.1332    0.9085 C   0  0  0  0  0  0  0  0  0  0  0  0
   -0.0081    0.2630    0.1389 C   0  0  0  0  0  0  0  0  0  0  0  0
    0.7838   -0.6836    1.1145 C   0  0  0  0  0  0  0  0  0  0  0  0
    2.1282   -0.1882    1.3843 N   0  0  0  0  0  0  0  0  0  0  0  0
    3.1227   -1.0736    1.9291 C   0  0  0  0  0  0  0  0  0  0  0  0
    2.7723   -1.9896    2.7223 O   0  0  0  0  0  0  0  0  0  0  0  0
    4.5518   -0.9340    1.5681 C   0  0  0  0  0  0  0  0  0  0  0  0
    5.5357   -1.1761    2.5419 C   0  0  0  0  0  0  0  0  0  0  0  0
    6.8893   -1.0363    2.2305 C   0  0  0  0  0  0  0  0  0  0  0  0
    7.2757   -0.6622    0.9438 C   0  0  0  0  0  0  0  0  0  0  0  0
    6.3112   -0.4378   -0.0406 C   0  0  0  0  0  0  0  0  0  0  0  0
    4.9409   -0.5825    0.2560 C   0  0  0  0  0  0  0  0  0  0  0  0
    3.9523   -0.4090   -0.7269 O   0  0  0  0  0  0  0  0  0  0  0  0
    4.2070   -0.0509   -2.0806 C   0  0  0  0  0  0  0  0  0  0  0  0
    2.3051    1.2522    1.4576 C   0  0  0  0  0  0  0  0  0  0  0  0
    1.7889    1.8931    0.1704 C   0  0  0  0  0  0  0  0  0  0  0  0
    0.9033    1.0845   -0.5982 O   0  0  0  0  0  0  0  0  0  0  0  0
   -0.7237   -0.6250   -0.8910 C   0  0  0  0  0  0  0  0  0  0  0  0
   -0.6473   -0.2869   -2.1054 O   0  0  0  0  0  0  0  0  0  0  0  0
    0.3254   -3.9691   -0.8901 H   0  0  0  0  0  0  0  0  0  0  0  0
   -0.1271   -4.3421   -2.5993 H   0  0  0  0  0  0  0  0  0  0  0  0
    0.6520   -2.7646   -2.2006 H   0  0  0  0  0  0  0  0  0  0  0  0
   -2.1374   -3.7424   -1.3196 H   0  0  0  0  0  0  0  0  0  0  0  0
   -1.8255   -2.4982   -2.5611 H   0  0  0  0  0  0  0  0  0  0  0  0
   -1.9786   -3.2080    0.9853 H   0  0  0  0  0  0  0  0  0  0  0  0
   -1.6971   -1.5645    1.5267 H   0  0  0  0  0  0  0  0  0  0  0  0
   -4.1140   -2.6896    0.0445 H   0  0  0  0  0  0  0  0  0  0  0  0
   -4.0224   -1.7342    1.5710 H   0  0  0  0  0  0  0  0  0  0  0  0
   -5.8798   -0.5396    1.5177 H   0  0  0  0  0  0  0  0  0  0  0  0
   -7.1558    1.4826    2.0637 H   0  0  0  0  0  0  0  0  0  0  0  0
   -6.6397    3.6307    0.9470 H   0  0  0  0  0  0  0  0  0  0  0  0
   -4.8332    3.7576   -0.7298 H   0  0  0  0  0  0  0  0  0  0  0  0
   -2.8997    0.7481   -1.9393 H   0  0  0  0  0  0  0  0  0  0  0  0
   -3.6215    2.2382   -2.5059 H   0  0  0  0  0  0  0  0  0  0  0  0
   -2.1427    3.6202   -1.4001 H   0  0  0  0  0  0  0  0  0  0  0  0
   -1.0874    2.2622   -1.8107 H   0  0  0  0  0  0  0  0  0  0  0  0
   -2.3869    2.8511    0.9322 H   0  0  0  0  0  0  0  0  0  0  0  0
   -0.7544    3.2508    0.4786 H   0  0  0  0  0  0  0  0  0  0  0  0
   -1.9785    0.5470    1.1175 H   0  0  0  0  0  0  0  0  0  0  0  0
   -0.6601    1.3739    1.9130 H   0  0  0  0  0  0  0  0  0  0  0  0
    0.2622   -0.7907    2.0884 H   0  0  0  0  0  0  0  0  0  0  0  0
    0.8835   -1.7057    0.6848 H   0  0  0  0  0  0  0  0  0  0  0  0
    5.2547   -1.4567    3.5497 H   0  0  0  0  0  0  0  0  0  0  0  0
    7.6400   -1.2148    2.9896 H   0  0  0  0  0  0  0  0  0  0  0  0
    8.3261   -0.5525    0.7061 H   0  0  0  0  0  0  0  0  0  0  0  0
    6.6419   -0.1622   -1.0326 H   0  0  0  0  0  0  0  0  0  0  0  0
    3.2414    0.0233   -2.6216 H   0  0  0  0  0  0  0  0  0  0  0  0
    4.8307   -0.8279   -2.5704 H   0  0  0  0  0  0  0  0  0  0  0  0
    4.7156    0.9350   -2.1251 H   0  0  0  0  0  0  0  0  0  0  0  0
    3.3727    1.5238    1.6092 H   0  0  0  0  0  0  0  0  0  0  0  0
    1.7364    1.6432    2.3288 H   0  0  0  0  0  0  0  0  0  0  0  0
    1.3458    2.8803    0.3902 H   0  0  0  0  0  0  0  0  0  0  0  0
    2.6670    2.1094   -0.4741 H   0  0  0  0  0  0  0  0  0  0  0  0
  1  2  1  0
  2  3  1  0
  3  4  1  0
  4  5  1  0
  5  6  1  0
  6  7  1  0
  7  8  2  0
  8  9  1  0
  9 10  2  0
 10 11  1  0
 11 12  2  0
 12 13  1  0
 13 14  1  0
 14 15  1  0
 15 16  1  0
 16 17  1  0
 17 18  1  0
 18 19  1  0
 19 20  1  0
 20 21  2  0
 20 22  1  0
 22 23  2  0
 23 24  1  0
 24 25  2  0
 25 26  1  0
 26 27  2  0
 27 28  1  0
 28 29  1  0
 19 30  1  0
 30 31  1  0
 31 32  1  0
 17 33  1  0
 33 34  2  0
 33  3  1  0
 12  7  1  0
 32 17  1  0
 27 22  1  0
  1 35  1  0
  1 36  1  0
  1 37  1  0
  2 38  1  0
  2 39  1  0
  4 40  1  0
  4 41  1  0
  5 42  1  0
  5 43  1  0
  8 44  1  0
  9 45  1  0
 10 46  1  0
 11 47  1  0
 13 48  1  0
 13 49  1  0
 14 50  1  0
 14 51  1  0
 15 52  1  0
 15 53  1  0
 16 54  1  0
 16 55  1  0
 18 56  1  0
 18 57  1  0
 23 58  1  0
 24 59  1  0
 25 60  1  0
 26 61  1  0
 29 62  1  0
 29 63  1  0
 29 64  1  0
 30 65  1  0
 30 66  1  0
 31 67  1  0
 31 68  1  0
M  END
$$$$
