
     RDKit          3D

 75 78  0  0  0  0  0  0  0  0999 V2000
    4.3853    1.8191   -2.2229 C   0  0  0  0  0  0  0  0  0  0  0  0
    5.3488    0.8266   -1.6569 C   0  0  0  0  0  0  0  0  0  0  0  0
    6.6934    0.9936   -1.6715 N   0  0  0  0  0  0  0  0  0  0  0  0
    7.1511   -0.1159   -1.0538 C   0  0  0  0  0  0  0  0  0  0  0  0
    8.4895   -0.4077   -0.7965 C   0  0  0  0  0  0  0  0  0  0  0  0
    8.7786   -1.5998   -0.1137 C   0  0  0  0  0  0  0  0  0  0  0  0
    7.7390   -2.4578    0.2914 C   0  0  0  0  0  0  0  0  0  0  0  0
    6.4096   -2.1154    0.0056 C   0  0  0  0  0  0  0  0  0  0  0  0
    6.1735   -0.9546   -0.6637 N   0  0  0  0  0  0  0  0  0  0  0  0
    5.0211   -0.3801   -1.0518 C   0  0  0  0  0  0  0  0  0  0  0  0
    3.6397   -0.9020   -0.7677 C   0  0  0  0  0  0  0  0  0  0  0  0
    3.1546   -0.4166    0.5695 C   0  0  0  0  0  0  0  0  0  0  0  0
    3.9138   -0.5074    1.5735 O   0  0  0  0  0  0  0  0  0  0  0  0
    1.8306    0.1296    0.7244 N   0  0  0  0  0  0  0  0  0  0  0  0
    1.6276    1.2540    1.6584 C   0  0  0  0  0  0  0  0  0  0  0  0
    0.8396    2.4093    1.0105 C   0  0  0  0  0  0  0  0  0  0  0  0
   -0.6484    2.3840    1.4018 C   0  0  0  0  0  0  0  0  0  0  0  0
   -1.4675    3.4666    0.6928 C   0  0  0  0  0  0  0  0  0  0  0  0
   -1.6527    3.1453   -0.7242 N   0  0  0  0  0  0  0  0  0  0  0  0
   -2.8990    3.3564   -1.4006 C   0  0  0  0  0  0  0  0  0  0  0  0
   -2.8896    3.7754   -2.5893 O   0  0  0  0  0  0  0  0  0  0  0  0
   -4.1942    3.0874   -0.7448 C   0  0  0  0  0  0  0  0  0  0  0  0
   -5.1993    4.0667   -0.7937 C   0  0  0  0  0  0  0  0  0  0  0  0
   -6.4460    3.8320   -0.2094 C   0  0  0  0  0  0  0  0  0  0  0  0
   -7.6865    5.0712   -0.2587 Cl  0  0  0  0  0  0  0  0  0  0  0  0
   -6.7054    2.6088    0.4108 C   0  0  0  0  0  0  0  0  0  0  0  0
   -5.7219    1.6182    0.4474 C   0  0  0  0  0  0  0  0  0  0  0  0
   -4.4562    1.8434   -0.1319 C   0  0  0  0  0  0  0  0  0  0  0  0
   -3.4605    0.8513   -0.1368 O   0  0  0  0  0  0  0  0  0  0  0  0
   -3.6860   -0.5186    0.1981 C   0  0  0  0  0  0  0  0  0  0  0  0
   -2.3811   -1.3209    0.0234 C   0  0  0  0  0  0  0  0  0  0  0  0
   -2.6099   -2.7985   -0.3887 C   0  0  0  0  0  0  0  0  0  0  0  0
   -2.9552   -3.8007    0.7444 C   0  0  0  0  0  0  0  0  0  0  0  0
   -2.9371   -5.2310    0.1847 C   0  0  0  0  0  0  0  0  0  0  0  0
   -4.3199   -3.5200    1.3900 C   0  0  0  0  0  0  0  0  0  0  0  0
   -1.5575   -1.2317    1.2357 N   0  0  0  0  0  0  0  0  0  0  0  0
   -0.1230   -1.2618    1.2231 C   0  0  0  0  0  0  0  0  0  0  0  0
    0.4843   -1.8704    2.1454 O   0  0  0  0  0  0  0  0  0  0  0  0
    0.6769   -0.5805    0.1462 C   0  0  0  0  0  0  0  0  0  0  0  0
    3.8733    1.3784   -3.1028 H   0  0  0  0  0  0  0  0  0  0  0  0
    3.6301    2.0904   -1.4553 H   0  0  0  0  0  0  0  0  0  0  0  0
    4.9222    2.7384   -2.5396 H   0  0  0  0  0  0  0  0  0  0  0  0
    9.2799    0.2648   -1.1048 H   0  0  0  0  0  0  0  0  0  0  0  0
    9.8060   -1.8580    0.1054 H   0  0  0  0  0  0  0  0  0  0  0  0
    7.9638   -3.3738    0.8218 H   0  0  0  0  0  0  0  0  0  0  0  0
    5.5997   -2.7622    0.3176 H   0  0  0  0  0  0  0  0  0  0  0  0
    3.6344   -2.0114   -0.7832 H   0  0  0  0  0  0  0  0  0  0  0  0
    2.9575   -0.5544   -1.5717 H   0  0  0  0  0  0  0  0  0  0  0  0
    2.6135    1.6613    1.9759 H   0  0  0  0  0  0  0  0  0  0  0  0
    1.1289    0.8906    2.5835 H   0  0  0  0  0  0  0  0  0  0  0  0
    1.2695    3.3741    1.3573 H   0  0  0  0  0  0  0  0  0  0  0  0
    0.9686    2.3767   -0.0908 H   0  0  0  0  0  0  0  0  0  0  0  0
   -1.0995    1.3977    1.1867 H   0  0  0  0  0  0  0  0  0  0  0  0
   -0.7278    2.5494    2.4984 H   0  0  0  0  0  0  0  0  0  0  0  0
   -0.9630    4.4527    0.7849 H   0  0  0  0  0  0  0  0  0  0  0  0
   -2.4495    3.5485    1.2058 H   0  0  0  0  0  0  0  0  0  0  0  0
   -0.8006    3.0696   -1.3225 H   0  0  0  0  0  0  0  0  0  0  0  0
   -5.0099    5.0175   -1.2773 H   0  0  0  0  0  0  0  0  0  0  0  0
   -7.6725    2.4217    0.8609 H   0  0  0  0  0  0  0  0  0  0  0  0
   -5.9615    0.6760    0.9222 H   0  0  0  0  0  0  0  0  0  0  0  0
   -4.4766   -0.9182   -0.4729 H   0  0  0  0  0  0  0  0  0  0  0  0
   -4.0442   -0.5810    1.2449 H   0  0  0  0  0  0  0  0  0  0  0  0
   -1.8489   -0.8555   -0.8326 H   0  0  0  0  0  0  0  0  0  0  0  0
   -1.6621   -3.1432   -0.8607 H   0  0  0  0  0  0  0  0  0  0  0  0
   -3.3830   -2.8524   -1.1865 H   0  0  0  0  0  0  0  0  0  0  0  0
   -2.1730   -3.7542    1.5331 H   0  0  0  0  0  0  0  0  0  0  0  0
   -3.1306   -5.9664    0.9949 H   0  0  0  0  0  0  0  0  0  0  0  0
   -3.7122   -5.3519   -0.6029 H   0  0  0  0  0  0  0  0  0  0  0  0
   -1.9419   -5.4639   -0.2513 H   0  0  0  0  0  0  0  0  0  0  0  0
   -5.0984   -3.3524    0.6154 H   0  0  0  0  0  0  0  0  0  0  0  0
   -4.2598   -2.6393    2.0568 H   0  0  0  0  0  0  0  0  0  0  0  0
   -4.6329   -4.3739    2.0277 H   0  0  0  0  0  0  0  0  0  0  0  0
   -2.0191   -1.4278    2.1526 H   0  0  0  0  0  0  0  0  0  0  0  0
    0.9997   -1.3591   -0.5754 H   0  0  0  0  0  0  0  0  0  0  0  0
    0.0598    0.1440   -0.4186 H   0  0  0  0  0  0  0  0  0  0  0  0
  1  2  1  0
  2  3  1  0
  3  4  2  0
  4  5  1  0
  5  6  2  0
  6  7  1  0
  7  8  2  0
  8  9  1  0
  9 10  1  0
 10 11  1  0
 11 12  1  0
 12 13  2  0
 12 14  1  0
 14 15  1  0
 15 16  1  0
 16 17  1  0
 17 18  1  0
 18 19  1  0
 19 20  1  0
 20 21  2  0
 20 22  1  0
 22 23  2  0
 23 24  1  0
 24 25  1  0
 24 26  2  0
 26 27  1  0
 27 28  2  0
 28 29  1  0
 29 30  1  0
 30 31  1  0
 31 32  1  0
 32 33  1  0
 33 34  1  0
 33 35  1  0
 31 36  1  0
 36 37  1  0
 37 38  2  0
 37 39  1  0
 10  2  2  0
 39 14  1  0
  9  4  1  0
 28 22  1  0
  1 40  1  0
  1 41  1  0
  1 42  1  0
  5 43  1  0
  6 44  1  0
  7 45  1  0
  8 46  1  0
 11 47  1  0
 11 48  1  0
 15 49  1  0
 15 50  1  0
 16 51  1  0
 16 52  1  0
 17 53  1  0
 17 54  1  0
 18 55  1  0
 18 56  1  0
 19 57  1  0
 23 58  1  0
 26 59  1  0
 27 60  1  0
 30 61  1  0
 30 62  1  0
 31 63  1  0
 32 64  1  0
 32 65  1  0
 33 66  1  0
 34 67  1  0
 34 68  1  0
 34 69  1  0
 35 70  1  0
 35 71  1  0
 35 72  1  0
 36 73  1  0
 39 74  1  0
 39 75  1  0
M  END
$$$$
