
     RDKit          3D

 69 72  0  0  0  0  0  0  0  0999 V2000
   -1.2082    6.2495    0.0301 C   0  0  0  0  0  0  0  0  0  0  0  0
   -1.5668    4.8930    0.6335 C   0  0  0  0  0  0  0  0  0  0  0  0
   -1.1318    3.7459   -0.2863 C   0  0  0  0  0  0  0  0  0  0  0  0
   -1.5309    2.3861    0.3023 C   0  0  0  0  0  0  0  0  0  0  0  0
   -1.0494    1.2886   -0.5473 N   0  0  0  0  0  0  0  0  0  0  0  0
   -1.8279    0.8313   -1.7124 C   0  0  0  0  0  0  0  0  0  0  0  0
   -3.1372    0.1158   -1.3250 C   0  0  0  0  0  0  0  0  0  0  0  0
   -2.8859   -1.1856   -0.7859 O   0  0  0  0  0  0  0  0  0  0  0  0
   -3.8765   -2.0349   -0.2498 C   0  0  0  0  0  0  0  0  0  0  0  0
   -5.2421   -1.6828   -0.2957 C   0  0  0  0  0  0  0  0  0  0  0  0
   -6.2153   -2.5233    0.2479 C   0  0  0  0  0  0  0  0  0  0  0  0
   -5.8464   -3.7237    0.8491 C   0  0  0  0  0  0  0  0  0  0  0  0
   -4.5004   -4.0904    0.9083 C   0  0  0  0  0  0  0  0  0  0  0  0
   -3.5070   -3.2674    0.3500 C   0  0  0  0  0  0  0  0  0  0  0  0
   -2.0628   -3.7094    0.4576 C   0  0  0  0  0  0  0  0  0  0  0  0
   -1.3941   -3.1873    1.7553 C   0  0  0  0  0  0  0  0  0  0  0  0
   -0.0720   -2.4315    1.5134 C   0  0  0  0  0  0  0  0  0  0  0  0
   -0.2985   -1.2046    0.6191 C   0  0  0  0  0  0  0  0  0  0  0  0
    0.7826   -0.1018    0.6214 C   0  0  0  0  0  0  0  0  0  0  0  0
    2.1716   -0.7132    0.2792 C   0  0  0  0  0  0  0  0  0  0  0  0
    3.2283    0.2698    0.5246 N   0  0  0  0  0  0  0  0  0  0  0  0
    4.3780    0.3908   -0.3316 C   0  0  0  0  0  0  0  0  0  0  0  0
    4.7684    1.5445   -0.6544 O   0  0  0  0  0  0  0  0  0  0  0  0
    5.1478   -0.7952   -0.7844 C   0  0  0  0  0  0  0  0  0  0  0  0
    4.8520   -2.3880   -0.3194 S   0  0  0  0  0  0  0  0  0  0  0  0
    6.1489   -3.0240   -1.1702 C   0  0  0  0  0  0  0  0  0  0  0  0
    6.8380   -2.0438   -1.7971 N   0  0  0  0  0  0  0  0  0  0  0  0
    6.2996   -0.8102   -1.5911 C   0  0  0  0  0  0  0  0  0  0  0  0
    6.9335    0.4078   -2.1877 C   0  0  0  0  0  0  0  0  0  0  0  0
    3.1847    0.9980    1.7915 C   0  0  0  0  0  0  0  0  0  0  0  0
    1.7687    1.5220    2.0310 C   0  0  0  0  0  0  0  0  0  0  0  0
    0.8010    0.4892    1.9186 O   0  0  0  0  0  0  0  0  0  0  0  0
    0.3357    0.9090   -0.4396 C   0  0  0  0  0  0  0  0  0  0  0  0
    1.1764    1.4319   -1.2233 O   0  0  0  0  0  0  0  0  0  0  0  0
   -1.5252    7.0592    0.7222 H   0  0  0  0  0  0  0  0  0  0  0  0
   -1.7306    6.3894   -0.9393 H   0  0  0  0  0  0  0  0  0  0  0  0
   -0.1109    6.3249   -0.1274 H   0  0  0  0  0  0  0  0  0  0  0  0
   -1.0632    4.7951    1.6198 H   0  0  0  0  0  0  0  0  0  0  0  0
   -2.6666    4.8516    0.7927 H   0  0  0  0  0  0  0  0  0  0  0  0
   -1.6143    3.8708   -1.2802 H   0  0  0  0  0  0  0  0  0  0  0  0
   -0.0294    3.7829   -0.4211 H   0  0  0  0  0  0  0  0  0  0  0  0
   -2.6344    2.3488    0.4074 H   0  0  0  0  0  0  0  0  0  0  0  0
   -1.1067    2.2812    1.3249 H   0  0  0  0  0  0  0  0  0  0  0  0
   -1.2218    0.1396   -2.3376 H   0  0  0  0  0  0  0  0  0  0  0  0
   -2.0741    1.7069   -2.3473 H   0  0  0  0  0  0  0  0  0  0  0  0
   -3.7157    0.7202   -0.5989 H   0  0  0  0  0  0  0  0  0  0  0  0
   -3.7488    0.0021   -2.2461 H   0  0  0  0  0  0  0  0  0  0  0  0
   -5.5671   -0.7607   -0.7527 H   0  0  0  0  0  0  0  0  0  0  0  0
   -7.2591   -2.2380    0.2030 H   0  0  0  0  0  0  0  0  0  0  0  0
   -6.6017   -4.3714    1.2741 H   0  0  0  0  0  0  0  0  0  0  0  0
   -4.2341   -5.0253    1.3852 H   0  0  0  0  0  0  0  0  0  0  0  0
   -2.0184   -4.8216    0.4602 H   0  0  0  0  0  0  0  0  0  0  0  0
   -1.5147   -3.4221   -0.4602 H   0  0  0  0  0  0  0  0  0  0  0  0
   -2.0846   -2.5201    2.3202 H   0  0  0  0  0  0  0  0  0  0  0  0
   -1.1845   -4.0520    2.4213 H   0  0  0  0  0  0  0  0  0  0  0  0
    0.6607   -3.1226    1.0406 H   0  0  0  0  0  0  0  0  0  0  0  0
    0.3331   -2.1070    2.4973 H   0  0  0  0  0  0  0  0  0  0  0  0
   -1.2441   -0.7293    0.9588 H   0  0  0  0  0  0  0  0  0  0  0  0
   -0.4135   -1.5557   -0.4276 H   0  0  0  0  0  0  0  0  0  0  0  0
    2.3741   -1.5847    0.9318 H   0  0  0  0  0  0  0  0  0  0  0  0
    2.1887   -1.0568   -0.7773 H   0  0  0  0  0  0  0  0  0  0  0  0
    6.4224   -4.0696   -1.2090 H   0  0  0  0  0  0  0  0  0  0  0  0
    7.8125    0.1249   -2.8029 H   0  0  0  0  0  0  0  0  0  0  0  0
    6.2023    0.9348   -2.8365 H   0  0  0  0  0  0  0  0  0  0  0  0
    7.2772    1.0850   -1.3776 H   0  0  0  0  0  0  0  0  0  0  0  0
    3.8937    1.8548    1.7861 H   0  0  0  0  0  0  0  0  0  0  0  0
    3.4719    0.3100    2.6171 H   0  0  0  0  0  0  0  0  0  0  0  0
    1.7189    1.9312    3.0621 H   0  0  0  0  0  0  0  0  0  0  0  0
    1.5461    2.3676    1.3425 H   0  0  0  0  0  0  0  0  0  0  0  0
  1  2  1  0
  2  3  1  0
  3  4  1  0
  4  5  1  0
  5  6  1  0
  6  7  1  0
  7  8  1  0
  8  9  1  0
  9 10  2  0
 10 11  1  0
 11 12  2  0
 12 13  1  0
 13 14  2  0
 14 15  1  0
 15 16  1  0
 16 17  1  0
 17 18  1  0
 18 19  1  0
 19 20  1  0
 20 21  1  0
 21 22  1  0
 22 23  2  0
 22 24  1  0
 24 25  1  0
 25 26  1  0
 26 27  2  0
 27 28  1  0
 28 29  1  0
 21 30  1  0
 30 31  1  0
 31 32  1  0
 19 33  1  0
 33 34  2  0
 33  5  1  0
 14  9  1  0
 32 19  1  0
 28 24  2  0
  1 35  1  0
  1 36  1  0
  1 37  1  0
  2 38  1  0
  2 39  1  0
  3 40  1  0
  3 41  1  0
  4 42  1  0
  4 43  1  0
  6 44  1  0
  6 45  1  0
  7 46  1  0
  7 47  1  0
 10 48  1  0
 11 49  1  0
 12 50  1  0
 13 51  1  0
 15 52  1  0
 15 53  1  0
 16 54  1  0
 16 55  1  0
 17 56  1  0
 17 57  1  0
 18 58  1  0
 18 59  1  0
 20 60  1  0
 20 61  1  0
 26 62  1  0
 29 63  1  0
 29 64  1  0
 29 65  1  0
 30 66  1  0
 30 67  1  0
 31 68  1  0
 31 69  1  0
M  END
$$$$
