
     RDKit          3D

 69 72  0  0  0  0  0  0  0  0999 V2000
    5.7552   -1.6512   -0.7720 C   0  0  0  0  0  0  0  0  0  0  0  0
    4.9668   -0.6848   -1.5996 C   0  0  0  0  0  0  0  0  0  0  0  0
    4.1452   -1.0156   -2.6571 C   0  0  0  0  0  0  0  0  0  0  0  0
    3.6435    0.1949   -3.0950 C   0  0  0  0  0  0  0  0  0  0  0  0
    4.1364    1.1942   -2.3350 N   0  0  0  0  0  0  0  0  0  0  0  0
    4.9453    0.6559   -1.4375 N   0  0  0  0  0  0  0  0  0  0  0  0
    5.6121    1.4350   -0.3925 C   0  0  0  0  0  0  0  0  0  0  0  0
    4.7748    1.4583    0.8928 C   0  0  0  0  0  0  0  0  0  0  0  0
    3.4017    2.0156    0.6490 C   0  0  0  0  0  0  0  0  0  0  0  0
    3.2738    3.1893    0.2065 O   0  0  0  0  0  0  0  0  0  0  0  0
    2.2371    1.2155    0.8974 N   0  0  0  0  0  0  0  0  0  0  0  0
    1.9430    0.8202    2.2754 C   0  0  0  0  0  0  0  0  0  0  0  0
    1.1969   -0.5136    2.2927 C   0  0  0  0  0  0  0  0  0  0  0  0
   -0.1116   -0.4741    1.4517 C   0  0  0  0  0  0  0  0  0  0  0  0
   -0.6466   -1.9454    1.3909 C   0  0  0  0  0  0  0  0  0  0  0  0
   -1.8751   -2.1476    0.4726 C   0  0  0  0  0  0  0  0  0  0  0  0
   -2.9974   -2.9594    1.1482 C   0  0  0  0  0  0  0  0  0  0  0  0
   -4.2638   -3.0503    0.2661 C   0  0  0  0  0  0  0  0  0  0  0  0
   -5.3514   -2.0052    0.6029 C   0  0  0  0  0  0  0  0  0  0  0  0
   -4.8752   -0.5571    0.4748 C   0  0  0  0  0  0  0  0  0  0  0  0
   -4.4340   -0.3203   -0.8595 O   0  0  0  0  0  0  0  0  0  0  0  0
   -3.7463    0.7931   -1.3821 C   0  0  0  0  0  0  0  0  0  0  0  0
   -3.7601    0.8985   -2.7809 C   0  0  0  0  0  0  0  0  0  0  0  0
   -3.0608    1.9115   -3.4371 C   0  0  0  0  0  0  0  0  0  0  0  0
   -2.3249    2.8399   -2.7050 C   0  0  0  0  0  0  0  0  0  0  0  0
   -2.2923    2.7607   -1.3138 C   0  0  0  0  0  0  0  0  0  0  0  0
   -3.0017    1.7546   -0.6292 C   0  0  0  0  0  0  0  0  0  0  0  0
   -2.8725    1.7431    0.8344 C   0  0  0  0  0  0  0  0  0  0  0  0
   -3.8718    2.0009    1.5555 O   0  0  0  0  0  0  0  0  0  0  0  0
   -1.5795    1.6172    1.4349 N   0  0  0  0  0  0  0  0  0  0  0  0
   -1.1882    0.4260    2.1849 C   0  0  0  0  0  0  0  0  0  0  0  0
    0.2628   -0.0072    0.0027 C   0  0  0  0  0  0  0  0  0  0  0  0
    1.1374    1.2589   -0.0707 C   0  0  0  0  0  0  0  0  0  0  0  0
    5.6383   -2.6823   -1.1610 H   0  0  0  0  0  0  0  0  0  0  0  0
    6.8305   -1.3857   -0.8063 H   0  0  0  0  0  0  0  0  0  0  0  0
    5.4016   -1.6255    0.2780 H   0  0  0  0  0  0  0  0  0  0  0  0
    3.9399   -2.0001   -3.0527 H   0  0  0  0  0  0  0  0  0  0  0  0
    2.9557    0.3414   -3.9146 H   0  0  0  0  0  0  0  0  0  0  0  0
    6.6133    0.9992   -0.1765 H   0  0  0  0  0  0  0  0  0  0  0  0
    5.7747    2.4751   -0.7484 H   0  0  0  0  0  0  0  0  0  0  0  0
    4.7022    0.4266    1.2961 H   0  0  0  0  0  0  0  0  0  0  0  0
    5.2851    2.0843    1.6545 H   0  0  0  0  0  0  0  0  0  0  0  0
    1.3390    1.6136    2.7671 H   0  0  0  0  0  0  0  0  0  0  0  0
    2.8833    0.7025    2.8588 H   0  0  0  0  0  0  0  0  0  0  0  0
    0.9718   -0.7948    3.3446 H   0  0  0  0  0  0  0  0  0  0  0  0
    1.8861   -1.2900    1.8896 H   0  0  0  0  0  0  0  0  0  0  0  0
    0.1588   -2.6228    1.0235 H   0  0  0  0  0  0  0  0  0  0  0  0
   -0.8709   -2.2912    2.4277 H   0  0  0  0  0  0  0  0  0  0  0  0
   -1.5556   -2.6681   -0.4561 H   0  0  0  0  0  0  0  0  0  0  0  0
   -2.2699   -1.1721    0.1568 H   0  0  0  0  0  0  0  0  0  0  0  0
   -2.6139   -3.9858    1.3373 H   0  0  0  0  0  0  0  0  0  0  0  0
   -3.2451   -2.5187    2.1400 H   0  0  0  0  0  0  0  0  0  0  0  0
   -4.7179   -4.0548    0.4154 H   0  0  0  0  0  0  0  0  0  0  0  0
   -3.9950   -2.9919   -0.8094 H   0  0  0  0  0  0  0  0  0  0  0  0
   -5.7180   -2.1757    1.6362 H   0  0  0  0  0  0  0  0  0  0  0  0
   -6.2067   -2.1565   -0.0860 H   0  0  0  0  0  0  0  0  0  0  0  0
   -5.7115    0.1308    0.7157 H   0  0  0  0  0  0  0  0  0  0  0  0
   -4.0731   -0.4176    1.2120 H   0  0  0  0  0  0  0  0  0  0  0  0
   -4.3209    0.1768   -3.3690 H   0  0  0  0  0  0  0  0  0  0  0  0
   -3.0872    1.9706   -4.5180 H   0  0  0  0  0  0  0  0  0  0  0  0
   -1.7746    3.6212   -3.2155 H   0  0  0  0  0  0  0  0  0  0  0  0
   -1.7076    3.4915   -0.7655 H   0  0  0  0  0  0  0  0  0  0  0  0
   -1.0500    2.5001    1.5953 H   0  0  0  0  0  0  0  0  0  0  0  0
   -0.8128    0.7582    3.1753 H   0  0  0  0  0  0  0  0  0  0  0  0
   -2.1016   -0.1548    2.4396 H   0  0  0  0  0  0  0  0  0  0  0  0
    0.8300   -0.8231   -0.5015 H   0  0  0  0  0  0  0  0  0  0  0  0
   -0.6445    0.1620   -0.6134 H   0  0  0  0  0  0  0  0  0  0  0  0
    0.5397    2.1763    0.0918 H   0  0  0  0  0  0  0  0  0  0  0  0
    1.5480    1.3296   -1.1030 H   0  0  0  0  0  0  0  0  0  0  0  0
  1  2  1  0
  2  3  2  0
  3  4  1  0
  4  5  2  0
  5  6  1  0
  6  7  1  0
  7  8  1  0
  8  9  1  0
  9 10  2  0
  9 11  1  0
 11 12  1  0
 12 13  1  0
 13 14  1  0
 14 15  1  0
 15 16  1  0
 16 17  1  0
 17 18  1  0
 18 19  1  0
 19 20  1  0
 20 21  1  0
 21 22  1  0
 22 23  2  0
 23 24  1  0
 24 25  2  0
 25 26  1  0
 26 27  2  0
 27 28  1  0
 28 29  2  0
 28 30  1  0
 30 31  1  0
 14 32  1  0
 32 33  1  0
  6  2  1  0
 33 11  1  0
 31 14  1  0
 27 22  1  0
  1 34  1  0
  1 35  1  0
  1 36  1  0
  3 37  1  0
  4 38  1  0
  7 39  1  0
  7 40  1  0
  8 41  1  0
  8 42  1  0
 12 43  1  0
 12 44  1  0
 13 45  1  0
 13 46  1  0
 15 47  1  0
 15 48  1  0
 16 49  1  0
 16 50  1  0
 17 51  1  0
 17 52  1  0
 18 53  1  0
 18 54  1  0
 19 55  1  0
 19 56  1  0
 20 57  1  0
 20 58  1  0
 23 59  1  0
 24 60  1  0
 25 61  1  0
 26 62  1  0
 30 63  1  0
 31 64  1  0
 31 65  1  0
 32 66  1  0
 32 67  1  0
 33 68  1  0
 33 69  1  0
M  END
$$$$
