
     RDKit          3D

109113  0  0  0  0  0  0  0  0999 V2000
   -4.8564    2.8001    1.3805 C   0  0  0  0  0  0  0  0  0  0  0  0
   -5.2379    2.5614   -0.0828 C   0  0  0  0  0  0  0  0  0  0  0  0
   -4.2589    3.0856   -1.0494 N   0  0  0  0  0  0  0  0  0  0  0  0
   -2.8959    2.6619   -1.2083 C   0  0  0  0  0  0  0  0  0  0  0  0
   -2.5247    2.2363   -2.3338 O   0  0  0  0  0  0  0  0  0  0  0  0
   -1.8535    2.8487   -0.1334 C   0  0  0  0  0  0  0  0  0  0  0  0
   -1.0487    4.1734   -0.2299 C   0  0  0  0  0  0  0  0  0  0  0  0
   -2.0283    5.3685   -0.1282 C   0  0  0  0  0  0  0  0  0  0  0  0
   -0.2924    4.2938   -1.5772 C   0  0  0  0  0  0  0  0  0  0  0  0
   -0.0956    4.2775    0.9047 N   0  0  0  0  0  0  0  0  0  0  0  0
    0.8347    3.2966    1.4176 C   0  0  0  0  0  0  0  0  0  0  0  0
    1.2908    3.4613    2.5828 O   0  0  0  0  0  0  0  0  0  0  0  0
    1.3542    2.1227    0.6309 C   0  0  0  0  0  0  0  0  0  0  0  0
    0.8415    0.7861    1.2109 C   0  0  0  0  0  0  0  0  0  0  0  0
    1.0979   -0.4513    0.3178 C   0  0  0  0  0  0  0  0  0  0  0  0
    2.5796   -0.6533    0.0692 C   0  0  0  0  0  0  0  0  0  0  0  0
    3.0943   -0.1425   -0.9644 O   0  0  0  0  0  0  0  0  0  0  0  0
    3.4223   -1.3631    1.0098 N   0  0  0  0  0  0  0  0  0  0  0  0
    2.8400   -2.1770    2.0825 C   0  0  0  0  0  0  0  0  0  0  0  0
    4.8873   -1.3079    0.8600 C   0  0  0  0  0  0  0  0  0  0  0  0
    5.4435    0.0740    1.1453 C   0  0  0  0  0  0  0  0  0  0  0  0
    4.7813    0.9444    2.0349 C   0  0  0  0  0  0  0  0  0  0  0  0
    5.2815    2.2258    2.2824 C   0  0  0  0  0  0  0  0  0  0  0  0
    6.4675    2.6412    1.6822 C   0  0  0  0  0  0  0  0  0  0  0  0
    7.1668    1.7729    0.8444 C   0  0  0  0  0  0  0  0  0  0  0  0
    6.6713    0.4905    0.5719 C   0  0  0  0  0  0  0  0  0  0  0  0
    7.4487   -0.3901   -0.2534 N   0  0  0  0  0  0  0  0  0  0  0  0
    7.5281   -0.1321   -1.6947 C   0  0  0  0  0  0  0  0  0  0  0  0
    8.5394   -1.0717   -2.3420 C   0  0  0  0  0  0  0  0  0  0  0  0
    9.6917   -1.1340   -1.5343 O   0  0  0  0  0  0  0  0  0  0  0  0
    9.4351   -1.9085   -0.3763 C   0  0  0  0  0  0  0  0  0  0  0  0
    8.1105   -1.5537    0.3442 C   0  0  0  0  0  0  0  0  0  0  0  0
    0.3667   -0.3492   -0.9558 N   0  0  0  0  0  0  0  0  0  0  0  0
   -0.3235   -1.4360   -1.6000 C   0  0  0  0  0  0  0  0  0  0  0  0
   -0.5520   -1.3565   -2.8347 O   0  0  0  0  0  0  0  0  0  0  0  0
   -0.7599   -2.6537   -0.8828 C   0  0  0  0  0  0  0  0  0  0  0  0
   -0.3690   -3.8944   -1.4160 C   0  0  0  0  0  0  0  0  0  0  0  0
   -0.6898   -5.0851   -0.7644 C   0  0  0  0  0  0  0  0  0  0  0  0
   -1.4173   -5.0547    0.4223 C   0  0  0  0  0  0  0  0  0  0  0  0
   -1.8274   -3.8331    0.9578 C   0  0  0  0  0  0  0  0  0  0  0  0
   -1.5319   -2.6269    0.3081 C   0  0  0  0  0  0  0  0  0  0  0  0
   -2.0086   -1.4462    0.8971 O   0  0  0  0  0  0  0  0  0  0  0  0
   -2.7535   -0.4263    0.2258 C   0  0  0  0  0  0  0  0  0  0  0  0
   -4.1055   -0.9276   -0.2951 C   0  0  0  0  0  0  0  0  0  0  0  0
   -4.9578   -1.5517    0.8428 C   0  0  0  0  0  0  0  0  0  0  0  0
   -6.1515   -2.3258    0.3348 C   0  0  0  0  0  0  0  0  0  0  0  0
   -5.9719   -3.4322   -0.5143 C   0  0  0  0  0  0  0  0  0  0  0  0
   -7.0756   -4.1691   -0.9572 C   0  0  0  0  0  0  0  0  0  0  0  0
   -8.3619   -3.8267   -0.5358 C   0  0  0  0  0  0  0  0  0  0  0  0
   -8.5461   -2.7487    0.3303 C   0  0  0  0  0  0  0  0  0  0  0  0
   -7.4471   -2.0081    0.7744 C   0  0  0  0  0  0  0  0  0  0  0  0
   -4.7969    0.1691   -1.0158 N   0  0  0  0  0  0  0  0  0  0  0  0
   -4.9349    0.0587   -2.4685 C   0  0  0  0  0  0  0  0  0  0  0  0
   -5.6452    1.1252   -0.3454 C   0  0  0  0  0  0  0  0  0  0  0  0
   -6.8222    0.7854   -0.0426 O   0  0  0  0  0  0  0  0  0  0  0  0
   -5.7705    2.7528    2.0094 H   0  0  0  0  0  0  0  0  0  0  0  0
   -4.1692    2.0241    1.7620 H   0  0  0  0  0  0  0  0  0  0  0  0
   -4.4090    3.8076    1.5075 H   0  0  0  0  0  0  0  0  0  0  0  0
   -6.1626    3.1633   -0.2327 H   0  0  0  0  0  0  0  0  0  0  0  0
   -4.6619    3.6097   -1.8596 H   0  0  0  0  0  0  0  0  0  0  0  0
   -1.1602    2.0050   -0.2402 H   0  0  0  0  0  0  0  0  0  0  0  0
   -2.2832    2.7663    0.8770 H   0  0  0  0  0  0  0  0  0  0  0  0
   -2.7503    5.3839   -0.9703 H   0  0  0  0  0  0  0  0  0  0  0  0
   -1.4670    6.3263   -0.1563 H   0  0  0  0  0  0  0  0  0  0  0  0
   -2.5958    5.3261    0.8262 H   0  0  0  0  0  0  0  0  0  0  0  0
   -0.9725    4.6411   -2.3840 H   0  0  0  0  0  0  0  0  0  0  0  0
    0.5375    5.0275   -1.4905 H   0  0  0  0  0  0  0  0  0  0  0  0
    0.1144    3.3290   -1.9324 H   0  0  0  0  0  0  0  0  0  0  0  0
   -0.1546    5.1393    1.4972 H   0  0  0  0  0  0  0  0  0  0  0  0
    1.1186    2.2327   -0.4321 H   0  0  0  0  0  0  0  0  0  0  0  0
    2.4634    2.1303    0.6950 H   0  0  0  0  0  0  0  0  0  0  0  0
    1.3357    0.6250    2.1917 H   0  0  0  0  0  0  0  0  0  0  0  0
   -0.2452    0.8418    1.4300 H   0  0  0  0  0  0  0  0  0  0  0  0
    0.7090   -1.3211    0.8755 H   0  0  0  0  0  0  0  0  0  0  0  0
    3.6185   -2.6680    2.7024 H   0  0  0  0  0  0  0  0  0  0  0  0
    2.2337   -1.5404    2.7567 H   0  0  0  0  0  0  0  0  0  0  0  0
    2.2050   -2.9747    1.6451 H   0  0  0  0  0  0  0  0  0  0  0  0
    5.3852   -2.0243    1.5476 H   0  0  0  0  0  0  0  0  0  0  0  0
    5.1454   -1.6258   -0.1728 H   0  0  0  0  0  0  0  0  0  0  0  0
    3.8646    0.6517    2.5236 H   0  0  0  0  0  0  0  0  0  0  0  0
    4.7487    2.8924    2.9503 H   0  0  0  0  0  0  0  0  0  0  0  0
    6.8534    3.6353    1.8732 H   0  0  0  0  0  0  0  0  0  0  0  0
    8.1099    2.0910    0.4226 H   0  0  0  0  0  0  0  0  0  0  0  0
    7.8584    0.9144   -1.8646 H   0  0  0  0  0  0  0  0  0  0  0  0
    6.5279   -0.2687   -2.1577 H   0  0  0  0  0  0  0  0  0  0  0  0
    8.0954   -2.0799   -2.5013 H   0  0  0  0  0  0  0  0  0  0  0  0
    8.8254   -0.6781   -3.3394 H   0  0  0  0  0  0  0  0  0  0  0  0
   10.2761   -1.7516    0.3359 H   0  0  0  0  0  0  0  0  0  0  0  0
    9.4471   -2.9893   -0.6406 H   0  0  0  0  0  0  0  0  0  0  0  0
    7.4292   -2.4275    0.2843 H   0  0  0  0  0  0  0  0  0  0  0  0
    8.3137   -1.3671    1.4232 H   0  0  0  0  0  0  0  0  0  0  0  0
    0.5344    0.4863   -1.5563 H   0  0  0  0  0  0  0  0  0  0  0  0
    0.2066   -3.9402   -2.3322 H   0  0  0  0  0  0  0  0  0  0  0  0
   -0.3667   -6.0312   -1.1766 H   0  0  0  0  0  0  0  0  0  0  0  0
   -1.6681   -5.9778    0.9279 H   0  0  0  0  0  0  0  0  0  0  0  0
   -2.4020   -3.8225    1.8744 H   0  0  0  0  0  0  0  0  0  0  0  0
   -2.1834   -0.0139   -0.6224 H   0  0  0  0  0  0  0  0  0  0  0  0
   -2.9243    0.3884    0.9479 H   0  0  0  0  0  0  0  0  0  0  0  0
   -3.8620   -1.7372   -1.0158 H   0  0  0  0  0  0  0  0  0  0  0  0
   -4.3380   -2.2660    1.4244 H   0  0  0  0  0  0  0  0  0  0  0  0
   -5.2643   -0.7615    1.5613 H   0  0  0  0  0  0  0  0  0  0  0  0
   -4.9776   -3.7373   -0.8173 H   0  0  0  0  0  0  0  0  0  0  0  0
   -6.9316   -5.0149   -1.6148 H   0  0  0  0  0  0  0  0  0  0  0  0
   -9.2145   -4.4005   -0.8793 H   0  0  0  0  0  0  0  0  0  0  0  0
   -9.5380   -2.4911    0.6700 H   0  0  0  0  0  0  0  0  0  0  0  0
   -7.6096   -1.1950    1.4696 H   0  0  0  0  0  0  0  0  0  0  0  0
   -3.9827   -0.2894   -2.9218 H   0  0  0  0  0  0  0  0  0  0  0  0
   -5.7415   -0.6628   -2.7137 H   0  0  0  0  0  0  0  0  0  0  0  0
   -5.1837    1.0431   -2.9164 H   0  0  0  0  0  0  0  0  0  0  0  0
  1  2  1  0
  2  3  1  0
  3  4  1  0
  4  5  2  0
  4  6  1  0
  6  7  1  0
  7  8  1  0
  7  9  1  0
  7 10  1  0
 10 11  1  0
 11 12  2  0
 11 13  1  0
 13 14  1  0
 14 15  1  0
 15 16  1  0
 16 17  2  0
 16 18  1  0
 18 19  1  0
 18 20  1  0
 20 21  1  0
 21 22  2  0
 22 23  1  0
 23 24  2  0
 24 25  1  0
 25 26  2  0
 26 27  1  0
 27 28  1  0
 28 29  1  0
 29 30  1  0
 30 31  1  0
 31 32  1  0
 15 33  1  0
 33 34  1  0
 34 35  2  0
 34 36  1  0
 36 37  2  0
 37 38  1  0
 38 39  2  0
 39 40  1  0
 40 41  2  0
 41 42  1  0
 42 43  1  0
 43 44  1  0
 44 45  1  0
 45 46  1  0
 46 47  2  0
 47 48  1  0
 48 49  2  0
 49 50  1  0
 50 51  2  0
 44 52  1  0
 52 53  1  0
 52 54  1  0
 54 55  2  0
 54  2  1  0
 26 21  1  0
 32 27  1  0
 41 36  1  0
 51 46  1  0
  1 56  1  0
  1 57  1  0
  1 58  1  0
  2 59  1  0
  3 60  1  0
  6 61  1  0
  6 62  1  0
  8 63  1  0
  8 64  1  0
  8 65  1  0
  9 66  1  0
  9 67  1  0
  9 68  1  0
 10 69  1  0
 13 70  1  0
 13 71  1  0
 14 72  1  0
 14 73  1  0
 15 74  1  0
 19 75  1  0
 19 76  1  0
 19 77  1  0
 20 78  1  0
 20 79  1  0
 22 80  1  0
 23 81  1  0
 24 82  1  0
 25 83  1  0
 28 84  1  0
 28 85  1  0
 29 86  1  0
 29 87  1  0
 31 88  1  0
 31 89  1  0
 32 90  1  0
 32 91  1  0
 33 92  1  0
 37 93  1  0
 38 94  1  0
 39 95  1  0
 40 96  1  0
 43 97  1  0
 43 98  1  0
 44 99  1  0
 45100  1  0
 45101  1  0
 47102  1  0
 48103  1  0
 49104  1  0
 50105  1  0
 51106  1  0
 53107  1  0
 53108  1  0
 53109  1  0
M  END
$$$$
