
     RDKit          3D

 64 67  0  0  0  0  0  0  0  0999 V2000
   -3.9178    2.9220    1.8630 C   0  0  0  0  0  0  0  0  0  0  0  0
   -4.6148    1.6637    1.5314 N   0  0  0  0  0  0  0  0  0  0  0  0
   -3.8881    0.5323    1.2550 C   0  0  0  0  0  0  0  0  0  0  0  0
   -2.4093    0.5329    1.2729 C   0  0  0  0  0  0  0  0  0  0  0  0
   -1.8215    0.6702    2.3803 O   0  0  0  0  0  0  0  0  0  0  0  0
   -1.6468    0.4027    0.0530 N   0  0  0  0  0  0  0  0  0  0  0  0
   -2.3100    0.5219   -1.2491 C   0  0  0  0  0  0  0  0  0  0  0  0
   -1.2748    0.4979   -2.3709 C   0  0  0  0  0  0  0  0  0  0  0  0
   -0.4249   -0.6174   -2.2087 O   0  0  0  0  0  0  0  0  0  0  0  0
    0.3824   -0.5745   -1.0241 C   0  0  0  0  0  0  0  0  0  0  0  0
    1.8016   -0.1059   -1.4442 C   0  0  0  0  0  0  0  0  0  0  0  0
    2.4307   -0.9451   -2.5748 C   0  0  0  0  0  0  0  0  0  0  0  0
    3.8825   -0.5377   -2.8898 C   0  0  0  0  0  0  0  0  0  0  0  0
    4.9403   -1.0165   -1.8645 C   0  0  0  0  0  0  0  0  0  0  0  0
    5.0219   -0.1544   -0.6216 C   0  0  0  0  0  0  0  0  0  0  0  0
    5.3724    1.2025   -0.7699 C   0  0  0  0  0  0  0  0  0  0  0  0
    5.4968    2.0356    0.3430 C   0  0  0  0  0  0  0  0  0  0  0  0
    5.2984    1.5245    1.6235 C   0  0  0  0  0  0  0  0  0  0  0  0
    4.9810    0.1773    1.7953 C   0  0  0  0  0  0  0  0  0  0  0  0
    4.8356   -0.6716    0.6896 C   0  0  0  0  0  0  0  0  0  0  0  0
    4.5461   -2.0194    0.9440 O   0  0  0  0  0  0  0  0  0  0  0  0
    3.2780   -2.6266    0.6908 C   0  0  0  0  0  0  0  0  0  0  0  0
    2.1380   -1.9337    1.4493 C   0  0  0  0  0  0  0  0  0  0  0  0
    0.8423   -2.3118    0.8820 N   0  0  0  0  0  0  0  0  0  0  0  0
    0.4177   -1.9987   -0.4595 C   0  0  0  0  0  0  0  0  0  0  0  0
   -0.0032   -2.9455   -1.1792 O   0  0  0  0  0  0  0  0  0  0  0  0
   -0.1800    0.3924    0.0790 C   0  0  0  0  0  0  0  0  0  0  0  0
   -4.5418   -0.6592    0.9521 C   0  0  0  0  0  0  0  0  0  0  0  0
   -5.9298   -0.6904    0.9514 C   0  0  0  0  0  0  0  0  0  0  0  0
   -6.5168   -1.7703    0.6638 O   0  0  0  0  0  0  0  0  0  0  0  0
   -6.6454    0.4341    1.2580 N   0  0  0  0  0  0  0  0  0  0  0  0
   -8.1175    0.3751    1.2354 C   0  0  0  0  0  0  0  0  0  0  0  0
   -5.9893    1.6096    1.5362 C   0  0  0  0  0  0  0  0  0  0  0  0
   -6.6558    2.6498    1.8007 O   0  0  0  0  0  0  0  0  0  0  0  0
   -4.5741    3.8107    1.7526 H   0  0  0  0  0  0  0  0  0  0  0  0
   -3.5501    2.8782    2.9106 H   0  0  0  0  0  0  0  0  0  0  0  0
   -3.0603    3.0867    1.1765 H   0  0  0  0  0  0  0  0  0  0  0  0
   -3.0053   -0.3334   -1.3891 H   0  0  0  0  0  0  0  0  0  0  0  0
   -2.8877    1.4705   -1.2958 H   0  0  0  0  0  0  0  0  0  0  0  0
   -1.8020    0.4052   -3.3447 H   0  0  0  0  0  0  0  0  0  0  0  0
   -0.6896    1.4442   -2.3994 H   0  0  0  0  0  0  0  0  0  0  0  0
    1.7447    0.9450   -1.7995 H   0  0  0  0  0  0  0  0  0  0  0  0
    2.4571   -0.0903   -0.5674 H   0  0  0  0  0  0  0  0  0  0  0  0
    2.3819   -2.0306   -2.3657 H   0  0  0  0  0  0  0  0  0  0  0  0
    1.8308   -0.7814   -3.4951 H   0  0  0  0  0  0  0  0  0  0  0  0
    4.1450   -0.9987   -3.8671 H   0  0  0  0  0  0  0  0  0  0  0  0
    3.9396    0.5596   -3.0456 H   0  0  0  0  0  0  0  0  0  0  0  0
    4.7977   -2.0879   -1.6292 H   0  0  0  0  0  0  0  0  0  0  0  0
    5.9344   -0.9650   -2.3599 H   0  0  0  0  0  0  0  0  0  0  0  0
    5.5653    1.6182   -1.7512 H   0  0  0  0  0  0  0  0  0  0  0  0
    5.7587    3.0779    0.2104 H   0  0  0  0  0  0  0  0  0  0  0  0
    5.4012    2.1705    2.4864 H   0  0  0  0  0  0  0  0  0  0  0  0
    4.8415   -0.2121    2.7959 H   0  0  0  0  0  0  0  0  0  0  0  0
    3.3267   -3.6884    1.0121 H   0  0  0  0  0  0  0  0  0  0  0  0
    3.0719   -2.6382   -0.3871 H   0  0  0  0  0  0  0  0  0  0  0  0
    2.2459   -0.8351    1.4636 H   0  0  0  0  0  0  0  0  0  0  0  0
    2.1778   -2.2588    2.5115 H   0  0  0  0  0  0  0  0  0  0  0  0
    0.3133   -3.0609    1.3813 H   0  0  0  0  0  0  0  0  0  0  0  0
    0.1688    1.4327   -0.1044 H   0  0  0  0  0  0  0  0  0  0  0  0
    0.1971    0.1276    1.0865 H   0  0  0  0  0  0  0  0  0  0  0  0
   -3.9773   -1.5563    0.7258 H   0  0  0  0  0  0  0  0  0  0  0  0
   -8.5834    1.2450    1.7435 H   0  0  0  0  0  0  0  0  0  0  0  0
   -8.4755   -0.5321    1.7672 H   0  0  0  0  0  0  0  0  0  0  0  0
   -8.4720    0.3454    0.1839 H   0  0  0  0  0  0  0  0  0  0  0  0
  1  2  1  0
  2  3  1  0
  3  4  1  0
  4  5  2  0
  4  6  1  0
  6  7  1  0
  7  8  1  0
  8  9  1  0
  9 10  1  0
 10 11  1  0
 11 12  1  0
 12 13  1  0
 13 14  1  0
 14 15  1  0
 15 16  2  0
 16 17  1  0
 17 18  2  0
 18 19  1  0
 19 20  2  0
 20 21  1  0
 21 22  1  0
 22 23  1  0
 23 24  1  0
 24 25  1  0
 25 26  2  0
 10 27  1  0
  3 28  2  0
 28 29  1  0
 29 30  2  0
 29 31  1  0
 31 32  1  0
 31 33  1  0
 33 34  2  0
 33  2  1  0
 27  6  1  0
 25 10  1  0
 20 15  1  0
  1 35  1  0
  1 36  1  0
  1 37  1  0
  7 38  1  0
  7 39  1  0
  8 40  1  0
  8 41  1  0
 11 42  1  0
 11 43  1  0
 12 44  1  0
 12 45  1  0
 13 46  1  0
 13 47  1  0
 14 48  1  0
 14 49  1  0
 16 50  1  0
 17 51  1  0
 18 52  1  0
 19 53  1  0
 22 54  1  0
 22 55  1  0
 23 56  1  0
 23 57  1  0
 24 58  1  0
 27 59  1  0
 27 60  1  0
 28 61  1  0
 32 62  1  0
 32 63  1  0
 32 64  1  0
M  END
$$$$
