
     RDKit          3D

 55 58  0  0  0  0  0  0  0  0999 V2000
    7.9385   -0.4408    0.9995 C   0  0  0  0  0  0  0  0  0  0  0  0
    6.8272    0.2643    0.4561 O   0  0  0  0  0  0  0  0  0  0  0  0
    5.4903   -0.1385    0.5922 C   0  0  0  0  0  0  0  0  0  0  0  0
    5.1202   -1.3009    1.2946 C   0  0  0  0  0  0  0  0  0  0  0  0
    3.7733   -1.6527    1.4099 C   0  0  0  0  0  0  0  0  0  0  0  0
    2.7862   -0.8592    0.8215 C   0  0  0  0  0  0  0  0  0  0  0  0
    3.1416    0.2918    0.0964 C   0  0  0  0  0  0  0  0  0  0  0  0
    2.1440    1.1395   -0.4994 N   0  0  0  0  0  0  0  0  0  0  0  0
    0.9032    0.6621   -1.0461 C   0  0  0  0  0  0  0  0  0  0  0  0
    0.8030   -0.5905   -1.4000 N   0  0  0  0  0  0  0  0  0  0  0  0
   -0.3500   -1.2767   -1.9821 C   0  0  0  0  0  0  0  0  0  0  0  0
   -0.9256   -2.2400   -0.9386 C   0  0  0  0  0  0  0  0  0  0  0  0
   -2.1320   -3.0616   -1.4232 C   0  0  0  0  0  0  0  0  0  0  0  0
   -3.3376   -2.2594   -1.9538 C   0  0  0  0  0  0  0  0  0  0  0  0
   -3.7615   -1.0548   -1.1026 C   0  0  0  0  0  0  0  0  0  0  0  0
   -3.6723   -1.3313    0.2949 O   0  0  0  0  0  0  0  0  0  0  0  0
   -3.6799   -0.3124    1.2551 C   0  0  0  0  0  0  0  0  0  0  0  0
   -4.6771   -0.3207    2.2377 C   0  0  0  0  0  0  0  0  0  0  0  0
   -4.7575    0.7162    3.1714 C   0  0  0  0  0  0  0  0  0  0  0  0
   -3.8346    1.7641    3.1352 C   0  0  0  0  0  0  0  0  0  0  0  0
   -2.8152    1.7660    2.1797 C   0  0  0  0  0  0  0  0  0  0  0  0
   -2.7170    0.7208    1.2487 C   0  0  0  0  0  0  0  0  0  0  0  0
   -1.6368    0.6769    0.3599 O   0  0  0  0  0  0  0  0  0  0  0  0
   -1.3603    1.6842   -0.5708 C   0  0  0  0  0  0  0  0  0  0  0  0
   -2.2668    2.6787   -0.7914 N   0  0  0  0  0  0  0  0  0  0  0  0
   -2.0551    3.6581   -1.7084 C   0  0  0  0  0  0  0  0  0  0  0  0
   -0.8815    3.6671   -2.4605 C   0  0  0  0  0  0  0  0  0  0  0  0
    0.0684    2.6665   -2.2555 C   0  0  0  0  0  0  0  0  0  0  0  0
   -0.1639    1.6545   -1.3135 C   0  0  0  0  0  0  0  0  0  0  0  0
    4.4945    0.6522    0.0051 C   0  0  0  0  0  0  0  0  0  0  0  0
    7.9885   -1.4638    0.5702 H   0  0  0  0  0  0  0  0  0  0  0  0
    8.8722    0.0991    0.7406 H   0  0  0  0  0  0  0  0  0  0  0  0
    7.8533   -0.4938    2.1055 H   0  0  0  0  0  0  0  0  0  0  0  0
    5.8633   -1.9331    1.7610 H   0  0  0  0  0  0  0  0  0  0  0  0
    3.4928   -2.5389    1.9645 H   0  0  0  0  0  0  0  0  0  0  0  0
    1.7477   -1.1331    0.9541 H   0  0  0  0  0  0  0  0  0  0  0  0
    2.3510    2.1620   -0.5680 H   0  0  0  0  0  0  0  0  0  0  0  0
   -1.1074   -0.5564   -2.3467 H   0  0  0  0  0  0  0  0  0  0  0  0
   -0.0028   -1.8649   -2.8577 H   0  0  0  0  0  0  0  0  0  0  0  0
   -0.1248   -2.9560   -0.6503 H   0  0  0  0  0  0  0  0  0  0  0  0
   -1.1879   -1.6942   -0.0140 H   0  0  0  0  0  0  0  0  0  0  0  0
   -2.4767   -3.6932   -0.5755 H   0  0  0  0  0  0  0  0  0  0  0  0
   -1.7941   -3.7562   -2.2229 H   0  0  0  0  0  0  0  0  0  0  0  0
   -4.2010   -2.9553   -2.0341 H   0  0  0  0  0  0  0  0  0  0  0  0
   -3.1161   -1.9060   -2.9842 H   0  0  0  0  0  0  0  0  0  0  0  0
   -3.1416   -0.1841   -1.3781 H   0  0  0  0  0  0  0  0  0  0  0  0
   -4.8107   -0.7855   -1.3498 H   0  0  0  0  0  0  0  0  0  0  0  0
   -5.4080   -1.1191    2.2597 H   0  0  0  0  0  0  0  0  0  0  0  0
   -5.5403    0.7110    3.9189 H   0  0  0  0  0  0  0  0  0  0  0  0
   -3.9000    2.5673    3.8577 H   0  0  0  0  0  0  0  0  0  0  0  0
   -2.0832    2.5637    2.1805 H   0  0  0  0  0  0  0  0  0  0  0  0
   -2.7993    4.4296   -1.8532 H   0  0  0  0  0  0  0  0  0  0  0  0
   -0.7055    4.4473   -3.1898 H   0  0  0  0  0  0  0  0  0  0  0  0
    0.9881    2.6824   -2.8277 H   0  0  0  0  0  0  0  0  0  0  0  0
    4.7772    1.5477   -0.5346 H   0  0  0  0  0  0  0  0  0  0  0  0
  1  2  1  0
  2  3  1  0
  3  4  2  0
  4  5  1  0
  5  6  2  0
  6  7  1  0
  7  8  1  0
  8  9  1  0
  9 10  2  3
 10 11  1  0
 11 12  1  0
 12 13  1  0
 13 14  1  0
 14 15  1  0
 15 16  1  0
 16 17  1  0
 17 18  2  0
 18 19  1  0
 19 20  2  0
 20 21  1  0
 21 22  2  0
 22 23  1  0
 23 24  1  0
 24 25  2  0
 25 26  1  0
 26 27  2  0
 27 28  1  0
 28 29  2  0
  7 30  2  0
 30  3  1  0
 29  9  1  0
 22 17  1  0
 29 24  1  0
  1 31  1  0
  1 32  1  0
  1 33  1  0
  4 34  1  0
  5 35  1  0
  6 36  1  0
  8 37  1  0
 11 38  1  0
 11 39  1  0
 12 40  1  0
 12 41  1  0
 13 42  1  0
 13 43  1  0
 14 44  1  0
 14 45  1  0
 15 46  1  0
 15 47  1  0
 18 48  1  0
 19 49  1  0
 20 50  1  0
 21 51  1  0
 26 52  1  0
 27 53  1  0
 28 54  1  0
 30 55  1  0
M  END
$$$$
