
     RDKit          3D

 74 76  0  0  0  0  0  0  0  0999 V2000
   -3.5032   -4.7495   -2.2068 C   0  0  0  0  0  0  0  0  0  0  0  0
   -3.7478   -3.2512   -1.9727 C   0  0  0  0  0  0  0  0  0  0  0  0
   -5.2519   -2.9926   -1.7854 C   0  0  0  0  0  0  0  0  0  0  0  0
   -2.9147   -2.7647   -0.7583 C   0  0  0  0  0  0  0  0  0  0  0  0
   -3.0041   -1.2395   -0.4977 C   0  0  0  0  0  0  0  0  0  0  0  0
   -2.6716   -0.4616   -1.6979 N   0  0  0  0  0  0  0  0  0  0  0  0
   -1.4606   -0.5536   -2.4718 C   0  0  0  0  0  0  0  0  0  0  0  0
   -1.5370   -0.3933   -3.7187 O   0  0  0  0  0  0  0  0  0  0  0  0
   -0.0905   -0.7790   -1.8724 C   0  0  0  0  0  0  0  0  0  0  0  0
    0.5250    0.4702   -1.1956 C   0  0  0  0  0  0  0  0  0  0  0  0
    2.0094    0.2494   -0.9891 C   0  0  0  0  0  0  0  0  0  0  0  0
    2.7755    0.3168   -1.9889 O   0  0  0  0  0  0  0  0  0  0  0  0
    2.5666   -0.0177    0.3149 N   0  0  0  0  0  0  0  0  0  0  0  0
    1.8156   -0.7795    1.3191 C   0  0  0  0  0  0  0  0  0  0  0  0
    2.7701   -1.2778    2.4169 C   0  0  0  0  0  0  0  0  0  0  0  0
    2.1413   -2.4201    3.2136 C   0  0  0  0  0  0  0  0  0  0  0  0
    3.9657   -1.7355    1.8128 O   0  0  0  0  0  0  0  0  0  0  0  0
    4.7470   -0.6523    1.3199 C   0  0  0  0  0  0  0  0  0  0  0  0
    5.7539   -1.2113    0.3142 C   0  0  0  0  0  0  0  0  0  0  0  0
    3.9021    0.4773    0.6652 C   0  0  0  0  0  0  0  0  0  0  0  0
    0.3161    1.6943   -1.9884 N   0  0  0  0  0  0  0  0  0  0  0  0
    0.7982    2.9983   -1.6164 C   0  0  0  0  0  0  0  0  0  0  0  0
    0.7688    3.9197   -2.4731 O   0  0  0  0  0  0  0  0  0  0  0  0
    1.3907    3.2943   -0.2891 C   0  0  0  0  0  0  0  0  0  0  0  0
    2.6920    3.8197   -0.2384 C   0  0  0  0  0  0  0  0  0  0  0  0
    3.2916    4.1176    0.9878 C   0  0  0  0  0  0  0  0  0  0  0  0
    2.5998    3.8876    2.1765 C   0  0  0  0  0  0  0  0  0  0  0  0
    1.2995    3.3825    2.1422 C   0  0  0  0  0  0  0  0  0  0  0  0
    0.6836    3.0987    0.9177 C   0  0  0  0  0  0  0  0  0  0  0  0
   -0.6217    2.6084    0.9241 O   0  0  0  0  0  0  0  0  0  0  0  0
   -1.7360    3.3822    0.5060 C   0  0  0  0  0  0  0  0  0  0  0  0
   -2.8060    2.4686   -0.0950 C   0  0  0  0  0  0  0  0  0  0  0  0
   -3.4095    1.4885    0.9252 C   0  0  0  0  0  0  0  0  0  0  0  0
   -2.4386    0.4771    1.3548 N   0  0  0  0  0  0  0  0  0  0  0  0
   -2.1989   -0.7845    0.7007 C   0  0  0  0  0  0  0  0  0  0  0  0
   -1.3205   -1.5484    1.1769 O   0  0  0  0  0  0  0  0  0  0  0  0
   -3.8212   -5.3425   -1.3227 H   0  0  0  0  0  0  0  0  0  0  0  0
   -4.0714   -5.0990   -3.0959 H   0  0  0  0  0  0  0  0  0  0  0  0
   -2.4239   -4.9317   -2.3962 H   0  0  0  0  0  0  0  0  0  0  0  0
   -3.4107   -2.7193   -2.8875 H   0  0  0  0  0  0  0  0  0  0  0  0
   -5.8279   -3.4698   -2.6090 H   0  0  0  0  0  0  0  0  0  0  0  0
   -5.6049   -3.4075   -0.8133 H   0  0  0  0  0  0  0  0  0  0  0  0
   -5.4663   -1.9046   -1.8234 H   0  0  0  0  0  0  0  0  0  0  0  0
   -1.8554   -3.0495   -0.9245 H   0  0  0  0  0  0  0  0  0  0  0  0
   -3.2588   -3.3000    0.1553 H   0  0  0  0  0  0  0  0  0  0  0  0
   -4.0619   -1.0469   -0.2376 H   0  0  0  0  0  0  0  0  0  0  0  0
   -3.4747    0.0328   -2.1517 H   0  0  0  0  0  0  0  0  0  0  0  0
    0.5852   -1.1172   -2.6903 H   0  0  0  0  0  0  0  0  0  0  0  0
   -0.1207   -1.6104   -1.1454 H   0  0  0  0  0  0  0  0  0  0  0  0
    0.0240    0.5933   -0.2224 H   0  0  0  0  0  0  0  0  0  0  0  0
    1.0321   -0.1344    1.7726 H   0  0  0  0  0  0  0  0  0  0  0  0
    1.3340   -1.6542    0.8247 H   0  0  0  0  0  0  0  0  0  0  0  0
    2.9829   -0.4496    3.1332 H   0  0  0  0  0  0  0  0  0  0  0  0
    1.1885   -2.0859    3.6761 H   0  0  0  0  0  0  0  0  0  0  0  0
    2.8362   -2.7398    4.0206 H   0  0  0  0  0  0  0  0  0  0  0  0
    1.9429   -3.2903    2.5524 H   0  0  0  0  0  0  0  0  0  0  0  0
    5.3291   -0.2233    2.1622 H   0  0  0  0  0  0  0  0  0  0  0  0
    5.2287   -1.6149   -0.5778 H   0  0  0  0  0  0  0  0  0  0  0  0
    6.3513   -2.0245    0.7882 H   0  0  0  0  0  0  0  0  0  0  0  0
    6.4594   -0.4116   -0.0114 H   0  0  0  0  0  0  0  0  0  0  0  0
    4.4207    0.9206   -0.2096 H   0  0  0  0  0  0  0  0  0  0  0  0
    3.7800    1.3004    1.4007 H   0  0  0  0  0  0  0  0  0  0  0  0
   -0.0505    1.6124   -2.9638 H   0  0  0  0  0  0  0  0  0  0  0  0
    3.2522    3.9825   -1.1520 H   0  0  0  0  0  0  0  0  0  0  0  0
    4.3003    4.5085    1.0150 H   0  0  0  0  0  0  0  0  0  0  0  0
    3.0700    4.1090    3.1255 H   0  0  0  0  0  0  0  0  0  0  0  0
    0.7657    3.2068    3.0657 H   0  0  0  0  0  0  0  0  0  0  0  0
   -2.1350    3.9458    1.3748 H   0  0  0  0  0  0  0  0  0  0  0  0
   -1.4226    4.1176   -0.2684 H   0  0  0  0  0  0  0  0  0  0  0  0
   -2.3662    1.9226   -0.9449 H   0  0  0  0  0  0  0  0  0  0  0  0
   -3.6211    3.1063   -0.4970 H   0  0  0  0  0  0  0  0  0  0  0  0
   -4.3129    1.0163    0.4918 H   0  0  0  0  0  0  0  0  0  0  0  0
   -3.7628    2.0533    1.8144 H   0  0  0  0  0  0  0  0  0  0  0  0
   -1.9143    0.6598    2.2389 H   0  0  0  0  0  0  0  0  0  0  0  0
  1  2  1  0
  2  3  1  0
  2  4  1  0
  4  5  1  0
  5  6  1  0
  6  7  1  0
  7  8  2  0
  7  9  1  0
  9 10  1  0
 10 11  1  0
 11 12  2  0
 11 13  1  0
 13 14  1  0
 14 15  1  0
 15 16  1  0
 15 17  1  0
 17 18  1  0
 18 19  1  0
 18 20  1  0
 10 21  1  0
 21 22  1  0
 22 23  2  0
 22 24  1  0
 24 25  2  0
 25 26  1  0
 26 27  2  0
 27 28  1  0
 28 29  2  0
 29 30  1  0
 30 31  1  0
 31 32  1  0
 32 33  1  0
 33 34  1  0
 34 35  1  0
 35 36  2  0
 35  5  1  0
 20 13  1  0
 29 24  1  0
  1 37  1  0
  1 38  1  0
  1 39  1  0
  2 40  1  0
  3 41  1  0
  3 42  1  0
  3 43  1  0
  4 44  1  0
  4 45  1  0
  5 46  1  0
  6 47  1  0
  9 48  1  0
  9 49  1  0
 10 50  1  0
 14 51  1  0
 14 52  1  0
 15 53  1  0
 16 54  1  0
 16 55  1  0
 16 56  1  0
 18 57  1  0
 19 58  1  0
 19 59  1  0
 19 60  1  0
 20 61  1  0
 20 62  1  0
 21 63  1  0
 25 64  1  0
 26 65  1  0
 27 66  1  0
 28 67  1  0
 31 68  1  0
 31 69  1  0
 32 70  1  0
 32 71  1  0
 33 72  1  0
 33 73  1  0
 34 74  1  0
M  END
$$$$
