
     RDKit          3D

 69 72  0  0  0  0  0  0  0  0999 V2000
    3.1457    3.6738   -2.0270 C   0  0  0  0  0  0  0  0  0  0  0  0
    3.0687    2.2306   -1.5267 C   0  0  0  0  0  0  0  0  0  0  0  0
    4.0849    1.9916   -0.3969 C   0  0  0  0  0  0  0  0  0  0  0  0
    4.1231    0.6058   -0.0461 O   0  0  0  0  0  0  0  0  0  0  0  0
    4.8924    0.0631    1.0006 C   0  0  0  0  0  0  0  0  0  0  0  0
    5.6714    0.8808    1.8442 C   0  0  0  0  0  0  0  0  0  0  0  0
    6.4012    0.3233    2.8962 C   0  0  0  0  0  0  0  0  0  0  0  0
    6.3637   -1.0514    3.1241 C   0  0  0  0  0  0  0  0  0  0  0  0
    5.6054   -1.8777    2.2931 C   0  0  0  0  0  0  0  0  0  0  0  0
    4.8800   -1.3357    1.2190 C   0  0  0  0  0  0  0  0  0  0  0  0
    4.0743   -2.2539    0.3308 C   0  0  0  0  0  0  0  0  0  0  0  0
    2.5874   -2.2718    0.7431 C   0  0  0  0  0  0  0  0  0  0  0  0
    1.6387   -2.4957   -0.4529 C   0  0  0  0  0  0  0  0  0  0  0  0
    1.5307   -1.2574   -1.3741 C   0  0  0  0  0  0  0  0  0  0  0  0
    0.3748   -0.2350   -1.1007 C   0  0  0  0  0  0  0  0  0  0  0  0
   -0.9335   -0.7651   -1.7575 C   0  0  0  0  0  0  0  0  0  0  0  0
   -2.1344    0.1536   -1.5018 C   0  0  0  0  0  0  0  0  0  0  0  0
   -2.2814    0.4126   -0.0648 N   0  0  0  0  0  0  0  0  0  0  0  0
   -3.5897    0.6018    0.5058 C   0  0  0  0  0  0  0  0  0  0  0  0
   -3.8124    1.6111    1.2298 O   0  0  0  0  0  0  0  0  0  0  0  0
   -4.7056   -0.3847    0.2432 C   0  0  0  0  0  0  0  0  0  0  0  0
   -5.7506    0.2128   -0.7359 C   0  0  0  0  0  0  0  0  0  0  0  0
   -6.9539    0.8118    0.0012 C   0  0  0  0  0  0  0  0  0  0  0  0
   -7.6855   -0.2413    0.8581 C   0  0  0  0  0  0  0  0  0  0  0  0
   -6.7660   -1.3704    1.3654 C   0  0  0  0  0  0  0  0  0  0  0  0
   -5.3332   -0.8726    1.5753 C   0  0  0  0  0  0  0  0  0  0  0  0
   -1.1077    0.9108    0.6588 C   0  0  0  0  0  0  0  0  0  0  0  0
    0.0963   -0.0106    0.4176 C   0  0  0  0  0  0  0  0  0  0  0  0
    0.8264    1.0737   -1.7481 C   0  0  0  0  0  0  0  0  0  0  0  0
    0.5671    1.3063   -2.9606 O   0  0  0  0  0  0  0  0  0  0  0  0
    1.7139    1.9555   -1.0464 N   0  0  0  0  0  0  0  0  0  0  0  0
    4.1559    3.8830   -2.4394 H   0  0  0  0  0  0  0  0  0  0  0  0
    2.9374    4.3856   -1.2000 H   0  0  0  0  0  0  0  0  0  0  0  0
    2.3992    3.8340   -2.8340 H   0  0  0  0  0  0  0  0  0  0  0  0
    3.3185    1.5549   -2.3753 H   0  0  0  0  0  0  0  0  0  0  0  0
    3.7959    2.5967    0.4903 H   0  0  0  0  0  0  0  0  0  0  0  0
    5.0975    2.3039   -0.7338 H   0  0  0  0  0  0  0  0  0  0  0  0
    5.7170    1.9510    1.6999 H   0  0  0  0  0  0  0  0  0  0  0  0
    6.9931    0.9611    3.5402 H   0  0  0  0  0  0  0  0  0  0  0  0
    6.9243   -1.4780    3.9461 H   0  0  0  0  0  0  0  0  0  0  0  0
    5.5883   -2.9435    2.4845 H   0  0  0  0  0  0  0  0  0  0  0  0
    4.2147   -1.9407   -0.7240 H   0  0  0  0  0  0  0  0  0  0  0  0
    4.4733   -3.2907    0.3814 H   0  0  0  0  0  0  0  0  0  0  0  0
    2.3204   -1.3347    1.2676 H   0  0  0  0  0  0  0  0  0  0  0  0
    2.4361   -3.0935    1.4769 H   0  0  0  0  0  0  0  0  0  0  0  0
    0.6367   -2.8110   -0.0946 H   0  0  0  0  0  0  0  0  0  0  0  0
    2.0299   -3.3515   -1.0464 H   0  0  0  0  0  0  0  0  0  0  0  0
    1.4326   -1.6257   -2.4196 H   0  0  0  0  0  0  0  0  0  0  0  0
    2.5013   -0.7287   -1.3742 H   0  0  0  0  0  0  0  0  0  0  0  0
   -0.8028   -0.8873   -2.8548 H   0  0  0  0  0  0  0  0  0  0  0  0
   -1.1743   -1.7705   -1.3485 H   0  0  0  0  0  0  0  0  0  0  0  0
   -1.9973    1.1188   -2.0346 H   0  0  0  0  0  0  0  0  0  0  0  0
   -3.0414   -0.3267   -1.9235 H   0  0  0  0  0  0  0  0  0  0  0  0
   -4.2671   -1.2827   -0.2456 H   0  0  0  0  0  0  0  0  0  0  0  0
   -6.1178   -0.5903   -1.4129 H   0  0  0  0  0  0  0  0  0  0  0  0
   -5.2895    0.9901   -1.3852 H   0  0  0  0  0  0  0  0  0  0  0  0
   -7.6620    1.2473   -0.7360 H   0  0  0  0  0  0  0  0  0  0  0  0
   -6.6003    1.6407    0.6519 H   0  0  0  0  0  0  0  0  0  0  0  0
   -8.1494    0.2722    1.7281 H   0  0  0  0  0  0  0  0  0  0  0  0
   -8.5096   -0.6931    0.2668 H   0  0  0  0  0  0  0  0  0  0  0  0
   -6.7560   -2.2023    0.6277 H   0  0  0  0  0  0  0  0  0  0  0  0
   -7.1650   -1.7741    2.3210 H   0  0  0  0  0  0  0  0  0  0  0  0
   -4.7151   -1.6955    1.9958 H   0  0  0  0  0  0  0  0  0  0  0  0
   -5.3586   -0.0583    2.3328 H   0  0  0  0  0  0  0  0  0  0  0  0
   -0.8851    1.9468    0.3274 H   0  0  0  0  0  0  0  0  0  0  0  0
   -1.3092    0.9400    1.7524 H   0  0  0  0  0  0  0  0  0  0  0  0
    0.9821    0.4190    0.9292 H   0  0  0  0  0  0  0  0  0  0  0  0
   -0.1369   -0.9731    0.9173 H   0  0  0  0  0  0  0  0  0  0  0  0
    1.3912    2.4113   -0.1648 H   0  0  0  0  0  0  0  0  0  0  0  0
  1  2  1  0
  2  3  1  0
  3  4  1  0
  4  5  1  0
  5  6  2  0
  6  7  1  0
  7  8  2  0
  8  9  1  0
  9 10  2  0
 10 11  1  0
 11 12  1  0
 12 13  1  0
 13 14  1  0
 14 15  1  0
 15 16  1  0
 16 17  1  0
 17 18  1  0
 18 19  1  0
 19 20  2  0
 19 21  1  0
 21 22  1  0
 22 23  1  0
 23 24  1  0
 24 25  1  0
 25 26  1  0
 18 27  1  0
 27 28  1  0
 15 29  1  0
 29 30  2  0
 29 31  1  0
 31  2  1  0
 10  5  1  0
 28 15  1  0
 26 21  1  0
  1 32  1  0
  1 33  1  0
  1 34  1  0
  2 35  1  0
  3 36  1  0
  3 37  1  0
  6 38  1  0
  7 39  1  0
  8 40  1  0
  9 41  1  0
 11 42  1  0
 11 43  1  0
 12 44  1  0
 12 45  1  0
 13 46  1  0
 13 47  1  0
 14 48  1  0
 14 49  1  0
 16 50  1  0
 16 51  1  0
 17 52  1  0
 17 53  1  0
 21 54  1  0
 22 55  1  0
 22 56  1  0
 23 57  1  0
 23 58  1  0
 24 59  1  0
 24 60  1  0
 25 61  1  0
 25 62  1  0
 26 63  1  0
 26 64  1  0
 27 65  1  0
 27 66  1  0
 28 67  1  0
 28 68  1  0
 31 69  1  0
M  END
$$$$
