
     RDKit          3D

 78 81  0  0  0  0  0  0  0  0999 V2000
    9.4804   -0.9843   -2.7353 C   0  0  0  0  0  0  0  0  0  0  0  0
    8.3895   -0.7550   -1.7337 C   0  0  0  0  0  0  0  0  0  0  0  0
    8.2893    0.4808   -1.0783 C   0  0  0  0  0  0  0  0  0  0  0  0
    7.2606    0.7126   -0.1635 C   0  0  0  0  0  0  0  0  0  0  0  0
    6.3050   -0.2887    0.1023 C   0  0  0  0  0  0  0  0  0  0  0  0
    5.2545   -0.1120    1.0181 O   0  0  0  0  0  0  0  0  0  0  0  0
    4.9252    1.1152    1.6730 C   0  0  0  0  0  0  0  0  0  0  0  0
    4.2395    2.0803    0.7020 C   0  0  0  0  0  0  0  0  0  0  0  0
    2.9747    1.5191    0.2305 N   0  0  0  0  0  0  0  0  0  0  0  0
    1.7917    1.5064    1.0481 C   0  0  0  0  0  0  0  0  0  0  0  0
    1.7870    2.1016    2.1627 O   0  0  0  0  0  0  0  0  0  0  0  0
    0.5327    0.8483    0.5405 C   0  0  0  0  0  0  0  0  0  0  0  0
   -0.2234    1.8267   -0.3794 C   0  0  0  0  0  0  0  0  0  0  0  0
   -1.2326    1.1295   -1.2623 C   0  0  0  0  0  0  0  0  0  0  0  0
   -0.8372    0.1874   -2.0012 O   0  0  0  0  0  0  0  0  0  0  0  0
   -2.5887    1.5849   -1.4003 N   0  0  0  0  0  0  0  0  0  0  0  0
   -3.3190    2.3442   -0.3804 C   0  0  0  0  0  0  0  0  0  0  0  0
   -4.6463    2.9367   -0.9111 C   0  0  0  0  0  0  0  0  0  0  0  0
   -5.7606    1.9396   -1.1172 C   0  0  0  0  0  0  0  0  0  0  0  0
   -5.9770    1.3588   -2.3792 C   0  0  0  0  0  0  0  0  0  0  0  0
   -7.0252    0.4514   -2.5666 C   0  0  0  0  0  0  0  0  0  0  0  0
   -7.8699    0.1247   -1.5022 C   0  0  0  0  0  0  0  0  0  0  0  0
   -7.6666    0.7027   -0.2473 C   0  0  0  0  0  0  0  0  0  0  0  0
   -6.6193    1.6090   -0.0537 C   0  0  0  0  0  0  0  0  0  0  0  0
   -3.4847    1.5826    0.9283 C   0  0  0  0  0  0  0  0  0  0  0  0
   -3.2670    2.2389    1.9854 O   0  0  0  0  0  0  0  0  0  0  0  0
   -3.9382    0.2022    1.0475 N   0  0  0  0  0  0  0  0  0  0  0  0
   -4.1980   -0.3140    2.3997 C   0  0  0  0  0  0  0  0  0  0  0  0
   -4.1717   -0.7112   -0.0880 C   0  0  0  0  0  0  0  0  0  0  0  0
   -3.2045   -1.9014   -0.0820 C   0  0  0  0  0  0  0  0  0  0  0  0
   -1.9359   -1.5208    0.4443 O   0  0  0  0  0  0  0  0  0  0  0  0
   -0.9208   -2.4288    0.7789 C   0  0  0  0  0  0  0  0  0  0  0  0
   -0.8619   -3.7120    0.2016 C   0  0  0  0  0  0  0  0  0  0  0  0
    0.1314   -4.6155    0.5883 C   0  0  0  0  0  0  0  0  0  0  0  0
    1.0713   -4.2517    1.5540 C   0  0  0  0  0  0  0  0  0  0  0  0
    1.0275   -2.9803    2.1305 C   0  0  0  0  0  0  0  0  0  0  0  0
    0.0429   -2.0580    1.7415 C   0  0  0  0  0  0  0  0  0  0  0  0
   -0.0257   -0.7439    2.4107 C   0  0  0  0  0  0  0  0  0  0  0  0
    0.1549   -0.6668    3.6547 O   0  0  0  0  0  0  0  0  0  0  0  0
   -0.3098    0.4481    1.6737 N   0  0  0  0  0  0  0  0  0  0  0  0
    6.4012   -1.5161   -0.5649 C   0  0  0  0  0  0  0  0  0  0  0  0
    7.4303   -1.7477   -1.4840 C   0  0  0  0  0  0  0  0  0  0  0  0
    9.1967   -0.5298   -3.7081 H   0  0  0  0  0  0  0  0  0  0  0  0
    9.6666   -2.0699   -2.8809 H   0  0  0  0  0  0  0  0  0  0  0  0
   10.4250   -0.5168   -2.3867 H   0  0  0  0  0  0  0  0  0  0  0  0
    9.0105    1.2665   -1.2697 H   0  0  0  0  0  0  0  0  0  0  0  0
    7.2242    1.6729    0.3329 H   0  0  0  0  0  0  0  0  0  0  0  0
    4.2360    0.8920    2.5129 H   0  0  0  0  0  0  0  0  0  0  0  0
    5.8288    1.5779    2.1202 H   0  0  0  0  0  0  0  0  0  0  0  0
    4.9021    2.2707   -0.1700 H   0  0  0  0  0  0  0  0  0  0  0  0
    4.0590    3.0553    1.2036 H   0  0  0  0  0  0  0  0  0  0  0  0
    2.9282    1.1322   -0.7390 H   0  0  0  0  0  0  0  0  0  0  0  0
    0.8307   -0.0515   -0.0415 H   0  0  0  0  0  0  0  0  0  0  0  0
   -0.6792    2.6227    0.2405 H   0  0  0  0  0  0  0  0  0  0  0  0
    0.5001    2.3319   -1.0586 H   0  0  0  0  0  0  0  0  0  0  0  0
   -3.0649    1.3664   -2.3052 H   0  0  0  0  0  0  0  0  0  0  0  0
   -2.7137    3.2493   -0.1595 H   0  0  0  0  0  0  0  0  0  0  0  0
   -4.9950    3.7164   -0.1963 H   0  0  0  0  0  0  0  0  0  0  0  0
   -4.4454    3.4722   -1.8645 H   0  0  0  0  0  0  0  0  0  0  0  0
   -5.3385    1.6096   -3.2188 H   0  0  0  0  0  0  0  0  0  0  0  0
   -7.1903    0.0103   -3.5420 H   0  0  0  0  0  0  0  0  0  0  0  0
   -8.6815   -0.5776   -1.6485 H   0  0  0  0  0  0  0  0  0  0  0  0
   -8.3210    0.4525    0.5769 H   0  0  0  0  0  0  0  0  0  0  0  0
   -6.4781    2.0500    0.9258 H   0  0  0  0  0  0  0  0  0  0  0  0
   -4.5774   -1.3570    2.3741 H   0  0  0  0  0  0  0  0  0  0  0  0
   -4.9642    0.3151    2.9012 H   0  0  0  0  0  0  0  0  0  0  0  0
   -3.2596   -0.3020    2.9951 H   0  0  0  0  0  0  0  0  0  0  0  0
   -5.2129   -1.0986   -0.0348 H   0  0  0  0  0  0  0  0  0  0  0  0
   -4.1029   -0.2063   -1.0583 H   0  0  0  0  0  0  0  0  0  0  0  0
   -3.6315   -2.7140    0.5437 H   0  0  0  0  0  0  0  0  0  0  0  0
   -3.0840   -2.2829   -1.1205 H   0  0  0  0  0  0  0  0  0  0  0  0
   -1.5843   -4.0202   -0.5434 H   0  0  0  0  0  0  0  0  0  0  0  0
    0.1689   -5.6014    0.1438 H   0  0  0  0  0  0  0  0  0  0  0  0
    1.8331   -4.9580    1.8618 H   0  0  0  0  0  0  0  0  0  0  0  0
    1.7642   -2.7133    2.8785 H   0  0  0  0  0  0  0  0  0  0  0  0
   -0.8029    1.2077    2.1959 H   0  0  0  0  0  0  0  0  0  0  0  0
    5.6728   -2.2945   -0.3710 H   0  0  0  0  0  0  0  0  0  0  0  0
    7.4747   -2.7015   -1.9977 H   0  0  0  0  0  0  0  0  0  0  0  0
  1  2  1  0
  2  3  2  0
  3  4  1  0
  4  5  2  0
  5  6  1  0
  6  7  1  0
  7  8  1  0
  8  9  1  0
  9 10  1  0
 10 11  2  0
 10 12  1  0
 12 13  1  0
 13 14  1  0
 14 15  2  0
 14 16  1  0
 16 17  1  0
 17 18  1  0
 18 19  1  0
 19 20  2  0
 20 21  1  0
 21 22  2  0
 22 23  1  0
 23 24  2  0
 17 25  1  0
 25 26  2  0
 25 27  1  0
 27 28  1  0
 27 29  1  0
 29 30  1  0
 30 31  1  0
 31 32  1  0
 32 33  2  0
 33 34  1  0
 34 35  2  0
 35 36  1  0
 36 37  2  0
 37 38  1  0
 38 39  2  0
 38 40  1  0
  5 41  1  0
 41 42  2  0
 42  2  1  0
 40 12  1  0
 24 19  1  0
 37 32  1  0
  1 43  1  0
  1 44  1  0
  1 45  1  0
  3 46  1  0
  4 47  1  0
  7 48  1  0
  7 49  1  0
  8 50  1  0
  8 51  1  0
  9 52  1  0
 12 53  1  0
 13 54  1  0
 13 55  1  0
 16 56  1  0
 17 57  1  0
 18 58  1  0
 18 59  1  0
 20 60  1  0
 21 61  1  0
 22 62  1  0
 23 63  1  0
 24 64  1  0
 28 65  1  0
 28 66  1  0
 28 67  1  0
 29 68  1  0
 29 69  1  0
 30 70  1  0
 30 71  1  0
 33 72  1  0
 34 73  1  0
 35 74  1  0
 36 75  1  0
 40 76  1  0
 41 77  1  0
 42 78  1  0
M  END
$$$$
