
     RDKit          3D

 69 72  0  0  0  0  0  0  0  0999 V2000
   -0.6938   -3.8051    1.5496 C   0  0  0  0  0  0  0  0  0  0  0  0
   -2.0456   -3.1127    1.4497 C   0  0  0  0  0  0  0  0  0  0  0  0
   -2.0427   -2.1143    0.3672 N   0  0  0  0  0  0  0  0  0  0  0  0
   -3.0836   -2.2019   -0.6689 C   0  0  0  0  0  0  0  0  0  0  0  0
   -4.3811   -1.5404   -0.2058 C   0  0  0  0  0  0  0  0  0  0  0  0
   -4.1424   -0.1655    0.0815 O   0  0  0  0  0  0  0  0  0  0  0  0
   -5.1203    0.8364    0.1344 C   0  0  0  0  0  0  0  0  0  0  0  0
   -6.4941    0.5320    0.0752 C   0  0  0  0  0  0  0  0  0  0  0  0
   -7.4441    1.5540    0.0794 C   0  0  0  0  0  0  0  0  0  0  0  0
   -7.0389    2.8881    0.1418 C   0  0  0  0  0  0  0  0  0  0  0  0
   -5.6818    3.2040    0.2166 C   0  0  0  0  0  0  0  0  0  0  0  0
   -4.7132    2.1856    0.2343 C   0  0  0  0  0  0  0  0  0  0  0  0
   -3.2540    2.5585    0.3832 C   0  0  0  0  0  0  0  0  0  0  0  0
   -2.5375    2.7604   -0.9689 C   0  0  0  0  0  0  0  0  0  0  0  0
   -1.8255    1.4975   -1.4872 C   0  0  0  0  0  0  0  0  0  0  0  0
   -0.5386    1.1585   -0.6953 C   0  0  0  0  0  0  0  0  0  0  0  0
   -0.2976   -0.3769   -0.4927 C   0  0  0  0  0  0  0  0  0  0  0  0
    1.1195   -0.6233    0.0828 C   0  0  0  0  0  0  0  0  0  0  0  0
    2.1451   -0.4058   -0.9391 N   0  0  0  0  0  0  0  0  0  0  0  0
    3.4856   -0.0158   -0.5685 C   0  0  0  0  0  0  0  0  0  0  0  0
    4.2317    0.5209   -1.4309 O   0  0  0  0  0  0  0  0  0  0  0  0
    3.9871   -0.1983    0.8457 C   0  0  0  0  0  0  0  0  0  0  0  0
    5.5155   -0.3544    0.9460 C   0  0  0  0  0  0  0  0  0  0  0  0
    6.2437    0.9943    0.9775 C   0  0  0  0  0  0  0  0  0  0  0  0
    7.6758    0.7834    1.1685 N   0  0  0  0  0  0  0  0  0  0  0  0
    8.5992    0.6125    0.2088 C   0  0  0  0  0  0  0  0  0  0  0  0
    9.8127    0.3755    0.7419 N   0  0  0  0  0  0  0  0  0  0  0  0
    9.5595    0.4018    2.0689 C   0  0  0  0  0  0  0  0  0  0  0  0
    8.2609    0.6389    2.3411 N   0  0  0  0  0  0  0  0  0  0  0  0
    1.9183   -1.0053   -2.2537 C   0  0  0  0  0  0  0  0  0  0  0  0
    0.4780   -0.7676   -2.7042 C   0  0  0  0  0  0  0  0  0  0  0  0
   -0.4628   -1.1149   -1.7011 O   0  0  0  0  0  0  0  0  0  0  0  0
   -1.2865   -0.8984    0.5504 C   0  0  0  0  0  0  0  0  0  0  0  0
   -1.3548   -0.3110    1.6654 O   0  0  0  0  0  0  0  0  0  0  0  0
   -0.7663   -4.6641    2.2479 H   0  0  0  0  0  0  0  0  0  0  0  0
   -0.3770   -4.1774    0.5533 H   0  0  0  0  0  0  0  0  0  0  0  0
    0.0697   -3.1032    1.9434 H   0  0  0  0  0  0  0  0  0  0  0  0
   -2.8239   -3.8878    1.2722 H   0  0  0  0  0  0  0  0  0  0  0  0
   -2.2842   -2.6240    2.4190 H   0  0  0  0  0  0  0  0  0  0  0  0
   -3.2877   -3.2662   -0.9154 H   0  0  0  0  0  0  0  0  0  0  0  0
   -2.7560   -1.7272   -1.6106 H   0  0  0  0  0  0  0  0  0  0  0  0
   -4.7772   -2.0451    0.6996 H   0  0  0  0  0  0  0  0  0  0  0  0
   -5.1170   -1.6334   -1.0327 H   0  0  0  0  0  0  0  0  0  0  0  0
   -6.8377   -0.4925    0.0252 H   0  0  0  0  0  0  0  0  0  0  0  0
   -8.4976    1.3124    0.0301 H   0  0  0  0  0  0  0  0  0  0  0  0
   -7.7797    3.6778    0.1450 H   0  0  0  0  0  0  0  0  0  0  0  0
   -5.3859    4.2433    0.2800 H   0  0  0  0  0  0  0  0  0  0  0  0
   -2.7367    1.8056    1.0089 H   0  0  0  0  0  0  0  0  0  0  0  0
   -3.1857    3.5092    0.9545 H   0  0  0  0  0  0  0  0  0  0  0  0
   -3.2677    3.1033   -1.7358 H   0  0  0  0  0  0  0  0  0  0  0  0
   -1.7864    3.5732   -0.8633 H   0  0  0  0  0  0  0  0  0  0  0  0
   -1.5409    1.6841   -2.5468 H   0  0  0  0  0  0  0  0  0  0  0  0
   -2.5319    0.6526   -1.5110 H   0  0  0  0  0  0  0  0  0  0  0  0
   -0.5469    1.6587    0.2977 H   0  0  0  0  0  0  0  0  0  0  0  0
    0.3265    1.6201   -1.2188 H   0  0  0  0  0  0  0  0  0  0  0  0
    1.2859    0.0528    0.9488 H   0  0  0  0  0  0  0  0  0  0  0  0
    1.2074   -1.6706    0.4387 H   0  0  0  0  0  0  0  0  0  0  0  0
    3.6379    0.6493    1.4741 H   0  0  0  0  0  0  0  0  0  0  0  0
    3.5324   -1.1255    1.2561 H   0  0  0  0  0  0  0  0  0  0  0  0
    5.8979   -0.9767    0.1062 H   0  0  0  0  0  0  0  0  0  0  0  0
    5.7495   -0.8934    1.8900 H   0  0  0  0  0  0  0  0  0  0  0  0
    6.0730    1.5484    0.0315 H   0  0  0  0  0  0  0  0  0  0  0  0
    5.8533    1.6146    1.8129 H   0  0  0  0  0  0  0  0  0  0  0  0
    8.3994    0.6558   -0.8527 H   0  0  0  0  0  0  0  0  0  0  0  0
   10.3143    0.2425    2.8273 H   0  0  0  0  0  0  0  0  0  0  0  0
    2.1124   -2.0991   -2.1908 H   0  0  0  0  0  0  0  0  0  0  0  0
    2.6045   -0.5703   -3.0125 H   0  0  0  0  0  0  0  0  0  0  0  0
    0.3412    0.2755   -3.0539 H   0  0  0  0  0  0  0  0  0  0  0  0
    0.2877   -1.4132   -3.5873 H   0  0  0  0  0  0  0  0  0  0  0  0
  1  2  1  0
  2  3  1  0
  3  4  1  0
  4  5  1  0
  5  6  1  0
  6  7  1  0
  7  8  2  0
  8  9  1  0
  9 10  2  0
 10 11  1  0
 11 12  2  0
 12 13  1  0
 13 14  1  0
 14 15  1  0
 15 16  1  0
 16 17  1  0
 17 18  1  0
 18 19  1  0
 19 20  1  0
 20 21  2  0
 20 22  1  0
 22 23  1  0
 23 24  1  0
 24 25  1  0
 25 26  1  0
 26 27  2  0
 27 28  1  0
 28 29  2  0
 19 30  1  0
 30 31  1  0
 31 32  1  0
 17 33  1  0
 33 34  2  0
 33  3  1  0
 12  7  1  0
 32 17  1  0
 29 25  1  0
  1 35  1  0
  1 36  1  0
  1 37  1  0
  2 38  1  0
  2 39  1  0
  4 40  1  0
  4 41  1  0
  5 42  1  0
  5 43  1  0
  8 44  1  0
  9 45  1  0
 10 46  1  0
 11 47  1  0
 13 48  1  0
 13 49  1  0
 14 50  1  0
 14 51  1  0
 15 52  1  0
 15 53  1  0
 16 54  1  0
 16 55  1  0
 18 56  1  0
 18 57  1  0
 22 58  1  0
 22 59  1  0
 23 60  1  0
 23 61  1  0
 24 62  1  0
 24 63  1  0
 26 64  1  0
 28 65  1  0
 30 66  1  0
 30 67  1  0
 31 68  1  0
 31 69  1  0
M  END
$$$$
