
     RDKit          3D

 59 61  0  0  0  0  0  0  0  0999 V2000
   -4.8564   -2.3952   -0.7964 C   0  0  0  0  0  0  0  0  0  0  0  0
   -3.9959   -1.4564   -0.0706 N   0  0  0  0  0  0  0  0  0  0  0  0
   -2.9285   -1.9906    0.7906 C   0  0  0  0  0  0  0  0  0  0  0  0
   -1.7476   -2.4688   -0.0725 C   0  0  0  0  0  0  0  0  0  0  0  0
   -0.3832   -2.1879    0.5721 C   0  0  0  0  0  0  0  0  0  0  0  0
    0.7548   -2.2691   -0.4590 C   0  0  0  0  0  0  0  0  0  0  0  0
    0.9496   -0.9867   -1.1645 N   0  0  0  0  0  0  0  0  0  0  0  0
    1.9127   -0.0332   -0.6589 C   0  0  0  0  0  0  0  0  0  0  0  0
    2.6048    0.6383   -1.4730 O   0  0  0  0  0  0  0  0  0  0  0  0
    2.0758    0.1942    0.8290 C   0  0  0  0  0  0  0  0  0  0  0  0
    3.1625    1.2189    1.1938 C   0  0  0  0  0  0  0  0  0  0  0  0
    4.5466    0.7371    0.8364 C   0  0  0  0  0  0  0  0  0  0  0  0
    5.1324   -0.4332    1.2793 C   0  0  0  0  0  0  0  0  0  0  0  0
    6.4009   -0.4147    0.7331 C   0  0  0  0  0  0  0  0  0  0  0  0
    6.5699    0.7125    0.0135 N   0  0  0  0  0  0  0  0  0  0  0  0
    5.4443    1.4056    0.0803 N   0  0  0  0  0  0  0  0  0  0  0  0
    5.2678    2.7096   -0.5505 C   0  0  0  0  0  0  0  0  0  0  0  0
    0.4318   -0.8337   -2.5390 C   0  0  0  0  0  0  0  0  0  0  0  0
   -0.2736    0.5203   -2.7717 C   0  0  0  0  0  0  0  0  0  0  0  0
   -1.5619    0.7045   -1.9650 C   0  0  0  0  0  0  0  0  0  0  0  0
   -1.2560    0.7653   -0.5753 O   0  0  0  0  0  0  0  0  0  0  0  0
   -2.1029    1.3015    0.4042 C   0  0  0  0  0  0  0  0  0  0  0  0
   -1.5362    2.1894    1.3276 C   0  0  0  0  0  0  0  0  0  0  0  0
   -2.3171    2.7788    2.3235 C   0  0  0  0  0  0  0  0  0  0  0  0
   -3.6776    2.4810    2.4127 C   0  0  0  0  0  0  0  0  0  0  0  0
   -4.6577    3.2218    3.6646 Cl  0  0  0  0  0  0  0  0  0  0  0  0
   -4.2544    1.5806    1.5134 C   0  0  0  0  0  0  0  0  0  0  0  0
   -3.4780    0.9733    0.5142 C   0  0  0  0  0  0  0  0  0  0  0  0
   -4.1279   -0.0406   -0.3345 C   0  0  0  0  0  0  0  0  0  0  0  0
   -4.8835    0.3580   -1.2625 O   0  0  0  0  0  0  0  0  0  0  0  0
   -4.6254   -3.4474   -0.5265 H   0  0  0  0  0  0  0  0  0  0  0  0
   -4.7051   -2.2762   -1.8898 H   0  0  0  0  0  0  0  0  0  0  0  0
   -5.9194   -2.1954   -0.5484 H   0  0  0  0  0  0  0  0  0  0  0  0
   -2.6137   -1.2327    1.5368 H   0  0  0  0  0  0  0  0  0  0  0  0
   -3.3180   -2.8453    1.3868 H   0  0  0  0  0  0  0  0  0  0  0  0
   -1.8470   -3.5601   -0.2619 H   0  0  0  0  0  0  0  0  0  0  0  0
   -1.7928   -1.9783   -1.0603 H   0  0  0  0  0  0  0  0  0  0  0  0
   -0.2088   -2.9424    1.3688 H   0  0  0  0  0  0  0  0  0  0  0  0
   -0.3766   -1.1914    1.0560 H   0  0  0  0  0  0  0  0  0  0  0  0
    1.6975   -2.5654    0.0493 H   0  0  0  0  0  0  0  0  0  0  0  0
    0.5516   -3.0889   -1.1834 H   0  0  0  0  0  0  0  0  0  0  0  0
    2.2938   -0.7643    1.3427 H   0  0  0  0  0  0  0  0  0  0  0  0
    1.1126    0.5718    1.2270 H   0  0  0  0  0  0  0  0  0  0  0  0
    3.1307    1.3974    2.2903 H   0  0  0  0  0  0  0  0  0  0  0  0
    2.9347    2.1865    0.6993 H   0  0  0  0  0  0  0  0  0  0  0  0
    4.7024   -1.1924    1.9200 H   0  0  0  0  0  0  0  0  0  0  0  0
    7.1610   -1.1741    0.8628 H   0  0  0  0  0  0  0  0  0  0  0  0
    4.4151    2.6751   -1.2605 H   0  0  0  0  0  0  0  0  0  0  0  0
    6.1844    2.9904   -1.1117 H   0  0  0  0  0  0  0  0  0  0  0  0
    5.0747    3.4789    0.2262 H   0  0  0  0  0  0  0  0  0  0  0  0
    1.2814   -0.9138   -3.2515 H   0  0  0  0  0  0  0  0  0  0  0  0
   -0.2722   -1.6542   -2.7957 H   0  0  0  0  0  0  0  0  0  0  0  0
    0.4153    1.3631   -2.5545 H   0  0  0  0  0  0  0  0  0  0  0  0
   -0.5328    0.5893   -3.8507 H   0  0  0  0  0  0  0  0  0  0  0  0
   -2.2651   -0.1199   -2.1907 H   0  0  0  0  0  0  0  0  0  0  0  0
   -2.0373    1.6592   -2.2764 H   0  0  0  0  0  0  0  0  0  0  0  0
   -0.4857    2.4420    1.2590 H   0  0  0  0  0  0  0  0  0  0  0  0
   -1.8640    3.4704    3.0224 H   0  0  0  0  0  0  0  0  0  0  0  0
   -5.3065    1.3376    1.6063 H   0  0  0  0  0  0  0  0  0  0  0  0
  1  2  1  0
  2  3  1  0
  3  4  1  0
  4  5  1  0
  5  6  1  0
  6  7  1  0
  7  8  1  0
  8  9  2  0
  8 10  1  0
 10 11  1  0
 11 12  1  0
 12 13  2  0
 13 14  1  0
 14 15  2  0
 15 16  1  0
 16 17  1  0
  7 18  1  0
 18 19  1  0
 19 20  1  0
 20 21  1  0
 21 22  1  0
 22 23  2  0
 23 24  1  0
 24 25  2  0
 25 26  1  0
 25 27  1  0
 27 28  2  0
 28 29  1  0
 29 30  2  0
 29  2  1  0
 16 12  1  0
 28 22  1  0
  1 31  1  0
  1 32  1  0
  1 33  1  0
  3 34  1  0
  3 35  1  0
  4 36  1  0
  4 37  1  0
  5 38  1  0
  5 39  1  0
  6 40  1  0
  6 41  1  0
 10 42  1  0
 10 43  1  0
 11 44  1  0
 11 45  1  0
 13 46  1  0
 14 47  1  0
 17 48  1  0
 17 49  1  0
 17 50  1  0
 18 51  1  0
 18 52  1  0
 19 53  1  0
 19 54  1  0
 20 55  1  0
 20 56  1  0
 23 57  1  0
 24 58  1  0
 27 59  1  0
M  END
$$$$
