
     RDKit          3D

 75 79  0  0  0  0  0  0  0  0999 V2000
   -3.6210    4.3548    0.8897 C   0  0  0  0  0  0  0  0  0  0  0  0
   -2.4720    3.6036    0.2070 C   0  0  0  0  0  0  0  0  0  0  0  0
   -2.3915    3.9316   -1.2875 C   0  0  0  0  0  0  0  0  0  0  0  0
   -2.5788    2.1475    0.4179 N   0  0  0  0  0  0  0  0  0  0  0  0
   -3.8026    1.4049    0.0330 C   0  0  0  0  0  0  0  0  0  0  0  0
   -4.6602    0.9982    1.2562 C   0  0  0  0  0  0  0  0  0  0  0  0
   -4.6071   -0.4096    1.5235 O   0  0  0  0  0  0  0  0  0  0  0  0
   -5.0696   -1.4369    0.6779 C   0  0  0  0  0  0  0  0  0  0  0  0
   -6.0053   -1.1764   -0.3415 C   0  0  0  0  0  0  0  0  0  0  0  0
   -6.4316   -2.1993   -1.1905 C   0  0  0  0  0  0  0  0  0  0  0  0
   -5.9257   -3.4902   -1.0427 C   0  0  0  0  0  0  0  0  0  0  0  0
   -4.9948   -3.7678   -0.0409 C   0  0  0  0  0  0  0  0  0  0  0  0
   -4.5662   -2.7580    0.8375 C   0  0  0  0  0  0  0  0  0  0  0  0
   -3.5051   -3.0927    1.8751 C   0  0  0  0  0  0  0  0  0  0  0  0
   -2.0634   -2.8490    1.3682 C   0  0  0  0  0  0  0  0  0  0  0  0
   -1.9132   -1.3998    0.9191 C   0  0  0  0  0  0  0  0  0  0  0  0
   -0.4998   -0.8792    0.6898 C   0  0  0  0  0  0  0  0  0  0  0  0
   -0.5553    0.5517    0.0430 C   0  0  0  0  0  0  0  0  0  0  0  0
    0.8667    1.1586   -0.0250 C   0  0  0  0  0  0  0  0  0  0  0  0
    1.6562    0.4758   -1.0546 N   0  0  0  0  0  0  0  0  0  0  0  0
    3.0636    0.1817   -0.8889 C   0  0  0  0  0  0  0  0  0  0  0  0
    3.7122   -0.3229   -1.8479 O   0  0  0  0  0  0  0  0  0  0  0  0
    3.7783    0.4557    0.4106 C   0  0  0  0  0  0  0  0  0  0  0  0
    5.1888    0.0805    0.3352 N   0  0  0  0  0  0  0  0  0  0  0  0
    6.2752    0.9637   -0.1022 C   0  0  0  0  0  0  0  0  0  0  0  0
    7.4707    0.0530   -0.1194 C   0  0  0  0  0  0  0  0  0  0  0  0
    8.7891    0.3686   -0.4509 C   0  0  0  0  0  0  0  0  0  0  0  0
    9.7567   -0.6502   -0.3977 C   0  0  0  0  0  0  0  0  0  0  0  0
    9.3948   -1.9593   -0.0178 C   0  0  0  0  0  0  0  0  0  0  0  0
    8.0625   -2.2603    0.3110 C   0  0  0  0  0  0  0  0  0  0  0  0
    7.1254   -1.2304    0.2495 C   0  0  0  0  0  0  0  0  0  0  0  0
    5.7116   -1.2317    0.5252 C   0  0  0  0  0  0  0  0  0  0  0  0
    5.0262   -2.2304    0.8737 O   0  0  0  0  0  0  0  0  0  0  0  0
    1.0264    0.3726   -2.3724 C   0  0  0  0  0  0  0  0  0  0  0  0
   -0.3931   -0.1743   -2.2252 C   0  0  0  0  0  0  0  0  0  0  0  0
   -1.1464    0.5368   -1.2574 O   0  0  0  0  0  0  0  0  0  0  0  0
   -1.4103    1.4657    0.9246 C   0  0  0  0  0  0  0  0  0  0  0  0
   -1.0535    1.6823    2.1161 O   0  0  0  0  0  0  0  0  0  0  0  0
   -3.4585    5.4509    0.8052 H   0  0  0  0  0  0  0  0  0  0  0  0
   -4.5995    4.1106    0.4254 H   0  0  0  0  0  0  0  0  0  0  0  0
   -3.6575    4.0886    1.9675 H   0  0  0  0  0  0  0  0  0  0  0  0
   -1.5302    3.9780    0.6697 H   0  0  0  0  0  0  0  0  0  0  0  0
   -3.3400    3.6846   -1.8080 H   0  0  0  0  0  0  0  0  0  0  0  0
   -2.1845    5.0139   -1.4280 H   0  0  0  0  0  0  0  0  0  0  0  0
   -1.5646    3.3552   -1.7556 H   0  0  0  0  0  0  0  0  0  0  0  0
   -3.5513    0.5328   -0.5948 H   0  0  0  0  0  0  0  0  0  0  0  0
   -4.4370    2.0358   -0.6225 H   0  0  0  0  0  0  0  0  0  0  0  0
   -5.7161    1.3077    1.1076 H   0  0  0  0  0  0  0  0  0  0  0  0
   -4.3038    1.5373    2.1586 H   0  0  0  0  0  0  0  0  0  0  0  0
   -6.4095   -0.1842   -0.4870 H   0  0  0  0  0  0  0  0  0  0  0  0
   -7.1512   -1.9884   -1.9710 H   0  0  0  0  0  0  0  0  0  0  0  0
   -6.2520   -4.2774   -1.7104 H   0  0  0  0  0  0  0  0  0  0  0  0
   -4.6021   -4.7733    0.0476 H   0  0  0  0  0  0  0  0  0  0  0  0
   -3.5974   -4.1581    2.1783 H   0  0  0  0  0  0  0  0  0  0  0  0
   -3.6815   -2.4954    2.7963 H   0  0  0  0  0  0  0  0  0  0  0  0
   -1.8352   -3.5323    0.5204 H   0  0  0  0  0  0  0  0  0  0  0  0
   -1.3507   -3.0614    2.1946 H   0  0  0  0  0  0  0  0  0  0  0  0
   -2.4761   -1.2915   -0.0275 H   0  0  0  0  0  0  0  0  0  0  0  0
   -2.3321   -0.7720    1.7267 H   0  0  0  0  0  0  0  0  0  0  0  0
    0.0185   -0.8270    1.6732 H   0  0  0  0  0  0  0  0  0  0  0  0
    0.0817   -1.5958    0.0755 H   0  0  0  0  0  0  0  0  0  0  0  0
    1.3401    1.0878    0.9749 H   0  0  0  0  0  0  0  0  0  0  0  0
    0.8059    2.2381   -0.2878 H   0  0  0  0  0  0  0  0  0  0  0  0
    3.7024    1.5388    0.6449 H   0  0  0  0  0  0  0  0  0  0  0  0
    3.2943   -0.1168    1.2298 H   0  0  0  0  0  0  0  0  0  0  0  0
    6.4194    1.7904    0.6261 H   0  0  0  0  0  0  0  0  0  0  0  0
    6.0710    1.3550   -1.1221 H   0  0  0  0  0  0  0  0  0  0  0  0
    9.0607    1.3744   -0.7431 H   0  0  0  0  0  0  0  0  0  0  0  0
   10.7855   -0.4285   -0.6496 H   0  0  0  0  0  0  0  0  0  0  0  0
   10.1470   -2.7366    0.0213 H   0  0  0  0  0  0  0  0  0  0  0  0
    7.7748   -3.2618    0.6032 H   0  0  0  0  0  0  0  0  0  0  0  0
    1.5924   -0.3043   -3.0470 H   0  0  0  0  0  0  0  0  0  0  0  0
    0.9897    1.3813   -2.8382 H   0  0  0  0  0  0  0  0  0  0  0  0
   -0.9052   -0.0624   -3.2040 H   0  0  0  0  0  0  0  0  0  0  0  0
   -0.3851   -1.2632   -2.0169 H   0  0  0  0  0  0  0  0  0  0  0  0
  1  2  1  0
  2  3  1  0
  2  4  1  0
  4  5  1  0
  5  6  1  0
  6  7  1  0
  7  8  1  0
  8  9  2  0
  9 10  1  0
 10 11  2  0
 11 12  1  0
 12 13  2  0
 13 14  1  0
 14 15  1  0
 15 16  1  0
 16 17  1  0
 17 18  1  0
 18 19  1  0
 19 20  1  0
 20 21  1  0
 21 22  2  0
 21 23  1  0
 23 24  1  0
 24 25  1  0
 25 26  1  0
 26 27  2  0
 27 28  1  0
 28 29  2  0
 29 30  1  0
 30 31  2  0
 31 32  1  0
 32 33  2  0
 20 34  1  0
 34 35  1  0
 35 36  1  0
 18 37  1  0
 37 38  2  0
 37  4  1  0
 13  8  1  0
 36 18  1  0
 32 24  1  0
 31 26  1  0
  1 39  1  0
  1 40  1  0
  1 41  1  0
  2 42  1  0
  3 43  1  0
  3 44  1  0
  3 45  1  0
  5 46  1  0
  5 47  1  0
  6 48  1  0
  6 49  1  0
  9 50  1  0
 10 51  1  0
 11 52  1  0
 12 53  1  0
 14 54  1  0
 14 55  1  0
 15 56  1  0
 15 57  1  0
 16 58  1  0
 16 59  1  0
 17 60  1  0
 17 61  1  0
 19 62  1  0
 19 63  1  0
 23 64  1  0
 23 65  1  0
 25 66  1  0
 25 67  1  0
 27 68  1  0
 28 69  1  0
 29 70  1  0
 30 71  1  0
 34 72  1  0
 34 73  1  0
 35 74  1  0
 35 75  1  0
M  END
$$$$
