
     RDKit          3D

 68 70  0  0  0  0  0  0  0  0999 V2000
    2.2419    2.8131   -2.6685 C   0  0  0  0  0  0  0  0  0  0  0  0
    2.9025    1.4698   -2.9875 C   0  0  0  0  0  0  0  0  0  0  0  0
    3.0445    0.5238   -1.7663 C   0  0  0  0  0  0  0  0  0  0  0  0
    4.0173    1.0710   -0.6857 C   0  0  0  0  0  0  0  0  0  0  0  0
    5.4710    1.1076   -1.1599 C   0  0  0  0  0  0  0  0  0  0  0  0
    1.6796    0.1184   -1.2247 C   0  0  0  0  0  0  0  0  0  0  0  0
    0.8006   -0.2717   -2.0399 O   0  0  0  0  0  0  0  0  0  0  0  0
    1.3844    0.0869    0.1877 N   0  0  0  0  0  0  0  0  0  0  0  0
    1.1808    1.3611    0.8995 C   0  0  0  0  0  0  0  0  0  0  0  0
   -0.2997    1.6312    1.2039 C   0  0  0  0  0  0  0  0  0  0  0  0
   -1.1318    1.8312   -0.0763 C   0  0  0  0  0  0  0  0  0  0  0  0
   -2.6048    2.1880    0.1947 C   0  0  0  0  0  0  0  0  0  0  0  0
   -3.1812    1.4171    1.3103 N   0  0  0  0  0  0  0  0  0  0  0  0
   -3.4932    2.1099    2.5702 C   0  0  0  0  0  0  0  0  0  0  0  0
   -4.9959    2.3339    2.6977 C   0  0  0  0  0  0  0  0  0  0  0  0
   -3.4259   -0.0043    1.2060 C   0  0  0  0  0  0  0  0  0  0  0  0
   -3.7052   -0.6713    2.2390 O   0  0  0  0  0  0  0  0  0  0  0  0
   -3.3482   -0.7240   -0.0764 C   0  0  0  0  0  0  0  0  0  0  0  0
   -4.4583   -0.7353   -0.9309 C   0  0  0  0  0  0  0  0  0  0  0  0
   -4.4440   -1.5170   -2.0877 C   0  0  0  0  0  0  0  0  0  0  0  0
   -3.3299   -2.3040   -2.3860 C   0  0  0  0  0  0  0  0  0  0  0  0
   -2.2157   -2.2959   -1.5417 C   0  0  0  0  0  0  0  0  0  0  0  0
   -2.2069   -1.4858   -0.3888 C   0  0  0  0  0  0  0  0  0  0  0  0
   -1.0868   -1.3636    0.4505 O   0  0  0  0  0  0  0  0  0  0  0  0
    0.1384   -2.0895    0.3649 C   0  0  0  0  0  0  0  0  0  0  0  0
   -0.0112   -3.4128    1.1561 C   0  0  0  0  0  0  0  0  0  0  0  0
    1.2613   -3.8366    1.9083 C   0  0  0  0  0  0  0  0  0  0  0  0
    2.5161   -3.4758    1.1155 C   0  0  0  0  0  0  0  0  0  0  0  0
    2.6395   -1.9560    0.8914 C   0  0  0  0  0  0  0  0  0  0  0  0
    1.2827   -1.2028    0.9148 C   0  0  0  0  0  0  0  0  0  0  0  0
    1.2461    2.6622   -2.2049 H   0  0  0  0  0  0  0  0  0  0  0  0
    2.8796    3.4208   -1.9950 H   0  0  0  0  0  0  0  0  0  0  0  0
    2.1013    3.3841   -3.6103 H   0  0  0  0  0  0  0  0  0  0  0  0
    3.8957    1.6572   -3.4452 H   0  0  0  0  0  0  0  0  0  0  0  0
    2.2987    0.9625   -3.7714 H   0  0  0  0  0  0  0  0  0  0  0  0
    3.4937   -0.4180   -2.1521 H   0  0  0  0  0  0  0  0  0  0  0  0
    3.9876    0.4212    0.2118 H   0  0  0  0  0  0  0  0  0  0  0  0
    3.7299    2.0890   -0.3584 H   0  0  0  0  0  0  0  0  0  0  0  0
    5.6120    1.8781   -1.9451 H   0  0  0  0  0  0  0  0  0  0  0  0
    5.7803    0.1152   -1.5510 H   0  0  0  0  0  0  0  0  0  0  0  0
    6.1305    1.3683   -0.3053 H   0  0  0  0  0  0  0  0  0  0  0  0
    1.7527    1.3437    1.8523 H   0  0  0  0  0  0  0  0  0  0  0  0
    1.5708    2.2132    0.3051 H   0  0  0  0  0  0  0  0  0  0  0  0
   -0.7033    0.7957    1.8117 H   0  0  0  0  0  0  0  0  0  0  0  0
   -0.3670    2.5541    1.8200 H   0  0  0  0  0  0  0  0  0  0  0  0
   -0.6844    2.6519   -0.6769 H   0  0  0  0  0  0  0  0  0  0  0  0
   -1.0904    0.9237   -0.7042 H   0  0  0  0  0  0  0  0  0  0  0  0
   -3.2040    2.0177   -0.7255 H   0  0  0  0  0  0  0  0  0  0  0  0
   -2.6670    3.2785    0.4030 H   0  0  0  0  0  0  0  0  0  0  0  0
   -3.1229    1.5178    3.4351 H   0  0  0  0  0  0  0  0  0  0  0  0
   -2.9805    3.0949    2.6204 H   0  0  0  0  0  0  0  0  0  0  0  0
   -5.2134    2.8806    3.6393 H   0  0  0  0  0  0  0  0  0  0  0  0
   -5.3637    2.9355    1.8395 H   0  0  0  0  0  0  0  0  0  0  0  0
   -5.5325    1.3622    2.7181 H   0  0  0  0  0  0  0  0  0  0  0  0
   -5.3405   -0.1546   -0.6900 H   0  0  0  0  0  0  0  0  0  0  0  0
   -5.3043   -1.5270   -2.7442 H   0  0  0  0  0  0  0  0  0  0  0  0
   -3.3286   -2.9207   -3.2756 H   0  0  0  0  0  0  0  0  0  0  0  0
   -1.3742   -2.9178   -1.8054 H   0  0  0  0  0  0  0  0  0  0  0  0
    0.3915   -2.3300   -0.6866 H   0  0  0  0  0  0  0  0  0  0  0  0
   -0.8345   -3.3228    1.8986 H   0  0  0  0  0  0  0  0  0  0  0  0
   -0.3017   -4.2188    0.4471 H   0  0  0  0  0  0  0  0  0  0  0  0
    1.2973   -3.3332    2.8996 H   0  0  0  0  0  0  0  0  0  0  0  0
    1.2366   -4.9330    2.0883 H   0  0  0  0  0  0  0  0  0  0  0  0
    3.4150   -3.8459    1.6543 H   0  0  0  0  0  0  0  0  0  0  0  0
    2.4791   -3.9947    0.1318 H   0  0  0  0  0  0  0  0  0  0  0  0
    3.1540   -1.8104   -0.0803 H   0  0  0  0  0  0  0  0  0  0  0  0
    3.2952   -1.5228    1.6782 H   0  0  0  0  0  0  0  0  0  0  0  0
    1.0433   -0.9950    1.9829 H   0  0  0  0  0  0  0  0  0  0  0  0
  1  2  1  0
  2  3  1  0
  3  4  1  0
  4  5  1  0
  3  6  1  0
  6  7  2  0
  6  8  1  0
  8  9  1  0
  9 10  1  0
 10 11  1  0
 11 12  1  0
 12 13  1  0
 13 14  1  0
 14 15  1  0
 13 16  1  0
 16 17  2  0
 16 18  1  0
 18 19  2  0
 19 20  1  0
 20 21  2  0
 21 22  1  0
 22 23  2  0
 23 24  1  0
 24 25  1  0
 25 26  1  0
 26 27  1  0
 27 28  1  0
 28 29  1  0
 29 30  1  0
 30  8  1  0
 23 18  1  0
 30 25  1  0
  1 31  1  0
  1 32  1  0
  1 33  1  0
  2 34  1  0
  2 35  1  0
  3 36  1  0
  4 37  1  0
  4 38  1  0
  5 39  1  0
  5 40  1  0
  5 41  1  0
  9 42  1  0
  9 43  1  0
 10 44  1  0
 10 45  1  0
 11 46  1  0
 11 47  1  0
 12 48  1  0
 12 49  1  0
 14 50  1  0
 14 51  1  0
 15 52  1  0
 15 53  1  0
 15 54  1  0
 19 55  1  0
 20 56  1  0
 21 57  1  0
 22 58  1  0
 25 59  1  0
 26 60  1  0
 26 61  1  0
 27 62  1  0
 27 63  1  0
 28 64  1  0
 28 65  1  0
 29 66  1  0
 29 67  1  0
 30 68  1  0
M  END
$$$$
