
     RDKit          3D

 61 64  0  0  0  0  0  0  0  0999 V2000
   -3.5185    1.4309   -0.9898 C   0  0  0  0  0  0  0  0  0  0  0  0
   -3.0362    1.7567    0.3895 C   0  0  0  0  0  0  0  0  0  0  0  0
   -2.7608    3.0125    0.7954 N   0  0  0  0  0  0  0  0  0  0  0  0
   -2.4144    2.9524    2.0740 N   0  0  0  0  0  0  0  0  0  0  0  0
   -2.1214    4.1243    2.8899 C   0  0  0  0  0  0  0  0  0  0  0  0
   -2.4879    1.6821    2.5152 C   0  0  0  0  0  0  0  0  0  0  0  0
   -2.8598    0.8796    1.4537 C   0  0  0  0  0  0  0  0  0  0  0  0
   -3.0512   -0.5828    1.4895 C   0  0  0  0  0  0  0  0  0  0  0  0
   -3.5895   -1.0994    2.5063 O   0  0  0  0  0  0  0  0  0  0  0  0
   -2.6059   -1.4281    0.4110 N   0  0  0  0  0  0  0  0  0  0  0  0
   -3.3083   -2.6747    0.1110 C   0  0  0  0  0  0  0  0  0  0  0  0
   -2.5412   -3.4530   -0.9614 C   0  0  0  0  0  0  0  0  0  0  0  0
   -1.1802   -3.5901   -0.5964 O   0  0  0  0  0  0  0  0  0  0  0  0
   -0.4686   -2.3539   -0.4276 C   0  0  0  0  0  0  0  0  0  0  0  0
    0.2794   -2.4915    0.9450 C   0  0  0  0  0  0  0  0  0  0  0  0
    1.5237   -1.6059    1.2308 C   0  0  0  0  0  0  0  0  0  0  0  0
    1.2401   -0.2021    1.8210 C   0  0  0  0  0  0  0  0  0  0  0  0
    1.5286    0.9789    0.8739 C   0  0  0  0  0  0  0  0  0  0  0  0
    2.9728    1.0785    0.4319 C   0  0  0  0  0  0  0  0  0  0  0  0
    3.9165    1.7418    1.2344 C   0  0  0  0  0  0  0  0  0  0  0  0
    5.2155    1.9584    0.7627 C   0  0  0  0  0  0  0  0  0  0  0  0
    5.5857    1.5013   -0.5066 C   0  0  0  0  0  0  0  0  0  0  0  0
    4.6724    0.7974   -1.2929 C   0  0  0  0  0  0  0  0  0  0  0  0
    3.3702    0.5756   -0.8224 C   0  0  0  0  0  0  0  0  0  0  0  0
    2.4647   -0.1883   -1.5569 O   0  0  0  0  0  0  0  0  0  0  0  0
    2.0770    0.0828   -2.8943 C   0  0  0  0  0  0  0  0  0  0  0  0
    0.5718   -0.1594   -3.0231 C   0  0  0  0  0  0  0  0  0  0  0  0
    0.2165   -1.5639   -2.7976 N   0  0  0  0  0  0  0  0  0  0  0  0
    0.5184   -2.2749   -1.5881 C   0  0  0  0  0  0  0  0  0  0  0  0
    1.5306   -3.0291   -1.5782 O   0  0  0  0  0  0  0  0  0  0  0  0
   -1.4096   -1.1069   -0.3712 C   0  0  0  0  0  0  0  0  0  0  0  0
   -2.6596    1.4382   -1.6953 H   0  0  0  0  0  0  0  0  0  0  0  0
   -4.2593    2.1947   -1.3152 H   0  0  0  0  0  0  0  0  0  0  0  0
   -4.0111    0.4363   -1.0093 H   0  0  0  0  0  0  0  0  0  0  0  0
   -3.0593    4.4914    3.3619 H   0  0  0  0  0  0  0  0  0  0  0  0
   -1.6936    4.9288    2.2544 H   0  0  0  0  0  0  0  0  0  0  0  0
   -1.3854    3.8688    3.6833 H   0  0  0  0  0  0  0  0  0  0  0  0
   -2.2783    1.3639    3.5286 H   0  0  0  0  0  0  0  0  0  0  0  0
   -4.3355   -2.4512   -0.2479 H   0  0  0  0  0  0  0  0  0  0  0  0
   -3.3727   -3.2973    1.0315 H   0  0  0  0  0  0  0  0  0  0  0  0
   -2.6303   -2.9595   -1.9563 H   0  0  0  0  0  0  0  0  0  0  0  0
   -2.9877   -4.4655   -1.0551 H   0  0  0  0  0  0  0  0  0  0  0  0
    0.6380   -3.5430    1.0082 H   0  0  0  0  0  0  0  0  0  0  0  0
   -0.4450   -2.3917    1.7821 H   0  0  0  0  0  0  0  0  0  0  0  0
    2.2162   -1.5779    0.3781 H   0  0  0  0  0  0  0  0  0  0  0  0
    2.1029   -2.1491    2.0083 H   0  0  0  0  0  0  0  0  0  0  0  0
    1.8721   -0.0604    2.7240 H   0  0  0  0  0  0  0  0  0  0  0  0
    0.1898   -0.1359    2.1733 H   0  0  0  0  0  0  0  0  0  0  0  0
    0.8787    0.9388   -0.0172 H   0  0  0  0  0  0  0  0  0  0  0  0
    1.2458    1.9200    1.3960 H   0  0  0  0  0  0  0  0  0  0  0  0
    3.6307    2.1272    2.2050 H   0  0  0  0  0  0  0  0  0  0  0  0
    5.9334    2.4859    1.3792 H   0  0  0  0  0  0  0  0  0  0  0  0
    6.5922    1.6692   -0.8669 H   0  0  0  0  0  0  0  0  0  0  0  0
    4.9753    0.4153   -2.2604 H   0  0  0  0  0  0  0  0  0  0  0  0
    2.2917    1.1437   -3.1492 H   0  0  0  0  0  0  0  0  0  0  0  0
    2.6396   -0.5748   -3.5937 H   0  0  0  0  0  0  0  0  0  0  0  0
    0.2582    0.1339   -4.0468 H   0  0  0  0  0  0  0  0  0  0  0  0
    0.0330    0.4905   -2.3019 H   0  0  0  0  0  0  0  0  0  0  0  0
   -0.0734   -2.1302   -3.6284 H   0  0  0  0  0  0  0  0  0  0  0  0
   -1.7432   -0.8215   -1.3884 H   0  0  0  0  0  0  0  0  0  0  0  0
   -0.8939   -0.2376    0.0548 H   0  0  0  0  0  0  0  0  0  0  0  0
  1  2  1  0
  2  3  2  0
  3  4  1  0
  4  5  1  0
  4  6  1  0
  6  7  2  0
  7  8  1  0
  8  9  2  0
  8 10  1  0
 10 11  1  0
 11 12  1  0
 12 13  1  0
 13 14  1  0
 14 15  1  0
 15 16  1  0
 16 17  1  0
 17 18  1  0
 18 19  1  0
 19 20  2  0
 20 21  1  0
 21 22  2  0
 22 23  1  0
 23 24  2  0
 24 25  1  0
 25 26  1  0
 26 27  1  0
 27 28  1  0
 28 29  1  0
 29 30  2  0
 14 31  1  0
  7  2  1  0
 31 10  1  0
 29 14  1  0
 24 19  1  0
  1 32  1  0
  1 33  1  0
  1 34  1  0
  5 35  1  0
  5 36  1  0
  5 37  1  0
  6 38  1  0
 11 39  1  0
 11 40  1  0
 12 41  1  0
 12 42  1  0
 15 43  1  0
 15 44  1  0
 16 45  1  0
 16 46  1  0
 17 47  1  0
 17 48  1  0
 18 49  1  0
 18 50  1  0
 20 51  1  0
 21 52  1  0
 22 53  1  0
 23 54  1  0
 26 55  1  0
 26 56  1  0
 27 57  1  0
 27 58  1  0
 28 59  1  0
 31 60  1  0
 31 61  1  0
M  END
$$$$
