
     RDKit          3D

 87 90  0  0  0  0  0  0  0  0999 V2000
   -4.5442   -3.1893   -2.8207 C   0  0  0  0  0  0  0  0  0  0  0  0
   -4.6905   -1.6614   -2.7104 C   0  0  0  0  0  0  0  0  0  0  0  0
   -6.0844   -1.2086   -3.1636 C   0  0  0  0  0  0  0  0  0  0  0  0
   -4.3217   -1.0812   -1.3731 N   0  0  0  0  0  0  0  0  0  0  0  0
   -4.6519   -1.9360   -0.1863 C   0  0  0  0  0  0  0  0  0  0  0  0
   -6.1002   -1.8333    0.2234 C   0  0  0  0  0  0  0  0  0  0  0  0
   -6.9631   -2.5686   -0.3220 O   0  0  0  0  0  0  0  0  0  0  0  0
   -6.4965   -0.9310    1.2707 N   0  0  0  0  0  0  0  0  0  0  0  0
   -7.5968    0.0209    1.0904 C   0  0  0  0  0  0  0  0  0  0  0  0
   -7.0595    1.4280    0.7540 C   0  0  0  0  0  0  0  0  0  0  0  0
   -5.9806    1.3355   -0.3242 C   0  0  0  0  0  0  0  0  0  0  0  0
   -5.4964    2.6660   -0.8917 C   0  0  0  0  0  0  0  0  0  0  0  0
   -4.4196    2.4083   -1.9680 C   0  0  0  0  0  0  0  0  0  0  0  0
   -3.0874    2.3730   -1.4540 O   0  0  0  0  0  0  0  0  0  0  0  0
   -2.6701    1.6969   -0.2975 C   0  0  0  0  0  0  0  0  0  0  0  0
   -2.3020    2.4830    0.8016 C   0  0  0  0  0  0  0  0  0  0  0  0
   -1.7836    1.9015    1.9565 C   0  0  0  0  0  0  0  0  0  0  0  0
   -1.5996    0.5162    2.0259 C   0  0  0  0  0  0  0  0  0  0  0  0
   -0.9991   -0.1170    3.2569 C   0  0  0  0  0  0  0  0  0  0  0  0
    0.4062   -0.6780    2.9868 C   0  0  0  0  0  0  0  0  0  0  0  0
    1.3977    0.3866    2.5759 C   0  0  0  0  0  0  0  0  0  0  0  0
    1.3514    1.5136    3.1422 O   0  0  0  0  0  0  0  0  0  0  0  0
    2.4131    0.1384    1.5786 N   0  0  0  0  0  0  0  0  0  0  0  0
    2.8165   -1.2330    1.2249 C   0  0  0  0  0  0  0  0  0  0  0  0
    4.3358   -1.3489    0.9985 C   0  0  0  0  0  0  0  0  0  0  0  0
    4.9966   -0.0716    0.4134 C   0  0  0  0  0  0  0  0  0  0  0  0
    6.1176   -0.4209   -0.5786 C   0  0  0  0  0  0  0  0  0  0  0  0
    7.0893   -1.2195    0.0699 O   0  0  0  0  0  0  0  0  0  0  0  0
    8.1847   -1.4632   -0.7923 C   0  0  0  0  0  0  0  0  0  0  0  0
    9.1704   -0.3253   -0.7315 C   0  0  0  0  0  0  0  0  0  0  0  0
    9.5600    0.3497   -1.9016 C   0  0  0  0  0  0  0  0  0  0  0  0
   10.4767    1.4037   -1.8348 C   0  0  0  0  0  0  0  0  0  0  0  0
   11.0080    1.7932   -0.6000 C   0  0  0  0  0  0  0  0  0  0  0  0
   10.6245    1.1273    0.5667 C   0  0  0  0  0  0  0  0  0  0  0  0
    9.7126    0.0699    0.5036 C   0  0  0  0  0  0  0  0  0  0  0  0
    3.9593    0.8546   -0.2397 C   0  0  0  0  0  0  0  0  0  0  0  0
    2.9206    1.2817    0.8049 C   0  0  0  0  0  0  0  0  0  0  0  0
   -1.9574   -0.2793    0.9285 C   0  0  0  0  0  0  0  0  0  0  0  0
   -2.5316    0.2829   -0.2275 C   0  0  0  0  0  0  0  0  0  0  0  0
   -2.8930   -0.6465   -1.3761 C   0  0  0  0  0  0  0  0  0  0  0  0
   -4.6442   -3.5035   -3.8807 H   0  0  0  0  0  0  0  0  0  0  0  0
   -3.5408   -3.5075   -2.4698 H   0  0  0  0  0  0  0  0  0  0  0  0
   -5.3337   -3.7105   -2.2431 H   0  0  0  0  0  0  0  0  0  0  0  0
   -4.0187   -1.2581   -3.5034 H   0  0  0  0  0  0  0  0  0  0  0  0
   -6.8758   -1.4928   -2.4500 H   0  0  0  0  0  0  0  0  0  0  0  0
   -6.1077   -0.1104   -3.3033 H   0  0  0  0  0  0  0  0  0  0  0  0
   -6.3320   -1.6632   -4.1471 H   0  0  0  0  0  0  0  0  0  0  0  0
   -4.3559   -2.9953   -0.3177 H   0  0  0  0  0  0  0  0  0  0  0  0
   -4.0842   -1.6161    0.7010 H   0  0  0  0  0  0  0  0  0  0  0  0
   -5.8259   -0.7458    2.0508 H   0  0  0  0  0  0  0  0  0  0  0  0
   -8.1953    0.0707    2.0255 H   0  0  0  0  0  0  0  0  0  0  0  0
   -8.2730   -0.3204    0.2743 H   0  0  0  0  0  0  0  0  0  0  0  0
   -6.6255    1.8870    1.6691 H   0  0  0  0  0  0  0  0  0  0  0  0
   -7.8996    2.0645    0.4030 H   0  0  0  0  0  0  0  0  0  0  0  0
   -6.3809    0.7200   -1.1564 H   0  0  0  0  0  0  0  0  0  0  0  0
   -5.1118    0.8328    0.1325 H   0  0  0  0  0  0  0  0  0  0  0  0
   -6.3601    3.1829   -1.3647 H   0  0  0  0  0  0  0  0  0  0  0  0
   -5.0989    3.3201   -0.0839 H   0  0  0  0  0  0  0  0  0  0  0  0
   -4.6188    1.4781   -2.5329 H   0  0  0  0  0  0  0  0  0  0  0  0
   -4.4679    3.2322   -2.7093 H   0  0  0  0  0  0  0  0  0  0  0  0
   -2.4100    3.5604    0.7531 H   0  0  0  0  0  0  0  0  0  0  0  0
   -1.5046    2.5373    2.7871 H   0  0  0  0  0  0  0  0  0  0  0  0
   -0.9581    0.6078    4.1007 H   0  0  0  0  0  0  0  0  0  0  0  0
   -1.6599   -0.9491    3.5851 H   0  0  0  0  0  0  0  0  0  0  0  0
    0.7799   -1.1729    3.9089 H   0  0  0  0  0  0  0  0  0  0  0  0
    0.3243   -1.4557    2.1974 H   0  0  0  0  0  0  0  0  0  0  0  0
    2.2800   -1.5340    0.2982 H   0  0  0  0  0  0  0  0  0  0  0  0
    2.5432   -1.9510    2.0284 H   0  0  0  0  0  0  0  0  0  0  0  0
    4.8264   -1.5830    1.9701 H   0  0  0  0  0  0  0  0  0  0  0  0
    4.5096   -2.2236    0.3322 H   0  0  0  0  0  0  0  0  0  0  0  0
    5.4626    0.4940    1.2540 H   0  0  0  0  0  0  0  0  0  0  0  0
    5.6804   -0.9701   -1.4447 H   0  0  0  0  0  0  0  0  0  0  0  0
    6.5725    0.5296   -0.9446 H   0  0  0  0  0  0  0  0  0  0  0  0
    7.8627   -1.6793   -1.8396 H   0  0  0  0  0  0  0  0  0  0  0  0
    8.7026   -2.3798   -0.4387 H   0  0  0  0  0  0  0  0  0  0  0  0
    9.1567    0.0593   -2.8633 H   0  0  0  0  0  0  0  0  0  0  0  0
   10.7755    1.9198   -2.7383 H   0  0  0  0  0  0  0  0  0  0  0  0
   11.7165    2.6097   -0.5502 H   0  0  0  0  0  0  0  0  0  0  0  0
   11.0360    1.4313    1.5206 H   0  0  0  0  0  0  0  0  0  0  0  0
    9.4271   -0.4372    1.4180 H   0  0  0  0  0  0  0  0  0  0  0  0
    4.4582    1.7649   -0.6421 H   0  0  0  0  0  0  0  0  0  0  0  0
    3.4538    0.3330   -1.0844 H   0  0  0  0  0  0  0  0  0  0  0  0
    3.3980    2.0079    1.5000 H   0  0  0  0  0  0  0  0  0  0  0  0
    2.0754    1.7886    0.2909 H   0  0  0  0  0  0  0  0  0  0  0  0
   -1.7919   -1.3493    0.9795 H   0  0  0  0  0  0  0  0  0  0  0  0
   -2.2320   -1.5423   -1.3652 H   0  0  0  0  0  0  0  0  0  0  0  0
   -2.6459   -0.0992   -2.3124 H   0  0  0  0  0  0  0  0  0  0  0  0
  1  2  1  0
  2  3  1  0
  2  4  1  0
  4  5  1  0
  5  6  1  0
  6  7  2  0
  6  8  1  0
  8  9  1  0
  9 10  1  0
 10 11  1  0
 11 12  1  0
 12 13  1  0
 13 14  1  0
 14 15  1  0
 15 16  2  0
 16 17  1  0
 17 18  2  0
 18 19  1  0
 19 20  1  0
 20 21  1  0
 21 22  2  0
 21 23  1  0
 23 24  1  0
 24 25  1  0
 25 26  1  0
 26 27  1  0
 27 28  1  0
 28 29  1  0
 29 30  1  0
 30 31  2  0
 31 32  1  0
 32 33  2  0
 33 34  1  0
 34 35  2  0
 26 36  1  0
 36 37  1  0
 18 38  1  0
 38 39  2  0
 39 40  1  0
 40  4  1  0
 39 15  1  0
 37 23  1  0
 35 30  1  0
  1 41  1  0
  1 42  1  0
  1 43  1  0
  2 44  1  0
  3 45  1  0
  3 46  1  0
  3 47  1  0
  5 48  1  0
  5 49  1  0
  8 50  1  0
  9 51  1  0
  9 52  1  0
 10 53  1  0
 10 54  1  0
 11 55  1  0
 11 56  1  0
 12 57  1  0
 12 58  1  0
 13 59  1  0
 13 60  1  0
 16 61  1  0
 17 62  1  0
 19 63  1  0
 19 64  1  0
 20 65  1  0
 20 66  1  0
 24 67  1  0
 24 68  1  0
 25 69  1  0
 25 70  1  0
 26 71  1  0
 27 72  1  0
 27 73  1  0
 29 74  1  0
 29 75  1  0
 31 76  1  0
 32 77  1  0
 33 78  1  0
 34 79  1  0
 35 80  1  0
 36 81  1  0
 36 82  1  0
 37 83  1  0
 37 84  1  0
 38 85  1  0
 40 86  1  0
 40 87  1  0
M  END
$$$$
