
     RDKit          3D

 92 97  0  0  0  0  0  0  0  0999 V2000
   -5.1964    2.4539    1.8337 C   0  0  0  0  0  0  0  0  0  0  0  0
   -4.8829    1.2098    1.1239 N   0  0  0  0  0  0  0  0  0  0  0  0
   -4.9671   -0.0036    1.8991 C   0  0  0  0  0  0  0  0  0  0  0  0
   -6.0384   -0.2598    2.5157 O   0  0  0  0  0  0  0  0  0  0  0  0
   -3.7630   -0.8985    2.0929 C   0  0  0  0  0  0  0  0  0  0  0  0
   -3.9681   -2.1445    2.9541 C   0  0  0  0  0  0  0  0  0  0  0  0
   -3.7942   -2.2804    1.4487 C   0  0  0  0  0  0  0  0  0  0  0  0
   -2.4670   -0.2312    2.2982 N   0  0  0  0  0  0  0  0  0  0  0  0
   -1.1712   -0.8126    2.0820 C   0  0  0  0  0  0  0  0  0  0  0  0
   -0.9113   -1.9789    2.4837 O   0  0  0  0  0  0  0  0  0  0  0  0
   -0.1131   -0.0272    1.3747 C   0  0  0  0  0  0  0  0  0  0  0  0
    0.1475   -0.6303   -0.0141 C   0  0  0  0  0  0  0  0  0  0  0  0
    0.9212    0.2760   -1.0027 C   0  0  0  0  0  0  0  0  0  0  0  0
    1.9998    1.1368   -0.3782 C   0  0  0  0  0  0  0  0  0  0  0  0
    2.0342    2.3804   -0.6152 O   0  0  0  0  0  0  0  0  0  0  0  0
    3.0356    0.5341    0.4137 N   0  0  0  0  0  0  0  0  0  0  0  0
    4.1608    1.3221    0.9175 C   0  0  0  0  0  0  0  0  0  0  0  0
    5.0461    0.4888    1.8028 C   0  0  0  0  0  0  0  0  0  0  0  0
    5.0698    0.7019    3.1916 C   0  0  0  0  0  0  0  0  0  0  0  0
    5.8888   -0.0781    4.0082 C   0  0  0  0  0  0  0  0  0  0  0  0
    6.6829   -1.0828    3.4534 C   0  0  0  0  0  0  0  0  0  0  0  0
    6.6635   -1.3152    2.0689 C   0  0  0  0  0  0  0  0  0  0  0  0
    7.5096   -2.4055    1.4644 C   0  0  0  0  0  0  0  0  0  0  0  0
    8.4597   -1.8487    0.5063 N   0  0  0  0  0  0  0  0  0  0  0  0
    8.5171   -2.2035   -0.9018 C   0  0  0  0  0  0  0  0  0  0  0  0
    9.6649   -1.3721   -1.5072 C   0  0  0  0  0  0  0  0  0  0  0  0
   10.3386   -0.6108   -0.3526 C   0  0  0  0  0  0  0  0  0  0  0  0
    9.5134   -0.9601    0.8192 C   0  0  0  0  0  0  0  0  0  0  0  0
    9.7259   -0.5229    1.9807 O   0  0  0  0  0  0  0  0  0  0  0  0
    5.8448   -0.5225    1.2465 C   0  0  0  0  0  0  0  0  0  0  0  0
    0.0027    1.0379   -1.8686 N   0  0  0  0  0  0  0  0  0  0  0  0
   -0.8423    2.1301   -1.4673 C   0  0  0  0  0  0  0  0  0  0  0  0
   -0.6832    2.7103   -0.3591 O   0  0  0  0  0  0  0  0  0  0  0  0
   -1.8635    2.6324   -2.3996 C   0  0  0  0  0  0  0  0  0  0  0  0
   -1.6948    3.9101   -2.9555 C   0  0  0  0  0  0  0  0  0  0  0  0
   -2.5546    4.3606   -3.9625 C   0  0  0  0  0  0  0  0  0  0  0  0
   -3.5781    3.5378   -4.4280 C   0  0  0  0  0  0  0  0  0  0  0  0
   -3.7702    2.2753   -3.8656 C   0  0  0  0  0  0  0  0  0  0  0  0
   -2.9485    1.8273   -2.8228 C   0  0  0  0  0  0  0  0  0  0  0  0
   -3.2528    0.5926   -2.2289 O   0  0  0  0  0  0  0  0  0  0  0  0
   -3.4981    0.4115   -0.8294 C   0  0  0  0  0  0  0  0  0  0  0  0
   -4.7115    1.2345   -0.3485 C   0  0  0  0  0  0  0  0  0  0  0  0
   -6.0304    0.9086   -1.0865 C   0  0  0  0  0  0  0  0  0  0  0  0
   -6.5333   -0.5022   -0.9068 C   0  0  0  0  0  0  0  0  0  0  0  0
   -7.5486   -0.7810    0.0252 C   0  0  0  0  0  0  0  0  0  0  0  0
   -8.0286   -2.0838    0.1747 C   0  0  0  0  0  0  0  0  0  0  0  0
   -7.5146   -3.1150   -0.6180 C   0  0  0  0  0  0  0  0  0  0  0  0
   -6.5254   -2.8432   -1.5682 C   0  0  0  0  0  0  0  0  0  0  0  0
   -6.0398   -1.5425   -1.7160 C   0  0  0  0  0  0  0  0  0  0  0  0
   -5.0730    3.3461    1.1828 H   0  0  0  0  0  0  0  0  0  0  0  0
   -6.2499    2.4333    2.1812 H   0  0  0  0  0  0  0  0  0  0  0  0
   -4.5195    2.5686    2.7056 H   0  0  0  0  0  0  0  0  0  0  0  0
   -5.0004   -2.3925    3.2771 H   0  0  0  0  0  0  0  0  0  0  0  0
   -3.0913   -2.5041    3.5296 H   0  0  0  0  0  0  0  0  0  0  0  0
   -4.7351   -2.5216    0.9121 H   0  0  0  0  0  0  0  0  0  0  0  0
   -2.8263   -2.7089    1.1252 H   0  0  0  0  0  0  0  0  0  0  0  0
   -2.4904    0.7842    2.5430 H   0  0  0  0  0  0  0  0  0  0  0  0
    0.8185   -0.0483    1.9825 H   0  0  0  0  0  0  0  0  0  0  0  0
   -0.4363    1.0273    1.2928 H   0  0  0  0  0  0  0  0  0  0  0  0
    0.7261   -1.5725    0.1320 H   0  0  0  0  0  0  0  0  0  0  0  0
   -0.8146   -0.9311   -0.4850 H   0  0  0  0  0  0  0  0  0  0  0  0
    1.4686   -0.4268   -1.6705 H   0  0  0  0  0  0  0  0  0  0  0  0
    2.9946   -0.4932    0.6145 H   0  0  0  0  0  0  0  0  0  0  0  0
    4.7531    1.7030    0.0582 H   0  0  0  0  0  0  0  0  0  0  0  0
    3.7683    2.1984    1.4763 H   0  0  0  0  0  0  0  0  0  0  0  0
    4.4555    1.4698    3.6436 H   0  0  0  0  0  0  0  0  0  0  0  0
    5.9113    0.0939    5.0778 H   0  0  0  0  0  0  0  0  0  0  0  0
    7.3125   -1.6808    4.1009 H   0  0  0  0  0  0  0  0  0  0  0  0
    6.8417   -3.1321    0.9544 H   0  0  0  0  0  0  0  0  0  0  0  0
    8.0688   -2.9665    2.2473 H   0  0  0  0  0  0  0  0  0  0  0  0
    7.5537   -1.9589   -1.3946 H   0  0  0  0  0  0  0  0  0  0  0  0
    8.7232   -3.2926   -1.0088 H   0  0  0  0  0  0  0  0  0  0  0  0
    9.2612   -0.6509   -2.2556 H   0  0  0  0  0  0  0  0  0  0  0  0
   10.4010   -2.0348   -2.0109 H   0  0  0  0  0  0  0  0  0  0  0  0
   10.3130    0.4867   -0.5316 H   0  0  0  0  0  0  0  0  0  0  0  0
   11.3820   -0.9585   -0.2025 H   0  0  0  0  0  0  0  0  0  0  0  0
    5.8296   -0.6981    0.1776 H   0  0  0  0  0  0  0  0  0  0  0  0
   -0.0309    0.7599   -2.8742 H   0  0  0  0  0  0  0  0  0  0  0  0
   -0.8770    4.5449   -2.6344 H   0  0  0  0  0  0  0  0  0  0  0  0
   -2.4158    5.3422   -4.3939 H   0  0  0  0  0  0  0  0  0  0  0  0
   -4.2291    3.8802   -5.2217 H   0  0  0  0  0  0  0  0  0  0  0  0
   -4.5824    1.6501   -4.2176 H   0  0  0  0  0  0  0  0  0  0  0  0
   -2.6101    0.7080   -0.2423 H   0  0  0  0  0  0  0  0  0  0  0  0
   -3.6709   -0.6640   -0.6539 H   0  0  0  0  0  0  0  0  0  0  0  0
   -4.4723    2.2780   -0.6458 H   0  0  0  0  0  0  0  0  0  0  0  0
   -6.8101    1.6312   -0.7528 H   0  0  0  0  0  0  0  0  0  0  0  0
   -5.8977    1.0950   -2.1702 H   0  0  0  0  0  0  0  0  0  0  0  0
   -7.9628    0.0096    0.6388 H   0  0  0  0  0  0  0  0  0  0  0  0
   -8.8084   -2.2919    0.8972 H   0  0  0  0  0  0  0  0  0  0  0  0
   -7.8863   -4.1229   -0.4983 H   0  0  0  0  0  0  0  0  0  0  0  0
   -6.1368   -3.6373   -2.1906 H   0  0  0  0  0  0  0  0  0  0  0  0
   -5.2910   -1.3378   -2.4701 H   0  0  0  0  0  0  0  0  0  0  0  0
  1  2  1  0
  2  3  1  0
  3  4  2  0
  3  5  1  0
  5  6  1  0
  6  7  1  0
  5  8  1  0
  8  9  1  0
  9 10  2  0
  9 11  1  0
 11 12  1  0
 12 13  1  0
 13 14  1  0
 14 15  2  0
 14 16  1  0
 16 17  1  0
 17 18  1  0
 18 19  2  0
 19 20  1  0
 20 21  2  0
 21 22  1  0
 22 23  1  0
 23 24  1  0
 24 25  1  0
 25 26  1  0
 26 27  1  0
 27 28  1  0
 28 29  2  0
 22 30  2  0
 13 31  1  0
 31 32  1  0
 32 33  2  0
 32 34  1  0
 34 35  2  0
 35 36  1  0
 36 37  2  0
 37 38  1  0
 38 39  2  0
 39 40  1  0
 40 41  1  0
 41 42  1  0
 42 43  1  0
 43 44  1  0
 44 45  2  0
 45 46  1  0
 46 47  2  0
 47 48  1  0
 48 49  2  0
 42  2  1  0
 49 44  1  0
  7  5  1  0
 30 18  1  0
 39 34  1  0
 28 24  1  0
  1 50  1  0
  1 51  1  0
  1 52  1  0
  6 53  1  0
  6 54  1  0
  7 55  1  0
  7 56  1  0
  8 57  1  0
 11 58  1  0
 11 59  1  0
 12 60  1  0
 12 61  1  0
 13 62  1  0
 16 63  1  0
 17 64  1  0
 17 65  1  0
 19 66  1  0
 20 67  1  0
 21 68  1  0
 23 69  1  0
 23 70  1  0
 25 71  1  0
 25 72  1  0
 26 73  1  0
 26 74  1  0
 27 75  1  0
 27 76  1  0
 30 77  1  0
 31 78  1  0
 35 79  1  0
 36 80  1  0
 37 81  1  0
 38 82  1  0
 41 83  1  0
 41 84  1  0
 42 85  1  0
 43 86  1  0
 43 87  1  0
 45 88  1  0
 46 89  1  0
 47 90  1  0
 48 91  1  0
 49 92  1  0
M  END
$$$$
