
     RDKit          3D

 66 69  0  0  0  0  0  0  0  0999 V2000
   -4.3165   -1.1954    1.0598 C   0  0  0  0  0  0  0  0  0  0  0  0
   -4.3016    0.2786    0.6613 C   0  0  0  0  0  0  0  0  0  0  0  0
   -3.0283    0.6563    0.0310 N   0  0  0  0  0  0  0  0  0  0  0  0
   -2.0940    1.5460    0.7354 C   0  0  0  0  0  0  0  0  0  0  0  0
   -1.4662    0.7978    1.9209 C   0  0  0  0  0  0  0  0  0  0  0  0
   -0.1805    1.4137    2.5171 C   0  0  0  0  0  0  0  0  0  0  0  0
    0.8245    2.0927    1.5557 C   0  0  0  0  0  0  0  0  0  0  0  0
    1.3320    1.3032    0.4045 N   0  0  0  0  0  0  0  0  0  0  0  0
    1.9651    2.0374   -0.6771 C   0  0  0  0  0  0  0  0  0  0  0  0
    2.0928    1.5121   -1.8164 O   0  0  0  0  0  0  0  0  0  0  0  0
    2.4695    3.4113   -0.4880 C   0  0  0  0  0  0  0  0  0  0  0  0
    3.5115    3.6435    0.4235 C   0  0  0  0  0  0  0  0  0  0  0  0
    4.0133    4.9346    0.6070 C   0  0  0  0  0  0  0  0  0  0  0  0
    3.4809    6.0019   -0.1197 C   0  0  0  0  0  0  0  0  0  0  0  0
    2.4441    5.7806   -1.0301 C   0  0  0  0  0  0  0  0  0  0  0  0
    1.9347    4.4904   -1.2210 C   0  0  0  0  0  0  0  0  0  0  0  0
    0.4772    4.2540   -2.4463 Br  0  0  0  0  0  0  0  0  0  0  0  0
    1.2302   -0.1739    0.3156 C   0  0  0  0  0  0  0  0  0  0  0  0
    2.6342   -0.8138    0.2159 C   0  0  0  0  0  0  0  0  0  0  0  0
    2.5740   -2.3091    0.4141 C   0  0  0  0  0  0  0  0  0  0  0  0
    2.5783   -3.1783   -0.6906 C   0  0  0  0  0  0  0  0  0  0  0  0
    2.4719   -4.5596   -0.5008 C   0  0  0  0  0  0  0  0  0  0  0  0
    2.3592   -5.0828    0.7900 C   0  0  0  0  0  0  0  0  0  0  0  0
    2.3509   -4.2254    1.8936 C   0  0  0  0  0  0  0  0  0  0  0  0
    2.4555   -2.8436    1.7084 C   0  0  0  0  0  0  0  0  0  0  0  0
    0.3082   -0.5795   -0.8649 C   0  0  0  0  0  0  0  0  0  0  0  0
   -0.6896   -1.5033   -0.4366 O   0  0  0  0  0  0  0  0  0  0  0  0
   -1.7068   -1.9405   -1.2910 C   0  0  0  0  0  0  0  0  0  0  0  0
   -1.7291   -3.2916   -1.6573 C   0  0  0  0  0  0  0  0  0  0  0  0
   -2.6785   -3.7622   -2.5670 C   0  0  0  0  0  0  0  0  0  0  0  0
   -3.6172   -2.8858   -3.1144 C   0  0  0  0  0  0  0  0  0  0  0  0
   -3.6244   -1.5408   -2.7362 C   0  0  0  0  0  0  0  0  0  0  0  0
   -2.6905   -1.0600   -1.8050 C   0  0  0  0  0  0  0  0  0  0  0  0
   -2.7987    0.3395   -1.3522 C   0  0  0  0  0  0  0  0  0  0  0  0
   -2.7044    1.2705   -2.1964 O   0  0  0  0  0  0  0  0  0  0  0  0
   -4.3666   -1.8447    0.1633 H   0  0  0  0  0  0  0  0  0  0  0  0
   -3.4129   -1.4506    1.6508 H   0  0  0  0  0  0  0  0  0  0  0  0
   -5.2137   -1.4002    1.6803 H   0  0  0  0  0  0  0  0  0  0  0  0
   -4.4739    0.8892    1.5744 H   0  0  0  0  0  0  0  0  0  0  0  0
   -5.1430    0.4851   -0.0358 H   0  0  0  0  0  0  0  0  0  0  0  0
   -2.6297    2.4493    1.0987 H   0  0  0  0  0  0  0  0  0  0  0  0
   -1.3138    1.8941    0.0303 H   0  0  0  0  0  0  0  0  0  0  0  0
   -1.2812   -0.2531    1.6390 H   0  0  0  0  0  0  0  0  0  0  0  0
   -2.2222    0.7386    2.7338 H   0  0  0  0  0  0  0  0  0  0  0  0
    0.3478    0.6403    3.1157 H   0  0  0  0  0  0  0  0  0  0  0  0
   -0.4948    2.1896    3.2494 H   0  0  0  0  0  0  0  0  0  0  0  0
    0.3438    3.0228    1.1802 H   0  0  0  0  0  0  0  0  0  0  0  0
    1.6937    2.4170    2.1666 H   0  0  0  0  0  0  0  0  0  0  0  0
    3.9394    2.8223    0.9862 H   0  0  0  0  0  0  0  0  0  0  0  0
    4.8169    5.1078    1.3108 H   0  0  0  0  0  0  0  0  0  0  0  0
    3.8710    7.0013    0.0238 H   0  0  0  0  0  0  0  0  0  0  0  0
    2.0326    6.6142   -1.5845 H   0  0  0  0  0  0  0  0  0  0  0  0
    0.8106   -0.5767    1.2521 H   0  0  0  0  0  0  0  0  0  0  0  0
    3.2886   -0.3743    1.0007 H   0  0  0  0  0  0  0  0  0  0  0  0
    3.1088   -0.5789   -0.7604 H   0  0  0  0  0  0  0  0  0  0  0  0
    2.6600   -2.7881   -1.6972 H   0  0  0  0  0  0  0  0  0  0  0  0
    2.4738   -5.2246   -1.3550 H   0  0  0  0  0  0  0  0  0  0  0  0
    2.2750   -6.1520    0.9352 H   0  0  0  0  0  0  0  0  0  0  0  0
    2.2588   -4.6314    2.8927 H   0  0  0  0  0  0  0  0  0  0  0  0
    2.4370   -2.1893    2.5713 H   0  0  0  0  0  0  0  0  0  0  0  0
    0.8906   -1.0340   -1.6945 H   0  0  0  0  0  0  0  0  0  0  0  0
   -0.1812    0.3175   -1.2908 H   0  0  0  0  0  0  0  0  0  0  0  0
   -0.9885   -3.9722   -1.2561 H   0  0  0  0  0  0  0  0  0  0  0  0
   -2.6803   -4.8054   -2.8556 H   0  0  0  0  0  0  0  0  0  0  0  0
   -4.3492   -3.2520   -3.8226 H   0  0  0  0  0  0  0  0  0  0  0  0
   -4.3790   -0.8801   -3.1462 H   0  0  0  0  0  0  0  0  0  0  0  0
  1  2  1  0
  2  3  1  0
  3  4  1  0
  4  5  1  0
  5  6  1  0
  6  7  1  0
  7  8  1  0
  8  9  1  0
  9 10  2  0
  9 11  1  0
 11 12  2  0
 12 13  1  0
 13 14  2  0
 14 15  1  0
 15 16  2  0
 16 17  1  0
  8 18  1  0
 18 19  1  0
 19 20  1  0
 20 21  2  0
 21 22  1  0
 22 23  2  0
 23 24  1  0
 24 25  2  0
 18 26  1  0
 26 27  1  0
 27 28  1  0
 28 29  2  0
 29 30  1  0
 30 31  2  0
 31 32  1  0
 32 33  2  0
 33 34  1  0
 34 35  2  0
 34  3  1  0
 16 11  1  0
 25 20  1  0
 33 28  1  0
  1 36  1  0
  1 37  1  0
  1 38  1  0
  2 39  1  0
  2 40  1  0
  4 41  1  0
  4 42  1  0
  5 43  1  0
  5 44  1  0
  6 45  1  0
  6 46  1  0
  7 47  1  0
  7 48  1  0
 12 49  1  0
 13 50  1  0
 14 51  1  0
 15 52  1  0
 18 53  1  0
 19 54  1  0
 19 55  1  0
 21 56  1  0
 22 57  1  0
 23 58  1  0
 24 59  1  0
 25 60  1  0
 26 61  1  0
 26 62  1  0
 29 63  1  0
 30 64  1  0
 31 65  1  0
 32 66  1  0
M  END
$$$$
