
     RDKit          3D

 63 67  0  0  0  0  0  0  0  0999 V2000
   -4.3946    1.4412    2.1366 O   0  0  0  0  0  0  0  0  0  0  0  0
   -3.7820    1.3037    1.0441 C   0  0  0  0  0  0  0  0  0  0  0  0
   -2.3743    0.9629    1.0606 N   0  0  0  0  0  0  0  0  0  0  0  0
   -1.5438    0.7977   -0.1466 C   0  0  0  0  0  0  0  0  0  0  0  0
   -0.4811   -0.3881   -0.1223 C   0  0  0  0  0  0  0  0  0  0  0  0
   -1.0841   -1.7884   -0.5864 C   0  0  0  0  0  0  0  0  0  0  0  0
   -1.7103   -2.7791    0.4549 C   0  0  0  0  0  0  0  0  0  0  0  0
   -3.2491   -2.8990    0.3861 C   0  0  0  0  0  0  0  0  0  0  0  0
   -3.8383   -1.5477    0.7185 C   0  0  0  0  0  0  0  0  0  0  0  0
   -5.3558   -1.3956    0.7905 C   0  0  0  0  0  0  0  0  0  0  0  0
   -5.8643   -0.6305   -0.3077 O   0  0  0  0  0  0  0  0  0  0  0  0
   -5.4990    0.6572   -0.7775 C   0  0  0  0  0  0  0  0  0  0  0  0
   -6.1595    1.0594   -1.9487 C   0  0  0  0  0  0  0  0  0  0  0  0
   -5.8623    2.2680   -2.5761 C   0  0  0  0  0  0  0  0  0  0  0  0
   -4.8937    3.1132   -2.0413 C   0  0  0  0  0  0  0  0  0  0  0  0
   -4.5185    4.6319   -2.8359 Cl  0  0  0  0  0  0  0  0  0  0  0  0
   -4.2301    2.7541   -0.8684 C   0  0  0  0  0  0  0  0  0  0  0  0
   -4.5182    1.5432   -0.2138 C   0  0  0  0  0  0  0  0  0  0  0  0
    0.2005   -0.5333    1.2789 C   0  0  0  0  0  0  0  0  0  0  0  0
    1.2619    0.5421    1.5309 C   0  0  0  0  0  0  0  0  0  0  0  0
    2.3000    0.4874    0.4952 N   0  0  0  0  0  0  0  0  0  0  0  0
    3.5219    1.2203    0.6839 C   0  0  0  0  0  0  0  0  0  0  0  0
    3.4735    2.3931    1.1478 O   0  0  0  0  0  0  0  0  0  0  0  0
    4.8362    0.6121    0.3844 C   0  0  0  0  0  0  0  0  0  0  0  0
    5.0290   -0.7868    0.5235 C   0  0  0  0  0  0  0  0  0  0  0  0
    6.2922   -1.3622    0.2969 C   0  0  0  0  0  0  0  0  0  0  0  0
    7.3363   -0.5176   -0.0605 C   0  0  0  0  0  0  0  0  0  0  0  0
    7.1624    0.8193   -0.1947 C   0  0  0  0  0  0  0  0  0  0  0  0
    5.9303    1.4305    0.0218 C   0  0  0  0  0  0  0  0  0  0  0  0
    8.3656    1.4057   -0.5410 O   0  0  0  0  0  0  0  0  0  0  0  0
    9.3577    0.3736   -0.6178 C   0  0  0  0  0  0  0  0  0  0  0  0
    8.6564   -0.8393   -0.3118 O   0  0  0  0  0  0  0  0  0  0  0  0
    2.0555   -0.2591   -0.7459 C   0  0  0  0  0  0  0  0  0  0  0  0
    0.6157   -0.0080   -1.2084 C   0  0  0  0  0  0  0  0  0  0  0  0
   -1.8915    1.1095    1.9728 H   0  0  0  0  0  0  0  0  0  0  0  0
   -1.0243    1.7715   -0.2690 H   0  0  0  0  0  0  0  0  0  0  0  0
   -2.1757    0.6904   -1.0530 H   0  0  0  0  0  0  0  0  0  0  0  0
   -1.7792   -1.6343   -1.4401 H   0  0  0  0  0  0  0  0  0  0  0  0
   -0.2459   -2.3717   -1.0304 H   0  0  0  0  0  0  0  0  0  0  0  0
   -1.4129   -2.5456    1.4956 H   0  0  0  0  0  0  0  0  0  0  0  0
   -1.3067   -3.7977    0.2585 H   0  0  0  0  0  0  0  0  0  0  0  0
   -3.5933   -3.6531    1.1268 H   0  0  0  0  0  0  0  0  0  0  0  0
   -3.5682   -3.2214   -0.6301 H   0  0  0  0  0  0  0  0  0  0  0  0
   -3.4151   -1.2320    1.6979 H   0  0  0  0  0  0  0  0  0  0  0  0
   -3.5012   -0.9159   -0.1100 H   0  0  0  0  0  0  0  0  0  0  0  0
   -5.6517   -0.9010    1.7406 H   0  0  0  0  0  0  0  0  0  0  0  0
   -5.8375   -2.3942    0.7754 H   0  0  0  0  0  0  0  0  0  0  0  0
   -6.9028    0.4087   -2.3927 H   0  0  0  0  0  0  0  0  0  0  0  0
   -6.3822    2.5424   -3.4849 H   0  0  0  0  0  0  0  0  0  0  0  0
   -3.4878    3.4308   -0.4581 H   0  0  0  0  0  0  0  0  0  0  0  0
    0.7199   -1.5165    1.3332 H   0  0  0  0  0  0  0  0  0  0  0  0
   -0.5270   -0.5431    2.1128 H   0  0  0  0  0  0  0  0  0  0  0  0
    1.7215    0.3577    2.5264 H   0  0  0  0  0  0  0  0  0  0  0  0
    0.7935    1.5496    1.5425 H   0  0  0  0  0  0  0  0  0  0  0  0
    4.2142   -1.4258    0.8372 H   0  0  0  0  0  0  0  0  0  0  0  0
    6.4534   -2.4236    0.4188 H   0  0  0  0  0  0  0  0  0  0  0  0
    5.8263    2.5020   -0.0851 H   0  0  0  0  0  0  0  0  0  0  0  0
    9.7847    0.3257   -1.6435 H   0  0  0  0  0  0  0  0  0  0  0  0
   10.1557    0.5542    0.1339 H   0  0  0  0  0  0  0  0  0  0  0  0
    2.7547    0.0716   -1.5458 H   0  0  0  0  0  0  0  0  0  0  0  0
    2.2154   -1.3448   -0.5746 H   0  0  0  0  0  0  0  0  0  0  0  0
    0.4520   -0.5414   -2.1713 H   0  0  0  0  0  0  0  0  0  0  0  0
    0.5760    1.0659   -1.4914 H   0  0  0  0  0  0  0  0  0  0  0  0
  1  2  2  0
  2  3  1  0
  3  4  1  0
  4  5  1  0
  5  6  1  0
  6  7  1  0
  7  8  1  0
  8  9  1  0
  9 10  1  0
 10 11  1  0
 11 12  1  0
 12 13  2  0
 13 14  1  0
 14 15  2  0
 15 16  1  0
 15 17  1  0
 17 18  2  0
  5 19  1  0
 19 20  1  0
 20 21  1  0
 21 22  1  0
 22 23  2  0
 22 24  1  0
 24 25  2  0
 25 26  1  0
 26 27  2  0
 27 28  1  0
 28 29  2  0
 28 30  1  0
 30 31  1  0
 31 32  1  0
 21 33  1  0
 33 34  1  0
 18  2  1  0
 29 24  1  0
 34  5  1  0
 18 12  1  0
 32 27  1  0
  3 35  1  0
  4 36  1  0
  4 37  1  0
  6 38  1  0
  6 39  1  0
  7 40  1  0
  7 41  1  0
  8 42  1  0
  8 43  1  0
  9 44  1  0
  9 45  1  0
 10 46  1  0
 10 47  1  0
 13 48  1  0
 14 49  1  0
 17 50  1  0
 19 51  1  0
 19 52  1  0
 20 53  1  0
 20 54  1  0
 25 55  1  0
 26 56  1  0
 29 57  1  0
 31 58  1  0
 31 59  1  0
 33 60  1  0
 33 61  1  0
 34 62  1  0
 34 63  1  0
M  END
$$$$
