
     RDKit          3D

 65 67  0  0  0  0  0  0  0  0999 V2000
    3.1380   -2.4634    1.8854 C   0  0  0  0  0  0  0  0  0  0  0  0
    3.2308   -1.3012    0.9874 N   0  0  0  0  0  0  0  0  0  0  0  0
    3.3036   -1.5299   -0.4763 C   0  0  0  0  0  0  0  0  0  0  0  0
    2.0012   -2.1569   -1.0421 C   0  0  0  0  0  0  0  0  0  0  0  0
    1.2667   -1.2618   -2.0632 C   0  0  0  0  0  0  0  0  0  0  0  0
   -0.2752   -1.3574   -1.9788 C   0  0  0  0  0  0  0  0  0  0  0  0
   -0.8315   -0.8649   -0.6964 N   0  0  0  0  0  0  0  0  0  0  0  0
   -0.9660   -1.7440    0.4502 C   0  0  0  0  0  0  0  0  0  0  0  0
   -0.2197   -1.5332    1.4454 O   0  0  0  0  0  0  0  0  0  0  0  0
   -1.9481   -2.9292    0.4966 C   0  0  0  0  0  0  0  0  0  0  0  0
   -2.0764   -3.4357    1.9577 C   0  0  0  0  0  0  0  0  0  0  0  0
   -1.4780   -4.1090   -0.3781 C   0  0  0  0  0  0  0  0  0  0  0  0
   -3.3456   -2.4789    0.0192 C   0  0  0  0  0  0  0  0  0  0  0  0
   -1.0885    0.5888   -0.5380 C   0  0  0  0  0  0  0  0  0  0  0  0
   -2.5649    0.8353   -0.1817 C   0  0  0  0  0  0  0  0  0  0  0  0
   -2.9518    2.2938   -0.2593 C   0  0  0  0  0  0  0  0  0  0  0  0
   -2.8236    3.1297    0.8651 C   0  0  0  0  0  0  0  0  0  0  0  0
   -3.1390    4.4912    0.7719 C   0  0  0  0  0  0  0  0  0  0  0  0
   -3.5987    5.0146   -0.4342 C   0  0  0  0  0  0  0  0  0  0  0  0
   -3.7483    4.1897   -1.5522 C   0  0  0  0  0  0  0  0  0  0  0  0
   -3.4109    2.8380   -1.4751 C   0  0  0  0  0  0  0  0  0  0  0  0
   -0.1534    1.2348    0.5015 C   0  0  0  0  0  0  0  0  0  0  0  0
    1.1940    0.8026    0.2858 O   0  0  0  0  0  0  0  0  0  0  0  0
    2.3065    1.6598    0.2670 C   0  0  0  0  0  0  0  0  0  0  0  0
    2.2429    2.9191   -0.3692 C   0  0  0  0  0  0  0  0  0  0  0  0
    3.3624    3.7504   -0.4257 C   0  0  0  0  0  0  0  0  0  0  0  0
    4.5679    3.3319    0.1441 C   0  0  0  0  0  0  0  0  0  0  0  0
    4.6409    2.0901    0.7933 C   0  0  0  0  0  0  0  0  0  0  0  0
    3.5266    1.2385    0.8394 C   0  0  0  0  0  0  0  0  0  0  0  0
    3.6314   -0.0378    1.5674 C   0  0  0  0  0  0  0  0  0  0  0  0
    4.0388    0.0012    2.7602 O   0  0  0  0  0  0  0  0  0  0  0  0
    2.5985   -2.1777    2.8111 H   0  0  0  0  0  0  0  0  0  0  0  0
    4.1687   -2.7806    2.1793 H   0  0  0  0  0  0  0  0  0  0  0  0
    2.5983   -3.3130    1.4176 H   0  0  0  0  0  0  0  0  0  0  0  0
    4.1647   -2.2092   -0.6952 H   0  0  0  0  0  0  0  0  0  0  0  0
    3.5422   -0.5888   -1.0193 H   0  0  0  0  0  0  0  0  0  0  0  0
    1.3160   -2.4254   -0.2337 H   0  0  0  0  0  0  0  0  0  0  0  0
    2.2309   -3.1335   -1.5048 H   0  0  0  0  0  0  0  0  0  0  0  0
    1.5891   -1.6253   -3.0556 H   0  0  0  0  0  0  0  0  0  0  0  0
    1.5900   -0.2116   -1.9972 H   0  0  0  0  0  0  0  0  0  0  0  0
   -0.5583   -2.4089   -2.1717 H   0  0  0  0  0  0  0  0  0  0  0  0
   -0.7180   -0.7690   -2.8145 H   0  0  0  0  0  0  0  0  0  0  0  0
   -1.1149   -3.8771    2.2897 H   0  0  0  0  0  0  0  0  0  0  0  0
   -2.8676   -4.2066    2.0446 H   0  0  0  0  0  0  0  0  0  0  0  0
   -2.3409   -2.6040    2.6527 H   0  0  0  0  0  0  0  0  0  0  0  0
   -0.3713   -4.2233   -0.3299 H   0  0  0  0  0  0  0  0  0  0  0  0
   -1.9281   -5.0681   -0.0315 H   0  0  0  0  0  0  0  0  0  0  0  0
   -1.8025   -3.9771   -1.4309 H   0  0  0  0  0  0  0  0  0  0  0  0
   -4.0520   -3.3256    0.0498 H   0  0  0  0  0  0  0  0  0  0  0  0
   -3.7540   -1.6894    0.6922 H   0  0  0  0  0  0  0  0  0  0  0  0
   -3.3077   -2.1072   -1.0297 H   0  0  0  0  0  0  0  0  0  0  0  0
   -0.8907    1.1121   -1.5061 H   0  0  0  0  0  0  0  0  0  0  0  0
   -2.7832    0.4453    0.8392 H   0  0  0  0  0  0  0  0  0  0  0  0
   -3.1908    0.2684   -0.8996 H   0  0  0  0  0  0  0  0  0  0  0  0
   -2.4665    2.7334    1.8104 H   0  0  0  0  0  0  0  0  0  0  0  0
   -3.0175    5.1296    1.6378 H   0  0  0  0  0  0  0  0  0  0  0  0
   -3.8281    6.0698   -0.5054 H   0  0  0  0  0  0  0  0  0  0  0  0
   -4.1125    4.5998   -2.4847 H   0  0  0  0  0  0  0  0  0  0  0  0
   -3.5194    2.2147   -2.3558 H   0  0  0  0  0  0  0  0  0  0  0  0
   -0.2381    2.3363    0.4494 H   0  0  0  0  0  0  0  0  0  0  0  0
   -0.4506    0.9404    1.5256 H   0  0  0  0  0  0  0  0  0  0  0  0
    1.3427    3.2420   -0.8623 H   0  0  0  0  0  0  0  0  0  0  0  0
    3.3031    4.6952   -0.9457 H   0  0  0  0  0  0  0  0  0  0  0  0
    5.4444    3.9605    0.0858 H   0  0  0  0  0  0  0  0  0  0  0  0
    5.5923    1.7678    1.2210 H   0  0  0  0  0  0  0  0  0  0  0  0
  1  2  1  0
  2  3  1  0
  3  4  1  0
  4  5  1  0
  5  6  1  0
  6  7  1  0
  7  8  1  0
  8  9  2  0
  8 10  1  0
 10 11  1  0
 10 12  1  0
 10 13  1  0
  7 14  1  0
 14 15  1  0
 15 16  1  0
 16 17  2  0
 17 18  1  0
 18 19  2  0
 19 20  1  0
 20 21  2  0
 14 22  1  0
 22 23  1  0
 23 24  1  0
 24 25  2  0
 25 26  1  0
 26 27  2  0
 27 28  1  0
 28 29  2  0
 29 30  1  0
 30 31  2  0
 30  2  1  0
 21 16  1  0
 29 24  1  0
  1 32  1  0
  1 33  1  0
  1 34  1  0
  3 35  1  0
  3 36  1  0
  4 37  1  0
  4 38  1  0
  5 39  1  0
  5 40  1  0
  6 41  1  0
  6 42  1  0
 11 43  1  0
 11 44  1  0
 11 45  1  0
 12 46  1  0
 12 47  1  0
 12 48  1  0
 13 49  1  0
 13 50  1  0
 13 51  1  0
 14 52  1  0
 15 53  1  0
 15 54  1  0
 17 55  1  0
 18 56  1  0
 19 57  1  0
 20 58  1  0
 21 59  1  0
 22 60  1  0
 22 61  1  0
 25 62  1  0
 26 63  1  0
 27 64  1  0
 28 65  1  0
M  END
$$$$
