
     RDKit          3D

 72 74  0  0  0  0  0  0  0  0999 V2000
   -0.0662    3.9177    1.8014 C   0  0  0  0  0  0  0  0  0  0  0  0
   -0.7131    3.1253    0.6560 C   0  0  0  0  0  0  0  0  0  0  0  0
   -0.6891    3.9685   -0.6260 C   0  0  0  0  0  0  0  0  0  0  0  0
    0.0112    1.7598    0.5013 C   0  0  0  0  0  0  0  0  0  0  0  0
   -0.5885    0.7293   -0.4895 C   0  0  0  0  0  0  0  0  0  0  0  0
   -2.1188    0.6366   -0.4508 C   0  0  0  0  0  0  0  0  0  0  0  0
   -2.5222   -0.6272   -0.9749 O   0  0  0  0  0  0  0  0  0  0  0  0
   -3.7500   -1.2310   -0.6844 C   0  0  0  0  0  0  0  0  0  0  0  0
   -4.6091   -1.5217   -1.7505 C   0  0  0  0  0  0  0  0  0  0  0  0
   -5.8613   -2.0933   -1.5174 C   0  0  0  0  0  0  0  0  0  0  0  0
   -6.2638   -2.3876   -0.2130 C   0  0  0  0  0  0  0  0  0  0  0  0
   -7.8403   -3.0992    0.0783 Cl  0  0  0  0  0  0  0  0  0  0  0  0
   -5.4051   -2.1272    0.8588 C   0  0  0  0  0  0  0  0  0  0  0  0
   -4.1337   -1.5730    0.6358 C   0  0  0  0  0  0  0  0  0  0  0  0
   -3.2357   -1.3758    1.7935 C   0  0  0  0  0  0  0  0  0  0  0  0
   -3.6656   -0.7512    2.8000 O   0  0  0  0  0  0  0  0  0  0  0  0
   -1.8894   -1.8723    1.8036 N   0  0  0  0  0  0  0  0  0  0  0  0
   -1.5050   -3.0856    1.0779 C   0  0  0  0  0  0  0  0  0  0  0  0
   -0.1283   -3.6026    1.5325 C   0  0  0  0  0  0  0  0  0  0  0  0
    1.0370   -2.7494    1.0011 C   0  0  0  0  0  0  0  0  0  0  0  0
    1.3531   -3.0353   -0.4822 C   0  0  0  0  0  0  0  0  0  0  0  0
    1.5500   -1.7974   -1.2548 N   0  0  0  0  0  0  0  0  0  0  0  0
    2.8664   -1.2122   -1.2926 C   0  0  0  0  0  0  0  0  0  0  0  0
    3.4383   -1.0457   -2.4048 O   0  0  0  0  0  0  0  0  0  0  0  0
    3.5946   -0.8834   -0.0142 C   0  0  0  0  0  0  0  0  0  0  0  0
    4.6886    0.1820   -0.1862 C   0  0  0  0  0  0  0  0  0  0  0  0
    4.1147    1.5426   -0.4815 C   0  0  0  0  0  0  0  0  0  0  0  0
    3.8820    2.0637   -1.7384 C   0  0  0  0  0  0  0  0  0  0  0  0
    3.3381    3.3113   -1.5019 C   0  0  0  0  0  0  0  0  0  0  0  0
    3.2466    3.5230   -0.1743 N   0  0  0  0  0  0  0  0  0  0  0  0
    3.7171    2.4476    0.4379 N   0  0  0  0  0  0  0  0  0  0  0  0
    3.7354    2.2940    1.8886 C   0  0  0  0  0  0  0  0  0  0  0  0
    0.5819   -1.4908   -2.3210 C   0  0  0  0  0  0  0  0  0  0  0  0
    0.5517   -0.0239   -2.6734 C   0  0  0  0  0  0  0  0  0  0  0  0
    1.1066    0.3487   -3.7416 O   0  0  0  0  0  0  0  0  0  0  0  0
   -0.1054    0.9602   -1.8571 N   0  0  0  0  0  0  0  0  0  0  0  0
   -0.6088    4.8735    1.9664 H   0  0  0  0  0  0  0  0  0  0  0  0
   -0.1100    3.3364    2.7473 H   0  0  0  0  0  0  0  0  0  0  0  0
    0.9961    4.1457    1.5693 H   0  0  0  0  0  0  0  0  0  0  0  0
   -1.7731    2.9561    0.9419 H   0  0  0  0  0  0  0  0  0  0  0  0
   -1.3986    3.5584   -1.3719 H   0  0  0  0  0  0  0  0  0  0  0  0
   -1.0216    5.0076   -0.4154 H   0  0  0  0  0  0  0  0  0  0  0  0
    0.3348    4.0076   -1.0553 H   0  0  0  0  0  0  0  0  0  0  0  0
    0.0256    1.2732    1.5030 H   0  0  0  0  0  0  0  0  0  0  0  0
    1.0726    1.9304    0.2300 H   0  0  0  0  0  0  0  0  0  0  0  0
   -0.2165   -0.2490   -0.1423 H   0  0  0  0  0  0  0  0  0  0  0  0
   -2.5781    1.4468   -1.0554 H   0  0  0  0  0  0  0  0  0  0  0  0
   -2.4678    0.7517    0.5940 H   0  0  0  0  0  0  0  0  0  0  0  0
   -4.3106   -1.2843   -2.7638 H   0  0  0  0  0  0  0  0  0  0  0  0
   -6.5200   -2.3012   -2.3507 H   0  0  0  0  0  0  0  0  0  0  0  0
   -5.7193   -2.3808    1.8644 H   0  0  0  0  0  0  0  0  0  0  0  0
   -1.2339   -1.4654    2.5093 H   0  0  0  0  0  0  0  0  0  0  0  0
   -1.5050   -2.8899   -0.0129 H   0  0  0  0  0  0  0  0  0  0  0  0
   -2.2574   -3.8783    1.2807 H   0  0  0  0  0  0  0  0  0  0  0  0
   -0.0006   -4.6550    1.1967 H   0  0  0  0  0  0  0  0  0  0  0  0
   -0.0950   -3.6152    2.6439 H   0  0  0  0  0  0  0  0  0  0  0  0
    0.8219   -1.6782    1.1771 H   0  0  0  0  0  0  0  0  0  0  0  0
    1.9423   -2.9845    1.6022 H   0  0  0  0  0  0  0  0  0  0  0  0
    2.2667   -3.6671   -0.5504 H   0  0  0  0  0  0  0  0  0  0  0  0
    0.5467   -3.6454   -0.9455 H   0  0  0  0  0  0  0  0  0  0  0  0
    4.0632   -1.8150    0.3680 H   0  0  0  0  0  0  0  0  0  0  0  0
    2.8663   -0.5319    0.7459 H   0  0  0  0  0  0  0  0  0  0  0  0
    5.3915   -0.1150   -0.9948 H   0  0  0  0  0  0  0  0  0  0  0  0
    5.2870    0.2327    0.7475 H   0  0  0  0  0  0  0  0  0  0  0  0
    4.0794    1.6033   -2.6971 H   0  0  0  0  0  0  0  0  0  0  0  0
    3.0223    4.0208   -2.2544 H   0  0  0  0  0  0  0  0  0  0  0  0
    4.7647    2.0636    2.2329 H   0  0  0  0  0  0  0  0  0  0  0  0
    3.4029    3.2343    2.3765 H   0  0  0  0  0  0  0  0  0  0  0  0
    3.0477    1.4766    2.1882 H   0  0  0  0  0  0  0  0  0  0  0  0
    0.8411   -2.0861   -3.2235 H   0  0  0  0  0  0  0  0  0  0  0  0
   -0.4390   -1.7993   -2.0155 H   0  0  0  0  0  0  0  0  0  0  0  0
   -0.2399    1.8984   -2.2883 H   0  0  0  0  0  0  0  0  0  0  0  0
  1  2  1  0
  2  3  1  0
  2  4  1  0
  4  5  1  0
  5  6  1  0
  6  7  1  0
  7  8  1  0
  8  9  2  0
  9 10  1  0
 10 11  2  0
 11 12  1  0
 11 13  1  0
 13 14  2  0
 14 15  1  0
 15 16  2  0
 15 17  1  0
 17 18  1  0
 18 19  1  0
 19 20  1  0
 20 21  1  0
 21 22  1  0
 22 23  1  0
 23 24  2  0
 23 25  1  0
 25 26  1  0
 26 27  1  0
 27 28  2  0
 28 29  1  0
 29 30  2  0
 30 31  1  0
 31 32  1  0
 22 33  1  0
 33 34  1  0
 34 35  2  0
 34 36  1  0
 36  5  1  0
 14  8  1  0
 31 27  1  0
  1 37  1  0
  1 38  1  0
  1 39  1  0
  2 40  1  0
  3 41  1  0
  3 42  1  0
  3 43  1  0
  4 44  1  0
  4 45  1  0
  5 46  1  0
  6 47  1  0
  6 48  1  0
  9 49  1  0
 10 50  1  0
 13 51  1  0
 17 52  1  0
 18 53  1  0
 18 54  1  0
 19 55  1  0
 19 56  1  0
 20 57  1  0
 20 58  1  0
 21 59  1  0
 21 60  1  0
 25 61  1  0
 25 62  1  0
 26 63  1  0
 26 64  1  0
 28 65  1  0
 29 66  1  0
 32 67  1  0
 32 68  1  0
 32 69  1  0
 33 70  1  0
 33 71  1  0
 36 72  1  0
M  END
$$$$
