
     RDKit          3D

 76 78  0  0  0  0  0  0  0  0999 V2000
   -4.7351   -3.3421   -1.1508 C   0  0  0  0  0  0  0  0  0  0  0  0
   -4.3014   -3.6690    0.2897 C   0  0  0  0  0  0  0  0  0  0  0  0
   -5.3654   -4.5448    0.9653 C   0  0  0  0  0  0  0  0  0  0  0  0
   -4.0613   -2.3904    1.1311 C   0  0  0  0  0  0  0  0  0  0  0  0
   -2.8728   -1.5292    0.6429 C   0  0  0  0  0  0  0  0  0  0  0  0
   -1.6083   -2.2686    0.7865 N   0  0  0  0  0  0  0  0  0  0  0  0
   -0.3683   -1.9424    0.1252 C   0  0  0  0  0  0  0  0  0  0  0  0
    0.6413   -2.6638    0.3443 O   0  0  0  0  0  0  0  0  0  0  0  0
   -0.2101   -0.7612   -0.8020 C   0  0  0  0  0  0  0  0  0  0  0  0
    0.2676    0.5062   -0.0654 C   0  0  0  0  0  0  0  0  0  0  0  0
    1.6468    0.3209    0.5102 C   0  0  0  0  0  0  0  0  0  0  0  0
    1.7819    0.2187    1.7581 O   0  0  0  0  0  0  0  0  0  0  0  0
    2.7925    0.2259   -0.3510 N   0  0  0  0  0  0  0  0  0  0  0  0
    4.1508    0.0853    0.1718 C   0  0  0  0  0  0  0  0  0  0  0  0
    4.3940   -1.3493    0.6599 C   0  0  0  0  0  0  0  0  0  0  0  0
    5.7351   -1.4957    1.3914 C   0  0  0  0  0  0  0  0  0  0  0  0
    6.9109   -1.2908    0.4713 C   0  0  0  0  0  0  0  0  0  0  0  0
    7.5977   -0.0649    0.4570 C   0  0  0  0  0  0  0  0  0  0  0  0
    8.6755    0.1274   -0.4131 C   0  0  0  0  0  0  0  0  0  0  0  0
    9.0679   -0.8969   -1.2798 C   0  0  0  0  0  0  0  0  0  0  0  0
    8.3852   -2.1161   -1.2769 C   0  0  0  0  0  0  0  0  0  0  0  0
    7.3095   -2.3139   -0.4061 C   0  0  0  0  0  0  0  0  0  0  0  0
    0.2460    1.6615   -0.9661 N   0  0  0  0  0  0  0  0  0  0  0  0
    0.1974    2.9950   -0.4460 C   0  0  0  0  0  0  0  0  0  0  0  0
    1.1623    3.4111    0.2566 O   0  0  0  0  0  0  0  0  0  0  0  0
   -0.9635    3.8881   -0.7141 C   0  0  0  0  0  0  0  0  0  0  0  0
   -0.8147    5.2768   -0.5294 C   0  0  0  0  0  0  0  0  0  0  0  0
   -1.9008    6.1382   -0.6950 C   0  0  0  0  0  0  0  0  0  0  0  0
   -3.1550    5.6279   -1.0318 C   0  0  0  0  0  0  0  0  0  0  0  0
   -3.3250    4.2564   -1.2245 C   0  0  0  0  0  0  0  0  0  0  0  0
   -2.2358    3.3724   -1.0760 C   0  0  0  0  0  0  0  0  0  0  0  0
   -2.3796    1.9907   -1.2734 O   0  0  0  0  0  0  0  0  0  0  0  0
   -3.6037    1.2779   -1.4531 C   0  0  0  0  0  0  0  0  0  0  0  0
   -4.3497    1.0702   -0.1242 C   0  0  0  0  0  0  0  0  0  0  0  0
   -3.4347    0.9800    1.0309 N   0  0  0  0  0  0  0  0  0  0  0  0
   -3.2053    2.1793    1.8474 C   0  0  0  0  0  0  0  0  0  0  0  0
   -2.8165   -0.2577    1.4578 C   0  0  0  0  0  0  0  0  0  0  0  0
   -2.2251   -0.2964    2.5731 O   0  0  0  0  0  0  0  0  0  0  0  0
   -5.0562   -4.2636   -1.6796 H   0  0  0  0  0  0  0  0  0  0  0  0
   -5.5748   -2.6163   -1.1518 H   0  0  0  0  0  0  0  0  0  0  0  0
   -3.8898   -2.9206   -1.7294 H   0  0  0  0  0  0  0  0  0  0  0  0
   -3.3623   -4.2614    0.2465 H   0  0  0  0  0  0  0  0  0  0  0  0
   -6.3353   -4.0055    1.0280 H   0  0  0  0  0  0  0  0  0  0  0  0
   -5.5105   -5.4853    0.3904 H   0  0  0  0  0  0  0  0  0  0  0  0
   -5.0448   -4.8166    1.9940 H   0  0  0  0  0  0  0  0  0  0  0  0
   -4.9922   -1.7840    1.1333 H   0  0  0  0  0  0  0  0  0  0  0  0
   -3.8708   -2.6822    2.1874 H   0  0  0  0  0  0  0  0  0  0  0  0
   -3.0307   -1.2948   -0.4186 H   0  0  0  0  0  0  0  0  0  0  0  0
   -1.5769   -3.0621    1.4671 H   0  0  0  0  0  0  0  0  0  0  0  0
    0.5178   -1.0247   -1.5981 H   0  0  0  0  0  0  0  0  0  0  0  0
   -1.1617   -0.5543   -1.3232 H   0  0  0  0  0  0  0  0  0  0  0  0
   -0.4381    0.7110    0.7647 H   0  0  0  0  0  0  0  0  0  0  0  0
    2.6648    0.3326   -1.3830 H   0  0  0  0  0  0  0  0  0  0  0  0
    4.8760    0.3207   -0.6388 H   0  0  0  0  0  0  0  0  0  0  0  0
    4.3095    0.8144    0.9991 H   0  0  0  0  0  0  0  0  0  0  0  0
    3.5880   -1.6439    1.3644 H   0  0  0  0  0  0  0  0  0  0  0  0
    4.3506   -2.0484   -0.2031 H   0  0  0  0  0  0  0  0  0  0  0  0
    5.7964   -2.5163    1.8273 H   0  0  0  0  0  0  0  0  0  0  0  0
    5.7754   -0.7853    2.2462 H   0  0  0  0  0  0  0  0  0  0  0  0
    7.2967    0.7405    1.1159 H   0  0  0  0  0  0  0  0  0  0  0  0
    9.2060    1.0703   -0.4158 H   0  0  0  0  0  0  0  0  0  0  0  0
    9.9038   -0.7495   -1.9493 H   0  0  0  0  0  0  0  0  0  0  0  0
    8.6896   -2.9085   -1.9495 H   0  0  0  0  0  0  0  0  0  0  0  0
    6.7846   -3.2608   -0.4182 H   0  0  0  0  0  0  0  0  0  0  0  0
    0.0655    1.5287   -1.9871 H   0  0  0  0  0  0  0  0  0  0  0  0
    0.1454    5.7011   -0.2564 H   0  0  0  0  0  0  0  0  0  0  0  0
   -1.7734    7.2035   -0.5494 H   0  0  0  0  0  0  0  0  0  0  0  0
   -3.9964    6.2998   -1.1474 H   0  0  0  0  0  0  0  0  0  0  0  0
   -4.3142    3.8981   -1.4794 H   0  0  0  0  0  0  0  0  0  0  0  0
   -4.2547    1.7825   -2.1981 H   0  0  0  0  0  0  0  0  0  0  0  0
   -3.3590    0.2932   -1.8974 H   0  0  0  0  0  0  0  0  0  0  0  0
   -5.0516    1.9186    0.0133 H   0  0  0  0  0  0  0  0  0  0  0  0
   -4.9904    0.1665   -0.1868 H   0  0  0  0  0  0  0  0  0  0  0  0
   -2.1223    2.4171    1.8645 H   0  0  0  0  0  0  0  0  0  0  0  0
   -3.5574    2.0040    2.8850 H   0  0  0  0  0  0  0  0  0  0  0  0
   -3.7370    3.0647    1.4419 H   0  0  0  0  0  0  0  0  0  0  0  0
  1  2  1  0
  2  3  1  0
  2  4  1  0
  4  5  1  0
  5  6  1  0
  6  7  1  0
  7  8  2  0
  7  9  1  0
  9 10  1  0
 10 11  1  0
 11 12  2  0
 11 13  1  0
 13 14  1  0
 14 15  1  0
 15 16  1  0
 16 17  1  0
 17 18  2  0
 18 19  1  0
 19 20  2  0
 20 21  1  0
 21 22  2  0
 10 23  1  0
 23 24  1  0
 24 25  2  0
 24 26  1  0
 26 27  2  0
 27 28  1  0
 28 29  2  0
 29 30  1  0
 30 31  2  0
 31 32  1  0
 32 33  1  0
 33 34  1  0
 34 35  1  0
 35 36  1  0
 35 37  1  0
 37 38  2  0
 37  5  1  0
 22 17  1  0
 31 26  1  0
  1 39  1  0
  1 40  1  0
  1 41  1  0
  2 42  1  0
  3 43  1  0
  3 44  1  0
  3 45  1  0
  4 46  1  0
  4 47  1  0
  5 48  1  0
  6 49  1  0
  9 50  1  0
  9 51  1  0
 10 52  1  0
 13 53  1  0
 14 54  1  0
 14 55  1  0
 15 56  1  0
 15 57  1  0
 16 58  1  0
 16 59  1  0
 18 60  1  0
 19 61  1  0
 20 62  1  0
 21 63  1  0
 22 64  1  0
 23 65  1  0
 27 66  1  0
 28 67  1  0
 29 68  1  0
 30 69  1  0
 33 70  1  0
 33 71  1  0
 34 72  1  0
 34 73  1  0
 36 74  1  0
 36 75  1  0
 36 76  1  0
M  END
$$$$
