
     RDKit          3D

 68 71  0  0  0  0  0  0  0  0999 V2000
   -4.5848    4.5225   -0.8454 C   0  0  0  0  0  0  0  0  0  0  0  0
   -3.8388    3.3559   -1.1089 O   0  0  0  0  0  0  0  0  0  0  0  0
   -3.3085    2.8501    0.1006 C   0  0  0  0  0  0  0  0  0  0  0  0
   -2.5493    1.5164   -0.1478 C   0  0  0  0  0  0  0  0  0  0  0  0
   -1.3265    1.7908   -1.1006 C   0  0  0  0  0  0  0  0  0  0  0  0
   -0.0417    2.3231   -0.4224 C   0  0  0  0  0  0  0  0  0  0  0  0
    1.0238    1.2118   -0.2750 C   0  0  0  0  0  0  0  0  0  0  0  0
    1.8400    1.3468    1.0136 C   0  0  0  0  0  0  0  0  0  0  0  0
    2.5125    0.0791    1.3311 N   0  0  0  0  0  0  0  0  0  0  0  0
    3.8894   -0.1252    0.9554 C   0  0  0  0  0  0  0  0  0  0  0  0
    4.6798   -0.7019    1.7500 O   0  0  0  0  0  0  0  0  0  0  0  0
    4.3914    0.3040   -0.3626 C   0  0  0  0  0  0  0  0  0  0  0  0
    3.8767   -0.2828   -1.5245 C   0  0  0  0  0  0  0  0  0  0  0  0
    4.3624    0.0734   -2.7410 N   0  0  0  0  0  0  0  0  0  0  0  0
    5.3494    0.9975   -2.8555 C   0  0  0  0  0  0  0  0  0  0  0  0
    5.8661    1.5819   -1.7451 N   0  0  0  0  0  0  0  0  0  0  0  0
    5.4134    1.2636   -0.5019 C   0  0  0  0  0  0  0  0  0  0  0  0
    6.0201    1.9484    0.6860 C   0  0  0  0  0  0  0  0  0  0  0  0
    1.8287   -0.9261    2.1625 C   0  0  0  0  0  0  0  0  0  0  0  0
    1.5403   -2.2065    1.3639 C   0  0  0  0  0  0  0  0  0  0  0  0
    0.1754   -2.2352    0.9354 O   0  0  0  0  0  0  0  0  0  0  0  0
   -0.4025   -3.3053    0.2274 C   0  0  0  0  0  0  0  0  0  0  0  0
    0.3812   -4.1965   -0.5319 C   0  0  0  0  0  0  0  0  0  0  0  0
   -0.2164   -5.2584   -1.2158 C   0  0  0  0  0  0  0  0  0  0  0  0
   -1.5957   -5.4534   -1.1436 C   0  0  0  0  0  0  0  0  0  0  0  0
   -2.3845   -4.5848   -0.3889 C   0  0  0  0  0  0  0  0  0  0  0  0
   -1.7986   -3.5050    0.2874 C   0  0  0  0  0  0  0  0  0  0  0  0
   -2.6465   -2.6344    1.1158 C   0  0  0  0  0  0  0  0  0  0  0  0
   -3.1259   -3.0877    2.1902 O   0  0  0  0  0  0  0  0  0  0  0  0
   -2.9207   -1.2814    0.7232 N   0  0  0  0  0  0  0  0  0  0  0  0
   -3.0990   -0.9472   -0.6966 C   0  0  0  0  0  0  0  0  0  0  0  0
   -3.5171    0.5238   -0.8754 C   0  0  0  0  0  0  0  0  0  0  0  0
   -2.9803   -0.2204    1.7301 C   0  0  0  0  0  0  0  0  0  0  0  0
   -2.1087    0.9387    1.2522 C   0  0  0  0  0  0  0  0  0  0  0  0
   -4.9386    4.9401   -1.8111 H   0  0  0  0  0  0  0  0  0  0  0  0
   -5.4795    4.2901   -0.2276 H   0  0  0  0  0  0  0  0  0  0  0  0
   -3.9635    5.3011   -0.3496 H   0  0  0  0  0  0  0  0  0  0  0  0
   -4.1281    2.6632    0.8342 H   0  0  0  0  0  0  0  0  0  0  0  0
   -2.6048    3.5893    0.5474 H   0  0  0  0  0  0  0  0  0  0  0  0
   -1.6262    2.5228   -1.8820 H   0  0  0  0  0  0  0  0  0  0  0  0
   -1.0818    0.8781   -1.6850 H   0  0  0  0  0  0  0  0  0  0  0  0
    0.3912    3.1331   -1.0512 H   0  0  0  0  0  0  0  0  0  0  0  0
   -0.2878    2.7977    0.5494 H   0  0  0  0  0  0  0  0  0  0  0  0
    1.7009    1.2537   -1.1534 H   0  0  0  0  0  0  0  0  0  0  0  0
    0.5530    0.2053   -0.2849 H   0  0  0  0  0  0  0  0  0  0  0  0
    2.5820    2.1675    0.9042 H   0  0  0  0  0  0  0  0  0  0  0  0
    1.1786    1.6296    1.8605 H   0  0  0  0  0  0  0  0  0  0  0  0
    3.0943   -1.0290   -1.4644 H   0  0  0  0  0  0  0  0  0  0  0  0
    5.7271    1.2663   -3.8326 H   0  0  0  0  0  0  0  0  0  0  0  0
    6.6411    1.2309    1.2595 H   0  0  0  0  0  0  0  0  0  0  0  0
    6.6669    2.7900    0.3596 H   0  0  0  0  0  0  0  0  0  0  0  0
    5.2222    2.3556    1.3423 H   0  0  0  0  0  0  0  0  0  0  0  0
    2.4686   -1.1714    3.0373 H   0  0  0  0  0  0  0  0  0  0  0  0
    0.8776   -0.5266    2.5756 H   0  0  0  0  0  0  0  0  0  0  0  0
    2.2215   -2.2733    0.4905 H   0  0  0  0  0  0  0  0  0  0  0  0
    1.7232   -3.0882    2.0189 H   0  0  0  0  0  0  0  0  0  0  0  0
    1.4522   -4.0781   -0.6065 H   0  0  0  0  0  0  0  0  0  0  0  0
    0.3942   -5.9362   -1.7990 H   0  0  0  0  0  0  0  0  0  0  0  0
   -2.0528   -6.2841   -1.6674 H   0  0  0  0  0  0  0  0  0  0  0  0
   -3.4535   -4.7508   -0.3317 H   0  0  0  0  0  0  0  0  0  0  0  0
   -2.1532   -1.1418   -1.2448 H   0  0  0  0  0  0  0  0  0  0  0  0
   -3.8891   -1.5965   -1.1309 H   0  0  0  0  0  0  0  0  0  0  0  0
   -4.5489    0.6309   -0.4712 H   0  0  0  0  0  0  0  0  0  0  0  0
   -3.5835    0.7568   -1.9615 H   0  0  0  0  0  0  0  0  0  0  0  0
   -2.5982   -0.5806    2.7112 H   0  0  0  0  0  0  0  0  0  0  0  0
   -4.0306    0.1154    1.8686 H   0  0  0  0  0  0  0  0  0  0  0  0
   -2.0985    1.7271    2.0372 H   0  0  0  0  0  0  0  0  0  0  0  0
   -1.0812    0.5365    1.2166 H   0  0  0  0  0  0  0  0  0  0  0  0
  1  2  1  0
  2  3  1  0
  3  4  1  0
  4  5  1  0
  5  6  1  0
  6  7  1  0
  7  8  1  0
  8  9  1  0
  9 10  1  0
 10 11  2  0
 10 12  1  0
 12 13  2  0
 13 14  1  0
 14 15  2  0
 15 16  1  0
 16 17  2  0
 17 18  1  0
  9 19  1  0
 19 20  1  0
 20 21  1  0
 21 22  1  0
 22 23  2  0
 23 24  1  0
 24 25  2  0
 25 26  1  0
 26 27  2  0
 27 28  1  0
 28 29  2  0
 28 30  1  0
 30 31  1  0
 31 32  1  0
 30 33  1  0
 33 34  1  0
 32  4  1  0
 34  4  1  0
 17 12  1  0
 27 22  1  0
  1 35  1  0
  1 36  1  0
  1 37  1  0
  3 38  1  0
  3 39  1  0
  5 40  1  0
  5 41  1  0
  6 42  1  0
  6 43  1  0
  7 44  1  0
  7 45  1  0
  8 46  1  0
  8 47  1  0
 13 48  1  0
 15 49  1  0
 18 50  1  0
 18 51  1  0
 18 52  1  0
 19 53  1  0
 19 54  1  0
 20 55  1  0
 20 56  1  0
 23 57  1  0
 24 58  1  0
 25 59  1  0
 26 60  1  0
 31 61  1  0
 31 62  1  0
 32 63  1  0
 32 64  1  0
 33 65  1  0
 33 66  1  0
 34 67  1  0
 34 68  1  0
M  END
$$$$
