
     RDKit          3D

 69 70  0  0  0  0  0  0  0  0999 V2000
   -3.2818    0.4901    2.4855 C   0  0  0  0  0  0  0  0  0  0  0  0
   -2.6557    0.2367    1.2454 O   0  0  0  0  0  0  0  0  0  0  0  0
   -3.4940    0.6045    0.1610 C   0  0  0  0  0  0  0  0  0  0  0  0
   -2.9350    1.8825   -0.5195 C   0  0  0  0  0  0  0  0  0  0  0  0
   -2.4921    2.9091    0.4486 N   0  0  0  0  0  0  0  0  0  0  0  0
   -3.4680    3.7956    1.0575 C   0  0  0  0  0  0  0  0  0  0  0  0
   -4.8400    3.9855    0.4788 C   0  0  0  0  0  0  0  0  0  0  0  0
   -3.1726    4.4328    2.1097 O   0  0  0  0  0  0  0  0  0  0  0  0
   -1.0957    2.9685    0.9503 C   0  0  0  0  0  0  0  0  0  0  0  0
   -0.0085    2.5942   -0.0851 C   0  0  0  0  0  0  0  0  0  0  0  0
    0.3888    1.1071   -0.0058 C   0  0  0  0  0  0  0  0  0  0  0  0
    1.1371    0.6874   -1.2089 N   0  0  0  0  0  0  0  0  0  0  0  0
    2.5516    1.1201   -1.2936 C   0  0  0  0  0  0  0  0  0  0  0  0
    3.5175    0.3500   -0.4286 C   0  0  0  0  0  0  0  0  0  0  0  0
    3.1705   -0.0684    0.7102 O   0  0  0  0  0  0  0  0  0  0  0  0
    4.8884    0.2350   -0.8473 N   0  0  0  0  0  0  0  0  0  0  0  0
    5.8778   -0.5023   -0.1116 C   0  0  0  0  0  0  0  0  0  0  0  0
    5.5978   -1.7796    0.4101 C   0  0  0  0  0  0  0  0  0  0  0  0
    6.5874   -2.4898    1.0994 C   0  0  0  0  0  0  0  0  0  0  0  0
    7.8610   -1.9344    1.2685 C   0  0  0  0  0  0  0  0  0  0  0  0
    8.8194   -2.6258    1.9357 F   0  0  0  0  0  0  0  0  0  0  0  0
    8.1485   -0.6727    0.7392 C   0  0  0  0  0  0  0  0  0  0  0  0
    7.1644    0.0364    0.0428 C   0  0  0  0  0  0  0  0  0  0  0  0
    0.8320   -0.6746   -1.7127 C   0  0  0  0  0  0  0  0  0  0  0  0
    1.1112   -1.7973   -0.6888 C   0  0  0  0  0  0  0  0  0  0  0  0
    0.4075   -3.1246   -1.0324 C   0  0  0  0  0  0  0  0  0  0  0  0
   -1.1262   -3.1028   -0.8968 C   0  0  0  0  0  0  0  0  0  0  0  0
   -1.5233   -2.3492    0.2356 O   0  0  0  0  0  0  0  0  0  0  0  0
   -2.8729   -2.6055    0.5873 C   0  0  0  0  0  0  0  0  0  0  0  0
   -3.8958   -1.9509   -0.3787 C   0  0  0  0  0  0  0  0  0  0  0  0
   -5.1958   -1.9724    0.1529 O   0  0  0  0  0  0  0  0  0  0  0  0
   -3.5248   -0.5337   -0.8991 C   0  0  0  0  0  0  0  0  0  0  0  0
   -4.4348   -0.1736   -1.9101 O   0  0  0  0  0  0  0  0  0  0  0  0
   -4.1427   -0.1951    2.6468 H   0  0  0  0  0  0  0  0  0  0  0  0
   -2.5502    0.2925    3.2950 H   0  0  0  0  0  0  0  0  0  0  0  0
   -3.6106    1.5468    2.5775 H   0  0  0  0  0  0  0  0  0  0  0  0
   -4.5492    0.8029    0.4699 H   0  0  0  0  0  0  0  0  0  0  0  0
   -3.7079    2.2991   -1.2007 H   0  0  0  0  0  0  0  0  0  0  0  0
   -2.1096    1.6171   -1.2045 H   0  0  0  0  0  0  0  0  0  0  0  0
   -5.3793    4.7902    1.0219 H   0  0  0  0  0  0  0  0  0  0  0  0
   -4.7637    4.2814   -0.5872 H   0  0  0  0  0  0  0  0  0  0  0  0
   -5.4295    3.0486    0.5739 H   0  0  0  0  0  0  0  0  0  0  0  0
   -0.9982    2.3427    1.8634 H   0  0  0  0  0  0  0  0  0  0  0  0
   -0.8720    4.0144    1.2605 H   0  0  0  0  0  0  0  0  0  0  0  0
   -0.3142    2.8840   -1.1126 H   0  0  0  0  0  0  0  0  0  0  0  0
    0.8972    3.1983    0.1387 H   0  0  0  0  0  0  0  0  0  0  0  0
   -0.5254    0.4914    0.0884 H   0  0  0  0  0  0  0  0  0  0  0  0
    0.9782    0.9386    0.9174 H   0  0  0  0  0  0  0  0  0  0  0  0
    2.8782    1.0441   -2.3523 H   0  0  0  0  0  0  0  0  0  0  0  0
    2.6370    2.1940   -1.0322 H   0  0  0  0  0  0  0  0  0  0  0  0
    5.2132    0.8420   -1.6368 H   0  0  0  0  0  0  0  0  0  0  0  0
    4.6277   -2.2360    0.2595 H   0  0  0  0  0  0  0  0  0  0  0  0
    6.3692   -3.4765    1.4931 H   0  0  0  0  0  0  0  0  0  0  0  0
    9.1342   -0.2412    0.8660 H   0  0  0  0  0  0  0  0  0  0  0  0
    7.3974    1.0144   -0.3639 H   0  0  0  0  0  0  0  0  0  0  0  0
   -0.2366   -0.6942   -2.0133 H   0  0  0  0  0  0  0  0  0  0  0  0
    1.4135   -0.8785   -2.6385 H   0  0  0  0  0  0  0  0  0  0  0  0
    2.2017   -2.0053   -0.6823 H   0  0  0  0  0  0  0  0  0  0  0  0
    0.8316   -1.4917    0.3402 H   0  0  0  0  0  0  0  0  0  0  0  0
    0.6797   -3.4330   -2.0648 H   0  0  0  0  0  0  0  0  0  0  0  0
    0.8052   -3.9039   -0.3459 H   0  0  0  0  0  0  0  0  0  0  0  0
   -1.5620   -2.6661   -1.8208 H   0  0  0  0  0  0  0  0  0  0  0  0
   -1.4628   -4.1606   -0.8289 H   0  0  0  0  0  0  0  0  0  0  0  0
   -3.0253   -2.2171    1.6107 H   0  0  0  0  0  0  0  0  0  0  0  0
   -3.0780   -3.6951    0.6732 H   0  0  0  0  0  0  0  0  0  0  0  0
   -3.9176   -2.6090   -1.2715 H   0  0  0  0  0  0  0  0  0  0  0  0
   -5.1719   -1.5266    1.0364 H   0  0  0  0  0  0  0  0  0  0  0  0
   -2.5102   -0.6030   -1.3491 H   0  0  0  0  0  0  0  0  0  0  0  0
   -4.1910   -0.6876   -2.7269 H   0  0  0  0  0  0  0  0  0  0  0  0
  1  2  1  0
  2  3  1  0
  3  4  1  0
  4  5  1  0
  5  6  1  0
  6  7  1  0
  6  8  2  0
  5  9  1  0
  9 10  1  0
 10 11  1  0
 11 12  1  0
 12 13  1  0
 13 14  1  0
 14 15  2  0
 14 16  1  0
 16 17  1  0
 17 18  2  0
 18 19  1  0
 19 20  2  0
 20 21  1  0
 20 22  1  0
 22 23  2  0
 12 24  1  0
 24 25  1  0
 25 26  1  0
 26 27  1  0
 27 28  1  0
 28 29  1  0
 29 30  1  0
 30 31  1  0
 30 32  1  0
 32 33  1  0
 32  3  1  0
 23 17  1  0
  1 34  1  0
  1 35  1  0
  1 36  1  0
  3 37  1  0
  4 38  1  0
  4 39  1  0
  7 40  1  0
  7 41  1  0
  7 42  1  0
  9 43  1  0
  9 44  1  0
 10 45  1  0
 10 46  1  0
 11 47  1  0
 11 48  1  0
 13 49  1  0
 13 50  1  0
 16 51  1  0
 18 52  1  0
 19 53  1  0
 22 54  1  0
 23 55  1  0
 24 56  1  0
 24 57  1  0
 25 58  1  0
 25 59  1  0
 26 60  1  0
 26 61  1  0
 27 62  1  0
 27 63  1  0
 29 64  1  0
 29 65  1  0
 30 66  1  0
 31 67  1  0
 32 68  1  0
 33 69  1  0
M  END
$$$$
