
     RDKit          3D

 65 67  0  0  0  0  0  0  0  0999 V2000
    7.0233   -0.2052   -0.9717 C   0  0  0  0  0  0  0  0  0  0  0  0
    6.1076    1.0059   -1.0350 C   0  0  0  0  0  0  0  0  0  0  0  0
    4.8951    0.7123   -0.3471 O   0  0  0  0  0  0  0  0  0  0  0  0
    3.7762    1.5586   -0.2815 C   0  0  0  0  0  0  0  0  0  0  0  0
    3.8276    2.8637   -0.8101 C   0  0  0  0  0  0  0  0  0  0  0  0
    2.7191    3.7032   -0.7420 C   0  0  0  0  0  0  0  0  0  0  0  0
    1.5353    3.2526   -0.1669 C   0  0  0  0  0  0  0  0  0  0  0  0
    1.4513    1.9593    0.3668 C   0  0  0  0  0  0  0  0  0  0  0  0
    2.5777    1.1037    0.3286 C   0  0  0  0  0  0  0  0  0  0  0  0
    2.4433   -0.1738    0.9080 O   0  0  0  0  0  0  0  0  0  0  0  0
    3.2615   -1.3175    0.6687 C   0  0  0  0  0  0  0  0  0  0  0  0
    2.7292   -2.5083    1.4692 C   0  0  0  0  0  0  0  0  0  0  0  0
    1.2805   -2.8949    1.1189 C   0  0  0  0  0  0  0  0  0  0  0  0
    1.1494   -3.6841   -0.2039 C   0  0  0  0  0  0  0  0  0  0  0  0
    0.5277   -2.8703   -1.3455 C   0  0  0  0  0  0  0  0  0  0  0  0
   -0.8068   -2.3862   -0.9744 N   0  0  0  0  0  0  0  0  0  0  0  0
   -1.2980   -1.0486   -1.1746 C   0  0  0  0  0  0  0  0  0  0  0  0
   -2.5404   -0.8766   -1.2922 O   0  0  0  0  0  0  0  0  0  0  0  0
   -0.3927    0.1541   -1.2560 C   0  0  0  0  0  0  0  0  0  0  0  0
   -0.7850    1.1848   -0.2777 N   0  0  0  0  0  0  0  0  0  0  0  0
   -1.9611    1.9875   -0.5274 C   0  0  0  0  0  0  0  0  0  0  0  0
   -2.3900    2.1142   -1.7079 O   0  0  0  0  0  0  0  0  0  0  0  0
   -2.6837    2.7046    0.5818 C   0  0  0  0  0  0  0  0  0  0  0  0
   -4.0647    2.8768    0.2591 O   0  0  0  0  0  0  0  0  0  0  0  0
   -5.0202    1.8473    0.2165 C   0  0  0  0  0  0  0  0  0  0  0  0
   -6.2922    2.1499   -0.2821 C   0  0  0  0  0  0  0  0  0  0  0  0
   -7.2779    1.1633   -0.3556 C   0  0  0  0  0  0  0  0  0  0  0  0
   -7.0047   -0.1344    0.0825 C   0  0  0  0  0  0  0  0  0  0  0  0
   -5.7449   -0.4595    0.5978 C   0  0  0  0  0  0  0  0  0  0  0  0
   -5.5286   -1.7724    1.0449 O   0  0  0  0  0  0  0  0  0  0  0  0
   -4.3218   -2.2301    1.6466 C   0  0  0  0  0  0  0  0  0  0  0  0
   -4.7468    0.5348    0.6562 C   0  0  0  0  0  0  0  0  0  0  0  0
    0.1088    1.4672    0.8611 C   0  0  0  0  0  0  0  0  0  0  0  0
    7.2850   -0.4283    0.0841 H   0  0  0  0  0  0  0  0  0  0  0  0
    6.5153   -1.0883   -1.4142 H   0  0  0  0  0  0  0  0  0  0  0  0
    7.9539   -0.0028   -1.5409 H   0  0  0  0  0  0  0  0  0  0  0  0
    5.8904    1.2391   -2.0999 H   0  0  0  0  0  0  0  0  0  0  0  0
    6.6124    1.8746   -0.5602 H   0  0  0  0  0  0  0  0  0  0  0  0
    4.7287    3.2444   -1.2720 H   0  0  0  0  0  0  0  0  0  0  0  0
    2.7748    4.7040   -1.1504 H   0  0  0  0  0  0  0  0  0  0  0  0
    0.6730    3.9079   -0.1510 H   0  0  0  0  0  0  0  0  0  0  0  0
    4.2952   -1.1286    1.0267 H   0  0  0  0  0  0  0  0  0  0  0  0
    3.2770   -1.5565   -0.4168 H   0  0  0  0  0  0  0  0  0  0  0  0
    2.7664   -2.2400    2.5479 H   0  0  0  0  0  0  0  0  0  0  0  0
    3.4040   -3.3805    1.3307 H   0  0  0  0  0  0  0  0  0  0  0  0
    0.9110   -3.5500    1.9389 H   0  0  0  0  0  0  0  0  0  0  0  0
    0.6284   -1.9950    1.1369 H   0  0  0  0  0  0  0  0  0  0  0  0
    2.1375   -4.0701   -0.5355 H   0  0  0  0  0  0  0  0  0  0  0  0
    0.5057   -4.5740   -0.0282 H   0  0  0  0  0  0  0  0  0  0  0  0
    0.4239   -3.5307   -2.2341 H   0  0  0  0  0  0  0  0  0  0  0  0
    1.2181   -2.0616   -1.6436 H   0  0  0  0  0  0  0  0  0  0  0  0
   -1.5124   -3.1140   -0.7198 H   0  0  0  0  0  0  0  0  0  0  0  0
    0.6521   -0.1376   -1.0774 H   0  0  0  0  0  0  0  0  0  0  0  0
   -0.4296    0.5707   -2.2845 H   0  0  0  0  0  0  0  0  0  0  0  0
   -2.2229    3.7069    0.7062 H   0  0  0  0  0  0  0  0  0  0  0  0
   -2.5895    2.1624    1.5464 H   0  0  0  0  0  0  0  0  0  0  0  0
   -6.5147    3.1536   -0.6214 H   0  0  0  0  0  0  0  0  0  0  0  0
   -8.2574    1.4045   -0.7501 H   0  0  0  0  0  0  0  0  0  0  0  0
   -7.7789   -0.8892    0.0292 H   0  0  0  0  0  0  0  0  0  0  0  0
   -4.0955   -1.6311    2.5543 H   0  0  0  0  0  0  0  0  0  0  0  0
   -4.4482   -3.2912    1.9436 H   0  0  0  0  0  0  0  0  0  0  0  0
   -3.4819   -2.1632    0.9237 H   0  0  0  0  0  0  0  0  0  0  0  0
   -3.7700    0.2869    1.0435 H   0  0  0  0  0  0  0  0  0  0  0  0
    0.2051    0.5516    1.4808 H   0  0  0  0  0  0  0  0  0  0  0  0
   -0.3111    2.2439    1.5316 H   0  0  0  0  0  0  0  0  0  0  0  0
  1  2  1  0
  2  3  1  0
  3  4  1  0
  4  5  2  0
  5  6  1  0
  6  7  2  0
  7  8  1  0
  8  9  2  0
  9 10  1  0
 10 11  1  0
 11 12  1  0
 12 13  1  0
 13 14  1  0
 14 15  1  0
 15 16  1  0
 16 17  1  0
 17 18  2  0
 17 19  1  0
 19 20  1  0
 20 21  1  0
 21 22  2  0
 21 23  1  0
 23 24  1  0
 24 25  1  0
 25 26  2  0
 26 27  1  0
 27 28  2  0
 28 29  1  0
 29 30  1  0
 30 31  1  0
 29 32  2  0
 20 33  1  0
  9  4  1  0
 32 25  1  0
 33  8  1  0
  1 34  1  0
  1 35  1  0
  1 36  1  0
  2 37  1  0
  2 38  1  0
  5 39  1  0
  6 40  1  0
  7 41  1  0
 11 42  1  0
 11 43  1  0
 12 44  1  0
 12 45  1  0
 13 46  1  0
 13 47  1  0
 14 48  1  0
 14 49  1  0
 15 50  1  0
 15 51  1  0
 16 52  1  0
 19 53  1  0
 19 54  1  0
 23 55  1  0
 23 56  1  0
 26 57  1  0
 27 58  1  0
 28 59  1  0
 31 60  1  0
 31 61  1  0
 31 62  1  0
 32 63  1  0
 33 64  1  0
 33 65  1  0
M  END
$$$$
