
     RDKit          3D

 73 76  0  0  0  0  0  0  0  0999 V2000
   -3.5254    5.3976   -1.6194 C   0  0  0  0  0  0  0  0  0  0  0  0
   -2.9538    4.6596   -0.4123 C   0  0  0  0  0  0  0  0  0  0  0  0
   -2.8312    3.1576   -0.6912 C   0  0  0  0  0  0  0  0  0  0  0  0
   -2.2414    2.4166    0.5137 C   0  0  0  0  0  0  0  0  0  0  0  0
   -2.1797    0.9764    0.2459 N   0  0  0  0  0  0  0  0  0  0  0  0
   -3.3696    0.1449    0.4717 C   0  0  0  0  0  0  0  0  0  0  0  0
   -3.1435   -0.7812    1.6705 C   0  0  0  0  0  0  0  0  0  0  0  0
   -4.1453   -1.7991    1.7604 O   0  0  0  0  0  0  0  0  0  0  0  0
   -4.4873   -2.6989    0.7368 C   0  0  0  0  0  0  0  0  0  0  0  0
   -5.8198   -2.6946    0.3039 C   0  0  0  0  0  0  0  0  0  0  0  0
   -6.2402   -3.5396   -0.7230 C   0  0  0  0  0  0  0  0  0  0  0  0
   -5.3338   -4.4111   -1.3251 C   0  0  0  0  0  0  0  0  0  0  0  0
   -4.0082   -4.4511   -0.8908 C   0  0  0  0  0  0  0  0  0  0  0  0
   -3.5694   -3.6163    0.1529 C   0  0  0  0  0  0  0  0  0  0  0  0
   -2.1248   -3.7109    0.5793 C   0  0  0  0  0  0  0  0  0  0  0  0
   -1.2379   -2.8682   -0.3554 C   0  0  0  0  0  0  0  0  0  0  0  0
    0.0769   -2.4354    0.3155 C   0  0  0  0  0  0  0  0  0  0  0  0
    0.7611   -1.2432   -0.3956 C   0  0  0  0  0  0  0  0  0  0  0  0
    0.2642    0.1835    0.0229 C   0  0  0  0  0  0  0  0  0  0  0  0
    1.2436    1.2348   -0.5845 C   0  0  0  0  0  0  0  0  0  0  0  0
    2.5202    1.1931    0.1337 N   0  0  0  0  0  0  0  0  0  0  0  0
    3.7608    1.4165   -0.5658 C   0  0  0  0  0  0  0  0  0  0  0  0
    3.7533    2.0446   -1.6604 O   0  0  0  0  0  0  0  0  0  0  0  0
    5.0740    0.9543    0.0121 C   0  0  0  0  0  0  0  0  0  0  0  0
    6.0652    0.5355   -1.0801 C   0  0  0  0  0  0  0  0  0  0  0  0
    7.2460   -0.0805   -0.4814 N   0  0  0  0  0  0  0  0  0  0  0  0
    8.3355    0.5457   -0.0093 C   0  0  0  0  0  0  0  0  0  0  0  0
    9.1687   -0.4092    0.5289 C   0  0  0  0  0  0  0  0  0  0  0  0
    8.6007   -1.6272    0.4069 N   0  0  0  0  0  0  0  0  0  0  0  0
    7.4247   -1.3871   -0.2091 C   0  0  0  0  0  0  0  0  0  0  0  0
    2.4880    1.0235    1.5874 C   0  0  0  0  0  0  0  0  0  0  0  0
    1.0487    1.1354    2.0969 C   0  0  0  0  0  0  0  0  0  0  0  0
    0.1739    0.2228    1.4536 O   0  0  0  0  0  0  0  0  0  0  0  0
   -1.1078    0.4605   -0.5626 C   0  0  0  0  0  0  0  0  0  0  0  0
   -1.2999    0.3018   -1.8003 O   0  0  0  0  0  0  0  0  0  0  0  0
   -4.5385    5.0115   -1.8634 H   0  0  0  0  0  0  0  0  0  0  0  0
   -2.8636    5.2668   -2.5007 H   0  0  0  0  0  0  0  0  0  0  0  0
   -3.6042    6.4807   -1.3912 H   0  0  0  0  0  0  0  0  0  0  0  0
   -1.9516    5.0807   -0.1739 H   0  0  0  0  0  0  0  0  0  0  0  0
   -3.6223    4.8249    0.4609 H   0  0  0  0  0  0  0  0  0  0  0  0
   -3.8368    2.7422   -0.9211 H   0  0  0  0  0  0  0  0  0  0  0  0
   -2.1746    2.9989   -1.5738 H   0  0  0  0  0  0  0  0  0  0  0  0
   -1.2247    2.8093    0.7289 H   0  0  0  0  0  0  0  0  0  0  0  0
   -2.8643    2.6017    1.4169 H   0  0  0  0  0  0  0  0  0  0  0  0
   -4.2590    0.7798    0.6794 H   0  0  0  0  0  0  0  0  0  0  0  0
   -3.5998   -0.4359   -0.4456 H   0  0  0  0  0  0  0  0  0  0  0  0
   -2.1368   -1.2199    1.6395 H   0  0  0  0  0  0  0  0  0  0  0  0
   -3.1824   -0.1698    2.5974 H   0  0  0  0  0  0  0  0  0  0  0  0
   -6.5293   -2.0124    0.7565 H   0  0  0  0  0  0  0  0  0  0  0  0
   -7.2690   -3.5139   -1.0570 H   0  0  0  0  0  0  0  0  0  0  0  0
   -5.6591   -5.0577   -2.1301 H   0  0  0  0  0  0  0  0  0  0  0  0
   -3.3209   -5.1388   -1.3682 H   0  0  0  0  0  0  0  0  0  0  0  0
   -1.7863   -4.7709    0.5415 H   0  0  0  0  0  0  0  0  0  0  0  0
   -2.0267   -3.4119    1.6433 H   0  0  0  0  0  0  0  0  0  0  0  0
   -1.8063   -1.9853   -0.6901 H   0  0  0  0  0  0  0  0  0  0  0  0
   -1.0075   -3.4568   -1.2709 H   0  0  0  0  0  0  0  0  0  0  0  0
   -0.0704   -2.2051    1.3899 H   0  0  0  0  0  0  0  0  0  0  0  0
    0.7686   -3.3065    0.2833 H   0  0  0  0  0  0  0  0  0  0  0  0
    1.8414   -1.3171   -0.1445 H   0  0  0  0  0  0  0  0  0  0  0  0
    0.7007   -1.3758   -1.4973 H   0  0  0  0  0  0  0  0  0  0  0  0
    1.3963    1.0243   -1.6673 H   0  0  0  0  0  0  0  0  0  0  0  0
    0.8225    2.2616   -0.5041 H   0  0  0  0  0  0  0  0  0  0  0  0
    4.9009    0.0811    0.6746 H   0  0  0  0  0  0  0  0  0  0  0  0
    5.5096    1.7752    0.6203 H   0  0  0  0  0  0  0  0  0  0  0  0
    5.5813   -0.1910   -1.7704 H   0  0  0  0  0  0  0  0  0  0  0  0
    6.3712    1.4237   -1.6756 H   0  0  0  0  0  0  0  0  0  0  0  0
    8.5081    1.6141   -0.0448 H   0  0  0  0  0  0  0  0  0  0  0  0
   10.1291   -0.2290    0.9927 H   0  0  0  0  0  0  0  0  0  0  0  0
    6.7035   -2.1593   -0.4453 H   0  0  0  0  0  0  0  0  0  0  0  0
    2.8929    0.0255    1.8572 H   0  0  0  0  0  0  0  0  0  0  0  0
    3.1034    1.8120    2.0714 H   0  0  0  0  0  0  0  0  0  0  0  0
    0.6768    2.1741    1.9689 H   0  0  0  0  0  0  0  0  0  0  0  0
    1.0416    0.9180    3.1857 H   0  0  0  0  0  0  0  0  0  0  0  0
  1  2  1  0
  2  3  1  0
  3  4  1  0
  4  5  1  0
  5  6  1  0
  6  7  1  0
  7  8  1  0
  8  9  1  0
  9 10  2  0
 10 11  1  0
 11 12  2  0
 12 13  1  0
 13 14  2  0
 14 15  1  0
 15 16  1  0
 16 17  1  0
 17 18  1  0
 18 19  1  0
 19 20  1  0
 20 21  1  0
 21 22  1  0
 22 23  2  0
 22 24  1  0
 24 25  1  0
 25 26  1  0
 26 27  1  0
 27 28  2  0
 28 29  1  0
 29 30  2  0
 21 31  1  0
 31 32  1  0
 32 33  1  0
 19 34  1  0
 34 35  2  0
 34  5  1  0
 14  9  1  0
 33 19  1  0
 30 26  1  0
  1 36  1  0
  1 37  1  0
  1 38  1  0
  2 39  1  0
  2 40  1  0
  3 41  1  0
  3 42  1  0
  4 43  1  0
  4 44  1  0
  6 45  1  0
  6 46  1  0
  7 47  1  0
  7 48  1  0
 10 49  1  0
 11 50  1  0
 12 51  1  0
 13 52  1  0
 15 53  1  0
 15 54  1  0
 16 55  1  0
 16 56  1  0
 17 57  1  0
 17 58  1  0
 18 59  1  0
 18 60  1  0
 20 61  1  0
 20 62  1  0
 24 63  1  0
 24 64  1  0
 25 65  1  0
 25 66  1  0
 27 67  1  0
 28 68  1  0
 30 69  1  0
 31 70  1  0
 31 71  1  0
 32 72  1  0
 32 73  1  0
M  END
$$$$
