
     RDKit          3D

 66 69  0  0  0  0  0  0  0  0999 V2000
    6.0620    4.4379   -0.3148 C   0  0  0  0  0  0  0  0  0  0  0  0
    5.8307    2.9496   -0.5632 C   0  0  0  0  0  0  0  0  0  0  0  0
    4.9164    2.3439    0.4629 C   0  0  0  0  0  0  0  0  0  0  0  0
    4.0488    1.2969    0.2407 C   0  0  0  0  0  0  0  0  0  0  0  0
    3.5282    1.0368    1.4938 C   0  0  0  0  0  0  0  0  0  0  0  0
    2.4846    0.0580    1.8506 C   0  0  0  0  0  0  0  0  0  0  0  0
    1.8461    0.2244    2.9283 O   0  0  0  0  0  0  0  0  0  0  0  0
    2.1454   -1.0407    0.9857 N   0  0  0  0  0  0  0  0  0  0  0  0
    3.1878   -1.9468    0.4965 C   0  0  0  0  0  0  0  0  0  0  0  0
    2.5671   -3.0140   -0.4071 C   0  0  0  0  0  0  0  0  0  0  0  0
    1.6064   -2.4252   -1.2674 O   0  0  0  0  0  0  0  0  0  0  0  0
    0.4392   -1.9554   -0.5820 C   0  0  0  0  0  0  0  0  0  0  0  0
   -0.1526   -0.8155   -1.4748 C   0  0  0  0  0  0  0  0  0  0  0  0
    0.4694    0.5982   -1.3486 C   0  0  0  0  0  0  0  0  0  0  0  0
   -0.4218    1.5817   -0.5569 C   0  0  0  0  0  0  0  0  0  0  0  0
   -1.7206    1.9503   -1.3066 C   0  0  0  0  0  0  0  0  0  0  0  0
   -2.8688    2.2245   -0.3603 C   0  0  0  0  0  0  0  0  0  0  0  0
   -3.3403    3.5410   -0.2260 C   0  0  0  0  0  0  0  0  0  0  0  0
   -4.4392    3.8217    0.5840 C   0  0  0  0  0  0  0  0  0  0  0  0
   -5.0832    2.7918    1.2686 C   0  0  0  0  0  0  0  0  0  0  0  0
   -4.6233    1.4789    1.1591 C   0  0  0  0  0  0  0  0  0  0  0  0
   -3.4968    1.1789    0.3637 C   0  0  0  0  0  0  0  0  0  0  0  0
   -2.9736   -0.1273    0.2897 O   0  0  0  0  0  0  0  0  0  0  0  0
   -3.5335   -1.2777    0.9330 C   0  0  0  0  0  0  0  0  0  0  0  0
   -2.5262   -2.4374    0.9701 C   0  0  0  0  0  0  0  0  0  0  0  0
   -2.0069   -2.7990   -0.3598 N   0  0  0  0  0  0  0  0  0  0  0  0
   -2.9226   -3.1988   -1.4388 C   0  0  0  0  0  0  0  0  0  0  0  0
   -3.6538   -4.4959   -1.1001 C   0  0  0  0  0  0  0  0  0  0  0  0
   -0.6012   -3.0798   -0.5300 C   0  0  0  0  0  0  0  0  0  0  0  0
   -0.2379   -4.2777   -0.7041 O   0  0  0  0  0  0  0  0  0  0  0  0
    0.7520   -1.4823    0.8782 C   0  0  0  0  0  0  0  0  0  0  0  0
    4.0765    1.8615    2.3563 O   0  0  0  0  0  0  0  0  0  0  0  0
    4.9237    2.6571    1.7742 N   0  0  0  0  0  0  0  0  0  0  0  0
    5.0969    4.9891   -0.3474 H   0  0  0  0  0  0  0  0  0  0  0  0
    6.5443    4.5946    0.6749 H   0  0  0  0  0  0  0  0  0  0  0  0
    6.7347    4.8452   -1.1002 H   0  0  0  0  0  0  0  0  0  0  0  0
    6.8075    2.4169   -0.5292 H   0  0  0  0  0  0  0  0  0  0  0  0
    5.3914    2.8196   -1.5800 H   0  0  0  0  0  0  0  0  0  0  0  0
    3.8171    0.8232   -0.7039 H   0  0  0  0  0  0  0  0  0  0  0  0
    3.9533   -1.3862   -0.0799 H   0  0  0  0  0  0  0  0  0  0  0  0
    3.6882   -2.4437    1.3556 H   0  0  0  0  0  0  0  0  0  0  0  0
    2.1176   -3.8275    0.2057 H   0  0  0  0  0  0  0  0  0  0  0  0
    3.3617   -3.4834   -1.0256 H   0  0  0  0  0  0  0  0  0  0  0  0
   -1.2380   -0.7353   -1.3294 H   0  0  0  0  0  0  0  0  0  0  0  0
   -0.0559   -1.1300   -2.5381 H   0  0  0  0  0  0  0  0  0  0  0  0
    0.6274    1.0217   -2.3652 H   0  0  0  0  0  0  0  0  0  0  0  0
    1.4719    0.5448   -0.8862 H   0  0  0  0  0  0  0  0  0  0  0  0
   -0.6550    1.1684    0.4407 H   0  0  0  0  0  0  0  0  0  0  0  0
    0.1584    2.5136   -0.3702 H   0  0  0  0  0  0  0  0  0  0  0  0
   -1.5152    2.8395   -1.9396 H   0  0  0  0  0  0  0  0  0  0  0  0
   -2.0382    1.1621   -2.0202 H   0  0  0  0  0  0  0  0  0  0  0  0
   -2.8632    4.3546   -0.7615 H   0  0  0  0  0  0  0  0  0  0  0  0
   -4.7940    4.8389    0.6768 H   0  0  0  0  0  0  0  0  0  0  0  0
   -5.9403    3.0130    1.8881 H   0  0  0  0  0  0  0  0  0  0  0  0
   -5.1483    0.7049    1.7044 H   0  0  0  0  0  0  0  0  0  0  0  0
   -3.7808   -1.0392    1.9895 H   0  0  0  0  0  0  0  0  0  0  0  0
   -4.4688   -1.5840    0.4155 H   0  0  0  0  0  0  0  0  0  0  0  0
   -3.0008   -3.3280    1.4374 H   0  0  0  0  0  0  0  0  0  0  0  0
   -1.7000   -2.1406    1.6458 H   0  0  0  0  0  0  0  0  0  0  0  0
   -3.6583   -2.3895   -1.6357 H   0  0  0  0  0  0  0  0  0  0  0  0
   -2.3564   -3.3472   -2.3854 H   0  0  0  0  0  0  0  0  0  0  0  0
   -4.1636   -4.8819   -2.0091 H   0  0  0  0  0  0  0  0  0  0  0  0
   -4.4211   -4.3137   -0.3191 H   0  0  0  0  0  0  0  0  0  0  0  0
   -2.9331   -5.2614   -0.7423 H   0  0  0  0  0  0  0  0  0  0  0  0
    0.6215   -2.3254    1.5915 H   0  0  0  0  0  0  0  0  0  0  0  0
    0.0574   -0.6927    1.2068 H   0  0  0  0  0  0  0  0  0  0  0  0
  1  2  1  0
  2  3  1  0
  3  4  1  0
  4  5  2  0
  5  6  1  0
  6  7  2  0
  6  8  1  0
  8  9  1  0
  9 10  1  0
 10 11  1  0
 11 12  1  0
 12 13  1  0
 13 14  1  0
 14 15  1  0
 15 16  1  0
 16 17  1  0
 17 18  2  0
 18 19  1  0
 19 20  2  0
 20 21  1  0
 21 22  2  0
 22 23  1  0
 23 24  1  0
 24 25  1  0
 25 26  1  0
 26 27  1  0
 27 28  1  0
 26 29  1  0
 29 30  2  0
 12 31  1  0
  5 32  1  0
 32 33  1  0
 33  3  2  0
 31  8  1  0
 29 12  1  0
 22 17  1  0
  1 34  1  0
  1 35  1  0
  1 36  1  0
  2 37  1  0
  2 38  1  0
  4 39  1  0
  9 40  1  0
  9 41  1  0
 10 42  1  0
 10 43  1  0
 13 44  1  0
 13 45  1  0
 14 46  1  0
 14 47  1  0
 15 48  1  0
 15 49  1  0
 16 50  1  0
 16 51  1  0
 18 52  1  0
 19 53  1  0
 20 54  1  0
 21 55  1  0
 24 56  1  0
 24 57  1  0
 25 58  1  0
 25 59  1  0
 27 60  1  0
 27 61  1  0
 28 62  1  0
 28 63  1  0
 28 64  1  0
 31 65  1  0
 31 66  1  0
M  END
$$$$
