
     RDKit          3D

 68 71  0  0  0  0  0  0  0  0999 V2000
   -1.0764   -3.6278    0.8007 C   0  0  0  0  0  0  0  0  0  0  0  0
   -1.7432   -2.6326   -0.0582 N   0  0  0  0  0  0  0  0  0  0  0  0
   -0.9426   -1.9589   -1.1083 C   0  0  0  0  0  0  0  0  0  0  0  0
   -0.0658   -0.7230   -0.6524 C   0  0  0  0  0  0  0  0  0  0  0  0
    0.7590   -1.0612    0.6261 C   0  0  0  0  0  0  0  0  0  0  0  0
    1.9140   -0.0802    0.8599 C   0  0  0  0  0  0  0  0  0  0  0  0
    2.8067   -0.0288   -0.3063 N   0  0  0  0  0  0  0  0  0  0  0  0
    4.0958    0.6038   -0.1639 C   0  0  0  0  0  0  0  0  0  0  0  0
    4.2693    1.4519    0.7571 O   0  0  0  0  0  0  0  0  0  0  0  0
    5.2321    0.2992   -1.1110 C   0  0  0  0  0  0  0  0  0  0  0  0
    6.5748    0.5053   -0.4557 C   0  0  0  0  0  0  0  0  0  0  0  0
    7.1116   -0.4867    0.3813 C   0  0  0  0  0  0  0  0  0  0  0  0
    8.3314   -0.2762    1.0301 C   0  0  0  0  0  0  0  0  0  0  0  0
    9.0210    0.9291    0.8545 C   0  0  0  0  0  0  0  0  0  0  0  0
   10.5466    1.1959    1.6785 Cl  0  0  0  0  0  0  0  0  0  0  0  0
    8.4887    1.9236    0.0283 C   0  0  0  0  0  0  0  0  0  0  0  0
    7.2687    1.7160   -0.6216 C   0  0  0  0  0  0  0  0  0  0  0  0
    2.4028   -0.6883   -1.5571 C   0  0  0  0  0  0  0  0  0  0  0  0
    0.9229   -0.4050   -1.8511 C   0  0  0  0  0  0  0  0  0  0  0  0
   -0.9365    0.5711   -0.4439 C   0  0  0  0  0  0  0  0  0  0  0  0
   -1.8656    0.6607    0.8009 C   0  0  0  0  0  0  0  0  0  0  0  0
   -1.1485    0.8966    1.9890 O   0  0  0  0  0  0  0  0  0  0  0  0
   -2.9593    1.7555    0.5957 C   0  0  0  0  0  0  0  0  0  0  0  0
   -2.4123    3.0490    0.6873 O   0  0  0  0  0  0  0  0  0  0  0  0
   -4.1786    1.5850    1.5505 C   0  0  0  0  0  0  0  0  0  0  0  0
   -5.4462    1.3403    0.7621 C   0  0  0  0  0  0  0  0  0  0  0  0
   -6.3535    2.3891    0.5346 C   0  0  0  0  0  0  0  0  0  0  0  0
   -7.4608    2.1963   -0.2971 C   0  0  0  0  0  0  0  0  0  0  0  0
   -7.6609    0.9643   -0.9228 C   0  0  0  0  0  0  0  0  0  0  0  0
   -6.7538   -0.0798   -0.7195 C   0  0  0  0  0  0  0  0  0  0  0  0
   -5.6442    0.1041    0.1188 C   0  0  0  0  0  0  0  0  0  0  0  0
   -4.7303   -0.9287    0.3361 O   0  0  0  0  0  0  0  0  0  0  0  0
   -4.0565   -1.6129   -0.7130 C   0  0  0  0  0  0  0  0  0  0  0  0
   -3.1983   -2.6762   -0.0919 C   0  0  0  0  0  0  0  0  0  0  0  0
   -3.8063   -3.6181    0.4925 O   0  0  0  0  0  0  0  0  0  0  0  0
   -1.5782   -4.6154    0.7212 H   0  0  0  0  0  0  0  0  0  0  0  0
   -1.1050   -3.2887    1.8584 H   0  0  0  0  0  0  0  0  0  0  0  0
   -0.0270   -3.8111    0.4962 H   0  0  0  0  0  0  0  0  0  0  0  0
   -0.2621   -2.7240   -1.5465 H   0  0  0  0  0  0  0  0  0  0  0  0
   -1.5807   -1.6707   -1.9678 H   0  0  0  0  0  0  0  0  0  0  0  0
    0.1198   -1.1219    1.5274 H   0  0  0  0  0  0  0  0  0  0  0  0
    1.2318   -2.0564    0.5111 H   0  0  0  0  0  0  0  0  0  0  0  0
    2.4863   -0.4237    1.7496 H   0  0  0  0  0  0  0  0  0  0  0  0
    1.5290    0.9371    1.0734 H   0  0  0  0  0  0  0  0  0  0  0  0
    5.1353    0.9501   -2.0077 H   0  0  0  0  0  0  0  0  0  0  0  0
    5.1642   -0.7566   -1.4530 H   0  0  0  0  0  0  0  0  0  0  0  0
    6.5812   -1.4187    0.5356 H   0  0  0  0  0  0  0  0  0  0  0  0
    8.7353   -1.0466    1.6741 H   0  0  0  0  0  0  0  0  0  0  0  0
    9.0153    2.8604   -0.1050 H   0  0  0  0  0  0  0  0  0  0  0  0
    6.8621    2.5000   -1.2489 H   0  0  0  0  0  0  0  0  0  0  0  0
    2.9974   -0.3111   -2.4156 H   0  0  0  0  0  0  0  0  0  0  0  0
    2.5750   -1.7826   -1.4742 H   0  0  0  0  0  0  0  0  0  0  0  0
    0.6468   -0.9613   -2.7742 H   0  0  0  0  0  0  0  0  0  0  0  0
    0.8674    0.6627   -2.1577 H   0  0  0  0  0  0  0  0  0  0  0  0
   -0.2773    1.4664   -0.4182 H   0  0  0  0  0  0  0  0  0  0  0  0
   -1.5483    0.6919   -1.3644 H   0  0  0  0  0  0  0  0  0  0  0  0
   -2.3613   -0.3136    0.9217 H   0  0  0  0  0  0  0  0  0  0  0  0
   -0.5664    1.6871    1.8501 H   0  0  0  0  0  0  0  0  0  0  0  0
   -3.3285    1.6585   -0.4492 H   0  0  0  0  0  0  0  0  0  0  0  0
   -2.2263    3.2402    1.6436 H   0  0  0  0  0  0  0  0  0  0  0  0
   -4.0220    0.7349    2.2518 H   0  0  0  0  0  0  0  0  0  0  0  0
   -4.3069    2.4818    2.1975 H   0  0  0  0  0  0  0  0  0  0  0  0
   -6.1954    3.3602    0.9863 H   0  0  0  0  0  0  0  0  0  0  0  0
   -8.1566    3.0086   -0.4668 H   0  0  0  0  0  0  0  0  0  0  0  0
   -8.5172    0.8200   -1.5690 H   0  0  0  0  0  0  0  0  0  0  0  0
   -6.9228   -1.0323   -1.2031 H   0  0  0  0  0  0  0  0  0  0  0  0
   -3.4767   -0.8799   -1.3020 H   0  0  0  0  0  0  0  0  0  0  0  0
   -4.7939   -2.0979   -1.3865 H   0  0  0  0  0  0  0  0  0  0  0  0
  1  2  1  0
  2  3  1  0
  3  4  1  0
  4  5  1  0
  5  6  1  0
  6  7  1  0
  7  8  1  0
  8  9  2  0
  8 10  1  0
 10 11  1  0
 11 12  2  0
 12 13  1  0
 13 14  2  0
 14 15  1  0
 14 16  1  0
 16 17  2  0
  7 18  1  0
 18 19  1  0
  4 20  1  0
 20 21  1  0
 21 22  1  0
 21 23  1  0
 23 24  1  0
 23 25  1  0
 25 26  1  0
 26 27  2  0
 27 28  1  0
 28 29  2  0
 29 30  1  0
 30 31  2  0
 31 32  1  0
 32 33  1  0
 33 34  1  0
 34 35  2  0
 34  2  1  0
 19  4  1  0
 31 26  1  0
 17 11  1  0
  1 36  1  0
  1 37  1  0
  1 38  1  0
  3 39  1  0
  3 40  1  0
  5 41  1  0
  5 42  1  0
  6 43  1  0
  6 44  1  0
 10 45  1  0
 10 46  1  0
 12 47  1  0
 13 48  1  0
 16 49  1  0
 17 50  1  0
 18 51  1  0
 18 52  1  0
 19 53  1  0
 19 54  1  0
 20 55  1  0
 20 56  1  0
 21 57  1  0
 22 58  1  0
 23 59  1  0
 24 60  1  0
 25 61  1  0
 25 62  1  0
 27 63  1  0
 28 64  1  0
 29 65  1  0
 30 66  1  0
 33 67  1  0
 33 68  1  0
M  END
$$$$
