
     RDKit          3D

 71 74  0  0  0  0  0  0  0  0999 V2000
    7.7822    0.3060    0.6700 C   0  0  0  0  0  0  0  0  0  0  0  0
    6.8239   -0.7544    0.2010 C   0  0  0  0  0  0  0  0  0  0  0  0
    7.3024   -1.8668   -0.5122 C   0  0  0  0  0  0  0  0  0  0  0  0
    6.4187   -2.8545   -0.9540 C   0  0  0  0  0  0  0  0  0  0  0  0
    5.0522   -2.7423   -0.6892 C   0  0  0  0  0  0  0  0  0  0  0  0
    4.5623   -1.6373    0.0141 C   0  0  0  0  0  0  0  0  0  0  0  0
    5.4433   -0.6293    0.4637 C   0  0  0  0  0  0  0  0  0  0  0  0
    4.9895    0.5026    1.1688 O   0  0  0  0  0  0  0  0  0  0  0  0
    3.6268    0.7777    1.4981 C   0  0  0  0  0  0  0  0  0  0  0  0
    2.8328    1.1730    0.2772 C   0  0  0  0  0  0  0  0  0  0  0  0
    3.4566    1.4854   -0.7761 O   0  0  0  0  0  0  0  0  0  0  0  0
    1.3854    1.2442    0.3058 N   0  0  0  0  0  0  0  0  0  0  0  0
    0.6797    1.3378   -0.9931 C   0  0  0  0  0  0  0  0  0  0  0  0
    0.7437    0.0109   -1.7790 C   0  0  0  0  0  0  0  0  0  0  0  0
   -0.1017   -1.1178   -1.1619 C   0  0  0  0  0  0  0  0  0  0  0  0
   -1.6166   -0.8935   -1.3868 C   0  0  0  0  0  0  0  0  0  0  0  0
   -2.5951   -1.9994   -0.8480 C   0  0  0  0  0  0  0  0  0  0  0  0
   -2.3142   -3.3234   -1.6182 C   0  0  0  0  0  0  0  0  0  0  0  0
   -3.2641   -4.3139   -1.3200 O   0  0  0  0  0  0  0  0  0  0  0  0
   -2.4437   -2.2459    0.6936 C   0  0  0  0  0  0  0  0  0  0  0  0
   -3.4080   -1.4330    1.5812 C   0  0  0  0  0  0  0  0  0  0  0  0
   -3.8139   -0.1810    0.9348 N   0  0  0  0  0  0  0  0  0  0  0  0
   -4.4161   -0.2325   -0.4091 C   0  0  0  0  0  0  0  0  0  0  0  0
   -4.0572   -1.5417   -1.1400 C   0  0  0  0  0  0  0  0  0  0  0  0
   -3.7325    1.0658    1.6632 C   0  0  0  0  0  0  0  0  0  0  0  0
   -3.6959    1.0608    2.9236 O   0  0  0  0  0  0  0  0  0  0  0  0
   -3.7124    2.3643    0.9703 C   0  0  0  0  0  0  0  0  0  0  0  0
   -4.9517    2.8978    0.5764 C   0  0  0  0  0  0  0  0  0  0  0  0
   -5.0253    4.1458   -0.0434 C   0  0  0  0  0  0  0  0  0  0  0  0
   -3.8659    4.8798   -0.2744 C   0  0  0  0  0  0  0  0  0  0  0  0
   -2.6271    4.3692    0.1151 C   0  0  0  0  0  0  0  0  0  0  0  0
   -2.5210    3.1170    0.7382 C   0  0  0  0  0  0  0  0  0  0  0  0
   -1.2133    2.7085    1.0731 O   0  0  0  0  0  0  0  0  0  0  0  0
   -0.8063    1.4603    1.6245 C   0  0  0  0  0  0  0  0  0  0  0  0
    0.7218    1.3423    1.6308 C   0  0  0  0  0  0  0  0  0  0  0  0
    7.5470    1.2690    0.1681 H   0  0  0  0  0  0  0  0  0  0  0  0
    8.8373    0.0367    0.4433 H   0  0  0  0  0  0  0  0  0  0  0  0
    7.6909    0.4380    1.7688 H   0  0  0  0  0  0  0  0  0  0  0  0
    8.3600   -1.9723   -0.7242 H   0  0  0  0  0  0  0  0  0  0  0  0
    6.7937   -3.7104   -1.5010 H   0  0  0  0  0  0  0  0  0  0  0  0
    4.3703   -3.5111   -1.0329 H   0  0  0  0  0  0  0  0  0  0  0  0
    3.4978   -1.5774    0.1985 H   0  0  0  0  0  0  0  0  0  0  0  0
    3.6065    1.6228    2.2178 H   0  0  0  0  0  0  0  0  0  0  0  0
    3.1808   -0.1096    1.9981 H   0  0  0  0  0  0  0  0  0  0  0  0
    1.1556    2.1338   -1.6071 H   0  0  0  0  0  0  0  0  0  0  0  0
   -0.3650    1.6665   -0.8959 H   0  0  0  0  0  0  0  0  0  0  0  0
    0.4071    0.1938   -2.8237 H   0  0  0  0  0  0  0  0  0  0  0  0
    1.7995   -0.3303   -1.8402 H   0  0  0  0  0  0  0  0  0  0  0  0
    0.2030   -2.0675   -1.6477 H   0  0  0  0  0  0  0  0  0  0  0  0
    0.1564   -1.1893   -0.0900 H   0  0  0  0  0  0  0  0  0  0  0  0
   -1.7836   -0.7894   -2.4843 H   0  0  0  0  0  0  0  0  0  0  0  0
   -1.8859    0.0856   -0.9582 H   0  0  0  0  0  0  0  0  0  0  0  0
   -1.3187   -3.7215   -1.3286 H   0  0  0  0  0  0  0  0  0  0  0  0
   -2.2829   -3.1367   -2.7176 H   0  0  0  0  0  0  0  0  0  0  0  0
   -3.9738   -4.2632   -2.0141 H   0  0  0  0  0  0  0  0  0  0  0  0
   -2.6298   -3.3170    0.9298 H   0  0  0  0  0  0  0  0  0  0  0  0
   -1.4104   -2.0666    1.0401 H   0  0  0  0  0  0  0  0  0  0  0  0
   -4.3181   -2.0332    1.7945 H   0  0  0  0  0  0  0  0  0  0  0  0
   -2.9083   -1.2410    2.5529 H   0  0  0  0  0  0  0  0  0  0  0  0
   -4.0612    0.6236   -1.0243 H   0  0  0  0  0  0  0  0  0  0  0  0
   -5.5216   -0.1396   -0.3250 H   0  0  0  0  0  0  0  0  0  0  0  0
   -4.2132   -1.4051   -2.2326 H   0  0  0  0  0  0  0  0  0  0  0  0
   -4.7706   -2.3243   -0.8021 H   0  0  0  0  0  0  0  0  0  0  0  0
   -5.8686    2.3496    0.7581 H   0  0  0  0  0  0  0  0  0  0  0  0
   -5.9858    4.5444   -0.3432 H   0  0  0  0  0  0  0  0  0  0  0  0
   -3.9262    5.8481   -0.7530 H   0  0  0  0  0  0  0  0  0  0  0  0
   -1.7336    4.9514   -0.0728 H   0  0  0  0  0  0  0  0  0  0  0  0
   -1.1600    1.3996    2.6743 H   0  0  0  0  0  0  0  0  0  0  0  0
   -1.2242    0.6137    1.0562 H   0  0  0  0  0  0  0  0  0  0  0  0
    1.1346    2.2167    2.1822 H   0  0  0  0  0  0  0  0  0  0  0  0
    0.9621    0.4297    2.2176 H   0  0  0  0  0  0  0  0  0  0  0  0
  1  2  1  0
  2  3  2  0
  3  4  1  0
  4  5  2  0
  5  6  1  0
  6  7  2  0
  7  8  1  0
  8  9  1  0
  9 10  1  0
 10 11  2  0
 10 12  1  0
 12 13  1  0
 13 14  1  0
 14 15  1  0
 15 16  1  0
 16 17  1  0
 17 18  1  0
 18 19  1  0
 17 20  1  0
 20 21  1  0
 21 22  1  0
 22 23  1  0
 23 24  1  0
 22 25  1  0
 25 26  2  0
 25 27  1  0
 27 28  2  0
 28 29  1  0
 29 30  2  0
 30 31  1  0
 31 32  2  0
 32 33  1  0
 33 34  1  0
 34 35  1  0
  7  2  1  0
 35 12  1  0
 24 17  1  0
 32 27  1  0
  1 36  1  0
  1 37  1  0
  1 38  1  0
  3 39  1  0
  4 40  1  0
  5 41  1  0
  6 42  1  0
  9 43  1  0
  9 44  1  0
 13 45  1  0
 13 46  1  0
 14 47  1  0
 14 48  1  0
 15 49  1  0
 15 50  1  0
 16 51  1  0
 16 52  1  0
 18 53  1  0
 18 54  1  0
 19 55  1  0
 20 56  1  0
 20 57  1  0
 21 58  1  0
 21 59  1  0
 23 60  1  0
 23 61  1  0
 24 62  1  0
 24 63  1  0
 28 64  1  0
 29 65  1  0
 30 66  1  0
 31 67  1  0
 34 68  1  0
 34 69  1  0
 35 70  1  0
 35 71  1  0
M  END
$$$$
