
     RDKit          3D

 65 69  0  0  0  0  0  0  0  0999 V2000
   -3.2556    3.3229   -0.4493 O   0  0  0  0  0  0  0  0  0  0  0  0
   -3.0777    2.0845   -0.6073 C   0  0  0  0  0  0  0  0  0  0  0  0
   -4.1116    1.1385   -0.1312 C   0  0  0  0  0  0  0  0  0  0  0  0
   -4.8831    1.4464    1.0118 C   0  0  0  0  0  0  0  0  0  0  0  0
   -5.8691    0.5574    1.4644 C   0  0  0  0  0  0  0  0  0  0  0  0
   -6.0859   -0.6249    0.7555 C   0  0  0  0  0  0  0  0  0  0  0  0
   -5.3562   -0.9225   -0.3643 C   0  0  0  0  0  0  0  0  0  0  0  0
   -4.3617   -0.0607   -0.8306 C   0  0  0  0  0  0  0  0  0  0  0  0
   -5.7475   -2.2221   -0.9553 C   0  0  0  0  0  0  0  0  0  0  0  0
   -6.9408   -2.6773   -0.0934 C   0  0  0  0  0  0  0  0  0  0  0  0
   -7.0763   -1.6792    1.0721 C   0  0  0  0  0  0  0  0  0  0  0  0
   -1.8776    1.6214   -1.2511 N   0  0  0  0  0  0  0  0  0  0  0  0
   -1.3386    2.3531   -2.3969 C   0  0  0  0  0  0  0  0  0  0  0  0
   -0.0558    1.6796   -2.8835 C   0  0  0  0  0  0  0  0  0  0  0  0
    0.8489    1.5174   -1.8094 O   0  0  0  0  0  0  0  0  0  0  0  0
    0.3688    0.6795   -0.7480 C   0  0  0  0  0  0  0  0  0  0  0  0
    0.7018    1.3936    0.6039 C   0  0  0  0  0  0  0  0  0  0  0  0
    1.9921    2.2592    0.6547 C   0  0  0  0  0  0  0  0  0  0  0  0
    3.2728    1.5120    1.0737 C   0  0  0  0  0  0  0  0  0  0  0  0
    4.0720    0.9850   -0.1269 C   0  0  0  0  0  0  0  0  0  0  0  0
    5.3351    0.2590    0.2872 C   0  0  0  0  0  0  0  0  0  0  0  0
    6.5835    0.7703   -0.1134 C   0  0  0  0  0  0  0  0  0  0  0  0
    7.7667    0.1143    0.2350 C   0  0  0  0  0  0  0  0  0  0  0  0
    7.7205   -1.0597    0.9876 C   0  0  0  0  0  0  0  0  0  0  0  0
    6.4913   -1.5821    1.3925 C   0  0  0  0  0  0  0  0  0  0  0  0
    5.2980   -0.9387    1.0430 C   0  0  0  0  0  0  0  0  0  0  0  0
    4.0933   -1.4709    1.5039 O   0  0  0  0  0  0  0  0  0  0  0  0
    3.2212   -2.2462    0.6868 C   0  0  0  0  0  0  0  0  0  0  0  0
    1.7759   -2.0596    1.1852 C   0  0  0  0  0  0  0  0  0  0  0  0
    0.8277   -1.7027    0.1255 N   0  0  0  0  0  0  0  0  0  0  0  0
    1.0599   -0.6716   -0.8456 C   0  0  0  0  0  0  0  0  0  0  0  0
    1.6965   -0.9618   -1.8961 O   0  0  0  0  0  0  0  0  0  0  0  0
   -1.1762    0.4191   -0.7912 C   0  0  0  0  0  0  0  0  0  0  0  0
   -4.7118    2.3664    1.5580 H   0  0  0  0  0  0  0  0  0  0  0  0
   -6.4541    0.7888    2.3452 H   0  0  0  0  0  0  0  0  0  0  0  0
   -3.8179   -0.3073   -1.7328 H   0  0  0  0  0  0  0  0  0  0  0  0
   -6.0444   -2.0955   -2.0195 H   0  0  0  0  0  0  0  0  0  0  0  0
   -4.9047   -2.9425   -0.8735 H   0  0  0  0  0  0  0  0  0  0  0  0
   -7.8709   -2.6724   -0.7043 H   0  0  0  0  0  0  0  0  0  0  0  0
   -6.7737   -3.7071    0.2928 H   0  0  0  0  0  0  0  0  0  0  0  0
   -6.8158   -2.1634    2.0378 H   0  0  0  0  0  0  0  0  0  0  0  0
   -8.1005   -1.2514    1.1173 H   0  0  0  0  0  0  0  0  0  0  0  0
   -1.1097    3.3999   -2.0990 H   0  0  0  0  0  0  0  0  0  0  0  0
   -2.0870    2.3643   -3.2182 H   0  0  0  0  0  0  0  0  0  0  0  0
    0.4193    2.3245   -3.6527 H   0  0  0  0  0  0  0  0  0  0  0  0
   -0.2769    0.6991   -3.3629 H   0  0  0  0  0  0  0  0  0  0  0  0
   -0.1294    2.1049    0.8141 H   0  0  0  0  0  0  0  0  0  0  0  0
    0.6770    0.6811    1.4530 H   0  0  0  0  0  0  0  0  0  0  0  0
    1.8189    3.0343    1.4340 H   0  0  0  0  0  0  0  0  0  0  0  0
    2.1521    2.8323   -0.2828 H   0  0  0  0  0  0  0  0  0  0  0  0
    3.9282    2.2250    1.6208 H   0  0  0  0  0  0  0  0  0  0  0  0
    3.0193    0.7062    1.7875 H   0  0  0  0  0  0  0  0  0  0  0  0
    3.4595    0.3084   -0.7363 H   0  0  0  0  0  0  0  0  0  0  0  0
    4.3236    1.8465   -0.7854 H   0  0  0  0  0  0  0  0  0  0  0  0
    6.6455    1.6770   -0.7008 H   0  0  0  0  0  0  0  0  0  0  0  0
    8.7213    0.5189   -0.0779 H   0  0  0  0  0  0  0  0  0  0  0  0
    8.6391   -1.5626    1.2622 H   0  0  0  0  0  0  0  0  0  0  0  0
    6.4632   -2.4875    1.9848 H   0  0  0  0  0  0  0  0  0  0  0  0
    3.5123   -3.3156    0.7723 H   0  0  0  0  0  0  0  0  0  0  0  0
    3.3437   -1.9717   -0.3787 H   0  0  0  0  0  0  0  0  0  0  0  0
    1.7337   -1.2868    1.9800 H   0  0  0  0  0  0  0  0  0  0  0  0
    1.4382   -3.0050    1.6625 H   0  0  0  0  0  0  0  0  0  0  0  0
   -0.1554   -2.0377    0.2417 H   0  0  0  0  0  0  0  0  0  0  0  0
   -1.4095   -0.4094   -1.4971 H   0  0  0  0  0  0  0  0  0  0  0  0
   -1.5451    0.1051    0.2114 H   0  0  0  0  0  0  0  0  0  0  0  0
  1  2  2  0
  2  3  1  0
  3  4  2  0
  4  5  1  0
  5  6  2  0
  6  7  1  0
  7  8  2  0
  7  9  1  0
  9 10  1  0
 10 11  1  0
  2 12  1  0
 12 13  1  0
 13 14  1  0
 14 15  1  0
 15 16  1  0
 16 17  1  0
 17 18  1  0
 18 19  1  0
 19 20  1  0
 20 21  1  0
 21 22  2  0
 22 23  1  0
 23 24  2  0
 24 25  1  0
 25 26  2  0
 26 27  1  0
 27 28  1  0
 28 29  1  0
 29 30  1  0
 30 31  1  0
 31 32  2  0
 16 33  1  0
  8  3  1  0
 33 12  1  0
 11  6  1  0
 31 16  1  0
 26 21  1  0
  4 34  1  0
  5 35  1  0
  8 36  1  0
  9 37  1  0
  9 38  1  0
 10 39  1  0
 10 40  1  0
 11 41  1  0
 11 42  1  0
 13 43  1  0
 13 44  1  0
 14 45  1  0
 14 46  1  0
 17 47  1  0
 17 48  1  0
 18 49  1  0
 18 50  1  0
 19 51  1  0
 19 52  1  0
 20 53  1  0
 20 54  1  0
 22 55  1  0
 23 56  1  0
 24 57  1  0
 25 58  1  0
 28 59  1  0
 28 60  1  0
 29 61  1  0
 29 62  1  0
 30 63  1  0
 33 64  1  0
 33 65  1  0
M  END
$$$$
