
     RDKit          3D

 81 84  0  0  0  0  0  0  0  0999 V2000
   -9.3214    2.1159    0.9123 C   0  0  0  0  0  0  0  0  0  0  0  0
   -7.9142    1.9539    0.7638 O   0  0  0  0  0  0  0  0  0  0  0  0
   -7.2179    0.7621    1.0258 C   0  0  0  0  0  0  0  0  0  0  0  0
   -7.8685   -0.3966    1.4964 C   0  0  0  0  0  0  0  0  0  0  0  0
   -7.1418   -1.5597    1.7492 C   0  0  0  0  0  0  0  0  0  0  0  0
   -5.7639   -1.5830    1.5358 C   0  0  0  0  0  0  0  0  0  0  0  0
   -5.1077   -0.4439    1.0708 C   0  0  0  0  0  0  0  0  0  0  0  0
   -5.8304    0.7381    0.8084 C   0  0  0  0  0  0  0  0  0  0  0  0
   -5.2108    1.9041    0.3245 O   0  0  0  0  0  0  0  0  0  0  0  0
   -3.8353    2.0109   -0.0420 C   0  0  0  0  0  0  0  0  0  0  0  0
   -3.5374    1.1889   -1.2700 C   0  0  0  0  0  0  0  0  0  0  0  0
   -4.4913    0.8744   -2.0358 O   0  0  0  0  0  0  0  0  0  0  0  0
   -2.1865    0.8066   -1.6181 N   0  0  0  0  0  0  0  0  0  0  0  0
   -1.0826    1.7485   -1.3352 C   0  0  0  0  0  0  0  0  0  0  0  0
   -0.5238    1.5953    0.1006 C   0  0  0  0  0  0  0  0  0  0  0  0
    0.9760    1.2353    0.1263 C   0  0  0  0  0  0  0  0  0  0  0  0
    1.1592   -0.2303   -0.2983 C   0  0  0  0  0  0  0  0  0  0  0  0
    2.5929   -0.8249   -0.4224 C   0  0  0  0  0  0  0  0  0  0  0  0
    3.4396   -0.0290   -1.4680 C   0  0  0  0  0  0  0  0  0  0  0  0
    4.9457   -0.2238   -1.2301 C   0  0  0  0  0  0  0  0  0  0  0  0
    5.3865    0.2463    0.1100 N   0  0  0  0  0  0  0  0  0  0  0  0
    6.1083    1.5339    0.0342 C   0  0  0  0  0  0  0  0  0  0  0  0
    6.9311    1.7490    1.2738 C   0  0  0  0  0  0  0  0  0  0  0  0
    6.6018    2.7536    2.1968 C   0  0  0  0  0  0  0  0  0  0  0  0
    7.3867    2.9165    3.3413 C   0  0  0  0  0  0  0  0  0  0  0  0
    8.4818    2.0769    3.5579 C   0  0  0  0  0  0  0  0  0  0  0  0
    8.7788    1.0838    2.6200 C   0  0  0  0  0  0  0  0  0  0  0  0
    8.0031    0.9418    1.5113 N   0  0  0  0  0  0  0  0  0  0  0  0
    4.3021    0.2974    1.1239 C   0  0  0  0  0  0  0  0  0  0  0  0
    3.3156   -0.8673    0.9596 C   0  0  0  0  0  0  0  0  0  0  0  0
    2.3837   -2.2595   -0.9075 C   0  0  0  0  0  0  0  0  0  0  0  0
    3.1509   -2.7773   -1.7668 O   0  0  0  0  0  0  0  0  0  0  0  0
    1.3125   -3.0064   -0.3979 O   0  0  0  0  0  0  0  0  0  0  0  0
    0.5471   -3.9036   -1.2018 C   0  0  0  0  0  0  0  0  0  0  0  0
   -0.4500   -3.1266   -2.0963 C   0  0  0  0  0  0  0  0  0  0  0  0
   -0.9675   -3.9679   -3.0989 O   0  0  0  0  0  0  0  0  0  0  0  0
   -1.6000   -2.4641   -1.2830 C   0  0  0  0  0  0  0  0  0  0  0  0
   -2.3400   -3.4678   -0.6324 O   0  0  0  0  0  0  0  0  0  0  0  0
   -2.5536   -1.6281   -2.1742 C   0  0  0  0  0  0  0  0  0  0  0  0
   -1.9907   -0.2583   -2.6273 C   0  0  0  0  0  0  0  0  0  0  0  0
   -9.6166    1.9510    1.9716 H   0  0  0  0  0  0  0  0  0  0  0  0
   -9.8587    1.4049    0.2502 H   0  0  0  0  0  0  0  0  0  0  0  0
   -9.5966    3.1512    0.6203 H   0  0  0  0  0  0  0  0  0  0  0  0
   -8.9340   -0.4041    1.6732 H   0  0  0  0  0  0  0  0  0  0  0  0
   -7.6477   -2.4470    2.1086 H   0  0  0  0  0  0  0  0  0  0  0  0
   -5.2019   -2.4873    1.7286 H   0  0  0  0  0  0  0  0  0  0  0  0
   -4.0394   -0.4929    0.9186 H   0  0  0  0  0  0  0  0  0  0  0  0
   -3.2033    1.7056    0.8150 H   0  0  0  0  0  0  0  0  0  0  0  0
   -3.6134    3.0753   -0.2645 H   0  0  0  0  0  0  0  0  0  0  0  0
   -1.4411    2.7924   -1.4760 H   0  0  0  0  0  0  0  0  0  0  0  0
   -0.2737    1.6353   -2.0889 H   0  0  0  0  0  0  0  0  0  0  0  0
   -1.0944    0.8285    0.6693 H   0  0  0  0  0  0  0  0  0  0  0  0
   -0.6582    2.5597    0.6390 H   0  0  0  0  0  0  0  0  0  0  0  0
    1.3580    1.3726    1.1619 H   0  0  0  0  0  0  0  0  0  0  0  0
    1.5135    1.9414   -0.5384 H   0  0  0  0  0  0  0  0  0  0  0  0
    0.6005   -0.8308    0.4534 H   0  0  0  0  0  0  0  0  0  0  0  0
    0.6674   -0.3652   -1.2802 H   0  0  0  0  0  0  0  0  0  0  0  0
    3.1745   -0.3280   -2.5064 H   0  0  0  0  0  0  0  0  0  0  0  0
    3.2568    1.0602   -1.4119 H   0  0  0  0  0  0  0  0  0  0  0  0
    5.1942   -1.3014   -1.3174 H   0  0  0  0  0  0  0  0  0  0  0  0
    5.4990    0.2768   -2.0540 H   0  0  0  0  0  0  0  0  0  0  0  0
    6.8240    1.5336   -0.8189 H   0  0  0  0  0  0  0  0  0  0  0  0
    5.4008    2.3766   -0.1390 H   0  0  0  0  0  0  0  0  0  0  0  0
    5.7463    3.3996    2.0392 H   0  0  0  0  0  0  0  0  0  0  0  0
    7.1416    3.6886    4.0607 H   0  0  0  0  0  0  0  0  0  0  0  0
    9.0908    2.1921    4.4476 H   0  0  0  0  0  0  0  0  0  0  0  0
    9.6220    0.4229    2.7783 H   0  0  0  0  0  0  0  0  0  0  0  0
    4.7504    0.2388    2.1397 H   0  0  0  0  0  0  0  0  0  0  0  0
    3.7462    1.2581    1.0633 H   0  0  0  0  0  0  0  0  0  0  0  0
    2.5839   -0.8561    1.7965 H   0  0  0  0  0  0  0  0  0  0  0  0
    3.9017   -1.8106    1.0651 H   0  0  0  0  0  0  0  0  0  0  0  0
    0.0002   -4.6076   -0.5402 H   0  0  0  0  0  0  0  0  0  0  0  0
    1.2264   -4.5170   -1.8342 H   0  0  0  0  0  0  0  0  0  0  0  0
    0.1291   -2.3321   -2.6100 H   0  0  0  0  0  0  0  0  0  0  0  0
   -1.3387   -4.7795   -2.6577 H   0  0  0  0  0  0  0  0  0  0  0  0
   -1.1597   -1.7939   -0.5181 H   0  0  0  0  0  0  0  0  0  0  0  0
   -2.8477   -3.0238    0.0973 H   0  0  0  0  0  0  0  0  0  0  0  0
   -2.8165   -2.2196   -3.0765 H   0  0  0  0  0  0  0  0  0  0  0  0
   -3.5075   -1.4696   -1.6298 H   0  0  0  0  0  0  0  0  0  0  0  0
   -0.9262   -0.3574   -2.9147 H   0  0  0  0  0  0  0  0  0  0  0  0
   -2.5198    0.0434   -3.5573 H   0  0  0  0  0  0  0  0  0  0  0  0
  1  2  1  0
  2  3  1  0
  3  4  2  0
  4  5  1  0
  5  6  2  0
  6  7  1  0
  7  8  2  0
  8  9  1  0
  9 10  1  0
 10 11  1  0
 11 12  2  0
 11 13  1  0
 13 14  1  0
 14 15  1  0
 15 16  1  0
 16 17  1  0
 17 18  1  0
 18 19  1  0
 19 20  1  0
 20 21  1  0
 21 22  1  0
 22 23  1  0
 23 24  2  0
 24 25  1  0
 25 26  2  0
 26 27  1  0
 27 28  2  0
 21 29  1  0
 29 30  1  0
 18 31  1  0
 31 32  2  0
 31 33  1  0
 33 34  1  0
 34 35  1  0
 35 36  1  0
 35 37  1  0
 37 38  1  0
 37 39  1  0
 39 40  1  0
  8  3  1  0
 40 13  1  0
 30 18  1  0
 28 23  1  0
  1 41  1  0
  1 42  1  0
  1 43  1  0
  4 44  1  0
  5 45  1  0
  6 46  1  0
  7 47  1  0
 10 48  1  0
 10 49  1  0
 14 50  1  0
 14 51  1  0
 15 52  1  0
 15 53  1  0
 16 54  1  0
 16 55  1  0
 17 56  1  0
 17 57  1  0
 19 58  1  0
 19 59  1  0
 20 60  1  0
 20 61  1  0
 22 62  1  0
 22 63  1  0
 24 64  1  0
 25 65  1  0
 26 66  1  0
 27 67  1  0
 29 68  1  0
 29 69  1  0
 30 70  1  0
 30 71  1  0
 34 72  1  0
 34 73  1  0
 35 74  1  0
 36 75  1  0
 37 76  1  0
 38 77  1  0
 39 78  1  0
 39 79  1  0
 40 80  1  0
 40 81  1  0
M  END
$$$$
