
     RDKit          3D

 71 73  0  0  0  0  0  0  0  0999 V2000
   -1.7494    5.0678    2.5853 C   0  0  0  0  0  0  0  0  0  0  0  0
   -2.4539    4.8842    1.2406 C   0  0  0  0  0  0  0  0  0  0  0  0
   -2.3868    3.4355    0.7319 C   0  0  0  0  0  0  0  0  0  0  0  0
   -1.0049    3.0741    0.1679 C   0  0  0  0  0  0  0  0  0  0  0  0
   -0.9403    1.6497   -0.1893 N   0  0  0  0  0  0  0  0  0  0  0  0
   -1.3129    1.2218   -1.5507 C   0  0  0  0  0  0  0  0  0  0  0  0
   -2.7451    0.6909   -1.6203 C   0  0  0  0  0  0  0  0  0  0  0  0
   -2.9369   -0.3366   -0.6556 O   0  0  0  0  0  0  0  0  0  0  0  0
   -4.0735   -1.1559   -0.5656 C   0  0  0  0  0  0  0  0  0  0  0  0
   -5.1426   -1.0556   -1.4780 C   0  0  0  0  0  0  0  0  0  0  0  0
   -6.2416   -1.9111   -1.3741 C   0  0  0  0  0  0  0  0  0  0  0  0
   -6.2876   -2.8726   -0.3640 C   0  0  0  0  0  0  0  0  0  0  0  0
   -5.2393   -2.9749    0.5539 C   0  0  0  0  0  0  0  0  0  0  0  0
   -4.1367   -2.1099    0.4698 C   0  0  0  0  0  0  0  0  0  0  0  0
   -3.0206   -2.2066    1.4777 C   0  0  0  0  0  0  0  0  0  0  0  0
   -1.8522   -3.0739    0.9633 C   0  0  0  0  0  0  0  0  0  0  0  0
   -0.4764   -2.4687    1.3158 C   0  0  0  0  0  0  0  0  0  0  0  0
    0.1365   -1.6266    0.1610 C   0  0  0  0  0  0  0  0  0  0  0  0
    0.7016   -0.2405    0.5905 C   0  0  0  0  0  0  0  0  0  0  0  0
    1.6725    0.2884   -0.5361 C   0  0  0  0  0  0  0  0  0  0  0  0
    3.0856    0.0472   -0.2067 N   0  0  0  0  0  0  0  0  0  0  0  0
    4.0475   -0.1240   -1.2711 C   0  0  0  0  0  0  0  0  0  0  0  0
    3.7210    0.1520   -2.4585 O   0  0  0  0  0  0  0  0  0  0  0  0
    5.4651   -0.5562   -0.9862 C   0  0  0  0  0  0  0  0  0  0  0  0
    6.1018   -1.1195   -2.1959 N   0  0  0  0  0  0  0  0  0  0  0  0
    7.5661   -1.0972   -2.0592 C   0  0  0  0  0  0  0  0  0  0  0  0
    5.6493   -2.5030   -2.4275 C   0  0  0  0  0  0  0  0  0  0  0  0
    3.5464    0.2903    1.1645 C   0  0  0  0  0  0  0  0  0  0  0  0
    2.3565    0.5552    2.0769 C   0  0  0  0  0  0  0  0  0  0  0  0
    1.3783   -0.4315    1.8361 O   0  0  0  0  0  0  0  0  0  0  0  0
   -0.4704    0.7206    0.8161 C   0  0  0  0  0  0  0  0  0  0  0  0
   -1.0033    0.7522    1.9592 O   0  0  0  0  0  0  0  0  0  0  0  0
   -1.9368    6.0946    2.9638 H   0  0  0  0  0  0  0  0  0  0  0  0
   -0.6532    4.9349    2.4792 H   0  0  0  0  0  0  0  0  0  0  0  0
   -2.1377    4.3412    3.3317 H   0  0  0  0  0  0  0  0  0  0  0  0
   -2.0145    5.5757    0.4902 H   0  0  0  0  0  0  0  0  0  0  0  0
   -3.5214    5.1638    1.3681 H   0  0  0  0  0  0  0  0  0  0  0  0
   -2.6719    2.7363    1.5464 H   0  0  0  0  0  0  0  0  0  0  0  0
   -3.1367    3.3260   -0.0772 H   0  0  0  0  0  0  0  0  0  0  0  0
   -0.7955    3.7051   -0.7226 H   0  0  0  0  0  0  0  0  0  0  0  0
   -0.2095    3.3022    0.9091 H   0  0  0  0  0  0  0  0  0  0  0  0
   -1.2231    2.0726   -2.2600 H   0  0  0  0  0  0  0  0  0  0  0  0
   -0.6304    0.4409   -1.9246 H   0  0  0  0  0  0  0  0  0  0  0  0
   -2.9023    0.2775   -2.6416 H   0  0  0  0  0  0  0  0  0  0  0  0
   -3.4762    1.5095   -1.4483 H   0  0  0  0  0  0  0  0  0  0  0  0
   -5.1333   -0.3216   -2.2719 H   0  0  0  0  0  0  0  0  0  0  0  0
   -7.0579   -1.8291   -2.0809 H   0  0  0  0  0  0  0  0  0  0  0  0
   -7.1389   -3.5369   -0.2899 H   0  0  0  0  0  0  0  0  0  0  0  0
   -5.2921   -3.7213    1.3369 H   0  0  0  0  0  0  0  0  0  0  0  0
   -2.6862   -1.1785    1.7265 H   0  0  0  0  0  0  0  0  0  0  0  0
   -3.4008   -2.6312    2.4340 H   0  0  0  0  0  0  0  0  0  0  0  0
   -1.9266   -3.2579   -0.1321 H   0  0  0  0  0  0  0  0  0  0  0  0
   -1.9345   -4.0750    1.4431 H   0  0  0  0  0  0  0  0  0  0  0  0
    0.2234   -3.3036    1.5400 H   0  0  0  0  0  0  0  0  0  0  0  0
   -0.5533   -1.8915    2.2618 H   0  0  0  0  0  0  0  0  0  0  0  0
   -0.5966   -1.4888   -0.6593 H   0  0  0  0  0  0  0  0  0  0  0  0
    0.9642   -2.2281   -0.2786 H   0  0  0  0  0  0  0  0  0  0  0  0
    1.4344   -0.1912   -1.5094 H   0  0  0  0  0  0  0  0  0  0  0  0
    1.5527    1.3841   -0.6763 H   0  0  0  0  0  0  0  0  0  0  0  0
    6.0122    0.3503   -0.6443 H   0  0  0  0  0  0  0  0  0  0  0  0
    5.4860   -1.2966   -0.1560 H   0  0  0  0  0  0  0  0  0  0  0  0
    7.8973   -1.6723   -1.1658 H   0  0  0  0  0  0  0  0  0  0  0  0
    7.9236   -0.0487   -1.9702 H   0  0  0  0  0  0  0  0  0  0  0  0
    8.0448   -1.5268   -2.9660 H   0  0  0  0  0  0  0  0  0  0  0  0
    5.9638   -3.1761   -1.5985 H   0  0  0  0  0  0  0  0  0  0  0  0
    4.5426   -2.5412   -2.5200 H   0  0  0  0  0  0  0  0  0  0  0  0
    6.0705   -2.8855   -3.3824 H   0  0  0  0  0  0  0  0  0  0  0  0
    4.0834   -0.6068    1.5427 H   0  0  0  0  0  0  0  0  0  0  0  0
    4.2364    1.1610    1.1868 H   0  0  0  0  0  0  0  0  0  0  0  0
    2.6857    0.4847    3.1353 H   0  0  0  0  0  0  0  0  0  0  0  0
    1.9547    1.5827    1.9203 H   0  0  0  0  0  0  0  0  0  0  0  0
  1  2  1  0
  2  3  1  0
  3  4  1  0
  4  5  1  0
  5  6  1  0
  6  7  1  0
  7  8  1  0
  8  9  1  0
  9 10  2  0
 10 11  1  0
 11 12  2  0
 12 13  1  0
 13 14  2  0
 14 15  1  0
 15 16  1  0
 16 17  1  0
 17 18  1  0
 18 19  1  0
 19 20  1  0
 20 21  1  0
 21 22  1  0
 22 23  2  0
 22 24  1  0
 24 25  1  0
 25 26  1  0
 25 27  1  0
 21 28  1  0
 28 29  1  0
 29 30  1  0
 19 31  1  0
 31 32  2  0
 31  5  1  0
 14  9  1  0
 30 19  1  0
  1 33  1  0
  1 34  1  0
  1 35  1  0
  2 36  1  0
  2 37  1  0
  3 38  1  0
  3 39  1  0
  4 40  1  0
  4 41  1  0
  6 42  1  0
  6 43  1  0
  7 44  1  0
  7 45  1  0
 10 46  1  0
 11 47  1  0
 12 48  1  0
 13 49  1  0
 15 50  1  0
 15 51  1  0
 16 52  1  0
 16 53  1  0
 17 54  1  0
 17 55  1  0
 18 56  1  0
 18 57  1  0
 20 58  1  0
 20 59  1  0
 24 60  1  0
 24 61  1  0
 26 62  1  0
 26 63  1  0
 26 64  1  0
 27 65  1  0
 27 66  1  0
 27 67  1  0
 28 68  1  0
 28 69  1  0
 29 70  1  0
 29 71  1  0
M  END
$$$$
