
     RDKit          3D

 91 94  0  0  0  0  0  0  0  0999 V2000
   10.9949    0.5509    1.8236 C   0  0  0  0  0  0  0  0  0  0  0  0
   10.0923    0.0618    0.8359 O   0  0  0  0  0  0  0  0  0  0  0  0
    8.7786   -0.3611    1.0936 C   0  0  0  0  0  0  0  0  0  0  0  0
    8.2294   -0.2966    2.3843 C   0  0  0  0  0  0  0  0  0  0  0  0
    6.9091   -0.6686    2.6092 C   0  0  0  0  0  0  0  0  0  0  0  0
    6.1058   -1.1195    1.5552 C   0  0  0  0  0  0  0  0  0  0  0  0
    4.6631   -1.4714    1.8304 C   0  0  0  0  0  0  0  0  0  0  0  0
    3.7420   -0.2971    1.4656 C   0  0  0  0  0  0  0  0  0  0  0  0
    2.2795   -0.5880    1.7240 C   0  0  0  0  0  0  0  0  0  0  0  0
    1.9744   -1.5965    2.4190 O   0  0  0  0  0  0  0  0  0  0  0  0
    1.2271    0.2821    1.2312 N   0  0  0  0  0  0  0  0  0  0  0  0
   -0.1753   -0.1672    1.4083 C   0  0  0  0  0  0  0  0  0  0  0  0
   -1.1961    0.9849    1.3872 C   0  0  0  0  0  0  0  0  0  0  0  0
   -2.6463    0.5112    1.5776 C   0  0  0  0  0  0  0  0  0  0  0  0
   -3.2672   -0.0954    0.2922 C   0  0  0  0  0  0  0  0  0  0  0  0
   -4.1262    0.8787   -0.5869 C   0  0  0  0  0  0  0  0  0  0  0  0
   -4.5480    0.1300   -1.8861 C   0  0  0  0  0  0  0  0  0  0  0  0
   -5.5996   -0.9631   -1.6270 C   0  0  0  0  0  0  0  0  0  0  0  0
   -6.7792   -0.4974   -0.8520 N   0  0  0  0  0  0  0  0  0  0  0  0
   -7.0783   -1.3868    0.2923 C   0  0  0  0  0  0  0  0  0  0  0  0
   -8.4985   -1.2175    0.7507 C   0  0  0  0  0  0  0  0  0  0  0  0
   -9.5656   -1.5781   -0.0842 C   0  0  0  0  0  0  0  0  0  0  0  0
  -10.8755   -1.3989    0.3644 C   0  0  0  0  0  0  0  0  0  0  0  0
  -11.1083   -0.8642    1.6327 C   0  0  0  0  0  0  0  0  0  0  0  0
  -10.0213   -0.5193    2.4381 C   0  0  0  0  0  0  0  0  0  0  0  0
   -8.7531   -0.6995    1.9839 N   0  0  0  0  0  0  0  0  0  0  0  0
   -6.7354    0.9352   -0.4797 C   0  0  0  0  0  0  0  0  0  0  0  0
   -5.4119    1.3312    0.1988 C   0  0  0  0  0  0  0  0  0  0  0  0
   -3.2901    2.0965   -0.9917 C   0  0  0  0  0  0  0  0  0  0  0  0
   -3.1329    3.0570   -0.1899 O   0  0  0  0  0  0  0  0  0  0  0  0
   -2.6881    2.1747   -2.2526 O   0  0  0  0  0  0  0  0  0  0  0  0
   -1.3917    1.6412   -2.5157 C   0  0  0  0  0  0  0  0  0  0  0  0
   -0.2863    2.6492   -2.1249 C   0  0  0  0  0  0  0  0  0  0  0  0
   -0.3407    3.7531   -2.9935 O   0  0  0  0  0  0  0  0  0  0  0  0
    1.1511    2.0546   -2.1767 C   0  0  0  0  0  0  0  0  0  0  0  0
    1.4667    1.6423   -3.4849 O   0  0  0  0  0  0  0  0  0  0  0  0
    1.4308    0.9106   -1.1659 C   0  0  0  0  0  0  0  0  0  0  0  0
    1.5463    1.3844    0.2966 C   0  0  0  0  0  0  0  0  0  0  0  0
    6.6304   -1.1866    0.2463 C   0  0  0  0  0  0  0  0  0  0  0  0
    5.7634   -1.6195   -0.7779 O   0  0  0  0  0  0  0  0  0  0  0  0
    6.0367   -1.6417   -2.1745 C   0  0  0  0  0  0  0  0  0  0  0  0
    7.9866   -0.8271    0.0223 C   0  0  0  0  0  0  0  0  0  0  0  0
    8.5329   -0.9081   -1.2632 O   0  0  0  0  0  0  0  0  0  0  0  0
    9.6591   -1.7204   -1.5767 C   0  0  0  0  0  0  0  0  0  0  0  0
   11.9642    0.7959    1.3423 H   0  0  0  0  0  0  0  0  0  0  0  0
   10.5872    1.4730    2.2921 H   0  0  0  0  0  0  0  0  0  0  0  0
   11.1701   -0.2255    2.5984 H   0  0  0  0  0  0  0  0  0  0  0  0
    8.8124    0.0553    3.2240 H   0  0  0  0  0  0  0  0  0  0  0  0
    6.5066   -0.5947    3.6123 H   0  0  0  0  0  0  0  0  0  0  0  0
    4.3771   -2.3714    1.2427 H   0  0  0  0  0  0  0  0  0  0  0  0
    4.5329   -1.7278    2.9058 H   0  0  0  0  0  0  0  0  0  0  0  0
    4.0368    0.5986    2.0553 H   0  0  0  0  0  0  0  0  0  0  0  0
    3.8819   -0.0764    0.3877 H   0  0  0  0  0  0  0  0  0  0  0  0
   -0.4143   -0.9072    0.6175 H   0  0  0  0  0  0  0  0  0  0  0  0
   -0.2865   -0.6781    2.3889 H   0  0  0  0  0  0  0  0  0  0  0  0
   -0.9416    1.6999    2.1987 H   0  0  0  0  0  0  0  0  0  0  0  0
   -1.1379    1.5159    0.4277 H   0  0  0  0  0  0  0  0  0  0  0  0
   -3.2543    1.3701    1.9345 H   0  0  0  0  0  0  0  0  0  0  0  0
   -2.6750   -0.2465    2.3928 H   0  0  0  0  0  0  0  0  0  0  0  0
   -2.4749   -0.5646   -0.3273 H   0  0  0  0  0  0  0  0  0  0  0  0
   -3.9152   -0.9340    0.6205 H   0  0  0  0  0  0  0  0  0  0  0  0
   -3.6654   -0.3383   -2.3747 H   0  0  0  0  0  0  0  0  0  0  0  0
   -4.9699    0.8507   -2.6217 H   0  0  0  0  0  0  0  0  0  0  0  0
   -5.0914   -1.8263   -1.1421 H   0  0  0  0  0  0  0  0  0  0  0  0
   -5.9597   -1.3364   -2.6092 H   0  0  0  0  0  0  0  0  0  0  0  0
   -6.3738   -1.2052    1.1319 H   0  0  0  0  0  0  0  0  0  0  0  0
   -6.9613   -2.4518   -0.0068 H   0  0  0  0  0  0  0  0  0  0  0  0
   -9.3822   -1.9901   -1.0692 H   0  0  0  0  0  0  0  0  0  0  0  0
  -11.7085   -1.6748   -0.2679 H   0  0  0  0  0  0  0  0  0  0  0  0
  -12.1191   -0.7225    1.9905 H   0  0  0  0  0  0  0  0  0  0  0  0
  -10.1859   -0.1111    3.4268 H   0  0  0  0  0  0  0  0  0  0  0  0
   -6.8763    1.5503   -1.3951 H   0  0  0  0  0  0  0  0  0  0  0  0
   -7.5845    1.1990    0.1861 H   0  0  0  0  0  0  0  0  0  0  0  0
   -5.4402    2.4336    0.3374 H   0  0  0  0  0  0  0  0  0  0  0  0
   -5.4226    0.9134    1.2275 H   0  0  0  0  0  0  0  0  0  0  0  0
   -1.2849    0.6781   -1.9841 H   0  0  0  0  0  0  0  0  0  0  0  0
   -1.3264    1.4274   -3.6028 H   0  0  0  0  0  0  0  0  0  0  0  0
   -0.4733    3.0135   -1.0926 H   0  0  0  0  0  0  0  0  0  0  0  0
   -1.1382    4.2849   -2.7384 H   0  0  0  0  0  0  0  0  0  0  0  0
    1.8522    2.8813   -1.9274 H   0  0  0  0  0  0  0  0  0  0  0  0
    0.9849    0.7913   -3.6583 H   0  0  0  0  0  0  0  0  0  0  0  0
    0.6687    0.1158   -1.2594 H   0  0  0  0  0  0  0  0  0  0  0  0
    2.3955    0.4323   -1.4415 H   0  0  0  0  0  0  0  0  0  0  0  0
    0.9071    2.2606    0.5043 H   0  0  0  0  0  0  0  0  0  0  0  0
    2.5648    1.7849    0.4767 H   0  0  0  0  0  0  0  0  0  0  0  0
    5.1193   -1.9524   -2.7148 H   0  0  0  0  0  0  0  0  0  0  0  0
    6.3171   -0.6262   -2.5268 H   0  0  0  0  0  0  0  0  0  0  0  0
    6.8334   -2.3797   -2.4006 H   0  0  0  0  0  0  0  0  0  0  0  0
   10.5820   -1.3377   -1.0966 H   0  0  0  0  0  0  0  0  0  0  0  0
    9.4735   -2.7661   -1.2485 H   0  0  0  0  0  0  0  0  0  0  0  0
    9.8108   -1.7148   -2.6757 H   0  0  0  0  0  0  0  0  0  0  0  0
  1  2  1  0
  2  3  1  0
  3  4  2  0
  4  5  1  0
  5  6  2  0
  6  7  1  0
  7  8  1  0
  8  9  1  0
  9 10  2  0
  9 11  1  0
 11 12  1  0
 12 13  1  0
 13 14  1  0
 14 15  1  0
 15 16  1  0
 16 17  1  0
 17 18  1  0
 18 19  1  0
 19 20  1  0
 20 21  1  0
 21 22  2  0
 22 23  1  0
 23 24  2  0
 24 25  1  0
 25 26  2  0
 19 27  1  0
 27 28  1  0
 16 29  1  0
 29 30  2  0
 29 31  1  0
 31 32  1  0
 32 33  1  0
 33 34  1  0
 33 35  1  0
 35 36  1  0
 35 37  1  0
 37 38  1  0
  6 39  1  0
 39 40  1  0
 40 41  1  0
 39 42  2  0
 42 43  1  0
 43 44  1  0
 42  3  1  0
 38 11  1  0
 28 16  1  0
 26 21  1  0
  1 45  1  0
  1 46  1  0
  1 47  1  0
  4 48  1  0
  5 49  1  0
  7 50  1  0
  7 51  1  0
  8 52  1  0
  8 53  1  0
 12 54  1  0
 12 55  1  0
 13 56  1  0
 13 57  1  0
 14 58  1  0
 14 59  1  0
 15 60  1  0
 15 61  1  0
 17 62  1  0
 17 63  1  0
 18 64  1  0
 18 65  1  0
 20 66  1  0
 20 67  1  0
 22 68  1  0
 23 69  1  0
 24 70  1  0
 25 71  1  0
 27 72  1  0
 27 73  1  0
 28 74  1  0
 28 75  1  0
 32 76  1  0
 32 77  1  0
 33 78  1  0
 34 79  1  0
 35 80  1  0
 36 81  1  0
 37 82  1  0
 37 83  1  0
 38 84  1  0
 38 85  1  0
 41 86  1  0
 41 87  1  0
 41 88  1  0
 44 89  1  0
 44 90  1  0
 44 91  1  0
M  END
$$$$
