
     RDKit          3D

 66 69  0  0  0  0  0  0  0  0999 V2000
    1.3938   -2.0725    1.7454 C   0  0  0  0  0  0  0  0  0  0  0  0
   -0.1195   -1.9386    1.8718 C   0  0  0  0  0  0  0  0  0  0  0  0
   -0.6638   -1.2311    0.7048 N   0  0  0  0  0  0  0  0  0  0  0  0
   -1.5016   -1.9793   -0.2484 C   0  0  0  0  0  0  0  0  0  0  0  0
   -2.9714   -1.9713    0.1662 C   0  0  0  0  0  0  0  0  0  0  0  0
   -3.4353   -0.6292    0.2538 O   0  0  0  0  0  0  0  0  0  0  0  0
   -4.7807   -0.2380    0.3626 C   0  0  0  0  0  0  0  0  0  0  0  0
   -5.8356   -1.1717    0.3809 C   0  0  0  0  0  0  0  0  0  0  0  0
   -7.1614   -0.7356    0.4549 C   0  0  0  0  0  0  0  0  0  0  0  0
   -7.4498    0.6292    0.5093 C   0  0  0  0  0  0  0  0  0  0  0  0
   -6.4125    1.5648    0.5048 C   0  0  0  0  0  0  0  0  0  0  0  0
   -5.0749    1.1382    0.4519 C   0  0  0  0  0  0  0  0  0  0  0  0
   -3.9560    2.1487    0.4843 C   0  0  0  0  0  0  0  0  0  0  0  0
   -3.4654    2.5129   -0.9330 C   0  0  0  0  0  0  0  0  0  0  0  0
   -1.9278    2.6504   -0.9983 C   0  0  0  0  0  0  0  0  0  0  0  0
   -1.2180    1.3561   -1.4883 C   0  0  0  0  0  0  0  0  0  0  0  0
    0.0230    0.9242   -0.6395 C   0  0  0  0  0  0  0  0  0  0  0  0
    0.9826   -0.0176   -1.4759 C   0  0  0  0  0  0  0  0  0  0  0  0
    2.3997    0.2403   -1.1747 N   0  0  0  0  0  0  0  0  0  0  0  0
    3.3492   -0.8455   -1.2635 C   0  0  0  0  0  0  0  0  0  0  0  0
    3.1032   -1.8200   -2.0258 O   0  0  0  0  0  0  0  0  0  0  0  0
    4.5474   -0.9254   -0.3956 C   0  0  0  0  0  0  0  0  0  0  0  0
    5.5270    0.0826   -0.3665 C   0  0  0  0  0  0  0  0  0  0  0  0
    6.6393   -0.0455    0.4694 C   0  0  0  0  0  0  0  0  0  0  0  0
    6.7821   -1.1966    1.2544 C   0  0  0  0  0  0  0  0  0  0  0  0
    7.9603   -1.3532    2.1623 C   0  0  0  0  0  0  0  0  0  0  0  0
    5.8446   -2.1819    1.1829 N   0  0  0  0  0  0  0  0  0  0  0  0
    4.7526   -2.0782    0.3805 C   0  0  0  0  0  0  0  0  0  0  0  0
    2.8540    1.6291   -1.0708 C   0  0  0  0  0  0  0  0  0  0  0  0
    1.6608    2.5728   -1.1007 C   0  0  0  0  0  0  0  0  0  0  0  0
    0.6980    2.1025   -0.1859 O   0  0  0  0  0  0  0  0  0  0  0  0
   -0.4714    0.2028    0.6189 C   0  0  0  0  0  0  0  0  0  0  0  0
   -0.6831    0.8939    1.6535 O   0  0  0  0  0  0  0  0  0  0  0  0
    1.6410   -2.6167    0.8103 H   0  0  0  0  0  0  0  0  0  0  0  0
    1.7938   -2.6402    2.6107 H   0  0  0  0  0  0  0  0  0  0  0  0
    1.8718   -1.0703    1.7229 H   0  0  0  0  0  0  0  0  0  0  0  0
   -0.3717   -1.3922    2.8071 H   0  0  0  0  0  0  0  0  0  0  0  0
   -0.5600   -2.9571    1.9571 H   0  0  0  0  0  0  0  0  0  0  0  0
   -1.4078   -1.5769   -1.2741 H   0  0  0  0  0  0  0  0  0  0  0  0
   -1.1542   -3.0344   -0.3081 H   0  0  0  0  0  0  0  0  0  0  0  0
   -3.5460   -2.5231   -0.6082 H   0  0  0  0  0  0  0  0  0  0  0  0
   -3.0993   -2.4768    1.1472 H   0  0  0  0  0  0  0  0  0  0  0  0
   -5.6409   -2.2339    0.3362 H   0  0  0  0  0  0  0  0  0  0  0  0
   -7.9665   -1.4584    0.4657 H   0  0  0  0  0  0  0  0  0  0  0  0
   -8.4767    0.9640    0.5641 H   0  0  0  0  0  0  0  0  0  0  0  0
   -6.6488    2.6207    0.5553 H   0  0  0  0  0  0  0  0  0  0  0  0
   -4.2876    3.0745    1.0052 H   0  0  0  0  0  0  0  0  0  0  0  0
   -3.1317    1.7367    1.1045 H   0  0  0  0  0  0  0  0  0  0  0  0
   -3.9257    3.4873   -1.2136 H   0  0  0  0  0  0  0  0  0  0  0  0
   -3.8220    1.7804   -1.6920 H   0  0  0  0  0  0  0  0  0  0  0  0
   -1.5455    2.9945   -0.0125 H   0  0  0  0  0  0  0  0  0  0  0  0
   -1.6831    3.4691   -1.7133 H   0  0  0  0  0  0  0  0  0  0  0  0
   -1.9413    0.5241   -1.5492 H   0  0  0  0  0  0  0  0  0  0  0  0
   -0.9080    1.5372   -2.5387 H   0  0  0  0  0  0  0  0  0  0  0  0
    0.7664   -1.0897   -1.3165 H   0  0  0  0  0  0  0  0  0  0  0  0
    0.8413    0.1515   -2.5652 H   0  0  0  0  0  0  0  0  0  0  0  0
    5.4594    0.9516   -1.0068 H   0  0  0  0  0  0  0  0  0  0  0  0
    7.3870    0.7397    0.4978 H   0  0  0  0  0  0  0  0  0  0  0  0
    7.9472   -0.5549    2.9338 H   0  0  0  0  0  0  0  0  0  0  0  0
    8.8994   -1.2814    1.5751 H   0  0  0  0  0  0  0  0  0  0  0  0
    7.9329   -2.3399    2.6725 H   0  0  0  0  0  0  0  0  0  0  0  0
    4.0402   -2.8943    0.3527 H   0  0  0  0  0  0  0  0  0  0  0  0
    3.3835    1.7717   -0.1046 H   0  0  0  0  0  0  0  0  0  0  0  0
    3.5310    1.8717   -1.9182 H   0  0  0  0  0  0  0  0  0  0  0  0
    1.9879    3.5857   -0.7852 H   0  0  0  0  0  0  0  0  0  0  0  0
    1.2445    2.6623   -2.1295 H   0  0  0  0  0  0  0  0  0  0  0  0
  1  2  1  0
  2  3  1  0
  3  4  1  0
  4  5  1  0
  5  6  1  0
  6  7  1  0
  7  8  2  0
  8  9  1  0
  9 10  2  0
 10 11  1  0
 11 12  2  0
 12 13  1  0
 13 14  1  0
 14 15  1  0
 15 16  1  0
 16 17  1  0
 17 18  1  0
 18 19  1  0
 19 20  1  0
 20 21  2  0
 20 22  1  0
 22 23  2  0
 23 24  1  0
 24 25  2  0
 25 26  1  0
 25 27  1  0
 27 28  2  0
 19 29  1  0
 29 30  1  0
 30 31  1  0
 17 32  1  0
 32 33  2  0
 32  3  1  0
 12  7  1  0
 31 17  1  0
 28 22  1  0
  1 34  1  0
  1 35  1  0
  1 36  1  0
  2 37  1  0
  2 38  1  0
  4 39  1  0
  4 40  1  0
  5 41  1  0
  5 42  1  0
  8 43  1  0
  9 44  1  0
 10 45  1  0
 11 46  1  0
 13 47  1  0
 13 48  1  0
 14 49  1  0
 14 50  1  0
 15 51  1  0
 15 52  1  0
 16 53  1  0
 16 54  1  0
 18 55  1  0
 18 56  1  0
 23 57  1  0
 24 58  1  0
 26 59  1  0
 26 60  1  0
 26 61  1  0
 28 62  1  0
 29 63  1  0
 29 64  1  0
 30 65  1  0
 30 66  1  0
M  END
$$$$
