
     RDKit          3D

 73 74  0  0  0  0  0  0  0  0999 V2000
   -8.9772    0.6182    1.7803 C   0  0  0  0  0  0  0  0  0  0  0  0
   -7.6872    0.6559    0.9477 C   0  0  0  0  0  0  0  0  0  0  0  0
   -8.0080    0.9438   -0.5277 C   0  0  0  0  0  0  0  0  0  0  0  0
   -6.8043   -0.6119    1.1640 C   0  0  0  0  0  0  0  0  0  0  0  0
   -7.4618   -1.9419    0.7348 C   0  0  0  0  0  0  0  0  0  0  0  0
   -7.6351   -1.9994   -0.6552 O   0  0  0  0  0  0  0  0  0  0  0  0
   -5.4997   -0.4523    0.5063 N   0  0  0  0  0  0  0  0  0  0  0  0
   -4.4645    0.3904    1.0367 C   0  0  0  0  0  0  0  0  0  0  0  0
   -4.6551    1.0319    2.1067 O   0  0  0  0  0  0  0  0  0  0  0  0
   -3.1789    0.5643    0.2756 C   0  0  0  0  0  0  0  0  0  0  0  0
   -1.9763    0.7569    1.2081 C   0  0  0  0  0  0  0  0  0  0  0  0
   -0.7009    0.8586    0.4137 C   0  0  0  0  0  0  0  0  0  0  0  0
   -0.3386    2.0728   -0.1800 C   0  0  0  0  0  0  0  0  0  0  0  0
    0.8262    2.1661   -0.9418 C   0  0  0  0  0  0  0  0  0  0  0  0
    1.6565    1.0420   -1.1247 C   0  0  0  0  0  0  0  0  0  0  0  0
    1.2798   -0.1907   -0.5548 C   0  0  0  0  0  0  0  0  0  0  0  0
    0.1021   -0.2716    0.2102 C   0  0  0  0  0  0  0  0  0  0  0  0
    2.1004   -1.4451   -0.7785 C   0  0  0  0  0  0  0  0  0  0  0  0
    3.4689   -1.3916   -0.1969 N   0  0  0  0  0  0  0  0  0  0  0  0
    4.1948   -2.6599   -0.5459 C   0  0  0  0  0  0  0  0  0  0  0  0
    5.6844   -2.4111   -0.7993 C   0  0  0  0  0  0  0  0  0  0  0  0
    3.9833   -3.8236    0.4433 C   0  0  0  0  0  0  0  0  0  0  0  0
    3.4259   -1.0642    1.2572 C   0  0  0  0  0  0  0  0  0  0  0  0
    4.7864   -0.7818    1.8465 C   0  0  0  0  0  0  0  0  0  0  0  0
    5.2499   -1.5857    2.6993 O   0  0  0  0  0  0  0  0  0  0  0  0
    5.5617    0.3839    1.5116 N   0  0  0  0  0  0  0  0  0  0  0  0
    5.1806    1.4094    0.5404 C   0  0  0  0  0  0  0  0  0  0  0  0
    6.1919    1.4352   -0.6116 C   0  0  0  0  0  0  0  0  0  0  0  0
    5.9143    2.5263   -1.6606 C   0  0  0  0  0  0  0  0  0  0  0  0
    4.8868    2.1272   -2.7413 C   0  0  0  0  0  0  0  0  0  0  0  0
    3.4281    2.3435   -2.3179 C   0  0  0  0  0  0  0  0  0  0  0  0
    2.8596    1.1235   -1.8458 O   0  0  0  0  0  0  0  0  0  0  0  0
   -9.4731    1.6121    1.7498 H   0  0  0  0  0  0  0  0  0  0  0  0
   -9.6902   -0.1351    1.3847 H   0  0  0  0  0  0  0  0  0  0  0  0
   -8.7480    0.3808    2.8412 H   0  0  0  0  0  0  0  0  0  0  0  0
   -7.1055    1.5280    1.3203 H   0  0  0  0  0  0  0  0  0  0  0  0
   -8.7489    0.2217   -0.9283 H   0  0  0  0  0  0  0  0  0  0  0  0
   -8.4395    1.9625   -0.6260 H   0  0  0  0  0  0  0  0  0  0  0  0
   -7.0875    0.9038   -1.1456 H   0  0  0  0  0  0  0  0  0  0  0  0
   -6.6227   -0.7078    2.2584 H   0  0  0  0  0  0  0  0  0  0  0  0
   -6.8012   -2.7779    1.0609 H   0  0  0  0  0  0  0  0  0  0  0  0
   -8.4403   -2.0768    1.2428 H   0  0  0  0  0  0  0  0  0  0  0  0
   -7.9244   -2.9270   -0.8617 H   0  0  0  0  0  0  0  0  0  0  0  0
   -5.2995   -0.9814   -0.3734 H   0  0  0  0  0  0  0  0  0  0  0  0
   -3.2816    1.4474   -0.3913 H   0  0  0  0  0  0  0  0  0  0  0  0
   -3.0033   -0.3325   -0.3586 H   0  0  0  0  0  0  0  0  0  0  0  0
   -2.1085    1.6838    1.8096 H   0  0  0  0  0  0  0  0  0  0  0  0
   -1.9157   -0.0955    1.9203 H   0  0  0  0  0  0  0  0  0  0  0  0
   -0.9620    2.9499   -0.0541 H   0  0  0  0  0  0  0  0  0  0  0  0
    1.0676    3.1205   -1.3883 H   0  0  0  0  0  0  0  0  0  0  0  0
   -0.1920   -1.2172    0.6489 H   0  0  0  0  0  0  0  0  0  0  0  0
    2.1700   -1.5789   -1.8811 H   0  0  0  0  0  0  0  0  0  0  0  0
    1.5561   -2.3342   -0.3884 H   0  0  0  0  0  0  0  0  0  0  0  0
    3.8248   -3.0436   -1.5258 H   0  0  0  0  0  0  0  0  0  0  0  0
    6.1768   -3.3562   -1.1142 H   0  0  0  0  0  0  0  0  0  0  0  0
    6.2108   -2.0411    0.1005 H   0  0  0  0  0  0  0  0  0  0  0  0
    5.8035   -1.6859   -1.6284 H   0  0  0  0  0  0  0  0  0  0  0  0
    2.9028   -3.9824    0.6385 H   0  0  0  0  0  0  0  0  0  0  0  0
    4.5105   -3.6475    1.4022 H   0  0  0  0  0  0  0  0  0  0  0  0
    4.3867   -4.7635    0.0089 H   0  0  0  0  0  0  0  0  0  0  0  0
    2.8240   -0.1509    1.4398 H   0  0  0  0  0  0  0  0  0  0  0  0
    2.9122   -1.8653    1.8315 H   0  0  0  0  0  0  0  0  0  0  0  0
    6.4793    0.5051    1.9973 H   0  0  0  0  0  0  0  0  0  0  0  0
    5.1745    2.3969    1.0489 H   0  0  0  0  0  0  0  0  0  0  0  0
    4.1667    1.2314    0.1616 H   0  0  0  0  0  0  0  0  0  0  0  0
    7.1980    1.6280   -0.1776 H   0  0  0  0  0  0  0  0  0  0  0  0
    6.2384    0.4441   -1.1009 H   0  0  0  0  0  0  0  0  0  0  0  0
    6.8754    2.7165   -2.1860 H   0  0  0  0  0  0  0  0  0  0  0  0
    5.6387    3.4855   -1.1717 H   0  0  0  0  0  0  0  0  0  0  0  0
    5.0767    2.7691   -3.6296 H   0  0  0  0  0  0  0  0  0  0  0  0
    5.0470    1.0773   -3.0726 H   0  0  0  0  0  0  0  0  0  0  0  0
    2.8384    2.6867   -3.1964 H   0  0  0  0  0  0  0  0  0  0  0  0
    3.3707    3.1307   -1.5350 H   0  0  0  0  0  0  0  0  0  0  0  0
  1  2  1  0
  2  3  1  0
  2  4  1  0
  4  5  1  0
  5  6  1  0
  4  7  1  0
  7  8  1  0
  8  9  2  0
  8 10  1  0
 10 11  1  0
 11 12  1  0
 12 13  2  0
 13 14  1  0
 14 15  2  0
 15 16  1  0
 16 17  2  0
 16 18  1  0
 18 19  1  0
 19 20  1  0
 20 21  1  0
 20 22  1  0
 19 23  1  0
 23 24  1  0
 24 25  2  0
 24 26  1  0
 26 27  1  0
 27 28  1  0
 28 29  1  0
 29 30  1  0
 30 31  1  0
 31 32  1  0
 17 12  1  0
 32 15  1  0
  1 33  1  0
  1 34  1  0
  1 35  1  0
  2 36  1  0
  3 37  1  0
  3 38  1  0
  3 39  1  0
  4 40  1  0
  5 41  1  0
  5 42  1  0
  6 43  1  0
  7 44  1  0
 10 45  1  0
 10 46  1  0
 11 47  1  0
 11 48  1  0
 13 49  1  0
 14 50  1  0
 17 51  1  0
 18 52  1  0
 18 53  1  0
 20 54  1  0
 21 55  1  0
 21 56  1  0
 21 57  1  0
 22 58  1  0
 22 59  1  0
 22 60  1  0
 23 61  1  0
 23 62  1  0
 26 63  1  0
 27 64  1  0
 27 65  1  0
 28 66  1  0
 28 67  1  0
 29 68  1  0
 29 69  1  0
 30 70  1  0
 30 71  1  0
 31 72  1  0
 31 73  1  0
M  END
$$$$
