
     RDKit          3D

 64 67  0  0  0  0  0  0  0  0999 V2000
   -5.0438   -1.1485    1.8583 C   0  0  0  0  0  0  0  0  0  0  0  0
   -3.6528   -1.4896    2.3207 C   0  0  0  0  0  0  0  0  0  0  0  0
   -3.5045   -2.3208    3.4454 C   0  0  0  0  0  0  0  0  0  0  0  0
   -2.2359   -2.6288    3.9404 C   0  0  0  0  0  0  0  0  0  0  0  0
   -2.1118   -3.4290    5.0292 F   0  0  0  0  0  0  0  0  0  0  0  0
   -1.1014   -2.0990    3.3275 C   0  0  0  0  0  0  0  0  0  0  0  0
   -1.2304   -1.2854    2.2018 C   0  0  0  0  0  0  0  0  0  0  0  0
   -2.4943   -1.0071    1.6591 C   0  0  0  0  0  0  0  0  0  0  0  0
   -2.5672    0.0137    0.2132 S   0  0  0  0  0  6  0  0  0  0  0  0
   -3.7910   -0.2907   -0.6036 O   0  0  0  0  0  0  0  0  0  0  0  0
   -2.6180    1.4412    0.6801 O   0  0  0  0  0  0  0  0  0  0  0  0
   -1.1465   -0.2865   -0.7755 N   0  0  0  0  0  0  0  0  0  0  0  0
   -1.1521   -1.6308   -1.3936 C   0  0  0  0  0  0  0  0  0  0  0  0
    0.1439   -2.3844   -1.0278 C   0  0  0  0  0  0  0  0  0  0  0  0
    1.2533   -2.2492   -2.0882 C   0  0  0  0  0  0  0  0  0  0  0  0
    2.6630   -2.4007   -1.4990 C   0  0  0  0  0  0  0  0  0  0  0  0
    3.0712   -1.1826   -0.7783 N   0  0  0  0  0  0  0  0  0  0  0  0
    3.9165   -0.2166   -1.4891 C   0  0  0  0  0  0  0  0  0  0  0  0
    2.9362   -1.1001    0.6568 C   0  0  0  0  0  0  0  0  0  0  0  0
    2.9931   -2.1545    1.3456 O   0  0  0  0  0  0  0  0  0  0  0  0
    2.7690    0.2009    1.3551 C   0  0  0  0  0  0  0  0  0  0  0  0
    3.4246    0.4069    2.5821 C   0  0  0  0  0  0  0  0  0  0  0  0
    3.2978    1.6207    3.2567 C   0  0  0  0  0  0  0  0  0  0  0  0
    2.5042    2.6374    2.7246 C   0  0  0  0  0  0  0  0  0  0  0  0
    1.8377    2.4462    1.5128 C   0  0  0  0  0  0  0  0  0  0  0  0
    1.9558    1.2255    0.8205 C   0  0  0  0  0  0  0  0  0  0  0  0
    1.2743    0.9865   -0.3813 O   0  0  0  0  0  0  0  0  0  0  0  0
    0.2043    1.7671   -0.9185 C   0  0  0  0  0  0  0  0  0  0  0  0
    0.7616    2.8457   -1.8628 C   0  0  0  0  0  0  0  0  0  0  0  0
   -0.3737    3.5993   -2.5726 C   0  0  0  0  0  0  0  0  0  0  0  0
   -1.2994    2.6357   -3.3311 C   0  0  0  0  0  0  0  0  0  0  0  0
   -1.8737    1.5669   -2.3897 C   0  0  0  0  0  0  0  0  0  0  0  0
   -0.7243    0.8117   -1.6836 C   0  0  0  0  0  0  0  0  0  0  0  0
   -5.3028   -1.7560    0.9695 H   0  0  0  0  0  0  0  0  0  0  0  0
   -5.7946   -1.3530    2.6506 H   0  0  0  0  0  0  0  0  0  0  0  0
   -5.1185   -0.0656    1.6202 H   0  0  0  0  0  0  0  0  0  0  0  0
   -4.3759   -2.7255    3.9482 H   0  0  0  0  0  0  0  0  0  0  0  0
   -0.1185   -2.3186    3.7236 H   0  0  0  0  0  0  0  0  0  0  0  0
   -0.3397   -0.8613    1.7591 H   0  0  0  0  0  0  0  0  0  0  0  0
   -2.0034   -2.2349   -1.0089 H   0  0  0  0  0  0  0  0  0  0  0  0
   -1.2929   -1.5802   -2.4963 H   0  0  0  0  0  0  0  0  0  0  0  0
    0.5005   -2.0396   -0.0400 H   0  0  0  0  0  0  0  0  0  0  0  0
   -0.0856   -3.4657   -0.9109 H   0  0  0  0  0  0  0  0  0  0  0  0
    1.0991   -3.0430   -2.8552 H   0  0  0  0  0  0  0  0  0  0  0  0
    1.2083   -1.2839   -2.6264 H   0  0  0  0  0  0  0  0  0  0  0  0
    3.3628   -2.5818   -2.3426 H   0  0  0  0  0  0  0  0  0  0  0  0
    2.7216   -3.3007   -0.8521 H   0  0  0  0  0  0  0  0  0  0  0  0
    4.9369   -0.6362   -1.6050 H   0  0  0  0  0  0  0  0  0  0  0  0
    3.4944   -0.0044   -2.4941 H   0  0  0  0  0  0  0  0  0  0  0  0
    3.9979    0.7448   -0.9436 H   0  0  0  0  0  0  0  0  0  0  0  0
    4.0502   -0.3663    3.0104 H   0  0  0  0  0  0  0  0  0  0  0  0
    3.8111    1.7742    4.1975 H   0  0  0  0  0  0  0  0  0  0  0  0
    2.4072    3.5771    3.2525 H   0  0  0  0  0  0  0  0  0  0  0  0
    1.2340    3.2561    1.1279 H   0  0  0  0  0  0  0  0  0  0  0  0
   -0.3750    2.2465   -0.1015 H   0  0  0  0  0  0  0  0  0  0  0  0
    1.4229    2.3725   -2.6228 H   0  0  0  0  0  0  0  0  0  0  0  0
    1.3745    3.5702   -1.2848 H   0  0  0  0  0  0  0  0  0  0  0  0
    0.0647    4.3242   -3.2926 H   0  0  0  0  0  0  0  0  0  0  0  0
   -0.9630    4.1734   -1.8230 H   0  0  0  0  0  0  0  0  0  0  0  0
   -2.1335    3.2119   -3.7858 H   0  0  0  0  0  0  0  0  0  0  0  0
   -0.7349    2.1458   -4.1564 H   0  0  0  0  0  0  0  0  0  0  0  0
   -2.5384    2.0777   -1.6652 H   0  0  0  0  0  0  0  0  0  0  0  0
   -2.4832    0.8491   -2.9802 H   0  0  0  0  0  0  0  0  0  0  0  0
   -0.1121    0.3919   -2.5076 H   0  0  0  0  0  0  0  0  0  0  0  0
  1  2  1  0
  2  3  2  0
  3  4  1  0
  4  5  1  0
  4  6  2  0
  6  7  1  0
  7  8  2  0
  8  9  1  0
  9 10  2  0
  9 11  2  0
  9 12  1  0
 12 13  1  0
 13 14  1  0
 14 15  1  0
 15 16  1  0
 16 17  1  0
 17 18  1  0
 17 19  1  0
 19 20  2  0
 19 21  1  0
 21 22  2  0
 22 23  1  0
 23 24  2  0
 24 25  1  0
 25 26  2  0
 26 27  1  0
 27 28  1  0
 28 29  1  0
 29 30  1  0
 30 31  1  0
 31 32  1  0
 32 33  1  0
  8  2  1  0
 33 12  1  0
 26 21  1  0
 33 28  1  0
  1 34  1  0
  1 35  1  0
  1 36  1  0
  3 37  1  0
  6 38  1  0
  7 39  1  0
 13 40  1  0
 13 41  1  0
 14 42  1  0
 14 43  1  0
 15 44  1  0
 15 45  1  0
 16 46  1  0
 16 47  1  0
 18 48  1  0
 18 49  1  0
 18 50  1  0
 22 51  1  0
 23 52  1  0
 24 53  1  0
 25 54  1  0
 28 55  1  0
 29 56  1  0
 29 57  1  0
 30 58  1  0
 30 59  1  0
 31 60  1  0
 31 61  1  0
 32 62  1  0
 32 63  1  0
 33 64  1  0
M  END
$$$$
