
     RDKit          3D

 70 73  0  0  0  0  0  0  0  0999 V2000
   -2.3713    3.1864   -2.7791 C   0  0  0  0  0  0  0  0  0  0  0  0
   -2.7060    2.7465   -1.4817 O   0  0  0  0  0  0  0  0  0  0  0  0
   -2.2080    1.4389   -1.2757 C   0  0  0  0  0  0  0  0  0  0  0  0
   -2.3680    1.0376    0.2165 C   0  0  0  0  0  0  0  0  0  0  0  0
   -1.6578    2.0796    1.1601 C   0  0  0  0  0  0  0  0  0  0  0  0
   -0.2292    2.5956    0.7892 C   0  0  0  0  0  0  0  0  0  0  0  0
    0.9261    1.5868    0.5381 C   0  0  0  0  0  0  0  0  0  0  0  0
    1.2997    0.6628    1.7295 C   0  0  0  0  0  0  0  0  0  0  0  0
    1.8599   -0.6295    1.2504 N   0  0  0  0  0  0  0  0  0  0  0  0
    3.0707   -0.6698    0.4523 C   0  0  0  0  0  0  0  0  0  0  0  0
    3.3264   -1.6907   -0.2422 O   0  0  0  0  0  0  0  0  0  0  0  0
    4.0309    0.4492    0.4055 C   0  0  0  0  0  0  0  0  0  0  0  0
    4.8293    0.7719   -0.6772 C   0  0  0  0  0  0  0  0  0  0  0  0
    5.5797    1.8440   -0.2369 C   0  0  0  0  0  0  0  0  0  0  0  0
    6.6644    2.5265   -1.0111 C   0  0  0  0  0  0  0  0  0  0  0  0
    5.2554    2.1033    1.0450 N   0  0  0  0  0  0  0  0  0  0  0  0
    5.8407    3.1277    1.9011 C   0  0  0  0  0  0  0  0  0  0  0  0
    4.3162    1.2608    1.4432 N   0  0  0  0  0  0  0  0  0  0  0  0
    1.1994   -1.9124    1.6044 C   0  0  0  0  0  0  0  0  0  0  0  0
    0.6304   -2.6616    0.3641 C   0  0  0  0  0  0  0  0  0  0  0  0
   -0.7238   -3.1047    0.5711 O   0  0  0  0  0  0  0  0  0  0  0  0
   -1.5727   -3.5807   -0.4538 C   0  0  0  0  0  0  0  0  0  0  0  0
   -1.0076   -4.1386   -1.6194 C   0  0  0  0  0  0  0  0  0  0  0  0
   -1.8141   -4.6190   -2.6481 C   0  0  0  0  0  0  0  0  0  0  0  0
   -3.1991   -4.5682   -2.5327 C   0  0  0  0  0  0  0  0  0  0  0  0
   -3.7869   -4.0231   -1.3921 C   0  0  0  0  0  0  0  0  0  0  0  0
   -3.0013   -3.5091   -0.3462 C   0  0  0  0  0  0  0  0  0  0  0  0
   -3.7475   -2.9144    0.8021 C   0  0  0  0  0  0  0  0  0  0  0  0
   -4.5655   -3.6345    1.4349 O   0  0  0  0  0  0  0  0  0  0  0  0
   -3.6591   -1.5147    1.1300 N   0  0  0  0  0  0  0  0  0  0  0  0
   -4.5052   -0.5190    0.4357 C   0  0  0  0  0  0  0  0  0  0  0  0
   -3.9184    0.9336    0.5482 C   0  0  0  0  0  0  0  0  0  0  0  0
   -2.4031   -1.0337    1.6540 C   0  0  0  0  0  0  0  0  0  0  0  0
   -1.7282   -0.3437    0.4666 C   0  0  0  0  0  0  0  0  0  0  0  0
   -2.6612    2.4460   -3.5611 H   0  0  0  0  0  0  0  0  0  0  0  0
   -2.9197    4.1292   -2.9851 H   0  0  0  0  0  0  0  0  0  0  0  0
   -1.2812    3.4043   -2.8454 H   0  0  0  0  0  0  0  0  0  0  0  0
   -1.1391    1.3654   -1.5739 H   0  0  0  0  0  0  0  0  0  0  0  0
   -2.7796    0.7205   -1.9069 H   0  0  0  0  0  0  0  0  0  0  0  0
   -1.6263    1.6951    2.2002 H   0  0  0  0  0  0  0  0  0  0  0  0
   -2.3073    2.9816    1.2121 H   0  0  0  0  0  0  0  0  0  0  0  0
   -0.3185    3.2327   -0.1166 H   0  0  0  0  0  0  0  0  0  0  0  0
    0.0979    3.2778    1.6034 H   0  0  0  0  0  0  0  0  0  0  0  0
    1.8271    2.1858    0.2842 H   0  0  0  0  0  0  0  0  0  0  0  0
    0.7267    0.9917   -0.3758 H   0  0  0  0  0  0  0  0  0  0  0  0
    2.0243    1.1745    2.3936 H   0  0  0  0  0  0  0  0  0  0  0  0
    0.4128    0.4887    2.3733 H   0  0  0  0  0  0  0  0  0  0  0  0
    4.8672    0.2859   -1.6444 H   0  0  0  0  0  0  0  0  0  0  0  0
    6.5666    3.6273   -0.9142 H   0  0  0  0  0  0  0  0  0  0  0  0
    7.6508    2.2038   -0.6238 H   0  0  0  0  0  0  0  0  0  0  0  0
    6.6000    2.2536   -2.0867 H   0  0  0  0  0  0  0  0  0  0  0  0
    6.9347    2.9618    1.9944 H   0  0  0  0  0  0  0  0  0  0  0  0
    5.3850    3.0878    2.9128 H   0  0  0  0  0  0  0  0  0  0  0  0
    5.6556    4.1324    1.4656 H   0  0  0  0  0  0  0  0  0  0  0  0
    1.9385   -2.5658    2.1154 H   0  0  0  0  0  0  0  0  0  0  0  0
    0.4015   -1.7453    2.3530 H   0  0  0  0  0  0  0  0  0  0  0  0
    0.6567   -1.9934   -0.5234 H   0  0  0  0  0  0  0  0  0  0  0  0
    1.2726   -3.5413    0.1503 H   0  0  0  0  0  0  0  0  0  0  0  0
    0.0641   -4.2114   -1.7362 H   0  0  0  0  0  0  0  0  0  0  0  0
   -1.3654   -5.0450   -3.5362 H   0  0  0  0  0  0  0  0  0  0  0  0
   -3.8201   -4.9523   -3.3331 H   0  0  0  0  0  0  0  0  0  0  0  0
   -4.8683   -3.9861   -1.3319 H   0  0  0  0  0  0  0  0  0  0  0  0
   -4.5803   -0.7878   -0.6408 H   0  0  0  0  0  0  0  0  0  0  0  0
   -5.5273   -0.5401    0.8689 H   0  0  0  0  0  0  0  0  0  0  0  0
   -4.0984    1.2794    1.5904 H   0  0  0  0  0  0  0  0  0  0  0  0
   -4.5163    1.6116   -0.0989 H   0  0  0  0  0  0  0  0  0  0  0  0
   -2.5894   -0.3313    2.4940 H   0  0  0  0  0  0  0  0  0  0  0  0
   -1.8256   -1.8483    2.1187 H   0  0  0  0  0  0  0  0  0  0  0  0
   -0.6733   -0.3124    0.6273 H   0  0  0  0  0  0  0  0  0  0  0  0
   -1.8413   -0.9605   -0.4502 H   0  0  0  0  0  0  0  0  0  0  0  0
  1  2  1  0
  2  3  1  0
  3  4  1  0
  4  5  1  0
  5  6  1  0
  6  7  1  0
  7  8  1  0
  8  9  1  0
  9 10  1  0
 10 11  2  0
 10 12  1  0
 12 13  1  0
 13 14  2  0
 14 15  1  0
 14 16  1  0
 16 17  1  0
 16 18  1  0
  9 19  1  0
 19 20  1  0
 20 21  1  0
 21 22  1  0
 22 23  2  0
 23 24  1  0
 24 25  2  0
 25 26  1  0
 26 27  2  0
 27 28  1  0
 28 29  2  0
 28 30  1  0
 30 31  1  0
 31 32  1  0
 30 33  1  0
 33 34  1  0
 32  4  1  0
 34  4  1  0
 18 12  2  0
 27 22  1  0
  1 35  1  0
  1 36  1  0
  1 37  1  0
  3 38  1  0
  3 39  1  0
  5 40  1  0
  5 41  1  0
  6 42  1  0
  6 43  1  0
  7 44  1  0
  7 45  1  0
  8 46  1  0
  8 47  1  0
 13 48  1  0
 15 49  1  0
 15 50  1  0
 15 51  1  0
 17 52  1  0
 17 53  1  0
 17 54  1  0
 19 55  1  0
 19 56  1  0
 20 57  1  0
 20 58  1  0
 23 59  1  0
 24 60  1  0
 25 61  1  0
 26 62  1  0
 31 63  1  0
 31 64  1  0
 32 65  1  0
 32 66  1  0
 33 67  1  0
 33 68  1  0
 34 69  1  0
 34 70  1  0
M  END
$$$$
