
     RDKit          3D

 64 65  0  0  0  0  0  0  0  0999 V2000
   -4.9096   -2.2493    1.1780 C   0  0  0  0  0  0  0  0  0  0  0  0
   -4.3581   -0.9536    1.0887 O   0  0  0  0  0  0  0  0  0  0  0  0
   -3.5343   -0.8282   -0.0611 C   0  0  0  0  0  0  0  0  0  0  0  0
   -2.0539   -1.0643    0.3386 C   0  0  0  0  0  0  0  0  0  0  0  0
   -1.2543   -1.5277   -0.8092 N   0  0  0  0  0  0  0  0  0  0  0  0
   -1.4325   -2.8748   -1.3068 C   0  0  0  0  0  0  0  0  0  0  0  0
   -0.9060   -3.2972   -2.6470 C   0  0  0  0  0  0  0  0  0  0  0  0
   -2.0589   -3.7228   -0.6132 O   0  0  0  0  0  0  0  0  0  0  0  0
   -0.2208   -0.6433   -1.3686 C   0  0  0  0  0  0  0  0  0  0  0  0
    1.1545   -0.9839   -0.7857 C   0  0  0  0  0  0  0  0  0  0  0  0
    2.2757   -0.1113   -1.3829 C   0  0  0  0  0  0  0  0  0  0  0  0
    2.6575    0.9900   -0.4820 N   0  0  0  0  0  0  0  0  0  0  0  0
    3.9989    1.0566    0.0551 C   0  0  0  0  0  0  0  0  0  0  0  0
    4.5748    2.1763    0.1589 O   0  0  0  0  0  0  0  0  0  0  0  0
    4.7298   -0.1571    0.4788 C   0  0  0  0  0  0  0  0  0  0  0  0
    6.1008   -0.2891    0.1982 C   0  0  0  0  0  0  0  0  0  0  0  0
    6.7961   -1.4352    0.5960 C   0  0  0  0  0  0  0  0  0  0  0  0
    6.1306   -2.4553    1.2808 C   0  0  0  0  0  0  0  0  0  0  0  0
    4.7714   -2.3227    1.5850 C   0  0  0  0  0  0  0  0  0  0  0  0
    3.9388   -3.5923    2.4643 Cl  0  0  0  0  0  0  0  0  0  0  0  0
    4.0765   -1.1724    1.1949 C   0  0  0  0  0  0  0  0  0  0  0  0
    1.7671    2.1510   -0.3273 C   0  0  0  0  0  0  0  0  0  0  0  0
    1.2168    2.2087    1.1032 C   0  0  0  0  0  0  0  0  0  0  0  0
    0.3711    3.4722    1.3556 C   0  0  0  0  0  0  0  0  0  0  0  0
   -1.1385    3.2153    1.3249 C   0  0  0  0  0  0  0  0  0  0  0  0
   -1.5571    2.8323    0.0249 O   0  0  0  0  0  0  0  0  0  0  0  0
   -2.9622    2.9891   -0.1215 C   0  0  0  0  0  0  0  0  0  0  0  0
   -3.7381    1.7372    0.3500 C   0  0  0  0  0  0  0  0  0  0  0  0
   -5.0550    2.1337    0.6473 O   0  0  0  0  0  0  0  0  0  0  0  0
   -3.7677    0.5715   -0.6984 C   0  0  0  0  0  0  0  0  0  0  0  0
   -2.8562    0.7924   -1.7451 O   0  0  0  0  0  0  0  0  0  0  0  0
   -5.6360   -2.4234    0.3524 H   0  0  0  0  0  0  0  0  0  0  0  0
   -4.1197   -3.0321    1.1723 H   0  0  0  0  0  0  0  0  0  0  0  0
   -5.4593   -2.3348    2.1379 H   0  0  0  0  0  0  0  0  0  0  0  0
   -3.8120   -1.5678   -0.8526 H   0  0  0  0  0  0  0  0  0  0  0  0
   -1.6192   -0.1399    0.7758 H   0  0  0  0  0  0  0  0  0  0  0  0
   -1.9915   -1.8252    1.1461 H   0  0  0  0  0  0  0  0  0  0  0  0
   -1.2978   -2.6203   -3.4344 H   0  0  0  0  0  0  0  0  0  0  0  0
    0.2031   -3.2731   -2.6511 H   0  0  0  0  0  0  0  0  0  0  0  0
   -1.2336   -4.3308   -2.8857 H   0  0  0  0  0  0  0  0  0  0  0  0
   -0.2094   -0.7148   -2.4768 H   0  0  0  0  0  0  0  0  0  0  0  0
   -0.4598    0.4091   -1.1273 H   0  0  0  0  0  0  0  0  0  0  0  0
    1.1140   -0.8698    0.3164 H   0  0  0  0  0  0  0  0  0  0  0  0
    1.3828   -2.0507   -0.9919 H   0  0  0  0  0  0  0  0  0  0  0  0
    3.1524   -0.7632   -1.5863 H   0  0  0  0  0  0  0  0  0  0  0  0
    1.9852    0.3041   -2.3719 H   0  0  0  0  0  0  0  0  0  0  0  0
    6.6306    0.4929   -0.3332 H   0  0  0  0  0  0  0  0  0  0  0  0
    7.8515   -1.5331    0.3735 H   0  0  0  0  0  0  0  0  0  0  0  0
    6.6739   -3.3421    1.5829 H   0  0  0  0  0  0  0  0  0  0  0  0
    3.0422   -1.0590    1.4809 H   0  0  0  0  0  0  0  0  0  0  0  0
    0.9288    2.1127   -1.0509 H   0  0  0  0  0  0  0  0  0  0  0  0
    2.3269    3.0836   -0.5578 H   0  0  0  0  0  0  0  0  0  0  0  0
    0.6318    1.2881    1.3210 H   0  0  0  0  0  0  0  0  0  0  0  0
    2.0785    2.2192    1.8079 H   0  0  0  0  0  0  0  0  0  0  0  0
    0.6220    3.8571    2.3690 H   0  0  0  0  0  0  0  0  0  0  0  0
    0.6265    4.2815    0.6377 H   0  0  0  0  0  0  0  0  0  0  0  0
   -1.3850    2.4204    2.0610 H   0  0  0  0  0  0  0  0  0  0  0  0
   -1.6193    4.1636    1.6595 H   0  0  0  0  0  0  0  0  0  0  0  0
   -3.3494    3.8947    0.4014 H   0  0  0  0  0  0  0  0  0  0  0  0
   -3.1852    3.1844   -1.1921 H   0  0  0  0  0  0  0  0  0  0  0  0
   -3.2673    1.3923    1.2960 H   0  0  0  0  0  0  0  0  0  0  0  0
   -5.4691    1.4011    1.1717 H   0  0  0  0  0  0  0  0  0  0  0  0
   -4.7912    0.5559   -1.1436 H   0  0  0  0  0  0  0  0  0  0  0  0
   -3.1026    0.1734   -2.4821 H   0  0  0  0  0  0  0  0  0  0  0  0
  1  2  1  0
  2  3  1  0
  3  4  1  0
  4  5  1  0
  5  6  1  0
  6  7  1  0
  6  8  2  0
  5  9  1  0
  9 10  1  0
 10 11  1  0
 11 12  1  0
 12 13  1  0
 13 14  2  0
 13 15  1  0
 15 16  2  0
 16 17  1  0
 17 18  2  0
 18 19  1  0
 19 20  1  0
 19 21  2  0
 12 22  1  0
 22 23  1  0
 23 24  1  0
 24 25  1  0
 25 26  1  0
 26 27  1  0
 27 28  1  0
 28 29  1  0
 28 30  1  0
 30 31  1  0
 30  3  1  0
 21 15  1  0
  1 32  1  0
  1 33  1  0
  1 34  1  0
  3 35  1  0
  4 36  1  0
  4 37  1  0
  7 38  1  0
  7 39  1  0
  7 40  1  0
  9 41  1  0
  9 42  1  0
 10 43  1  0
 10 44  1  0
 11 45  1  0
 11 46  1  0
 16 47  1  0
 17 48  1  0
 18 49  1  0
 21 50  1  0
 22 51  1  0
 22 52  1  0
 23 53  1  0
 23 54  1  0
 24 55  1  0
 24 56  1  0
 25 57  1  0
 25 58  1  0
 27 59  1  0
 27 60  1  0
 28 61  1  0
 29 62  1  0
 30 63  1  0
 31 64  1  0
M  END
$$$$
