
     RDKit          3D

 68 71  0  0  0  0  0  0  0  0999 V2000
    9.3366   -0.5196    1.6432 C   0  0  0  0  0  0  0  0  0  0  0  0
    8.9874   -0.1367    0.3177 O   0  0  0  0  0  0  0  0  0  0  0  0
    7.6801   -0.2100   -0.1716 C   0  0  0  0  0  0  0  0  0  0  0  0
    7.4107    0.2138   -1.4743 C   0  0  0  0  0  0  0  0  0  0  0  0
    6.1044    0.1466   -1.9625 C   0  0  0  0  0  0  0  0  0  0  0  0
    5.0700   -0.3342   -1.1452 C   0  0  0  0  0  0  0  0  0  0  0  0
    3.6832   -0.4183   -1.6585 C   0  0  0  0  0  0  0  0  0  0  0  0
    3.4912   -0.5579   -2.8972 O   0  0  0  0  0  0  0  0  0  0  0  0
    2.5494   -0.3389   -0.7737 N   0  0  0  0  0  0  0  0  0  0  0  0
    1.3709   -1.1789   -1.0003 C   0  0  0  0  0  0  0  0  0  0  0  0
    0.1554   -0.2831   -1.2406 C   0  0  0  0  0  0  0  0  0  0  0  0
   -0.1091    0.6857   -0.0404 C   0  0  0  0  0  0  0  0  0  0  0  0
    1.2047    1.5180    0.1606 C   0  0  0  0  0  0  0  0  0  0  0  0
    2.4891    0.6737    0.2861 C   0  0  0  0  0  0  0  0  0  0  0  0
   -0.4222   -0.0658    1.3231 C   0  0  0  0  0  0  0  0  0  0  0  0
   -1.4481   -1.2451    1.3203 C   0  0  0  0  0  0  0  0  0  0  0  0
   -0.9490   -2.2833    2.1293 O   0  0  0  0  0  0  0  0  0  0  0  0
   -2.8645   -0.8303    1.8312 C   0  0  0  0  0  0  0  0  0  0  0  0
   -2.9442   -0.9595    3.2291 O   0  0  0  0  0  0  0  0  0  0  0  0
   -3.9760   -1.6941    1.1853 C   0  0  0  0  0  0  0  0  0  0  0  0
   -5.2875   -0.9460    1.0491 C   0  0  0  0  0  0  0  0  0  0  0  0
   -6.3953   -1.4186    1.7794 C   0  0  0  0  0  0  0  0  0  0  0  0
   -7.6239   -0.7591    1.7248 C   0  0  0  0  0  0  0  0  0  0  0  0
   -7.7673    0.3866    0.9467 C   0  0  0  0  0  0  0  0  0  0  0  0
   -6.6840    0.8743    0.2168 C   0  0  0  0  0  0  0  0  0  0  0  0
   -5.4451    0.2206    0.2407 C   0  0  0  0  0  0  0  0  0  0  0  0
   -4.4088    0.8122   -0.5016 O   0  0  0  0  0  0  0  0  0  0  0  0
   -3.6330    0.1486   -1.4962 C   0  0  0  0  0  0  0  0  0  0  0  0
   -2.8489    1.1531   -2.2926 C   0  0  0  0  0  0  0  0  0  0  0  0
   -3.2568    1.4339   -3.4535 O   0  0  0  0  0  0  0  0  0  0  0  0
   -1.6645    1.8096   -1.7726 N   0  0  0  0  0  0  0  0  0  0  0  0
   -0.9533    2.7484   -2.6481 C   0  0  0  0  0  0  0  0  0  0  0  0
   -1.2693    1.7125   -0.3525 C   0  0  0  0  0  0  0  0  0  0  0  0
    5.3887   -0.7641    0.1529 C   0  0  0  0  0  0  0  0  0  0  0  0
    6.6691   -0.6914    0.6034 N   0  0  0  0  0  0  0  0  0  0  0  0
    8.7720    0.0950    2.3770 H   0  0  0  0  0  0  0  0  0  0  0  0
    9.1098   -1.5961    1.8005 H   0  0  0  0  0  0  0  0  0  0  0  0
   10.4232   -0.3547    1.7970 H   0  0  0  0  0  0  0  0  0  0  0  0
    8.2067    0.5939   -2.1019 H   0  0  0  0  0  0  0  0  0  0  0  0
    5.8998    0.4832   -2.9707 H   0  0  0  0  0  0  0  0  0  0  0  0
    1.2058   -1.8364   -0.1213 H   0  0  0  0  0  0  0  0  0  0  0  0
    1.5165   -1.8419   -1.8808 H   0  0  0  0  0  0  0  0  0  0  0  0
    0.3805    0.3125   -2.1515 H   0  0  0  0  0  0  0  0  0  0  0  0
   -0.7206   -0.8994   -1.5087 H   0  0  0  0  0  0  0  0  0  0  0  0
    1.1161    2.1622    1.0633 H   0  0  0  0  0  0  0  0  0  0  0  0
    1.3490    2.1957   -0.7069 H   0  0  0  0  0  0  0  0  0  0  0  0
    3.3614    1.3608    0.2213 H   0  0  0  0  0  0  0  0  0  0  0  0
    2.5503    0.1801    1.2766 H   0  0  0  0  0  0  0  0  0  0  0  0
    0.5217   -0.4808    1.7249 H   0  0  0  0  0  0  0  0  0  0  0  0
   -0.7199    0.6866    2.0862 H   0  0  0  0  0  0  0  0  0  0  0  0
   -1.5220   -1.6452    0.2966 H   0  0  0  0  0  0  0  0  0  0  0  0
   -1.4608   -3.1044    1.9036 H   0  0  0  0  0  0  0  0  0  0  0  0
   -3.0643    0.2249    1.5861 H   0  0  0  0  0  0  0  0  0  0  0  0
   -2.3993   -0.2277    3.6213 H   0  0  0  0  0  0  0  0  0  0  0  0
   -4.1073   -2.6088    1.8049 H   0  0  0  0  0  0  0  0  0  0  0  0
   -3.7021   -2.0950    0.1916 H   0  0  0  0  0  0  0  0  0  0  0  0
   -6.3090   -2.2997    2.4032 H   0  0  0  0  0  0  0  0  0  0  0  0
   -8.4657   -1.1338    2.2936 H   0  0  0  0  0  0  0  0  0  0  0  0
   -8.7188    0.9016    0.9119 H   0  0  0  0  0  0  0  0  0  0  0  0
   -6.8074    1.7696   -0.3793 H   0  0  0  0  0  0  0  0  0  0  0  0
   -4.3036   -0.4303   -2.1686 H   0  0  0  0  0  0  0  0  0  0  0  0
   -2.9183   -0.5424   -1.0426 H   0  0  0  0  0  0  0  0  0  0  0  0
   -1.6495    3.5417   -2.9950 H   0  0  0  0  0  0  0  0  0  0  0  0
   -0.5484    2.2072   -3.5297 H   0  0  0  0  0  0  0  0  0  0  0  0
   -0.1128    3.2439   -2.1217 H   0  0  0  0  0  0  0  0  0  0  0  0
   -2.1586    1.5190    0.2509 H   0  0  0  0  0  0  0  0  0  0  0  0
   -0.9918    2.7285    0.0077 H   0  0  0  0  0  0  0  0  0  0  0  0
    4.6269   -1.1737    0.8025 H   0  0  0  0  0  0  0  0  0  0  0  0
  1  2  1  0
  2  3  1  0
  3  4  2  0
  4  5  1  0
  5  6  2  0
  6  7  1  0
  7  8  2  0
  7  9  1  0
  9 10  1  0
 10 11  1  0
 11 12  1  0
 12 13  1  0
 13 14  1  0
 12 15  1  0
 15 16  1  0
 16 17  1  0
 16 18  1  0
 18 19  1  0
 18 20  1  0
 20 21  1  0
 21 22  2  0
 22 23  1  0
 23 24  2  0
 24 25  1  0
 25 26  2  0
 26 27  1  0
 27 28  1  0
 28 29  1  0
 29 30  2  0
 29 31  1  0
 31 32  1  0
 31 33  1  0
  6 34  1  0
 34 35  2  0
 35  3  1  0
 14  9  1  0
 26 21  1  0
 33 12  1  0
  1 36  1  0
  1 37  1  0
  1 38  1  0
  4 39  1  0
  5 40  1  0
 10 41  1  0
 10 42  1  0
 11 43  1  0
 11 44  1  0
 13 45  1  0
 13 46  1  0
 14 47  1  0
 14 48  1  0
 15 49  1  0
 15 50  1  0
 16 51  1  0
 17 52  1  0
 18 53  1  0
 19 54  1  0
 20 55  1  0
 20 56  1  0
 22 57  1  0
 23 58  1  0
 24 59  1  0
 25 60  1  0
 28 61  1  0
 28 62  1  0
 32 63  1  0
 32 64  1  0
 32 65  1  0
 33 66  1  0
 33 67  1  0
 34 68  1  0
M  END
$$$$
