
     RDKit          3D

 56 59  0  0  0  0  0  0  0  0999 V2000
    5.2806   -0.6890    1.5316 C   0  0  0  0  0  0  0  0  0  0  0  0
    4.0619   -0.0821    2.0951 N   0  0  0  0  0  0  0  0  0  0  0  0
    2.9361   -1.0312    2.1670 C   0  0  0  0  0  0  0  0  0  0  0  0
    2.3414   -1.3549    0.7903 C   0  0  0  0  0  0  0  0  0  0  0  0
    2.0677   -0.1273    0.0255 N   0  0  0  0  0  0  0  0  0  0  0  0
    1.0137   -0.1067   -0.9704 C   0  0  0  0  0  0  0  0  0  0  0  0
    0.8024    0.9841   -1.6557 N   0  0  0  0  0  0  0  0  0  0  0  0
   -0.2146    1.1656   -2.6907 C   0  0  0  0  0  0  0  0  0  0  0  0
   -0.6566    2.6330   -2.7917 C   0  0  0  0  0  0  0  0  0  0  0  0
   -0.7913    3.3914   -1.4513 C   0  0  0  0  0  0  0  0  0  0  0  0
   -1.5583    2.6740   -0.3226 C   0  0  0  0  0  0  0  0  0  0  0  0
   -2.9345    2.1375   -0.7419 C   0  0  0  0  0  0  0  0  0  0  0  0
   -3.7020    1.7690    0.4018 O   0  0  0  0  0  0  0  0  0  0  0  0
   -3.6718    0.5523    1.1146 C   0  0  0  0  0  0  0  0  0  0  0  0
   -4.6544    0.3991    2.1032 C   0  0  0  0  0  0  0  0  0  0  0  0
   -4.7256   -0.7601    2.8755 C   0  0  0  0  0  0  0  0  0  0  0  0
   -3.8050   -1.7871    2.6793 C   0  0  0  0  0  0  0  0  0  0  0  0
   -2.8130   -1.6568    1.7083 C   0  0  0  0  0  0  0  0  0  0  0  0
   -2.7364   -0.5014    0.9021 C   0  0  0  0  0  0  0  0  0  0  0  0
   -1.7078   -0.3800   -0.0430 O   0  0  0  0  0  0  0  0  0  0  0  0
   -1.1103   -1.4487   -0.7307 C   0  0  0  0  0  0  0  0  0  0  0  0
   -1.8061   -2.5993   -0.9567 N   0  0  0  0  0  0  0  0  0  0  0  0
   -1.2667   -3.6474   -1.6331 C   0  0  0  0  0  0  0  0  0  0  0  0
    0.0342   -3.5640   -2.1281 C   0  0  0  0  0  0  0  0  0  0  0  0
    0.7714   -2.3971   -1.9198 C   0  0  0  0  0  0  0  0  0  0  0  0
    0.2034   -1.3236   -1.2237 C   0  0  0  0  0  0  0  0  0  0  0  0
    3.1091    0.9123    0.0012 C   0  0  0  0  0  0  0  0  0  0  0  0
    3.6751    1.1632    1.4059 C   0  0  0  0  0  0  0  0  0  0  0  0
    6.1180    0.0367    1.5694 H   0  0  0  0  0  0  0  0  0  0  0  0
    5.5791   -1.5727    2.1355 H   0  0  0  0  0  0  0  0  0  0  0  0
    5.1370   -1.0090    0.4799 H   0  0  0  0  0  0  0  0  0  0  0  0
    3.2589   -1.9731    2.6606 H   0  0  0  0  0  0  0  0  0  0  0  0
    2.1395   -0.5954    2.8076 H   0  0  0  0  0  0  0  0  0  0  0  0
    1.4065   -1.9264    0.9680 H   0  0  0  0  0  0  0  0  0  0  0  0
    3.0323   -2.0038    0.2134 H   0  0  0  0  0  0  0  0  0  0  0  0
    0.2004    0.8360   -3.6668 H   0  0  0  0  0  0  0  0  0  0  0  0
   -1.1035    0.5417   -2.4954 H   0  0  0  0  0  0  0  0  0  0  0  0
   -1.6274    2.6746   -3.3317 H   0  0  0  0  0  0  0  0  0  0  0  0
    0.0806    3.1791   -3.4191 H   0  0  0  0  0  0  0  0  0  0  0  0
    0.2271    3.6330   -1.0735 H   0  0  0  0  0  0  0  0  0  0  0  0
   -1.2920    4.3628   -1.6559 H   0  0  0  0  0  0  0  0  0  0  0  0
   -1.7104    3.4097    0.4985 H   0  0  0  0  0  0  0  0  0  0  0  0
   -0.9290    1.8720    0.1059 H   0  0  0  0  0  0  0  0  0  0  0  0
   -2.8803    1.2918   -1.4502 H   0  0  0  0  0  0  0  0  0  0  0  0
   -3.4798    2.9528   -1.2632 H   0  0  0  0  0  0  0  0  0  0  0  0
   -5.3711    1.1941    2.2772 H   0  0  0  0  0  0  0  0  0  0  0  0
   -5.4913   -0.8565    3.6332 H   0  0  0  0  0  0  0  0  0  0  0  0
   -3.8444   -2.6761    3.2991 H   0  0  0  0  0  0  0  0  0  0  0  0
   -2.0753   -2.4427    1.6197 H   0  0  0  0  0  0  0  0  0  0  0  0
   -1.8495   -4.5463   -1.7875 H   0  0  0  0  0  0  0  0  0  0  0  0
    0.4706   -4.3975   -2.6628 H   0  0  0  0  0  0  0  0  0  0  0  0
    1.7856   -2.3319   -2.2953 H   0  0  0  0  0  0  0  0  0  0  0  0
    2.7031    1.8774   -0.3669 H   0  0  0  0  0  0  0  0  0  0  0  0
    3.9197    0.6060   -0.6926 H   0  0  0  0  0  0  0  0  0  0  0  0
    4.5464    1.8516    1.3364 H   0  0  0  0  0  0  0  0  0  0  0  0
    2.9069    1.6876    2.0146 H   0  0  0  0  0  0  0  0  0  0  0  0
  1  2  1  0
  2  3  1  0
  3  4  1  0
  4  5  1  0
  5  6  1  0
  6  7  2  0
  7  8  1  0
  8  9  1  0
  9 10  1  0
 10 11  1  0
 11 12  1  0
 12 13  1  0
 13 14  1  0
 14 15  2  0
 15 16  1  0
 16 17  2  0
 17 18  1  0
 18 19  2  0
 19 20  1  0
 20 21  1  0
 21 22  2  0
 22 23  1  0
 23 24  2  0
 24 25  1  0
 25 26  2  0
  5 27  1  0
 27 28  1  0
 28  2  1  0
 26  6  1  0
 19 14  1  0
 26 21  1  0
  1 29  1  0
  1 30  1  0
  1 31  1  0
  3 32  1  0
  3 33  1  0
  4 34  1  0
  4 35  1  0
  8 36  1  0
  8 37  1  0
  9 38  1  0
  9 39  1  0
 10 40  1  0
 10 41  1  0
 11 42  1  0
 11 43  1  0
 12 44  1  0
 12 45  1  0
 15 46  1  0
 16 47  1  0
 17 48  1  0
 18 49  1  0
 23 50  1  0
 24 51  1  0
 25 52  1  0
 27 53  1  0
 27 54  1  0
 28 55  1  0
 28 56  1  0
M  END
$$$$
