
     RDKit          3D

 65 68  0  0  0  0  0  0  0  0999 V2000
    4.3715    1.3339    2.2887 N   0  0  0  0  0  0  0  0  0  0  0  0
    4.5244   -0.0892    2.2714 C   0  0  0  0  0  0  0  0  0  0  0  0
    5.3744   -0.6726    3.1606 N   0  0  0  0  0  0  0  0  0  0  0  0
    5.5896   -2.0141    3.1838 C   0  0  0  0  0  0  0  0  0  0  0  0
    4.9206   -2.8443    2.2830 C   0  0  0  0  0  0  0  0  0  0  0  0
    4.0372   -2.2826    1.3623 C   0  0  0  0  0  0  0  0  0  0  0  0
    3.8147   -0.8987    1.3549 C   0  0  0  0  0  0  0  0  0  0  0  0
    2.8445   -0.3289    0.3994 C   0  0  0  0  0  0  0  0  0  0  0  0
    3.1317   -0.3379   -0.8302 O   0  0  0  0  0  0  0  0  0  0  0  0
    1.5855    0.2252    0.8445 N   0  0  0  0  0  0  0  0  0  0  0  0
    1.0100   -0.1524    2.1491 C   0  0  0  0  0  0  0  0  0  0  0  0
    0.4908   -1.6093    2.1601 C   0  0  0  0  0  0  0  0  0  0  0  0
   -1.0152   -1.7510    1.8367 C   0  0  0  0  0  0  0  0  0  0  0  0
   -1.2924   -1.7493    0.3180 C   0  0  0  0  0  0  0  0  0  0  0  0
   -2.7966   -1.7152   -0.1331 C   0  0  0  0  0  0  0  0  0  0  0  0
   -3.4378   -3.1193    0.0573 C   0  0  0  0  0  0  0  0  0  0  0  0
   -3.5549   -3.4506    1.4138 O   0  0  0  0  0  0  0  0  0  0  0  0
   -3.6585   -0.6578    0.5888 C   0  0  0  0  0  0  0  0  0  0  0  0
   -3.1493    0.7739    0.4020 C   0  0  0  0  0  0  0  0  0  0  0  0
   -2.6503    1.0855   -0.9544 N   0  0  0  0  0  0  0  0  0  0  0  0
   -2.3834    0.0556   -1.9839 C   0  0  0  0  0  0  0  0  0  0  0  0
   -2.8727   -1.3640   -1.6382 C   0  0  0  0  0  0  0  0  0  0  0  0
   -2.1946    2.4483   -1.1742 C   0  0  0  0  0  0  0  0  0  0  0  0
   -2.4403    3.3363   -0.3135 O   0  0  0  0  0  0  0  0  0  0  0  0
   -1.3142    2.8149   -2.3072 C   0  0  0  0  0  0  0  0  0  0  0  0
   -1.7928    2.7598   -3.6263 C   0  0  0  0  0  0  0  0  0  0  0  0
   -0.9496    3.0713   -4.6968 C   0  0  0  0  0  0  0  0  0  0  0  0
    0.3737    3.4470   -4.4607 C   0  0  0  0  0  0  0  0  0  0  0  0
    0.8535    3.5312   -3.1503 C   0  0  0  0  0  0  0  0  0  0  0  0
    0.0123    3.2367   -2.0695 C   0  0  0  0  0  0  0  0  0  0  0  0
    0.4910    3.3767   -0.7607 O   0  0  0  0  0  0  0  0  0  0  0  0
    1.4486    2.4835   -0.1940 C   0  0  0  0  0  0  0  0  0  0  0  0
    0.8219    1.1006   -0.0544 C   0  0  0  0  0  0  0  0  0  0  0  0
    4.8126    1.8943    3.0477 H   0  0  0  0  0  0  0  0  0  0  0  0
    3.8133    1.8387    1.5661 H   0  0  0  0  0  0  0  0  0  0  0  0
    6.2741   -2.4370    3.9068 H   0  0  0  0  0  0  0  0  0  0  0  0
    5.0875   -3.9141    2.2986 H   0  0  0  0  0  0  0  0  0  0  0  0
    3.5149   -2.9278    0.6673 H   0  0  0  0  0  0  0  0  0  0  0  0
    0.2003    0.5473    2.4459 H   0  0  0  0  0  0  0  0  0  0  0  0
    1.7839   -0.0325    2.9346 H   0  0  0  0  0  0  0  0  0  0  0  0
    0.6444   -2.0017    3.1875 H   0  0  0  0  0  0  0  0  0  0  0  0
    1.0935   -2.2542    1.4865 H   0  0  0  0  0  0  0  0  0  0  0  0
   -1.5764   -0.9465    2.3553 H   0  0  0  0  0  0  0  0  0  0  0  0
   -1.3600   -2.7168    2.2585 H   0  0  0  0  0  0  0  0  0  0  0  0
   -0.7702   -0.8916   -0.1184 H   0  0  0  0  0  0  0  0  0  0  0  0
   -0.8039   -2.6459   -0.1266 H   0  0  0  0  0  0  0  0  0  0  0  0
   -2.8258   -3.8883   -0.4655 H   0  0  0  0  0  0  0  0  0  0  0  0
   -4.4528   -3.1366   -0.3965 H   0  0  0  0  0  0  0  0  0  0  0  0
   -3.8679   -4.3910    1.4433 H   0  0  0  0  0  0  0  0  0  0  0  0
   -4.6999   -0.7056    0.1981 H   0  0  0  0  0  0  0  0  0  0  0  0
   -3.7335   -0.8773    1.6749 H   0  0  0  0  0  0  0  0  0  0  0  0
   -3.9859    1.4649    0.6534 H   0  0  0  0  0  0  0  0  0  0  0  0
   -2.3430    0.9668    1.1400 H   0  0  0  0  0  0  0  0  0  0  0  0
   -2.8769    0.3476   -2.9321 H   0  0  0  0  0  0  0  0  0  0  0  0
   -1.2919    0.0179   -2.1899 H   0  0  0  0  0  0  0  0  0  0  0  0
   -2.2791   -2.0987   -2.2299 H   0  0  0  0  0  0  0  0  0  0  0  0
   -3.9251   -1.4599   -1.9928 H   0  0  0  0  0  0  0  0  0  0  0  0
   -2.8213    2.4878   -3.8272 H   0  0  0  0  0  0  0  0  0  0  0  0
   -1.3235    3.0173   -5.7097 H   0  0  0  0  0  0  0  0  0  0  0  0
    1.0267    3.6846   -5.2905 H   0  0  0  0  0  0  0  0  0  0  0  0
    1.8746    3.8435   -2.9717 H   0  0  0  0  0  0  0  0  0  0  0  0
    2.3569    2.4335   -0.8285 H   0  0  0  0  0  0  0  0  0  0  0  0
    1.7319    2.8665    0.8085 H   0  0  0  0  0  0  0  0  0  0  0  0
    0.7326    0.6325   -1.0593 H   0  0  0  0  0  0  0  0  0  0  0  0
   -0.2033    1.2392    0.3388 H   0  0  0  0  0  0  0  0  0  0  0  0
  1  2  1  0
  2  3  2  0
  3  4  1  0
  4  5  2  0
  5  6  1  0
  6  7  2  0
  7  8  1  0
  8  9  2  0
  8 10  1  0
 10 11  1  0
 11 12  1  0
 12 13  1  0
 13 14  1  0
 14 15  1  0
 15 16  1  0
 16 17  1  0
 15 18  1  0
 18 19  1  0
 19 20  1  0
 20 21  1  0
 21 22  1  0
 20 23  1  0
 23 24  2  0
 23 25  1  0
 25 26  2  0
 26 27  1  0
 27 28  2  0
 28 29  1  0
 29 30  2  0
 30 31  1  0
 31 32  1  0
 32 33  1  0
  7  2  1  0
 33 10  1  0
 22 15  1  0
 30 25  1  0
  1 34  1  0
  1 35  1  0
  4 36  1  0
  5 37  1  0
  6 38  1  0
 11 39  1  0
 11 40  1  0
 12 41  1  0
 12 42  1  0
 13 43  1  0
 13 44  1  0
 14 45  1  0
 14 46  1  0
 16 47  1  0
 16 48  1  0
 17 49  1  0
 18 50  1  0
 18 51  1  0
 19 52  1  0
 19 53  1  0
 21 54  1  0
 21 55  1  0
 22 56  1  0
 22 57  1  0
 26 58  1  0
 27 59  1  0
 28 60  1  0
 29 61  1  0
 32 62  1  0
 32 63  1  0
 33 64  1  0
 33 65  1  0
M  END
$$$$
