
     RDKit          3D

 63 65  0  0  0  0  0  0  0  0999 V2000
    4.1684    1.5226   -1.7099 O   0  0  0  0  0  0  0  0  0  0  0  0
    3.7749    0.3797   -1.3502 C   0  0  0  0  0  0  0  0  0  0  0  0
    4.6795   -0.4479   -0.4726 C   0  0  0  0  0  0  0  0  0  0  0  0
    5.0662    0.3259    0.7964 C   0  0  0  0  0  0  0  0  0  0  0  0
    5.8428   -0.5459    1.7876 C   0  0  0  0  0  0  0  0  0  0  0  0
    5.0351   -1.5661    2.2578 F   0  0  0  0  0  0  0  0  0  0  0  0
    6.2544    0.2300    2.8570 F   0  0  0  0  0  0  0  0  0  0  0  0
    6.9600   -1.0925    1.1782 F   0  0  0  0  0  0  0  0  0  0  0  0
    2.4822   -0.0962   -1.7866 N   0  0  0  0  0  0  0  0  0  0  0  0
    2.2314   -1.5319   -2.0039 C   0  0  0  0  0  0  0  0  0  0  0  0
    1.4722   -2.1697   -0.8267 C   0  0  0  0  0  0  0  0  0  0  0  0
   -0.0274   -1.8420   -0.8540 C   0  0  0  0  0  0  0  0  0  0  0  0
   -0.8053   -2.6357    0.2094 C   0  0  0  0  0  0  0  0  0  0  0  0
   -2.2439   -2.0981    0.5142 C   0  0  0  0  0  0  0  0  0  0  0  0
   -2.9528   -3.1542    1.4103 C   0  0  0  0  0  0  0  0  0  0  0  0
   -3.1612   -4.3524    0.7090 O   0  0  0  0  0  0  0  0  0  0  0  0
   -3.0939   -1.9262   -0.7974 C   0  0  0  0  0  0  0  0  0  0  0  0
   -3.0287   -0.5285   -1.4480 C   0  0  0  0  0  0  0  0  0  0  0  0
   -3.1443    0.5514   -0.4601 N   0  0  0  0  0  0  0  0  0  0  0  0
   -3.2461    0.2286    0.9670 C   0  0  0  0  0  0  0  0  0  0  0  0
   -2.1488   -0.7646    1.3357 C   0  0  0  0  0  0  0  0  0  0  0  0
   -3.1662    1.9184   -0.9109 C   0  0  0  0  0  0  0  0  0  0  0  0
   -3.7895    2.2304   -1.9615 O   0  0  0  0  0  0  0  0  0  0  0  0
   -2.4279    2.9562   -0.1769 C   0  0  0  0  0  0  0  0  0  0  0  0
   -3.1307    3.9075    0.5754 C   0  0  0  0  0  0  0  0  0  0  0  0
   -2.4388    4.8354    1.3578 C   0  0  0  0  0  0  0  0  0  0  0  0
   -1.0448    4.8103    1.3993 C   0  0  0  0  0  0  0  0  0  0  0  0
   -0.3347    3.8767    0.6399 C   0  0  0  0  0  0  0  0  0  0  0  0
   -1.0203    2.9550   -0.1768 C   0  0  0  0  0  0  0  0  0  0  0  0
   -0.3457    2.0589   -1.0233 O   0  0  0  0  0  0  0  0  0  0  0  0
    1.0413    1.7311   -0.9366 C   0  0  0  0  0  0  0  0  0  0  0  0
    1.4465    0.8825   -2.1515 C   0  0  0  0  0  0  0  0  0  0  0  0
    5.5938   -0.7018   -1.0468 H   0  0  0  0  0  0  0  0  0  0  0  0
    4.1928   -1.3961   -0.1781 H   0  0  0  0  0  0  0  0  0  0  0  0
    4.1469    0.7071    1.2965 H   0  0  0  0  0  0  0  0  0  0  0  0
    5.6942    1.2019    0.5213 H   0  0  0  0  0  0  0  0  0  0  0  0
    1.6669   -1.6848   -2.9484 H   0  0  0  0  0  0  0  0  0  0  0  0
    3.1929   -2.0678   -2.1521 H   0  0  0  0  0  0  0  0  0  0  0  0
    1.9092   -1.8317    0.1382 H   0  0  0  0  0  0  0  0  0  0  0  0
    1.5994   -3.2728   -0.8861 H   0  0  0  0  0  0  0  0  0  0  0  0
   -0.1570   -0.7620   -0.6792 H   0  0  0  0  0  0  0  0  0  0  0  0
   -0.4349   -2.0900   -1.8581 H   0  0  0  0  0  0  0  0  0  0  0  0
   -0.8582   -3.6897   -0.1387 H   0  0  0  0  0  0  0  0  0  0  0  0
   -0.2220   -2.6413    1.1575 H   0  0  0  0  0  0  0  0  0  0  0  0
   -3.9366   -2.7596    1.7531 H   0  0  0  0  0  0  0  0  0  0  0  0
   -2.3352   -3.3590    2.3160 H   0  0  0  0  0  0  0  0  0  0  0  0
   -3.5645   -4.9852    1.3567 H   0  0  0  0  0  0  0  0  0  0  0  0
   -4.1672   -2.1097   -0.5682 H   0  0  0  0  0  0  0  0  0  0  0  0
   -2.8098   -2.6931   -1.5499 H   0  0  0  0  0  0  0  0  0  0  0  0
   -2.0829   -0.4081   -2.0125 H   0  0  0  0  0  0  0  0  0  0  0  0
   -3.8589   -0.4460   -2.1826 H   0  0  0  0  0  0  0  0  0  0  0  0
   -4.2441   -0.2124    1.1773 H   0  0  0  0  0  0  0  0  0  0  0  0
   -3.1453    1.1358    1.5983 H   0  0  0  0  0  0  0  0  0  0  0  0
   -1.1772   -0.2530    1.1833 H   0  0  0  0  0  0  0  0  0  0  0  0
   -2.1986   -0.9578    2.4302 H   0  0  0  0  0  0  0  0  0  0  0  0
   -4.2133    3.9140    0.5731 H   0  0  0  0  0  0  0  0  0  0  0  0
   -2.9828    5.5649    1.9451 H   0  0  0  0  0  0  0  0  0  0  0  0
   -0.5122    5.5240    2.0148 H   0  0  0  0  0  0  0  0  0  0  0  0
    0.7444    3.8956    0.6819 H   0  0  0  0  0  0  0  0  0  0  0  0
    1.6640    2.6507   -0.9298 H   0  0  0  0  0  0  0  0  0  0  0  0
    1.2141    1.1702    0.0103 H   0  0  0  0  0  0  0  0  0  0  0  0
    1.8227    1.5424   -2.9623 H   0  0  0  0  0  0  0  0  0  0  0  0
    0.5551    0.3667   -2.5663 H   0  0  0  0  0  0  0  0  0  0  0  0
  1  2  2  0
  2  3  1  0
  3  4  1  0
  4  5  1  0
  5  6  1  0
  5  7  1  0
  5  8  1  0
  2  9  1  0
  9 10  1  0
 10 11  1  0
 11 12  1  0
 12 13  1  0
 13 14  1  0
 14 15  1  0
 15 16  1  0
 14 17  1  0
 17 18  1  0
 18 19  1  0
 19 20  1  0
 20 21  1  0
 19 22  1  0
 22 23  2  0
 22 24  1  0
 24 25  2  0
 25 26  1  0
 26 27  2  0
 27 28  1  0
 28 29  2  0
 29 30  1  0
 30 31  1  0
 31 32  1  0
 32  9  1  0
 21 14  1  0
 29 24  1  0
  3 33  1  0
  3 34  1  0
  4 35  1  0
  4 36  1  0
 10 37  1  0
 10 38  1  0
 11 39  1  0
 11 40  1  0
 12 41  1  0
 12 42  1  0
 13 43  1  0
 13 44  1  0
 15 45  1  0
 15 46  1  0
 16 47  1  0
 17 48  1  0
 17 49  1  0
 18 50  1  0
 18 51  1  0
 20 52  1  0
 20 53  1  0
 21 54  1  0
 21 55  1  0
 25 56  1  0
 26 57  1  0
 27 58  1  0
 28 59  1  0
 31 60  1  0
 31 61  1  0
 32 62  1  0
 32 63  1  0
M  END
$$$$
