
     RDKit          3D

 64 67  0  0  0  0  0  0  0  0999 V2000
    4.7174    2.9514    0.8251 C   0  0  0  0  0  0  0  0  0  0  0  0
    4.9319    1.4838    0.6705 C   0  0  0  0  0  0  0  0  0  0  0  0
    5.3219    0.8463   -0.4920 C   0  0  0  0  0  0  0  0  0  0  0  0
    5.2741   -0.4942   -0.1663 C   0  0  0  0  0  0  0  0  0  0  0  0
    5.4560   -1.6344   -1.1194 C   0  0  0  0  0  0  0  0  0  0  0  0
    4.2126   -1.8635   -1.8495 N   0  0  0  0  0  0  0  0  0  0  0  0
    3.0901   -2.5199   -1.2445 C   0  0  0  0  0  0  0  0  0  0  0  0
    3.2573   -3.2760   -0.2513 O   0  0  0  0  0  0  0  0  0  0  0  0
    1.7039   -2.2932   -1.7725 C   0  0  0  0  0  0  0  0  0  0  0  0
    0.9523   -1.3906   -0.8744 N   0  0  0  0  0  0  0  0  0  0  0  0
    1.4022    0.0164   -1.0261 C   0  0  0  0  0  0  0  0  0  0  0  0
    1.0268    0.8593    0.2110 C   0  0  0  0  0  0  0  0  0  0  0  0
    0.3262    2.1748   -0.1723 C   0  0  0  0  0  0  0  0  0  0  0  0
   -0.3810    2.8540    1.0182 C   0  0  0  0  0  0  0  0  0  0  0  0
   -1.6104    2.0968    1.5675 C   0  0  0  0  0  0  0  0  0  0  0  0
   -2.7215    1.9189    0.5299 C   0  0  0  0  0  0  0  0  0  0  0  0
   -3.8303    1.2516    1.1258 O   0  0  0  0  0  0  0  0  0  0  0  0
   -4.8492    0.6818    0.3557 C   0  0  0  0  0  0  0  0  0  0  0  0
   -6.1550    1.1644    0.5009 C   0  0  0  0  0  0  0  0  0  0  0  0
   -7.1808    0.6816   -0.3170 C   0  0  0  0  0  0  0  0  0  0  0  0
   -6.9093   -0.2934   -1.2786 C   0  0  0  0  0  0  0  0  0  0  0  0
   -5.6154   -0.8061   -1.4083 C   0  0  0  0  0  0  0  0  0  0  0  0
   -4.5864   -0.3506   -0.5746 C   0  0  0  0  0  0  0  0  0  0  0  0
   -3.3183   -0.9335   -0.6937 O   0  0  0  0  0  0  0  0  0  0  0  0
   -2.5967   -1.4536    0.3909 C   0  0  0  0  0  0  0  0  0  0  0  0
   -3.2263   -1.6901    1.5775 N   0  0  0  0  0  0  0  0  0  0  0  0
   -2.5828   -2.2365    2.6403 C   0  0  0  0  0  0  0  0  0  0  0  0
   -1.2412   -2.5957    2.5332 C   0  0  0  0  0  0  0  0  0  0  0  0
   -0.5671   -2.3750    1.3319 C   0  0  0  0  0  0  0  0  0  0  0  0
   -1.2281   -1.7683    0.2476 C   0  0  0  0  0  0  0  0  0  0  0  0
   -0.5186   -1.5288   -1.0686 C   0  0  0  0  0  0  0  0  0  0  0  0
    4.8535   -0.6250    1.1052 N   0  0  0  0  0  0  0  0  0  0  0  0
    4.6416    0.5747    1.6226 N   0  0  0  0  0  0  0  0  0  0  0  0
    5.5679    3.5067    0.3737 H   0  0  0  0  0  0  0  0  0  0  0  0
    4.6395    3.2172    1.8999 H   0  0  0  0  0  0  0  0  0  0  0  0
    3.7777    3.2436    0.3114 H   0  0  0  0  0  0  0  0  0  0  0  0
    5.5556    1.2905   -1.4507 H   0  0  0  0  0  0  0  0  0  0  0  0
    6.2648   -1.3851   -1.8401 H   0  0  0  0  0  0  0  0  0  0  0  0
    5.7602   -2.5523   -0.5729 H   0  0  0  0  0  0  0  0  0  0  0  0
    4.0696   -1.3380   -2.7388 H   0  0  0  0  0  0  0  0  0  0  0  0
    1.7333   -1.8870   -2.8073 H   0  0  0  0  0  0  0  0  0  0  0  0
    1.2202   -3.2930   -1.8200 H   0  0  0  0  0  0  0  0  0  0  0  0
    2.5064    0.0692   -1.1255 H   0  0  0  0  0  0  0  0  0  0  0  0
    1.0063    0.4485   -1.9727 H   0  0  0  0  0  0  0  0  0  0  0  0
    0.3930    0.2662    0.8908 H   0  0  0  0  0  0  0  0  0  0  0  0
    1.9442    1.0993    0.7886 H   0  0  0  0  0  0  0  0  0  0  0  0
    1.0975    2.8709   -0.5671 H   0  0  0  0  0  0  0  0  0  0  0  0
   -0.3949    2.0138   -0.9972 H   0  0  0  0  0  0  0  0  0  0  0  0
   -0.7055    3.8690    0.7011 H   0  0  0  0  0  0  0  0  0  0  0  0
    0.3522    2.9906    1.8422 H   0  0  0  0  0  0  0  0  0  0  0  0
   -1.3206    1.1056    1.9713 H   0  0  0  0  0  0  0  0  0  0  0  0
   -2.0224    2.6784    2.4209 H   0  0  0  0  0  0  0  0  0  0  0  0
   -3.0545    2.9119    0.1553 H   0  0  0  0  0  0  0  0  0  0  0  0
   -2.3466    1.3251   -0.3224 H   0  0  0  0  0  0  0  0  0  0  0  0
   -6.3672    1.9403    1.2247 H   0  0  0  0  0  0  0  0  0  0  0  0
   -8.1855    1.0718   -0.2137 H   0  0  0  0  0  0  0  0  0  0  0  0
   -7.7043   -0.6591   -1.9156 H   0  0  0  0  0  0  0  0  0  0  0  0
   -5.4159   -1.5785   -2.1393 H   0  0  0  0  0  0  0  0  0  0  0  0
   -3.1187   -2.4081    3.5650 H   0  0  0  0  0  0  0  0  0  0  0  0
   -0.7300   -3.0482    3.3731 H   0  0  0  0  0  0  0  0  0  0  0  0
    0.4717   -2.6705    1.2575 H   0  0  0  0  0  0  0  0  0  0  0  0
   -0.9468   -0.6256   -1.5595 H   0  0  0  0  0  0  0  0  0  0  0  0
   -0.7816   -2.3783   -1.7387 H   0  0  0  0  0  0  0  0  0  0  0  0
    4.6851   -1.5225    1.6125 H   0  0  0  0  0  0  0  0  0  0  0  0
  1  2  1  0
  2  3  1  0
  3  4  2  0
  4  5  1  0
  5  6  1  0
  6  7  1  0
  7  8  2  0
  7  9  1  0
  9 10  1  0
 10 11  1  0
 11 12  1  0
 12 13  1  0
 13 14  1  0
 14 15  1  0
 15 16  1  0
 16 17  1  0
 17 18  1  0
 18 19  2  0
 19 20  1  0
 20 21  2  0
 21 22  1  0
 22 23  2  0
 23 24  1  0
 24 25  1  0
 25 26  2  0
 26 27  1  0
 27 28  2  0
 28 29  1  0
 29 30  2  0
 30 31  1  0
  4 32  1  0
 32 33  1  0
 33  2  2  0
 31 10  1  0
 23 18  1  0
 30 25  1  0
  1 34  1  0
  1 35  1  0
  1 36  1  0
  3 37  1  0
  5 38  1  0
  5 39  1  0
  6 40  1  0
  9 41  1  0
  9 42  1  0
 11 43  1  0
 11 44  1  0
 12 45  1  0
 12 46  1  0
 13 47  1  0
 13 48  1  0
 14 49  1  0
 14 50  1  0
 15 51  1  0
 15 52  1  0
 16 53  1  0
 16 54  1  0
 19 55  1  0
 20 56  1  0
 21 57  1  0
 22 58  1  0
 27 59  1  0
 28 60  1  0
 29 61  1  0
 31 62  1  0
 31 63  1  0
 32 64  1  0
M  END
$$$$
