
     RDKit          3D

 56 58  0  0  0  0  0  0  0  0999 V2000
    6.7697    2.0563    1.0681 C   0  0  0  0  0  0  0  0  0  0  0  0
    5.4912    1.4434    0.5758 C   0  0  0  0  0  0  0  0  0  0  0  0
    4.2634    2.0900    0.8135 C   0  0  0  0  0  0  0  0  0  0  0  0
    3.0779    1.5646    0.2936 C   0  0  0  0  0  0  0  0  0  0  0  0
    3.0992    0.3788   -0.4493 C   0  0  0  0  0  0  0  0  0  0  0  0
    1.8719   -0.1532   -1.0520 C   0  0  0  0  0  0  0  0  0  0  0  0
    1.5094    0.2895   -2.1743 O   0  0  0  0  0  0  0  0  0  0  0  0
    1.1461   -1.2356   -0.4369 N   0  0  0  0  0  0  0  0  0  0  0  0
    0.8972   -1.2458    1.0173 C   0  0  0  0  0  0  0  0  0  0  0  0
   -0.4431   -0.5829    1.3839 C   0  0  0  0  0  0  0  0  0  0  0  0
   -0.4583    0.9323    1.1518 C   0  0  0  0  0  0  0  0  0  0  0  0
   -1.8571    1.5361    1.3934 C   0  0  0  0  0  0  0  0  0  0  0  0
   -2.4686    1.9782    0.1271 N   0  0  0  0  0  0  0  0  0  0  0  0
   -2.2910    3.3695   -0.2967 C   0  0  0  0  0  0  0  0  0  0  0  0
   -3.0537    1.0459   -0.8079 C   0  0  0  0  0  0  0  0  0  0  0  0
   -3.0444    1.3125   -2.0411 O   0  0  0  0  0  0  0  0  0  0  0  0
   -3.7099   -0.2073   -0.3688 C   0  0  0  0  0  0  0  0  0  0  0  0
   -4.6003   -0.1684    0.7168 C   0  0  0  0  0  0  0  0  0  0  0  0
   -5.3002   -1.3141    1.1076 C   0  0  0  0  0  0  0  0  0  0  0  0
   -6.3994   -1.2495    2.4667 Cl  0  0  0  0  0  0  0  0  0  0  0  0
   -5.1443   -2.5042    0.3912 C   0  0  0  0  0  0  0  0  0  0  0  0
   -4.2894   -2.5516   -0.7139 C   0  0  0  0  0  0  0  0  0  0  0  0
   -3.5648   -1.4147   -1.0961 C   0  0  0  0  0  0  0  0  0  0  0  0
   -2.7238   -1.5217   -2.2121 O   0  0  0  0  0  0  0  0  0  0  0  0
   -1.3065   -1.3721   -2.1423 C   0  0  0  0  0  0  0  0  0  0  0  0
   -0.6687   -2.5979   -1.4731 C   0  0  0  0  0  0  0  0  0  0  0  0
    0.8382   -2.4226   -1.2490 C   0  0  0  0  0  0  0  0  0  0  0  0
    4.3211   -0.2690   -0.6918 C   0  0  0  0  0  0  0  0  0  0  0  0
    5.5134    0.2705   -0.1964 C   0  0  0  0  0  0  0  0  0  0  0  0
    6.6935   -0.3390   -0.4962 F   0  0  0  0  0  0  0  0  0  0  0  0
    6.5877    2.6942    1.9600 H   0  0  0  0  0  0  0  0  0  0  0  0
    7.4952    1.2641    1.3600 H   0  0  0  0  0  0  0  0  0  0  0  0
    7.2140    2.6805    0.2637 H   0  0  0  0  0  0  0  0  0  0  0  0
    4.2281    3.0152    1.3765 H   0  0  0  0  0  0  0  0  0  0  0  0
    2.1501    2.0968    0.4502 H   0  0  0  0  0  0  0  0  0  0  0  0
    0.8640   -2.2960    1.3811 H   0  0  0  0  0  0  0  0  0  0  0  0
    1.7267   -0.7521    1.5673 H   0  0  0  0  0  0  0  0  0  0  0  0
   -1.2692   -1.0529    0.8203 H   0  0  0  0  0  0  0  0  0  0  0  0
   -0.6406   -0.7731    2.4617 H   0  0  0  0  0  0  0  0  0  0  0  0
    0.2666    1.4016    1.8525 H   0  0  0  0  0  0  0  0  0  0  0  0
   -0.1285    1.1671    0.1190 H   0  0  0  0  0  0  0  0  0  0  0  0
   -1.7567    2.4022    2.0859 H   0  0  0  0  0  0  0  0  0  0  0  0
   -2.5181    0.8291    1.9330 H   0  0  0  0  0  0  0  0  0  0  0  0
   -1.8064    3.9792    0.4929 H   0  0  0  0  0  0  0  0  0  0  0  0
   -3.2784    3.8182   -0.5264 H   0  0  0  0  0  0  0  0  0  0  0  0
   -1.6489    3.4112   -1.2027 H   0  0  0  0  0  0  0  0  0  0  0  0
   -4.7729    0.7598    1.2436 H   0  0  0  0  0  0  0  0  0  0  0  0
   -5.6909   -3.3918    0.6862 H   0  0  0  0  0  0  0  0  0  0  0  0
   -4.1814   -3.4749   -1.2643 H   0  0  0  0  0  0  0  0  0  0  0  0
   -0.9047   -1.2746   -3.1742 H   0  0  0  0  0  0  0  0  0  0  0  0
   -1.0484   -0.4489   -1.5931 H   0  0  0  0  0  0  0  0  0  0  0  0
   -1.1659   -2.8181   -0.5062 H   0  0  0  0  0  0  0  0  0  0  0  0
   -0.8288   -3.4843   -2.1235 H   0  0  0  0  0  0  0  0  0  0  0  0
    1.2399   -3.3300   -0.7448 H   0  0  0  0  0  0  0  0  0  0  0  0
    1.3478   -2.3653   -2.2383 H   0  0  0  0  0  0  0  0  0  0  0  0
    4.3506   -1.1753   -1.2894 H   0  0  0  0  0  0  0  0  0  0  0  0
  1  2  1  0
  2  3  2  0
  3  4  1  0
  4  5  2  0
  5  6  1  0
  6  7  2  0
  6  8  1  0
  8  9  1  0
  9 10  1  0
 10 11  1  0
 11 12  1  0
 12 13  1  0
 13 14  1  0
 13 15  1  0
 15 16  2  0
 15 17  1  0
 17 18  2  0
 18 19  1  0
 19 20  1  0
 19 21  2  0
 21 22  1  0
 22 23  2  0
 23 24  1  0
 24 25  1  0
 25 26  1  0
 26 27  1  0
  5 28  1  0
 28 29  2  0
 29 30  1  0
 29  2  1  0
 27  8  1  0
 23 17  1  0
  1 31  1  0
  1 32  1  0
  1 33  1  0
  3 34  1  0
  4 35  1  0
  9 36  1  0
  9 37  1  0
 10 38  1  0
 10 39  1  0
 11 40  1  0
 11 41  1  0
 12 42  1  0
 12 43  1  0
 14 44  1  0
 14 45  1  0
 14 46  1  0
 18 47  1  0
 21 48  1  0
 22 49  1  0
 25 50  1  0
 25 51  1  0
 26 52  1  0
 26 53  1  0
 27 54  1  0
 27 55  1  0
 28 56  1  0
M  END
$$$$
