
     RDKit          3D

 73 77  0  0  0  0  0  0  0  0999 V2000
   -2.6046   -3.5753    0.9176 C   0  0  0  0  0  0  0  0  0  0  0  0
   -2.8901   -2.0962    1.1647 C   0  0  0  0  0  0  0  0  0  0  0  0
   -2.3394   -1.2698    0.0821 N   0  0  0  0  0  0  0  0  0  0  0  0
   -2.9812   -1.3263   -1.2472 C   0  0  0  0  0  0  0  0  0  0  0  0
   -2.6826   -0.0757   -2.1109 C   0  0  0  0  0  0  0  0  0  0  0  0
   -3.8727    0.5089   -2.6501 O   0  0  0  0  0  0  0  0  0  0  0  0
   -4.8826    1.1209   -1.8898 C   0  0  0  0  0  0  0  0  0  0  0  0
   -6.1482    0.5208   -1.8975 C   0  0  0  0  0  0  0  0  0  0  0  0
   -7.2076    1.0794   -1.1795 C   0  0  0  0  0  0  0  0  0  0  0  0
   -7.0173    2.2546   -0.4541 C   0  0  0  0  0  0  0  0  0  0  0  0
   -5.7693    2.8802   -0.4514 C   0  0  0  0  0  0  0  0  0  0  0  0
   -4.6907    2.3332   -1.1693 C   0  0  0  0  0  0  0  0  0  0  0  0
   -3.3597    3.0520   -1.1178 C   0  0  0  0  0  0  0  0  0  0  0  0
   -2.6193    2.9244    0.2407 C   0  0  0  0  0  0  0  0  0  0  0  0
   -2.9254    1.6299    1.0329 C   0  0  0  0  0  0  0  0  0  0  0  0
   -1.7582    1.0705    1.8754 C   0  0  0  0  0  0  0  0  0  0  0  0
   -0.5781    0.3471    1.1368 C   0  0  0  0  0  0  0  0  0  0  0  0
    0.3414   -0.2992    2.2337 C   0  0  0  0  0  0  0  0  0  0  0  0
    1.7304   -0.4207    1.7665 N   0  0  0  0  0  0  0  0  0  0  0  0
    2.5592   -1.4907    2.2883 C   0  0  0  0  0  0  0  0  0  0  0  0
    2.1337   -2.1650    3.2670 O   0  0  0  0  0  0  0  0  0  0  0  0
    3.8898   -1.8461    1.7192 C   0  0  0  0  0  0  0  0  0  0  0  0
    4.6546   -2.8789    2.2790 C   0  0  0  0  0  0  0  0  0  0  0  0
    5.8952   -3.1874    1.7318 C   0  0  0  0  0  0  0  0  0  0  0  0
    6.3583   -2.4635    0.6349 C   0  0  0  0  0  0  0  0  0  0  0  0
    7.5020   -2.7155    0.1670 O   0  0  0  0  0  0  0  0  0  0  0  0
    5.5766   -1.4728    0.0978 N   0  0  0  0  0  0  0  0  0  0  0  0
    6.0103   -0.6887   -1.0293 C   0  0  0  0  0  0  0  0  0  0  0  0
    6.5164   -1.3049   -2.1895 C   0  0  0  0  0  0  0  0  0  0  0  0
    6.9222   -0.5291   -3.2796 C   0  0  0  0  0  0  0  0  0  0  0  0
    6.8193    0.8641   -3.2260 C   0  0  0  0  0  0  0  0  0  0  0  0
    7.2162    1.6133   -4.2837 F   0  0  0  0  0  0  0  0  0  0  0  0
    6.3008    1.4841   -2.0856 C   0  0  0  0  0  0  0  0  0  0  0  0
    5.8929    0.7121   -0.9936 C   0  0  0  0  0  0  0  0  0  0  0  0
    4.3892   -1.1864    0.6408 N   0  0  0  0  0  0  0  0  0  0  0  0
    2.3021    0.7156    1.0325 C   0  0  0  0  0  0  0  0  0  0  0  0
    1.2671    1.8299    0.8892 C   0  0  0  0  0  0  0  0  0  0  0  0
    0.0869    1.3082    0.3145 O   0  0  0  0  0  0  0  0  0  0  0  0
   -0.9898   -0.7871    0.1986 C   0  0  0  0  0  0  0  0  0  0  0  0
   -0.1035   -1.3079   -0.5327 O   0  0  0  0  0  0  0  0  0  0  0  0
   -3.1267   -3.9226    0.0015 H   0  0  0  0  0  0  0  0  0  0  0  0
   -1.5114   -3.7386    0.8028 H   0  0  0  0  0  0  0  0  0  0  0  0
   -2.9664   -4.1752    1.7804 H   0  0  0  0  0  0  0  0  0  0  0  0
   -2.4436   -1.8163    2.1412 H   0  0  0  0  0  0  0  0  0  0  0  0
   -3.9867   -1.9344    1.2440 H   0  0  0  0  0  0  0  0  0  0  0  0
   -4.0804   -1.4386   -1.1222 H   0  0  0  0  0  0  0  0  0  0  0  0
   -2.6249   -2.2333   -1.7843 H   0  0  0  0  0  0  0  0  0  0  0  0
   -2.0976    0.6798   -1.5609 H   0  0  0  0  0  0  0  0  0  0  0  0
   -2.0404   -0.3830   -2.9636 H   0  0  0  0  0  0  0  0  0  0  0  0
   -6.3078   -0.3909   -2.4603 H   0  0  0  0  0  0  0  0  0  0  0  0
   -8.1779    0.5999   -1.1855 H   0  0  0  0  0  0  0  0  0  0  0  0
   -7.8403    2.6832    0.1038 H   0  0  0  0  0  0  0  0  0  0  0  0
   -5.6397    3.7936    0.1170 H   0  0  0  0  0  0  0  0  0  0  0  0
   -3.5374    4.1317   -1.3153 H   0  0  0  0  0  0  0  0  0  0  0  0
   -2.7030    2.7310   -1.9506 H   0  0  0  0  0  0  0  0  0  0  0  0
   -1.5362    3.0397    0.0502 H   0  0  0  0  0  0  0  0  0  0  0  0
   -2.9012    3.7904    0.8803 H   0  0  0  0  0  0  0  0  0  0  0  0
   -3.3422    0.8471    0.3948 H   0  0  0  0  0  0  0  0  0  0  0  0
   -3.7530    1.8688    1.7364 H   0  0  0  0  0  0  0  0  0  0  0  0
   -1.3414    1.9145    2.4683 H   0  0  0  0  0  0  0  0  0  0  0  0
   -2.1955    0.3754    2.6225 H   0  0  0  0  0  0  0  0  0  0  0  0
   -0.0653   -1.2930    2.5289 H   0  0  0  0  0  0  0  0  0  0  0  0
    0.3505    0.3222    3.1577 H   0  0  0  0  0  0  0  0  0  0  0  0
    4.3050   -3.4383    3.1372 H   0  0  0  0  0  0  0  0  0  0  0  0
    6.4975   -3.9760    2.1686 H   0  0  0  0  0  0  0  0  0  0  0  0
    6.5839   -2.3840   -2.2565 H   0  0  0  0  0  0  0  0  0  0  0  0
    7.3131   -1.0091   -4.1680 H   0  0  0  0  0  0  0  0  0  0  0  0
    6.2179    2.5632   -2.0454 H   0  0  0  0  0  0  0  0  0  0  0  0
    5.4970    1.2048   -0.1143 H   0  0  0  0  0  0  0  0  0  0  0  0
    2.5896    0.3902    0.0099 H   0  0  0  0  0  0  0  0  0  0  0  0
    3.1928    1.1097    1.5699 H   0  0  0  0  0  0  0  0  0  0  0  0
    1.6725    2.6150    0.2179 H   0  0  0  0  0  0  0  0  0  0  0  0
    1.0547    2.3112    1.8704 H   0  0  0  0  0  0  0  0  0  0  0  0
  1  2  1  0
  2  3  1  0
  3  4  1  0
  4  5  1  0
  5  6  1  0
  6  7  1  0
  7  8  2  0
  8  9  1  0
  9 10  2  0
 10 11  1  0
 11 12  2  0
 12 13  1  0
 13 14  1  0
 14 15  1  0
 15 16  1  0
 16 17  1  0
 17 18  1  0
 18 19  1  0
 19 20  1  0
 20 21  2  0
 20 22  1  0
 22 23  1  0
 23 24  2  0
 24 25  1  0
 25 26  2  0
 25 27  1  0
 27 28  1  0
 28 29  2  0
 29 30  1  0
 30 31  2  0
 31 32  1  0
 31 33  1  0
 33 34  2  0
 27 35  1  0
 19 36  1  0
 36 37  1  0
 37 38  1  0
 17 39  1  0
 39 40  2  0
 39  3  1  0
 12  7  1  0
 38 17  1  0
 35 22  2  0
 34 28  1  0
  1 41  1  0
  1 42  1  0
  1 43  1  0
  2 44  1  0
  2 45  1  0
  4 46  1  0
  4 47  1  0
  5 48  1  0
  5 49  1  0
  8 50  1  0
  9 51  1  0
 10 52  1  0
 11 53  1  0
 13 54  1  0
 13 55  1  0
 14 56  1  0
 14 57  1  0
 15 58  1  0
 15 59  1  0
 16 60  1  0
 16 61  1  0
 18 62  1  0
 18 63  1  0
 23 64  1  0
 24 65  1  0
 29 66  1  0
 30 67  1  0
 33 68  1  0
 34 69  1  0
 36 70  1  0
 36 71  1  0
 37 72  1  0
 37 73  1  0
M  END
$$$$
