
     RDKit          3D

 78 80  0  0  0  0  0  0  0  0999 V2000
    9.8249   -2.1558   -1.1259 C   0  0  0  0  0  0  0  0  0  0  0  0
    9.0747   -1.9679    0.0696 O   0  0  0  0  0  0  0  0  0  0  0  0
    7.9041   -1.1995    0.1567 C   0  0  0  0  0  0  0  0  0  0  0  0
    7.3578   -0.5273   -0.9526 C   0  0  0  0  0  0  0  0  0  0  0  0
    6.1800    0.2126   -0.8177 C   0  0  0  0  0  0  0  0  0  0  0  0
    5.5274    0.2928    0.4168 C   0  0  0  0  0  0  0  0  0  0  0  0
    4.3345    1.0253    0.4904 O   0  0  0  0  0  0  0  0  0  0  0  0
    3.4947    1.0920    1.6410 C   0  0  0  0  0  0  0  0  0  0  0  0
    2.1907    1.8013    1.2864 C   0  0  0  0  0  0  0  0  0  0  0  0
    1.4790    1.0543    0.2499 N   0  0  0  0  0  0  0  0  0  0  0  0
    0.0539    0.8910    0.2409 C   0  0  0  0  0  0  0  0  0  0  0  0
   -0.6494    1.3967    1.1577 O   0  0  0  0  0  0  0  0  0  0  0  0
   -0.5939    0.0519   -0.8390 C   0  0  0  0  0  0  0  0  0  0  0  0
   -0.7953   -1.4158   -0.3649 C   0  0  0  0  0  0  0  0  0  0  0  0
   -1.2221   -1.5605    1.0842 C   0  0  0  0  0  0  0  0  0  0  0  0
   -0.3167   -1.5649    1.9640 O   0  0  0  0  0  0  0  0  0  0  0  0
   -2.5901   -1.6913    1.5197 N   0  0  0  0  0  0  0  0  0  0  0  0
   -3.7818   -1.7782    0.6709 C   0  0  0  0  0  0  0  0  0  0  0  0
   -4.4011   -3.1934    0.7358 C   0  0  0  0  0  0  0  0  0  0  0  0
   -3.5015   -4.2994    0.1189 C   0  0  0  0  0  0  0  0  0  0  0  0
   -4.3607   -5.4064   -0.5094 C   0  0  0  0  0  0  0  0  0  0  0  0
   -2.5638   -4.9231    1.1679 C   0  0  0  0  0  0  0  0  0  0  0  0
   -4.7761   -0.7409    1.1424 C   0  0  0  0  0  0  0  0  0  0  0  0
   -5.4502   -0.9464    2.1885 O   0  0  0  0  0  0  0  0  0  0  0  0
   -4.8741    0.5198    0.4654 N   0  0  0  0  0  0  0  0  0  0  0  0
   -5.5084    1.6879    1.0822 C   0  0  0  0  0  0  0  0  0  0  0  0
   -5.0235    2.9871    0.4223 C   0  0  0  0  0  0  0  0  0  0  0  0
   -3.5495    3.2658    0.7407 C   0  0  0  0  0  0  0  0  0  0  0  0
   -3.0235    4.2235   -0.1768 O   0  0  0  0  0  0  0  0  0  0  0  0
   -1.6983    4.1952   -0.6357 C   0  0  0  0  0  0  0  0  0  0  0  0
   -0.8697    5.2906   -0.3623 C   0  0  0  0  0  0  0  0  0  0  0  0
    0.4555    5.3034   -0.8034 C   0  0  0  0  0  0  0  0  0  0  0  0
    0.9551    4.2334   -1.5482 C   0  0  0  0  0  0  0  0  0  0  0  0
    0.1308    3.1492   -1.8575 C   0  0  0  0  0  0  0  0  0  0  0  0
   -1.1913    3.1060   -1.3847 C   0  0  0  0  0  0  0  0  0  0  0  0
   -2.0712    1.9861   -1.7691 C   0  0  0  0  0  0  0  0  0  0  0  0
   -3.1034    2.2499   -2.4411 O   0  0  0  0  0  0  0  0  0  0  0  0
   -1.8502    0.6258   -1.3479 N   0  0  0  0  0  0  0  0  0  0  0  0
    6.0805   -0.3667    1.5304 C   0  0  0  0  0  0  0  0  0  0  0  0
    7.2591   -1.1065    1.3952 C   0  0  0  0  0  0  0  0  0  0  0  0
   10.2018   -1.1786   -1.4982 H   0  0  0  0  0  0  0  0  0  0  0  0
    9.1952   -2.6426   -1.9018 H   0  0  0  0  0  0  0  0  0  0  0  0
   10.6930   -2.8130   -0.9111 H   0  0  0  0  0  0  0  0  0  0  0  0
    7.8304   -0.5743   -1.9238 H   0  0  0  0  0  0  0  0  0  0  0  0
    5.7628    0.7179   -1.6799 H   0  0  0  0  0  0  0  0  0  0  0  0
    3.2591    0.0661    1.9991 H   0  0  0  0  0  0  0  0  0  0  0  0
    4.0130    1.6505    2.4495 H   0  0  0  0  0  0  0  0  0  0  0  0
    2.4083    2.8252    0.9152 H   0  0  0  0  0  0  0  0  0  0  0  0
    1.5734    1.8834    2.2062 H   0  0  0  0  0  0  0  0  0  0  0  0
    2.0161    0.7390   -0.5879 H   0  0  0  0  0  0  0  0  0  0  0  0
    0.1018    0.0106   -1.7042 H   0  0  0  0  0  0  0  0  0  0  0  0
    0.1836   -1.9364   -0.4690 H   0  0  0  0  0  0  0  0  0  0  0  0
   -1.4715   -1.9667   -1.0466 H   0  0  0  0  0  0  0  0  0  0  0  0
   -2.7394   -1.8002    2.5502 H   0  0  0  0  0  0  0  0  0  0  0  0
   -3.5393   -1.5665   -0.3857 H   0  0  0  0  0  0  0  0  0  0  0  0
   -4.6581   -3.4527    1.7867 H   0  0  0  0  0  0  0  0  0  0  0  0
   -5.3621   -3.1527    0.1764 H   0  0  0  0  0  0  0  0  0  0  0  0
   -2.8796   -3.8676   -0.6948 H   0  0  0  0  0  0  0  0  0  0  0  0
   -4.9876   -4.9901   -1.3278 H   0  0  0  0  0  0  0  0  0  0  0  0
   -5.0252   -5.8676    0.2533 H   0  0  0  0  0  0  0  0  0  0  0  0
   -3.7118   -6.1956   -0.9485 H   0  0  0  0  0  0  0  0  0  0  0  0
   -3.1507   -5.4125    1.9766 H   0  0  0  0  0  0  0  0  0  0  0  0
   -1.9043   -4.1587    1.6226 H   0  0  0  0  0  0  0  0  0  0  0  0
   -1.9092   -5.6852    0.6900 H   0  0  0  0  0  0  0  0  0  0  0  0
   -4.3907    0.6256   -0.4497 H   0  0  0  0  0  0  0  0  0  0  0  0
   -6.6093    1.6003    0.9682 H   0  0  0  0  0  0  0  0  0  0  0  0
   -5.2719    1.7231    2.1684 H   0  0  0  0  0  0  0  0  0  0  0  0
   -5.6391    3.8380    0.7869 H   0  0  0  0  0  0  0  0  0  0  0  0
   -5.1671    2.9147   -0.6775 H   0  0  0  0  0  0  0  0  0  0  0  0
   -3.4560    3.6635    1.7734 H   0  0  0  0  0  0  0  0  0  0  0  0
   -2.9685    2.3248    0.6957 H   0  0  0  0  0  0  0  0  0  0  0  0
   -1.2516    6.1251    0.2123 H   0  0  0  0  0  0  0  0  0  0  0  0
    1.0938    6.1452   -0.5690 H   0  0  0  0  0  0  0  0  0  0  0  0
    1.9792    4.2502   -1.8987 H   0  0  0  0  0  0  0  0  0  0  0  0
    0.5239    2.3453   -2.4676 H   0  0  0  0  0  0  0  0  0  0  0  0
   -2.5569   -0.0500   -1.7130 H   0  0  0  0  0  0  0  0  0  0  0  0
    5.6068   -0.3174    2.5012 H   0  0  0  0  0  0  0  0  0  0  0  0
    7.6705   -1.6168    2.2566 H   0  0  0  0  0  0  0  0  0  0  0  0
  1  2  1  0
  2  3  1  0
  3  4  2  0
  4  5  1  0
  5  6  2  0
  6  7  1  0
  7  8  1  0
  8  9  1  0
  9 10  1  0
 10 11  1  0
 11 12  2  0
 11 13  1  0
 13 14  1  0
 14 15  1  0
 15 16  2  0
 15 17  1  0
 17 18  1  0
 18 19  1  0
 19 20  1  0
 20 21  1  0
 20 22  1  0
 18 23  1  0
 23 24  2  0
 23 25  1  0
 25 26  1  0
 26 27  1  0
 27 28  1  0
 28 29  1  0
 29 30  1  0
 30 31  2  0
 31 32  1  0
 32 33  2  0
 33 34  1  0
 34 35  2  0
 35 36  1  0
 36 37  2  0
 36 38  1  0
  6 39  1  0
 39 40  2  0
 40  3  1  0
 38 13  1  0
 35 30  1  0
  1 41  1  0
  1 42  1  0
  1 43  1  0
  4 44  1  0
  5 45  1  0
  8 46  1  0
  8 47  1  0
  9 48  1  0
  9 49  1  0
 10 50  1  0
 13 51  1  0
 14 52  1  0
 14 53  1  0
 17 54  1  0
 18 55  1  0
 19 56  1  0
 19 57  1  0
 20 58  1  0
 21 59  1  0
 21 60  1  0
 21 61  1  0
 22 62  1  0
 22 63  1  0
 22 64  1  0
 25 65  1  0
 26 66  1  0
 26 67  1  0
 27 68  1  0
 27 69  1  0
 28 70  1  0
 28 71  1  0
 31 72  1  0
 32 73  1  0
 33 74  1  0
 34 75  1  0
 38 76  1  0
 39 77  1  0
 40 78  1  0
M  END
$$$$
