
     RDKit          3D

 82 85  0  0  0  0  0  0  0  0999 V2000
   -3.4628    6.4794   -0.2803 C   0  0  0  0  0  0  0  0  0  0  0  0
   -4.5804    5.5341    0.1592 C   0  0  0  0  0  0  0  0  0  0  0  0
   -4.0534    4.1749    0.6455 C   0  0  0  0  0  0  0  0  0  0  0  0
   -3.4862    3.3178   -0.4987 C   0  0  0  0  0  0  0  0  0  0  0  0
   -3.2264    1.9422   -0.0493 N   0  0  0  0  0  0  0  0  0  0  0  0
   -4.3475    0.9872    0.0150 C   0  0  0  0  0  0  0  0  0  0  0  0
   -4.4262    0.1195   -1.2517 C   0  0  0  0  0  0  0  0  0  0  0  0
   -3.8031   -1.1468   -1.0497 O   0  0  0  0  0  0  0  0  0  0  0  0
   -4.3301   -2.2104   -0.2925 C   0  0  0  0  0  0  0  0  0  0  0  0
   -5.6396   -2.1721    0.2300 C   0  0  0  0  0  0  0  0  0  0  0  0
   -6.1446   -3.2510    0.9601 C   0  0  0  0  0  0  0  0  0  0  0  0
   -5.3507   -4.3736    1.1900 C   0  0  0  0  0  0  0  0  0  0  0  0
   -4.0480   -4.4207    0.6932 C   0  0  0  0  0  0  0  0  0  0  0  0
   -3.5244   -3.3472   -0.0484 C   0  0  0  0  0  0  0  0  0  0  0  0
   -2.1004   -3.4326   -0.5521 C   0  0  0  0  0  0  0  0  0  0  0  0
   -1.0634   -3.2109    0.5729 C   0  0  0  0  0  0  0  0  0  0  0  0
   -0.3245   -1.8659    0.4526 C   0  0  0  0  0  0  0  0  0  0  0  0
   -1.1822   -0.6722    0.9276 C   0  0  0  0  0  0  0  0  0  0  0  0
   -1.0195    0.5968    0.0517 C   0  0  0  0  0  0  0  0  0  0  0  0
    0.4653    1.1145    0.1335 C   0  0  0  0  0  0  0  0  0  0  0  0
    1.2558    0.6301   -1.0104 N   0  0  0  0  0  0  0  0  0  0  0  0
    2.6355    0.2090   -0.8972 C   0  0  0  0  0  0  0  0  0  0  0  0
    3.2722   -0.0722   -1.9485 O   0  0  0  0  0  0  0  0  0  0  0  0
    3.3207    0.0893    0.4531 C   0  0  0  0  0  0  0  0  0  0  0  0
    4.7149   -0.4088    0.4187 N   0  0  0  0  0  0  0  0  0  0  0  0
    4.8278   -1.8310    0.0268 C   0  0  0  0  0  0  0  0  0  0  0  0
    6.2844   -2.2483   -0.2602 C   0  0  0  0  0  0  0  0  0  0  0  0
    7.2803   -1.3570    0.5026 C   0  0  0  0  0  0  0  0  0  0  0  0
    8.7014   -1.8049    0.2706 C   0  0  0  0  0  0  0  0  0  0  0  0
    9.6127   -1.9167    1.3622 N   0  0  0  0  0  0  0  0  0  0  0  0
    9.1076   -2.0309   -0.9001 O   0  0  0  0  0  0  0  0  0  0  0  0
    7.1113    0.1292    0.1124 C   0  0  0  0  0  0  0  0  0  0  0  0
    5.6642    0.4757   -0.2816 C   0  0  0  0  0  0  0  0  0  0  0  0
    0.6616    0.7217   -2.3495 C   0  0  0  0  0  0  0  0  0  0  0  0
   -0.8185    1.0724   -2.2514 C   0  0  0  0  0  0  0  0  0  0  0  0
   -1.4204    0.2520   -1.2734 O   0  0  0  0  0  0  0  0  0  0  0  0
   -1.9718    1.6490    0.5974 C   0  0  0  0  0  0  0  0  0  0  0  0
   -1.6652    2.2719    1.6521 O   0  0  0  0  0  0  0  0  0  0  0  0
   -2.7374    6.6313    0.5473 H   0  0  0  0  0  0  0  0  0  0  0  0
   -3.8970    7.4659   -0.5470 H   0  0  0  0  0  0  0  0  0  0  0  0
   -2.9342    6.0784   -1.1692 H   0  0  0  0  0  0  0  0  0  0  0  0
   -5.1318    6.0145    0.9960 H   0  0  0  0  0  0  0  0  0  0  0  0
   -5.3002    5.3890   -0.6736 H   0  0  0  0  0  0  0  0  0  0  0  0
   -4.8969    3.6343    1.1260 H   0  0  0  0  0  0  0  0  0  0  0  0
   -3.2771    4.3324    1.4235 H   0  0  0  0  0  0  0  0  0  0  0  0
   -4.2027    3.2923   -1.3480 H   0  0  0  0  0  0  0  0  0  0  0  0
   -2.5440    3.7692   -0.8784 H   0  0  0  0  0  0  0  0  0  0  0  0
   -5.3080    1.5420    0.1056 H   0  0  0  0  0  0  0  0  0  0  0  0
   -4.2694    0.3632    0.9297 H   0  0  0  0  0  0  0  0  0  0  0  0
   -5.4798   -0.0262   -1.5686 H   0  0  0  0  0  0  0  0  0  0  0  0
   -3.9280    0.6339   -2.0979 H   0  0  0  0  0  0  0  0  0  0  0  0
   -6.2813   -1.3147    0.0825 H   0  0  0  0  0  0  0  0  0  0  0  0
   -7.1538   -3.2162    1.3508 H   0  0  0  0  0  0  0  0  0  0  0  0
   -5.7449   -5.2063    1.7569 H   0  0  0  0  0  0  0  0  0  0  0  0
   -3.4439   -5.2998    0.8867 H   0  0  0  0  0  0  0  0  0  0  0  0
   -1.9324   -2.7269   -1.3963 H   0  0  0  0  0  0  0  0  0  0  0  0
   -1.9477   -4.4474   -0.9830 H   0  0  0  0  0  0  0  0  0  0  0  0
   -0.2998   -4.0171    0.5018 H   0  0  0  0  0  0  0  0  0  0  0  0
   -1.5178   -3.3024    1.5849 H   0  0  0  0  0  0  0  0  0  0  0  0
    0.0228   -1.7440   -0.5947 H   0  0  0  0  0  0  0  0  0  0  0  0
    0.5902   -1.9080    1.0829 H   0  0  0  0  0  0  0  0  0  0  0  0
   -2.2470   -0.9592    0.9399 H   0  0  0  0  0  0  0  0  0  0  0  0
   -0.9336   -0.4447    1.9861 H   0  0  0  0  0  0  0  0  0  0  0  0
    0.4882    2.2254    0.1006 H   0  0  0  0  0  0  0  0  0  0  0  0
    0.9162    0.8287    1.1044 H   0  0  0  0  0  0  0  0  0  0  0  0
    3.3069    1.0830    0.9491 H   0  0  0  0  0  0  0  0  0  0  0  0
    2.7232   -0.5892    1.0957 H   0  0  0  0  0  0  0  0  0  0  0  0
    4.2114   -2.0663   -0.8643 H   0  0  0  0  0  0  0  0  0  0  0  0
    4.4413   -2.4528    0.8630 H   0  0  0  0  0  0  0  0  0  0  0  0
    6.4220   -3.3133    0.0342 H   0  0  0  0  0  0  0  0  0  0  0  0
    6.4753   -2.1744   -1.3549 H   0  0  0  0  0  0  0  0  0  0  0  0
    7.0505   -1.4624    1.5864 H   0  0  0  0  0  0  0  0  0  0  0  0
   10.5979   -2.2217    1.1924 H   0  0  0  0  0  0  0  0  0  0  0  0
    9.3096   -1.7045    2.3379 H   0  0  0  0  0  0  0  0  0  0  0  0
    7.4286    0.7654    0.9700 H   0  0  0  0  0  0  0  0  0  0  0  0
    7.7738    0.3865   -0.7450 H   0  0  0  0  0  0  0  0  0  0  0  0
    5.5664    0.3657   -1.3806 H   0  0  0  0  0  0  0  0  0  0  0  0
    5.4700    1.5384   -0.0273 H   0  0  0  0  0  0  0  0  0  0  0  0
    0.7566   -0.2622   -2.8587 H   0  0  0  0  0  0  0  0  0  0  0  0
    1.1902    1.4938   -2.9489 H   0  0  0  0  0  0  0  0  0  0  0  0
   -1.3035    0.8804   -3.2313 H   0  0  0  0  0  0  0  0  0  0  0  0
   -0.9552    2.1527   -2.0179 H   0  0  0  0  0  0  0  0  0  0  0  0
  1  2  1  0
  2  3  1  0
  3  4  1  0
  4  5  1  0
  5  6  1  0
  6  7  1  0
  7  8  1  0
  8  9  1  0
  9 10  2  0
 10 11  1  0
 11 12  2  0
 12 13  1  0
 13 14  2  0
 14 15  1  0
 15 16  1  0
 16 17  1  0
 17 18  1  0
 18 19  1  0
 19 20  1  0
 20 21  1  0
 21 22  1  0
 22 23  2  0
 22 24  1  0
 24 25  1  0
 25 26  1  0
 26 27  1  0
 27 28  1  0
 28 29  1  0
 29 30  1  0
 29 31  2  0
 28 32  1  0
 32 33  1  0
 21 34  1  0
 34 35  1  0
 35 36  1  0
 19 37  1  0
 37 38  2  0
 37  5  1  0
 14  9  1  0
 36 19  1  0
 33 25  1  0
  1 39  1  0
  1 40  1  0
  1 41  1  0
  2 42  1  0
  2 43  1  0
  3 44  1  0
  3 45  1  0
  4 46  1  0
  4 47  1  0
  6 48  1  0
  6 49  1  0
  7 50  1  0
  7 51  1  0
 10 52  1  0
 11 53  1  0
 12 54  1  0
 13 55  1  0
 15 56  1  0
 15 57  1  0
 16 58  1  0
 16 59  1  0
 17 60  1  0
 17 61  1  0
 18 62  1  0
 18 63  1  0
 20 64  1  0
 20 65  1  0
 24 66  1  0
 24 67  1  0
 26 68  1  0
 26 69  1  0
 27 70  1  0
 27 71  1  0
 28 72  1  0
 30 73  1  0
 30 74  1  0
 32 75  1  0
 32 76  1  0
 33 77  1  0
 33 78  1  0
 34 79  1  0
 34 80  1  0
 35 81  1  0
 35 82  1  0
M  END
$$$$
