
     RDKit          3D

 84 88  0  0  0  0  0  0  0  0999 V2000
   12.1642    0.6864    0.8646 C   0  0  0  0  0  0  0  0  0  0  0  0
   10.9693    0.8930    1.6141 O   0  0  0  0  0  0  0  0  0  0  0  0
    9.7341    0.2946    1.3124 C   0  0  0  0  0  0  0  0  0  0  0  0
    9.5474   -0.5120    0.1707 C   0  0  0  0  0  0  0  0  0  0  0  0
    8.3002   -1.0780   -0.0981 C   0  0  0  0  0  0  0  0  0  0  0  0
    7.2120   -0.8475    0.7535 C   0  0  0  0  0  0  0  0  0  0  0  0
    5.9446   -1.4563    0.4480 N   0  0  0  0  0  0  0  0  0  0  0  0
    4.6663   -0.8604    0.7251 C   0  0  0  0  0  0  0  0  0  0  0  0
    4.5958    0.2776    1.2628 O   0  0  0  0  0  0  0  0  0  0  0  0
    3.4001   -1.6141    0.3735 C   0  0  0  0  0  0  0  0  0  0  0  0
    2.2911   -0.7671   -0.1235 N   0  0  0  0  0  0  0  0  0  0  0  0
    2.6395    0.0294   -1.3237 C   0  0  0  0  0  0  0  0  0  0  0  0
    1.5981    1.1270   -1.6224 C   0  0  0  0  0  0  0  0  0  0  0  0
    0.1993    0.7724   -1.0824 C   0  0  0  0  0  0  0  0  0  0  0  0
   -0.3365   -0.3698   -1.8315 N   0  0  0  0  0  0  0  0  0  0  0  0
   -1.6481   -0.3168   -2.3911 C   0  0  0  0  0  0  0  0  0  0  0  0
   -1.7973    0.0299   -3.5920 O   0  0  0  0  0  0  0  0  0  0  0  0
   -2.8301   -0.7241   -1.5585 C   0  0  0  0  0  0  0  0  0  0  0  0
   -3.0688   -2.2375   -1.6927 C   0  0  0  0  0  0  0  0  0  0  0  0
   -4.1223   -2.7086   -0.7256 C   0  0  0  0  0  0  0  0  0  0  0  0
   -3.7935   -2.9313    0.6229 C   0  0  0  0  0  0  0  0  0  0  0  0
   -4.7827   -3.3145    1.5338 C   0  0  0  0  0  0  0  0  0  0  0  0
   -6.1041   -3.4766    1.1085 C   0  0  0  0  0  0  0  0  0  0  0  0
   -6.4400   -3.2514   -0.2296 C   0  0  0  0  0  0  0  0  0  0  0  0
   -5.4539   -2.8676   -1.1453 C   0  0  0  0  0  0  0  0  0  0  0  0
   -4.0234    0.0289   -1.9593 N   0  0  0  0  0  0  0  0  0  0  0  0
   -4.2214    1.3847   -1.5349 C   0  0  0  0  0  0  0  0  0  0  0  0
   -3.9688    2.3126   -2.3521 O   0  0  0  0  0  0  0  0  0  0  0  0
   -4.8171    1.7376   -0.1715 C   0  0  0  0  0  0  0  0  0  0  0  0
   -3.9196    2.8154    0.5304 C   0  0  0  0  0  0  0  0  0  0  0  0
   -2.4323    2.5604    0.4499 C   0  0  0  0  0  0  0  0  0  0  0  0
   -1.7883    1.7564    1.3081 C   0  0  0  0  0  0  0  0  0  0  0  0
   -0.2847    1.6349    1.3125 C   0  0  0  0  0  0  0  0  0  0  0  0
    0.2217    0.4530    0.4514 C   0  0  0  0  0  0  0  0  0  0  0  0
    1.6337    0.0343    0.9260 C   0  0  0  0  0  0  0  0  0  0  0  0
   -6.2300    2.3290   -0.4345 C   0  0  0  0  0  0  0  0  0  0  0  0
   -7.0380    2.4710    0.8609 C   0  0  0  0  0  0  0  0  0  0  0  0
   -7.1859    1.2181    1.4988 O   0  0  0  0  0  0  0  0  0  0  0  0
   -5.9251    0.7394    1.9217 C   0  0  0  0  0  0  0  0  0  0  0  0
   -5.0056    0.4757    0.7199 C   0  0  0  0  0  0  0  0  0  0  0  0
    7.4079   -0.0755    1.9171 C   0  0  0  0  0  0  0  0  0  0  0  0
    8.6543    0.5028    2.1868 C   0  0  0  0  0  0  0  0  0  0  0  0
    8.8521    1.4790    3.6395 Cl  0  0  0  0  0  0  0  0  0  0  0  0
   12.9825    1.2845    1.3172 H   0  0  0  0  0  0  0  0  0  0  0  0
   12.0208    1.0238   -0.1878 H   0  0  0  0  0  0  0  0  0  0  0  0
   12.4478   -0.3935    0.8892 H   0  0  0  0  0  0  0  0  0  0  0  0
   10.3580   -0.7055   -0.5176 H   0  0  0  0  0  0  0  0  0  0  0  0
    8.1746   -1.6891   -0.9860 H   0  0  0  0  0  0  0  0  0  0  0  0
    5.9549   -2.3246   -0.1326 H   0  0  0  0  0  0  0  0  0  0  0  0
    3.0668   -2.1883    1.2676 H   0  0  0  0  0  0  0  0  0  0  0  0
    3.6338   -2.3703   -0.4088 H   0  0  0  0  0  0  0  0  0  0  0  0
    2.6921   -0.6581   -2.1975 H   0  0  0  0  0  0  0  0  0  0  0  0
    3.6350    0.5161   -1.2201 H   0  0  0  0  0  0  0  0  0  0  0  0
    1.5494    1.3144   -2.7198 H   0  0  0  0  0  0  0  0  0  0  0  0
    1.9283    2.0777   -1.1433 H   0  0  0  0  0  0  0  0  0  0  0  0
   -0.4409    1.6604   -1.2807 H   0  0  0  0  0  0  0  0  0  0  0  0
    0.1052   -1.3087   -1.7240 H   0  0  0  0  0  0  0  0  0  0  0  0
   -2.5844   -0.4975   -0.5019 H   0  0  0  0  0  0  0  0  0  0  0  0
   -3.3576   -2.4852   -2.7377 H   0  0  0  0  0  0  0  0  0  0  0  0
   -2.1249   -2.7872   -1.4850 H   0  0  0  0  0  0  0  0  0  0  0  0
   -2.7750   -2.7969    0.9693 H   0  0  0  0  0  0  0  0  0  0  0  0
   -4.5260   -3.4824    2.5707 H   0  0  0  0  0  0  0  0  0  0  0  0
   -6.8680   -3.7722    1.8179 H   0  0  0  0  0  0  0  0  0  0  0  0
   -7.4648   -3.3715   -0.5573 H   0  0  0  0  0  0  0  0  0  0  0  0
   -5.7296   -2.6830   -2.1762 H   0  0  0  0  0  0  0  0  0  0  0  0
   -4.4775   -0.2439   -2.8601 H   0  0  0  0  0  0  0  0  0  0  0  0
   -4.1992    2.9649    1.5946 H   0  0  0  0  0  0  0  0  0  0  0  0
   -4.0934    3.7986    0.0392 H   0  0  0  0  0  0  0  0  0  0  0  0
   -1.8628    3.1472   -0.2646 H   0  0  0  0  0  0  0  0  0  0  0  0
   -2.3441    1.2309    2.0773 H   0  0  0  0  0  0  0  0  0  0  0  0
    0.0198    1.4738    2.3721 H   0  0  0  0  0  0  0  0  0  0  0  0
    0.1899    2.5875    0.9857 H   0  0  0  0  0  0  0  0  0  0  0  0
   -0.4482   -0.4165    0.6454 H   0  0  0  0  0  0  0  0  0  0  0  0
    1.5330   -0.5569    1.8635 H   0  0  0  0  0  0  0  0  0  0  0  0
    2.2376    0.9408    1.1591 H   0  0  0  0  0  0  0  0  0  0  0  0
   -6.7960    1.6556   -1.1159 H   0  0  0  0  0  0  0  0  0  0  0  0
   -6.1619    3.3185   -0.9365 H   0  0  0  0  0  0  0  0  0  0  0  0
   -8.0492    2.8499    0.6029 H   0  0  0  0  0  0  0  0  0  0  0  0
   -6.5845    3.2219    1.5435 H   0  0  0  0  0  0  0  0  0  0  0  0
   -5.4579    1.4273    2.6601 H   0  0  0  0  0  0  0  0  0  0  0  0
   -6.0828   -0.2236    2.4538 H   0  0  0  0  0  0  0  0  0  0  0  0
   -5.4893   -0.3268    0.1230 H   0  0  0  0  0  0  0  0  0  0  0  0
   -4.0386    0.0900    1.0910 H   0  0  0  0  0  0  0  0  0  0  0  0
    6.6124    0.0636    2.6320 H   0  0  0  0  0  0  0  0  0  0  0  0
  1  2  1  0
  2  3  1  0
  3  4  2  0
  4  5  1  0
  5  6  2  0
  6  7  1  0
  7  8  1  0
  8  9  2  0
  8 10  1  0
 10 11  1  0
 11 12  1  0
 12 13  1  0
 13 14  1  0
 14 15  1  0
 15 16  1  0
 16 17  2  0
 16 18  1  0
 18 19  1  0
 19 20  1  0
 20 21  2  0
 21 22  1  0
 22 23  2  0
 23 24  1  0
 24 25  2  0
 18 26  1  0
 26 27  1  0
 27 28  2  0
 27 29  1  0
 29 30  1  0
 30 31  1  0
 31 32  2  0
 32 33  1  0
 33 34  1  0
 34 35  1  0
 29 36  1  0
 36 37  1  0
 37 38  1  0
 38 39  1  0
 39 40  1  0
  6 41  1  0
 41 42  2  0
 42 43  1  0
 42  3  1  0
 35 11  1  0
 34 14  1  0
 25 20  1  0
 40 29  1  0
  1 44  1  0
  1 45  1  0
  1 46  1  0
  4 47  1  0
  5 48  1  0
  7 49  1  0
 10 50  1  0
 10 51  1  0
 12 52  1  0
 12 53  1  0
 13 54  1  0
 13 55  1  0
 14 56  1  0
 15 57  1  0
 18 58  1  0
 19 59  1  0
 19 60  1  0
 21 61  1  0
 22 62  1  0
 23 63  1  0
 24 64  1  0
 25 65  1  0
 26 66  1  0
 30 67  1  0
 30 68  1  0
 31 69  1  0
 32 70  1  0
 33 71  1  0
 33 72  1  0
 34 73  1  0
 35 74  1  0
 35 75  1  0
 36 76  1  0
 36 77  1  0
 37 78  1  0
 37 79  1  0
 39 80  1  0
 39 81  1  0
 40 82  1  0
 40 83  1  0
 41 84  1  0
M  END
$$$$
