
     RDKit          3D

 64 65  0  0  0  0  0  0  0  0999 V2000
   -5.5699   -1.2658   -0.4619 C   0  0  0  0  0  0  0  0  0  0  0  0
   -4.3413   -0.8605   -1.0258 O   0  0  0  0  0  0  0  0  0  0  0  0
   -3.4003   -0.5316   -0.0146 C   0  0  0  0  0  0  0  0  0  0  0  0
   -2.0049   -1.0552   -0.4434 C   0  0  0  0  0  0  0  0  0  0  0  0
   -1.5415   -2.1395    0.4351 N   0  0  0  0  0  0  0  0  0  0  0  0
   -1.9019   -3.5038    0.1227 C   0  0  0  0  0  0  0  0  0  0  0  0
   -1.1262   -4.6674    0.6644 C   0  0  0  0  0  0  0  0  0  0  0  0
   -2.8979   -3.7348   -0.6182 O   0  0  0  0  0  0  0  0  0  0  0  0
   -0.6717   -1.8100    1.5785 C   0  0  0  0  0  0  0  0  0  0  0  0
    0.7436   -1.4166    1.1063 C   0  0  0  0  0  0  0  0  0  0  0  0
    1.0353    0.0774    1.3215 C   0  0  0  0  0  0  0  0  0  0  0  0
    2.1581    0.5102    0.4765 N   0  0  0  0  0  0  0  0  0  0  0  0
    3.4966    0.0894    0.8271 C   0  0  0  0  0  0  0  0  0  0  0  0
    3.7724   -0.1486    2.0351 O   0  0  0  0  0  0  0  0  0  0  0  0
    4.5299   -0.1993   -0.1907 C   0  0  0  0  0  0  0  0  0  0  0  0
    5.0693    0.6881   -1.1022 C   0  0  0  0  0  0  0  0  0  0  0  0
    6.0146   -0.0480   -1.7883 C   0  0  0  0  0  0  0  0  0  0  0  0
    6.0496   -1.3053   -1.3059 N   0  0  0  0  0  0  0  0  0  0  0  0
    5.1586   -1.3872   -0.3303 N   0  0  0  0  0  0  0  0  0  0  0  0
    4.8803   -2.6178    0.4083 C   0  0  0  0  0  0  0  0  0  0  0  0
    3.6147   -3.0758    0.0881 F   0  0  0  0  0  0  0  0  0  0  0  0
    5.8089   -3.5921    0.0850 F   0  0  0  0  0  0  0  0  0  0  0  0
    1.8711    1.2821   -0.7437 C   0  0  0  0  0  0  0  0  0  0  0  0
    2.1685    2.7788   -0.5454 C   0  0  0  0  0  0  0  0  0  0  0  0
    1.2042    3.4996    0.4179 C   0  0  0  0  0  0  0  0  0  0  0  0
   -0.1439    3.8754   -0.2133 C   0  0  0  0  0  0  0  0  0  0  0  0
   -0.9337    2.7211   -0.3988 O   0  0  0  0  0  0  0  0  0  0  0  0
   -2.2402    3.0877   -0.7967 C   0  0  0  0  0  0  0  0  0  0  0  0
   -3.0684    1.8215   -1.0685 C   0  0  0  0  0  0  0  0  0  0  0  0
   -4.2674    2.2061   -1.6930 O   0  0  0  0  0  0  0  0  0  0  0  0
   -3.3937    1.0048    0.2268 C   0  0  0  0  0  0  0  0  0  0  0  0
   -2.4915    1.3070    1.2633 O   0  0  0  0  0  0  0  0  0  0  0  0
   -5.9873   -0.4846    0.2110 H   0  0  0  0  0  0  0  0  0  0  0  0
   -5.4532   -2.2278    0.0853 H   0  0  0  0  0  0  0  0  0  0  0  0
   -6.3008   -1.4255   -1.2811 H   0  0  0  0  0  0  0  0  0  0  0  0
   -3.6493   -1.0118    0.9650 H   0  0  0  0  0  0  0  0  0  0  0  0
   -1.2539   -0.2415   -0.4479 H   0  0  0  0  0  0  0  0  0  0  0  0
   -2.0284   -1.4104   -1.4977 H   0  0  0  0  0  0  0  0  0  0  0  0
   -0.0372   -4.4562    0.6146 H   0  0  0  0  0  0  0  0  0  0  0  0
   -1.4250   -4.8608    1.7160 H   0  0  0  0  0  0  0  0  0  0  0  0
   -1.3292   -5.5787    0.0634 H   0  0  0  0  0  0  0  0  0  0  0  0
   -0.5988   -2.6675    2.2795 H   0  0  0  0  0  0  0  0  0  0  0  0
   -1.1423   -0.9968    2.1727 H   0  0  0  0  0  0  0  0  0  0  0  0
    0.8698   -1.6703    0.0302 H   0  0  0  0  0  0  0  0  0  0  0  0
    1.4975   -2.0090    1.6694 H   0  0  0  0  0  0  0  0  0  0  0  0
    1.2648    0.2693    2.3920 H   0  0  0  0  0  0  0  0  0  0  0  0
    0.1341    0.6798    1.0908 H   0  0  0  0  0  0  0  0  0  0  0  0
    4.8341    1.7315   -1.2487 H   0  0  0  0  0  0  0  0  0  0  0  0
    6.6445    0.3143   -2.5889 H   0  0  0  0  0  0  0  0  0  0  0  0
    4.9375   -2.4254    1.4998 H   0  0  0  0  0  0  0  0  0  0  0  0
    2.4668    0.8892   -1.5915 H   0  0  0  0  0  0  0  0  0  0  0  0
    0.8183    1.1399   -1.0601 H   0  0  0  0  0  0  0  0  0  0  0  0
    2.1583    3.2858   -1.5342 H   0  0  0  0  0  0  0  0  0  0  0  0
    3.1952    2.8866   -0.1379 H   0  0  0  0  0  0  0  0  0  0  0  0
    1.0427    2.9028    1.3395 H   0  0  0  0  0  0  0  0  0  0  0  0
    1.6958    4.4451    0.7373 H   0  0  0  0  0  0  0  0  0  0  0  0
    0.0308    4.3920   -1.1830 H   0  0  0  0  0  0  0  0  0  0  0  0
   -0.6480    4.5865    0.4817 H   0  0  0  0  0  0  0  0  0  0  0  0
   -2.7449    3.6888   -0.0059 H   0  0  0  0  0  0  0  0  0  0  0  0
   -2.2020    3.6872   -1.7362 H   0  0  0  0  0  0  0  0  0  0  0  0
   -2.4707    1.2106   -1.7840 H   0  0  0  0  0  0  0  0  0  0  0  0
   -4.5697    1.4383   -2.2440 H   0  0  0  0  0  0  0  0  0  0  0  0
   -4.4139    1.3057    0.5625 H   0  0  0  0  0  0  0  0  0  0  0  0
   -2.9168    1.0231    2.1148 H   0  0  0  0  0  0  0  0  0  0  0  0
  1  2  1  0
  2  3  1  0
  3  4  1  0
  4  5  1  0
  5  6  1  0
  6  7  1  0
  6  8  2  0
  5  9  1  0
  9 10  1  0
 10 11  1  0
 11 12  1  0
 12 13  1  0
 13 14  2  0
 13 15  1  0
 15 16  2  0
 16 17  1  0
 17 18  2  0
 18 19  1  0
 19 20  1  0
 20 21  1  0
 20 22  1  0
 12 23  1  0
 23 24  1  0
 24 25  1  0
 25 26  1  0
 26 27  1  0
 27 28  1  0
 28 29  1  0
 29 30  1  0
 29 31  1  0
 31 32  1  0
 31  3  1  0
 19 15  1  0
  1 33  1  0
  1 34  1  0
  1 35  1  0
  3 36  1  0
  4 37  1  0
  4 38  1  0
  7 39  1  0
  7 40  1  0
  7 41  1  0
  9 42  1  0
  9 43  1  0
 10 44  1  0
 10 45  1  0
 11 46  1  0
 11 47  1  0
 16 48  1  0
 17 49  1  0
 20 50  1  0
 23 51  1  0
 23 52  1  0
 24 53  1  0
 24 54  1  0
 25 55  1  0
 25 56  1  0
 26 57  1  0
 26 58  1  0
 28 59  1  0
 28 60  1  0
 29 61  1  0
 30 62  1  0
 31 63  1  0
 32 64  1  0
M  END
$$$$
