
     RDKit          3D

 67 70  0  0  0  0  0  0  0  0999 V2000
   -4.7265   -4.3032   -0.1100 C   0  0  0  0  0  0  0  0  0  0  0  0
   -3.9139   -3.2719    0.4020 O   0  0  0  0  0  0  0  0  0  0  0  0
   -3.9060   -2.1874   -0.5005 C   0  0  0  0  0  0  0  0  0  0  0  0
   -2.9398   -1.0759   -0.0008 C   0  0  0  0  0  0  0  0  0  0  0  0
   -1.5290   -1.6732    0.3340 C   0  0  0  0  0  0  0  0  0  0  0  0
   -0.9512   -2.6395   -0.7247 C   0  0  0  0  0  0  0  0  0  0  0  0
    0.5685   -2.8186   -0.5521 C   0  0  0  0  0  0  0  0  0  0  0  0
    1.3900   -1.7482   -1.3069 C   0  0  0  0  0  0  0  0  0  0  0  0
    2.3664   -1.0812   -0.4219 N   0  0  0  0  0  0  0  0  0  0  0  0
    3.5182   -1.8421    0.0181 C   0  0  0  0  0  0  0  0  0  0  0  0
    3.5917   -3.0761   -0.2339 O   0  0  0  0  0  0  0  0  0  0  0  0
    4.6137   -1.2247    0.7881 C   0  0  0  0  0  0  0  0  0  0  0  0
    5.3808   -0.1885    0.2266 C   0  0  0  0  0  0  0  0  0  0  0  0
    6.3864    0.4228    0.9810 C   0  0  0  0  0  0  0  0  0  0  0  0
    6.6158    0.0268    2.2994 C   0  0  0  0  0  0  0  0  0  0  0  0
    5.8507   -1.0007    2.8638 C   0  0  0  0  0  0  0  0  0  0  0  0
    6.0668   -1.3791    4.1486 F   0  0  0  0  0  0  0  0  0  0  0  0
    4.8650   -1.6402    2.1047 C   0  0  0  0  0  0  0  0  0  0  0  0
    2.0040    0.1754    0.2686 C   0  0  0  0  0  0  0  0  0  0  0  0
    1.3858    1.2156   -0.6687 C   0  0  0  0  0  0  0  0  0  0  0  0
    1.5075    2.5146   -0.0944 O   0  0  0  0  0  0  0  0  0  0  0  0
    0.6136    3.5417   -0.4082 C   0  0  0  0  0  0  0  0  0  0  0  0
    1.0273    4.5836   -1.2466 C   0  0  0  0  0  0  0  0  0  0  0  0
    0.1316    5.5968   -1.5992 C   0  0  0  0  0  0  0  0  0  0  0  0
   -1.1772    5.5775   -1.1082 C   0  0  0  0  0  0  0  0  0  0  0  0
   -1.5924    4.5529   -0.2538 C   0  0  0  0  0  0  0  0  0  0  0  0
   -0.7011    3.5302    0.1027 C   0  0  0  0  0  0  0  0  0  0  0  0
   -1.1205    2.4862    1.0537 C   0  0  0  0  0  0  0  0  0  0  0  0
   -0.4820    2.3836    2.1315 O   0  0  0  0  0  0  0  0  0  0  0  0
   -2.1928    1.5603    0.7644 N   0  0  0  0  0  0  0  0  0  0  0  0
   -2.6860    0.6873    1.8399 C   0  0  0  0  0  0  0  0  0  0  0  0
   -3.5511   -0.4551    1.2894 C   0  0  0  0  0  0  0  0  0  0  0  0
   -2.8187    1.4775   -0.5654 C   0  0  0  0  0  0  0  0  0  0  0  0
   -2.8039    0.0343   -1.1034 C   0  0  0  0  0  0  0  0  0  0  0  0
   -5.7651   -3.9473   -0.2935 H   0  0  0  0  0  0  0  0  0  0  0  0
   -4.7777   -5.1205    0.6405 H   0  0  0  0  0  0  0  0  0  0  0  0
   -4.2885   -4.7249   -1.0414 H   0  0  0  0  0  0  0  0  0  0  0  0
   -3.5869   -2.5191   -1.5161 H   0  0  0  0  0  0  0  0  0  0  0  0
   -4.9316   -1.7631   -0.5948 H   0  0  0  0  0  0  0  0  0  0  0  0
   -0.8169   -0.8357    0.4778 H   0  0  0  0  0  0  0  0  0  0  0  0
   -1.5730   -2.2211    1.3043 H   0  0  0  0  0  0  0  0  0  0  0  0
   -1.1802   -2.3010   -1.7582 H   0  0  0  0  0  0  0  0  0  0  0  0
   -1.4341   -3.6339   -0.6050 H   0  0  0  0  0  0  0  0  0  0  0  0
    0.8514   -3.8181   -0.9492 H   0  0  0  0  0  0  0  0  0  0  0  0
    0.8278   -2.8325    0.5315 H   0  0  0  0  0  0  0  0  0  0  0  0
    1.9336   -2.2347   -2.1461 H   0  0  0  0  0  0  0  0  0  0  0  0
    0.7252   -1.0109   -1.7949 H   0  0  0  0  0  0  0  0  0  0  0  0
    5.1945    0.1493   -0.7886 H   0  0  0  0  0  0  0  0  0  0  0  0
    6.9752    1.2121    0.5411 H   0  0  0  0  0  0  0  0  0  0  0  0
    7.3838    0.5187    2.8828 H   0  0  0  0  0  0  0  0  0  0  0  0
    4.2654   -2.4282    2.5502 H   0  0  0  0  0  0  0  0  0  0  0  0
    1.2954   -0.0498    1.0903 H   0  0  0  0  0  0  0  0  0  0  0  0
    2.8911    0.6463    0.7356 H   0  0  0  0  0  0  0  0  0  0  0  0
    1.8937    1.2087   -1.6609 H   0  0  0  0  0  0  0  0  0  0  0  0
    0.3126    0.9646   -0.8115 H   0  0  0  0  0  0  0  0  0  0  0  0
    2.0362    4.5971   -1.6397 H   0  0  0  0  0  0  0  0  0  0  0  0
    0.4533    6.3973   -2.2564 H   0  0  0  0  0  0  0  0  0  0  0  0
   -1.8642    6.3660   -1.3851 H   0  0  0  0  0  0  0  0  0  0  0  0
   -2.6000    4.5618    0.1384 H   0  0  0  0  0  0  0  0  0  0  0  0
   -3.2769    1.2867    2.5650 H   0  0  0  0  0  0  0  0  0  0  0  0
   -1.8274    0.2422    2.3885 H   0  0  0  0  0  0  0  0  0  0  0  0
   -4.5657   -0.0536    1.0681 H   0  0  0  0  0  0  0  0  0  0  0  0
   -3.6710   -1.2288    2.0792 H   0  0  0  0  0  0  0  0  0  0  0  0
   -3.8671    1.8322   -0.4815 H   0  0  0  0  0  0  0  0  0  0  0  0
   -2.3128    2.1271   -1.3068 H   0  0  0  0  0  0  0  0  0  0  0  0
   -1.8656   -0.1031   -1.6839 H   0  0  0  0  0  0  0  0  0  0  0  0
   -3.6265   -0.0456   -1.8475 H   0  0  0  0  0  0  0  0  0  0  0  0
  1  2  1  0
  2  3  1  0
  3  4  1  0
  4  5  1  0
  5  6  1  0
  6  7  1  0
  7  8  1  0
  8  9  1  0
  9 10  1  0
 10 11  2  0
 10 12  1  0
 12 13  2  0
 13 14  1  0
 14 15  2  0
 15 16  1  0
 16 17  1  0
 16 18  2  0
  9 19  1  0
 19 20  1  0
 20 21  1  0
 21 22  1  0
 22 23  2  0
 23 24  1  0
 24 25  2  0
 25 26  1  0
 26 27  2  0
 27 28  1  0
 28 29  2  0
 28 30  1  0
 30 31  1  0
 31 32  1  0
 30 33  1  0
 33 34  1  0
 32  4  1  0
 34  4  1  0
 18 12  1  0
 27 22  1  0
  1 35  1  0
  1 36  1  0
  1 37  1  0
  3 38  1  0
  3 39  1  0
  5 40  1  0
  5 41  1  0
  6 42  1  0
  6 43  1  0
  7 44  1  0
  7 45  1  0
  8 46  1  0
  8 47  1  0
 13 48  1  0
 14 49  1  0
 15 50  1  0
 18 51  1  0
 19 52  1  0
 19 53  1  0
 20 54  1  0
 20 55  1  0
 23 56  1  0
 24 57  1  0
 25 58  1  0
 26 59  1  0
 31 60  1  0
 31 61  1  0
 32 62  1  0
 32 63  1  0
 33 64  1  0
 33 65  1  0
 34 66  1  0
 34 67  1  0
M  END
$$$$
