
     RDKit          3D

 55 57  0  0  0  0  0  0  0  0999 V2000
    3.7281    1.4332    2.0039 C   0  0  0  0  0  0  0  0  0  0  0  0
    4.3694    0.5529    0.9681 C   0  0  0  0  0  0  0  0  0  0  0  0
    5.5321    0.9701    0.3948 N   0  0  0  0  0  0  0  0  0  0  0  0
    6.1931    0.2248   -0.5279 C   0  0  0  0  0  0  0  0  0  0  0  0
    5.6892   -1.0160   -0.9146 C   0  0  0  0  0  0  0  0  0  0  0  0
    4.4966   -1.4733   -0.3553 C   0  0  0  0  0  0  0  0  0  0  0  0
    3.8107   -0.6899    0.5830 C   0  0  0  0  0  0  0  0  0  0  0  0
    2.5481   -1.2010    1.1573 C   0  0  0  0  0  0  0  0  0  0  0  0
    2.5311   -2.3604    1.6514 O   0  0  0  0  0  0  0  0  0  0  0  0
    1.3448   -0.4060    1.1535 N   0  0  0  0  0  0  0  0  0  0  0  0
    1.0064    0.4290   -0.0108 C   0  0  0  0  0  0  0  0  0  0  0  0
    0.3033   -0.4127   -1.0823 C   0  0  0  0  0  0  0  0  0  0  0  0
   -0.4001    0.4786   -2.1150 C   0  0  0  0  0  0  0  0  0  0  0  0
   -1.2912   -0.3159   -3.0821 C   0  0  0  0  0  0  0  0  0  0  0  0
   -2.1840   -1.2566   -2.3971 N   0  0  0  0  0  0  0  0  0  0  0  0
   -3.3531   -0.8834   -1.6496 C   0  0  0  0  0  0  0  0  0  0  0  0
   -4.2227   -1.7555   -1.3915 O   0  0  0  0  0  0  0  0  0  0  0  0
   -3.5679    0.4900   -1.1713 C   0  0  0  0  0  0  0  0  0  0  0  0
   -4.2613    1.3779   -2.0103 C   0  0  0  0  0  0  0  0  0  0  0  0
   -4.4315    2.7155   -1.6426 C   0  0  0  0  0  0  0  0  0  0  0  0
   -5.2836    3.8215   -2.7087 Cl  0  0  0  0  0  0  0  0  0  0  0  0
   -3.9045    3.1778   -0.4350 C   0  0  0  0  0  0  0  0  0  0  0  0
   -3.2150    2.3029    0.4087 C   0  0  0  0  0  0  0  0  0  0  0  0
   -3.0518    0.9549    0.0681 C   0  0  0  0  0  0  0  0  0  0  0  0
   -2.3294    0.1540    0.9690 O   0  0  0  0  0  0  0  0  0  0  0  0
   -2.6587   -1.1824    1.3385 C   0  0  0  0  0  0  0  0  0  0  0  0
   -1.8753   -1.5870    2.5925 C   0  0  0  0  0  0  0  0  0  0  0  0
   -0.3712   -1.7857    2.3239 C   0  0  0  0  0  0  0  0  0  0  0  0
    0.4307   -0.4644    2.3062 C   0  0  0  0  0  0  0  0  0  0  0  0
    2.8611    1.9681    1.5597 H   0  0  0  0  0  0  0  0  0  0  0  0
    3.3922    0.8288    2.8755 H   0  0  0  0  0  0  0  0  0  0  0  0
    4.4534    2.1913    2.3706 H   0  0  0  0  0  0  0  0  0  0  0  0
    7.1166    0.5920   -0.9568 H   0  0  0  0  0  0  0  0  0  0  0  0
    6.2166   -1.6167   -1.6429 H   0  0  0  0  0  0  0  0  0  0  0  0
    4.0974   -2.4303   -0.6668 H   0  0  0  0  0  0  0  0  0  0  0  0
    0.3511    1.2664    0.3055 H   0  0  0  0  0  0  0  0  0  0  0  0
    1.9174    0.8892   -0.4465 H   0  0  0  0  0  0  0  0  0  0  0  0
   -0.4397   -1.0684   -0.5895 H   0  0  0  0  0  0  0  0  0  0  0  0
    1.0465   -1.0636   -1.5933 H   0  0  0  0  0  0  0  0  0  0  0  0
    0.3718    1.0183   -2.7063 H   0  0  0  0  0  0  0  0  0  0  0  0
   -1.0073    1.2534   -1.6085 H   0  0  0  0  0  0  0  0  0  0  0  0
   -1.8917    0.3860   -3.6995 H   0  0  0  0  0  0  0  0  0  0  0  0
   -0.6344   -0.8852   -3.7706 H   0  0  0  0  0  0  0  0  0  0  0  0
   -2.0359   -2.2711   -2.5878 H   0  0  0  0  0  0  0  0  0  0  0  0
   -4.6540    1.0346   -2.9594 H   0  0  0  0  0  0  0  0  0  0  0  0
   -4.0283    4.2135   -0.1476 H   0  0  0  0  0  0  0  0  0  0  0  0
   -2.8087    2.6760    1.3408 H   0  0  0  0  0  0  0  0  0  0  0  0
   -2.4180   -1.8929    0.5236 H   0  0  0  0  0  0  0  0  0  0  0  0
   -3.7466   -1.2447    1.5586 H   0  0  0  0  0  0  0  0  0  0  0  0
   -2.2919   -2.5533    2.9550 H   0  0  0  0  0  0  0  0  0  0  0  0
   -2.0321   -0.8396    3.4008 H   0  0  0  0  0  0  0  0  0  0  0  0
   -0.2345   -2.3558    1.3804 H   0  0  0  0  0  0  0  0  0  0  0  0
    0.0417   -2.4284    3.1322 H   0  0  0  0  0  0  0  0  0  0  0  0
   -0.2471    0.4142    2.3027 H   0  0  0  0  0  0  0  0  0  0  0  0
    1.0217   -0.3750    3.2450 H   0  0  0  0  0  0  0  0  0  0  0  0
  1  2  1  0
  2  3  2  0
  3  4  1  0
  4  5  2  0
  5  6  1  0
  6  7  2  0
  7  8  1  0
  8  9  2  0
  8 10  1  0
 10 11  1  0
 11 12  1  0
 12 13  1  0
 13 14  1  0
 14 15  1  0
 15 16  1  0
 16 17  2  0
 16 18  1  0
 18 19  2  0
 19 20  1  0
 20 21  1  0
 20 22  2  0
 22 23  1  0
 23 24  2  0
 24 25  1  0
 25 26  1  0
 26 27  1  0
 27 28  1  0
 28 29  1  0
  7  2  1  0
 29 10  1  0
 24 18  1  0
  1 30  1  0
  1 31  1  0
  1 32  1  0
  4 33  1  0
  5 34  1  0
  6 35  1  0
 11 36  1  0
 11 37  1  0
 12 38  1  0
 12 39  1  0
 13 40  1  0
 13 41  1  0
 14 42  1  0
 14 43  1  0
 15 44  1  0
 19 45  1  0
 22 46  1  0
 23 47  1  0
 26 48  1  0
 26 49  1  0
 27 50  1  0
 27 51  1  0
 28 52  1  0
 28 53  1  0
 29 54  1  0
 29 55  1  0
M  END
$$$$
