
     RDKit          3D

 63 66  0  0  0  0  0  0  0  0999 V2000
   -2.5926   -5.1618    1.4262 C   0  0  0  0  0  0  0  0  0  0  0  0
   -2.4198   -4.4500    0.0892 C   0  0  0  0  0  0  0  0  0  0  0  0
   -2.2899   -3.0411    0.2791 O   0  0  0  0  0  0  0  0  0  0  0  0
   -1.1436   -2.3813    0.7557 C   0  0  0  0  0  0  0  0  0  0  0  0
    0.0732   -3.0528    0.9898 C   0  0  0  0  0  0  0  0  0  0  0  0
    1.1787   -2.3578    1.4804 C   0  0  0  0  0  0  0  0  0  0  0  0
    1.0903   -0.9912    1.7354 C   0  0  0  0  0  0  0  0  0  0  0  0
   -0.1017   -0.2934    1.4827 C   0  0  0  0  0  0  0  0  0  0  0  0
   -1.2268   -0.9994    0.9953 C   0  0  0  0  0  0  0  0  0  0  0  0
   -2.4509   -0.3552    0.7942 O   0  0  0  0  0  0  0  0  0  0  0  0
   -2.7190    0.4224   -0.3685 C   0  0  0  0  0  0  0  0  0  0  0  0
   -4.1038    1.0664   -0.2428 C   0  0  0  0  0  0  0  0  0  0  0  0
   -4.2885    2.2591   -1.2047 C   0  0  0  0  0  0  0  0  0  0  0  0
   -4.1389    3.6301   -0.5144 C   0  0  0  0  0  0  0  0  0  0  0  0
   -2.7378    3.8854    0.0633 C   0  0  0  0  0  0  0  0  0  0  0  0
   -1.7275    3.9537   -0.9931 N   0  0  0  0  0  0  0  0  0  0  0  0
   -0.3132    3.9364   -0.7381 C   0  0  0  0  0  0  0  0  0  0  0  0
    0.4751    4.2875   -1.6576 O   0  0  0  0  0  0  0  0  0  0  0  0
    0.2665    3.4361    0.5608 C   0  0  0  0  0  0  0  0  0  0  0  0
    0.3823    1.9706    0.5441 N   0  0  0  0  0  0  0  0  0  0  0  0
    1.1530    1.3428   -0.5010 C   0  0  0  0  0  0  0  0  0  0  0  0
    0.6014    0.4980   -1.2581 O   0  0  0  0  0  0  0  0  0  0  0  0
    2.5793    1.7452   -0.7534 C   0  0  0  0  0  0  0  0  0  0  0  0
    3.4428    0.5320   -0.9748 C   0  0  0  0  0  0  0  0  0  0  0  0
    3.5537   -0.0373   -2.2724 C   0  0  0  0  0  0  0  0  0  0  0  0
    4.2989   -1.2145   -2.4760 C   0  0  0  0  0  0  0  0  0  0  0  0
    4.9047   -1.7981   -1.3665 C   0  0  0  0  0  0  0  0  0  0  0  0
    4.8020   -1.2599   -0.1230 C   0  0  0  0  0  0  0  0  0  0  0  0
    4.0852   -0.0907    0.1199 C   0  0  0  0  0  0  0  0  0  0  0  0
    5.4873   -2.0509    0.7800 O   0  0  0  0  0  0  0  0  0  0  0  0
    6.0511   -3.1583    0.0595 C   0  0  0  0  0  0  0  0  0  0  0  0
    5.6612   -2.9539   -1.3073 O   0  0  0  0  0  0  0  0  0  0  0  0
   -0.1294    1.2054    1.6990 C   0  0  0  0  0  0  0  0  0  0  0  0
   -1.7099   -4.9965    2.0778 H   0  0  0  0  0  0  0  0  0  0  0  0
   -3.4996   -4.7801    1.9432 H   0  0  0  0  0  0  0  0  0  0  0  0
   -2.7076   -6.2540    1.2579 H   0  0  0  0  0  0  0  0  0  0  0  0
   -1.5514   -4.8559   -0.4725 H   0  0  0  0  0  0  0  0  0  0  0  0
   -3.3263   -4.6371   -0.5246 H   0  0  0  0  0  0  0  0  0  0  0  0
    0.1785   -4.1118    0.8035 H   0  0  0  0  0  0  0  0  0  0  0  0
    2.1093   -2.8799    1.6651 H   0  0  0  0  0  0  0  0  0  0  0  0
    1.9557   -0.4690    2.1205 H   0  0  0  0  0  0  0  0  0  0  0  0
   -2.6910   -0.2303   -1.2688 H   0  0  0  0  0  0  0  0  0  0  0  0
   -1.9397    1.1994   -0.4861 H   0  0  0  0  0  0  0  0  0  0  0  0
   -4.8647    0.2887   -0.4726 H   0  0  0  0  0  0  0  0  0  0  0  0
   -4.2794    1.3849    0.8082 H   0  0  0  0  0  0  0  0  0  0  0  0
   -3.5965    2.1849   -2.0727 H   0  0  0  0  0  0  0  0  0  0  0  0
   -5.3176    2.2103   -1.6223 H   0  0  0  0  0  0  0  0  0  0  0  0
   -4.8843    3.7084    0.3057 H   0  0  0  0  0  0  0  0  0  0  0  0
   -4.3772    4.4287   -1.2493 H   0  0  0  0  0  0  0  0  0  0  0  0
   -2.4915    3.0887    0.7888 H   0  0  0  0  0  0  0  0  0  0  0  0
   -2.7416    4.8488    0.6153 H   0  0  0  0  0  0  0  0  0  0  0  0
   -2.0354    4.1501   -1.9741 H   0  0  0  0  0  0  0  0  0  0  0  0
   -0.3529    3.7797    1.4163 H   0  0  0  0  0  0  0  0  0  0  0  0
    1.2718    3.8844    0.7116 H   0  0  0  0  0  0  0  0  0  0  0  0
    2.6168    2.4098   -1.6434 H   0  0  0  0  0  0  0  0  0  0  0  0
    2.9680    2.3244    0.1115 H   0  0  0  0  0  0  0  0  0  0  0  0
    3.0519    0.4248   -3.1156 H   0  0  0  0  0  0  0  0  0  0  0  0
    4.3861   -1.6609   -3.4599 H   0  0  0  0  0  0  0  0  0  0  0  0
    4.0184    0.3137    1.1231 H   0  0  0  0  0  0  0  0  0  0  0  0
    5.6301   -4.1148    0.4385 H   0  0  0  0  0  0  0  0  0  0  0  0
    7.1581   -3.1499    0.1489 H   0  0  0  0  0  0  0  0  0  0  0  0
    0.4826    1.4587    2.5924 H   0  0  0  0  0  0  0  0  0  0  0  0
   -1.1642    1.5286    1.9359 H   0  0  0  0  0  0  0  0  0  0  0  0
  1  2  1  0
  2  3  1  0
  3  4  1  0
  4  5  2  0
  5  6  1  0
  6  7  2  0
  7  8  1  0
  8  9  2  0
  9 10  1  0
 10 11  1  0
 11 12  1  0
 12 13  1  0
 13 14  1  0
 14 15  1  0
 15 16  1  0
 16 17  1  0
 17 18  2  0
 17 19  1  0
 19 20  1  0
 20 21  1  0
 21 22  2  0
 21 23  1  0
 23 24  1  0
 24 25  2  0
 25 26  1  0
 26 27  2  0
 27 28  1  0
 28 29  2  0
 28 30  1  0
 30 31  1  0
 31 32  1  0
 20 33  1  0
  9  4  1  0
 29 24  1  0
 33  8  1  0
 32 27  1  0
  1 34  1  0
  1 35  1  0
  1 36  1  0
  2 37  1  0
  2 38  1  0
  5 39  1  0
  6 40  1  0
  7 41  1  0
 11 42  1  0
 11 43  1  0
 12 44  1  0
 12 45  1  0
 13 46  1  0
 13 47  1  0
 14 48  1  0
 14 49  1  0
 15 50  1  0
 15 51  1  0
 16 52  1  0
 19 53  1  0
 19 54  1  0
 23 55  1  0
 23 56  1  0
 25 57  1  0
 26 58  1  0
 29 59  1  0
 31 60  1  0
 31 61  1  0
 33 62  1  0
 33 63  1  0
M  END
$$$$
