
     RDKit          3D

 69 71  0  0  0  0  0  0  0  0999 V2000
   -0.9177   -3.1361   -0.0657 C   0  0  0  0  0  0  0  0  0  0  0  0
   -1.3178   -3.1453   -1.5489 C   0  0  0  0  0  0  0  0  0  0  0  0
   -2.7675   -3.6284   -1.7087 C   0  0  0  0  0  0  0  0  0  0  0  0
   -1.0612   -1.8093   -2.3126 C   0  0  0  0  0  0  0  0  0  0  0  0
   -2.0696   -0.6560   -2.0771 C   0  0  0  0  0  0  0  0  0  0  0  0
   -2.4079   -0.5206   -0.6991 O   0  0  0  0  0  0  0  0  0  0  0  0
   -3.5015    0.2061   -0.2104 C   0  0  0  0  0  0  0  0  0  0  0  0
   -4.3958   -0.4687    0.6304 C   0  0  0  0  0  0  0  0  0  0  0  0
   -5.5121    0.1829    1.1561 C   0  0  0  0  0  0  0  0  0  0  0  0
   -5.7474    1.5236    0.8500 C   0  0  0  0  0  0  0  0  0  0  0  0
   -7.1549    2.3413    1.5056 Cl  0  0  0  0  0  0  0  0  0  0  0  0
   -4.8545    2.2173    0.0297 C   0  0  0  0  0  0  0  0  0  0  0  0
   -3.7154    1.5798   -0.4882 C   0  0  0  0  0  0  0  0  0  0  0  0
   -2.7720    2.3839   -1.2846 C   0  0  0  0  0  0  0  0  0  0  0  0
   -2.9019    2.4030   -2.5383 O   0  0  0  0  0  0  0  0  0  0  0  0
   -1.7685    3.2126   -0.6723 N   0  0  0  0  0  0  0  0  0  0  0  0
   -1.8162    3.6597    0.7221 C   0  0  0  0  0  0  0  0  0  0  0  0
   -1.1216    2.6700    1.6751 C   0  0  0  0  0  0  0  0  0  0  0  0
    0.3956    2.9178    1.8229 C   0  0  0  0  0  0  0  0  0  0  0  0
    1.2376    2.3816    0.6549 C   0  0  0  0  0  0  0  0  0  0  0  0
    1.2770    0.9094    0.6582 N   0  0  0  0  0  0  0  0  0  0  0  0
    2.0406    0.1693    1.6409 C   0  0  0  0  0  0  0  0  0  0  0  0
    1.6277   -0.9611    2.0209 O   0  0  0  0  0  0  0  0  0  0  0  0
    3.3009    0.7232    2.2634 C   0  0  0  0  0  0  0  0  0  0  0  0
    4.3935   -0.3452    2.4237 C   0  0  0  0  0  0  0  0  0  0  0  0
    4.8622   -0.8642    1.0870 C   0  0  0  0  0  0  0  0  0  0  0  0
    4.4215   -2.1107    0.6092 C   0  0  0  0  0  0  0  0  0  0  0  0
    4.8321   -2.5691   -0.6466 C   0  0  0  0  0  0  0  0  0  0  0  0
    5.6800   -1.7865   -1.4350 C   0  0  0  0  0  0  0  0  0  0  0  0
    6.1193   -0.5441   -0.9679 C   0  0  0  0  0  0  0  0  0  0  0  0
    5.7122   -0.0825    0.2871 C   0  0  0  0  0  0  0  0  0  0  0  0
    0.3446    0.1807   -0.2153 C   0  0  0  0  0  0  0  0  0  0  0  0
    1.0550   -0.6014   -1.2844 C   0  0  0  0  0  0  0  0  0  0  0  0
    2.3099   -0.5105   -1.3705 O   0  0  0  0  0  0  0  0  0  0  0  0
    0.3586   -1.4017   -2.2637 N   0  0  0  0  0  0  0  0  0  0  0  0
   -1.5622   -2.4601    0.5317 H   0  0  0  0  0  0  0  0  0  0  0  0
   -1.0280   -4.1592    0.3554 H   0  0  0  0  0  0  0  0  0  0  0  0
    0.1466   -2.8484    0.0520 H   0  0  0  0  0  0  0  0  0  0  0  0
   -0.6745   -3.9127   -2.0369 H   0  0  0  0  0  0  0  0  0  0  0  0
   -3.4710   -2.9642   -1.1651 H   0  0  0  0  0  0  0  0  0  0  0  0
   -3.0515   -3.6493   -2.7815 H   0  0  0  0  0  0  0  0  0  0  0  0
   -2.8725   -4.6579   -1.3062 H   0  0  0  0  0  0  0  0  0  0  0  0
   -1.2398   -2.0793   -3.3795 H   0  0  0  0  0  0  0  0  0  0  0  0
   -2.9997   -0.8669   -2.6496 H   0  0  0  0  0  0  0  0  0  0  0  0
   -1.6378    0.2792   -2.4791 H   0  0  0  0  0  0  0  0  0  0  0  0
   -4.2284   -1.5118    0.8669 H   0  0  0  0  0  0  0  0  0  0  0  0
   -6.1957   -0.3573    1.7975 H   0  0  0  0  0  0  0  0  0  0  0  0
   -5.0378    3.2624   -0.1904 H   0  0  0  0  0  0  0  0  0  0  0  0
   -1.1082    3.7106   -1.3112 H   0  0  0  0  0  0  0  0  0  0  0  0
   -2.8717    3.8017    1.0355 H   0  0  0  0  0  0  0  0  0  0  0  0
   -1.3402    4.6616    0.8020 H   0  0  0  0  0  0  0  0  0  0  0  0
   -1.3364    1.6210    1.3873 H   0  0  0  0  0  0  0  0  0  0  0  0
   -1.5733    2.8098    2.6800 H   0  0  0  0  0  0  0  0  0  0  0  0
    0.7448    2.4446    2.7646 H   0  0  0  0  0  0  0  0  0  0  0  0
    0.5876    4.0061    1.9322 H   0  0  0  0  0  0  0  0  0  0  0  0
    0.8404    2.7646   -0.3066 H   0  0  0  0  0  0  0  0  0  0  0  0
    2.2600    2.8008    0.7108 H   0  0  0  0  0  0  0  0  0  0  0  0
    3.0464    1.1357    3.2635 H   0  0  0  0  0  0  0  0  0  0  0  0
    3.7256    1.5460    1.6572 H   0  0  0  0  0  0  0  0  0  0  0  0
    4.0238   -1.1763    3.0619 H   0  0  0  0  0  0  0  0  0  0  0  0
    5.2581    0.1059    2.9593 H   0  0  0  0  0  0  0  0  0  0  0  0
    3.7570   -2.7239    1.2051 H   0  0  0  0  0  0  0  0  0  0  0  0
    4.4885   -3.5288   -1.0107 H   0  0  0  0  0  0  0  0  0  0  0  0
    5.9939   -2.1399   -2.4094 H   0  0  0  0  0  0  0  0  0  0  0  0
    6.7736    0.0633   -1.5802 H   0  0  0  0  0  0  0  0  0  0  0  0
    6.0529    0.8857    0.6329 H   0  0  0  0  0  0  0  0  0  0  0  0
   -0.2678   -0.4941    0.4090 H   0  0  0  0  0  0  0  0  0  0  0  0
   -0.3263    0.8986   -0.7196 H   0  0  0  0  0  0  0  0  0  0  0  0
    0.9591   -1.7886   -3.0268 H   0  0  0  0  0  0  0  0  0  0  0  0
  1  2  1  0
  2  3  1  0
  2  4  1  0
  4  5  1  0
  5  6  1  0
  6  7  1  0
  7  8  2  0
  8  9  1  0
  9 10  2  0
 10 11  1  0
 10 12  1  0
 12 13  2  0
 13 14  1  0
 14 15  2  0
 14 16  1  0
 16 17  1  0
 17 18  1  0
 18 19  1  0
 19 20  1  0
 20 21  1  0
 21 22  1  0
 22 23  2  0
 22 24  1  0
 24 25  1  0
 25 26  1  0
 26 27  2  0
 27 28  1  0
 28 29  2  0
 29 30  1  0
 30 31  2  0
 21 32  1  0
 32 33  1  0
 33 34  2  0
 33 35  1  0
 35  4  1  0
 13  7  1  0
 31 26  1  0
  1 36  1  0
  1 37  1  0
  1 38  1  0
  2 39  1  0
  3 40  1  0
  3 41  1  0
  3 42  1  0
  4 43  1  0
  5 44  1  0
  5 45  1  0
  8 46  1  0
  9 47  1  0
 12 48  1  0
 16 49  1  0
 17 50  1  0
 17 51  1  0
 18 52  1  0
 18 53  1  0
 19 54  1  0
 19 55  1  0
 20 56  1  0
 20 57  1  0
 24 58  1  0
 24 59  1  0
 25 60  1  0
 25 61  1  0
 27 62  1  0
 28 63  1  0
 29 64  1  0
 30 65  1  0
 31 66  1  0
 32 67  1  0
 32 68  1  0
 35 69  1  0
M  END
$$$$
