
     RDKit          3D

 78 81  0  0  0  0  0  0  0  0999 V2000
   -0.8727   -4.4393    2.2588 C   0  0  0  0  0  0  0  0  0  0  0  0
   -1.1255   -2.9550    1.9752 C   0  0  0  0  0  0  0  0  0  0  0  0
   -0.6820   -2.6372    0.6146 N   0  0  0  0  0  0  0  0  0  0  0  0
    0.6790   -2.3724    0.2342 C   0  0  0  0  0  0  0  0  0  0  0  0
    1.0109   -2.5377   -0.9705 O   0  0  0  0  0  0  0  0  0  0  0  0
    1.7255   -1.8746    1.2024 C   0  0  0  0  0  0  0  0  0  0  0  0
    1.8000   -0.3342    1.3094 C   0  0  0  0  0  0  0  0  0  0  0  0
    2.1557    0.3107   -0.0126 C   0  0  0  0  0  0  0  0  0  0  0  0
    1.3440    0.2604   -0.9769 O   0  0  0  0  0  0  0  0  0  0  0  0
    3.3952    1.0157   -0.1591 N   0  0  0  0  0  0  0  0  0  0  0  0
    3.7614    1.6555   -1.4228 C   0  0  0  0  0  0  0  0  0  0  0  0
    5.1323    2.3396   -1.3383 C   0  0  0  0  0  0  0  0  0  0  0  0
    6.2248    1.3656   -1.4369 N   0  0  0  0  0  0  0  0  0  0  0  0
    6.5011    0.3356   -0.4492 C   0  0  0  0  0  0  0  0  0  0  0  0
    7.8515   -0.2936   -0.8447 C   0  0  0  0  0  0  0  0  0  0  0  0
    8.4134    0.5239   -2.0162 C   0  0  0  0  0  0  0  0  0  0  0  0
    7.3351    1.4871   -2.3078 C   0  0  0  0  0  0  0  0  0  0  0  0
    7.3990    2.3429   -3.2300 O   0  0  0  0  0  0  0  0  0  0  0  0
    0.5671    0.2317    1.8684 N   0  0  0  0  0  0  0  0  0  0  0  0
    0.4068    1.6502    1.9613 C   0  0  0  0  0  0  0  0  0  0  0  0
    0.7373    2.2398    3.0239 O   0  0  0  0  0  0  0  0  0  0  0  0
   -0.1009    2.4315    0.8184 C   0  0  0  0  0  0  0  0  0  0  0  0
    0.5203    3.6497    0.4965 C   0  0  0  0  0  0  0  0  0  0  0  0
    0.0620    4.4159   -0.5760 C   0  0  0  0  0  0  0  0  0  0  0  0
   -1.0328    3.9857   -1.3233 C   0  0  0  0  0  0  0  0  0  0  0  0
   -1.6708    2.7849   -1.0060 C   0  0  0  0  0  0  0  0  0  0  0  0
   -1.2130    1.9911    0.0664 C   0  0  0  0  0  0  0  0  0  0  0  0
   -1.8529    0.7870    0.4128 O   0  0  0  0  0  0  0  0  0  0  0  0
   -3.2121    0.4912    0.0889 C   0  0  0  0  0  0  0  0  0  0  0  0
   -3.6245   -0.9043    0.6054 C   0  0  0  0  0  0  0  0  0  0  0  0
   -5.1577   -1.0487    0.7079 C   0  0  0  0  0  0  0  0  0  0  0  0
   -5.8295   -0.9242   -0.6360 C   0  0  0  0  0  0  0  0  0  0  0  0
   -5.8390   -2.0125   -1.5239 C   0  0  0  0  0  0  0  0  0  0  0  0
   -6.4426   -1.8910   -2.7797 C   0  0  0  0  0  0  0  0  0  0  0  0
   -7.0340   -0.6832   -3.1591 C   0  0  0  0  0  0  0  0  0  0  0  0
   -7.0217    0.4064   -2.2844 C   0  0  0  0  0  0  0  0  0  0  0  0
   -6.4203    0.2898   -1.0273 C   0  0  0  0  0  0  0  0  0  0  0  0
   -3.0020   -1.2271    1.9022 N   0  0  0  0  0  0  0  0  0  0  0  0
   -3.1419   -0.3460    3.0648 C   0  0  0  0  0  0  0  0  0  0  0  0
   -2.5792   -2.5775    2.1397 C   0  0  0  0  0  0  0  0  0  0  0  0
   -3.4331   -3.4347    2.4990 O   0  0  0  0  0  0  0  0  0  0  0  0
    0.2037   -4.6768    2.1154 H   0  0  0  0  0  0  0  0  0  0  0  0
   -1.4706   -5.0757    1.5705 H   0  0  0  0  0  0  0  0  0  0  0  0
   -1.1466   -4.6822    3.3079 H   0  0  0  0  0  0  0  0  0  0  0  0
   -0.5627   -2.3697    2.7218 H   0  0  0  0  0  0  0  0  0  0  0  0
   -1.3265   -2.8991   -0.1642 H   0  0  0  0  0  0  0  0  0  0  0  0
    2.7178   -2.2470    0.8644 H   0  0  0  0  0  0  0  0  0  0  0  0
    1.5769   -2.3158    2.2078 H   0  0  0  0  0  0  0  0  0  0  0  0
    2.6163   -0.1161    2.0329 H   0  0  0  0  0  0  0  0  0  0  0  0
    4.0194    1.1138    0.6740 H   0  0  0  0  0  0  0  0  0  0  0  0
    3.7727    0.8996   -2.2384 H   0  0  0  0  0  0  0  0  0  0  0  0
    2.9948    2.4228   -1.6688 H   0  0  0  0  0  0  0  0  0  0  0  0
    5.2012    3.0671   -2.1753 H   0  0  0  0  0  0  0  0  0  0  0  0
    5.2259    2.9167   -0.3933 H   0  0  0  0  0  0  0  0  0  0  0  0
    6.5734    0.7929    0.5620 H   0  0  0  0  0  0  0  0  0  0  0  0
    5.6981   -0.4322   -0.4588 H   0  0  0  0  0  0  0  0  0  0  0  0
    7.7017   -1.3503   -1.1574 H   0  0  0  0  0  0  0  0  0  0  0  0
    8.5562   -0.2757    0.0156 H   0  0  0  0  0  0  0  0  0  0  0  0
    9.3361    1.0662   -1.7168 H   0  0  0  0  0  0  0  0  0  0  0  0
    8.6083   -0.1202   -2.9008 H   0  0  0  0  0  0  0  0  0  0  0  0
    0.1496   -0.2892    2.6677 H   0  0  0  0  0  0  0  0  0  0  0  0
    1.3748    3.9976    1.0646 H   0  0  0  0  0  0  0  0  0  0  0  0
    0.5536    5.3476   -0.8247 H   0  0  0  0  0  0  0  0  0  0  0  0
   -1.3891    4.5839   -2.1520 H   0  0  0  0  0  0  0  0  0  0  0  0
   -2.5167    2.4843   -1.6062 H   0  0  0  0  0  0  0  0  0  0  0  0
   -3.3462    0.5001   -1.0137 H   0  0  0  0  0  0  0  0  0  0  0  0
   -3.8645    1.2771    0.5268 H   0  0  0  0  0  0  0  0  0  0  0  0
   -3.2693   -1.6398   -0.1497 H   0  0  0  0  0  0  0  0  0  0  0  0
   -5.4038   -2.0452    1.1361 H   0  0  0  0  0  0  0  0  0  0  0  0
   -5.5664   -0.2935    1.4152 H   0  0  0  0  0  0  0  0  0  0  0  0
   -5.3794   -2.9523   -1.2430 H   0  0  0  0  0  0  0  0  0  0  0  0
   -6.4517   -2.7329   -3.4594 H   0  0  0  0  0  0  0  0  0  0  0  0
   -7.4993   -0.5901   -4.1319 H   0  0  0  0  0  0  0  0  0  0  0  0
   -7.4759    1.3433   -2.5821 H   0  0  0  0  0  0  0  0  0  0  0  0
   -6.4123    1.1449   -0.3615 H   0  0  0  0  0  0  0  0  0  0  0  0
   -2.1435   -0.1395    3.4998 H   0  0  0  0  0  0  0  0  0  0  0  0
   -3.7783   -0.8325    3.8328 H   0  0  0  0  0  0  0  0  0  0  0  0
   -3.6115    0.6196    2.7911 H   0  0  0  0  0  0  0  0  0  0  0  0
  1  2  1  0
  2  3  1  0
  3  4  1  0
  4  5  2  0
  4  6  1  0
  6  7  1  0
  7  8  1  0
  8  9  2  0
  8 10  1  0
 10 11  1  0
 11 12  1  0
 12 13  1  0
 13 14  1  0
 14 15  1  0
 15 16  1  0
 16 17  1  0
 17 18  2  0
  7 19  1  0
 19 20  1  0
 20 21  2  0
 20 22  1  0
 22 23  2  0
 23 24  1  0
 24 25  2  0
 25 26  1  0
 26 27  2  0
 27 28  1  0
 28 29  1  0
 29 30  1  0
 30 31  1  0
 31 32  1  0
 32 33  2  0
 33 34  1  0
 34 35  2  0
 35 36  1  0
 36 37  2  0
 30 38  1  0
 38 39  1  0
 38 40  1  0
 40 41  2  0
 40  2  1  0
 17 13  1  0
 27 22  1  0
 37 32  1  0
  1 42  1  0
  1 43  1  0
  1 44  1  0
  2 45  1  0
  3 46  1  0
  6 47  1  0
  6 48  1  0
  7 49  1  0
 10 50  1  0
 11 51  1  0
 11 52  1  0
 12 53  1  0
 12 54  1  0
 14 55  1  0
 14 56  1  0
 15 57  1  0
 15 58  1  0
 16 59  1  0
 16 60  1  0
 19 61  1  0
 23 62  1  0
 24 63  1  0
 25 64  1  0
 26 65  1  0
 29 66  1  0
 29 67  1  0
 30 68  1  0
 31 69  1  0
 31 70  1  0
 33 71  1  0
 34 72  1  0
 35 73  1  0
 36 74  1  0
 37 75  1  0
 39 76  1  0
 39 77  1  0
 39 78  1  0
M  END
$$$$
