
     RDKit          3D

 64 66  0  0  0  0  0  0  0  0999 V2000
   -5.6305    1.9025   -2.8046 C   0  0  0  0  0  0  0  0  0  0  0  0
   -4.1831    2.3234   -2.5947 C   0  0  0  0  0  0  0  0  0  0  0  0
   -3.6924    1.7422   -1.3904 O   0  0  0  0  0  0  0  0  0  0  0  0
   -2.3929    1.9062   -0.8840 C   0  0  0  0  0  0  0  0  0  0  0  0
   -1.4668    2.7424   -1.5378 C   0  0  0  0  0  0  0  0  0  0  0  0
   -0.1798    2.9091   -1.0340 C   0  0  0  0  0  0  0  0  0  0  0  0
    0.2089    2.2466    0.1248 C   0  0  0  0  0  0  0  0  0  0  0  0
   -0.6869    1.4049    0.7997 C   0  0  0  0  0  0  0  0  0  0  0  0
   -2.0002    1.2256    0.3018 C   0  0  0  0  0  0  0  0  0  0  0  0
   -2.8573    0.3606    1.0134 O   0  0  0  0  0  0  0  0  0  0  0  0
   -4.1876   -0.0093    0.6510 C   0  0  0  0  0  0  0  0  0  0  0  0
   -4.7846   -0.9667    1.6883 C   0  0  0  0  0  0  0  0  0  0  0  0
   -3.9135   -2.2031    1.9631 C   0  0  0  0  0  0  0  0  0  0  0  0
   -3.8328   -3.1893    0.7759 C   0  0  0  0  0  0  0  0  0  0  0  0
   -2.3905   -3.4729    0.3306 C   0  0  0  0  0  0  0  0  0  0  0  0
   -1.8373   -2.3283   -0.3938 N   0  0  0  0  0  0  0  0  0  0  0  0
   -0.5697   -1.7089   -0.1069 C   0  0  0  0  0  0  0  0  0  0  0  0
    0.0292   -1.0992   -1.0347 O   0  0  0  0  0  0  0  0  0  0  0  0
    0.0601   -1.7590    1.2613 C   0  0  0  0  0  0  0  0  0  0  0  0
    0.6793   -0.4677    1.6042 N   0  0  0  0  0  0  0  0  0  0  0  0
    2.1093   -0.2660    1.5076 C   0  0  0  0  0  0  0  0  0  0  0  0
    2.6435    0.6964    2.1264 O   0  0  0  0  0  0  0  0  0  0  0  0
    2.9940   -1.2196    0.7413 C   0  0  0  0  0  0  0  0  0  0  0  0
    4.2504   -0.5459    0.2528 C   0  0  0  0  0  0  0  0  0  0  0  0
    5.4403   -0.6404    0.9895 C   0  0  0  0  0  0  0  0  0  0  0  0
    6.5984    0.0080    0.5496 C   0  0  0  0  0  0  0  0  0  0  0  0
    6.5805    0.7669   -0.6360 C   0  0  0  0  0  0  0  0  0  0  0  0
    7.7172    1.4295   -1.1224 O   0  0  0  0  0  0  0  0  0  0  0  0
    8.9875    1.4217   -0.4781 C   0  0  0  0  0  0  0  0  0  0  0  0
    5.3873    0.8714   -1.3615 C   0  0  0  0  0  0  0  0  0  0  0  0
    4.2280    0.2272   -0.9195 C   0  0  0  0  0  0  0  0  0  0  0  0
   -0.1937    0.6478    2.0116 C   0  0  0  0  0  0  0  0  0  0  0  0
   -5.7007    0.7958   -2.8782 H   0  0  0  0  0  0  0  0  0  0  0  0
   -6.0245    2.3515   -3.7424 H   0  0  0  0  0  0  0  0  0  0  0  0
   -6.2494    2.2515   -1.9481 H   0  0  0  0  0  0  0  0  0  0  0  0
   -3.5751    1.9741   -3.4567 H   0  0  0  0  0  0  0  0  0  0  0  0
   -4.1341    3.4310   -2.5227 H   0  0  0  0  0  0  0  0  0  0  0  0
   -1.7314    3.2727   -2.4426 H   0  0  0  0  0  0  0  0  0  0  0  0
    0.5228    3.5541   -1.5467 H   0  0  0  0  0  0  0  0  0  0  0  0
    1.2185    2.3835    0.4911 H   0  0  0  0  0  0  0  0  0  0  0  0
   -4.8236    0.8990    0.6313 H   0  0  0  0  0  0  0  0  0  0  0  0
   -4.1891   -0.4892   -0.3495 H   0  0  0  0  0  0  0  0  0  0  0  0
   -5.7952   -1.2878    1.3536 H   0  0  0  0  0  0  0  0  0  0  0  0
   -4.9074   -0.4101    2.6445 H   0  0  0  0  0  0  0  0  0  0  0  0
   -2.9109   -1.8752    2.3018 H   0  0  0  0  0  0  0  0  0  0  0  0
   -4.3587   -2.7407    2.8290 H   0  0  0  0  0  0  0  0  0  0  0  0
   -4.2872   -4.1540    1.0897 H   0  0  0  0  0  0  0  0  0  0  0  0
   -4.4270   -2.8365   -0.0932 H   0  0  0  0  0  0  0  0  0  0  0  0
   -1.7658   -3.7613    1.2016 H   0  0  0  0  0  0  0  0  0  0  0  0
   -2.3978   -4.3468   -0.3560 H   0  0  0  0  0  0  0  0  0  0  0  0
   -2.3141   -2.0524   -1.2822 H   0  0  0  0  0  0  0  0  0  0  0  0
    0.7988   -2.5839    1.2943 H   0  0  0  0  0  0  0  0  0  0  0  0
   -0.6919   -1.9991    2.0341 H   0  0  0  0  0  0  0  0  0  0  0  0
    3.2497   -2.0777    1.3999 H   0  0  0  0  0  0  0  0  0  0  0  0
    2.4497   -1.6265   -0.1360 H   0  0  0  0  0  0  0  0  0  0  0  0
    5.4729   -1.2164    1.9060 H   0  0  0  0  0  0  0  0  0  0  0  0
    7.4995   -0.0877    1.1383 H   0  0  0  0  0  0  0  0  0  0  0  0
    8.9048    1.8746    0.5328 H   0  0  0  0  0  0  0  0  0  0  0  0
    9.7023    2.0196   -1.0783 H   0  0  0  0  0  0  0  0  0  0  0  0
    9.3716    0.3818   -0.4032 H   0  0  0  0  0  0  0  0  0  0  0  0
    5.3581    1.4586   -2.2723 H   0  0  0  0  0  0  0  0  0  0  0  0
    3.3128    0.3308   -1.4902 H   0  0  0  0  0  0  0  0  0  0  0  0
    0.3469    1.3466    2.6858 H   0  0  0  0  0  0  0  0  0  0  0  0
   -1.0393    0.2636    2.6209 H   0  0  0  0  0  0  0  0  0  0  0  0
  1  2  1  0
  2  3  1  0
  3  4  1  0
  4  5  2  0
  5  6  1  0
  6  7  2  0
  7  8  1  0
  8  9  2  0
  9 10  1  0
 10 11  1  0
 11 12  1  0
 12 13  1  0
 13 14  1  0
 14 15  1  0
 15 16  1  0
 16 17  1  0
 17 18  2  0
 17 19  1  0
 19 20  1  0
 20 21  1  0
 21 22  2  0
 21 23  1  0
 23 24  1  0
 24 25  2  0
 25 26  1  0
 26 27  2  0
 27 28  1  0
 28 29  1  0
 27 30  1  0
 30 31  2  0
 20 32  1  0
  9  4  1  0
 31 24  1  0
 32  8  1  0
  1 33  1  0
  1 34  1  0
  1 35  1  0
  2 36  1  0
  2 37  1  0
  5 38  1  0
  6 39  1  0
  7 40  1  0
 11 41  1  0
 11 42  1  0
 12 43  1  0
 12 44  1  0
 13 45  1  0
 13 46  1  0
 14 47  1  0
 14 48  1  0
 15 49  1  0
 15 50  1  0
 16 51  1  0
 19 52  1  0
 19 53  1  0
 23 54  1  0
 23 55  1  0
 25 56  1  0
 26 57  1  0
 29 58  1  0
 29 59  1  0
 29 60  1  0
 30 61  1  0
 31 62  1  0
 32 63  1  0
 32 64  1  0
M  END
$$$$
