
     RDKit          3D

 70 73  0  0  0  0  0  0  0  0999 V2000
   -1.7046   -2.7553    2.9211 C   0  0  0  0  0  0  0  0  0  0  0  0
   -2.9784   -2.2393    2.2607 C   0  0  0  0  0  0  0  0  0  0  0  0
   -2.7063   -1.8261    0.8723 N   0  0  0  0  0  0  0  0  0  0  0  0
   -3.2155   -2.6784   -0.2220 C   0  0  0  0  0  0  0  0  0  0  0  0
   -3.9633   -1.9073   -1.3121 C   0  0  0  0  0  0  0  0  0  0  0  0
   -5.1099   -1.2010   -0.8326 O   0  0  0  0  0  0  0  0  0  0  0  0
   -5.0748   -0.0712   -0.0039 C   0  0  0  0  0  0  0  0  0  0  0  0
   -5.5589   -0.2222    1.3025 C   0  0  0  0  0  0  0  0  0  0  0  0
   -5.6014    0.8609    2.1789 C   0  0  0  0  0  0  0  0  0  0  0  0
   -5.1936    2.1206    1.7480 C   0  0  0  0  0  0  0  0  0  0  0  0
   -4.7377    2.2998    0.4411 C   0  0  0  0  0  0  0  0  0  0  0  0
   -4.6412    1.2105   -0.4488 C   0  0  0  0  0  0  0  0  0  0  0  0
   -4.2307    1.4847   -1.8845 C   0  0  0  0  0  0  0  0  0  0  0  0
   -2.9321    2.3139   -2.0489 C   0  0  0  0  0  0  0  0  0  0  0  0
   -1.7490    1.9098   -1.1443 C   0  0  0  0  0  0  0  0  0  0  0  0
   -1.1269    0.5362   -1.5041 C   0  0  0  0  0  0  0  0  0  0  0  0
   -0.7937   -0.4458   -0.3133 C   0  0  0  0  0  0  0  0  0  0  0  0
    0.4215    0.0987    0.4884 C   0  0  0  0  0  0  0  0  0  0  0  0
    1.6533   -0.0251   -0.2929 N   0  0  0  0  0  0  0  0  0  0  0  0
    2.6801    0.9832   -0.1877 C   0  0  0  0  0  0  0  0  0  0  0  0
    2.3480    2.1903   -0.0311 O   0  0  0  0  0  0  0  0  0  0  0  0
    4.1407    0.6327   -0.3320 C   0  0  0  0  0  0  0  0  0  0  0  0
    5.0425    1.5562    0.4973 C   0  0  0  0  0  0  0  0  0  0  0  0
    6.4810    1.1259    0.3889 C   0  0  0  0  0  0  0  0  0  0  0  0
    7.2917    1.6173   -0.6483 C   0  0  0  0  0  0  0  0  0  0  0  0
    8.6174    1.1893   -0.7687 C   0  0  0  0  0  0  0  0  0  0  0  0
    9.1389    0.2617    0.1372 C   0  0  0  0  0  0  0  0  0  0  0  0
    8.3346   -0.2421    1.1633 C   0  0  0  0  0  0  0  0  0  0  0  0
    7.0085    0.1836    1.2878 C   0  0  0  0  0  0  0  0  0  0  0  0
    1.9144   -1.3240   -0.9109 C   0  0  0  0  0  0  0  0  0  0  0  0
    0.6575   -1.8152   -1.6275 C   0  0  0  0  0  0  0  0  0  0  0  0
   -0.4909   -1.7531   -0.7980 O   0  0  0  0  0  0  0  0  0  0  0  0
   -1.9626   -0.5924    0.6758 C   0  0  0  0  0  0  0  0  0  0  0  0
   -2.1821    0.3511    1.4852 O   0  0  0  0  0  0  0  0  0  0  0  0
   -1.2914   -3.6050    2.3374 H   0  0  0  0  0  0  0  0  0  0  0  0
   -0.9443   -1.9483    2.9792 H   0  0  0  0  0  0  0  0  0  0  0  0
   -1.9329   -3.1031    3.9504 H   0  0  0  0  0  0  0  0  0  0  0  0
   -3.3827   -1.3869    2.8472 H   0  0  0  0  0  0  0  0  0  0  0  0
   -3.7458   -3.0415    2.3062 H   0  0  0  0  0  0  0  0  0  0  0  0
   -3.9086   -3.4549    0.1675 H   0  0  0  0  0  0  0  0  0  0  0  0
   -2.3768   -3.2377   -0.6831 H   0  0  0  0  0  0  0  0  0  0  0  0
   -3.2726   -1.2521   -1.8334 H   0  0  0  0  0  0  0  0  0  0  0  0
   -4.3129   -2.6425   -2.0673 H   0  0  0  0  0  0  0  0  0  0  0  0
   -5.8992   -1.1927    1.6413 H   0  0  0  0  0  0  0  0  0  0  0  0
   -5.9651    0.7256    3.1895 H   0  0  0  0  0  0  0  0  0  0  0  0
   -5.2471    2.9652    2.4229 H   0  0  0  0  0  0  0  0  0  0  0  0
   -4.4653    3.2976    0.1234 H   0  0  0  0  0  0  0  0  0  0  0  0
   -4.1539    0.5639   -2.4848 H   0  0  0  0  0  0  0  0  0  0  0  0
   -5.0567    2.0553   -2.3616 H   0  0  0  0  0  0  0  0  0  0  0  0
   -3.1681    3.3814   -1.8473 H   0  0  0  0  0  0  0  0  0  0  0  0
   -2.6089    2.2648   -3.1116 H   0  0  0  0  0  0  0  0  0  0  0  0
   -2.0447    2.0080   -0.0914 H   0  0  0  0  0  0  0  0  0  0  0  0
   -0.9600    2.6840   -1.2706 H   0  0  0  0  0  0  0  0  0  0  0  0
   -1.7216    0.0302   -2.2805 H   0  0  0  0  0  0  0  0  0  0  0  0
   -0.1834    0.7704   -2.0424 H   0  0  0  0  0  0  0  0  0  0  0  0
    0.5488   -0.4860    1.4264 H   0  0  0  0  0  0  0  0  0  0  0  0
    0.2404    1.1559    0.7806 H   0  0  0  0  0  0  0  0  0  0  0  0
    4.3037   -0.4126    0.0085 H   0  0  0  0  0  0  0  0  0  0  0  0
    4.4188    0.7030   -1.4056 H   0  0  0  0  0  0  0  0  0  0  0  0
    4.9406    2.6051    0.1414 H   0  0  0  0  0  0  0  0  0  0  0  0
    4.7228    1.5334    1.5627 H   0  0  0  0  0  0  0  0  0  0  0  0
    6.8962    2.3278   -1.3634 H   0  0  0  0  0  0  0  0  0  0  0  0
    9.2389    1.5733   -1.5671 H   0  0  0  0  0  0  0  0  0  0  0  0
   10.1645   -0.0700    0.0413 H   0  0  0  0  0  0  0  0  0  0  0  0
    8.7380   -0.9653    1.8601 H   0  0  0  0  0  0  0  0  0  0  0  0
    6.3927   -0.2218    2.0810 H   0  0  0  0  0  0  0  0  0  0  0  0
    2.2076   -2.0525   -0.1243 H   0  0  0  0  0  0  0  0  0  0  0  0
    2.7334   -1.2522   -1.6585 H   0  0  0  0  0  0  0  0  0  0  0  0
    0.8175   -2.8769   -1.9101 H   0  0  0  0  0  0  0  0  0  0  0  0
    0.5017   -1.2710   -2.5821 H   0  0  0  0  0  0  0  0  0  0  0  0
  1  2  1  0
  2  3  1  0
  3  4  1  0
  4  5  1  0
  5  6  1  0
  6  7  1  0
  7  8  2  0
  8  9  1  0
  9 10  2  0
 10 11  1  0
 11 12  2  0
 12 13  1  0
 13 14  1  0
 14 15  1  0
 15 16  1  0
 16 17  1  0
 17 18  1  0
 18 19  1  0
 19 20  1  0
 20 21  2  0
 20 22  1  0
 22 23  1  0
 23 24  1  0
 24 25  2  0
 25 26  1  0
 26 27  2  0
 27 28  1  0
 28 29  2  0
 19 30  1  0
 30 31  1  0
 31 32  1  0
 17 33  1  0
 33 34  2  0
 33  3  1  0
 12  7  1  0
 32 17  1  0
 29 24  1  0
  1 35  1  0
  1 36  1  0
  1 37  1  0
  2 38  1  0
  2 39  1  0
  4 40  1  0
  4 41  1  0
  5 42  1  0
  5 43  1  0
  8 44  1  0
  9 45  1  0
 10 46  1  0
 11 47  1  0
 13 48  1  0
 13 49  1  0
 14 50  1  0
 14 51  1  0
 15 52  1  0
 15 53  1  0
 16 54  1  0
 16 55  1  0
 18 56  1  0
 18 57  1  0
 22 58  1  0
 22 59  1  0
 23 60  1  0
 23 61  1  0
 25 62  1  0
 26 63  1  0
 27 64  1  0
 28 65  1  0
 29 66  1  0
 30 67  1  0
 30 68  1  0
 31 69  1  0
 31 70  1  0
M  END
$$$$
