
     RDKit          3D

 93 96  0  0  0  0  0  0  0  0999 V2000
    4.6335   -3.3307    2.6499 C   0  0  0  0  0  0  0  0  0  0  0  0
    3.9514   -2.5794    1.4969 C   0  0  0  0  0  0  0  0  0  0  0  0
    2.4544   -2.3633    1.8069 C   0  0  0  0  0  0  0  0  0  0  0  0
    1.6902   -2.2956    0.6054 O   0  0  0  0  0  0  0  0  0  0  0  0
    0.9790   -3.3994    0.1291 C   0  0  0  0  0  0  0  0  0  0  0  0
    1.6189   -4.3516   -0.6753 C   0  0  0  0  0  0  0  0  0  0  0  0
    0.9239   -5.4865   -1.1068 C   0  0  0  0  0  0  0  0  0  0  0  0
   -0.4142   -5.6674   -0.7465 C   0  0  0  0  0  0  0  0  0  0  0  0
   -1.0657   -4.7091    0.0370 C   0  0  0  0  0  0  0  0  0  0  0  0
   -0.3790   -3.5650    0.4661 C   0  0  0  0  0  0  0  0  0  0  0  0
   -1.0867   -2.5427    1.2542 C   0  0  0  0  0  0  0  0  0  0  0  0
   -1.6316   -2.8709    2.3407 O   0  0  0  0  0  0  0  0  0  0  0  0
   -1.1840   -1.1873    0.7942 N   0  0  0  0  0  0  0  0  0  0  0  0
   -1.1497   -0.8452   -0.6351 C   0  0  0  0  0  0  0  0  0  0  0  0
   -2.3854   -1.3691   -1.3164 C   0  0  0  0  0  0  0  0  0  0  0  0
   -2.2742   -2.0014   -2.4026 O   0  0  0  0  0  0  0  0  0  0  0  0
   -3.6808   -1.1284   -0.7532 N   0  0  0  0  0  0  0  0  0  0  0  0
   -4.9063   -1.5079   -1.4632 C   0  0  0  0  0  0  0  0  0  0  0  0
   -6.1918   -1.0905   -0.6836 C   0  0  0  0  0  0  0  0  0  0  0  0
   -7.4127   -1.3508   -1.5857 C   0  0  0  0  0  0  0  0  0  0  0  0
   -6.2989   -2.0068    0.5649 C   0  0  0  0  0  0  0  0  0  0  0  0
   -6.1984    0.4058   -0.2959 C   0  0  0  0  0  0  0  0  0  0  0  0
   -5.4889    1.3701   -1.0539 C   0  0  0  0  0  0  0  0  0  0  0  0
   -5.5344    2.7243   -0.7150 C   0  0  0  0  0  0  0  0  0  0  0  0
   -6.3060    3.1541    0.3646 C   0  0  0  0  0  0  0  0  0  0  0  0
   -6.3516    4.4699    0.6846 F   0  0  0  0  0  0  0  0  0  0  0  0
   -7.0513    2.2300    1.0955 C   0  0  0  0  0  0  0  0  0  0  0  0
   -7.0105    0.8730    0.7650 C   0  0  0  0  0  0  0  0  0  0  0  0
   -1.0414    0.6749   -0.8466 C   0  0  0  0  0  0  0  0  0  0  0  0
    0.3091    1.2238   -0.3604 C   0  0  0  0  0  0  0  0  0  0  0  0
    0.4889    2.6845   -0.6929 C   0  0  0  0  0  0  0  0  0  0  0  0
   -0.0859    3.1665   -1.7116 O   0  0  0  0  0  0  0  0  0  0  0  0
    1.3857    3.5183    0.0660 N   0  0  0  0  0  0  0  0  0  0  0  0
    1.7700    4.8488   -0.3786 C   0  0  0  0  0  0  0  0  0  0  0  0
    2.7761    5.3496    0.6489 C   0  0  0  0  0  0  0  0  0  0  0  0
    2.5568    4.4881    1.8883 C   0  0  0  0  0  0  0  0  0  0  0  0
    1.9331    3.1885    1.3774 C   0  0  0  0  0  0  0  0  0  0  0  0
    2.9656    2.0908    1.2921 C   0  0  0  0  0  0  0  0  0  0  0  0
    3.1230    1.3355    2.2894 O   0  0  0  0  0  0  0  0  0  0  0  0
    3.8038    1.9347    0.1310 N   0  0  0  0  0  0  0  0  0  0  0  0
    4.9034    0.9602    0.1047 C   0  0  0  0  0  0  0  0  0  0  0  0
    5.8906    1.1875   -1.0789 C   0  0  0  0  0  0  0  0  0  0  0  0
    6.5750    2.5611   -0.9663 C   0  0  0  0  0  0  0  0  0  0  0  0
    5.2619    1.0215   -2.4746 C   0  0  0  0  0  0  0  0  0  0  0  0
    4.3501   -0.4462    0.1418 C   0  0  0  0  0  0  0  0  0  0  0  0
    3.6042   -0.8550   -0.7901 O   0  0  0  0  0  0  0  0  0  0  0  0
    4.6247   -1.2915    1.2724 N   0  0  0  0  0  0  0  0  0  0  0  0
    4.5601   -2.7427    3.5892 H   0  0  0  0  0  0  0  0  0  0  0  0
    4.1539   -4.3212    2.8072 H   0  0  0  0  0  0  0  0  0  0  0  0
    5.7061   -3.4963    2.4094 H   0  0  0  0  0  0  0  0  0  0  0  0
    4.0622   -3.2085    0.5889 H   0  0  0  0  0  0  0  0  0  0  0  0
    2.0534   -3.1792    2.4531 H   0  0  0  0  0  0  0  0  0  0  0  0
    2.3153   -1.4127    2.3692 H   0  0  0  0  0  0  0  0  0  0  0  0
    2.6531   -4.2144   -0.9638 H   0  0  0  0  0  0  0  0  0  0  0  0
    1.4214   -6.2259   -1.7216 H   0  0  0  0  0  0  0  0  0  0  0  0
   -0.9524   -6.5441   -1.0859 H   0  0  0  0  0  0  0  0  0  0  0  0
   -2.1099   -4.8466    0.2909 H   0  0  0  0  0  0  0  0  0  0  0  0
   -1.5044   -0.4677    1.4822 H   0  0  0  0  0  0  0  0  0  0  0  0
   -0.2628   -1.3152   -1.1098 H   0  0  0  0  0  0  0  0  0  0  0  0
   -3.7395   -0.6329    0.1641 H   0  0  0  0  0  0  0  0  0  0  0  0
   -4.8953   -1.0482   -2.4755 H   0  0  0  0  0  0  0  0  0  0  0  0
   -4.9006   -2.6095   -1.6277 H   0  0  0  0  0  0  0  0  0  0  0  0
   -8.3543   -1.0926   -1.0524 H   0  0  0  0  0  0  0  0  0  0  0  0
   -7.3561   -0.7284   -2.5064 H   0  0  0  0  0  0  0  0  0  0  0  0
   -7.4636   -2.4209   -1.8899 H   0  0  0  0  0  0  0  0  0  0  0  0
   -5.5517   -1.7144    1.3313 H   0  0  0  0  0  0  0  0  0  0  0  0
   -6.1188   -3.0705    0.2973 H   0  0  0  0  0  0  0  0  0  0  0  0
   -7.3109   -1.9685    1.0209 H   0  0  0  0  0  0  0  0  0  0  0  0
   -4.8938    1.0944   -1.9133 H   0  0  0  0  0  0  0  0  0  0  0  0
   -4.9734    3.4428   -1.2976 H   0  0  0  0  0  0  0  0  0  0  0  0
   -7.6686    2.5635    1.9209 H   0  0  0  0  0  0  0  0  0  0  0  0
   -7.6266    0.1992    1.3421 H   0  0  0  0  0  0  0  0  0  0  0  0
   -1.1443    0.8790   -1.9354 H   0  0  0  0  0  0  0  0  0  0  0  0
   -1.8714    1.1997   -0.3203 H   0  0  0  0  0  0  0  0  0  0  0  0
    0.3784    1.0722    0.7349 H   0  0  0  0  0  0  0  0  0  0  0  0
    1.1353    0.6573   -0.8408 H   0  0  0  0  0  0  0  0  0  0  0  0
    2.2358    4.8001   -1.3876 H   0  0  0  0  0  0  0  0  0  0  0  0
    0.8745    5.5087   -0.4026 H   0  0  0  0  0  0  0  0  0  0  0  0
    2.6315    6.4288    0.8721 H   0  0  0  0  0  0  0  0  0  0  0  0
    3.8096    5.1884    0.2680 H   0  0  0  0  0  0  0  0  0  0  0  0
    1.8317    5.0010    2.5605 H   0  0  0  0  0  0  0  0  0  0  0  0
    3.5050    4.3320    2.4485 H   0  0  0  0  0  0  0  0  0  0  0  0
    1.1088    2.8861    2.0614 H   0  0  0  0  0  0  0  0  0  0  0  0
    3.6608    2.5856   -0.6724 H   0  0  0  0  0  0  0  0  0  0  0  0
    5.5010    1.1095    1.0307 H   0  0  0  0  0  0  0  0  0  0  0  0
    6.6941    0.4210   -0.9891 H   0  0  0  0  0  0  0  0  0  0  0  0
    7.3811    2.6539   -1.7257 H   0  0  0  0  0  0  0  0  0  0  0  0
    7.0399    2.6839    0.0356 H   0  0  0  0  0  0  0  0  0  0  0  0
    5.8467    3.3840   -1.1265 H   0  0  0  0  0  0  0  0  0  0  0  0
    4.3657    1.6631   -2.6051 H   0  0  0  0  0  0  0  0  0  0  0  0
    4.9827   -0.0358   -2.6627 H   0  0  0  0  0  0  0  0  0  0  0  0
    5.9988    1.2956   -3.2600 H   0  0  0  0  0  0  0  0  0  0  0  0
    5.3475   -0.9735    1.9599 H   0  0  0  0  0  0  0  0  0  0  0  0
  1  2  1  0
  2  3  1  0
  3  4  1  0
  4  5  1  0
  5  6  2  0
  6  7  1  0
  7  8  2  0
  8  9  1  0
  9 10  2  0
 10 11  1  0
 11 12  2  0
 11 13  1  0
 13 14  1  0
 14 15  1  0
 15 16  2  0
 15 17  1  0
 17 18  1  0
 18 19  1  0
 19 20  1  0
 19 21  1  0
 19 22  1  0
 22 23  2  0
 23 24  1  0
 24 25  2  0
 25 26  1  0
 25 27  1  0
 27 28  2  0
 14 29  1  0
 29 30  1  0
 30 31  1  0
 31 32  2  0
 31 33  1  0
 33 34  1  0
 34 35  1  0
 35 36  1  0
 36 37  1  0
 37 38  1  0
 38 39  2  0
 38 40  1  0
 40 41  1  0
 41 42  1  0
 42 43  1  0
 42 44  1  0
 41 45  1  0
 45 46  2  0
 45 47  1  0
 47  2  1  0
 10  5  1  0
 28 22  1  0
 37 33  1  0
  1 48  1  0
  1 49  1  0
  1 50  1  0
  2 51  1  0
  3 52  1  0
  3 53  1  0
  6 54  1  0
  7 55  1  0
  8 56  1  0
  9 57  1  0
 13 58  1  0
 14 59  1  0
 17 60  1  0
 18 61  1  0
 18 62  1  0
 20 63  1  0
 20 64  1  0
 20 65  1  0
 21 66  1  0
 21 67  1  0
 21 68  1  0
 23 69  1  0
 24 70  1  0
 27 71  1  0
 28 72  1  0
 29 73  1  0
 29 74  1  0
 30 75  1  0
 30 76  1  0
 34 77  1  0
 34 78  1  0
 35 79  1  0
 35 80  1  0
 36 81  1  0
 36 82  1  0
 37 83  1  0
 40 84  1  0
 41 85  1  0
 42 86  1  0
 43 87  1  0
 43 88  1  0
 43 89  1  0
 44 90  1  0
 44 91  1  0
 44 92  1  0
 47 93  1  0
M  END
$$$$
