
     RDKit          3D

 75 78  0  0  0  0  0  0  0  0999 V2000
    5.1556    1.2989   -3.2432 C   0  0  0  0  0  0  0  0  0  0  0  0
    5.7572    0.4432   -2.1726 C   0  0  0  0  0  0  0  0  0  0  0  0
    7.0997    0.3537   -1.9776 N   0  0  0  0  0  0  0  0  0  0  0  0
    7.1974   -0.4882   -0.9313 C   0  0  0  0  0  0  0  0  0  0  0  0
    8.3592   -0.9179   -0.2941 C   0  0  0  0  0  0  0  0  0  0  0  0
    8.2208   -1.7846    0.8068 C   0  0  0  0  0  0  0  0  0  0  0  0
    6.9385   -2.1928    1.2405 C   0  0  0  0  0  0  0  0  0  0  0  0
    5.7839   -1.7394    0.5760 C   0  0  0  0  0  0  0  0  0  0  0  0
    5.9593   -0.8868   -0.5169 C   0  0  0  0  0  0  0  0  0  0  0  0
    5.0329   -0.3163   -1.3055 N   0  0  0  0  0  0  0  0  0  0  0  0
    3.5747   -0.4055   -1.1830 C   0  0  0  0  0  0  0  0  0  0  0  0
    3.0585    0.5855   -0.1726 C   0  0  0  0  0  0  0  0  0  0  0  0
    3.7142    1.6455    0.0327 O   0  0  0  0  0  0  0  0  0  0  0  0
    1.8189    0.3633    0.5376 N   0  0  0  0  0  0  0  0  0  0  0  0
    1.5620    1.1352    1.7699 C   0  0  0  0  0  0  0  0  0  0  0  0
    0.7845    2.4300    1.4679 C   0  0  0  0  0  0  0  0  0  0  0  0
   -0.7224    2.2742    1.7444 C   0  0  0  0  0  0  0  0  0  0  0  0
   -1.5490    3.4303    1.1732 C   0  0  0  0  0  0  0  0  0  0  0  0
   -1.6634    3.3199   -0.2847 N   0  0  0  0  0  0  0  0  0  0  0  0
   -2.9022    3.5010   -0.9850 C   0  0  0  0  0  0  0  0  0  0  0  0
   -2.8861    3.9966   -2.1436 O   0  0  0  0  0  0  0  0  0  0  0  0
   -4.1967    3.1206   -0.3876 C   0  0  0  0  0  0  0  0  0  0  0  0
   -5.2273    4.0723   -0.3344 C   0  0  0  0  0  0  0  0  0  0  0  0
   -6.4698    3.7404    0.2098 C   0  0  0  0  0  0  0  0  0  0  0  0
   -7.7457    4.9427    0.2821 Cl  0  0  0  0  0  0  0  0  0  0  0  0
   -6.6957    2.4514    0.6954 C   0  0  0  0  0  0  0  0  0  0  0  0
   -5.6846    1.4899    0.6325 C   0  0  0  0  0  0  0  0  0  0  0  0
   -4.4269    1.8088    0.0802 C   0  0  0  0  0  0  0  0  0  0  0  0
   -3.4103    0.8450   -0.0414 O   0  0  0  0  0  0  0  0  0  0  0  0
   -3.5877   -0.5468    0.2244 C   0  0  0  0  0  0  0  0  0  0  0  0
   -2.3072   -1.3233   -0.1429 C   0  0  0  0  0  0  0  0  0  0  0  0
   -2.5776   -2.7537   -0.6800 C   0  0  0  0  0  0  0  0  0  0  0  0
   -2.8780   -3.8584    0.3679 C   0  0  0  0  0  0  0  0  0  0  0  0
   -2.8983   -5.2294   -0.3246 C   0  0  0  0  0  0  0  0  0  0  0  0
   -4.2096   -3.6358    1.1000 C   0  0  0  0  0  0  0  0  0  0  0  0
   -1.3768   -1.3549    0.9916 N   0  0  0  0  0  0  0  0  0  0  0  0
    0.0474   -1.3148    0.8303 C   0  0  0  0  0  0  0  0  0  0  0  0
    0.7661   -2.0906    1.5149 O   0  0  0  0  0  0  0  0  0  0  0  0
    0.7045   -0.3489   -0.1155 C   0  0  0  0  0  0  0  0  0  0  0  0
    4.6787    0.6530   -4.0095 H   0  0  0  0  0  0  0  0  0  0  0  0
    4.3907    1.9721   -2.8020 H   0  0  0  0  0  0  0  0  0  0  0  0
    5.9411    1.9170   -3.7278 H   0  0  0  0  0  0  0  0  0  0  0  0
    9.3351   -0.5916   -0.6298 H   0  0  0  0  0  0  0  0  0  0  0  0
    9.1024   -2.1348    1.3278 H   0  0  0  0  0  0  0  0  0  0  0  0
    6.8439   -2.8565    2.0901 H   0  0  0  0  0  0  0  0  0  0  0  0
    4.7991   -2.0422    0.9076 H   0  0  0  0  0  0  0  0  0  0  0  0
    3.2977   -1.4371   -0.8776 H   0  0  0  0  0  0  0  0  0  0  0  0
    3.0958   -0.2070   -2.1655 H   0  0  0  0  0  0  0  0  0  0  0  0
    2.5273    1.3977    2.2575 H   0  0  0  0  0  0  0  0  0  0  0  0
    1.0240    0.5106    2.5154 H   0  0  0  0  0  0  0  0  0  0  0  0
    1.1748    3.2471    2.1155 H   0  0  0  0  0  0  0  0  0  0  0  0
    0.9712    2.7329    0.4159 H   0  0  0  0  0  0  0  0  0  0  0  0
   -1.1097    1.3231    1.3315 H   0  0  0  0  0  0  0  0  0  0  0  0
   -0.8751    2.2370    2.8451 H   0  0  0  0  0  0  0  0  0  0  0  0
   -1.0810    4.4038    1.4341 H   0  0  0  0  0  0  0  0  0  0  0  0
   -2.5525    3.4087    1.6481 H   0  0  0  0  0  0  0  0  0  0  0  0
   -0.7889    3.3896   -0.8493 H   0  0  0  0  0  0  0  0  0  0  0  0
   -5.0604    5.0766   -0.7061 H   0  0  0  0  0  0  0  0  0  0  0  0
   -7.6576    2.1914    1.1170 H   0  0  0  0  0  0  0  0  0  0  0  0
   -5.8962    0.4976    1.0074 H   0  0  0  0  0  0  0  0  0  0  0  0
   -4.4432   -0.9176   -0.3802 H   0  0  0  0  0  0  0  0  0  0  0  0
   -3.8261   -0.6697    1.3014 H   0  0  0  0  0  0  0  0  0  0  0  0
   -1.8460   -0.7757   -0.9922 H   0  0  0  0  0  0  0  0  0  0  0  0
   -1.6620   -3.0591   -1.2339 H   0  0  0  0  0  0  0  0  0  0  0  0
   -3.3932   -2.7233   -1.4356 H   0  0  0  0  0  0  0  0  0  0  0  0
   -2.0603   -3.8922    1.1194 H   0  0  0  0  0  0  0  0  0  0  0  0
   -3.0749   -6.0372    0.4182 H   0  0  0  0  0  0  0  0  0  0  0  0
   -3.7007   -5.2680   -1.0932 H   0  0  0  0  0  0  0  0  0  0  0  0
   -1.9219   -5.4302   -0.8142 H   0  0  0  0  0  0  0  0  0  0  0  0
   -5.0264   -3.4127    0.3806 H   0  0  0  0  0  0  0  0  0  0  0  0
   -4.1175   -2.8105    1.8308 H   0  0  0  0  0  0  0  0  0  0  0  0
   -4.4899   -4.5387    1.6834 H   0  0  0  0  0  0  0  0  0  0  0  0
   -1.7367   -1.6937    1.9128 H   0  0  0  0  0  0  0  0  0  0  0  0
    1.0381   -0.9232   -1.0010 H   0  0  0  0  0  0  0  0  0  0  0  0
   -0.0201    0.4021   -0.4862 H   0  0  0  0  0  0  0  0  0  0  0  0
  1  2  1  0
  2  3  2  0
  3  4  1  0
  4  5  2  0
  5  6  1  0
  6  7  2  0
  7  8  1  0
  8  9  2  0
  9 10  1  0
 10 11  1  0
 11 12  1  0
 12 13  2  0
 12 14  1  0
 14 15  1  0
 15 16  1  0
 16 17  1  0
 17 18  1  0
 18 19  1  0
 19 20  1  0
 20 21  2  0
 20 22  1  0
 22 23  2  0
 23 24  1  0
 24 25  1  0
 24 26  2  0
 26 27  1  0
 27 28  2  0
 28 29  1  0
 29 30  1  0
 30 31  1  0
 31 32  1  0
 32 33  1  0
 33 34  1  0
 33 35  1  0
 31 36  1  0
 36 37  1  0
 37 38  2  0
 37 39  1  0
 10  2  1  0
 39 14  1  0
  9  4  1  0
 28 22  1  0
  1 40  1  0
  1 41  1  0
  1 42  1  0
  5 43  1  0
  6 44  1  0
  7 45  1  0
  8 46  1  0
 11 47  1  0
 11 48  1  0
 15 49  1  0
 15 50  1  0
 16 51  1  0
 16 52  1  0
 17 53  1  0
 17 54  1  0
 18 55  1  0
 18 56  1  0
 19 57  1  0
 23 58  1  0
 26 59  1  0
 27 60  1  0
 30 61  1  0
 30 62  1  0
 31 63  1  0
 32 64  1  0
 32 65  1  0
 33 66  1  0
 34 67  1  0
 34 68  1  0
 34 69  1  0
 35 70  1  0
 35 71  1  0
 35 72  1  0
 36 73  1  0
 39 74  1  0
 39 75  1  0
M  END
$$$$
