
     RDKit          3D

 65 67  0  0  0  0  0  0  0  0999 V2000
   -4.5485    1.4052    0.7121 C   0  0  0  0  0  0  0  0  0  0  0  0
   -3.7312    0.9543    1.9226 C   0  0  0  0  0  0  0  0  0  0  0  0
   -2.2227    0.8382    1.6041 C   0  0  0  0  0  0  0  0  0  0  0  0
   -1.3645    0.7529    2.8941 C   0  0  0  0  0  0  0  0  0  0  0  0
   -1.7112   -0.3906    3.8535 C   0  0  0  0  0  0  0  0  0  0  0  0
   -1.9517   -0.3218    0.6498 C   0  0  0  0  0  0  0  0  0  0  0  0
   -2.2321   -1.4817    1.0604 O   0  0  0  0  0  0  0  0  0  0  0  0
   -1.4355   -0.1630   -0.7070 N   0  0  0  0  0  0  0  0  0  0  0  0
   -1.4655    1.1513   -1.3977 C   0  0  0  0  0  0  0  0  0  0  0  0
   -0.0714    1.7881   -1.5217 C   0  0  0  0  0  0  0  0  0  0  0  0
    0.5044    2.2379   -0.1721 C   0  0  0  0  0  0  0  0  0  0  0  0
    1.9472    2.7568   -0.2732 C   0  0  0  0  0  0  0  0  0  0  0  0
    2.8320    1.8428   -1.0176 N   0  0  0  0  0  0  0  0  0  0  0  0
    3.1885    2.1604   -2.4047 C   0  0  0  0  0  0  0  0  0  0  0  0
    3.5068    0.7418   -0.3714 C   0  0  0  0  0  0  0  0  0  0  0  0
    4.5775    0.2907   -0.8618 O   0  0  0  0  0  0  0  0  0  0  0  0
    2.9873    0.1096    0.8540 C   0  0  0  0  0  0  0  0  0  0  0  0
    3.6852    0.2828    2.0579 C   0  0  0  0  0  0  0  0  0  0  0  0
    3.2619   -0.3681    3.2172 C   0  0  0  0  0  0  0  0  0  0  0  0
    2.1496   -1.2084    3.1788 C   0  0  0  0  0  0  0  0  0  0  0  0
    1.4582   -1.4057    1.9811 C   0  0  0  0  0  0  0  0  0  0  0  0
    1.8726   -0.7521    0.8015 C   0  0  0  0  0  0  0  0  0  0  0  0
    1.1887   -0.8837   -0.4213 O   0  0  0  0  0  0  0  0  0  0  0  0
    0.3337   -1.9599   -0.8177 C   0  0  0  0  0  0  0  0  0  0  0  0
    1.1142   -2.8504   -1.8076 C   0  0  0  0  0  0  0  0  0  0  0  0
    0.1736   -3.6267   -2.7295 C   0  0  0  0  0  0  0  0  0  0  0  0
   -0.6618   -2.6785   -3.6099 C   0  0  0  0  0  0  0  0  0  0  0  0
   -0.9433   -1.3084   -2.9549 C   0  0  0  0  0  0  0  0  0  0  0  0
   -1.0011   -1.4083   -1.4100 C   0  0  0  0  0  0  0  0  0  0  0  0
   -4.2148    2.4086    0.3732 H   0  0  0  0  0  0  0  0  0  0  0  0
   -5.6212    1.4685    0.9921 H   0  0  0  0  0  0  0  0  0  0  0  0
   -4.4458    0.6795   -0.1223 H   0  0  0  0  0  0  0  0  0  0  0  0
   -4.1305   -0.0212    2.2756 H   0  0  0  0  0  0  0  0  0  0  0  0
   -3.8835    1.6981    2.7352 H   0  0  0  0  0  0  0  0  0  0  0  0
   -1.9177    1.7972    1.1538 H   0  0  0  0  0  0  0  0  0  0  0  0
   -0.2930    0.6705    2.6217 H   0  0  0  0  0  0  0  0  0  0  0  0
   -1.4721    1.7085    3.4531 H   0  0  0  0  0  0  0  0  0  0  0  0
   -1.5081   -1.3787    3.3966 H   0  0  0  0  0  0  0  0  0  0  0  0
   -1.0733   -0.3070    4.7584 H   0  0  0  0  0  0  0  0  0  0  0  0
   -2.7700   -0.3349    4.1785 H   0  0  0  0  0  0  0  0  0  0  0  0
   -2.1693    1.8598   -0.9263 H   0  0  0  0  0  0  0  0  0  0  0  0
   -1.8907    1.0432   -2.4132 H   0  0  0  0  0  0  0  0  0  0  0  0
    0.6123    1.0675   -2.0061 H   0  0  0  0  0  0  0  0  0  0  0  0
   -0.1438    2.6746   -2.1888 H   0  0  0  0  0  0  0  0  0  0  0  0
   -0.1284    3.0555    0.2355 H   0  0  0  0  0  0  0  0  0  0  0  0
    0.4675    1.4102    0.5529 H   0  0  0  0  0  0  0  0  0  0  0  0
    1.9281    3.7561   -0.7606 H   0  0  0  0  0  0  0  0  0  0  0  0
    2.3526    2.9210    0.7487 H   0  0  0  0  0  0  0  0  0  0  0  0
    3.0297    1.2668   -3.0450 H   0  0  0  0  0  0  0  0  0  0  0  0
    4.2545    2.4663   -2.4596 H   0  0  0  0  0  0  0  0  0  0  0  0
    2.5618    2.9838   -2.8083 H   0  0  0  0  0  0  0  0  0  0  0  0
    4.5576    0.9238    2.0976 H   0  0  0  0  0  0  0  0  0  0  0  0
    3.7976   -0.2221    4.1462 H   0  0  0  0  0  0  0  0  0  0  0  0
    1.8162   -1.7027    4.0822 H   0  0  0  0  0  0  0  0  0  0  0  0
    0.5810   -2.0315    2.0105 H   0  0  0  0  0  0  0  0  0  0  0  0
    0.0598   -2.6002    0.0418 H   0  0  0  0  0  0  0  0  0  0  0  0
    1.7515   -3.5633   -1.2402 H   0  0  0  0  0  0  0  0  0  0  0  0
    1.7898   -2.2240   -2.4324 H   0  0  0  0  0  0  0  0  0  0  0  0
   -0.5026   -4.2571   -2.1104 H   0  0  0  0  0  0  0  0  0  0  0  0
    0.7666   -4.3079   -3.3776 H   0  0  0  0  0  0  0  0  0  0  0  0
   -0.1314   -2.5093   -4.5724 H   0  0  0  0  0  0  0  0  0  0  0  0
   -1.6251   -3.1788   -3.8509 H   0  0  0  0  0  0  0  0  0  0  0  0
   -0.1479   -0.6014   -3.2660 H   0  0  0  0  0  0  0  0  0  0  0  0
   -1.9147   -0.9441   -3.3518 H   0  0  0  0  0  0  0  0  0  0  0  0
   -1.7838   -2.1810   -1.2304 H   0  0  0  0  0  0  0  0  0  0  0  0
  1  2  1  0
  2  3  1  0
  3  4  1  0
  4  5  1  0
  3  6  1  0
  6  7  2  0
  6  8  1  0
  8  9  1  0
  9 10  1  0
 10 11  1  0
 11 12  1  0
 12 13  1  0
 13 14  1  0
 13 15  1  0
 15 16  2  0
 15 17  1  0
 17 18  2  0
 18 19  1  0
 19 20  2  0
 20 21  1  0
 21 22  2  0
 22 23  1  0
 23 24  1  0
 24 25  1  0
 25 26  1  0
 26 27  1  0
 27 28  1  0
 28 29  1  0
 29  8  1  0
 22 17  1  0
 29 24  1  0
  1 30  1  0
  1 31  1  0
  1 32  1  0
  2 33  1  0
  2 34  1  0
  3 35  1  0
  4 36  1  0
  4 37  1  0
  5 38  1  0
  5 39  1  0
  5 40  1  0
  9 41  1  0
  9 42  1  0
 10 43  1  0
 10 44  1  0
 11 45  1  0
 11 46  1  0
 12 47  1  0
 12 48  1  0
 14 49  1  0
 14 50  1  0
 14 51  1  0
 18 52  1  0
 19 53  1  0
 20 54  1  0
 21 55  1  0
 24 56  1  0
 25 57  1  0
 25 58  1  0
 26 59  1  0
 26 60  1  0
 27 61  1  0
 27 62  1  0
 28 63  1  0
 28 64  1  0
 29 65  1  0
M  END
$$$$
