
     RDKit          3D

102104  0  0  0  0  0  0  0  0999 V2000
    9.2651   -0.3284   -1.8181 C   0  0  0  0  0  0  0  0  0  0  0  0
    8.6291   -0.2365   -0.4660 C   0  0  0  0  0  0  0  0  0  0  0  0
    9.0164    0.6775    0.3128 O   0  0  0  0  0  0  0  0  0  0  0  0
    7.6090   -1.1686   -0.0317 N   0  0  0  0  0  0  0  0  0  0  0  0
    7.1293   -2.2605   -0.8903 C   0  0  0  0  0  0  0  0  0  0  0  0
    5.7902   -1.8880   -1.5303 C   0  0  0  0  0  0  0  0  0  0  0  0
    4.6629   -1.7710   -0.4944 C   0  0  0  0  0  0  0  0  0  0  0  0
    4.6469   -0.4459    0.1587 N   0  0  0  0  0  0  0  0  0  0  0  0
    3.4979    0.4084    0.0052 C   0  0  0  0  0  0  0  0  0  0  0  0
    3.6667    1.6178   -0.3130 O   0  0  0  0  0  0  0  0  0  0  0  0
    2.0974   -0.1263    0.2139 C   0  0  0  0  0  0  0  0  0  0  0  0
    1.2830   -0.0783   -1.0928 C   0  0  0  0  0  0  0  0  0  0  0  0
   -0.0124   -0.8977   -0.9647 C   0  0  0  0  0  0  0  0  0  0  0  0
   -0.8769   -0.8334   -2.1980 C   0  0  0  0  0  0  0  0  0  0  0  0
   -0.6925    0.0914   -3.0348 O   0  0  0  0  0  0  0  0  0  0  0  0
   -1.9182   -1.7928   -2.4625 N   0  0  0  0  0  0  0  0  0  0  0  0
   -2.6756   -2.5761   -1.4722 C   0  0  0  0  0  0  0  0  0  0  0  0
   -1.8122   -3.7186   -0.8744 C   0  0  0  0  0  0  0  0  0  0  0  0
   -2.6127   -5.0146   -0.5922 C   0  0  0  0  0  0  0  0  0  0  0  0
   -1.6633   -6.1296   -0.1380 C   0  0  0  0  0  0  0  0  0  0  0  0
   -3.7092   -4.8008    0.4625 C   0  0  0  0  0  0  0  0  0  0  0  0
   -3.2899   -1.6733   -0.4247 C   0  0  0  0  0  0  0  0  0  0  0  0
   -2.6599   -1.4174    0.6335 O   0  0  0  0  0  0  0  0  0  0  0  0
   -4.6008   -1.1161   -0.6267 N   0  0  0  0  0  0  0  0  0  0  0  0
   -4.9035    0.3170   -0.4689 C   0  0  0  0  0  0  0  0  0  0  0  0
   -4.2687    1.1241   -1.6561 C   0  0  0  0  0  0  0  0  0  0  0  0
   -4.7457    2.5908   -1.7173 C   0  0  0  0  0  0  0  0  0  0  0  0
   -4.6110    0.4698   -3.0119 C   0  0  0  0  0  0  0  0  0  0  0  0
   -4.5142    0.7758    0.9332 C   0  0  0  0  0  0  0  0  0  0  0  0
   -4.6421   -0.0296    1.8954 O   0  0  0  0  0  0  0  0  0  0  0  0
   -4.1336    2.1288    1.2173 N   0  0  0  0  0  0  0  0  0  0  0  0
   -3.0686    2.5052    2.1609 C   0  0  0  0  0  0  0  0  0  0  0  0
   -3.5498    2.3868    3.6414 C   0  0  0  0  0  0  0  0  0  0  0  0
   -4.9585    2.9819    3.8318 C   0  0  0  0  0  0  0  0  0  0  0  0
   -2.5768    3.0856    4.6093 C   0  0  0  0  0  0  0  0  0  0  0  0
   -1.7825    1.6873    1.8939 C   0  0  0  0  0  0  0  0  0  0  0  0
   -1.3944    1.7772    0.5208 O   0  0  0  0  0  0  0  0  0  0  0  0
   -0.4978    2.7301    0.0177 C   0  0  0  0  0  0  0  0  0  0  0  0
   -0.9170    3.5239   -1.0556 C   0  0  0  0  0  0  0  0  0  0  0  0
   -0.0962    4.5359   -1.5540 C   0  0  0  0  0  0  0  0  0  0  0  0
    1.1603    4.7607   -0.9907 C   0  0  0  0  0  0  0  0  0  0  0  0
    1.6140    3.9470    0.0481 C   0  0  0  0  0  0  0  0  0  0  0  0
    0.8142    2.8994    0.5327 C   0  0  0  0  0  0  0  0  0  0  0  0
    1.3967    1.9790    1.5276 C   0  0  0  0  0  0  0  0  0  0  0  0
    1.8825    2.4533    2.5895 O   0  0  0  0  0  0  0  0  0  0  0  0
    1.4119    0.5571    1.3271 N   0  0  0  0  0  0  0  0  0  0  0  0
    5.7426    0.0668    1.0037 C   0  0  0  0  0  0  0  0  0  0  0  0
    6.8910   -0.9249    1.2238 C   0  0  0  0  0  0  0  0  0  0  0  0
    9.8615   -1.2625   -1.8922 H   0  0  0  0  0  0  0  0  0  0  0  0
    9.9484    0.5330   -1.9847 H   0  0  0  0  0  0  0  0  0  0  0  0
    8.4837   -0.3130   -2.6069 H   0  0  0  0  0  0  0  0  0  0  0  0
    7.0183   -3.1909   -0.2920 H   0  0  0  0  0  0  0  0  0  0  0  0
    7.8610   -2.5053   -1.6886 H   0  0  0  0  0  0  0  0  0  0  0  0
    5.8837   -0.9391   -2.1059 H   0  0  0  0  0  0  0  0  0  0  0  0
    5.5224   -2.6925   -2.2501 H   0  0  0  0  0  0  0  0  0  0  0  0
    4.7247   -2.5758    0.2692 H   0  0  0  0  0  0  0  0  0  0  0  0
    3.7146   -1.9370   -1.0459 H   0  0  0  0  0  0  0  0  0  0  0  0
    2.1904   -1.1962    0.5034 H   0  0  0  0  0  0  0  0  0  0  0  0
    1.0617    0.9738   -1.3651 H   0  0  0  0  0  0  0  0  0  0  0  0
    1.8854   -0.5161   -1.9225 H   0  0  0  0  0  0  0  0  0  0  0  0
   -0.5830   -0.5129   -0.1037 H   0  0  0  0  0  0  0  0  0  0  0  0
    0.2650   -1.9517   -0.7690 H   0  0  0  0  0  0  0  0  0  0  0  0
   -2.2606   -1.8398   -3.4506 H   0  0  0  0  0  0  0  0  0  0  0  0
   -3.5181   -3.0493   -2.0224 H   0  0  0  0  0  0  0  0  0  0  0  0
   -1.0120   -3.9664   -1.6079 H   0  0  0  0  0  0  0  0  0  0  0  0
   -1.3036   -3.3948    0.0592 H   0  0  0  0  0  0  0  0  0  0  0  0
   -3.0965   -5.3506   -1.5350 H   0  0  0  0  0  0  0  0  0  0  0  0
   -0.8694   -6.2995   -0.8985 H   0  0  0  0  0  0  0  0  0  0  0  0
   -1.1821   -5.8623    0.8279 H   0  0  0  0  0  0  0  0  0  0  0  0
   -2.2240   -7.0818   -0.0110 H   0  0  0  0  0  0  0  0  0  0  0  0
   -4.4945   -4.1200    0.0763 H   0  0  0  0  0  0  0  0  0  0  0  0
   -3.2801   -4.3734    1.3925 H   0  0  0  0  0  0  0  0  0  0  0  0
   -4.2019   -5.7671    0.7037 H   0  0  0  0  0  0  0  0  0  0  0  0
   -5.3136   -1.7126   -1.1089 H   0  0  0  0  0  0  0  0  0  0  0  0
   -6.0063    0.4345   -0.5390 H   0  0  0  0  0  0  0  0  0  0  0  0
   -3.1622    1.1131   -1.5440 H   0  0  0  0  0  0  0  0  0  0  0  0
   -5.8247    2.6726   -1.4632 H   0  0  0  0  0  0  0  0  0  0  0  0
   -4.6012    3.0203   -2.7314 H   0  0  0  0  0  0  0  0  0  0  0  0
   -4.1509    3.2390   -1.0488 H   0  0  0  0  0  0  0  0  0  0  0  0
   -4.2730   -0.5826   -3.0608 H   0  0  0  0  0  0  0  0  0  0  0  0
   -5.7093    0.4942   -3.1910 H   0  0  0  0  0  0  0  0  0  0  0  0
   -4.0989    1.0094   -3.8389 H   0  0  0  0  0  0  0  0  0  0  0  0
   -4.8312    2.8672    0.9778 H   0  0  0  0  0  0  0  0  0  0  0  0
   -2.8180    3.5683    1.9633 H   0  0  0  0  0  0  0  0  0  0  0  0
   -3.5927    1.3101    3.9270 H   0  0  0  0  0  0  0  0  0  0  0  0
   -5.2302    3.0073    4.9110 H   0  0  0  0  0  0  0  0  0  0  0  0
   -5.0046    4.0203    3.4243 H   0  0  0  0  0  0  0  0  0  0  0  0
   -5.7177    2.3527    3.3145 H   0  0  0  0  0  0  0  0  0  0  0  0
   -2.4489    4.1551    4.3303 H   0  0  0  0  0  0  0  0  0  0  0  0
   -2.9658    3.0352    5.6486 H   0  0  0  0  0  0  0  0  0  0  0  0
   -1.5865    2.5865    4.6180 H   0  0  0  0  0  0  0  0  0  0  0  0
   -0.9663    2.0448    2.5502 H   0  0  0  0  0  0  0  0  0  0  0  0
   -1.9578    0.6200    2.1398 H   0  0  0  0  0  0  0  0  0  0  0  0
   -1.8894    3.3670   -1.4974 H   0  0  0  0  0  0  0  0  0  0  0  0
   -0.4371    5.1486   -2.3784 H   0  0  0  0  0  0  0  0  0  0  0  0
    1.7912    5.5513   -1.3761 H   0  0  0  0  0  0  0  0  0  0  0  0
    2.6105    4.1051    0.4449 H   0  0  0  0  0  0  0  0  0  0  0  0
    1.1996   -0.0241    2.1702 H   0  0  0  0  0  0  0  0  0  0  0  0
    6.1471    1.0011    0.5572 H   0  0  0  0  0  0  0  0  0  0  0  0
    5.3280    0.3278    2.0016 H   0  0  0  0  0  0  0  0  0  0  0  0
    6.5025   -1.8742    1.6493 H   0  0  0  0  0  0  0  0  0  0  0  0
    7.5888   -0.5173    1.9876 H   0  0  0  0  0  0  0  0  0  0  0  0
  1  2  1  0
  2  3  2  0
  2  4  1  0
  4  5  1  0
  5  6  1  0
  6  7  1  0
  7  8  1  0
  8  9  1  0
  9 10  2  0
  9 11  1  0
 11 12  1  0
 12 13  1  0
 13 14  1  0
 14 15  2  0
 14 16  1  0
 16 17  1  0
 17 18  1  0
 18 19  1  0
 19 20  1  0
 19 21  1  0
 17 22  1  0
 22 23  2  0
 22 24  1  0
 24 25  1  0
 25 26  1  0
 26 27  1  0
 26 28  1  0
 25 29  1  0
 29 30  2  0
 29 31  1  0
 31 32  1  0
 32 33  1  0
 33 34  1  0
 33 35  1  0
 32 36  1  0
 36 37  1  0
 37 38  1  0
 38 39  2  0
 39 40  1  0
 40 41  2  0
 41 42  1  0
 42 43  2  0
 43 44  1  0
 44 45  2  0
 44 46  1  0
  8 47  1  0
 47 48  1  0
 48  4  1  0
 46 11  1  0
 43 38  1  0
  1 49  1  0
  1 50  1  0
  1 51  1  0
  5 52  1  0
  5 53  1  0
  6 54  1  0
  6 55  1  0
  7 56  1  0
  7 57  1  0
 11 58  1  0
 12 59  1  0
 12 60  1  0
 13 61  1  0
 13 62  1  0
 16 63  1  0
 17 64  1  0
 18 65  1  0
 18 66  1  0
 19 67  1  0
 20 68  1  0
 20 69  1  0
 20 70  1  0
 21 71  1  0
 21 72  1  0
 21 73  1  0
 24 74  1  0
 25 75  1  0
 26 76  1  0
 27 77  1  0
 27 78  1  0
 27 79  1  0
 28 80  1  0
 28 81  1  0
 28 82  1  0
 31 83  1  0
 32 84  1  0
 33 85  1  0
 34 86  1  0
 34 87  1  0
 34 88  1  0
 35 89  1  0
 35 90  1  0
 35 91  1  0
 36 92  1  0
 36 93  1  0
 39 94  1  0
 40 95  1  0
 41 96  1  0
 42 97  1  0
 46 98  1  0
 47 99  1  0
 47100  1  0
 48101  1  0
 48102  1  0
M  END
$$$$
