
     RDKit          3D

 58 61  0  0  0  0  0  0  0  0999 V2000
    6.0706   -0.3359   -1.7681 C   0  0  0  0  0  0  0  0  0  0  0  0
    4.7113   -0.5139   -2.2659 N   0  0  0  0  0  0  0  0  0  0  0  0
    4.3369   -0.2079   -3.4979 N   0  0  0  0  0  0  0  0  0  0  0  0
    3.0392   -0.5509   -3.6265 C   0  0  0  0  0  0  0  0  0  0  0  0
    2.5838   -1.0988   -2.4412 C   0  0  0  0  0  0  0  0  0  0  0  0
    3.6711   -1.0480   -1.5958 C   0  0  0  0  0  0  0  0  0  0  0  0
    3.7334   -1.5647   -0.2158 C   0  0  0  0  0  0  0  0  0  0  0  0
    4.5779   -2.4684    0.0364 O   0  0  0  0  0  0  0  0  0  0  0  0
    2.9020   -1.0382    0.8458 N   0  0  0  0  0  0  0  0  0  0  0  0
    3.2685   -1.3540    2.2312 C   0  0  0  0  0  0  0  0  0  0  0  0
    2.0734   -1.1824    3.1594 C   0  0  0  0  0  0  0  0  0  0  0  0
    1.4734    0.0890    2.9984 O   0  0  0  0  0  0  0  0  0  0  0  0
    0.9306    0.2730    1.6967 C   0  0  0  0  0  0  0  0  0  0  0  0
    0.3845    1.7343    1.6637 C   0  0  0  0  0  0  0  0  0  0  0  0
   -0.4374    2.1018    0.3996 C   0  0  0  0  0  0  0  0  0  0  0  0
   -1.8926    2.4682    0.7473 C   0  0  0  0  0  0  0  0  0  0  0  0
   -2.8067    2.4987   -0.4979 C   0  0  0  0  0  0  0  0  0  0  0  0
   -4.0548    1.6731   -0.2815 C   0  0  0  0  0  0  0  0  0  0  0  0
   -5.2948    2.3057   -0.0910 C   0  0  0  0  0  0  0  0  0  0  0  0
   -6.4462    1.5479    0.1363 C   0  0  0  0  0  0  0  0  0  0  0  0
   -6.3700    0.1549    0.1842 C   0  0  0  0  0  0  0  0  0  0  0  0
   -5.1419   -0.4874    0.0093 C   0  0  0  0  0  0  0  0  0  0  0  0
   -3.9740    0.2642   -0.2219 C   0  0  0  0  0  0  0  0  0  0  0  0
   -2.7213   -0.3453   -0.3884 O   0  0  0  0  0  0  0  0  0  0  0  0
   -2.4714   -1.7464   -0.3228 C   0  0  0  0  0  0  0  0  0  0  0  0
   -0.9888   -2.0053   -0.6003 C   0  0  0  0  0  0  0  0  0  0  0  0
   -0.1324   -1.8143    0.5747 N   0  0  0  0  0  0  0  0  0  0  0  0
   -0.2379   -0.6927    1.4671 C   0  0  0  0  0  0  0  0  0  0  0  0
   -1.2938   -0.5418    2.1362 O   0  0  0  0  0  0  0  0  0  0  0  0
    2.0549    0.1436    0.6234 C   0  0  0  0  0  0  0  0  0  0  0  0
    6.0476    0.1050   -0.7471 H   0  0  0  0  0  0  0  0  0  0  0  0
    6.6361    0.3474   -2.4350 H   0  0  0  0  0  0  0  0  0  0  0  0
    6.5854   -1.3206   -1.7375 H   0  0  0  0  0  0  0  0  0  0  0  0
    2.4624   -0.4201   -4.5339 H   0  0  0  0  0  0  0  0  0  0  0  0
    1.6017   -1.5013   -2.2394 H   0  0  0  0  0  0  0  0  0  0  0  0
    4.0900   -0.6801    2.5533 H   0  0  0  0  0  0  0  0  0  0  0  0
    3.6198   -2.4058    2.3172 H   0  0  0  0  0  0  0  0  0  0  0  0
    1.3397   -2.0058    3.0183 H   0  0  0  0  0  0  0  0  0  0  0  0
    2.4360   -1.2635    4.2069 H   0  0  0  0  0  0  0  0  0  0  0  0
   -0.2220    1.9049    2.5820 H   0  0  0  0  0  0  0  0  0  0  0  0
    1.2338    2.4473    1.7566 H   0  0  0  0  0  0  0  0  0  0  0  0
    0.0345    2.9697   -0.1098 H   0  0  0  0  0  0  0  0  0  0  0  0
   -0.4302    1.2645   -0.3279 H   0  0  0  0  0  0  0  0  0  0  0  0
   -2.2827    1.7430    1.4947 H   0  0  0  0  0  0  0  0  0  0  0  0
   -1.9076    3.4652    1.2402 H   0  0  0  0  0  0  0  0  0  0  0  0
   -3.0709    3.5539   -0.7291 H   0  0  0  0  0  0  0  0  0  0  0  0
   -2.2861    2.1119   -1.4012 H   0  0  0  0  0  0  0  0  0  0  0  0
   -5.3708    3.3860   -0.1176 H   0  0  0  0  0  0  0  0  0  0  0  0
   -7.3994    2.0419    0.2789 H   0  0  0  0  0  0  0  0  0  0  0  0
   -7.2642   -0.4295    0.3630 H   0  0  0  0  0  0  0  0  0  0  0  0
   -5.1100   -1.5676    0.0600 H   0  0  0  0  0  0  0  0  0  0  0  0
   -2.7594   -2.1511    0.6725 H   0  0  0  0  0  0  0  0  0  0  0  0
   -3.0734   -2.2601   -1.1035 H   0  0  0  0  0  0  0  0  0  0  0  0
   -0.8737   -3.0536   -0.9520 H   0  0  0  0  0  0  0  0  0  0  0  0
   -0.6442   -1.3400   -1.4198 H   0  0  0  0  0  0  0  0  0  0  0  0
    0.7585   -2.3519    0.5760 H   0  0  0  0  0  0  0  0  0  0  0  0
    2.7134    1.0386    0.6539 H   0  0  0  0  0  0  0  0  0  0  0  0
    1.5883    0.1136   -0.3779 H   0  0  0  0  0  0  0  0  0  0  0  0
  1  2  1  0
  2  3  1  0
  3  4  2  0
  4  5  1  0
  5  6  2  0
  6  7  1  0
  7  8  2  0
  7  9  1  0
  9 10  1  0
 10 11  1  0
 11 12  1  0
 12 13  1  0
 13 14  1  0
 14 15  1  0
 15 16  1  0
 16 17  1  0
 17 18  1  0
 18 19  2  0
 19 20  1  0
 20 21  2  0
 21 22  1  0
 22 23  2  0
 23 24  1  0
 24 25  1  0
 25 26  1  0
 26 27  1  0
 27 28  1  0
 28 29  2  0
 13 30  1  0
  6  2  1  0
 30  9  1  0
 28 13  1  0
 23 18  1  0
  1 31  1  0
  1 32  1  0
  1 33  1  0
  4 34  1  0
  5 35  1  0
 10 36  1  0
 10 37  1  0
 11 38  1  0
 11 39  1  0
 14 40  1  0
 14 41  1  0
 15 42  1  0
 15 43  1  0
 16 44  1  0
 16 45  1  0
 17 46  1  0
 17 47  1  0
 19 48  1  0
 20 49  1  0
 21 50  1  0
 22 51  1  0
 25 52  1  0
 25 53  1  0
 26 54  1  0
 26 55  1  0
 27 56  1  0
 30 57  1  0
 30 58  1  0
M  END
$$$$
