
     RDKit          3D

 89 92  0  0  0  0  0  0  0  0999 V2000
    8.1775   -2.2236    3.4681 C   0  0  0  0  0  0  0  0  0  0  0  0
    8.0733   -1.5654    2.1305 C   0  0  0  0  0  0  0  0  0  0  0  0
    9.2200   -1.0957    1.4807 C   0  0  0  0  0  0  0  0  0  0  0  0
    9.0858   -0.4803    0.2212 C   0  0  0  0  0  0  0  0  0  0  0  0
   10.2309    0.0309   -0.5040 N   0  0  0  0  0  0  0  0  0  0  0  0
   10.0236    0.6088   -1.8385 C   0  0  0  0  0  0  0  0  0  0  0  0
   11.5865   -0.0280    0.0636 C   0  0  0  0  0  0  0  0  0  0  0  0
    7.8410   -0.3604   -0.3199 N   0  0  0  0  0  0  0  0  0  0  0  0
    6.7322   -0.8191    0.3205 C   0  0  0  0  0  0  0  0  0  0  0  0
    5.3863   -0.7072   -0.3393 C   0  0  0  0  0  0  0  0  0  0  0  0
    4.3509   -0.0898    0.6213 C   0  0  0  0  0  0  0  0  0  0  0  0
    2.9767    0.0015   -0.0505 C   0  0  0  0  0  0  0  0  0  0  0  0
    2.5874   -1.3125   -0.5815 N   0  0  0  0  0  0  0  0  0  0  0  0
    1.2567   -1.8477   -0.4129 C   0  0  0  0  0  0  0  0  0  0  0  0
    1.0850   -3.0984   -0.4449 O   0  0  0  0  0  0  0  0  0  0  0  0
    0.0470   -0.9646   -0.2226 C   0  0  0  0  0  0  0  0  0  0  0  0
   -0.1637   -0.0331   -1.4314 C   0  0  0  0  0  0  0  0  0  0  0  0
   -1.5497    0.5826   -1.4791 C   0  0  0  0  0  0  0  0  0  0  0  0
   -2.2133    0.7078   -2.7084 C   0  0  0  0  0  0  0  0  0  0  0  0
   -3.4588    1.3325   -2.7831 C   0  0  0  0  0  0  0  0  0  0  0  0
   -4.0812    1.8214   -1.6296 C   0  0  0  0  0  0  0  0  0  0  0  0
   -3.4184    1.7247   -0.3843 C   0  0  0  0  0  0  0  0  0  0  0  0
   -2.1446    1.1303   -0.3278 C   0  0  0  0  0  0  0  0  0  0  0  0
   -4.0282    2.2830    0.8812 C   0  0  0  0  0  0  0  0  0  0  0  0
   -5.1886    1.4783    1.3356 N   0  0  0  0  0  0  0  0  0  0  0  0
   -6.0310    2.2569    2.2996 C   0  0  0  0  0  0  0  0  0  0  0  0
   -7.5028    1.8176    2.2559 C   0  0  0  0  0  0  0  0  0  0  0  0
   -5.4980    2.2630    3.7477 C   0  0  0  0  0  0  0  0  0  0  0  0
   -4.7677    0.1279    1.8000 C   0  0  0  0  0  0  0  0  0  0  0  0
   -5.9267   -0.8277    1.8551 C   0  0  0  0  0  0  0  0  0  0  0  0
   -6.2149   -1.3782    2.9507 O   0  0  0  0  0  0  0  0  0  0  0  0
   -6.7347   -1.0966    0.6991 N   0  0  0  0  0  0  0  0  0  0  0  0
   -6.1434   -1.5997   -0.5408 C   0  0  0  0  0  0  0  0  0  0  0  0
   -7.0845   -1.3570   -1.7502 C   0  0  0  0  0  0  0  0  0  0  0  0
   -6.4621   -0.4699   -2.8602 C   0  0  0  0  0  0  0  0  0  0  0  0
   -6.9603    0.9868   -2.8473 C   0  0  0  0  0  0  0  0  0  0  0  0
   -6.5683    1.7834   -1.5941 C   0  0  0  0  0  0  0  0  0  0  0  0
   -5.3222    2.4593   -1.7446 O   0  0  0  0  0  0  0  0  0  0  0  0
    3.5381   -1.9826   -1.4801 C   0  0  0  0  0  0  0  0  0  0  0  0
    4.9124   -2.0864   -0.8195 C   0  0  0  0  0  0  0  0  0  0  0  0
    6.8604   -1.4283    1.5342 N   0  0  0  0  0  0  0  0  0  0  0  0
    8.7579   -3.1679    3.3851 H   0  0  0  0  0  0  0  0  0  0  0  0
    8.6862   -1.5423    4.1840 H   0  0  0  0  0  0  0  0  0  0  0  0
    7.1618   -2.4654    3.8630 H   0  0  0  0  0  0  0  0  0  0  0  0
   10.1870   -1.2268    1.9472 H   0  0  0  0  0  0  0  0  0  0  0  0
    9.3078    1.4619   -1.7726 H   0  0  0  0  0  0  0  0  0  0  0  0
   10.9682    0.9914   -2.2752 H   0  0  0  0  0  0  0  0  0  0  0  0
    9.6151   -0.1685   -2.5214 H   0  0  0  0  0  0  0  0  0  0  0  0
   11.8772   -1.0887    0.2327 H   0  0  0  0  0  0  0  0  0  0  0  0
   12.3373    0.4203   -0.6199 H   0  0  0  0  0  0  0  0  0  0  0  0
   11.6162    0.5241    1.0285 H   0  0  0  0  0  0  0  0  0  0  0  0
    5.4850   -0.0379   -1.2271 H   0  0  0  0  0  0  0  0  0  0  0  0
    4.2558   -0.7092    1.5411 H   0  0  0  0  0  0  0  0  0  0  0  0
    4.6850    0.9249    0.9230 H   0  0  0  0  0  0  0  0  0  0  0  0
    2.2538    0.3658    0.7066 H   0  0  0  0  0  0  0  0  0  0  0  0
    3.0096    0.7380   -0.8812 H   0  0  0  0  0  0  0  0  0  0  0  0
   -0.8510   -1.6087   -0.1058 H   0  0  0  0  0  0  0  0  0  0  0  0
    0.1467   -0.3846    0.7164 H   0  0  0  0  0  0  0  0  0  0  0  0
    0.0047   -0.6304   -2.3565 H   0  0  0  0  0  0  0  0  0  0  0  0
    0.5849    0.7854   -1.4139 H   0  0  0  0  0  0  0  0  0  0  0  0
   -1.7591    0.3344   -3.6149 H   0  0  0  0  0  0  0  0  0  0  0  0
   -3.9470    1.4359   -3.7392 H   0  0  0  0  0  0  0  0  0  0  0  0
   -1.6215    1.0841    0.6151 H   0  0  0  0  0  0  0  0  0  0  0  0
   -4.3260    3.3238    0.6510 H   0  0  0  0  0  0  0  0  0  0  0  0
   -3.2672    2.3523    1.6887 H   0  0  0  0  0  0  0  0  0  0  0  0
   -6.0565    3.3244    1.9810 H   0  0  0  0  0  0  0  0  0  0  0  0
   -8.1383    2.6062    2.7219 H   0  0  0  0  0  0  0  0  0  0  0  0
   -7.6712    0.8764    2.8181 H   0  0  0  0  0  0  0  0  0  0  0  0
   -7.8403    1.6808    1.2040 H   0  0  0  0  0  0  0  0  0  0  0  0
   -6.0548    3.0150    4.3464 H   0  0  0  0  0  0  0  0  0  0  0  0
   -4.4252    2.5495    3.7693 H   0  0  0  0  0  0  0  0  0  0  0  0
   -5.6398    1.2746    4.2349 H   0  0  0  0  0  0  0  0  0  0  0  0
   -4.2559    0.1819    2.7864 H   0  0  0  0  0  0  0  0  0  0  0  0
   -4.0254   -0.3155    1.1028 H   0  0  0  0  0  0  0  0  0  0  0  0
   -7.7317   -1.3747    0.8870 H   0  0  0  0  0  0  0  0  0  0  0  0
   -5.9891   -2.7016   -0.4178 H   0  0  0  0  0  0  0  0  0  0  0  0
   -5.1361   -1.1482   -0.6990 H   0  0  0  0  0  0  0  0  0  0  0  0
   -8.0598   -0.9354   -1.4201 H   0  0  0  0  0  0  0  0  0  0  0  0
   -7.3230   -2.3479   -2.2007 H   0  0  0  0  0  0  0  0  0  0  0  0
   -5.3517   -0.5124   -2.8436 H   0  0  0  0  0  0  0  0  0  0  0  0
   -6.7436   -0.9062   -3.8403 H   0  0  0  0  0  0  0  0  0  0  0  0
   -6.5826    1.5118   -3.7509 H   0  0  0  0  0  0  0  0  0  0  0  0
   -8.0650    0.9774   -2.9276 H   0  0  0  0  0  0  0  0  0  0  0  0
   -7.3420    2.5552   -1.4155 H   0  0  0  0  0  0  0  0  0  0  0  0
   -6.5543    1.1296   -0.7079 H   0  0  0  0  0  0  0  0  0  0  0  0
    3.1920   -2.9991   -1.7525 H   0  0  0  0  0  0  0  0  0  0  0  0
    3.6249   -1.4024   -2.4195 H   0  0  0  0  0  0  0  0  0  0  0  0
    4.8468   -2.7934    0.0381 H   0  0  0  0  0  0  0  0  0  0  0  0
    5.6455   -2.5021   -1.5428 H   0  0  0  0  0  0  0  0  0  0  0  0
  1  2  1  0
  2  3  2  0
  3  4  1  0
  4  5  1  0
  5  6  1  0
  5  7  1  0
  4  8  2  0
  8  9  1  0
  9 10  1  0
 10 11  1  0
 11 12  1  0
 12 13  1  0
 13 14  1  0
 14 15  2  0
 14 16  1  0
 16 17  1  0
 17 18  1  0
 18 19  2  0
 19 20  1  0
 20 21  2  0
 21 22  1  0
 22 23  2  0
 22 24  1  0
 24 25  1  0
 25 26  1  0
 26 27  1  0
 26 28  1  0
 25 29  1  0
 29 30  1  0
 30 31  2  0
 30 32  1  0
 32 33  1  0
 33 34  1  0
 34 35  1  0
 35 36  1  0
 36 37  1  0
 37 38  1  0
 13 39  1  0
 39 40  1  0
  9 41  2  0
 41  2  1  0
 40 10  1  0
 23 18  1  0
 38 21  1  0
  1 42  1  0
  1 43  1  0
  1 44  1  0
  3 45  1  0
  6 46  1  0
  6 47  1  0
  6 48  1  0
  7 49  1  0
  7 50  1  0
  7 51  1  0
 10 52  1  0
 11 53  1  0
 11 54  1  0
 12 55  1  0
 12 56  1  0
 16 57  1  0
 16 58  1  0
 17 59  1  0
 17 60  1  0
 19 61  1  0
 20 62  1  0
 23 63  1  0
 24 64  1  0
 24 65  1  0
 26 66  1  0
 27 67  1  0
 27 68  1  0
 27 69  1  0
 28 70  1  0
 28 71  1  0
 28 72  1  0
 29 73  1  0
 29 74  1  0
 32 75  1  0
 33 76  1  0
 33 77  1  0
 34 78  1  0
 34 79  1  0
 35 80  1  0
 35 81  1  0
 36 82  1  0
 36 83  1  0
 37 84  1  0
 37 85  1  0
 39 86  1  0
 39 87  1  0
 40 88  1  0
 40 89  1  0
M  END
$$$$
