
     RDKit          3D

 58 60  0  0  0  0  0  0  0  0999 V2000
   -3.3186   -2.7585    1.2662 C   0  0  0  0  0  0  0  0  0  0  0  0
   -3.3240   -1.6925    0.2548 N   0  0  0  0  0  0  0  0  0  0  0  0
   -2.6131   -1.9191   -1.0196 C   0  0  0  0  0  0  0  0  0  0  0  0
   -1.1155   -2.2231   -0.8288 C   0  0  0  0  0  0  0  0  0  0  0  0
   -0.3584   -1.1175   -0.0748 C   0  0  0  0  0  0  0  0  0  0  0  0
   -0.0549    0.0944   -0.9695 C   0  0  0  0  0  0  0  0  0  0  0  0
    0.7662    1.0795   -0.2463 N   0  0  0  0  0  0  0  0  0  0  0  0
    2.1748    0.8589   -0.0025 C   0  0  0  0  0  0  0  0  0  0  0  0
    2.7570    1.5312    0.8929 O   0  0  0  0  0  0  0  0  0  0  0  0
    2.9791   -0.0913   -0.8652 C   0  0  0  0  0  0  0  0  0  0  0  0
    4.4255   -0.3035   -0.3871 C   0  0  0  0  0  0  0  0  0  0  0  0
    4.4989   -1.1301    0.9031 C   0  0  0  0  0  0  0  0  0  0  0  0
    5.8920   -1.3143    1.2967 N   0  0  0  0  0  0  0  0  0  0  0  0
    6.6650   -2.3852    1.0531 C   0  0  0  0  0  0  0  0  0  0  0  0
    7.9233   -2.1841    1.4907 N   0  0  0  0  0  0  0  0  0  0  0  0
    7.8590   -0.9334    2.0007 C   0  0  0  0  0  0  0  0  0  0  0  0
    6.6316   -0.3903    1.8822 N   0  0  0  0  0  0  0  0  0  0  0  0
    0.1353    2.3119    0.2484 C   0  0  0  0  0  0  0  0  0  0  0  0
   -0.3661    2.1326    1.6945 C   0  0  0  0  0  0  0  0  0  0  0  0
   -1.8577    2.4421    1.8644 C   0  0  0  0  0  0  0  0  0  0  0  0
   -2.6651    1.4689    1.1942 O   0  0  0  0  0  0  0  0  0  0  0  0
   -3.4074    1.6493    0.0101 C   0  0  0  0  0  0  0  0  0  0  0  0
   -3.3770    2.8435   -0.7426 C   0  0  0  0  0  0  0  0  0  0  0  0
   -4.1461    2.9705   -1.9027 C   0  0  0  0  0  0  0  0  0  0  0  0
   -4.9588    1.9182   -2.3263 C   0  0  0  0  0  0  0  0  0  0  0  0
   -5.9317    2.0901   -3.7766 Cl  0  0  0  0  0  0  0  0  0  0  0  0
   -5.0041    0.7334   -1.5894 C   0  0  0  0  0  0  0  0  0  0  0  0
   -4.2263    0.5909   -0.4314 C   0  0  0  0  0  0  0  0  0  0  0  0
   -4.3254   -0.6538    0.3486 C   0  0  0  0  0  0  0  0  0  0  0  0
   -5.3127   -0.7927    1.1203 O   0  0  0  0  0  0  0  0  0  0  0  0
   -3.8502   -3.6513    0.8746 H   0  0  0  0  0  0  0  0  0  0  0  0
   -3.8094   -2.4276    2.2060 H   0  0  0  0  0  0  0  0  0  0  0  0
   -2.2815   -3.0353    1.5407 H   0  0  0  0  0  0  0  0  0  0  0  0
   -3.0869   -2.7768   -1.5441 H   0  0  0  0  0  0  0  0  0  0  0  0
   -2.7072   -1.0475   -1.6993 H   0  0  0  0  0  0  0  0  0  0  0  0
   -0.6510   -2.3779   -1.8270 H   0  0  0  0  0  0  0  0  0  0  0  0
   -0.9954   -3.1856   -0.2892 H   0  0  0  0  0  0  0  0  0  0  0  0
   -0.9376   -0.7929    0.8144 H   0  0  0  0  0  0  0  0  0  0  0  0
    0.5934   -1.5455    0.3022 H   0  0  0  0  0  0  0  0  0  0  0  0
    0.4627   -0.2200   -1.9004 H   0  0  0  0  0  0  0  0  0  0  0  0
   -1.0152    0.5520   -1.2873 H   0  0  0  0  0  0  0  0  0  0  0  0
    3.0123    0.3327   -1.8913 H   0  0  0  0  0  0  0  0  0  0  0  0
    2.4796   -1.0787   -0.9306 H   0  0  0  0  0  0  0  0  0  0  0  0
    4.9811   -0.8450   -1.1836 H   0  0  0  0  0  0  0  0  0  0  0  0
    4.9275    0.6785   -0.2417 H   0  0  0  0  0  0  0  0  0  0  0  0
    4.0180   -2.1207    0.7446 H   0  0  0  0  0  0  0  0  0  0  0  0
    3.9569   -0.6161    1.7241 H   0  0  0  0  0  0  0  0  0  0  0  0
    6.3283   -3.2901    0.5622 H   0  0  0  0  0  0  0  0  0  0  0  0
    8.7021   -0.4212    2.4453 H   0  0  0  0  0  0  0  0  0  0  0  0
   -0.6774    2.6188   -0.4359 H   0  0  0  0  0  0  0  0  0  0  0  0
    0.8647    3.1507    0.2089 H   0  0  0  0  0  0  0  0  0  0  0  0
   -0.1707    1.1013    2.0588 H   0  0  0  0  0  0  0  0  0  0  0  0
    0.2088    2.8135    2.3587 H   0  0  0  0  0  0  0  0  0  0  0  0
   -2.0913    2.3778    2.9480 H   0  0  0  0  0  0  0  0  0  0  0  0
   -2.0897    3.4825    1.5664 H   0  0  0  0  0  0  0  0  0  0  0  0
   -2.7660    3.6854   -0.4573 H   0  0  0  0  0  0  0  0  0  0  0  0
   -4.1106    3.8919   -2.4702 H   0  0  0  0  0  0  0  0  0  0  0  0
   -5.6404   -0.0789   -1.9191 H   0  0  0  0  0  0  0  0  0  0  0  0
  1  2  1  0
  2  3  1  0
  3  4  1  0
  4  5  1  0
  5  6  1  0
  6  7  1  0
  7  8  1  0
  8  9  2  0
  8 10  1  0
 10 11  1  0
 11 12  1  0
 12 13  1  0
 13 14  1  0
 14 15  2  0
 15 16  1  0
 16 17  2  0
  7 18  1  0
 18 19  1  0
 19 20  1  0
 20 21  1  0
 21 22  1  0
 22 23  2  0
 23 24  1  0
 24 25  2  0
 25 26  1  0
 25 27  1  0
 27 28  2  0
 28 29  1  0
 29 30  2  0
 29  2  1  0
 17 13  1  0
 28 22  1  0
  1 31  1  0
  1 32  1  0
  1 33  1  0
  3 34  1  0
  3 35  1  0
  4 36  1  0
  4 37  1  0
  5 38  1  0
  5 39  1  0
  6 40  1  0
  6 41  1  0
 10 42  1  0
 10 43  1  0
 11 44  1  0
 11 45  1  0
 12 46  1  0
 12 47  1  0
 14 48  1  0
 16 49  1  0
 18 50  1  0
 18 51  1  0
 19 52  1  0
 19 53  1  0
 20 54  1  0
 20 55  1  0
 23 56  1  0
 24 57  1  0
 27 58  1  0
M  END
$$$$
