
     RDKit          3D

 57 60  0  0  0  0  0  0  0  0999 V2000
   -0.2092   -3.5743   -0.2967 C   0  0  0  0  0  0  0  0  0  0  0  0
   -0.5541   -2.2078    0.1007 N   0  0  0  0  0  0  0  0  0  0  0  0
   -1.4314   -1.9851    1.2581 C   0  0  0  0  0  0  0  0  0  0  0  0
   -2.8996   -1.9112    0.8340 C   0  0  0  0  0  0  0  0  0  0  0  0
   -3.0560   -0.8615   -0.1140 O   0  0  0  0  0  0  0  0  0  0  0  0
   -4.1525    0.0058   -0.1858 C   0  0  0  0  0  0  0  0  0  0  0  0
   -5.4313   -0.3814    0.2509 C   0  0  0  0  0  0  0  0  0  0  0  0
   -6.4986    0.5175    0.1841 C   0  0  0  0  0  0  0  0  0  0  0  0
   -6.2982    1.8061   -0.3139 C   0  0  0  0  0  0  0  0  0  0  0  0
   -5.0317    2.1996   -0.7540 C   0  0  0  0  0  0  0  0  0  0  0  0
   -3.9526    1.3012   -0.7041 C   0  0  0  0  0  0  0  0  0  0  0  0
   -2.5766    1.7376   -1.1531 C   0  0  0  0  0  0  0  0  0  0  0  0
   -1.6328    1.8984    0.0507 C   0  0  0  0  0  0  0  0  0  0  0  0
   -0.2083    2.3078   -0.3447 C   0  0  0  0  0  0  0  0  0  0  0  0
    0.5935    1.2612   -1.1528 C   0  0  0  0  0  0  0  0  0  0  0  0
    0.8720   -0.1202   -0.4573 C   0  0  0  0  0  0  0  0  0  0  0  0
    2.2177   -0.6790   -1.0341 C   0  0  0  0  0  0  0  0  0  0  0  0
    3.3505   -0.1333   -0.2792 N   0  0  0  0  0  0  0  0  0  0  0  0
    4.4001    0.5991   -0.9437 C   0  0  0  0  0  0  0  0  0  0  0  0
    4.1500    1.2248   -2.0097 O   0  0  0  0  0  0  0  0  0  0  0  0
    5.7686    0.6615   -0.4041 C   0  0  0  0  0  0  0  0  0  0  0  0
    6.4357   -0.3033    0.3177 C   0  0  0  0  0  0  0  0  0  0  0  0
    7.6778    0.1399    0.5872 N   0  0  0  0  0  0  0  0  0  0  0  0
    7.7117    1.3624    0.0185 C   0  0  0  0  0  0  0  0  0  0  0  0
    6.5831    1.6708   -0.5791 O   0  0  0  0  0  0  0  0  0  0  0  0
    3.2900   -0.1990    1.1849 C   0  0  0  0  0  0  0  0  0  0  0  0
    1.8974   -0.6466    1.6343 C   0  0  0  0  0  0  0  0  0  0  0  0
    0.9042    0.0998    0.9576 O   0  0  0  0  0  0  0  0  0  0  0  0
   -0.2192   -1.1328   -0.7975 C   0  0  0  0  0  0  0  0  0  0  0  0
   -0.6959   -1.1589   -1.9654 O   0  0  0  0  0  0  0  0  0  0  0  0
   -0.6048   -3.7875   -1.3116 H   0  0  0  0  0  0  0  0  0  0  0  0
   -0.6375   -4.3204    0.4042 H   0  0  0  0  0  0  0  0  0  0  0  0
    0.8932   -3.6927   -0.3003 H   0  0  0  0  0  0  0  0  0  0  0  0
   -1.3086   -2.8046    1.9989 H   0  0  0  0  0  0  0  0  0  0  0  0
   -1.1526   -1.0491    1.7825 H   0  0  0  0  0  0  0  0  0  0  0  0
   -3.5065   -1.7107    1.7450 H   0  0  0  0  0  0  0  0  0  0  0  0
   -3.2233   -2.8728    0.3823 H   0  0  0  0  0  0  0  0  0  0  0  0
   -5.6065   -1.3782    0.6321 H   0  0  0  0  0  0  0  0  0  0  0  0
   -7.4819    0.2154    0.5215 H   0  0  0  0  0  0  0  0  0  0  0  0
   -7.1256    2.5017   -0.3578 H   0  0  0  0  0  0  0  0  0  0  0  0
   -4.8930    3.2050   -1.1306 H   0  0  0  0  0  0  0  0  0  0  0  0
   -2.1811    0.9816   -1.8600 H   0  0  0  0  0  0  0  0  0  0  0  0
   -2.6333    2.7007   -1.7062 H   0  0  0  0  0  0  0  0  0  0  0  0
   -1.5891    0.9743    0.6544 H   0  0  0  0  0  0  0  0  0  0  0  0
   -2.0467    2.6915    0.7119 H   0  0  0  0  0  0  0  0  0  0  0  0
    0.3569    2.5623    0.5771 H   0  0  0  0  0  0  0  0  0  0  0  0
   -0.2650    3.2423   -0.9428 H   0  0  0  0  0  0  0  0  0  0  0  0
    1.5680    1.7557   -1.3564 H   0  0  0  0  0  0  0  0  0  0  0  0
    0.1366    1.1313   -2.1559 H   0  0  0  0  0  0  0  0  0  0  0  0
    2.3062   -0.4678   -2.1234 H   0  0  0  0  0  0  0  0  0  0  0  0
    2.2549   -1.7867   -0.9402 H   0  0  0  0  0  0  0  0  0  0  0  0
    6.0703   -1.2839    0.5891 H   0  0  0  0  0  0  0  0  0  0  0  0
    8.5753    2.0119    0.0485 H   0  0  0  0  0  0  0  0  0  0  0  0
    4.0378   -0.9183    1.5727 H   0  0  0  0  0  0  0  0  0  0  0  0
    3.4978    0.8076    1.6099 H   0  0  0  0  0  0  0  0  0  0  0  0
    1.7601   -1.7383    1.4650 H   0  0  0  0  0  0  0  0  0  0  0  0
    1.7941   -0.4697    2.7259 H   0  0  0  0  0  0  0  0  0  0  0  0
  1  2  1  0
  2  3  1  0
  3  4  1  0
  4  5  1  0
  5  6  1  0
  6  7  2  0
  7  8  1  0
  8  9  2  0
  9 10  1  0
 10 11  2  0
 11 12  1  0
 12 13  1  0
 13 14  1  0
 14 15  1  0
 15 16  1  0
 16 17  1  0
 17 18  1  0
 18 19  1  0
 19 20  2  0
 19 21  1  0
 21 22  2  0
 22 23  1  0
 23 24  2  0
 24 25  1  0
 18 26  1  0
 26 27  1  0
 27 28  1  0
 16 29  1  0
 29 30  2  0
 29  2  1  0
 11  6  1  0
 28 16  1  0
 25 21  1  0
  1 31  1  0
  1 32  1  0
  1 33  1  0
  3 34  1  0
  3 35  1  0
  4 36  1  0
  4 37  1  0
  7 38  1  0
  8 39  1  0
  9 40  1  0
 10 41  1  0
 12 42  1  0
 12 43  1  0
 13 44  1  0
 13 45  1  0
 14 46  1  0
 14 47  1  0
 15 48  1  0
 15 49  1  0
 17 50  1  0
 17 51  1  0
 22 52  1  0
 24 53  1  0
 26 54  1  0
 26 55  1  0
 27 56  1  0
 27 57  1  0
M  END
$$$$
