
     RDKit          3D

 87 91  0  0  0  0  0  0  0  0999 V2000
   -6.3414    3.7609   -1.5962 C   0  0  0  0  0  0  0  0  0  0  0  0
   -5.6514    3.3048   -0.2989 C   0  0  0  0  0  0  0  0  0  0  0  0
   -5.0697    4.5334    0.4155 C   0  0  0  0  0  0  0  0  0  0  0  0
   -4.5489    2.2522   -0.5862 C   0  0  0  0  0  0  0  0  0  0  0  0
   -3.8097    1.9384    0.6398 N   0  0  0  0  0  0  0  0  0  0  0  0
   -2.3924    2.0879    0.8455 C   0  0  0  0  0  0  0  0  0  0  0  0
   -1.9566    2.0272    2.0269 O   0  0  0  0  0  0  0  0  0  0  0  0
   -1.3827    2.2661   -0.2678 C   0  0  0  0  0  0  0  0  0  0  0  0
   -0.5683    0.9811   -0.4944 C   0  0  0  0  0  0  0  0  0  0  0  0
    0.6981    1.2794   -1.2511 C   0  0  0  0  0  0  0  0  0  0  0  0
    0.6638    1.4089   -2.5049 O   0  0  0  0  0  0  0  0  0  0  0  0
    1.9345    1.4462   -0.5468 N   0  0  0  0  0  0  0  0  0  0  0  0
    3.2292    1.1423   -1.1598 C   0  0  0  0  0  0  0  0  0  0  0  0
    3.8775   -0.0779   -0.5409 C   0  0  0  0  0  0  0  0  0  0  0  0
    3.1469   -1.0112    0.2190 C   0  0  0  0  0  0  0  0  0  0  0  0
    3.7803   -2.1293    0.7685 C   0  0  0  0  0  0  0  0  0  0  0  0
    5.1390   -2.3493    0.5448 C   0  0  0  0  0  0  0  0  0  0  0  0
    5.8840   -1.4387   -0.2201 C   0  0  0  0  0  0  0  0  0  0  0  0
    7.3433   -1.7032   -0.4956 C   0  0  0  0  0  0  0  0  0  0  0  0
    8.1399   -0.4562   -0.4199 N   0  0  0  0  0  0  0  0  0  0  0  0
    8.3009    0.0365    0.9721 C   0  0  0  0  0  0  0  0  0  0  0  0
    9.6128   -0.4415    1.6244 C   0  0  0  0  0  0  0  0  0  0  0  0
   10.0271   -1.6732    1.0705 O   0  0  0  0  0  0  0  0  0  0  0  0
   10.4238   -1.4918   -0.2790 C   0  0  0  0  0  0  0  0  0  0  0  0
    9.4493   -0.5984   -1.0890 C   0  0  0  0  0  0  0  0  0  0  0  0
    5.2413   -0.3187   -0.7791 C   0  0  0  0  0  0  0  0  0  0  0  0
   -1.3485   -0.0157   -1.2366 N   0  0  0  0  0  0  0  0  0  0  0  0
   -1.1366   -1.4124   -1.0070 C   0  0  0  0  0  0  0  0  0  0  0  0
   -0.8915   -2.1756   -1.9782 O   0  0  0  0  0  0  0  0  0  0  0  0
   -1.1904   -1.9590    0.3598 C   0  0  0  0  0  0  0  0  0  0  0  0
   -0.1183   -2.7190    0.8561 C   0  0  0  0  0  0  0  0  0  0  0  0
   -0.1357   -3.1779    2.1748 C   0  0  0  0  0  0  0  0  0  0  0  0
   -1.2268   -2.8926    3.0007 C   0  0  0  0  0  0  0  0  0  0  0  0
   -2.3219   -2.1793    2.4993 C   0  0  0  0  0  0  0  0  0  0  0  0
   -2.3278   -1.7429    1.1614 C   0  0  0  0  0  0  0  0  0  0  0  0
   -3.4649   -1.1619    0.5815 O   0  0  0  0  0  0  0  0  0  0  0  0
   -4.7936   -1.4084    1.0382 C   0  0  0  0  0  0  0  0  0  0  0  0
   -5.7821   -1.2436   -0.1223 C   0  0  0  0  0  0  0  0  0  0  0  0
   -7.1424   -1.8428    0.2241 C   0  0  0  0  0  0  0  0  0  0  0  0
   -8.1474   -0.9490   -0.4853 C   0  0  0  0  0  0  0  0  0  0  0  0
   -7.4802    0.4133   -0.5457 C   0  0  0  0  0  0  0  0  0  0  0  0
   -6.0437    0.1599   -0.4280 N   0  0  0  0  0  0  0  0  0  0  0  0
   -5.0956    0.9628   -1.1543 C   0  0  0  0  0  0  0  0  0  0  0  0
   -4.6603    0.5490   -2.2640 O   0  0  0  0  0  0  0  0  0  0  0  0
   -7.1788    4.4533   -1.3545 H   0  0  0  0  0  0  0  0  0  0  0  0
   -6.7659    2.9006   -2.1557 H   0  0  0  0  0  0  0  0  0  0  0  0
   -5.6298    4.2922   -2.2671 H   0  0  0  0  0  0  0  0  0  0  0  0
   -6.4213    2.8682    0.3731 H   0  0  0  0  0  0  0  0  0  0  0  0
   -4.6780    4.2579    1.4189 H   0  0  0  0  0  0  0  0  0  0  0  0
   -4.2420    4.9807   -0.1799 H   0  0  0  0  0  0  0  0  0  0  0  0
   -5.8617    5.2991    0.5711 H   0  0  0  0  0  0  0  0  0  0  0  0
   -3.8826    2.7042   -1.3456 H   0  0  0  0  0  0  0  0  0  0  0  0
   -4.3709    1.6363    1.4694 H   0  0  0  0  0  0  0  0  0  0  0  0
   -0.6935    3.0801    0.0528 H   0  0  0  0  0  0  0  0  0  0  0  0
   -1.8121    2.6025   -1.2285 H   0  0  0  0  0  0  0  0  0  0  0  0
   -0.2777    0.5702    0.4998 H   0  0  0  0  0  0  0  0  0  0  0  0
    1.9050    1.6696    0.4735 H   0  0  0  0  0  0  0  0  0  0  0  0
    3.1198    0.9716   -2.2524 H   0  0  0  0  0  0  0  0  0  0  0  0
    3.8929    2.0217   -1.0201 H   0  0  0  0  0  0  0  0  0  0  0  0
    2.0863   -0.8875    0.3837 H   0  0  0  0  0  0  0  0  0  0  0  0
    3.2117   -2.8348    1.3569 H   0  0  0  0  0  0  0  0  0  0  0  0
    5.6083   -3.2325    0.9642 H   0  0  0  0  0  0  0  0  0  0  0  0
    7.3981   -2.1341   -1.5208 H   0  0  0  0  0  0  0  0  0  0  0  0
    7.7421   -2.4672    0.2123 H   0  0  0  0  0  0  0  0  0  0  0  0
    7.4401   -0.2685    1.6075 H   0  0  0  0  0  0  0  0  0  0  0  0
    8.2962    1.1484    0.9541 H   0  0  0  0  0  0  0  0  0  0  0  0
    9.4491   -0.5802    2.7135 H   0  0  0  0  0  0  0  0  0  0  0  0
   10.4091    0.3333    1.5077 H   0  0  0  0  0  0  0  0  0  0  0  0
   10.4677   -2.4934   -0.7631 H   0  0  0  0  0  0  0  0  0  0  0  0
   11.4539   -1.0723   -0.3160 H   0  0  0  0  0  0  0  0  0  0  0  0
    9.9063    0.4126   -1.2023 H   0  0  0  0  0  0  0  0  0  0  0  0
    9.3279   -0.9977   -2.1171 H   0  0  0  0  0  0  0  0  0  0  0  0
    5.8016    0.3676   -1.4050 H   0  0  0  0  0  0  0  0  0  0  0  0
   -1.7590    0.2650   -2.1573 H   0  0  0  0  0  0  0  0  0  0  0  0
    0.7342   -2.9409    0.2282 H   0  0  0  0  0  0  0  0  0  0  0  0
    0.7001   -3.7545    2.5580 H   0  0  0  0  0  0  0  0  0  0  0  0
   -1.2310   -3.2403    4.0275 H   0  0  0  0  0  0  0  0  0  0  0  0
   -3.1681   -1.9953    3.1470 H   0  0  0  0  0  0  0  0  0  0  0  0
   -4.8614   -2.4609    1.3873 H   0  0  0  0  0  0  0  0  0  0  0  0
   -5.0444   -0.7306    1.8781 H   0  0  0  0  0  0  0  0  0  0  0  0
   -5.3893   -1.7568   -1.0286 H   0  0  0  0  0  0  0  0  0  0  0  0
   -7.3368   -1.7797    1.3224 H   0  0  0  0  0  0  0  0  0  0  0  0
   -7.2262   -2.9035   -0.1120 H   0  0  0  0  0  0  0  0  0  0  0  0
   -9.1090   -0.9049    0.0689 H   0  0  0  0  0  0  0  0  0  0  0  0
   -8.3286   -1.3287   -1.5146 H   0  0  0  0  0  0  0  0  0  0  0  0
   -7.7265    0.9069   -1.5110 H   0  0  0  0  0  0  0  0  0  0  0  0
   -7.8189    1.0414    0.3049 H   0  0  0  0  0  0  0  0  0  0  0  0
  1  2  1  0
  2  3  1  0
  2  4  1  0
  4  5  1  0
  5  6  1  0
  6  7  2  0
  6  8  1  0
  8  9  1  0
  9 10  1  0
 10 11  2  0
 10 12  1  0
 12 13  1  0
 13 14  1  0
 14 15  2  0
 15 16  1  0
 16 17  2  0
 17 18  1  0
 18 19  1  0
 19 20  1  0
 20 21  1  0
 21 22  1  0
 22 23  1  0
 23 24  1  0
 24 25  1  0
 18 26  2  0
  9 27  1  0
 27 28  1  0
 28 29  2  0
 28 30  1  0
 30 31  2  0
 31 32  1  0
 32 33  2  0
 33 34  1  0
 34 35  2  0
 35 36  1  0
 36 37  1  0
 37 38  1  0
 38 39  1  0
 39 40  1  0
 40 41  1  0
 41 42  1  0
 42 43  1  0
 43 44  2  0
 43  4  1  0
 26 14  1  0
 35 30  1  0
 42 38  1  0
 25 20  1  0
  1 45  1  0
  1 46  1  0
  1 47  1  0
  2 48  1  0
  3 49  1  0
  3 50  1  0
  3 51  1  0
  4 52  1  0
  5 53  1  0
  8 54  1  0
  8 55  1  0
  9 56  1  0
 12 57  1  0
 13 58  1  0
 13 59  1  0
 15 60  1  0
 16 61  1  0
 17 62  1  0
 19 63  1  0
 19 64  1  0
 21 65  1  0
 21 66  1  0
 22 67  1  0
 22 68  1  0
 24 69  1  0
 24 70  1  0
 25 71  1  0
 25 72  1  0
 26 73  1  0
 27 74  1  0
 31 75  1  0
 32 76  1  0
 33 77  1  0
 34 78  1  0
 37 79  1  0
 37 80  1  0
 38 81  1  0
 39 82  1  0
 39 83  1  0
 40 84  1  0
 40 85  1  0
 41 86  1  0
 41 87  1  0
M  END
$$$$
