
     RDKit          3D

 77 79  0  0  0  0  0  0  0  0999 V2000
   -0.4898    0.8069    4.0840 C   0  0  0  0  0  0  0  0  0  0  0  0
   -1.9084    1.2476    3.6870 C   0  0  0  0  0  0  0  0  0  0  0  0
   -2.0833    2.7626    3.8384 C   0  0  0  0  0  0  0  0  0  0  0  0
   -2.3159    0.7433    2.2812 C   0  0  0  0  0  0  0  0  0  0  0  0
   -1.4974    1.3374    1.1255 C   0  0  0  0  0  0  0  0  0  0  0  0
   -1.9073    0.6936   -0.1466 N   0  0  0  0  0  0  0  0  0  0  0  0
   -2.9172    1.5230   -0.8434 C   0  0  0  0  0  0  0  0  0  0  0  0
   -3.5903    0.7620   -1.9560 C   0  0  0  0  0  0  0  0  0  0  0  0
   -3.4319    1.1516   -3.1419 O   0  0  0  0  0  0  0  0  0  0  0  0
   -4.3956   -0.3977   -1.7099 N   0  0  0  0  0  0  0  0  0  0  0  0
   -4.7385   -0.8677   -0.3645 C   0  0  0  0  0  0  0  0  0  0  0  0
   -5.5604   -2.1645   -0.4000 C   0  0  0  0  0  0  0  0  0  0  0  0
   -4.8712   -3.3442   -1.1143 C   0  0  0  0  0  0  0  0  0  0  0  0
   -3.5706   -3.8359   -0.4425 C   0  0  0  0  0  0  0  0  0  0  0  0
   -2.2792   -3.3229   -1.1131 C   0  0  0  0  0  0  0  0  0  0  0  0
   -1.7787   -2.1731   -0.4237 O   0  0  0  0  0  0  0  0  0  0  0  0
   -0.4191   -1.9462   -0.1713 C   0  0  0  0  0  0  0  0  0  0  0  0
    0.3805   -2.9683    0.3681 C   0  0  0  0  0  0  0  0  0  0  0  0
    1.7274   -2.7451    0.6319 C   0  0  0  0  0  0  0  0  0  0  0  0
    2.2967   -1.5041    0.3589 C   0  0  0  0  0  0  0  0  0  0  0  0
    1.5231   -0.4665   -0.1855 C   0  0  0  0  0  0  0  0  0  0  0  0
    2.1898    0.8221   -0.4648 C   0  0  0  0  0  0  0  0  0  0  0  0
    1.9081    1.8168    0.2626 O   0  0  0  0  0  0  0  0  0  0  0  0
    3.1688    0.9531   -1.5249 N   0  0  0  0  0  0  0  0  0  0  0  0
    3.3261   -0.0880   -2.5544 C   0  0  0  0  0  0  0  0  0  0  0  0
    2.2157    0.0170   -3.6046 C   0  0  0  0  0  0  0  0  0  0  0  0
    2.2506   -1.0865   -4.4677 O   0  0  0  0  0  0  0  0  0  0  0  0
    4.0288    2.1440   -1.5651 C   0  0  0  0  0  0  0  0  0  0  0  0
    5.0510    2.0909   -0.4573 C   0  0  0  0  0  0  0  0  0  0  0  0
    5.0257    3.0383    0.5837 C   0  0  0  0  0  0  0  0  0  0  0  0
    5.9729    2.9825    1.6098 C   0  0  0  0  0  0  0  0  0  0  0  0
    6.9494    1.9835    1.6094 C   0  0  0  0  0  0  0  0  0  0  0  0
    6.9807    1.0369    0.5775 C   0  0  0  0  0  0  0  0  0  0  0  0
    6.0352    1.0868   -0.4519 C   0  0  0  0  0  0  0  0  0  0  0  0
    0.1396   -0.6712   -0.4278 C   0  0  0  0  0  0  0  0  0  0  0  0
   -0.7418    0.4206   -1.0180 C   0  0  0  0  0  0  0  0  0  0  0  0
   -0.3202    1.0141    5.1637 H   0  0  0  0  0  0  0  0  0  0  0  0
   -0.3659   -0.2883    3.9226 H   0  0  0  0  0  0  0  0  0  0  0  0
    0.2848    1.3545    3.5050 H   0  0  0  0  0  0  0  0  0  0  0  0
   -2.6045    0.7647    4.4089 H   0  0  0  0  0  0  0  0  0  0  0  0
   -1.9499    3.0512    4.9025 H   0  0  0  0  0  0  0  0  0  0  0  0
   -3.1076    3.0644    3.5317 H   0  0  0  0  0  0  0  0  0  0  0  0
   -1.3422    3.3220    3.2279 H   0  0  0  0  0  0  0  0  0  0  0  0
   -2.2128   -0.3637    2.2513 H   0  0  0  0  0  0  0  0  0  0  0  0
   -3.3925    0.9681    2.1209 H   0  0  0  0  0  0  0  0  0  0  0  0
   -0.4233    1.1635    1.3398 H   0  0  0  0  0  0  0  0  0  0  0  0
   -1.6314    2.4421    1.0807 H   0  0  0  0  0  0  0  0  0  0  0  0
   -3.7128    1.8432   -0.1328 H   0  0  0  0  0  0  0  0  0  0  0  0
   -2.4446    2.4502   -1.2458 H   0  0  0  0  0  0  0  0  0  0  0  0
   -4.8135   -0.8687   -2.5423 H   0  0  0  0  0  0  0  0  0  0  0  0
   -5.3400   -0.0851    0.1462 H   0  0  0  0  0  0  0  0  0  0  0  0
   -3.8272   -1.0284    0.2422 H   0  0  0  0  0  0  0  0  0  0  0  0
   -6.5305   -1.9589   -0.9103 H   0  0  0  0  0  0  0  0  0  0  0  0
   -5.8026   -2.4649    0.6432 H   0  0  0  0  0  0  0  0  0  0  0  0
   -5.5950   -4.1881   -1.0943 H   0  0  0  0  0  0  0  0  0  0  0  0
   -4.7131   -3.1201   -2.1880 H   0  0  0  0  0  0  0  0  0  0  0  0
   -3.5587   -4.9473   -0.5162 H   0  0  0  0  0  0  0  0  0  0  0  0
   -3.5663   -3.5923    0.6446 H   0  0  0  0  0  0  0  0  0  0  0  0
   -2.4470   -3.0467   -2.1790 H   0  0  0  0  0  0  0  0  0  0  0  0
   -1.5295   -4.1446   -1.1165 H   0  0  0  0  0  0  0  0  0  0  0  0
   -0.0456   -3.9322    0.6145 H   0  0  0  0  0  0  0  0  0  0  0  0
    2.3320   -3.5369    1.0545 H   0  0  0  0  0  0  0  0  0  0  0  0
    3.3490   -1.3514    0.5729 H   0  0  0  0  0  0  0  0  0  0  0  0
    3.3212   -1.0970   -2.0909 H   0  0  0  0  0  0  0  0  0  0  0  0
    4.3070    0.0154   -3.0657 H   0  0  0  0  0  0  0  0  0  0  0  0
    2.3279    0.9607   -4.1842 H   0  0  0  0  0  0  0  0  0  0  0  0
    1.2267    0.0361   -3.1059 H   0  0  0  0  0  0  0  0  0  0  0  0
    3.0776   -1.0026   -5.0080 H   0  0  0  0  0  0  0  0  0  0  0  0
    3.4031    3.0587   -1.4915 H   0  0  0  0  0  0  0  0  0  0  0  0
    4.5621    2.2128   -2.5356 H   0  0  0  0  0  0  0  0  0  0  0  0
    4.2666    3.8094    0.6098 H   0  0  0  0  0  0  0  0  0  0  0  0
    5.9413    3.7080    2.4147 H   0  0  0  0  0  0  0  0  0  0  0  0
    7.6818    1.9390    2.4082 H   0  0  0  0  0  0  0  0  0  0  0  0
    7.7250    0.2522    0.5899 H   0  0  0  0  0  0  0  0  0  0  0  0
    6.0656    0.3362   -1.2341 H   0  0  0  0  0  0  0  0  0  0  0  0
   -1.0780    0.0467   -2.0103 H   0  0  0  0  0  0  0  0  0  0  0  0
   -0.1905    1.3653   -1.2133 H   0  0  0  0  0  0  0  0  0  0  0  0
  1  2  1  0
  2  3  1  0
  2  4  1  0
  4  5  1  0
  5  6  1  0
  6  7  1  0
  7  8  1  0
  8  9  2  0
  8 10  1  0
 10 11  1  0
 11 12  1  0
 12 13  1  0
 13 14  1  0
 14 15  1  0
 15 16  1  0
 16 17  1  0
 17 18  2  0
 18 19  1  0
 19 20  2  0
 20 21  1  0
 21 22  1  0
 22 23  2  0
 22 24  1  0
 24 25  1  0
 25 26  1  0
 26 27  1  0
 24 28  1  0
 28 29  1  0
 29 30  2  0
 30 31  1  0
 31 32  2  0
 32 33  1  0
 33 34  2  0
 21 35  2  0
 35 36  1  0
 36  6  1  0
 35 17  1  0
 34 29  1  0
  1 37  1  0
  1 38  1  0
  1 39  1  0
  2 40  1  0
  3 41  1  0
  3 42  1  0
  3 43  1  0
  4 44  1  0
  4 45  1  0
  5 46  1  0
  5 47  1  0
  7 48  1  0
  7 49  1  0
 10 50  1  0
 11 51  1  0
 11 52  1  0
 12 53  1  0
 12 54  1  0
 13 55  1  0
 13 56  1  0
 14 57  1  0
 14 58  1  0
 15 59  1  0
 15 60  1  0
 18 61  1  0
 19 62  1  0
 20 63  1  0
 25 64  1  0
 25 65  1  0
 26 66  1  0
 26 67  1  0
 27 68  1  0
 28 69  1  0
 28 70  1  0
 30 71  1  0
 31 72  1  0
 32 73  1  0
 33 74  1  0
 34 75  1  0
 36 76  1  0
 36 77  1  0
M  END
$$$$
