
     RDKit          3D

 71 74  0  0  0  0  0  0  0  0999 V2000
   -0.2135   -3.2012    0.1810 C   0  0  0  0  0  0  0  0  0  0  0  0
   -1.0651   -2.1146    0.6823 N   0  0  0  0  0  0  0  0  0  0  0  0
   -0.4699   -0.9695    1.3979 C   0  0  0  0  0  0  0  0  0  0  0  0
   -0.0769    0.2110    0.4506 C   0  0  0  0  0  0  0  0  0  0  0  0
    0.5696    1.3482    1.3208 C   0  0  0  0  0  0  0  0  0  0  0  0
    2.0987    1.2777    1.3785 C   0  0  0  0  0  0  0  0  0  0  0  0
    2.6425    1.3959    0.0200 N   0  0  0  0  0  0  0  0  0  0  0  0
    3.8321    2.1609   -0.2411 C   0  0  0  0  0  0  0  0  0  0  0  0
    3.9586    2.7540   -1.3473 O   0  0  0  0  0  0  0  0  0  0  0  0
    4.9395    2.2716    0.7778 C   0  0  0  0  0  0  0  0  0  0  0  0
    6.2963    1.8387    0.2037 C   0  0  0  0  0  0  0  0  0  0  0  0
    6.2711    0.4034   -0.2582 C   0  0  0  0  0  0  0  0  0  0  0  0
    6.2825   -0.6426    0.6818 C   0  0  0  0  0  0  0  0  0  0  0  0
    6.2246   -1.9727    0.2537 C   0  0  0  0  0  0  0  0  0  0  0  0
    6.1538   -2.2677   -1.1123 C   0  0  0  0  0  0  0  0  0  0  0  0
    6.1311   -1.2325   -2.0514 C   0  0  0  0  0  0  0  0  0  0  0  0
    6.1876    0.0985   -1.6285 C   0  0  0  0  0  0  0  0  0  0  0  0
    1.9091    0.7989   -1.1063 C   0  0  0  0  0  0  0  0  0  0  0  0
    0.9649   -0.3030   -0.6062 C   0  0  0  0  0  0  0  0  0  0  0  0
   -1.3229    0.7670   -0.3309 C   0  0  0  0  0  0  0  0  0  0  0  0
   -2.5585    1.2419    0.4897 C   0  0  0  0  0  0  0  0  0  0  0  0
   -2.1741    2.0228    1.5914 O   0  0  0  0  0  0  0  0  0  0  0  0
   -3.5721    2.0309   -0.3983 C   0  0  0  0  0  0  0  0  0  0  0  0
   -4.4624    2.7529    0.4190 O   0  0  0  0  0  0  0  0  0  0  0  0
   -4.3815    1.1357   -1.3699 C   0  0  0  0  0  0  0  0  0  0  0  0
   -5.3785    0.2371   -0.6639 C   0  0  0  0  0  0  0  0  0  0  0  0
   -6.5676    0.7935   -0.1556 C   0  0  0  0  0  0  0  0  0  0  0  0
   -7.4592    0.0151    0.5838 C   0  0  0  0  0  0  0  0  0  0  0  0
   -7.1835   -1.3306    0.8169 C   0  0  0  0  0  0  0  0  0  0  0  0
   -6.0257   -1.9087    0.2911 C   0  0  0  0  0  0  0  0  0  0  0  0
   -5.1181   -1.1365   -0.4650 C   0  0  0  0  0  0  0  0  0  0  0  0
   -3.9752   -1.7081   -1.0508 O   0  0  0  0  0  0  0  0  0  0  0  0
   -3.2298   -2.7915   -0.4981 C   0  0  0  0  0  0  0  0  0  0  0  0
   -2.4879   -2.3233    0.7176 C   0  0  0  0  0  0  0  0  0  0  0  0
   -3.1331   -2.0682    1.7726 O   0  0  0  0  0  0  0  0  0  0  0  0
   -0.6813   -4.1873    0.3966 H   0  0  0  0  0  0  0  0  0  0  0  0
   -0.0718   -3.1041   -0.9124 H   0  0  0  0  0  0  0  0  0  0  0  0
    0.7781   -3.1925    0.6760 H   0  0  0  0  0  0  0  0  0  0  0  0
    0.4380   -1.3136    1.9477 H   0  0  0  0  0  0  0  0  0  0  0  0
   -1.1630   -0.6060    2.1898 H   0  0  0  0  0  0  0  0  0  0  0  0
    0.1735    1.3426    2.3606 H   0  0  0  0  0  0  0  0  0  0  0  0
    0.3294    2.3439    0.8866 H   0  0  0  0  0  0  0  0  0  0  0  0
    2.4543    2.1179    2.0144 H   0  0  0  0  0  0  0  0  0  0  0  0
    2.4351    0.3221    1.8359 H   0  0  0  0  0  0  0  0  0  0  0  0
    4.7221    1.6571    1.6772 H   0  0  0  0  0  0  0  0  0  0  0  0
    5.0123    3.3300    1.1093 H   0  0  0  0  0  0  0  0  0  0  0  0
    6.5818    2.5184   -0.6301 H   0  0  0  0  0  0  0  0  0  0  0  0
    7.0737    1.9533    0.9913 H   0  0  0  0  0  0  0  0  0  0  0  0
    6.3294   -0.4294    1.7430 H   0  0  0  0  0  0  0  0  0  0  0  0
    6.2309   -2.7747    0.9818 H   0  0  0  0  0  0  0  0  0  0  0  0
    6.1113   -3.2975   -1.4432 H   0  0  0  0  0  0  0  0  0  0  0  0
    6.0681   -1.4618   -3.1078 H   0  0  0  0  0  0  0  0  0  0  0  0
    6.1619    0.8893   -2.3675 H   0  0  0  0  0  0  0  0  0  0  0  0
    1.3367    1.5945   -1.6341 H   0  0  0  0  0  0  0  0  0  0  0  0
    2.6302    0.3506   -1.8268 H   0  0  0  0  0  0  0  0  0  0  0  0
    1.6125   -1.0874   -0.1575 H   0  0  0  0  0  0  0  0  0  0  0  0
    0.4579   -0.7681   -1.4776 H   0  0  0  0  0  0  0  0  0  0  0  0
   -0.9778    1.6111   -0.9655 H   0  0  0  0  0  0  0  0  0  0  0  0
   -1.6753   -0.0197   -1.0303 H   0  0  0  0  0  0  0  0  0  0  0  0
   -3.0775    0.3556    0.8974 H   0  0  0  0  0  0  0  0  0  0  0  0
   -1.8586    2.8980    1.2498 H   0  0  0  0  0  0  0  0  0  0  0  0
   -2.9949    2.7453   -1.0360 H   0  0  0  0  0  0  0  0  0  0  0  0
   -4.1063    3.6782    0.5075 H   0  0  0  0  0  0  0  0  0  0  0  0
   -3.6931    0.5459   -2.0124 H   0  0  0  0  0  0  0  0  0  0  0  0
   -4.9410    1.7981   -2.0703 H   0  0  0  0  0  0  0  0  0  0  0  0
   -6.7997    1.8378   -0.3216 H   0  0  0  0  0  0  0  0  0  0  0  0
   -8.3636    0.4593    0.9793 H   0  0  0  0  0  0  0  0  0  0  0  0
   -7.8784   -1.9326    1.3884 H   0  0  0  0  0  0  0  0  0  0  0  0
   -5.8634   -2.9643    0.4565 H   0  0  0  0  0  0  0  0  0  0  0  0
   -2.5148   -3.1451   -1.2673 H   0  0  0  0  0  0  0  0  0  0  0  0
   -3.8829   -3.6496   -0.2475 H   0  0  0  0  0  0  0  0  0  0  0  0
  1  2  1  0
  2  3  1  0
  3  4  1  0
  4  5  1  0
  5  6  1  0
  6  7  1  0
  7  8  1  0
  8  9  2  0
  8 10  1  0
 10 11  1  0
 11 12  1  0
 12 13  2  0
 13 14  1  0
 14 15  2  0
 15 16  1  0
 16 17  2  0
  7 18  1  0
 18 19  1  0
  4 20  1  0
 20 21  1  0
 21 22  1  0
 21 23  1  0
 23 24  1  0
 23 25  1  0
 25 26  1  0
 26 27  2  0
 27 28  1  0
 28 29  2  0
 29 30  1  0
 30 31  2  0
 31 32  1  0
 32 33  1  0
 33 34  1  0
 34 35  2  0
 34  2  1  0
 19  4  1  0
 31 26  1  0
 17 12  1  0
  1 36  1  0
  1 37  1  0
  1 38  1  0
  3 39  1  0
  3 40  1  0
  5 41  1  0
  5 42  1  0
  6 43  1  0
  6 44  1  0
 10 45  1  0
 10 46  1  0
 11 47  1  0
 11 48  1  0
 13 49  1  0
 14 50  1  0
 15 51  1  0
 16 52  1  0
 17 53  1  0
 18 54  1  0
 18 55  1  0
 19 56  1  0
 19 57  1  0
 20 58  1  0
 20 59  1  0
 21 60  1  0
 22 61  1  0
 23 62  1  0
 24 63  1  0
 25 64  1  0
 25 65  1  0
 27 66  1  0
 28 67  1  0
 29 68  1  0
 30 69  1  0
 33 70  1  0
 33 71  1  0
M  END
$$$$
