
     RDKit          3D

 67 70  0  0  0  0  0  0  0  0999 V2000
    7.6961    1.8530    1.6247 C   0  0  0  0  0  0  0  0  0  0  0  0
    7.3789    1.4792    0.1802 C   0  0  0  0  0  0  0  0  0  0  0  0
    6.8252    0.0764    0.0910 C   0  0  0  0  0  0  0  0  0  0  0  0
    7.7201   -1.0039   -0.0178 C   0  0  0  0  0  0  0  0  0  0  0  0
    7.2442   -2.3157   -0.0963 C   0  0  0  0  0  0  0  0  0  0  0  0
    5.8704   -2.5658   -0.0719 C   0  0  0  0  0  0  0  0  0  0  0  0
    4.9670   -1.5045    0.0341 C   0  0  0  0  0  0  0  0  0  0  0  0
    5.4318   -0.1786    0.1243 C   0  0  0  0  0  0  0  0  0  0  0  0
    4.4918    0.8937    0.3030 N   0  0  0  0  0  0  0  0  0  0  0  0
    3.2948    1.0185   -0.4812 C   0  0  0  0  0  0  0  0  0  0  0  0
    3.1852    0.3888   -1.5703 O   0  0  0  0  0  0  0  0  0  0  0  0
    2.1853    1.9378   -0.0262 C   0  0  0  0  0  0  0  0  0  0  0  0
    0.8816    1.2645    0.1648 N   0  0  0  0  0  0  0  0  0  0  0  0
    0.9151    0.1544    1.1417 C   0  0  0  0  0  0  0  0  0  0  0  0
   -0.3097   -0.7640    0.9757 C   0  0  0  0  0  0  0  0  0  0  0  0
   -1.4304   -0.0187    0.5371 O   0  0  0  0  0  0  0  0  0  0  0  0
   -1.2680    0.5107   -0.7828 C   0  0  0  0  0  0  0  0  0  0  0  0
   -2.0962    1.8250   -0.8569 C   0  0  0  0  0  0  0  0  0  0  0  0
   -3.5329    1.6506   -0.4292 C   0  0  0  0  0  0  0  0  0  0  0  0
   -4.4607    1.1758   -1.2728 C   0  0  0  0  0  0  0  0  0  0  0  0
   -5.8982    0.9459   -0.8789 C   0  0  0  0  0  0  0  0  0  0  0  0
   -6.0481    0.1859    0.4216 C   0  0  0  0  0  0  0  0  0  0  0  0
   -6.2207    0.9331    1.6045 C   0  0  0  0  0  0  0  0  0  0  0  0
   -6.4516    0.2977    2.8249 C   0  0  0  0  0  0  0  0  0  0  0  0
   -6.5432   -1.0917    2.8821 C   0  0  0  0  0  0  0  0  0  0  0  0
   -6.3805   -1.8489    1.7246 C   0  0  0  0  0  0  0  0  0  0  0  0
   -6.0958   -1.2348    0.4968 C   0  0  0  0  0  0  0  0  0  0  0  0
   -5.8739   -2.0865   -0.5991 O   0  0  0  0  0  0  0  0  0  0  0  0
   -4.7159   -2.0690   -1.4364 C   0  0  0  0  0  0  0  0  0  0  0  0
   -3.4203   -1.9826   -0.6171 C   0  0  0  0  0  0  0  0  0  0  0  0
   -2.2741   -1.7800   -1.5004 N   0  0  0  0  0  0  0  0  0  0  0  0
   -1.7670   -0.4770   -1.8360 C   0  0  0  0  0  0  0  0  0  0  0  0
   -1.6614   -0.1701   -3.0555 O   0  0  0  0  0  0  0  0  0  0  0  0
    0.2244    0.8627   -1.0894 C   0  0  0  0  0  0  0  0  0  0  0  0
    6.7824    1.7845    2.2565 H   0  0  0  0  0  0  0  0  0  0  0  0
    8.0764    2.8965    1.6622 H   0  0  0  0  0  0  0  0  0  0  0  0
    8.4761    1.1743    2.0344 H   0  0  0  0  0  0  0  0  0  0  0  0
    8.3122    1.5583   -0.4207 H   0  0  0  0  0  0  0  0  0  0  0  0
    6.6663    2.2137   -0.2496 H   0  0  0  0  0  0  0  0  0  0  0  0
    8.7897   -0.8270   -0.0412 H   0  0  0  0  0  0  0  0  0  0  0  0
    7.9415   -3.1382   -0.1706 H   0  0  0  0  0  0  0  0  0  0  0  0
    5.5018   -3.5851   -0.1315 H   0  0  0  0  0  0  0  0  0  0  0  0
    3.9027   -1.7206    0.0771 H   0  0  0  0  0  0  0  0  0  0  0  0
    4.6959    1.6254    1.0224 H   0  0  0  0  0  0  0  0  0  0  0  0
    2.4726    2.4157    0.9357 H   0  0  0  0  0  0  0  0  0  0  0  0
    2.0805    2.7674   -0.7603 H   0  0  0  0  0  0  0  0  0  0  0  0
    0.9031    0.5875    2.1671 H   0  0  0  0  0  0  0  0  0  0  0  0
    1.8309   -0.4664    1.0352 H   0  0  0  0  0  0  0  0  0  0  0  0
   -0.5536   -1.2351    1.9517 H   0  0  0  0  0  0  0  0  0  0  0  0
   -0.0870   -1.5888    0.2613 H   0  0  0  0  0  0  0  0  0  0  0  0
   -1.6361    2.5714   -0.1722 H   0  0  0  0  0  0  0  0  0  0  0  0
   -2.0576    2.2642   -1.8788 H   0  0  0  0  0  0  0  0  0  0  0  0
   -3.8045    1.9213    0.5847 H   0  0  0  0  0  0  0  0  0  0  0  0
   -4.1765    0.9587   -2.2973 H   0  0  0  0  0  0  0  0  0  0  0  0
   -6.3971    1.9361   -0.8016 H   0  0  0  0  0  0  0  0  0  0  0  0
   -6.4278    0.4048   -1.6906 H   0  0  0  0  0  0  0  0  0  0  0  0
   -6.1727    2.0152    1.5794 H   0  0  0  0  0  0  0  0  0  0  0  0
   -6.5569    0.8818    3.7280 H   0  0  0  0  0  0  0  0  0  0  0  0
   -6.7218   -1.5865    3.8263 H   0  0  0  0  0  0  0  0  0  0  0  0
   -6.4278   -2.9306    1.7860 H   0  0  0  0  0  0  0  0  0  0  0  0
   -4.7003   -3.0121   -2.0234 H   0  0  0  0  0  0  0  0  0  0  0  0
   -4.7851   -1.2531   -2.1756 H   0  0  0  0  0  0  0  0  0  0  0  0
   -3.2799   -2.9268   -0.0477 H   0  0  0  0  0  0  0  0  0  0  0  0
   -3.4938   -1.1608    0.1160 H   0  0  0  0  0  0  0  0  0  0  0  0
   -2.0496   -2.5570   -2.1598 H   0  0  0  0  0  0  0  0  0  0  0  0
    0.2904    1.6757   -1.8503 H   0  0  0  0  0  0  0  0  0  0  0  0
    0.7424   -0.0266   -1.5158 H   0  0  0  0  0  0  0  0  0  0  0  0
  1  2  1  0
  2  3  1  0
  3  4  2  0
  4  5  1  0
  5  6  2  0
  6  7  1  0
  7  8  2  0
  8  9  1  0
  9 10  1  0
 10 11  2  0
 10 12  1  0
 12 13  1  0
 13 14  1  0
 14 15  1  0
 15 16  1  0
 16 17  1  0
 17 18  1  0
 18 19  1  0
 19 20  2  0
 20 21  1  0
 21 22  1  0
 22 23  2  0
 23 24  1  0
 24 25  2  0
 25 26  1  0
 26 27  2  0
 27 28  1  0
 28 29  1  0
 29 30  1  0
 30 31  1  0
 31 32  1  0
 32 33  2  0
 17 34  1  0
  8  3  1  0
 34 13  1  0
 32 17  1  0
 27 22  1  0
  1 35  1  0
  1 36  1  0
  1 37  1  0
  2 38  1  0
  2 39  1  0
  4 40  1  0
  5 41  1  0
  6 42  1  0
  7 43  1  0
  9 44  1  0
 12 45  1  0
 12 46  1  0
 14 47  1  0
 14 48  1  0
 15 49  1  0
 15 50  1  0
 18 51  1  0
 18 52  1  0
 19 53  1  0
 20 54  1  0
 21 55  1  0
 21 56  1  0
 23 57  1  0
 24 58  1  0
 25 59  1  0
 26 60  1  0
 29 61  1  0
 29 62  1  0
 30 63  1  0
 30 64  1  0
 31 65  1  0
 34 66  1  0
 34 67  1  0
M  END
$$$$
