
     RDKit          3D

 59 61  0  0  0  0  0  0  0  0999 V2000
    7.5327    0.7763   -0.8755 C   0  0  0  0  0  0  0  0  0  0  0  0
    6.1266    0.2958   -0.7367 C   0  0  0  0  0  0  0  0  0  0  0  0
    5.2546    0.0432   -1.7792 C   0  0  0  0  0  0  0  0  0  0  0  0
    4.1190   -0.4333   -1.1576 C   0  0  0  0  0  0  0  0  0  0  0  0
    2.8604   -0.8625   -1.8449 C   0  0  0  0  0  0  0  0  0  0  0  0
    4.3329   -0.4681    0.1760 N   0  0  0  0  0  0  0  0  0  0  0  0
    3.3878   -0.8860    1.2118 C   0  0  0  0  0  0  0  0  0  0  0  0
    2.3119    0.1540    1.4014 C   0  0  0  0  0  0  0  0  0  0  0  0
    2.6419    1.3673    1.2948 O   0  0  0  0  0  0  0  0  0  0  0  0
    0.9521   -0.1846    1.7778 N   0  0  0  0  0  0  0  0  0  0  0  0
   -0.0100    0.9110    2.0074 C   0  0  0  0  0  0  0  0  0  0  0  0
   -0.3768    1.6112    0.6842 C   0  0  0  0  0  0  0  0  0  0  0  0
   -1.7996    2.1955    0.7221 C   0  0  0  0  0  0  0  0  0  0  0  0
   -2.2095    2.8336   -0.6120 C   0  0  0  0  0  0  0  0  0  0  0  0
   -2.0803    1.9031   -1.7391 N   0  0  0  0  0  0  0  0  0  0  0  0
   -2.8356    0.6901   -1.9146 C   0  0  0  0  0  0  0  0  0  0  0  0
   -2.4726   -0.1271   -2.8025 O   0  0  0  0  0  0  0  0  0  0  0  0
   -4.0416    0.3758   -1.1209 C   0  0  0  0  0  0  0  0  0  0  0  0
   -5.1180    1.2788   -1.1540 C   0  0  0  0  0  0  0  0  0  0  0  0
   -6.3343    0.9587   -0.5470 C   0  0  0  0  0  0  0  0  0  0  0  0
   -7.6671    2.0989   -0.5995 Cl  0  0  0  0  0  0  0  0  0  0  0  0
   -6.5010   -0.2822    0.0674 C   0  0  0  0  0  0  0  0  0  0  0  0
   -5.4486   -1.1980    0.0917 C   0  0  0  0  0  0  0  0  0  0  0  0
   -4.2087   -0.8795   -0.4751 C   0  0  0  0  0  0  0  0  0  0  0  0
   -3.1817   -1.8310   -0.3592 O   0  0  0  0  0  0  0  0  0  0  0  0
   -1.8603   -1.5032    0.0614 C   0  0  0  0  0  0  0  0  0  0  0  0
   -1.1312   -2.7443    0.5627 C   0  0  0  0  0  0  0  0  0  0  0  0
    0.3475   -2.4506    0.8763 C   0  0  0  0  0  0  0  0  0  0  0  0
    0.5717   -1.5692    2.1286 C   0  0  0  0  0  0  0  0  0  0  0  0
    5.5533   -0.0269    0.4395 N   0  0  0  0  0  0  0  0  0  0  0  0
    7.5863    1.5772   -1.6412 H   0  0  0  0  0  0  0  0  0  0  0  0
    7.8973    1.1806    0.0933 H   0  0  0  0  0  0  0  0  0  0  0  0
    8.1839   -0.0680   -1.1842 H   0  0  0  0  0  0  0  0  0  0  0  0
    5.4267    0.1814   -2.8384 H   0  0  0  0  0  0  0  0  0  0  0  0
    2.0031   -0.2803   -1.4529 H   0  0  0  0  0  0  0  0  0  0  0  0
    2.9310   -0.6930   -2.9391 H   0  0  0  0  0  0  0  0  0  0  0  0
    2.6898   -1.9435   -1.6620 H   0  0  0  0  0  0  0  0  0  0  0  0
    3.9249   -1.0090    2.1745 H   0  0  0  0  0  0  0  0  0  0  0  0
    2.9760   -1.8729    0.9388 H   0  0  0  0  0  0  0  0  0  0  0  0
    0.4274    1.6531    2.7108 H   0  0  0  0  0  0  0  0  0  0  0  0
   -0.9257    0.5289    2.5066 H   0  0  0  0  0  0  0  0  0  0  0  0
   -0.2909    0.8888   -0.1522 H   0  0  0  0  0  0  0  0  0  0  0  0
    0.3484    2.4295    0.4860 H   0  0  0  0  0  0  0  0  0  0  0  0
   -1.8471    2.9748    1.5144 H   0  0  0  0  0  0  0  0  0  0  0  0
   -2.5392    1.4132    0.9901 H   0  0  0  0  0  0  0  0  0  0  0  0
   -3.2488    3.2124   -0.5422 H   0  0  0  0  0  0  0  0  0  0  0  0
   -1.5574    3.7157   -0.7949 H   0  0  0  0  0  0  0  0  0  0  0  0
   -1.3198    2.0979   -2.4315 H   0  0  0  0  0  0  0  0  0  0  0  0
   -5.0280    2.2164   -1.6872 H   0  0  0  0  0  0  0  0  0  0  0  0
   -7.4467   -0.5399    0.5247 H   0  0  0  0  0  0  0  0  0  0  0  0
   -5.5873   -2.1550    0.5778 H   0  0  0  0  0  0  0  0  0  0  0  0
   -1.2883   -1.0754   -0.7837 H   0  0  0  0  0  0  0  0  0  0  0  0
   -1.9239   -0.7845    0.8964 H   0  0  0  0  0  0  0  0  0  0  0  0
   -1.6436   -3.1464    1.4628 H   0  0  0  0  0  0  0  0  0  0  0  0
   -1.1761   -3.5237   -0.2293 H   0  0  0  0  0  0  0  0  0  0  0  0
    0.8270   -1.9993   -0.0146 H   0  0  0  0  0  0  0  0  0  0  0  0
    0.8482   -3.4264    1.0478 H   0  0  0  0  0  0  0  0  0  0  0  0
   -0.3340   -1.5848    2.7724 H   0  0  0  0  0  0  0  0  0  0  0  0
    1.3715   -2.0145    2.7586 H   0  0  0  0  0  0  0  0  0  0  0  0
  1  2  1  0
  2  3  1  0
  3  4  2  0
  4  5  1  0
  4  6  1  0
  6  7  1  0
  7  8  1  0
  8  9  2  0
  8 10  1  0
 10 11  1  0
 11 12  1  0
 12 13  1  0
 13 14  1  0
 14 15  1  0
 15 16  1  0
 16 17  2  0
 16 18  1  0
 18 19  2  0
 19 20  1  0
 20 21  1  0
 20 22  2  0
 22 23  1  0
 23 24  2  0
 24 25  1  0
 25 26  1  0
 26 27  1  0
 27 28  1  0
 28 29  1  0
  6 30  1  0
 30  2  2  0
 29 10  1  0
 24 18  1  0
  1 31  1  0
  1 32  1  0
  1 33  1  0
  3 34  1  0
  5 35  1  0
  5 36  1  0
  5 37  1  0
  7 38  1  0
  7 39  1  0
 11 40  1  0
 11 41  1  0
 12 42  1  0
 12 43  1  0
 13 44  1  0
 13 45  1  0
 14 46  1  0
 14 47  1  0
 15 48  1  0
 19 49  1  0
 22 50  1  0
 23 51  1  0
 26 52  1  0
 26 53  1  0
 27 54  1  0
 27 55  1  0
 28 56  1  0
 28 57  1  0
 29 58  1  0
 29 59  1  0
M  END
$$$$
