
     RDKit          3D

 73 74  0  0  0  0  0  0  0  0999 V2000
   -2.0277   -3.3620    2.4535 C   0  0  0  0  0  0  0  0  0  0  0  0
   -2.4743   -3.4010    0.9782 C   0  0  0  0  0  0  0  0  0  0  0  0
   -1.5614   -4.3382    0.1785 C   0  0  0  0  0  0  0  0  0  0  0  0
   -2.5081   -2.0726    0.3069 N   0  0  0  0  0  0  0  0  0  0  0  0
   -3.8512   -1.5024    0.0398 C   0  0  0  0  0  0  0  0  0  0  0  0
   -4.4319   -0.7157    1.1991 C   0  0  0  0  0  0  0  0  0  0  0  0
   -4.4368   -1.2339    2.3475 O   0  0  0  0  0  0  0  0  0  0  0  0
   -5.0506    0.5741    1.0292 N   0  0  0  0  0  0  0  0  0  0  0  0
   -5.1470    1.2734   -0.2530 C   0  0  0  0  0  0  0  0  0  0  0  0
   -5.6389    2.7256   -0.1014 C   0  0  0  0  0  0  0  0  0  0  0  0
   -4.8717    3.6851    0.8566 C   0  0  0  0  0  0  0  0  0  0  0  0
   -3.4739    3.2890    1.3729 C   0  0  0  0  0  0  0  0  0  0  0  0
   -2.4234    3.0661    0.2741 C   0  0  0  0  0  0  0  0  0  0  0  0
   -2.0287    1.6970    0.2874 O   0  0  0  0  0  0  0  0  0  0  0  0
   -1.2722    1.0552   -0.7016 C   0  0  0  0  0  0  0  0  0  0  0  0
   -0.7731    1.7480   -1.8200 C   0  0  0  0  0  0  0  0  0  0  0  0
   -0.0609    1.0705   -2.8112 C   0  0  0  0  0  0  0  0  0  0  0  0
    0.1636   -0.3083   -2.7069 C   0  0  0  0  0  0  0  0  0  0  0  0
    0.9380   -1.0400   -3.7754 C   0  0  0  0  0  0  0  0  0  0  0  0
    2.3539   -1.4134   -3.3115 C   0  0  0  0  0  0  0  0  0  0  0  0
    3.1911   -0.2138   -2.9605 C   0  0  0  0  0  0  0  0  0  0  0  0
    3.1719    0.8049   -3.7011 O   0  0  0  0  0  0  0  0  0  0  0  0
    4.0735   -0.2649   -1.8325 N   0  0  0  0  0  0  0  0  0  0  0  0
    4.8743    0.8949   -1.4322 C   0  0  0  0  0  0  0  0  0  0  0  0
    5.8662    0.5419   -0.3178 C   0  0  0  0  0  0  0  0  0  0  0  0
    5.1682    0.3237    1.0359 C   0  0  0  0  0  0  0  0  0  0  0  0
    6.1296   -0.2157    2.1079 C   0  0  0  0  0  0  0  0  0  0  0  0
    7.1409    0.8374    2.5796 C   0  0  0  0  0  0  0  0  0  0  0  0
    7.9102    0.3255    3.6356 O   0  0  0  0  0  0  0  0  0  0  0  0
   -0.3143   -0.9994   -1.5846 C   0  0  0  0  0  0  0  0  0  0  0  0
   -1.0184   -0.3260   -0.5727 C   0  0  0  0  0  0  0  0  0  0  0  0
   -1.4523   -1.0962    0.6534 C   0  0  0  0  0  0  0  0  0  0  0  0
   -2.2052   -4.3578    2.9172 H   0  0  0  0  0  0  0  0  0  0  0  0
   -0.9436   -3.1455    2.5584 H   0  0  0  0  0  0  0  0  0  0  0  0
   -2.5987   -2.6113    3.0315 H   0  0  0  0  0  0  0  0  0  0  0  0
   -3.4875   -3.8631    0.9634 H   0  0  0  0  0  0  0  0  0  0  0  0
   -1.9122   -4.3999   -0.8747 H   0  0  0  0  0  0  0  0  0  0  0  0
   -1.5728   -5.3564    0.6167 H   0  0  0  0  0  0  0  0  0  0  0  0
   -0.5165   -3.9611    0.1802 H   0  0  0  0  0  0  0  0  0  0  0  0
   -3.7815   -0.8878   -0.8745 H   0  0  0  0  0  0  0  0  0  0  0  0
   -4.5652   -2.3081   -0.2269 H   0  0  0  0  0  0  0  0  0  0  0  0
   -5.4335    1.0380    1.8806 H   0  0  0  0  0  0  0  0  0  0  0  0
   -4.1780    1.2764   -0.7792 H   0  0  0  0  0  0  0  0  0  0  0  0
   -5.8670    0.7248   -0.8999 H   0  0  0  0  0  0  0  0  0  0  0  0
   -5.6341    3.1771   -1.1197 H   0  0  0  0  0  0  0  0  0  0  0  0
   -6.7064    2.6963    0.2113 H   0  0  0  0  0  0  0  0  0  0  0  0
   -4.7819    4.6716    0.3541 H   0  0  0  0  0  0  0  0  0  0  0  0
   -5.5100    3.8657    1.7473 H   0  0  0  0  0  0  0  0  0  0  0  0
   -3.1187    4.1200    2.0222 H   0  0  0  0  0  0  0  0  0  0  0  0
   -3.5400    2.4049    2.0413 H   0  0  0  0  0  0  0  0  0  0  0  0
   -2.8335    3.3434   -0.7190 H   0  0  0  0  0  0  0  0  0  0  0  0
   -1.5272    3.6900    0.4752 H   0  0  0  0  0  0  0  0  0  0  0  0
   -0.9248    2.8134   -1.9321 H   0  0  0  0  0  0  0  0  0  0  0  0
    0.3174    1.6242   -3.6618 H   0  0  0  0  0  0  0  0  0  0  0  0
    0.3918   -1.9723   -4.0379 H   0  0  0  0  0  0  0  0  0  0  0  0
    1.0002   -0.4317   -4.7046 H   0  0  0  0  0  0  0  0  0  0  0  0
    2.2857   -2.0978   -2.4379 H   0  0  0  0  0  0  0  0  0  0  0  0
    2.8642   -1.9668   -4.1267 H   0  0  0  0  0  0  0  0  0  0  0  0
    4.1700   -1.1696   -1.3194 H   0  0  0  0  0  0  0  0  0  0  0  0
    4.2011    1.7150   -1.0992 H   0  0  0  0  0  0  0  0  0  0  0  0
    5.4540    1.2554   -2.3100 H   0  0  0  0  0  0  0  0  0  0  0  0
    6.5886    1.3813   -0.2235 H   0  0  0  0  0  0  0  0  0  0  0  0
    6.4350   -0.3696   -0.6092 H   0  0  0  0  0  0  0  0  0  0  0  0
    4.3467   -0.4139    0.9143 H   0  0  0  0  0  0  0  0  0  0  0  0
    4.7096    1.2756    1.3829 H   0  0  0  0  0  0  0  0  0  0  0  0
    5.5282   -0.5401    2.9847 H   0  0  0  0  0  0  0  0  0  0  0  0
    6.6659   -1.1111    1.7218 H   0  0  0  0  0  0  0  0  0  0  0  0
    6.5978    1.7355    2.9465 H   0  0  0  0  0  0  0  0  0  0  0  0
    7.8076    1.1520    1.7439 H   0  0  0  0  0  0  0  0  0  0  0  0
    8.5637   -0.3019    3.2326 H   0  0  0  0  0  0  0  0  0  0  0  0
   -0.1233   -2.0619   -1.4907 H   0  0  0  0  0  0  0  0  0  0  0  0
   -0.5433   -1.6120    1.0256 H   0  0  0  0  0  0  0  0  0  0  0  0
   -1.7874   -0.4297    1.4772 H   0  0  0  0  0  0  0  0  0  0  0  0
  1  2  1  0
  2  3  1  0
  2  4  1  0
  4  5  1  0
  5  6  1  0
  6  7  2  0
  6  8  1  0
  8  9  1  0
  9 10  1  0
 10 11  1  0
 11 12  1  0
 12 13  1  0
 13 14  1  0
 14 15  1  0
 15 16  2  0
 16 17  1  0
 17 18  2  0
 18 19  1  0
 19 20  1  0
 20 21  1  0
 21 22  2  0
 21 23  1  0
 23 24  1  0
 24 25  1  0
 25 26  1  0
 26 27  1  0
 27 28  1  0
 28 29  1  0
 18 30  1  0
 30 31  2  0
 31 32  1  0
 32  4  1  0
 31 15  1  0
  1 33  1  0
  1 34  1  0
  1 35  1  0
  2 36  1  0
  3 37  1  0
  3 38  1  0
  3 39  1  0
  5 40  1  0
  5 41  1  0
  8 42  1  0
  9 43  1  0
  9 44  1  0
 10 45  1  0
 10 46  1  0
 11 47  1  0
 11 48  1  0
 12 49  1  0
 12 50  1  0
 13 51  1  0
 13 52  1  0
 16 53  1  0
 17 54  1  0
 19 55  1  0
 19 56  1  0
 20 57  1  0
 20 58  1  0
 23 59  1  0
 24 60  1  0
 24 61  1  0
 25 62  1  0
 25 63  1  0
 26 64  1  0
 26 65  1  0
 27 66  1  0
 27 67  1  0
 28 68  1  0
 28 69  1  0
 29 70  1  0
 30 71  1  0
 32 72  1  0
 32 73  1  0
M  END
$$$$
