
     RDKit          3D

 60 63  0  0  0  0  0  0  0  0999 V2000
   -0.4122   -2.8340    3.1196 C   0  0  0  0  0  0  0  0  0  0  0  0
    0.3913   -2.8023    1.8228 C   0  0  0  0  0  0  0  0  0  0  0  0
   -0.0405   -1.6881    0.9684 N   0  0  0  0  0  0  0  0  0  0  0  0
   -1.2882   -1.8366    0.1931 C   0  0  0  0  0  0  0  0  0  0  0  0
   -2.3383   -0.7790    0.5614 C   0  0  0  0  0  0  0  0  0  0  0  0
   -3.1580   -0.5343   -0.5788 O   0  0  0  0  0  0  0  0  0  0  0  0
   -4.1847    0.4154   -0.6314 C   0  0  0  0  0  0  0  0  0  0  0  0
   -5.4954   -0.0664   -0.7457 C   0  0  0  0  0  0  0  0  0  0  0  0
   -6.5711    0.8125   -0.8684 C   0  0  0  0  0  0  0  0  0  0  0  0
   -6.3483    2.1872   -0.8867 C   0  0  0  0  0  0  0  0  0  0  0  0
   -5.0496    2.6880   -0.7805 C   0  0  0  0  0  0  0  0  0  0  0  0
   -3.9461    1.8198   -0.6601 C   0  0  0  0  0  0  0  0  0  0  0  0
   -2.5703    2.4365   -0.4920 C   0  0  0  0  0  0  0  0  0  0  0  0
   -1.5467    1.9601   -1.5424 C   0  0  0  0  0  0  0  0  0  0  0  0
   -0.1112    2.4565   -1.2602 C   0  0  0  0  0  0  0  0  0  0  0  0
    0.5560    1.8377   -0.0072 C   0  0  0  0  0  0  0  0  0  0  0  0
    1.1149    0.3780   -0.1682 C   0  0  0  0  0  0  0  0  0  0  0  0
    2.6778    0.4314   -0.1720 C   0  0  0  0  0  0  0  0  0  0  0  0
    3.2178   -0.8845   -0.5249 N   0  0  0  0  0  0  0  0  0  0  0  0
    4.3940   -1.4288    0.1037 C   0  0  0  0  0  0  0  0  0  0  0  0
    4.5326   -2.6804    0.1787 O   0  0  0  0  0  0  0  0  0  0  0  0
    5.4637   -0.5628    0.6346 C   0  0  0  0  0  0  0  0  0  0  0  0
    6.5530   -0.9640    1.3752 C   0  0  0  0  0  0  0  0  0  0  0  0
    7.3066    0.1156    1.6571 N   0  0  0  0  0  0  0  0  0  0  0  0
    6.6401    1.1322    1.0700 C   0  0  0  0  0  0  0  0  0  0  0  0
    5.5479    0.7322    0.4599 O   0  0  0  0  0  0  0  0  0  0  0  0
    2.5338   -1.6529   -1.5636 C   0  0  0  0  0  0  0  0  0  0  0  0
    1.4936   -0.7719   -2.2584 C   0  0  0  0  0  0  0  0  0  0  0  0
    0.5619   -0.2221   -1.3432 O   0  0  0  0  0  0  0  0  0  0  0  0
    0.6888   -0.4392    1.0557 C   0  0  0  0  0  0  0  0  0  0  0  0
    1.0381   -0.0280    2.1982 O   0  0  0  0  0  0  0  0  0  0  0  0
   -0.2943   -1.8780    3.6696 H   0  0  0  0  0  0  0  0  0  0  0  0
   -1.4898   -2.9945    2.9029 H   0  0  0  0  0  0  0  0  0  0  0  0
   -0.0491   -3.6622    3.7628 H   0  0  0  0  0  0  0  0  0  0  0  0
    0.2636   -3.7650    1.2830 H   0  0  0  0  0  0  0  0  0  0  0  0
    1.4732   -2.7075    2.0629 H   0  0  0  0  0  0  0  0  0  0  0  0
   -1.0705   -1.8142   -0.8917 H   0  0  0  0  0  0  0  0  0  0  0  0
   -1.7381   -2.8391    0.3685 H   0  0  0  0  0  0  0  0  0  0  0  0
   -1.8492    0.1515    0.8889 H   0  0  0  0  0  0  0  0  0  0  0  0
   -2.9652   -1.1478    1.4022 H   0  0  0  0  0  0  0  0  0  0  0  0
   -5.6794   -1.1335   -0.7434 H   0  0  0  0  0  0  0  0  0  0  0  0
   -7.5786    0.4260   -0.9532 H   0  0  0  0  0  0  0  0  0  0  0  0
   -7.1843    2.8684   -0.9804 H   0  0  0  0  0  0  0  0  0  0  0  0
   -4.9088    3.7618   -0.7890 H   0  0  0  0  0  0  0  0  0  0  0  0
   -2.6315    3.5439   -0.5750 H   0  0  0  0  0  0  0  0  0  0  0  0
   -2.2431    2.2504    0.5443 H   0  0  0  0  0  0  0  0  0  0  0  0
   -1.8607    2.3598   -2.5311 H   0  0  0  0  0  0  0  0  0  0  0  0
   -1.5486    0.8640   -1.6432 H   0  0  0  0  0  0  0  0  0  0  0  0
   -0.1438    3.5611   -1.1350 H   0  0  0  0  0  0  0  0  0  0  0  0
    0.5274    2.2597   -2.1482 H   0  0  0  0  0  0  0  0  0  0  0  0
    1.3819    2.5242    0.2858 H   0  0  0  0  0  0  0  0  0  0  0  0
   -0.1394    1.9077    0.8517 H   0  0  0  0  0  0  0  0  0  0  0  0
    3.0357    1.1760   -0.9168 H   0  0  0  0  0  0  0  0  0  0  0  0
    3.0460    0.7536    0.8264 H   0  0  0  0  0  0  0  0  0  0  0  0
    6.7889   -1.9726    1.6882 H   0  0  0  0  0  0  0  0  0  0  0  0
    6.9709    2.1617    1.0988 H   0  0  0  0  0  0  0  0  0  0  0  0
    2.0337   -2.5339   -1.1058 H   0  0  0  0  0  0  0  0  0  0  0  0
    3.2703   -2.0043   -2.3189 H   0  0  0  0  0  0  0  0  0  0  0  0
    1.9922    0.0454   -2.8245 H   0  0  0  0  0  0  0  0  0  0  0  0
    0.9388   -1.3902   -2.9946 H   0  0  0  0  0  0  0  0  0  0  0  0
  1  2  1  0
  2  3  1  0
  3  4  1  0
  4  5  1  0
  5  6  1  0
  6  7  1  0
  7  8  2  0
  8  9  1  0
  9 10  2  0
 10 11  1  0
 11 12  2  0
 12 13  1  0
 13 14  1  0
 14 15  1  0
 15 16  1  0
 16 17  1  0
 17 18  1  0
 18 19  1  0
 19 20  1  0
 20 21  2  0
 20 22  1  0
 22 23  2  0
 23 24  1  0
 24 25  2  0
 25 26  1  0
 19 27  1  0
 27 28  1  0
 28 29  1  0
 17 30  1  0
 30 31  2  0
 30  3  1  0
 12  7  1  0
 29 17  1  0
 26 22  1  0
  1 32  1  0
  1 33  1  0
  1 34  1  0
  2 35  1  0
  2 36  1  0
  4 37  1  0
  4 38  1  0
  5 39  1  0
  5 40  1  0
  8 41  1  0
  9 42  1  0
 10 43  1  0
 11 44  1  0
 13 45  1  0
 13 46  1  0
 14 47  1  0
 14 48  1  0
 15 49  1  0
 15 50  1  0
 16 51  1  0
 16 52  1  0
 18 53  1  0
 18 54  1  0
 23 55  1  0
 25 56  1  0
 27 57  1  0
 27 58  1  0
 28 59  1  0
 28 60  1  0
M  END
$$$$
