
     RDKit          3D

 76 78  0  0  0  0  0  0  0  0999 V2000
   -4.0217   -2.0794   -1.4389 C   0  0  0  0  0  0  0  0  0  0  0  0
   -4.4981   -2.2716    0.0118 C   0  0  0  0  0  0  0  0  0  0  0  0
   -5.5428   -3.3941    0.0611 C   0  0  0  0  0  0  0  0  0  0  0  0
   -5.0841   -0.9666    0.6018 C   0  0  0  0  0  0  0  0  0  0  0  0
   -4.0106    0.0504    1.0544 C   0  0  0  0  0  0  0  0  0  0  0  0
   -3.2805   -0.4693    2.2196 N   0  0  0  0  0  0  0  0  0  0  0  0
   -1.8627   -0.6971    2.2609 C   0  0  0  0  0  0  0  0  0  0  0  0
   -1.2580   -0.5483    3.3572 O   0  0  0  0  0  0  0  0  0  0  0  0
   -1.0979   -1.2420    1.0812 C   0  0  0  0  0  0  0  0  0  0  0  0
    0.1414   -0.3876    0.7698 C   0  0  0  0  0  0  0  0  0  0  0  0
    0.9813   -0.9241   -0.4137 C   0  0  0  0  0  0  0  0  0  0  0  0
    1.5070   -2.3249   -0.1220 C   0  0  0  0  0  0  0  0  0  0  0  0
    0.8264   -3.3178   -0.5054 O   0  0  0  0  0  0  0  0  0  0  0  0
    2.7106   -2.5628    0.6494 N   0  0  0  0  0  0  0  0  0  0  0  0
    3.0403   -3.9443    1.0224 C   0  0  0  0  0  0  0  0  0  0  0  0
    3.6409   -1.4876    1.0220 C   0  0  0  0  0  0  0  0  0  0  0  0
    4.6034   -1.1934   -0.1331 C   0  0  0  0  0  0  0  0  0  0  0  0
    5.4736   -0.0090    0.1894 C   0  0  0  0  0  0  0  0  0  0  0  0
    4.9500    1.2899    0.0965 C   0  0  0  0  0  0  0  0  0  0  0  0
    5.7466    2.3968    0.4041 C   0  0  0  0  0  0  0  0  0  0  0  0
    7.0689    2.2125    0.8188 C   0  0  0  0  0  0  0  0  0  0  0  0
    7.5944    0.9214    0.9292 C   0  0  0  0  0  0  0  0  0  0  0  0
    6.7981   -0.1880    0.6224 C   0  0  0  0  0  0  0  0  0  0  0  0
    0.2108   -0.8947   -1.6709 N   0  0  0  0  0  0  0  0  0  0  0  0
   -0.1693    0.3081   -2.3630 C   0  0  0  0  0  0  0  0  0  0  0  0
   -1.0313    0.2387   -3.2807 O   0  0  0  0  0  0  0  0  0  0  0  0
    0.3830    1.6304   -2.0097 C   0  0  0  0  0  0  0  0  0  0  0  0
    1.7586    1.8769   -2.1344 C   0  0  0  0  0  0  0  0  0  0  0  0
    2.2855    3.1206   -1.7788 C   0  0  0  0  0  0  0  0  0  0  0  0
    1.4439    4.1253   -1.2950 C   0  0  0  0  0  0  0  0  0  0  0  0
    0.0708    3.8935   -1.1751 C   0  0  0  0  0  0  0  0  0  0  0  0
   -0.4732    2.6494   -1.5502 C   0  0  0  0  0  0  0  0  0  0  0  0
   -1.8490    2.3896   -1.4764 O   0  0  0  0  0  0  0  0  0  0  0  0
   -2.7378    3.0089   -0.5495 C   0  0  0  0  0  0  0  0  0  0  0  0
   -4.1672    2.5167   -0.8015 C   0  0  0  0  0  0  0  0  0  0  0  0
   -4.8971    2.4074    0.4607 N   0  0  0  0  0  0  0  0  0  0  0  0
   -4.6997    1.3523    1.4181 C   0  0  0  0  0  0  0  0  0  0  0  0
   -5.2038    1.4815    2.5677 O   0  0  0  0  0  0  0  0  0  0  0  0
   -3.4889   -2.9923   -1.7811 H   0  0  0  0  0  0  0  0  0  0  0  0
   -3.3242   -1.2215   -1.5295 H   0  0  0  0  0  0  0  0  0  0  0  0
   -4.8845   -1.8900   -2.1182 H   0  0  0  0  0  0  0  0  0  0  0  0
   -3.6370   -2.6068    0.6273 H   0  0  0  0  0  0  0  0  0  0  0  0
   -5.8418   -3.5926    1.1125 H   0  0  0  0  0  0  0  0  0  0  0  0
   -6.4470   -3.1204   -0.5249 H   0  0  0  0  0  0  0  0  0  0  0  0
   -5.1187   -4.3363   -0.3550 H   0  0  0  0  0  0  0  0  0  0  0  0
   -5.7539   -0.4978   -0.1534 H   0  0  0  0  0  0  0  0  0  0  0  0
   -5.7191   -1.2062    1.4851 H   0  0  0  0  0  0  0  0  0  0  0  0
   -3.2997    0.2437    0.2324 H   0  0  0  0  0  0  0  0  0  0  0  0
   -3.8012   -0.5709    3.1190 H   0  0  0  0  0  0  0  0  0  0  0  0
   -0.7892   -2.2772    1.3365 H   0  0  0  0  0  0  0  0  0  0  0  0
   -1.7271   -1.3053    0.1798 H   0  0  0  0  0  0  0  0  0  0  0  0
    0.7857   -0.3402    1.6735 H   0  0  0  0  0  0  0  0  0  0  0  0
   -0.1845    0.6499    0.5496 H   0  0  0  0  0  0  0  0  0  0  0  0
    1.8500   -0.2549   -0.5423 H   0  0  0  0  0  0  0  0  0  0  0  0
    4.0093   -4.0062    1.5612 H   0  0  0  0  0  0  0  0  0  0  0  0
    2.2462   -4.3525    1.6814 H   0  0  0  0  0  0  0  0  0  0  0  0
    3.1185   -4.5706    0.1096 H   0  0  0  0  0  0  0  0  0  0  0  0
    3.0866   -0.5774    1.3269 H   0  0  0  0  0  0  0  0  0  0  0  0
    4.2345   -1.7847    1.9138 H   0  0  0  0  0  0  0  0  0  0  0  0
    4.0336   -0.9839   -1.0624 H   0  0  0  0  0  0  0  0  0  0  0  0
    5.2274   -2.0927   -0.3291 H   0  0  0  0  0  0  0  0  0  0  0  0
    3.9237    1.4397   -0.2089 H   0  0  0  0  0  0  0  0  0  0  0  0
    5.3379    3.3964    0.3252 H   0  0  0  0  0  0  0  0  0  0  0  0
    7.6836    3.0699    1.0598 H   0  0  0  0  0  0  0  0  0  0  0  0
    8.6156    0.7788    1.2574 H   0  0  0  0  0  0  0  0  0  0  0  0
    7.2131   -1.1835    0.7180 H   0  0  0  0  0  0  0  0  0  0  0  0
   -0.1634   -1.7854   -2.0691 H   0  0  0  0  0  0  0  0  0  0  0  0
    2.4208    1.1059   -2.5080 H   0  0  0  0  0  0  0  0  0  0  0  0
    3.3479    3.3056   -1.8750 H   0  0  0  0  0  0  0  0  0  0  0  0
    1.8558    5.0884   -1.0204 H   0  0  0  0  0  0  0  0  0  0  0  0
   -0.5617    4.6941   -0.8127 H   0  0  0  0  0  0  0  0  0  0  0  0
   -2.4086    2.7497    0.4819 H   0  0  0  0  0  0  0  0  0  0  0  0
   -2.7214    4.1150   -0.6599 H   0  0  0  0  0  0  0  0  0  0  0  0
   -4.1853    1.5450   -1.3431 H   0  0  0  0  0  0  0  0  0  0  0  0
   -4.6855    3.2480   -1.4619 H   0  0  0  0  0  0  0  0  0  0  0  0
   -5.5981    3.1518    0.6838 H   0  0  0  0  0  0  0  0  0  0  0  0
  1  2  1  0
  2  3  1  0
  2  4  1  0
  4  5  1  0
  5  6  1  0
  6  7  1  0
  7  8  2  0
  7  9  1  0
  9 10  1  0
 10 11  1  0
 11 12  1  0
 12 13  2  0
 12 14  1  0
 14 15  1  0
 14 16  1  0
 16 17  1  0
 17 18  1  0
 18 19  2  0
 19 20  1  0
 20 21  2  0
 21 22  1  0
 22 23  2  0
 11 24  1  0
 24 25  1  0
 25 26  2  0
 25 27  1  0
 27 28  2  0
 28 29  1  0
 29 30  2  0
 30 31  1  0
 31 32  2  0
 32 33  1  0
 33 34  1  0
 34 35  1  0
 35 36  1  0
 36 37  1  0
 37 38  2  0
 37  5  1  0
 23 18  1  0
 32 27  1  0
  1 39  1  0
  1 40  1  0
  1 41  1  0
  2 42  1  0
  3 43  1  0
  3 44  1  0
  3 45  1  0
  4 46  1  0
  4 47  1  0
  5 48  1  0
  6 49  1  0
  9 50  1  0
  9 51  1  0
 10 52  1  0
 10 53  1  0
 11 54  1  0
 15 55  1  0
 15 56  1  0
 15 57  1  0
 16 58  1  0
 16 59  1  0
 17 60  1  0
 17 61  1  0
 19 62  1  0
 20 63  1  0
 21 64  1  0
 22 65  1  0
 23 66  1  0
 24 67  1  0
 28 68  1  0
 29 69  1  0
 30 70  1  0
 31 71  1  0
 34 72  1  0
 34 73  1  0
 35 74  1  0
 35 75  1  0
 36 76  1  0
M  END
$$$$
