
     RDKit          3D

 74 76  0  0  0  0  0  0  0  0999 V2000
   -3.7372   -4.0311    1.3421 C   0  0  0  0  0  0  0  0  0  0  0  0
   -3.6479   -4.0434   -0.1857 C   0  0  0  0  0  0  0  0  0  0  0  0
   -4.1466   -2.7672   -0.9187 C   0  0  0  0  0  0  0  0  0  0  0  0
   -5.6460   -2.5059   -0.6933 C   0  0  0  0  0  0  0  0  0  0  0  0
   -3.2809   -1.4720   -0.7681 C   0  0  0  0  0  0  0  0  0  0  0  0
   -1.8402   -1.7719   -0.8248 N   0  0  0  0  0  0  0  0  0  0  0  0
   -0.9644   -1.8408    0.3092 C   0  0  0  0  0  0  0  0  0  0  0  0
   -0.5384   -2.9653    0.6849 O   0  0  0  0  0  0  0  0  0  0  0  0
   -0.4418   -0.5893    0.9743 C   0  0  0  0  0  0  0  0  0  0  0  0
    0.8459   -0.0257    0.3232 C   0  0  0  0  0  0  0  0  0  0  0  0
    2.0808   -0.8595    0.6121 C   0  0  0  0  0  0  0  0  0  0  0  0
    1.9731   -2.0230    1.0858 O   0  0  0  0  0  0  0  0  0  0  0  0
    3.3956   -0.3093    0.4370 N   0  0  0  0  0  0  0  0  0  0  0  0
    3.7855    0.3365   -0.8142 C   0  0  0  0  0  0  0  0  0  0  0  0
    5.2987    0.1746   -1.0445 C   0  0  0  0  0  0  0  0  0  0  0  0
    5.6619   -1.2199   -1.5832 C   0  0  0  0  0  0  0  0  0  0  0  0
    6.0540    0.5285    0.1084 O   0  0  0  0  0  0  0  0  0  0  0  0
    5.7026   -0.2426    1.2476 C   0  0  0  0  0  0  0  0  0  0  0  0
    6.5906    0.1837    2.4156 C   0  0  0  0  0  0  0  0  0  0  0  0
    4.2221   -0.0565    1.6137 C   0  0  0  0  0  0  0  0  0  0  0  0
    0.6628    0.1452   -1.1241 N   0  0  0  0  0  0  0  0  0  0  0  0
    0.5992    1.4173   -1.7981 C   0  0  0  0  0  0  0  0  0  0  0  0
    0.6131    1.4446   -3.0572 O   0  0  0  0  0  0  0  0  0  0  0  0
    0.5708    2.6976   -1.0643 C   0  0  0  0  0  0  0  0  0  0  0  0
    1.7058    3.5226   -1.1439 C   0  0  0  0  0  0  0  0  0  0  0  0
    1.8159    4.6594   -0.3427 C   0  0  0  0  0  0  0  0  0  0  0  0
    0.7885    4.9931    0.5384 C   0  0  0  0  0  0  0  0  0  0  0  0
   -0.3673    4.2120    0.5918 C   0  0  0  0  0  0  0  0  0  0  0  0
   -0.5110    3.0870   -0.2311 C   0  0  0  0  0  0  0  0  0  0  0  0
   -1.7450    2.4205   -0.1864 O   0  0  0  0  0  0  0  0  0  0  0  0
   -2.3786    1.7932   -1.2990 C   0  0  0  0  0  0  0  0  0  0  0  0
   -3.8578    1.5705   -0.9849 C   0  0  0  0  0  0  0  0  0  0  0  0
   -4.0326    0.8107    0.2676 N   0  0  0  0  0  0  0  0  0  0  0  0
   -4.6012    1.4935    1.4380 C   0  0  0  0  0  0  0  0  0  0  0  0
   -3.6598   -0.5854    0.4140 C   0  0  0  0  0  0  0  0  0  0  0  0
   -3.6468   -1.0877    1.5698 O   0  0  0  0  0  0  0  0  0  0  0  0
   -4.7360   -3.6979    1.6919 H   0  0  0  0  0  0  0  0  0  0  0  0
   -3.5715   -5.0622    1.7201 H   0  0  0  0  0  0  0  0  0  0  0  0
   -2.9419   -3.3978    1.7815 H   0  0  0  0  0  0  0  0  0  0  0  0
   -4.2532   -4.9052   -0.5482 H   0  0  0  0  0  0  0  0  0  0  0  0
   -2.6008   -4.2659   -0.4830 H   0  0  0  0  0  0  0  0  0  0  0  0
   -4.0678   -3.0397   -1.9963 H   0  0  0  0  0  0  0  0  0  0  0  0
   -5.9942   -1.6977   -1.3721 H   0  0  0  0  0  0  0  0  0  0  0  0
   -5.8555   -2.1977    0.3510 H   0  0  0  0  0  0  0  0  0  0  0  0
   -6.2345   -3.4204   -0.9164 H   0  0  0  0  0  0  0  0  0  0  0  0
   -3.5009   -0.9063   -1.6910 H   0  0  0  0  0  0  0  0  0  0  0  0
   -1.5057   -2.2506   -1.6914 H   0  0  0  0  0  0  0  0  0  0  0  0
   -0.2543   -0.7969    2.0505 H   0  0  0  0  0  0  0  0  0  0  0  0
   -1.2175    0.1970    0.9469 H   0  0  0  0  0  0  0  0  0  0  0  0
    1.0346    0.9588    0.7999 H   0  0  0  0  0  0  0  0  0  0  0  0
    3.2305   -0.1003   -1.6735 H   0  0  0  0  0  0  0  0  0  0  0  0
    3.5435    1.4161   -0.7471 H   0  0  0  0  0  0  0  0  0  0  0  0
    5.5793    0.8967   -1.8426 H   0  0  0  0  0  0  0  0  0  0  0  0
    5.1896   -2.0229   -0.9790 H   0  0  0  0  0  0  0  0  0  0  0  0
    5.3048   -1.3252   -2.6293 H   0  0  0  0  0  0  0  0  0  0  0  0
    6.7632   -1.3558   -1.5718 H   0  0  0  0  0  0  0  0  0  0  0  0
    5.9049   -1.3212    1.0696 H   0  0  0  0  0  0  0  0  0  0  0  0
    6.4433    1.2619    2.6426 H   0  0  0  0  0  0  0  0  0  0  0  0
    7.6584    0.0210    2.1544 H   0  0  0  0  0  0  0  0  0  0  0  0
    6.3536   -0.4150    3.3211 H   0  0  0  0  0  0  0  0  0  0  0  0
    4.0404    0.9839    1.9620 H   0  0  0  0  0  0  0  0  0  0  0  0
    3.9541   -0.7567    2.4363 H   0  0  0  0  0  0  0  0  0  0  0  0
    0.6306   -0.7147   -1.7173 H   0  0  0  0  0  0  0  0  0  0  0  0
    2.5238    3.2680   -1.8060 H   0  0  0  0  0  0  0  0  0  0  0  0
    2.7052    5.2746   -0.3944 H   0  0  0  0  0  0  0  0  0  0  0  0
    0.8807    5.8676    1.1691 H   0  0  0  0  0  0  0  0  0  0  0  0
   -1.1739    4.5023    1.2536 H   0  0  0  0  0  0  0  0  0  0  0  0
   -2.2948    2.4445   -2.1959 H   0  0  0  0  0  0  0  0  0  0  0  0
   -1.8998    0.8245   -1.5199 H   0  0  0  0  0  0  0  0  0  0  0  0
   -4.3717    1.0631   -1.8272 H   0  0  0  0  0  0  0  0  0  0  0  0
   -4.3394    2.5695   -0.9127 H   0  0  0  0  0  0  0  0  0  0  0  0
   -3.8730    1.4689    2.2773 H   0  0  0  0  0  0  0  0  0  0  0  0
   -5.5368    0.9818    1.7497 H   0  0  0  0  0  0  0  0  0  0  0  0
   -4.8412    2.5563    1.2288 H   0  0  0  0  0  0  0  0  0  0  0  0
  1  2  1  0
  2  3  1  0
  3  4  1  0
  3  5  1  0
  5  6  1  0
  6  7  1  0
  7  8  2  0
  7  9  1  0
  9 10  1  0
 10 11  1  0
 11 12  2  0
 11 13  1  0
 13 14  1  0
 14 15  1  0
 15 16  1  0
 15 17  1  0
 17 18  1  0
 18 19  1  0
 18 20  1  0
 10 21  1  0
 21 22  1  0
 22 23  2  0
 22 24  1  0
 24 25  2  0
 25 26  1  0
 26 27  2  0
 27 28  1  0
 28 29  2  0
 29 30  1  0
 30 31  1  0
 31 32  1  0
 32 33  1  0
 33 34  1  0
 33 35  1  0
 35 36  2  0
 35  5  1  0
 20 13  1  0
 29 24  1  0
  1 37  1  0
  1 38  1  0
  1 39  1  0
  2 40  1  0
  2 41  1  0
  3 42  1  0
  4 43  1  0
  4 44  1  0
  4 45  1  0
  5 46  1  0
  6 47  1  0
  9 48  1  0
  9 49  1  0
 10 50  1  0
 14 51  1  0
 14 52  1  0
 15 53  1  0
 16 54  1  0
 16 55  1  0
 16 56  1  0
 18 57  1  0
 19 58  1  0
 19 59  1  0
 19 60  1  0
 20 61  1  0
 20 62  1  0
 21 63  1  0
 25 64  1  0
 26 65  1  0
 27 66  1  0
 28 67  1  0
 31 68  1  0
 31 69  1  0
 32 70  1  0
 32 71  1  0
 34 72  1  0
 34 73  1  0
 34 74  1  0
M  END
$$$$
