
     RDKit          3D

 80 82  0  0  0  0  0  0  0  0999 V2000
   -5.6784   -1.5105    0.7883 C   0  0  0  0  0  0  0  0  0  0  0  0
   -5.6897   -0.9951   -0.6636 C   0  0  0  0  0  0  0  0  0  0  0  0
   -6.7239    0.1324   -0.8146 C   0  0  0  0  0  0  0  0  0  0  0  0
   -4.2943   -0.5319   -1.1681 C   0  0  0  0  0  0  0  0  0  0  0  0
   -3.3041   -1.6954   -1.3515 C   0  0  0  0  0  0  0  0  0  0  0  0
   -2.6155   -1.9640   -0.1314 O   0  0  0  0  0  0  0  0  0  0  0  0
   -1.7588   -3.0513    0.0464 C   0  0  0  0  0  0  0  0  0  0  0  0
   -2.0573   -3.9490    1.0801 C   0  0  0  0  0  0  0  0  0  0  0  0
   -1.3107   -5.1192    1.2420 C   0  0  0  0  0  0  0  0  0  0  0  0
   -0.2544   -5.3978    0.3756 C   0  0  0  0  0  0  0  0  0  0  0  0
    0.0789   -4.4912   -0.6356 C   0  0  0  0  0  0  0  0  0  0  0  0
   -0.6321   -3.2831   -0.7820 C   0  0  0  0  0  0  0  0  0  0  0  0
   -0.1799   -2.3208   -1.8173 C   0  0  0  0  0  0  0  0  0  0  0  0
    0.0664   -2.7557   -2.9774 O   0  0  0  0  0  0  0  0  0  0  0  0
   -0.0451   -0.9089   -1.5668 N   0  0  0  0  0  0  0  0  0  0  0  0
    0.8068   -0.2624   -0.5511 C   0  0  0  0  0  0  0  0  0  0  0  0
    2.0286   -1.0609   -0.1499 C   0  0  0  0  0  0  0  0  0  0  0  0
    1.9840   -2.3155   -0.0278 O   0  0  0  0  0  0  0  0  0  0  0  0
    3.2547   -0.3779    0.1369 N   0  0  0  0  0  0  0  0  0  0  0  0
    4.5198   -1.1160    0.2339 C   0  0  0  0  0  0  0  0  0  0  0  0
    5.7056   -0.1694    0.4017 C   0  0  0  0  0  0  0  0  0  0  0  0
    6.9100   -0.9313    0.3842 O   0  0  0  0  0  0  0  0  0  0  0  0
    8.2004   -0.3912    0.4152 C   0  0  0  0  0  0  0  0  0  0  0  0
    8.4401    0.9928    0.5002 C   0  0  0  0  0  0  0  0  0  0  0  0
    9.7509    1.4767    0.5230 C   0  0  0  0  0  0  0  0  0  0  0  0
   10.8284    0.5882    0.4644 C   0  0  0  0  0  0  0  0  0  0  0  0
   12.4707    1.2079    0.4924 Cl  0  0  0  0  0  0  0  0  0  0  0  0
   10.5930   -0.7861    0.3785 C   0  0  0  0  0  0  0  0  0  0  0  0
    9.2839   -1.2735    0.3576 C   0  0  0  0  0  0  0  0  0  0  0  0
   -0.0122    0.1996    0.6715 C   0  0  0  0  0  0  0  0  0  0  0  0
   -0.6222    1.5965    0.4389 C   0  0  0  0  0  0  0  0  0  0  0  0
   -1.3843    2.0794    1.6502 C   0  0  0  0  0  0  0  0  0  0  0  0
   -0.7590    2.1616    2.7399 O   0  0  0  0  0  0  0  0  0  0  0  0
   -2.7825    2.4210    1.6488 N   0  0  0  0  0  0  0  0  0  0  0  0
   -3.6121    2.9084    0.5328 C   0  0  0  0  0  0  0  0  0  0  0  0
   -3.2348    4.3671    0.1272 C   0  0  0  0  0  0  0  0  0  0  0  0
   -1.9819    4.4843   -0.7483 C   0  0  0  0  0  0  0  0  0  0  0  0
   -4.4157    5.0989   -0.5249 C   0  0  0  0  0  0  0  0  0  0  0  0
   -3.7402    1.8958   -0.5873 C   0  0  0  0  0  0  0  0  0  0  0  0
   -4.0056    2.2692   -1.7615 O   0  0  0  0  0  0  0  0  0  0  0  0
   -3.7198    0.4926   -0.2788 N   0  0  0  0  0  0  0  0  0  0  0  0
   -6.7179   -1.7761    1.1086 H   0  0  0  0  0  0  0  0  0  0  0  0
   -5.0516   -2.4281    0.8728 H   0  0  0  0  0  0  0  0  0  0  0  0
   -5.3113   -0.7373    1.4981 H   0  0  0  0  0  0  0  0  0  0  0  0
   -6.0349   -1.8325   -1.3157 H   0  0  0  0  0  0  0  0  0  0  0  0
   -6.4437    1.0174   -0.1980 H   0  0  0  0  0  0  0  0  0  0  0  0
   -6.7988    0.4423   -1.8821 H   0  0  0  0  0  0  0  0  0  0  0  0
   -7.7185   -0.2293   -0.4794 H   0  0  0  0  0  0  0  0  0  0  0  0
   -4.4475   -0.1071   -2.1840 H   0  0  0  0  0  0  0  0  0  0  0  0
   -3.8281   -2.6093   -1.6991 H   0  0  0  0  0  0  0  0  0  0  0  0
   -2.5844   -1.4049   -2.1406 H   0  0  0  0  0  0  0  0  0  0  0  0
   -2.8991   -3.7587    1.7392 H   0  0  0  0  0  0  0  0  0  0  0  0
   -1.5713   -5.8202    2.0221 H   0  0  0  0  0  0  0  0  0  0  0  0
    0.3170   -6.3100    0.4943 H   0  0  0  0  0  0  0  0  0  0  0  0
    0.9229   -4.7091   -1.2769 H   0  0  0  0  0  0  0  0  0  0  0  0
   -0.3445   -0.2907   -2.3534 H   0  0  0  0  0  0  0  0  0  0  0  0
    1.2208    0.6510   -1.0257 H   0  0  0  0  0  0  0  0  0  0  0  0
    3.2455    0.6683    0.2163 H   0  0  0  0  0  0  0  0  0  0  0  0
    4.4712   -1.8155    1.1038 H   0  0  0  0  0  0  0  0  0  0  0  0
    4.6758   -1.7127   -0.6934 H   0  0  0  0  0  0  0  0  0  0  0  0
    5.6189    0.3748    1.3663 H   0  0  0  0  0  0  0  0  0  0  0  0
    5.7098    0.5602   -0.4354 H   0  0  0  0  0  0  0  0  0  0  0  0
    7.6259    1.7016    0.5479 H   0  0  0  0  0  0  0  0  0  0  0  0
    9.9285    2.5429    0.5799 H   0  0  0  0  0  0  0  0  0  0  0  0
   11.4200   -1.4780    0.3215 H   0  0  0  0  0  0  0  0  0  0  0  0
    9.1095   -2.3355    0.2873 H   0  0  0  0  0  0  0  0  0  0  0  0
    0.6520    0.2536    1.5659 H   0  0  0  0  0  0  0  0  0  0  0  0
   -0.8110   -0.5313    0.9087 H   0  0  0  0  0  0  0  0  0  0  0  0
    0.2183    2.3067    0.2636 H   0  0  0  0  0  0  0  0  0  0  0  0
   -1.2421    1.5909   -0.4758 H   0  0  0  0  0  0  0  0  0  0  0  0
   -3.2356    2.4663    2.5909 H   0  0  0  0  0  0  0  0  0  0  0  0
   -4.6462    2.9718    0.9396 H   0  0  0  0  0  0  0  0  0  0  0  0
   -3.0120    4.9176    1.0698 H   0  0  0  0  0  0  0  0  0  0  0  0
   -1.8063    5.5471   -1.0145 H   0  0  0  0  0  0  0  0  0  0  0  0
   -2.0739    3.8918   -1.6793 H   0  0  0  0  0  0  0  0  0  0  0  0
   -1.0851    4.1643   -0.1855 H   0  0  0  0  0  0  0  0  0  0  0  0
   -4.7386    4.6016   -1.4577 H   0  0  0  0  0  0  0  0  0  0  0  0
   -5.2724    5.1508    0.1818 H   0  0  0  0  0  0  0  0  0  0  0  0
   -4.1313    6.1423   -0.7773 H   0  0  0  0  0  0  0  0  0  0  0  0
   -3.4376    0.2087    0.6804 H   0  0  0  0  0  0  0  0  0  0  0  0
  1  2  1  0
  2  3  1  0
  2  4  1  0
  4  5  1  0
  5  6  1  0
  6  7  1  0
  7  8  2  0
  8  9  1  0
  9 10  2  0
 10 11  1  0
 11 12  2  0
 12 13  1  0
 13 14  2  0
 13 15  1  0
 15 16  1  0
 16 17  1  0
 17 18  2  0
 17 19  1  0
 19 20  1  0
 20 21  1  0
 21 22  1  0
 22 23  1  0
 23 24  2  0
 24 25  1  0
 25 26  2  0
 26 27  1  0
 26 28  1  0
 28 29  2  0
 16 30  1  0
 30 31  1  0
 31 32  1  0
 32 33  2  0
 32 34  1  0
 34 35  1  0
 35 36  1  0
 36 37  1  0
 36 38  1  0
 35 39  1  0
 39 40  2  0
 39 41  1  0
 41  4  1  0
 12  7  1  0
 29 23  1  0
  1 42  1  0
  1 43  1  0
  1 44  1  0
  2 45  1  0
  3 46  1  0
  3 47  1  0
  3 48  1  0
  4 49  1  0
  5 50  1  0
  5 51  1  0
  8 52  1  0
  9 53  1  0
 10 54  1  0
 11 55  1  0
 15 56  1  0
 16 57  1  0
 19 58  1  0
 20 59  1  0
 20 60  1  0
 21 61  1  0
 21 62  1  0
 24 63  1  0
 25 64  1  0
 28 65  1  0
 29 66  1  0
 30 67  1  0
 30 68  1  0
 31 69  1  0
 31 70  1  0
 34 71  1  0
 35 72  1  0
 36 73  1  0
 37 74  1  0
 37 75  1  0
 37 76  1  0
 38 77  1  0
 38 78  1  0
 38 79  1  0
 41 80  1  0
M  END
$$$$
