
     RDKit          3D

 73 76  0  0  0  0  0  0  0  0999 V2000
    6.6042    0.4413    0.4746 C   0  0  0  0  0  0  0  0  0  0  0  0
    5.4065    1.3493    0.7724 C   0  0  0  0  0  0  0  0  0  0  0  0
    4.4672    0.7299    1.8125 C   0  0  0  0  0  0  0  0  0  0  0  0
    4.7084    1.7218   -0.4693 N   0  0  0  0  0  0  0  0  0  0  0  0
    4.8904    2.9022   -1.0438 N   0  0  0  0  0  0  0  0  0  0  0  0
    4.1571    2.9384   -2.1725 C   0  0  0  0  0  0  0  0  0  0  0  0
    3.4942    1.7388   -2.3344 C   0  0  0  0  0  0  0  0  0  0  0  0
    3.8658    0.9881   -1.2373 C   0  0  0  0  0  0  0  0  0  0  0  0
    3.3972   -0.3805   -0.9575 C   0  0  0  0  0  0  0  0  0  0  0  0
    4.2092   -1.3352   -1.1111 O   0  0  0  0  0  0  0  0  0  0  0  0
    2.0545   -0.6448   -0.4838 N   0  0  0  0  0  0  0  0  0  0  0  0
    1.7197   -1.9695    0.0647 C   0  0  0  0  0  0  0  0  0  0  0  0
    1.4157   -2.9697   -1.0634 C   0  0  0  0  0  0  0  0  0  0  0  0
    0.8735   -4.3134   -0.5378 C   0  0  0  0  0  0  0  0  0  0  0  0
   -0.5996   -4.2410   -0.0995 C   0  0  0  0  0  0  0  0  0  0  0  0
   -1.4875   -3.9525   -1.2321 N   0  0  0  0  0  0  0  0  0  0  0  0
   -2.8423   -3.5075   -1.0559 C   0  0  0  0  0  0  0  0  0  0  0  0
   -3.5818   -3.3425   -2.0623 O   0  0  0  0  0  0  0  0  0  0  0  0
   -3.3630   -3.1652    0.2783 C   0  0  0  0  0  0  0  0  0  0  0  0
   -3.9158   -4.1700    1.0859 C   0  0  0  0  0  0  0  0  0  0  0  0
   -4.3452   -3.8734    2.3813 C   0  0  0  0  0  0  0  0  0  0  0  0
   -5.0308   -5.1355    3.3871 Cl  0  0  0  0  0  0  0  0  0  0  0  0
   -4.2123   -2.5746    2.8806 C   0  0  0  0  0  0  0  0  0  0  0  0
   -3.6641   -1.5662    2.0772 C   0  0  0  0  0  0  0  0  0  0  0  0
   -3.2447   -1.8499    0.7628 C   0  0  0  0  0  0  0  0  0  0  0  0
   -2.7096   -0.8634   -0.0839 O   0  0  0  0  0  0  0  0  0  0  0  0
   -2.4499    0.4874    0.2957 C   0  0  0  0  0  0  0  0  0  0  0  0
   -2.0437    1.3109   -0.9404 C   0  0  0  0  0  0  0  0  0  0  0  0
   -1.3792    2.6568   -0.5856 C   0  0  0  0  0  0  0  0  0  0  0  0
   -2.3717    3.6388   -0.0130 C   0  0  0  0  0  0  0  0  0  0  0  0
   -2.5267    3.7652    1.3780 C   0  0  0  0  0  0  0  0  0  0  0  0
   -3.4437    4.6798    1.9021 C   0  0  0  0  0  0  0  0  0  0  0  0
   -4.2172    5.4657    1.0430 C   0  0  0  0  0  0  0  0  0  0  0  0
   -4.0764    5.3365   -0.3409 C   0  0  0  0  0  0  0  0  0  0  0  0
   -3.1643    4.4217   -0.8686 C   0  0  0  0  0  0  0  0  0  0  0  0
   -1.2242    0.5305   -1.8834 N   0  0  0  0  0  0  0  0  0  0  0  0
    0.1836    0.2321   -1.8082 C   0  0  0  0  0  0  0  0  0  0  0  0
    0.7601   -0.1680   -2.8537 O   0  0  0  0  0  0  0  0  0  0  0  0
    0.9959    0.3803   -0.5472 C   0  0  0  0  0  0  0  0  0  0  0  0
    6.2796   -0.5452    0.0961 H   0  0  0  0  0  0  0  0  0  0  0  0
    7.2128    0.2842    1.3956 H   0  0  0  0  0  0  0  0  0  0  0  0
    7.2580    0.9153   -0.2907 H   0  0  0  0  0  0  0  0  0  0  0  0
    5.8116    2.2804    1.2282 H   0  0  0  0  0  0  0  0  0  0  0  0
    4.2020   -0.3159    1.5512 H   0  0  0  0  0  0  0  0  0  0  0  0
    3.5354    1.3369    1.9003 H   0  0  0  0  0  0  0  0  0  0  0  0
    4.9724    0.7150    2.8087 H   0  0  0  0  0  0  0  0  0  0  0  0
    4.1091    3.7896   -2.8378 H   0  0  0  0  0  0  0  0  0  0  0  0
    2.8309    1.4571   -3.1413 H   0  0  0  0  0  0  0  0  0  0  0  0
    0.8453   -1.8808    0.7429 H   0  0  0  0  0  0  0  0  0  0  0  0
    2.5621   -2.3439    0.6871 H   0  0  0  0  0  0  0  0  0  0  0  0
    2.3513   -3.1715   -1.6294 H   0  0  0  0  0  0  0  0  0  0  0  0
    0.6915   -2.5323   -1.7785 H   0  0  0  0  0  0  0  0  0  0  0  0
    0.9696   -5.0805   -1.3388 H   0  0  0  0  0  0  0  0  0  0  0  0
    1.4933   -4.6554    0.3200 H   0  0  0  0  0  0  0  0  0  0  0  0
   -0.7193   -3.4692    0.6887 H   0  0  0  0  0  0  0  0  0  0  0  0
   -0.8916   -5.2173    0.3453 H   0  0  0  0  0  0  0  0  0  0  0  0
   -1.1366   -4.0869   -2.2091 H   0  0  0  0  0  0  0  0  0  0  0  0
   -3.9941   -5.1854    0.7144 H   0  0  0  0  0  0  0  0  0  0  0  0
   -4.5290   -2.3456    3.8907 H   0  0  0  0  0  0  0  0  0  0  0  0
   -3.5724   -0.5741    2.4926 H   0  0  0  0  0  0  0  0  0  0  0  0
   -3.3745    0.9389    0.7190 H   0  0  0  0  0  0  0  0  0  0  0  0
   -1.6766    0.5093    1.0869 H   0  0  0  0  0  0  0  0  0  0  0  0
   -2.9937    1.5472   -1.4740 H   0  0  0  0  0  0  0  0  0  0  0  0
   -0.5521    2.5096    0.1364 H   0  0  0  0  0  0  0  0  0  0  0  0
   -0.9284    3.0936   -1.5034 H   0  0  0  0  0  0  0  0  0  0  0  0
   -1.9329    3.1588    2.0524 H   0  0  0  0  0  0  0  0  0  0  0  0
   -3.5526    4.7799    2.9744 H   0  0  0  0  0  0  0  0  0  0  0  0
   -4.9238    6.1746    1.4489 H   0  0  0  0  0  0  0  0  0  0  0  0
   -4.6719    5.9513   -1.0047 H   0  0  0  0  0  0  0  0  0  0  0  0
   -3.0648    4.3301   -1.9430 H   0  0  0  0  0  0  0  0  0  0  0  0
   -1.6970    0.2550   -2.7750 H   0  0  0  0  0  0  0  0  0  0  0  0
    1.4245    1.4001   -0.5062 H   0  0  0  0  0  0  0  0  0  0  0  0
    0.3522    0.2844    0.3414 H   0  0  0  0  0  0  0  0  0  0  0  0
  1  2  1  0
  2  3  1  0
  2  4  1  0
  4  5  1  0
  5  6  2  0
  6  7  1  0
  7  8  2  0
  8  9  1  0
  9 10  2  0
  9 11  1  0
 11 12  1  0
 12 13  1  0
 13 14  1  0
 14 15  1  0
 15 16  1  0
 16 17  1  0
 17 18  2  0
 17 19  1  0
 19 20  2  0
 20 21  1  0
 21 22  1  0
 21 23  2  0
 23 24  1  0
 24 25  2  0
 25 26  1  0
 26 27  1  0
 27 28  1  0
 28 29  1  0
 29 30  1  0
 30 31  2  0
 31 32  1  0
 32 33  2  0
 33 34  1  0
 34 35  2  0
 28 36  1  0
 36 37  1  0
 37 38  2  0
 37 39  1  0
  8  4  1  0
 39 11  1  0
 25 19  1  0
 35 30  1  0
  1 40  1  0
  1 41  1  0
  1 42  1  0
  2 43  1  0
  3 44  1  0
  3 45  1  0
  3 46  1  0
  6 47  1  0
  7 48  1  0
 12 49  1  0
 12 50  1  0
 13 51  1  0
 13 52  1  0
 14 53  1  0
 14 54  1  0
 15 55  1  0
 15 56  1  0
 16 57  1  0
 20 58  1  0
 23 59  1  0
 24 60  1  0
 27 61  1  0
 27 62  1  0
 28 63  1  0
 29 64  1  0
 29 65  1  0
 31 66  1  0
 32 67  1  0
 33 68  1  0
 34 69  1  0
 35 70  1  0
 36 71  1  0
 39 72  1  0
 39 73  1  0
M  END
$$$$
