
     RDKit          3D

 84 86  0  0  0  0  0  0  0  0999 V2000
   10.4870    1.7667    0.7443 C   0  0  0  0  0  0  0  0  0  0  0  0
    9.4216    0.9620    0.0201 C   0  0  0  0  0  0  0  0  0  0  0  0
    8.1351    1.3185    0.5192 O   0  0  0  0  0  0  0  0  0  0  0  0
    6.9306    0.7174    0.1199 C   0  0  0  0  0  0  0  0  0  0  0  0
    6.8915   -0.3119   -0.8405 C   0  0  0  0  0  0  0  0  0  0  0  0
    5.6775   -0.8996   -1.1992 C   0  0  0  0  0  0  0  0  0  0  0  0
    4.4817   -0.4658   -0.6136 C   0  0  0  0  0  0  0  0  0  0  0  0
    3.1797   -1.1324   -0.9688 C   0  0  0  0  0  0  0  0  0  0  0  0
    2.8775   -2.2807   -0.0003 C   0  0  0  0  0  0  0  0  0  0  0  0
    1.6252   -3.0617   -0.4108 C   0  0  0  0  0  0  0  0  0  0  0  0
    0.4260   -2.2264   -0.3094 N   0  0  0  0  0  0  0  0  0  0  0  0
   -0.3161   -1.7972   -1.4652 C   0  0  0  0  0  0  0  0  0  0  0  0
    0.2283   -1.8500   -2.6027 O   0  0  0  0  0  0  0  0  0  0  0  0
   -1.7803   -1.4051   -1.3773 C   0  0  0  0  0  0  0  0  0  0  0  0
   -2.1947   -0.7440   -0.0377 C   0  0  0  0  0  0  0  0  0  0  0  0
   -2.7810   -1.7195    0.9477 C   0  0  0  0  0  0  0  0  0  0  0  0
   -2.2004   -2.8173    1.1562 O   0  0  0  0  0  0  0  0  0  0  0  0
   -3.8873   -1.3455    1.7828 N   0  0  0  0  0  0  0  0  0  0  0  0
   -5.2891   -1.3035    1.3323 C   0  0  0  0  0  0  0  0  0  0  0  0
   -5.7856   -2.7088    0.8688 C   0  0  0  0  0  0  0  0  0  0  0  0
   -7.3089   -2.7230    0.6328 C   0  0  0  0  0  0  0  0  0  0  0  0
   -5.4543   -3.7929    1.9105 C   0  0  0  0  0  0  0  0  0  0  0  0
   -5.4888   -0.2032    0.3069 C   0  0  0  0  0  0  0  0  0  0  0  0
   -5.8736   -0.4719   -0.8632 O   0  0  0  0  0  0  0  0  0  0  0  0
   -5.2043    1.1559    0.6702 N   0  0  0  0  0  0  0  0  0  0  0  0
   -5.8631    2.3161    0.0632 C   0  0  0  0  0  0  0  0  0  0  0  0
   -5.5266    2.5242   -1.4296 C   0  0  0  0  0  0  0  0  0  0  0  0
   -4.0970    2.1526   -1.8315 C   0  0  0  0  0  0  0  0  0  0  0  0
   -3.1563    2.6513   -0.8832 O   0  0  0  0  0  0  0  0  0  0  0  0
   -1.7580    2.4645   -0.8856 C   0  0  0  0  0  0  0  0  0  0  0  0
   -1.0420    3.1906    0.0770 C   0  0  0  0  0  0  0  0  0  0  0  0
    0.3486    3.1106    0.1542 C   0  0  0  0  0  0  0  0  0  0  0  0
    1.0506    2.3043   -0.7375 C   0  0  0  0  0  0  0  0  0  0  0  0
    0.3628    1.5575   -1.6932 C   0  0  0  0  0  0  0  0  0  0  0  0
   -1.0381    1.6033   -1.7683 C   0  0  0  0  0  0  0  0  0  0  0  0
   -1.6790    0.7687   -2.7975 C   0  0  0  0  0  0  0  0  0  0  0  0
   -1.8149    1.2445   -3.9561 O   0  0  0  0  0  0  0  0  0  0  0  0
   -2.1558   -0.5644   -2.5267 N   0  0  0  0  0  0  0  0  0  0  0  0
    4.5156    0.5552    0.3478 C   0  0  0  0  0  0  0  0  0  0  0  0
    5.7357    1.1595    0.7104 C   0  0  0  0  0  0  0  0  0  0  0  0
    5.8015    2.1980    1.6545 O   0  0  0  0  0  0  0  0  0  0  0  0
    4.6715    2.7541    2.3192 C   0  0  0  0  0  0  0  0  0  0  0  0
   11.4919    1.4957    0.3543 H   0  0  0  0  0  0  0  0  0  0  0  0
   10.4535    1.5504    1.8328 H   0  0  0  0  0  0  0  0  0  0  0  0
   10.3185    2.8517    0.5834 H   0  0  0  0  0  0  0  0  0  0  0  0
    9.4746    1.1775   -1.0681 H   0  0  0  0  0  0  0  0  0  0  0  0
    9.6075   -0.1184    0.1946 H   0  0  0  0  0  0  0  0  0  0  0  0
    7.7961   -0.6702   -1.3118 H   0  0  0  0  0  0  0  0  0  0  0  0
    5.6710   -1.6983   -1.9303 H   0  0  0  0  0  0  0  0  0  0  0  0
    2.3588   -0.3879   -0.9273 H   0  0  0  0  0  0  0  0  0  0  0  0
    3.2247   -1.5170   -2.0109 H   0  0  0  0  0  0  0  0  0  0  0  0
    3.7383   -2.9849    0.0134 H   0  0  0  0  0  0  0  0  0  0  0  0
    2.7456   -1.8821    1.0292 H   0  0  0  0  0  0  0  0  0  0  0  0
    1.5097   -3.9312    0.2731 H   0  0  0  0  0  0  0  0  0  0  0  0
    1.7514   -3.4677   -1.4387 H   0  0  0  0  0  0  0  0  0  0  0  0
    0.1445   -1.9133    0.6423 H   0  0  0  0  0  0  0  0  0  0  0  0
   -2.3511   -2.3555   -1.4814 H   0  0  0  0  0  0  0  0  0  0  0  0
   -1.3390   -0.2143    0.4334 H   0  0  0  0  0  0  0  0  0  0  0  0
   -2.9501    0.0301   -0.2286 H   0  0  0  0  0  0  0  0  0  0  0  0
   -3.7305   -1.4117    2.8146 H   0  0  0  0  0  0  0  0  0  0  0  0
   -5.9082   -1.0181    2.2125 H   0  0  0  0  0  0  0  0  0  0  0  0
   -5.2761   -2.9794   -0.0834 H   0  0  0  0  0  0  0  0  0  0  0  0
   -7.6395   -3.7368    0.3208 H   0  0  0  0  0  0  0  0  0  0  0  0
   -7.6098   -2.0245   -0.1705 H   0  0  0  0  0  0  0  0  0  0  0  0
   -7.8510   -2.4435    1.5607 H   0  0  0  0  0  0  0  0  0  0  0  0
   -5.8442   -4.7787    1.5784 H   0  0  0  0  0  0  0  0  0  0  0  0
   -5.9108   -3.5426    2.8923 H   0  0  0  0  0  0  0  0  0  0  0  0
   -4.3610   -3.9045    2.0439 H   0  0  0  0  0  0  0  0  0  0  0  0
   -4.6255    1.3258    1.5238 H   0  0  0  0  0  0  0  0  0  0  0  0
   -6.9643    2.2128    0.1786 H   0  0  0  0  0  0  0  0  0  0  0  0
   -5.5613    3.2285    0.6242 H   0  0  0  0  0  0  0  0  0  0  0  0
   -6.2322    1.9292   -2.0493 H   0  0  0  0  0  0  0  0  0  0  0  0
   -5.7023    3.5932   -1.6814 H   0  0  0  0  0  0  0  0  0  0  0  0
   -3.8799    2.5800   -2.8336 H   0  0  0  0  0  0  0  0  0  0  0  0
   -4.0504    1.0531   -1.8905 H   0  0  0  0  0  0  0  0  0  0  0  0
   -1.5733    3.8330    0.7682 H   0  0  0  0  0  0  0  0  0  0  0  0
    0.8832    3.6863    0.8982 H   0  0  0  0  0  0  0  0  0  0  0  0
    2.1302    2.2607   -0.6916 H   0  0  0  0  0  0  0  0  0  0  0  0
    0.9266    0.9389   -2.3811 H   0  0  0  0  0  0  0  0  0  0  0  0
   -2.7501   -1.0100   -3.2636 H   0  0  0  0  0  0  0  0  0  0  0  0
    3.5907    0.8669    0.8120 H   0  0  0  0  0  0  0  0  0  0  0  0
    3.9613    3.1779    1.5762 H   0  0  0  0  0  0  0  0  0  0  0  0
    5.0130    3.5705    2.9883 H   0  0  0  0  0  0  0  0  0  0  0  0
    4.1663    1.9777    2.9343 H   0  0  0  0  0  0  0  0  0  0  0  0
  1  2  1  0
  2  3  1  0
  3  4  1  0
  4  5  2  0
  5  6  1  0
  6  7  2  0
  7  8  1  0
  8  9  1  0
  9 10  1  0
 10 11  1  0
 11 12  1  0
 12 13  2  0
 12 14  1  0
 14 15  1  0
 15 16  1  0
 16 17  2  0
 16 18  1  0
 18 19  1  0
 19 20  1  0
 20 21  1  0
 20 22  1  0
 19 23  1  0
 23 24  2  0
 23 25  1  0
 25 26  1  0
 26 27  1  0
 27 28  1  0
 28 29  1  0
 29 30  1  0
 30 31  2  0
 31 32  1  0
 32 33  2  0
 33 34  1  0
 34 35  2  0
 35 36  1  0
 36 37  2  0
 36 38  1  0
  7 39  1  0
 39 40  2  0
 40 41  1  0
 41 42  1  0
 40  4  1  0
 38 14  1  0
 35 30  1  0
  1 43  1  0
  1 44  1  0
  1 45  1  0
  2 46  1  0
  2 47  1  0
  5 48  1  0
  6 49  1  0
  8 50  1  0
  8 51  1  0
  9 52  1  0
  9 53  1  0
 10 54  1  0
 10 55  1  0
 11 56  1  0
 14 57  1  0
 15 58  1  0
 15 59  1  0
 18 60  1  0
 19 61  1  0
 20 62  1  0
 21 63  1  0
 21 64  1  0
 21 65  1  0
 22 66  1  0
 22 67  1  0
 22 68  1  0
 25 69  1  0
 26 70  1  0
 26 71  1  0
 27 72  1  0
 27 73  1  0
 28 74  1  0
 28 75  1  0
 31 76  1  0
 32 77  1  0
 33 78  1  0
 34 79  1  0
 38 80  1  0
 39 81  1  0
 42 82  1  0
 42 83  1  0
 42 84  1  0
M  END
$$$$
