
     RDKit          3D

 64 67  0  0  0  0  0  0  0  0999 V2000
    7.1071   -1.7262   -1.7607 C   0  0  0  0  0  0  0  0  0  0  0  0
    5.8288   -1.1845   -1.3249 N   0  0  0  0  0  0  0  0  0  0  0  0
    5.6490   -0.1606   -0.4683 C   0  0  0  0  0  0  0  0  0  0  0  0
    4.2929    0.0489   -0.3294 C   0  0  0  0  0  0  0  0  0  0  0  0
    3.6605    1.0930    0.5015 C   0  0  0  0  0  0  0  0  0  0  0  0
    4.3024    2.1622    0.6760 O   0  0  0  0  0  0  0  0  0  0  0  0
    2.3793    0.9207    1.1551 N   0  0  0  0  0  0  0  0  0  0  0  0
    1.8507   -0.4172    1.4662 C   0  0  0  0  0  0  0  0  0  0  0  0
    0.5596   -0.6776    0.6848 C   0  0  0  0  0  0  0  0  0  0  0  0
    0.1252   -2.1492    0.7960 C   0  0  0  0  0  0  0  0  0  0  0  0
   -0.9900   -2.5127   -0.2099 C   0  0  0  0  0  0  0  0  0  0  0  0
   -2.4824   -2.4865    0.2956 C   0  0  0  0  0  0  0  0  0  0  0  0
   -2.7972   -3.8306    1.0163 C   0  0  0  0  0  0  0  0  0  0  0  0
   -2.0073   -4.0106    2.1611 O   0  0  0  0  0  0  0  0  0  0  0  0
   -2.8343   -1.2952    1.2579 C   0  0  0  0  0  0  0  0  0  0  0  0
   -3.2187    0.0196    0.5459 C   0  0  0  0  0  0  0  0  0  0  0  0
   -2.7617    0.0015   -0.8397 N   0  0  0  0  0  0  0  0  0  0  0  0
   -3.2756   -1.0563   -1.7183 C   0  0  0  0  0  0  0  0  0  0  0  0
   -3.4132   -2.3980   -0.9516 C   0  0  0  0  0  0  0  0  0  0  0  0
   -1.8894    1.0268   -1.3434 C   0  0  0  0  0  0  0  0  0  0  0  0
   -0.9274    0.7199   -2.0932 O   0  0  0  0  0  0  0  0  0  0  0  0
   -2.1007    2.4403   -0.9887 C   0  0  0  0  0  0  0  0  0  0  0  0
   -3.3123    3.0485   -1.3384 C   0  0  0  0  0  0  0  0  0  0  0  0
   -3.5270    4.3991   -1.0589 C   0  0  0  0  0  0  0  0  0  0  0  0
   -2.5318    5.1497   -0.4219 C   0  0  0  0  0  0  0  0  0  0  0  0
   -1.3209    4.5527   -0.0620 C   0  0  0  0  0  0  0  0  0  0  0  0
   -1.1051    3.1750   -0.3033 C   0  0  0  0  0  0  0  0  0  0  0  0
    0.0412    2.4924    0.1471 O   0  0  0  0  0  0  0  0  0  0  0  0
    1.1670    3.0724    0.8215 C   0  0  0  0  0  0  0  0  0  0  0  0
    1.7544    2.0742    1.8206 C   0  0  0  0  0  0  0  0  0  0  0  0
    3.6995   -0.8823   -1.1703 C   0  0  0  0  0  0  0  0  0  0  0  0
    4.6592   -1.6213   -1.7643 N   0  0  0  0  0  0  0  0  0  0  0  0
    7.9414   -1.2848   -1.1744 H   0  0  0  0  0  0  0  0  0  0  0  0
    7.1130   -2.8246   -1.6132 H   0  0  0  0  0  0  0  0  0  0  0  0
    7.2590   -1.5026   -2.8354 H   0  0  0  0  0  0  0  0  0  0  0  0
    6.4470    0.3991    0.0117 H   0  0  0  0  0  0  0  0  0  0  0  0
    1.6407   -0.4951    2.5599 H   0  0  0  0  0  0  0  0  0  0  0  0
    2.6082   -1.2041    1.2594 H   0  0  0  0  0  0  0  0  0  0  0  0
    0.7208   -0.4052   -0.3762 H   0  0  0  0  0  0  0  0  0  0  0  0
   -0.2350   -0.0255    1.0896 H   0  0  0  0  0  0  0  0  0  0  0  0
    1.0058   -2.7872    0.5614 H   0  0  0  0  0  0  0  0  0  0  0  0
   -0.1576   -2.3835    1.8394 H   0  0  0  0  0  0  0  0  0  0  0  0
   -0.8606   -1.8916   -1.1146 H   0  0  0  0  0  0  0  0  0  0  0  0
   -0.7731   -3.5398   -0.5744 H   0  0  0  0  0  0  0  0  0  0  0  0
   -2.6115   -4.6833    0.3296 H   0  0  0  0  0  0  0  0  0  0  0  0
   -3.8755   -3.8883    1.2883 H   0  0  0  0  0  0  0  0  0  0  0  0
   -2.4559   -3.5247    2.9001 H   0  0  0  0  0  0  0  0  0  0  0  0
   -3.7015   -1.5755    1.8918 H   0  0  0  0  0  0  0  0  0  0  0  0
   -2.0216   -1.1024    1.9814 H   0  0  0  0  0  0  0  0  0  0  0  0
   -4.3236    0.1237    0.5403 H   0  0  0  0  0  0  0  0  0  0  0  0
   -2.8046    0.8857    1.1022 H   0  0  0  0  0  0  0  0  0  0  0  0
   -4.2726   -0.7468   -2.1072 H   0  0  0  0  0  0  0  0  0  0  0  0
   -2.6036   -1.1986   -2.5924 H   0  0  0  0  0  0  0  0  0  0  0  0
   -3.2057   -3.2397   -1.6538 H   0  0  0  0  0  0  0  0  0  0  0  0
   -4.4748   -2.5037   -0.6233 H   0  0  0  0  0  0  0  0  0  0  0  0
   -4.0815    2.4827   -1.8498 H   0  0  0  0  0  0  0  0  0  0  0  0
   -4.4675    4.8641   -1.3368 H   0  0  0  0  0  0  0  0  0  0  0  0
   -2.7030    6.2005   -0.2138 H   0  0  0  0  0  0  0  0  0  0  0  0
   -0.5805    5.1753    0.4219 H   0  0  0  0  0  0  0  0  0  0  0  0
    1.9297    3.3984    0.0745 H   0  0  0  0  0  0  0  0  0  0  0  0
    0.8664    3.9500    1.4252 H   0  0  0  0  0  0  0  0  0  0  0  0
    2.5102    2.5895    2.4554 H   0  0  0  0  0  0  0  0  0  0  0  0
    0.9405    1.7445    2.5097 H   0  0  0  0  0  0  0  0  0  0  0  0
    2.6452   -0.9942   -1.3753 H   0  0  0  0  0  0  0  0  0  0  0  0
  1  2  1  0
  2  3  1  0
  3  4  2  0
  4  5  1  0
  5  6  2  0
  5  7  1  0
  7  8  1  0
  8  9  1  0
  9 10  1  0
 10 11  1  0
 11 12  1  0
 12 13  1  0
 13 14  1  0
 12 15  1  0
 15 16  1  0
 16 17  1  0
 17 18  1  0
 18 19  1  0
 17 20  1  0
 20 21  2  0
 20 22  1  0
 22 23  2  0
 23 24  1  0
 24 25  2  0
 25 26  1  0
 26 27  2  0
 27 28  1  0
 28 29  1  0
 29 30  1  0
  4 31  1  0
 31 32  2  0
 32  2  1  0
 30  7  1  0
 19 12  1  0
 27 22  1  0
  1 33  1  0
  1 34  1  0
  1 35  1  0
  3 36  1  0
  8 37  1  0
  8 38  1  0
  9 39  1  0
  9 40  1  0
 10 41  1  0
 10 42  1  0
 11 43  1  0
 11 44  1  0
 13 45  1  0
 13 46  1  0
 14 47  1  0
 15 48  1  0
 15 49  1  0
 16 50  1  0
 16 51  1  0
 18 52  1  0
 18 53  1  0
 19 54  1  0
 19 55  1  0
 23 56  1  0
 24 57  1  0
 25 58  1  0
 26 59  1  0
 29 60  1  0
 29 61  1  0
 30 62  1  0
 30 63  1  0
 31 64  1  0
M  END
$$$$
