
     RDKit          3D

 70 72  0  0  0  0  0  0  0  0999 V2000
   -2.5039    3.1114    1.9453 C   0  0  0  0  0  0  0  0  0  0  0  0
   -2.8207    3.7694    0.5934 C   0  0  0  0  0  0  0  0  0  0  0  0
   -3.6381    5.0483    0.8159 C   0  0  0  0  0  0  0  0  0  0  0  0
   -3.5843    2.7976   -0.3455 C   0  0  0  0  0  0  0  0  0  0  0  0
   -2.6611    1.7798   -1.0420 C   0  0  0  0  0  0  0  0  0  0  0  0
   -1.7612    2.4628   -1.9829 N   0  0  0  0  0  0  0  0  0  0  0  0
   -0.4799    1.9171   -2.3193 C   0  0  0  0  0  0  0  0  0  0  0  0
    0.5656    2.4407   -1.8440 O   0  0  0  0  0  0  0  0  0  0  0  0
   -0.3850    0.6631   -3.1331 C   0  0  0  0  0  0  0  0  0  0  0  0
    0.1367   -0.5125   -2.2821 C   0  0  0  0  0  0  0  0  0  0  0  0
    1.6335   -0.6140   -2.3728 C   0  0  0  0  0  0  0  0  0  0  0  0
    2.1716   -0.9635   -3.4595 O   0  0  0  0  0  0  0  0  0  0  0  0
    2.4576   -0.2459   -1.2579 N   0  0  0  0  0  0  0  0  0  0  0  0
    3.9225   -0.3105   -1.3397 C   0  0  0  0  0  0  0  0  0  0  0  0
    4.5906    0.4814   -0.2047 C   0  0  0  0  0  0  0  0  0  0  0  0
    4.4819   -0.2280    1.1250 C   0  0  0  0  0  0  0  0  0  0  0  0
    3.4952    0.1426    2.0550 C   0  0  0  0  0  0  0  0  0  0  0  0
    3.4198   -0.4945    3.2959 C   0  0  0  0  0  0  0  0  0  0  0  0
    4.3255   -1.5085    3.6199 C   0  0  0  0  0  0  0  0  0  0  0  0
    5.2960   -1.8999    2.6923 C   0  0  0  0  0  0  0  0  0  0  0  0
    5.3719   -1.2672    1.4462 C   0  0  0  0  0  0  0  0  0  0  0  0
   -0.4641   -1.7815   -2.7160 N   0  0  0  0  0  0  0  0  0  0  0  0
   -0.2850   -3.0075   -1.9905 C   0  0  0  0  0  0  0  0  0  0  0  0
   -0.4917   -4.1024   -2.5827 O   0  0  0  0  0  0  0  0  0  0  0  0
    0.1828   -3.0264   -0.5844 C   0  0  0  0  0  0  0  0  0  0  0  0
    1.3499   -3.7388   -0.2588 C   0  0  0  0  0  0  0  0  0  0  0  0
    1.8047   -3.7846    1.0621 C   0  0  0  0  0  0  0  0  0  0  0  0
    1.0922   -3.1301    2.0692 C   0  0  0  0  0  0  0  0  0  0  0  0
   -0.0823   -2.4367    1.7611 C   0  0  0  0  0  0  0  0  0  0  0  0
   -0.5468   -2.3772    0.4342 C   0  0  0  0  0  0  0  0  0  0  0  0
   -1.6983   -1.6433    0.1088 O   0  0  0  0  0  0  0  0  0  0  0  0
   -2.9392   -1.7748    0.7999 C   0  0  0  0  0  0  0  0  0  0  0  0
   -3.8994   -0.6667    0.3874 C   0  0  0  0  0  0  0  0  0  0  0  0
   -3.9092   -0.4814   -1.0645 N   0  0  0  0  0  0  0  0  0  0  0  0
   -3.4888    0.7197   -1.7370 C   0  0  0  0  0  0  0  0  0  0  0  0
   -3.8692    0.9180   -2.9264 O   0  0  0  0  0  0  0  0  0  0  0  0
   -1.9438    3.8158    2.5872 H   0  0  0  0  0  0  0  0  0  0  0  0
   -3.4373    2.8111    2.4752 H   0  0  0  0  0  0  0  0  0  0  0  0
   -1.8572    2.2268    1.7902 H   0  0  0  0  0  0  0  0  0  0  0  0
   -1.8508    4.0672    0.1229 H   0  0  0  0  0  0  0  0  0  0  0  0
   -4.6406    4.8115    1.2283 H   0  0  0  0  0  0  0  0  0  0  0  0
   -3.1080    5.7194    1.5229 H   0  0  0  0  0  0  0  0  0  0  0  0
   -3.7552    5.5893   -0.1405 H   0  0  0  0  0  0  0  0  0  0  0  0
   -4.3594    2.2671    0.2364 H   0  0  0  0  0  0  0  0  0  0  0  0
   -4.1333    3.3647   -1.1290 H   0  0  0  0  0  0  0  0  0  0  0  0
   -2.0298    1.2739   -0.2818 H   0  0  0  0  0  0  0  0  0  0  0  0
   -2.1352    3.2240   -2.6003 H   0  0  0  0  0  0  0  0  0  0  0  0
    0.2619    0.8404   -4.0148 H   0  0  0  0  0  0  0  0  0  0  0  0
   -1.3912    0.4268   -3.5327 H   0  0  0  0  0  0  0  0  0  0  0  0
   -0.1491   -0.3178   -1.2314 H   0  0  0  0  0  0  0  0  0  0  0  0
    1.9958    0.1253   -0.3987 H   0  0  0  0  0  0  0  0  0  0  0  0
    4.2567    0.1397   -2.3062 H   0  0  0  0  0  0  0  0  0  0  0  0
    4.2459   -1.3767   -1.3265 H   0  0  0  0  0  0  0  0  0  0  0  0
    5.6620    0.6141   -0.4585 H   0  0  0  0  0  0  0  0  0  0  0  0
    4.1601    1.5106   -0.1478 H   0  0  0  0  0  0  0  0  0  0  0  0
    2.7914    0.9331    1.8275 H   0  0  0  0  0  0  0  0  0  0  0  0
    2.6721   -0.1926    4.0166 H   0  0  0  0  0  0  0  0  0  0  0  0
    4.2807   -1.9860    4.5916 H   0  0  0  0  0  0  0  0  0  0  0  0
    5.9979   -2.6841    2.9414 H   0  0  0  0  0  0  0  0  0  0  0  0
    6.1432   -1.5733    0.7450 H   0  0  0  0  0  0  0  0  0  0  0  0
   -0.8788   -1.8526   -3.6735 H   0  0  0  0  0  0  0  0  0  0  0  0
    1.9060   -4.2526   -1.0352 H   0  0  0  0  0  0  0  0  0  0  0  0
    2.7123   -4.3265    1.3066 H   0  0  0  0  0  0  0  0  0  0  0  0
    1.4540   -3.1602    3.0924 H   0  0  0  0  0  0  0  0  0  0  0  0
   -0.6037   -1.9193    2.5558 H   0  0  0  0  0  0  0  0  0  0  0  0
   -3.3783   -2.7664    0.5584 H   0  0  0  0  0  0  0  0  0  0  0  0
   -2.7848   -1.6993    1.8951 H   0  0  0  0  0  0  0  0  0  0  0  0
   -4.9198   -0.9346    0.7362 H   0  0  0  0  0  0  0  0  0  0  0  0
   -3.6267    0.2602    0.9161 H   0  0  0  0  0  0  0  0  0  0  0  0
   -4.3470   -1.2352   -1.6362 H   0  0  0  0  0  0  0  0  0  0  0  0
  1  2  1  0
  2  3  1  0
  2  4  1  0
  4  5  1  0
  5  6  1  0
  6  7  1  0
  7  8  2  0
  7  9  1  0
  9 10  1  0
 10 11  1  0
 11 12  2  0
 11 13  1  0
 13 14  1  0
 14 15  1  0
 15 16  1  0
 16 17  2  0
 17 18  1  0
 18 19  2  0
 19 20  1  0
 20 21  2  0
 10 22  1  0
 22 23  1  0
 23 24  2  0
 23 25  1  0
 25 26  2  0
 26 27  1  0
 27 28  2  0
 28 29  1  0
 29 30  2  0
 30 31  1  0
 31 32  1  0
 32 33  1  0
 33 34  1  0
 34 35  1  0
 35 36  2  0
 35  5  1  0
 21 16  1  0
 30 25  1  0
  1 37  1  0
  1 38  1  0
  1 39  1  0
  2 40  1  0
  3 41  1  0
  3 42  1  0
  3 43  1  0
  4 44  1  0
  4 45  1  0
  5 46  1  0
  6 47  1  0
  9 48  1  0
  9 49  1  0
 10 50  1  0
 13 51  1  0
 14 52  1  0
 14 53  1  0
 15 54  1  0
 15 55  1  0
 17 56  1  0
 18 57  1  0
 19 58  1  0
 20 59  1  0
 21 60  1  0
 22 61  1  0
 26 62  1  0
 27 63  1  0
 28 64  1  0
 29 65  1  0
 32 66  1  0
 32 67  1  0
 33 68  1  0
 33 69  1  0
 34 70  1  0
M  END
$$$$
