
     RDKit          3D

 75 79  0  0  0  0  0  0  0  0999 V2000
    2.6697    1.9678   -1.2738 O   0  0  0  0  0  0  0  0  0  0  0  0
    1.6939    1.9106   -0.4769 C   0  0  0  0  0  0  0  0  0  0  0  0
    0.3095    2.1451   -1.0183 C   0  0  0  0  0  0  0  0  0  0  0  0
   -0.7236    1.5325   -0.1518 N   0  0  0  0  0  0  0  0  0  0  0  0
   -0.8640    0.0817   -0.4235 C   0  0  0  0  0  0  0  0  0  0  0  0
   -1.6567   -0.6440    0.6800 C   0  0  0  0  0  0  0  0  0  0  0  0
   -1.9294   -2.1132    0.3151 C   0  0  0  0  0  0  0  0  0  0  0  0
   -2.9154   -2.2557   -0.8750 C   0  0  0  0  0  0  0  0  0  0  0  0
   -4.1343   -3.1435   -0.5705 C   0  0  0  0  0  0  0  0  0  0  0  0
   -5.0852   -2.5440    0.4761 C   0  0  0  0  0  0  0  0  0  0  0  0
   -5.3272   -1.1639    0.1945 O   0  0  0  0  0  0  0  0  0  0  0  0
   -6.2021   -0.3525    0.9288 C   0  0  0  0  0  0  0  0  0  0  0  0
   -7.3656   -0.8713    1.5283 C   0  0  0  0  0  0  0  0  0  0  0  0
   -8.2164   -0.0381    2.2616 C   0  0  0  0  0  0  0  0  0  0  0  0
   -7.9117    1.3163    2.4080 C   0  0  0  0  0  0  0  0  0  0  0  0
   -6.7559    1.8375    1.8246 C   0  0  0  0  0  0  0  0  0  0  0  0
   -5.9029    1.0166    1.0782 C   0  0  0  0  0  0  0  0  0  0  0  0
   -4.7243    1.5698    0.5666 O   0  0  0  0  0  0  0  0  0  0  0  0
   -4.3390    1.5090   -0.7782 C   0  0  0  0  0  0  0  0  0  0  0  0
   -5.2334    1.1147   -1.7289 N   0  0  0  0  0  0  0  0  0  0  0  0
   -4.9225    1.1049   -3.0500 C   0  0  0  0  0  0  0  0  0  0  0  0
   -3.6669    1.5370   -3.4750 C   0  0  0  0  0  0  0  0  0  0  0  0
   -2.7337    1.9588   -2.5298 C   0  0  0  0  0  0  0  0  0  0  0  0
   -3.0345    1.9008   -1.1593 C   0  0  0  0  0  0  0  0  0  0  0  0
   -1.9985    2.3071   -0.1196 C   0  0  0  0  0  0  0  0  0  0  0  0
    1.9229    1.6819    0.9235 N   0  0  0  0  0  0  0  0  0  0  0  0
    3.2690    1.5952    1.4925 C   0  0  0  0  0  0  0  0  0  0  0  0
    4.0387    0.4094    0.9610 C   0  0  0  0  0  0  0  0  0  0  0  0
    3.4018   -0.8159    0.6972 C   0  0  0  0  0  0  0  0  0  0  0  0
    4.1380   -1.9133    0.2447 C   0  0  0  0  0  0  0  0  0  0  0  0
    5.5211   -1.8116    0.0807 C   0  0  0  0  0  0  0  0  0  0  0  0
    6.1824   -0.6056    0.3656 C   0  0  0  0  0  0  0  0  0  0  0  0
    7.6165   -0.5226    0.2512 N   0  0  0  0  0  0  0  0  0  0  0  0
    8.5388   -1.5875    0.6108 C   0  0  0  0  0  0  0  0  0  0  0  0
    9.9378   -0.9449    0.6459 C   0  0  0  0  0  0  0  0  0  0  0  0
    9.8170    0.4400   -0.0059 C   0  0  0  0  0  0  0  0  0  0  0  0
    8.3584    0.6136   -0.1589 C   0  0  0  0  0  0  0  0  0  0  0  0
    7.8298    1.6415   -0.6550 O   0  0  0  0  0  0  0  0  0  0  0  0
    5.4323    0.5005    0.8046 C   0  0  0  0  0  0  0  0  0  0  0  0
    0.1837    3.2460   -1.0952 H   0  0  0  0  0  0  0  0  0  0  0  0
    0.2592    1.7336   -2.0501 H   0  0  0  0  0  0  0  0  0  0  0  0
   -1.3123   -0.0894   -1.4245 H   0  0  0  0  0  0  0  0  0  0  0  0
    0.1447   -0.3865   -0.4550 H   0  0  0  0  0  0  0  0  0  0  0  0
   -1.0682   -0.6093    1.6233 H   0  0  0  0  0  0  0  0  0  0  0  0
   -2.6252   -0.1447    0.8832 H   0  0  0  0  0  0  0  0  0  0  0  0
   -2.3145   -2.6311    1.2224 H   0  0  0  0  0  0  0  0  0  0  0  0
   -0.9660   -2.6109    0.0573 H   0  0  0  0  0  0  0  0  0  0  0  0
   -3.2770   -1.2703   -1.2311 H   0  0  0  0  0  0  0  0  0  0  0  0
   -2.3666   -2.7074   -1.7282 H   0  0  0  0  0  0  0  0  0  0  0  0
   -4.7019   -3.2903   -1.5177 H   0  0  0  0  0  0  0  0  0  0  0  0
   -3.7931   -4.1443   -0.2283 H   0  0  0  0  0  0  0  0  0  0  0  0
   -4.6412   -2.6365    1.4930 H   0  0  0  0  0  0  0  0  0  0  0  0
   -6.0325   -3.1240    0.4522 H   0  0  0  0  0  0  0  0  0  0  0  0
   -7.6273   -1.9132    1.4285 H   0  0  0  0  0  0  0  0  0  0  0  0
   -9.1052   -0.4450    2.7285 H   0  0  0  0  0  0  0  0  0  0  0  0
   -8.5670    1.9619    2.9810 H   0  0  0  0  0  0  0  0  0  0  0  0
   -6.5160    2.8877    1.9571 H   0  0  0  0  0  0  0  0  0  0  0  0
   -5.6617    0.7849   -3.7730 H   0  0  0  0  0  0  0  0  0  0  0  0
   -3.4248    1.5605   -4.5305 H   0  0  0  0  0  0  0  0  0  0  0  0
   -1.7740    2.3180   -2.8753 H   0  0  0  0  0  0  0  0  0  0  0  0
   -1.8116    3.3966   -0.2221 H   0  0  0  0  0  0  0  0  0  0  0  0
   -2.4166    2.2106    0.9033 H   0  0  0  0  0  0  0  0  0  0  0  0
    1.1130    1.6364    1.5802 H   0  0  0  0  0  0  0  0  0  0  0  0
    3.2005    1.5020    2.5980 H   0  0  0  0  0  0  0  0  0  0  0  0
    3.8116    2.5387    1.2629 H   0  0  0  0  0  0  0  0  0  0  0  0
    2.3364   -0.9267    0.8413 H   0  0  0  0  0  0  0  0  0  0  0  0
    3.6344   -2.8470    0.0250 H   0  0  0  0  0  0  0  0  0  0  0  0
    6.0761   -2.6744   -0.2637 H   0  0  0  0  0  0  0  0  0  0  0  0
    8.5054   -2.3890   -0.1573 H   0  0  0  0  0  0  0  0  0  0  0  0
    8.2733   -2.0071    1.6055 H   0  0  0  0  0  0  0  0  0  0  0  0
   10.2702   -0.8296    1.7026 H   0  0  0  0  0  0  0  0  0  0  0  0
   10.6769   -1.5735    0.1036 H   0  0  0  0  0  0  0  0  0  0  0  0
   10.3133    0.4525   -1.0010 H   0  0  0  0  0  0  0  0  0  0  0  0
   10.2342    1.2321    0.6534 H   0  0  0  0  0  0  0  0  0  0  0  0
    5.9356    1.4240    1.0590 H   0  0  0  0  0  0  0  0  0  0  0  0
  1  2  2  0
  2  3  1  0
  3  4  1  0
  4  5  1  0
  5  6  1  0
  6  7  1  0
  7  8  1  0
  8  9  1  0
  9 10  1  0
 10 11  1  0
 11 12  1  0
 12 13  2  0
 13 14  1  0
 14 15  2  0
 15 16  1  0
 16 17  2  0
 17 18  1  0
 18 19  1  0
 19 20  2  0
 20 21  1  0
 21 22  2  0
 22 23  1  0
 23 24  2  0
 24 25  1  0
  2 26  1  0
 26 27  1  0
 27 28  1  0
 28 29  2  0
 29 30  1  0
 30 31  2  0
 31 32  1  0
 32 33  1  0
 33 34  1  0
 34 35  1  0
 35 36  1  0
 36 37  1  0
 37 38  2  0
 32 39  2  0
 25  4  1  0
 39 28  1  0
 17 12  1  0
 24 19  1  0
 37 33  1  0
  3 40  1  0
  3 41  1  0
  5 42  1  0
  5 43  1  0
  6 44  1  0
  6 45  1  0
  7 46  1  0
  7 47  1  0
  8 48  1  0
  8 49  1  0
  9 50  1  0
  9 51  1  0
 10 52  1  0
 10 53  1  0
 13 54  1  0
 14 55  1  0
 15 56  1  0
 16 57  1  0
 21 58  1  0
 22 59  1  0
 23 60  1  0
 25 61  1  0
 25 62  1  0
 26 63  1  0
 27 64  1  0
 27 65  1  0
 29 66  1  0
 30 67  1  0
 31 68  1  0
 34 69  1  0
 34 70  1  0
 35 71  1  0
 35 72  1  0
 36 73  1  0
 36 74  1  0
 39 75  1  0
M  END
$$$$
