
     RDKit          3D

 59 62  0  0  0  0  0  0  0  0999 V2000
    3.1640   -0.1148   -1.8005 O   0  0  0  0  0  0  0  0  0  0  0  0
    3.4844   -0.4655   -0.6318 C   0  0  0  0  0  0  0  0  0  0  0  0
    4.8316   -1.1184   -0.4384 C   0  0  0  0  0  0  0  0  0  0  0  0
    5.8862   -0.3106   -1.0725 N   0  0  0  0  0  0  0  0  0  0  0  0
    6.3303   -0.6459   -2.3211 C   0  0  0  0  0  0  0  0  0  0  0  0
    7.3124    0.1145   -2.9504 C   0  0  0  0  0  0  0  0  0  0  0  0
    7.8242    1.2248   -2.2855 C   0  0  0  0  0  0  0  0  0  0  0  0
    8.7141    1.9307   -2.8307 O   0  0  0  0  0  0  0  0  0  0  0  0
    7.3600    1.5465   -1.0492 N   0  0  0  0  0  0  0  0  0  0  0  0
    6.3984    0.7962   -0.4429 C   0  0  0  0  0  0  0  0  0  0  0  0
    5.9839    1.1316    0.7009 O   0  0  0  0  0  0  0  0  0  0  0  0
    2.5489   -0.2739    0.4564 N   0  0  0  0  0  0  0  0  0  0  0  0
    2.9040   -0.6089    1.8404 C   0  0  0  0  0  0  0  0  0  0  0  0
    1.7319   -0.3161    2.7780 C   0  0  0  0  0  0  0  0  0  0  0  0
    0.5526   -0.8992    2.2643 O   0  0  0  0  0  0  0  0  0  0  0  0
    0.1182   -0.3124    1.0358 C   0  0  0  0  0  0  0  0  0  0  0  0
   -0.9935    0.7263    1.3659 C   0  0  0  0  0  0  0  0  0  0  0  0
   -1.7690    1.1756    0.1510 C   0  0  0  0  0  0  0  0  0  0  0  0
   -2.9175    1.8534    0.2788 C   0  0  0  0  0  0  0  0  0  0  0  0
   -3.8016    2.1245   -0.9081 C   0  0  0  0  0  0  0  0  0  0  0  0
   -5.1384    1.4436   -0.7346 C   0  0  0  0  0  0  0  0  0  0  0  0
   -6.3039    2.2230   -0.6301 C   0  0  0  0  0  0  0  0  0  0  0  0
   -7.5508    1.6160   -0.4720 C   0  0  0  0  0  0  0  0  0  0  0  0
   -7.6500    0.2265   -0.4163 C   0  0  0  0  0  0  0  0  0  0  0  0
   -6.5029   -0.5632   -0.5153 C   0  0  0  0  0  0  0  0  0  0  0  0
   -5.2356    0.0335   -0.6729 C   0  0  0  0  0  0  0  0  0  0  0  0
   -4.0644   -0.7393   -0.7596 O   0  0  0  0  0  0  0  0  0  0  0  0
   -4.0085   -2.1510   -0.5561 C   0  0  0  0  0  0  0  0  0  0  0  0
   -2.5572   -2.6259   -0.5867 C   0  0  0  0  0  0  0  0  0  0  0  0
   -1.7777   -1.9507    0.4501 N   0  0  0  0  0  0  0  0  0  0  0  0
   -0.4519   -1.4581    0.2051 C   0  0  0  0  0  0  0  0  0  0  0  0
    0.2612   -2.0192   -0.6724 O   0  0  0  0  0  0  0  0  0  0  0  0
    1.2633    0.3997    0.2279 C   0  0  0  0  0  0  0  0  0  0  0  0
    4.7927   -2.1364   -0.8847 H   0  0  0  0  0  0  0  0  0  0  0  0
    5.0826   -1.2722    0.6297 H   0  0  0  0  0  0  0  0  0  0  0  0
    5.9238   -1.5058   -2.8405 H   0  0  0  0  0  0  0  0  0  0  0  0
    7.6653   -0.1552   -3.9383 H   0  0  0  0  0  0  0  0  0  0  0  0
    7.7455    2.3854   -0.5575 H   0  0  0  0  0  0  0  0  0  0  0  0
    3.7843   -0.0124    2.1624 H   0  0  0  0  0  0  0  0  0  0  0  0
    3.1446   -1.6922    1.9063 H   0  0  0  0  0  0  0  0  0  0  0  0
    1.6033    0.7796    2.9275 H   0  0  0  0  0  0  0  0  0  0  0  0
    1.9457   -0.7604    3.7728 H   0  0  0  0  0  0  0  0  0  0  0  0
   -0.5530    1.6176    1.8628 H   0  0  0  0  0  0  0  0  0  0  0  0
   -1.7018    0.2820    2.0986 H   0  0  0  0  0  0  0  0  0  0  0  0
   -1.4419    0.8652   -0.8376 H   0  0  0  0  0  0  0  0  0  0  0  0
   -3.2630    2.1538    1.2647 H   0  0  0  0  0  0  0  0  0  0  0  0
   -3.9236    3.2248   -1.0029 H   0  0  0  0  0  0  0  0  0  0  0  0
   -3.3373    1.7688   -1.8541 H   0  0  0  0  0  0  0  0  0  0  0  0
   -6.2494    3.3039   -0.6712 H   0  0  0  0  0  0  0  0  0  0  0  0
   -8.4423    2.2249   -0.3934 H   0  0  0  0  0  0  0  0  0  0  0  0
   -8.6189   -0.2408   -0.2949 H   0  0  0  0  0  0  0  0  0  0  0  0
   -6.6128   -1.6378   -0.4695 H   0  0  0  0  0  0  0  0  0  0  0  0
   -4.4548   -2.4081    0.4296 H   0  0  0  0  0  0  0  0  0  0  0  0
   -4.5773   -2.6675   -1.3593 H   0  0  0  0  0  0  0  0  0  0  0  0
   -2.1340   -2.4152   -1.5936 H   0  0  0  0  0  0  0  0  0  0  0  0
   -2.5230   -3.7224   -0.4126 H   0  0  0  0  0  0  0  0  0  0  0  0
   -2.1811   -1.8713    1.4104 H   0  0  0  0  0  0  0  0  0  0  0  0
    1.0045    0.4414   -0.8524 H   0  0  0  0  0  0  0  0  0  0  0  0
    1.3752    1.4571    0.5536 H   0  0  0  0  0  0  0  0  0  0  0  0
  1  2  2  0
  2  3  1  0
  3  4  1  0
  4  5  1  0
  5  6  2  0
  6  7  1  0
  7  8  2  0
  7  9  1  0
  9 10  1  0
 10 11  2  0
  2 12  1  0
 12 13  1  0
 13 14  1  0
 14 15  1  0
 15 16  1  0
 16 17  1  0
 17 18  1  0
 18 19  2  0
 19 20  1  0
 20 21  1  0
 21 22  2  0
 22 23  1  0
 23 24  2  0
 24 25  1  0
 25 26  2  0
 26 27  1  0
 27 28  1  0
 28 29  1  0
 29 30  1  0
 30 31  1  0
 31 32  2  0
 16 33  1  0
 10  4  1  0
 33 12  1  0
 31 16  1  0
 26 21  1  0
  3 34  1  0
  3 35  1  0
  5 36  1  0
  6 37  1  0
  9 38  1  0
 13 39  1  0
 13 40  1  0
 14 41  1  0
 14 42  1  0
 17 43  1  0
 17 44  1  0
 18 45  1  0
 19 46  1  0
 20 47  1  0
 20 48  1  0
 22 49  1  0
 23 50  1  0
 24 51  1  0
 25 52  1  0
 28 53  1  0
 28 54  1  0
 29 55  1  0
 29 56  1  0
 30 57  1  0
 33 58  1  0
 33 59  1  0
M  END
$$$$
