
     RDKit          3D

 65 68  0  0  0  0  0  0  0  0999 V2000
   -0.4312    3.1215    0.1025 C   0  0  0  0  0  0  0  0  0  0  0  0
   -0.7703    1.6981    0.1017 N   0  0  0  0  0  0  0  0  0  0  0  0
   -1.4684    1.1354   -1.0596 C   0  0  0  0  0  0  0  0  0  0  0  0
   -2.9584    1.4965   -1.0435 C   0  0  0  0  0  0  0  0  0  0  0  0
   -3.6973    0.4235   -1.6200 O   0  0  0  0  0  0  0  0  0  0  0  0
   -4.8897   -0.0449   -1.0633 C   0  0  0  0  0  0  0  0  0  0  0  0
   -6.0459    0.7447   -1.1149 C   0  0  0  0  0  0  0  0  0  0  0  0
   -7.2410    0.2756   -0.5647 C   0  0  0  0  0  0  0  0  0  0  0  0
   -7.2855   -0.9835    0.0414 C   0  0  0  0  0  0  0  0  0  0  0  0
   -6.1323   -1.7718    0.1101 C   0  0  0  0  0  0  0  0  0  0  0  0
   -4.9269   -1.3130   -0.4466 C   0  0  0  0  0  0  0  0  0  0  0  0
   -3.6592   -2.1141   -0.2737 C   0  0  0  0  0  0  0  0  0  0  0  0
   -2.8672   -1.6030    0.9408 C   0  0  0  0  0  0  0  0  0  0  0  0
   -1.4123   -2.0991    0.9278 C   0  0  0  0  0  0  0  0  0  0  0  0
   -0.5460   -1.4455    2.0313 C   0  0  0  0  0  0  0  0  0  0  0  0
    0.2153   -0.1249    1.6844 C   0  0  0  0  0  0  0  0  0  0  0  0
    1.2314   -0.3800    0.5351 C   0  0  0  0  0  0  0  0  0  0  0  0
    2.1503    0.7542    0.4078 N   0  0  0  0  0  0  0  0  0  0  0  0
    2.6155    1.1691   -0.8974 C   0  0  0  0  0  0  0  0  0  0  0  0
    1.9158    0.9284   -1.9186 O   0  0  0  0  0  0  0  0  0  0  0  0
    3.9138    1.9049   -1.0853 C   0  0  0  0  0  0  0  0  0  0  0  0
    4.9816    1.2377   -0.4122 O   0  0  0  0  0  0  0  0  0  0  0  0
    5.5248   -0.0038   -0.7811 C   0  0  0  0  0  0  0  0  0  0  0  0
    5.1071   -0.7038   -1.9322 C   0  0  0  0  0  0  0  0  0  0  0  0
    5.6810   -1.9385   -2.2521 C   0  0  0  0  0  0  0  0  0  0  0  0
    6.6821   -2.4781   -1.4394 C   0  0  0  0  0  0  0  0  0  0  0  0
    7.2403   -3.6717   -1.7577 F   0  0  0  0  0  0  0  0  0  0  0  0
    7.1025   -1.7908   -0.2979 C   0  0  0  0  0  0  0  0  0  0  0  0
    6.5243   -0.5601    0.0312 C   0  0  0  0  0  0  0  0  0  0  0  0
    6.9352    0.0956    1.1454 F   0  0  0  0  0  0  0  0  0  0  0  0
    2.7893    1.2173    1.6412 C   0  0  0  0  0  0  0  0  0  0  0  0
    1.7409    1.3627    2.7442 C   0  0  0  0  0  0  0  0  0  0  0  0
    0.9362    0.2023    2.8728 O   0  0  0  0  0  0  0  0  0  0  0  0
   -0.7820    0.9924    1.3590 C   0  0  0  0  0  0  0  0  0  0  0  0
   -1.5914    1.3609    2.2538 O   0  0  0  0  0  0  0  0  0  0  0  0
   -1.1976    3.6923    0.6703 H   0  0  0  0  0  0  0  0  0  0  0  0
    0.5646    3.2756    0.5662 H   0  0  0  0  0  0  0  0  0  0  0  0
   -0.3828    3.5184   -0.9356 H   0  0  0  0  0  0  0  0  0  0  0  0
   -1.0039    1.4989   -2.0018 H   0  0  0  0  0  0  0  0  0  0  0  0
   -1.3594    0.0359   -1.0655 H   0  0  0  0  0  0  0  0  0  0  0  0
   -3.1342    2.4253   -1.6263 H   0  0  0  0  0  0  0  0  0  0  0  0
   -3.2997    1.6785   -0.0005 H   0  0  0  0  0  0  0  0  0  0  0  0
   -6.0176    1.7209   -1.5838 H   0  0  0  0  0  0  0  0  0  0  0  0
   -8.1332    0.8865   -0.6096 H   0  0  0  0  0  0  0  0  0  0  0  0
   -8.2127   -1.3426    0.4697 H   0  0  0  0  0  0  0  0  0  0  0  0
   -6.1758   -2.7361    0.6029 H   0  0  0  0  0  0  0  0  0  0  0  0
   -3.0491   -2.0326   -1.1980 H   0  0  0  0  0  0  0  0  0  0  0  0
   -3.8937   -3.1910   -0.1356 H   0  0  0  0  0  0  0  0  0  0  0  0
   -2.8809   -0.5004    0.9476 H   0  0  0  0  0  0  0  0  0  0  0  0
   -3.3685   -1.9429    1.8741 H   0  0  0  0  0  0  0  0  0  0  0  0
   -1.4357   -3.1962    1.1092 H   0  0  0  0  0  0  0  0  0  0  0  0
   -0.9551   -1.9699   -0.0693 H   0  0  0  0  0  0  0  0  0  0  0  0
    0.2146   -2.1978    2.3398 H   0  0  0  0  0  0  0  0  0  0  0  0
   -1.1725   -1.2816    2.9368 H   0  0  0  0  0  0  0  0  0  0  0  0
    0.7141   -0.5744   -0.4226 H   0  0  0  0  0  0  0  0  0  0  0  0
    1.8320   -1.2885    0.7625 H   0  0  0  0  0  0  0  0  0  0  0  0
    3.8079    2.9295   -0.6740 H   0  0  0  0  0  0  0  0  0  0  0  0
    4.1575    2.0137   -2.1649 H   0  0  0  0  0  0  0  0  0  0  0  0
    4.3442   -0.3063   -2.5865 H   0  0  0  0  0  0  0  0  0  0  0  0
    5.3533   -2.4750   -3.1338 H   0  0  0  0  0  0  0  0  0  0  0  0
    7.8767   -2.2111    0.3329 H   0  0  0  0  0  0  0  0  0  0  0  0
    3.5622    0.4816    1.9530 H   0  0  0  0  0  0  0  0  0  0  0  0
    3.2727    2.2060    1.4989 H   0  0  0  0  0  0  0  0  0  0  0  0
    1.1180    2.2676    2.5867 H   0  0  0  0  0  0  0  0  0  0  0  0
    2.2719    1.5218    3.7060 H   0  0  0  0  0  0  0  0  0  0  0  0
  1  2  1  0
  2  3  1  0
  3  4  1  0
  4  5  1  0
  5  6  1  0
  6  7  2  0
  7  8  1  0
  8  9  2  0
  9 10  1  0
 10 11  2  0
 11 12  1  0
 12 13  1  0
 13 14  1  0
 14 15  1  0
 15 16  1  0
 16 17  1  0
 17 18  1  0
 18 19  1  0
 19 20  2  0
 19 21  1  0
 21 22  1  0
 22 23  1  0
 23 24  2  0
 24 25  1  0
 25 26  2  0
 26 27  1  0
 26 28  1  0
 28 29  2  0
 29 30  1  0
 18 31  1  0
 31 32  1  0
 32 33  1  0
 16 34  1  0
 34 35  2  0
 34  2  1  0
 11  6  1  0
 33 16  1  0
 29 23  1  0
  1 36  1  0
  1 37  1  0
  1 38  1  0
  3 39  1  0
  3 40  1  0
  4 41  1  0
  4 42  1  0
  7 43  1  0
  8 44  1  0
  9 45  1  0
 10 46  1  0
 12 47  1  0
 12 48  1  0
 13 49  1  0
 13 50  1  0
 14 51  1  0
 14 52  1  0
 15 53  1  0
 15 54  1  0
 17 55  1  0
 17 56  1  0
 21 57  1  0
 21 58  1  0
 24 59  1  0
 25 60  1  0
 28 61  1  0
 31 62  1  0
 31 63  1  0
 32 64  1  0
 32 65  1  0
M  END
$$$$
