
     RDKit          3D

 71 73  0  0  0  0  0  0  0  0999 V2000
    4.5545    2.0300    0.5341 C   0  0  0  0  0  0  0  0  0  0  0  0
    4.3389    0.8584   -0.2194 O   0  0  0  0  0  0  0  0  0  0  0  0
    3.5479   -0.0421    0.5298 C   0  0  0  0  0  0  0  0  0  0  0  0
    3.2462   -1.3015   -0.3020 C   0  0  0  0  0  0  0  0  0  0  0  0
    4.5182   -2.0988   -0.6087 C   0  0  0  0  0  0  0  0  0  0  0  0
    4.8869   -1.7535   -2.0463 C   0  0  0  0  0  0  0  0  0  0  0  0
    3.5985   -1.2721   -2.6976 C   0  0  0  0  0  0  0  0  0  0  0  0
    2.6897   -0.9505   -1.6079 N   0  0  0  0  0  0  0  0  0  0  0  0
    1.3525   -0.4685   -1.8663 C   0  0  0  0  0  0  0  0  0  0  0  0
    1.0241   -0.1814   -3.0501 O   0  0  0  0  0  0  0  0  0  0  0  0
    0.3138   -0.3217   -0.7761 C   0  0  0  0  0  0  0  0  0  0  0  0
    0.0276    1.1683   -0.4576 C   0  0  0  0  0  0  0  0  0  0  0  0
   -0.9434    1.8367   -1.4014 C   0  0  0  0  0  0  0  0  0  0  0  0
   -0.5717    2.1039   -2.5750 O   0  0  0  0  0  0  0  0  0  0  0  0
   -2.3036    2.1064   -1.0248 N   0  0  0  0  0  0  0  0  0  0  0  0
   -2.6684    2.8233    0.2031 C   0  0  0  0  0  0  0  0  0  0  0  0
   -2.4988    4.3607    0.0085 C   0  0  0  0  0  0  0  0  0  0  0  0
   -3.2704    4.9358   -1.1921 C   0  0  0  0  0  0  0  0  0  0  0  0
   -2.8158    5.1450    1.2908 C   0  0  0  0  0  0  0  0  0  0  0  0
   -4.0383    2.3651    0.6762 C   0  0  0  0  0  0  0  0  0  0  0  0
   -5.0562    3.0799    0.4781 O   0  0  0  0  0  0  0  0  0  0  0  0
   -4.2075    1.1021    1.3392 N   0  0  0  0  0  0  0  0  0  0  0  0
   -3.2579    0.0016    1.1754 C   0  0  0  0  0  0  0  0  0  0  0  0
   -3.6675   -1.2243    1.9980 C   0  0  0  0  0  0  0  0  0  0  0  0
   -2.8111   -2.4420    1.6429 C   0  0  0  0  0  0  0  0  0  0  0  0
   -1.4243   -2.1428    1.7996 O   0  0  0  0  0  0  0  0  0  0  0  0
   -0.4212   -3.0042    1.3440 C   0  0  0  0  0  0  0  0  0  0  0  0
    0.4001   -3.6382    2.2835 C   0  0  0  0  0  0  0  0  0  0  0  0
    1.3849   -4.5381    1.8678 C   0  0  0  0  0  0  0  0  0  0  0  0
    1.5572   -4.8081    0.5087 C   0  0  0  0  0  0  0  0  0  0  0  0
    0.7608   -4.1616   -0.4402 C   0  0  0  0  0  0  0  0  0  0  0  0
   -0.2166   -3.2406   -0.0338 C   0  0  0  0  0  0  0  0  0  0  0  0
   -0.9679   -2.4957   -1.0594 C   0  0  0  0  0  0  0  0  0  0  0  0
   -1.6782   -3.1337   -1.8807 O   0  0  0  0  0  0  0  0  0  0  0  0
   -0.8992   -1.0639   -1.1499 N   0  0  0  0  0  0  0  0  0  0  0  0
    5.0908    1.8071    1.4833 H   0  0  0  0  0  0  0  0  0  0  0  0
    3.5951    2.5543    0.7442 H   0  0  0  0  0  0  0  0  0  0  0  0
    5.1911    2.7188   -0.0580 H   0  0  0  0  0  0  0  0  0  0  0  0
    2.5877    0.4304    0.8278 H   0  0  0  0  0  0  0  0  0  0  0  0
    4.0780   -0.3492    1.4609 H   0  0  0  0  0  0  0  0  0  0  0  0
    2.5505   -1.9605    0.2582 H   0  0  0  0  0  0  0  0  0  0  0  0
    4.2921   -3.1864   -0.5462 H   0  0  0  0  0  0  0  0  0  0  0  0
    5.3559   -1.8748    0.0873 H   0  0  0  0  0  0  0  0  0  0  0  0
    5.6366   -0.9317   -2.0488 H   0  0  0  0  0  0  0  0  0  0  0  0
    5.3074   -2.6334   -2.5793 H   0  0  0  0  0  0  0  0  0  0  0  0
    3.7894   -0.3720   -3.3211 H   0  0  0  0  0  0  0  0  0  0  0  0
    3.1580   -2.0785   -3.3233 H   0  0  0  0  0  0  0  0  0  0  0  0
    0.6996   -0.7536    0.1644 H   0  0  0  0  0  0  0  0  0  0  0  0
   -0.3376    1.2260    0.5831 H   0  0  0  0  0  0  0  0  0  0  0  0
    0.9793    1.7431   -0.4715 H   0  0  0  0  0  0  0  0  0  0  0  0
   -3.0167    2.0722   -1.7884 H   0  0  0  0  0  0  0  0  0  0  0  0
   -1.9658    2.5537    1.0143 H   0  0  0  0  0  0  0  0  0  0  0  0
   -1.4197    4.5350   -0.2031 H   0  0  0  0  0  0  0  0  0  0  0  0
   -3.0477    6.0186   -1.2984 H   0  0  0  0  0  0  0  0  0  0  0  0
   -4.3652    4.8233   -1.0756 H   0  0  0  0  0  0  0  0  0  0  0  0
   -2.9536    4.4423   -2.1331 H   0  0  0  0  0  0  0  0  0  0  0  0
   -2.2377    4.7339    2.1459 H   0  0  0  0  0  0  0  0  0  0  0  0
   -3.8972    5.1038    1.5342 H   0  0  0  0  0  0  0  0  0  0  0  0
   -2.5272    6.2100    1.1643 H   0  0  0  0  0  0  0  0  0  0  0  0
   -5.1019    0.9374    1.8554 H   0  0  0  0  0  0  0  0  0  0  0  0
   -3.2133   -0.2713    0.1004 H   0  0  0  0  0  0  0  0  0  0  0  0
   -2.2545    0.3243    1.5155 H   0  0  0  0  0  0  0  0  0  0  0  0
   -3.5588   -0.9967    3.0802 H   0  0  0  0  0  0  0  0  0  0  0  0
   -4.7325   -1.4714    1.7980 H   0  0  0  0  0  0  0  0  0  0  0  0
   -3.0798   -3.2868    2.3125 H   0  0  0  0  0  0  0  0  0  0  0  0
   -3.0339   -2.7478    0.5999 H   0  0  0  0  0  0  0  0  0  0  0  0
    0.2610   -3.4461    3.3398 H   0  0  0  0  0  0  0  0  0  0  0  0
    2.0108   -5.0313    2.6003 H   0  0  0  0  0  0  0  0  0  0  0  0
    2.3212   -5.5050    0.1889 H   0  0  0  0  0  0  0  0  0  0  0  0
    0.9293   -4.3533   -1.4928 H   0  0  0  0  0  0  0  0  0  0  0  0
   -1.5748   -0.6183   -1.8098 H   0  0  0  0  0  0  0  0  0  0  0  0
  1  2  1  0
  2  3  1  0
  3  4  1  0
  4  5  1  0
  5  6  1  0
  6  7  1  0
  7  8  1  0
  8  9  1  0
  9 10  2  0
  9 11  1  0
 11 12  1  0
 12 13  1  0
 13 14  2  0
 13 15  1  0
 15 16  1  0
 16 17  1  0
 17 18  1  0
 17 19  1  0
 16 20  1  0
 20 21  2  0
 20 22  1  0
 22 23  1  0
 23 24  1  0
 24 25  1  0
 25 26  1  0
 26 27  1  0
 27 28  2  0
 28 29  1  0
 29 30  2  0
 30 31  1  0
 31 32  2  0
 32 33  1  0
 33 34  2  0
 33 35  1  0
  8  4  1  0
 35 11  1  0
 32 27  1  0
  1 36  1  0
  1 37  1  0
  1 38  1  0
  3 39  1  0
  3 40  1  0
  4 41  1  0
  5 42  1  0
  5 43  1  0
  6 44  1  0
  6 45  1  0
  7 46  1  0
  7 47  1  0
 11 48  1  0
 12 49  1  0
 12 50  1  0
 15 51  1  0
 16 52  1  0
 17 53  1  0
 18 54  1  0
 18 55  1  0
 18 56  1  0
 19 57  1  0
 19 58  1  0
 19 59  1  0
 22 60  1  0
 23 61  1  0
 23 62  1  0
 24 63  1  0
 24 64  1  0
 25 65  1  0
 25 66  1  0
 28 67  1  0
 29 68  1  0
 30 69  1  0
 31 70  1  0
 35 71  1  0
M  END
$$$$
