
     RDKit          3D

100104  0  0  0  0  0  0  0  0999 V2000
   -1.6581   -4.0268    0.7127 C   0  0  0  0  0  0  0  0  0  0  0  0
   -3.1193   -3.6695    0.4031 C   0  0  0  0  0  0  0  0  0  0  0  0
   -3.9100   -4.9363    0.0457 C   0  0  0  0  0  0  0  0  0  0  0  0
   -3.1947   -2.5627   -0.6881 C   0  0  0  0  0  0  0  0  0  0  0  0
   -4.6191   -2.0190   -0.8961 C   0  0  0  0  0  0  0  0  0  0  0  0
   -5.1611   -1.5621    0.3428 O   0  0  0  0  0  0  0  0  0  0  0  0
   -6.5183   -1.2855    0.5999 C   0  0  0  0  0  0  0  0  0  0  0  0
   -6.9770   -1.5465    1.8984 C   0  0  0  0  0  0  0  0  0  0  0  0
   -8.3160   -1.3468    2.2399 C   0  0  0  0  0  0  0  0  0  0  0  0
   -9.2167   -0.8729    1.2879 C   0  0  0  0  0  0  0  0  0  0  0  0
   -8.7770   -0.5796   -0.0029 C   0  0  0  0  0  0  0  0  0  0  0  0
   -7.4305   -0.7584   -0.3597 C   0  0  0  0  0  0  0  0  0  0  0  0
   -7.0349   -0.3571   -1.7222 C   0  0  0  0  0  0  0  0  0  0  0  0
   -7.5296   -0.9749   -2.7046 O   0  0  0  0  0  0  0  0  0  0  0  0
   -6.1505    0.7445   -1.9676 N   0  0  0  0  0  0  0  0  0  0  0  0
   -5.5982    1.5980   -0.9128 C   0  0  0  0  0  0  0  0  0  0  0  0
   -4.3300    2.2962   -1.4127 C   0  0  0  0  0  0  0  0  0  0  0  0
   -3.5458    2.9380   -0.2731 C   0  0  0  0  0  0  0  0  0  0  0  0
   -2.2754    3.3514   -0.7717 O   0  0  0  0  0  0  0  0  0  0  0  0
   -1.2341    3.8633    0.0158 C   0  0  0  0  0  0  0  0  0  0  0  0
   -1.4541    4.3198    1.3312 C   0  0  0  0  0  0  0  0  0  0  0  0
   -0.4004    4.8560    2.0761 C   0  0  0  0  0  0  0  0  0  0  0  0
    0.8744    4.9532    1.5161 C   0  0  0  0  0  0  0  0  0  0  0  0
    1.1062    4.4950    0.2176 C   0  0  0  0  0  0  0  0  0  0  0  0
    0.0638    3.9310   -0.5351 C   0  0  0  0  0  0  0  0  0  0  0  0
    0.3478    3.3849   -1.8814 C   0  0  0  0  0  0  0  0  0  0  0  0
    1.1888    3.9585   -2.6242 O   0  0  0  0  0  0  0  0  0  0  0  0
   -0.3227    2.2069   -2.3551 N   0  0  0  0  0  0  0  0  0  0  0  0
    0.0948    0.8649   -1.9271 C   0  0  0  0  0  0  0  0  0  0  0  0
    0.3999    0.8304   -0.4455 C   0  0  0  0  0  0  0  0  0  0  0  0
   -0.5412    0.8444    0.3966 O   0  0  0  0  0  0  0  0  0  0  0  0
    1.7631    0.8468   -0.0050 N   0  0  0  0  0  0  0  0  0  0  0  0
    2.1321    0.8634    1.4078 C   0  0  0  0  0  0  0  0  0  0  0  0
    3.6031    0.5857    1.5500 C   0  0  0  0  0  0  0  0  0  0  0  0
    4.5323    1.6349    1.4733 C   0  0  0  0  0  0  0  0  0  0  0  0
    5.9035    1.3607    1.4765 C   0  0  0  0  0  0  0  0  0  0  0  0
    6.3623    0.0349    1.5294 C   0  0  0  0  0  0  0  0  0  0  0  0
    7.8316   -0.2807    1.4422 C   0  0  0  0  0  0  0  0  0  0  0  0
    8.1412   -0.8742    0.1200 N   0  0  0  0  0  0  0  0  0  0  0  0
    8.3233    0.1529   -0.9348 C   0  0  0  0  0  0  0  0  0  0  0  0
    9.7994    0.5594   -1.1154 C   0  0  0  0  0  0  0  0  0  0  0  0
   10.5142    0.3656    0.0864 O   0  0  0  0  0  0  0  0  0  0  0  0
   10.6258   -1.0200    0.3695 C   0  0  0  0  0  0  0  0  0  0  0  0
    9.2984   -1.7891    0.1765 C   0  0  0  0  0  0  0  0  0  0  0  0
    5.4317   -1.0118    1.6109 C   0  0  0  0  0  0  0  0  0  0  0  0
    4.0620   -0.7390    1.6166 C   0  0  0  0  0  0  0  0  0  0  0  0
   -0.9750   -0.1806   -2.3054 C   0  0  0  0  0  0  0  0  0  0  0  0
   -0.5152   -1.6145   -1.9961 C   0  0  0  0  0  0  0  0  0  0  0  0
   -1.4462   -2.6295   -2.6020 C   0  0  0  0  0  0  0  0  0  0  0  0
   -1.1433   -3.1179   -3.7228 O   0  0  0  0  0  0  0  0  0  0  0  0
   -2.6732   -3.0487   -1.9739 N   0  0  0  0  0  0  0  0  0  0  0  0
   -1.6080   -4.7809    1.5265 H   0  0  0  0  0  0  0  0  0  0  0  0
   -1.1476   -4.4367   -0.1846 H   0  0  0  0  0  0  0  0  0  0  0  0
   -1.1076   -3.1264    1.0600 H   0  0  0  0  0  0  0  0  0  0  0  0
   -3.5542   -3.2650    1.3437 H   0  0  0  0  0  0  0  0  0  0  0  0
   -3.5160   -5.4096   -0.8790 H   0  0  0  0  0  0  0  0  0  0  0  0
   -3.8317   -5.6775    0.8689 H   0  0  0  0  0  0  0  0  0  0  0  0
   -4.9880   -4.7018   -0.0845 H   0  0  0  0  0  0  0  0  0  0  0  0
   -2.5898   -1.7072   -0.3268 H   0  0  0  0  0  0  0  0  0  0  0  0
   -5.2823   -2.7971   -1.3353 H   0  0  0  0  0  0  0  0  0  0  0  0
   -4.5382   -1.1795   -1.6125 H   0  0  0  0  0  0  0  0  0  0  0  0
   -6.2899   -1.9374    2.6399 H   0  0  0  0  0  0  0  0  0  0  0  0
   -8.6566   -1.5600    3.2454 H   0  0  0  0  0  0  0  0  0  0  0  0
  -10.2552   -0.7260    1.5525 H   0  0  0  0  0  0  0  0  0  0  0  0
   -9.4861   -0.1894   -0.7244 H   0  0  0  0  0  0  0  0  0  0  0  0
   -5.8898    0.9395   -2.9630 H   0  0  0  0  0  0  0  0  0  0  0  0
   -6.3602    2.3502   -0.6119 H   0  0  0  0  0  0  0  0  0  0  0  0
   -5.3325    0.9856   -0.0270 H   0  0  0  0  0  0  0  0  0  0  0  0
   -3.6768    1.5460   -1.9105 H   0  0  0  0  0  0  0  0  0  0  0  0
   -4.5967    3.0712   -2.1620 H   0  0  0  0  0  0  0  0  0  0  0  0
   -3.3883    2.1987    0.5443 H   0  0  0  0  0  0  0  0  0  0  0  0
   -4.1064    3.8114    0.1195 H   0  0  0  0  0  0  0  0  0  0  0  0
   -2.4346    4.2761    1.7849 H   0  0  0  0  0  0  0  0  0  0  0  0
   -0.5745    5.2067    3.0849 H   0  0  0  0  0  0  0  0  0  0  0  0
    1.6861    5.3740    2.0917 H   0  0  0  0  0  0  0  0  0  0  0  0
    2.1094    4.5566   -0.1906 H   0  0  0  0  0  0  0  0  0  0  0  0
   -0.7207    2.2769   -3.3169 H   0  0  0  0  0  0  0  0  0  0  0  0
    1.0189    0.6125   -2.4920 H   0  0  0  0  0  0  0  0  0  0  0  0
    2.5156    0.8931   -0.7286 H   0  0  0  0  0  0  0  0  0  0  0  0
    1.8816    1.8546    1.8467 H   0  0  0  0  0  0  0  0  0  0  0  0
    1.5507    0.0896    1.9528 H   0  0  0  0  0  0  0  0  0  0  0  0
    4.1927    2.6606    1.3921 H   0  0  0  0  0  0  0  0  0  0  0  0
    6.6037    2.1823    1.4067 H   0  0  0  0  0  0  0  0  0  0  0  0
    8.4451    0.6292    1.6328 H   0  0  0  0  0  0  0  0  0  0  0  0
    8.0675   -0.9951    2.2619 H   0  0  0  0  0  0  0  0  0  0  0  0
    7.7123    1.0573   -0.7229 H   0  0  0  0  0  0  0  0  0  0  0  0
    7.9433   -0.2543   -1.8957 H   0  0  0  0  0  0  0  0  0  0  0  0
   10.2674   -0.0211   -1.9452 H   0  0  0  0  0  0  0  0  0  0  0  0
    9.8557    1.6349   -1.4026 H   0  0  0  0  0  0  0  0  0  0  0  0
   11.4295   -1.4703   -0.2563 H   0  0  0  0  0  0  0  0  0  0  0  0
   10.9404   -1.1247    1.4307 H   0  0  0  0  0  0  0  0  0  0  0  0
    9.3494   -2.3610   -0.7770 H   0  0  0  0  0  0  0  0  0  0  0  0
    9.1656   -2.5461    0.9808 H   0  0  0  0  0  0  0  0  0  0  0  0
    5.7716   -2.0401    1.6453 H   0  0  0  0  0  0  0  0  0  0  0  0
    3.3598   -1.5630    1.6401 H   0  0  0  0  0  0  0  0  0  0  0  0
   -1.9178    0.0325   -1.7636 H   0  0  0  0  0  0  0  0  0  0  0  0
   -1.1832   -0.1005   -3.3949 H   0  0  0  0  0  0  0  0  0  0  0  0
   -0.4246   -1.7720   -0.9024 H   0  0  0  0  0  0  0  0  0  0  0  0
    0.4996   -1.7716   -2.4242 H   0  0  0  0  0  0  0  0  0  0  0  0
   -3.2405   -3.7620   -2.4861 H   0  0  0  0  0  0  0  0  0  0  0  0
  1  2  1  0
  2  3  1  0
  2  4  1  0
  4  5  1  0
  5  6  1  0
  6  7  1  0
  7  8  2  0
  8  9  1  0
  9 10  2  0
 10 11  1  0
 11 12  2  0
 12 13  1  0
 13 14  2  0
 13 15  1  0
 15 16  1  0
 16 17  1  0
 17 18  1  0
 18 19  1  0
 19 20  1  0
 20 21  2  0
 21 22  1  0
 22 23  2  0
 23 24  1  0
 24 25  2  0
 25 26  1  0
 26 27  2  0
 26 28  1  0
 28 29  1  0
 29 30  1  0
 30 31  2  0
 30 32  1  0
 32 33  1  0
 33 34  1  0
 34 35  2  0
 35 36  1  0
 36 37  2  0
 37 38  1  0
 38 39  1  0
 39 40  1  0
 40 41  1  0
 41 42  1  0
 42 43  1  0
 43 44  1  0
 37 45  1  0
 45 46  2  0
 29 47  1  0
 47 48  1  0
 48 49  1  0
 49 50  2  0
 49 51  1  0
 51  4  1  0
 12  7  1  0
 25 20  1  0
 46 34  1  0
 44 39  1  0
  1 52  1  0
  1 53  1  0
  1 54  1  0
  2 55  1  0
  3 56  1  0
  3 57  1  0
  3 58  1  0
  4 59  1  0
  5 60  1  0
  5 61  1  0
  8 62  1  0
  9 63  1  0
 10 64  1  0
 11 65  1  0
 15 66  1  0
 16 67  1  0
 16 68  1  0
 17 69  1  0
 17 70  1  0
 18 71  1  0
 18 72  1  0
 21 73  1  0
 22 74  1  0
 23 75  1  0
 24 76  1  0
 28 77  1  0
 29 78  1  0
 32 79  1  0
 33 80  1  0
 33 81  1  0
 35 82  1  0
 36 83  1  0
 38 84  1  0
 38 85  1  0
 40 86  1  0
 40 87  1  0
 41 88  1  0
 41 89  1  0
 43 90  1  0
 43 91  1  0
 44 92  1  0
 44 93  1  0
 45 94  1  0
 46 95  1  0
 47 96  1  0
 47 97  1  0
 48 98  1  0
 48 99  1  0
 51100  1  0
M  END
$$$$
