
     RDKit          3D

 71 74  0  0  0  0  0  0  0  0999 V2000
   -4.1520    5.1924   -0.0115 C   0  0  0  0  0  0  0  0  0  0  0  0
   -3.7256    3.7265    0.1547 C   0  0  0  0  0  0  0  0  0  0  0  0
   -3.3638    3.4580    1.6269 C   0  0  0  0  0  0  0  0  0  0  0  0
   -2.5469    3.4146   -0.8030 C   0  0  0  0  0  0  0  0  0  0  0  0
   -2.1249    1.9250   -0.8648 C   0  0  0  0  0  0  0  0  0  0  0  0
   -3.1375    1.0746   -1.6558 C   0  0  0  0  0  0  0  0  0  0  0  0
   -2.8117   -0.3160   -1.5684 O   0  0  0  0  0  0  0  0  0  0  0  0
   -3.4001   -1.2206   -0.6651 C   0  0  0  0  0  0  0  0  0  0  0  0
   -4.0732   -0.7815    0.4914 C   0  0  0  0  0  0  0  0  0  0  0  0
   -4.7331   -1.6978    1.3159 C   0  0  0  0  0  0  0  0  0  0  0  0
   -4.7263   -3.0592    1.0019 C   0  0  0  0  0  0  0  0  0  0  0  0
   -5.5696   -4.2038    2.0304 Cl  0  0  0  0  0  0  0  0  0  0  0  0
   -4.0324   -3.5111   -0.1225 C   0  0  0  0  0  0  0  0  0  0  0  0
   -3.3452   -2.6024   -0.9429 C   0  0  0  0  0  0  0  0  0  0  0  0
   -2.5892   -3.1066   -2.1019 C   0  0  0  0  0  0  0  0  0  0  0  0
   -3.2083   -3.6777   -3.0383 O   0  0  0  0  0  0  0  0  0  0  0  0
   -1.1631   -2.9715   -2.1779 N   0  0  0  0  0  0  0  0  0  0  0  0
   -0.3302   -2.9372   -0.9741 C   0  0  0  0  0  0  0  0  0  0  0  0
    1.0662   -2.3903   -1.2968 C   0  0  0  0  0  0  0  0  0  0  0  0
    2.0228   -2.4031   -0.0898 C   0  0  0  0  0  0  0  0  0  0  0  0
    1.5975   -1.4987    1.0780 C   0  0  0  0  0  0  0  0  0  0  0  0
    1.6249   -0.0686    0.7167 N   0  0  0  0  0  0  0  0  0  0  0  0
    2.8363    0.7122    0.8564 C   0  0  0  0  0  0  0  0  0  0  0  0
    2.8017    1.9631    0.6900 O   0  0  0  0  0  0  0  0  0  0  0  0
    4.1326    0.0969    1.2100 C   0  0  0  0  0  0  0  0  0  0  0  0
    4.4095   -0.1527    2.5643 C   0  0  0  0  0  0  0  0  0  0  0  0
    5.6481   -0.6639    2.9552 C   0  0  0  0  0  0  0  0  0  0  0  0
    6.6315   -0.9232    2.0002 C   0  0  0  0  0  0  0  0  0  0  0  0
    6.3808   -0.6763    0.6468 C   0  0  0  0  0  0  0  0  0  0  0  0
    7.3529   -0.9204   -0.2727 N   0  0  0  0  0  0  0  0  0  0  0  0
    7.1650   -0.6851   -1.5965 C   0  0  0  0  0  0  0  0  0  0  0  0
    5.9456   -0.1864   -2.0506 C   0  0  0  0  0  0  0  0  0  0  0  0
    4.9260    0.0741   -1.1345 C   0  0  0  0  0  0  0  0  0  0  0  0
    5.1280   -0.1626    0.2371 C   0  0  0  0  0  0  0  0  0  0  0  0
    0.3562    0.6143    0.4003 C   0  0  0  0  0  0  0  0  0  0  0  0
    0.3468    1.2055   -0.9888 C   0  0  0  0  0  0  0  0  0  0  0  0
    1.3910    1.1635   -1.6961 O   0  0  0  0  0  0  0  0  0  0  0  0
   -0.8201    1.8402   -1.5308 N   0  0  0  0  0  0  0  0  0  0  0  0
   -3.3156    5.8735    0.2562 H   0  0  0  0  0  0  0  0  0  0  0  0
   -4.4618    5.3905   -1.0604 H   0  0  0  0  0  0  0  0  0  0  0  0
   -5.0194    5.4171    0.6451 H   0  0  0  0  0  0  0  0  0  0  0  0
   -4.6042    3.1034   -0.1099 H   0  0  0  0  0  0  0  0  0  0  0  0
   -2.3951    3.9360    1.8898 H   0  0  0  0  0  0  0  0  0  0  0  0
   -3.2895    2.3703    1.8209 H   0  0  0  0  0  0  0  0  0  0  0  0
   -4.1571    3.8458    2.3025 H   0  0  0  0  0  0  0  0  0  0  0  0
   -1.6703    4.0227   -0.4837 H   0  0  0  0  0  0  0  0  0  0  0  0
   -2.8104    3.7446   -1.8338 H   0  0  0  0  0  0  0  0  0  0  0  0
   -2.0581    1.5304    0.1650 H   0  0  0  0  0  0  0  0  0  0  0  0
   -4.1825    1.2427   -1.3198 H   0  0  0  0  0  0  0  0  0  0  0  0
   -3.0996    1.3733   -2.7258 H   0  0  0  0  0  0  0  0  0  0  0  0
   -4.0981    0.2646    0.7640 H   0  0  0  0  0  0  0  0  0  0  0  0
   -5.2557   -1.3461    2.1949 H   0  0  0  0  0  0  0  0  0  0  0  0
   -4.0183   -4.5714   -0.3499 H   0  0  0  0  0  0  0  0  0  0  0  0
   -0.7066   -3.1767   -3.0970 H   0  0  0  0  0  0  0  0  0  0  0  0
   -0.2474   -3.9655   -0.5625 H   0  0  0  0  0  0  0  0  0  0  0  0
   -0.8136   -2.2980   -0.2122 H   0  0  0  0  0  0  0  0  0  0  0  0
    0.9778   -1.3663   -1.7075 H   0  0  0  0  0  0  0  0  0  0  0  0
    1.5159   -3.0207   -2.0958 H   0  0  0  0  0  0  0  0  0  0  0  0
    3.0323   -2.0971   -0.4375 H   0  0  0  0  0  0  0  0  0  0  0  0
    2.1120   -3.4461    0.2857 H   0  0  0  0  0  0  0  0  0  0  0  0
    0.5963   -1.7947    1.4498 H   0  0  0  0  0  0  0  0  0  0  0  0
    2.2703   -1.6886    1.9399 H   0  0  0  0  0  0  0  0  0  0  0  0
    3.6617    0.0542    3.3208 H   0  0  0  0  0  0  0  0  0  0  0  0
    5.8480   -0.8538    4.0018 H   0  0  0  0  0  0  0  0  0  0  0  0
    7.5910   -1.3122    2.3162 H   0  0  0  0  0  0  0  0  0  0  0  0
    7.9627   -0.8898   -2.2972 H   0  0  0  0  0  0  0  0  0  0  0  0
    5.7879   -0.0086   -3.1071 H   0  0  0  0  0  0  0  0  0  0  0  0
    3.9863    0.4550   -1.5032 H   0  0  0  0  0  0  0  0  0  0  0  0
    0.1805    1.4197    1.1424 H   0  0  0  0  0  0  0  0  0  0  0  0
   -0.4909   -0.0932    0.4753 H   0  0  0  0  0  0  0  0  0  0  0  0
   -0.7389    2.2411   -2.4941 H   0  0  0  0  0  0  0  0  0  0  0  0
  1  2  1  0
  2  3  1  0
  2  4  1  0
  4  5  1  0
  5  6  1  0
  6  7  1  0
  7  8  1  0
  8  9  2  0
  9 10  1  0
 10 11  2  0
 11 12  1  0
 11 13  1  0
 13 14  2  0
 14 15  1  0
 15 16  2  0
 15 17  1  0
 17 18  1  0
 18 19  1  0
 19 20  1  0
 20 21  1  0
 21 22  1  0
 22 23  1  0
 23 24  2  0
 23 25  1  0
 25 26  2  0
 26 27  1  0
 27 28  2  0
 28 29  1  0
 29 30  2  0
 30 31  1  0
 31 32  2  0
 32 33  1  0
 33 34  2  0
 22 35  1  0
 35 36  1  0
 36 37  2  0
 36 38  1  0
 38  5  1  0
 14  8  1  0
 34 25  1  0
 34 29  1  0
  1 39  1  0
  1 40  1  0
  1 41  1  0
  2 42  1  0
  3 43  1  0
  3 44  1  0
  3 45  1  0
  4 46  1  0
  4 47  1  0
  5 48  1  0
  6 49  1  0
  6 50  1  0
  9 51  1  0
 10 52  1  0
 13 53  1  0
 17 54  1  0
 18 55  1  0
 18 56  1  0
 19 57  1  0
 19 58  1  0
 20 59  1  0
 20 60  1  0
 21 61  1  0
 21 62  1  0
 26 63  1  0
 27 64  1  0
 28 65  1  0
 31 66  1  0
 32 67  1  0
 33 68  1  0
 35 69  1  0
 35 70  1  0
 38 71  1  0
M  END
$$$$
