
     RDKit          3D

 58 61  0  0  0  0  0  0  0  0999 V2000
   -1.9668    2.3067   -0.6346 O   0  0  0  0  0  0  0  0  0  0  0  0
   -1.5769    1.1362   -0.8932 C   0  0  0  0  0  0  0  0  0  0  0  0
   -0.3545    0.6621   -0.2986 N   0  0  0  0  0  0  0  0  0  0  0  0
    0.2877   -0.6248   -0.6057 C   0  0  0  0  0  0  0  0  0  0  0  0
    0.8981   -1.3604    0.6439 C   0  0  0  0  0  0  0  0  0  0  0  0
   -0.1898   -2.2222    1.3687 C   0  0  0  0  0  0  0  0  0  0  0  0
   -1.4650   -1.4793    1.8345 C   0  0  0  0  0  0  0  0  0  0  0  0
   -2.7000   -1.8931    1.0126 C   0  0  0  0  0  0  0  0  0  0  0  0
   -3.9746   -1.1347    1.4172 C   0  0  0  0  0  0  0  0  0  0  0  0
   -4.0021    0.3374    0.9718 C   0  0  0  0  0  0  0  0  0  0  0  0
   -4.4440    0.4840   -0.3820 O   0  0  0  0  0  0  0  0  0  0  0  0
   -3.7706    0.0478   -1.5356 C   0  0  0  0  0  0  0  0  0  0  0  0
   -4.5242   -0.6540   -2.4859 C   0  0  0  0  0  0  0  0  0  0  0  0
   -3.9364   -1.1184   -3.6634 C   0  0  0  0  0  0  0  0  0  0  0  0
   -2.5896   -0.8655   -3.9180 C   0  0  0  0  0  0  0  0  0  0  0  0
   -1.8279   -0.1457   -2.9967 C   0  0  0  0  0  0  0  0  0  0  0  0
   -2.3977    0.3056   -1.7930 C   0  0  0  0  0  0  0  0  0  0  0  0
    2.0095   -2.3488    0.1278 C   0  0  0  0  0  0  0  0  0  0  0  0
    3.4585   -1.8302    0.2512 C   0  0  0  0  0  0  0  0  0  0  0  0
    3.5665   -0.3097    0.1061 C   0  0  0  0  0  0  0  0  0  0  0  0
    2.6289    0.3800    1.0059 N   0  0  0  0  0  0  0  0  0  0  0  0
    2.9224    1.7164    1.4521 C   0  0  0  0  0  0  0  0  0  0  0  0
    2.8114    1.9998    2.6757 O   0  0  0  0  0  0  0  0  0  0  0  0
    3.3625    2.7671    0.5145 C   0  0  0  0  0  0  0  0  0  0  0  0
    2.9502    2.7777   -0.8271 C   0  0  0  0  0  0  0  0  0  0  0  0
    3.3658    3.7784   -1.6476 N   0  0  0  0  0  0  0  0  0  0  0  0
    4.1701    4.7743   -1.1934 C   0  0  0  0  0  0  0  0  0  0  0  0
    4.5670    4.7784    0.1442 C   0  0  0  0  0  0  0  0  0  0  0  0
    4.1514    3.7802    0.9667 N   0  0  0  0  0  0  0  0  0  0  0  0
    1.5509   -0.3767    1.6562 C   0  0  0  0  0  0  0  0  0  0  0  0
    0.2126    1.3869    0.1933 H   0  0  0  0  0  0  0  0  0  0  0  0
   -0.4236   -1.3176   -1.0967 H   0  0  0  0  0  0  0  0  0  0  0  0
    1.0783   -0.4202   -1.3573 H   0  0  0  0  0  0  0  0  0  0  0  0
   -0.4721   -3.0746    0.7097 H   0  0  0  0  0  0  0  0  0  0  0  0
    0.2744   -2.6914    2.2653 H   0  0  0  0  0  0  0  0  0  0  0  0
   -1.3223   -0.3860    1.8077 H   0  0  0  0  0  0  0  0  0  0  0  0
   -1.6588   -1.7385    2.8986 H   0  0  0  0  0  0  0  0  0  0  0  0
   -2.5057   -1.7751   -0.0687 H   0  0  0  0  0  0  0  0  0  0  0  0
   -2.8827   -2.9765    1.1853 H   0  0  0  0  0  0  0  0  0  0  0  0
   -4.8564   -1.6540    0.9829 H   0  0  0  0  0  0  0  0  0  0  0  0
   -4.0836   -1.1815    2.5229 H   0  0  0  0  0  0  0  0  0  0  0  0
   -4.7443    0.8609    1.6106 H   0  0  0  0  0  0  0  0  0  0  0  0
   -3.0457    0.8514    1.1592 H   0  0  0  0  0  0  0  0  0  0  0  0
   -5.5731   -0.8507   -2.3022 H   0  0  0  0  0  0  0  0  0  0  0  0
   -4.5286   -1.6684   -4.3832 H   0  0  0  0  0  0  0  0  0  0  0  0
   -2.1382   -1.2148   -4.8374 H   0  0  0  0  0  0  0  0  0  0  0  0
   -0.7929    0.0740   -3.2302 H   0  0  0  0  0  0  0  0  0  0  0  0
    1.9759   -3.3099    0.6879 H   0  0  0  0  0  0  0  0  0  0  0  0
    1.8189   -2.6321   -0.9312 H   0  0  0  0  0  0  0  0  0  0  0  0
    3.8595   -2.1138    1.2494 H   0  0  0  0  0  0  0  0  0  0  0  0
    4.0983   -2.3227   -0.5128 H   0  0  0  0  0  0  0  0  0  0  0  0
    4.6098   -0.0108    0.3494 H   0  0  0  0  0  0  0  0  0  0  0  0
    3.3665   -0.0250   -0.9466 H   0  0  0  0  0  0  0  0  0  0  0  0
    2.2843    2.0193   -1.2148 H   0  0  0  0  0  0  0  0  0  0  0  0
    4.4907    5.5607   -1.8635 H   0  0  0  0  0  0  0  0  0  0  0  0
    5.1988    5.5688    0.5268 H   0  0  0  0  0  0  0  0  0  0  0  0
    1.9791   -0.9428    2.5124 H   0  0  0  0  0  0  0  0  0  0  0  0
    0.8002    0.3158    2.0895 H   0  0  0  0  0  0  0  0  0  0  0  0
  1  2  2  0
  2  3  1  0
  3  4  1  0
  4  5  1  0
  5  6  1  0
  6  7  1  0
  7  8  1  0
  8  9  1  0
  9 10  1  0
 10 11  1  0
 11 12  1  0
 12 13  2  0
 13 14  1  0
 14 15  2  0
 15 16  1  0
 16 17  2  0
  5 18  1  0
 18 19  1  0
 19 20  1  0
 20 21  1  0
 21 22  1  0
 22 23  2  0
 22 24  1  0
 24 25  2  0
 25 26  1  0
 26 27  2  0
 27 28  1  0
 28 29  2  0
 21 30  1  0
 17  2  1  0
 29 24  1  0
 30  5  1  0
 17 12  1  0
  3 31  1  0
  4 32  1  0
  4 33  1  0
  6 34  1  0
  6 35  1  0
  7 36  1  0
  7 37  1  0
  8 38  1  0
  8 39  1  0
  9 40  1  0
  9 41  1  0
 10 42  1  0
 10 43  1  0
 13 44  1  0
 14 45  1  0
 15 46  1  0
 16 47  1  0
 18 48  1  0
 18 49  1  0
 19 50  1  0
 19 51  1  0
 20 52  1  0
 20 53  1  0
 25 54  1  0
 27 55  1  0
 28 56  1  0
 30 57  1  0
 30 58  1  0
M  END
$$$$
