
     RDKit          3D

 69 70  0  0  0  0  0  0  0  0999 V2000
   -6.8091    1.3693    0.7619 C   0  0  0  0  0  0  0  0  0  0  0  0
   -5.5197    0.9783    1.1780 O   0  0  0  0  0  0  0  0  0  0  0  0
   -4.6057    0.9878    0.0905 C   0  0  0  0  0  0  0  0  0  0  0  0
   -3.3712    1.8424    0.5036 C   0  0  0  0  0  0  0  0  0  0  0  0
   -2.4761    2.1431   -0.6325 N   0  0  0  0  0  0  0  0  0  0  0  0
   -2.8130    3.1707   -1.5925 C   0  0  0  0  0  0  0  0  0  0  0  0
   -3.7580    4.2846   -1.2534 C   0  0  0  0  0  0  0  0  0  0  0  0
   -2.3026    3.1450   -2.7454 O   0  0  0  0  0  0  0  0  0  0  0  0
   -1.3430    1.2431   -0.9002 C   0  0  0  0  0  0  0  0  0  0  0  0
    0.0284    1.9362   -0.8269 C   0  0  0  0  0  0  0  0  0  0  0  0
    1.1370    1.0876   -1.5024 C   0  0  0  0  0  0  0  0  0  0  0  0
    1.9000    0.2443   -0.5552 N   0  0  0  0  0  0  0  0  0  0  0  0
    3.1707    0.7313   -0.0812 C   0  0  0  0  0  0  0  0  0  0  0  0
    3.3278    1.9651    0.1267 O   0  0  0  0  0  0  0  0  0  0  0  0
    4.3053   -0.1822    0.1379 C   0  0  0  0  0  0  0  0  0  0  0  0
    5.5199    0.1453    0.7030 C   0  0  0  0  0  0  0  0  0  0  0  0
    6.2209   -1.0452    0.6732 C   0  0  0  0  0  0  0  0  0  0  0  0
    7.6270   -1.2714    1.1584 C   0  0  0  0  0  0  0  0  0  0  0  0
    8.6233   -0.4814    0.3044 C   0  0  0  0  0  0  0  0  0  0  0  0
    7.7580   -0.9012    2.6395 C   0  0  0  0  0  0  0  0  0  0  0  0
    5.4587   -2.0048    0.1128 N   0  0  0  0  0  0  0  0  0  0  0  0
    4.3214   -1.4524   -0.1947 O   0  0  0  0  0  0  0  0  0  0  0  0
    1.3027   -0.9498    0.0776 C   0  0  0  0  0  0  0  0  0  0  0  0
    1.0199   -2.0922   -0.9354 C   0  0  0  0  0  0  0  0  0  0  0  0
   -0.1719   -3.0051   -0.5458 C   0  0  0  0  0  0  0  0  0  0  0  0
   -1.4694   -2.2001   -0.4321 C   0  0  0  0  0  0  0  0  0  0  0  0
   -2.6380   -2.9737   -0.6299 O   0  0  0  0  0  0  0  0  0  0  0  0
   -3.5455   -2.8917    0.4647 C   0  0  0  0  0  0  0  0  0  0  0  0
   -4.0710   -1.4660    0.8592 C   0  0  0  0  0  0  0  0  0  0  0  0
   -3.2364   -0.9002    1.8357 O   0  0  0  0  0  0  0  0  0  0  0  0
   -4.2805   -0.4853   -0.3333 C   0  0  0  0  0  0  0  0  0  0  0  0
   -5.3363   -0.9825   -1.1172 O   0  0  0  0  0  0  0  0  0  0  0  0
   -7.4982    1.2978    1.6281 H   0  0  0  0  0  0  0  0  0  0  0  0
   -7.1960    0.6971   -0.0357 H   0  0  0  0  0  0  0  0  0  0  0  0
   -6.8075    2.4267    0.4161 H   0  0  0  0  0  0  0  0  0  0  0  0
   -5.0187    1.4974   -0.8147 H   0  0  0  0  0  0  0  0  0  0  0  0
   -2.8009    1.3653    1.3228 H   0  0  0  0  0  0  0  0  0  0  0  0
   -3.7310    2.7929    0.9505 H   0  0  0  0  0  0  0  0  0  0  0  0
   -3.4041    4.8119   -0.3430 H   0  0  0  0  0  0  0  0  0  0  0  0
   -3.8080    5.0185   -2.0856 H   0  0  0  0  0  0  0  0  0  0  0  0
   -4.7774    3.8835   -1.0795 H   0  0  0  0  0  0  0  0  0  0  0  0
   -1.3349    0.4500   -0.1420 H   0  0  0  0  0  0  0  0  0  0  0  0
   -1.4906    0.7815   -1.9002 H   0  0  0  0  0  0  0  0  0  0  0  0
   -0.0320    2.9107   -1.3564 H   0  0  0  0  0  0  0  0  0  0  0  0
    0.2915    2.1504    0.2316 H   0  0  0  0  0  0  0  0  0  0  0  0
    0.7225    0.4711   -2.3244 H   0  0  0  0  0  0  0  0  0  0  0  0
    1.8370    1.7847   -2.0147 H   0  0  0  0  0  0  0  0  0  0  0  0
    5.8471    1.1061    1.0788 H   0  0  0  0  0  0  0  0  0  0  0  0
    7.8665   -2.3531    1.0548 H   0  0  0  0  0  0  0  0  0  0  0  0
    9.6620   -0.6919    0.6372 H   0  0  0  0  0  0  0  0  0  0  0  0
    8.5326   -0.7807   -0.7621 H   0  0  0  0  0  0  0  0  0  0  0  0
    8.4364    0.6113    0.3875 H   0  0  0  0  0  0  0  0  0  0  0  0
    7.0287   -1.4828    3.2437 H   0  0  0  0  0  0  0  0  0  0  0  0
    7.5711    0.1835    2.7947 H   0  0  0  0  0  0  0  0  0  0  0  0
    8.7799   -1.1410    3.0035 H   0  0  0  0  0  0  0  0  0  0  0  0
    0.4111   -0.6288    0.6346 H   0  0  0  0  0  0  0  0  0  0  0  0
    1.9704   -1.3537    0.8687 H   0  0  0  0  0  0  0  0  0  0  0  0
    0.8282   -1.6902   -1.9497 H   0  0  0  0  0  0  0  0  0  0  0  0
    1.9319   -2.7213   -1.0229 H   0  0  0  0  0  0  0  0  0  0  0  0
   -0.2904   -3.7831   -1.3309 H   0  0  0  0  0  0  0  0  0  0  0  0
    0.0396   -3.5165    0.4185 H   0  0  0  0  0  0  0  0  0  0  0  0
   -1.4437   -1.6910    0.5473 H   0  0  0  0  0  0  0  0  0  0  0  0
   -1.4502   -1.4638   -1.2553 H   0  0  0  0  0  0  0  0  0  0  0  0
   -4.4303   -3.5056    0.1920 H   0  0  0  0  0  0  0  0  0  0  0  0
   -3.1008   -3.3932    1.3531 H   0  0  0  0  0  0  0  0  0  0  0  0
   -5.0768   -1.6162    1.3208 H   0  0  0  0  0  0  0  0  0  0  0  0
   -3.4085   -1.3841    2.6859 H   0  0  0  0  0  0  0  0  0  0  0  0
   -3.3762   -0.4615   -0.9598 H   0  0  0  0  0  0  0  0  0  0  0  0
   -5.2541   -0.5710   -2.0176 H   0  0  0  0  0  0  0  0  0  0  0  0
  1  2  1  0
  2  3  1  0
  3  4  1  0
  4  5  1  0
  5  6  1  0
  6  7  1  0
  6  8  2  0
  5  9  1  0
  9 10  1  0
 10 11  1  0
 11 12  1  0
 12 13  1  0
 13 14  2  0
 13 15  1  0
 15 16  2  0
 16 17  1  0
 17 18  1  0
 18 19  1  0
 18 20  1  0
 17 21  2  0
 21 22  1  0
 12 23  1  0
 23 24  1  0
 24 25  1  0
 25 26  1  0
 26 27  1  0
 27 28  1  0
 28 29  1  0
 29 30  1  0
 29 31  1  0
 31 32  1  0
 31  3  1  0
 22 15  1  0
  1 33  1  0
  1 34  1  0
  1 35  1  0
  3 36  1  0
  4 37  1  0
  4 38  1  0
  7 39  1  0
  7 40  1  0
  7 41  1  0
  9 42  1  0
  9 43  1  0
 10 44  1  0
 10 45  1  0
 11 46  1  0
 11 47  1  0
 16 48  1  0
 18 49  1  0
 19 50  1  0
 19 51  1  0
 19 52  1  0
 20 53  1  0
 20 54  1  0
 20 55  1  0
 23 56  1  0
 23 57  1  0
 24 58  1  0
 24 59  1  0
 25 60  1  0
 25 61  1  0
 26 62  1  0
 26 63  1  0
 28 64  1  0
 28 65  1  0
 29 66  1  0
 30 67  1  0
 31 68  1  0
 32 69  1  0
M  END
$$$$
