
     RDKit          3D

 81 84  0  0  0  0  0  0  0  0999 V2000
   -1.0021    5.2880    0.8894 C   0  0  0  0  0  0  0  0  0  0  0  0
   -0.0399    4.3763    0.1139 C   0  0  0  0  0  0  0  0  0  0  0  0
    1.1255    5.2021   -0.4458 C   0  0  0  0  0  0  0  0  0  0  0  0
   -0.7543    3.6275   -1.0373 C   0  0  0  0  0  0  0  0  0  0  0  0
   -1.8609    2.6479   -0.5714 C   0  0  0  0  0  0  0  0  0  0  0  0
   -1.4570    1.8243    0.5807 N   0  0  0  0  0  0  0  0  0  0  0  0
   -0.4132    0.8321    0.6553 C   0  0  0  0  0  0  0  0  0  0  0  0
   -0.3211    0.1562    1.7148 O   0  0  0  0  0  0  0  0  0  0  0  0
    0.6413    0.6606   -0.4133 C   0  0  0  0  0  0  0  0  0  0  0  0
    1.1917   -0.7875   -0.5175 C   0  0  0  0  0  0  0  0  0  0  0  0
    2.6394   -0.7561   -0.9413 C   0  0  0  0  0  0  0  0  0  0  0  0
    2.9541   -0.9475   -2.1491 O   0  0  0  0  0  0  0  0  0  0  0  0
    3.6551   -0.4541    0.0255 N   0  0  0  0  0  0  0  0  0  0  0  0
    5.0652   -0.3601   -0.3513 C   0  0  0  0  0  0  0  0  0  0  0  0
    5.9205    0.0502    0.8510 C   0  0  0  0  0  0  0  0  0  0  0  0
    7.3698    0.1280    0.4728 C   0  0  0  0  0  0  0  0  0  0  0  0
    7.8996    1.2785   -0.1278 C   0  0  0  0  0  0  0  0  0  0  0  0
    9.2137    1.3071   -0.4743 N   0  0  0  0  0  0  0  0  0  0  0  0
   10.0228    0.2364   -0.2566 C   0  0  0  0  0  0  0  0  0  0  0  0
    9.4944   -0.9161    0.3284 C   0  0  0  0  0  0  0  0  0  0  0  0
    8.1814   -0.9463    0.6766 N   0  0  0  0  0  0  0  0  0  0  0  0
    0.4048   -1.5699   -1.4808 N   0  0  0  0  0  0  0  0  0  0  0  0
    0.1504   -2.9711   -1.3006 C   0  0  0  0  0  0  0  0  0  0  0  0
    0.3038   -3.7556   -2.2761 O   0  0  0  0  0  0  0  0  0  0  0  0
   -0.3218   -3.5091   -0.0092 C   0  0  0  0  0  0  0  0  0  0  0  0
    0.2722   -4.6735    0.5074 C   0  0  0  0  0  0  0  0  0  0  0  0
   -0.1130   -5.1692    1.7556 C   0  0  0  0  0  0  0  0  0  0  0  0
   -1.0880   -4.5047    2.5023 C   0  0  0  0  0  0  0  0  0  0  0  0
   -1.7018   -3.3595    1.9894 C   0  0  0  0  0  0  0  0  0  0  0  0
   -1.3497   -2.8741    0.7245 C   0  0  0  0  0  0  0  0  0  0  0  0
   -2.0369   -1.7668    0.2213 O   0  0  0  0  0  0  0  0  0  0  0  0
   -2.9165   -1.8564   -0.8995 C   0  0  0  0  0  0  0  0  0  0  0  0
   -3.4633   -0.4607   -1.2533 C   0  0  0  0  0  0  0  0  0  0  0  0
   -4.2457    0.1624   -0.0680 C   0  0  0  0  0  0  0  0  0  0  0  0
   -5.4870   -0.6268    0.2648 C   0  0  0  0  0  0  0  0  0  0  0  0
   -5.5118   -1.4876    1.3760 C   0  0  0  0  0  0  0  0  0  0  0  0
   -6.6591   -2.2289    1.6671 C   0  0  0  0  0  0  0  0  0  0  0  0
   -7.7892   -2.1190    0.8534 C   0  0  0  0  0  0  0  0  0  0  0  0
   -7.7721   -1.2695   -0.2555 C   0  0  0  0  0  0  0  0  0  0  0  0
   -6.6265   -0.5265   -0.5521 C   0  0  0  0  0  0  0  0  0  0  0  0
   -2.3471    0.3892   -1.6953 N   0  0  0  0  0  0  0  0  0  0  0  0
   -2.4051    1.8199   -1.7117 C   0  0  0  0  0  0  0  0  0  0  0  0
   -2.9286    2.4019   -2.7004 O   0  0  0  0  0  0  0  0  0  0  0  0
   -0.4439    5.8662    1.6577 H   0  0  0  0  0  0  0  0  0  0  0  0
   -1.5074    6.0021    0.2044 H   0  0  0  0  0  0  0  0  0  0  0  0
   -1.7720    4.6855    1.4173 H   0  0  0  0  0  0  0  0  0  0  0  0
    0.3911    3.6390    0.8247 H   0  0  0  0  0  0  0  0  0  0  0  0
    1.6686    5.7069    0.3813 H   0  0  0  0  0  0  0  0  0  0  0  0
    0.7542    5.9727   -1.1554 H   0  0  0  0  0  0  0  0  0  0  0  0
    1.8479    4.5411   -0.9731 H   0  0  0  0  0  0  0  0  0  0  0  0
    0.0056    3.0943   -1.6445 H   0  0  0  0  0  0  0  0  0  0  0  0
   -1.2132    4.3776   -1.7194 H   0  0  0  0  0  0  0  0  0  0  0  0
   -2.7187    3.2751   -0.2391 H   0  0  0  0  0  0  0  0  0  0  0  0
   -2.0062    1.9735    1.4554 H   0  0  0  0  0  0  0  0  0  0  0  0
    1.4595    1.3701   -0.1645 H   0  0  0  0  0  0  0  0  0  0  0  0
    0.2517    0.9537   -1.4036 H   0  0  0  0  0  0  0  0  0  0  0  0
    1.1656   -1.2862    0.4748 H   0  0  0  0  0  0  0  0  0  0  0  0
    3.3681   -0.2793    1.0154 H   0  0  0  0  0  0  0  0  0  0  0  0
    5.1784    0.3967   -1.1601 H   0  0  0  0  0  0  0  0  0  0  0  0
    5.4103   -1.3465   -0.7340 H   0  0  0  0  0  0  0  0  0  0  0  0
    5.5794    1.0385    1.2330 H   0  0  0  0  0  0  0  0  0  0  0  0
    5.7922   -0.6935    1.6686 H   0  0  0  0  0  0  0  0  0  0  0  0
    7.2745    2.1414   -0.3156 H   0  0  0  0  0  0  0  0  0  0  0  0
   11.0658    0.2771   -0.5404 H   0  0  0  0  0  0  0  0  0  0  0  0
   10.1212   -1.7811    0.5039 H   0  0  0  0  0  0  0  0  0  0  0  0
    0.3366   -1.2030   -2.4578 H   0  0  0  0  0  0  0  0  0  0  0  0
    1.0473   -5.1888   -0.0483 H   0  0  0  0  0  0  0  0  0  0  0  0
    0.3503   -6.0635    2.1508 H   0  0  0  0  0  0  0  0  0  0  0  0
   -1.3779   -4.8844    3.4733 H   0  0  0  0  0  0  0  0  0  0  0  0
   -2.4703   -2.8602    2.5662 H   0  0  0  0  0  0  0  0  0  0  0  0
   -3.7514   -2.5516   -0.6613 H   0  0  0  0  0  0  0  0  0  0  0  0
   -2.3848   -2.2749   -1.7792 H   0  0  0  0  0  0  0  0  0  0  0  0
   -4.1601   -0.5743   -2.1130 H   0  0  0  0  0  0  0  0  0  0  0  0
   -4.5601    1.1975   -0.3227 H   0  0  0  0  0  0  0  0  0  0  0  0
   -3.5932    0.2346    0.8273 H   0  0  0  0  0  0  0  0  0  0  0  0
   -4.6462   -1.5829    2.0176 H   0  0  0  0  0  0  0  0  0  0  0  0
   -6.6724   -2.8907    2.5235 H   0  0  0  0  0  0  0  0  0  0  0  0
   -8.6801   -2.6897    1.0846 H   0  0  0  0  0  0  0  0  0  0  0  0
   -8.6486   -1.1865   -0.8859 H   0  0  0  0  0  0  0  0  0  0  0  0
   -6.6257    0.1266   -1.4166 H   0  0  0  0  0  0  0  0  0  0  0  0
   -1.7302   -0.0250   -2.4273 H   0  0  0  0  0  0  0  0  0  0  0  0
  1  2  1  0
  2  3  1  0
  2  4  1  0
  4  5  1  0
  5  6  1  0
  6  7  1  0
  7  8  2  0
  7  9  1  0
  9 10  1  0
 10 11  1  0
 11 12  2  0
 11 13  1  0
 13 14  1  0
 14 15  1  0
 15 16  1  0
 16 17  2  0
 17 18  1  0
 18 19  2  0
 19 20  1  0
 20 21  2  0
 10 22  1  0
 22 23  1  0
 23 24  2  0
 23 25  1  0
 25 26  2  0
 26 27  1  0
 27 28  2  0
 28 29  1  0
 29 30  2  0
 30 31  1  0
 31 32  1  0
 32 33  1  0
 33 34  1  0
 34 35  1  0
 35 36  2  0
 36 37  1  0
 37 38  2  0
 38 39  1  0
 39 40  2  0
 33 41  1  0
 41 42  1  0
 42 43  2  0
 42  5  1  0
 21 16  1  0
 30 25  1  0
 40 35  1  0
  1 44  1  0
  1 45  1  0
  1 46  1  0
  2 47  1  0
  3 48  1  0
  3 49  1  0
  3 50  1  0
  4 51  1  0
  4 52  1  0
  5 53  1  0
  6 54  1  0
  9 55  1  0
  9 56  1  0
 10 57  1  0
 13 58  1  0
 14 59  1  0
 14 60  1  0
 15 61  1  0
 15 62  1  0
 17 63  1  0
 19 64  1  0
 20 65  1  0
 22 66  1  0
 26 67  1  0
 27 68  1  0
 28 69  1  0
 29 70  1  0
 32 71  1  0
 32 72  1  0
 33 73  1  0
 34 74  1  0
 34 75  1  0
 36 76  1  0
 37 77  1  0
 38 78  1  0
 39 79  1  0
 40 80  1  0
 41 81  1  0
M  END
$$$$
