
     RDKit          3D

 88 91  0  0  0  0  0  0  0  0999 V2000
   -5.4501    4.0339   -2.3227 C   0  0  0  0  0  0  0  0  0  0  0  0
   -5.4361    3.7225   -0.8210 C   0  0  0  0  0  0  0  0  0  0  0  0
   -6.7883    3.1606   -0.3566 C   0  0  0  0  0  0  0  0  0  0  0  0
   -4.2246    2.8540   -0.3913 C   0  0  0  0  0  0  0  0  0  0  0  0
   -3.9662    1.5529   -1.2094 C   0  0  0  0  0  0  0  0  0  0  0  0
   -2.7537    0.8405   -0.7869 N   0  0  0  0  0  0  0  0  0  0  0  0
   -1.5796    1.4942   -0.2973 C   0  0  0  0  0  0  0  0  0  0  0  0
   -0.9774    2.3308   -1.0177 O   0  0  0  0  0  0  0  0  0  0  0  0
   -1.0710    1.1722    1.0752 C   0  0  0  0  0  0  0  0  0  0  0  0
   -0.4920   -0.2625    1.1631 C   0  0  0  0  0  0  0  0  0  0  0  0
    1.0129   -0.2573    1.0803 C   0  0  0  0  0  0  0  0  0  0  0  0
    1.6822    0.4108    1.9137 O   0  0  0  0  0  0  0  0  0  0  0  0
    1.6822   -1.0307    0.0688 N   0  0  0  0  0  0  0  0  0  0  0  0
    3.1340   -0.9557   -0.1276 C   0  0  0  0  0  0  0  0  0  0  0  0
    3.6328   -2.2274   -0.8158 C   0  0  0  0  0  0  0  0  0  0  0  0
    3.4880    0.2950   -0.9440 C   0  0  0  0  0  0  0  0  0  0  0  0
    4.9032    0.3930   -1.0867 O   0  0  0  0  0  0  0  0  0  0  0  0
    5.5922    1.4888   -1.6235 C   0  0  0  0  0  0  0  0  0  0  0  0
    4.9109    2.5720   -2.2080 C   0  0  0  0  0  0  0  0  0  0  0  0
    5.6232    3.6312   -2.7772 C   0  0  0  0  0  0  0  0  0  0  0  0
    7.0192    3.6225   -2.7694 C   0  0  0  0  0  0  0  0  0  0  0  0
    7.7093    2.5581   -2.1839 C   0  0  0  0  0  0  0  0  0  0  0  0
    9.0683    2.5572   -2.1957 F   0  0  0  0  0  0  0  0  0  0  0  0
    7.0071    1.4932   -1.5959 C   0  0  0  0  0  0  0  0  0  0  0  0
    7.7468    0.4353   -1.0399 O   0  0  0  0  0  0  0  0  0  0  0  0
    7.3539   -0.3232    0.0717 C   0  0  0  0  0  0  0  0  0  0  0  0
    6.7242    0.2696    1.1831 C   0  0  0  0  0  0  0  0  0  0  0  0
    6.2982   -0.5208    2.2553 C   0  0  0  0  0  0  0  0  0  0  0  0
    6.5222   -1.8999    2.2386 C   0  0  0  0  0  0  0  0  0  0  0  0
    7.1793   -2.4875    1.1520 C   0  0  0  0  0  0  0  0  0  0  0  0
    7.6065   -1.6989    0.0785 C   0  0  0  0  0  0  0  0  0  0  0  0
   -0.9087   -0.8872    2.4221 N   0  0  0  0  0  0  0  0  0  0  0  0
   -1.1673   -2.2916    2.5867 C   0  0  0  0  0  0  0  0  0  0  0  0
   -1.1288   -2.7767    3.7460 O   0  0  0  0  0  0  0  0  0  0  0  0
   -1.4533   -3.2046    1.4540 C   0  0  0  0  0  0  0  0  0  0  0  0
   -0.7061   -4.3914    1.3619 C   0  0  0  0  0  0  0  0  0  0  0  0
   -0.9337   -5.2994    0.3257 C   0  0  0  0  0  0  0  0  0  0  0  0
   -1.9157   -5.0407   -0.6292 C   0  0  0  0  0  0  0  0  0  0  0  0
   -2.6694   -3.8690   -0.5508 C   0  0  0  0  0  0  0  0  0  0  0  0
   -2.4636   -2.9549    0.4908 C   0  0  0  0  0  0  0  0  0  0  0  0
   -3.2481   -1.7993    0.5147 O   0  0  0  0  0  0  0  0  0  0  0  0
   -4.2123   -1.5272    1.5210 C   0  0  0  0  0  0  0  0  0  0  0  0
   -4.8900   -0.1816    1.2405 C   0  0  0  0  0  0  0  0  0  0  0  0
   -5.5872   -0.1660   -0.0633 N   0  0  0  0  0  0  0  0  0  0  0  0
   -6.8307   -0.9342   -0.1880 C   0  0  0  0  0  0  0  0  0  0  0  0
   -5.1429    0.5954   -1.2169 C   0  0  0  0  0  0  0  0  0  0  0  0
   -5.7570    0.4544   -2.3108 O   0  0  0  0  0  0  0  0  0  0  0  0
   -5.6948    3.1327   -2.9209 H   0  0  0  0  0  0  0  0  0  0  0  0
   -6.2167    4.8067   -2.5422 H   0  0  0  0  0  0  0  0  0  0  0  0
   -4.4593    4.4216   -2.6443 H   0  0  0  0  0  0  0  0  0  0  0  0
   -5.3125    4.6993   -0.2960 H   0  0  0  0  0  0  0  0  0  0  0  0
   -7.5659    3.9578   -0.4164 H   0  0  0  0  0  0  0  0  0  0  0  0
   -7.1340    2.3197   -0.9914 H   0  0  0  0  0  0  0  0  0  0  0  0
   -6.7269    2.8227    0.7040 H   0  0  0  0  0  0  0  0  0  0  0  0
   -3.3277    3.5034   -0.4943 H   0  0  0  0  0  0  0  0  0  0  0  0
   -4.3081    2.6504    0.6920 H   0  0  0  0  0  0  0  0  0  0  0  0
   -3.7833    1.8686   -2.2578 H   0  0  0  0  0  0  0  0  0  0  0  0
   -2.6082   -0.1162   -1.1785 H   0  0  0  0  0  0  0  0  0  0  0  0
   -1.9202    1.2834    1.7775 H   0  0  0  0  0  0  0  0  0  0  0  0
   -0.3279    1.9340    1.3870 H   0  0  0  0  0  0  0  0  0  0  0  0
   -0.8764   -0.8584    0.3168 H   0  0  0  0  0  0  0  0  0  0  0  0
    1.1137   -1.6441   -0.5581 H   0  0  0  0  0  0  0  0  0  0  0  0
    3.6377   -0.8937    0.8630 H   0  0  0  0  0  0  0  0  0  0  0  0
    3.2027   -2.3154   -1.8316 H   0  0  0  0  0  0  0  0  0  0  0  0
    3.3408   -3.1151   -0.2175 H   0  0  0  0  0  0  0  0  0  0  0  0
    4.7392   -2.2139   -0.8983 H   0  0  0  0  0  0  0  0  0  0  0  0
    3.1121    1.1887   -0.4045 H   0  0  0  0  0  0  0  0  0  0  0  0
    3.0143    0.2440   -1.9488 H   0  0  0  0  0  0  0  0  0  0  0  0
    3.8314    2.5995   -2.2409 H   0  0  0  0  0  0  0  0  0  0  0  0
    5.0888    4.4588   -3.2257 H   0  0  0  0  0  0  0  0  0  0  0  0
    7.5621    4.4472   -3.2170 H   0  0  0  0  0  0  0  0  0  0  0  0
    6.5409    1.3325    1.2077 H   0  0  0  0  0  0  0  0  0  0  0  0
    5.7861   -0.0639    3.0968 H   0  0  0  0  0  0  0  0  0  0  0  0
    6.1945   -2.5139    3.0643 H   0  0  0  0  0  0  0  0  0  0  0  0
    7.3536   -3.5549    1.1405 H   0  0  0  0  0  0  0  0  0  0  0  0
    8.1019   -2.1639   -0.7649 H   0  0  0  0  0  0  0  0  0  0  0  0
   -0.7986   -0.3190    3.2927 H   0  0  0  0  0  0  0  0  0  0  0  0
    0.0621   -4.6095    2.0951 H   0  0  0  0  0  0  0  0  0  0  0  0
   -0.3363   -6.1990    0.2541 H   0  0  0  0  0  0  0  0  0  0  0  0
   -2.0953   -5.7468   -1.4308 H   0  0  0  0  0  0  0  0  0  0  0  0
   -3.4274   -3.6746   -1.2974 H   0  0  0  0  0  0  0  0  0  0  0  0
   -4.9583   -2.3439    1.5528 H   0  0  0  0  0  0  0  0  0  0  0  0
   -3.7233   -1.4786    2.5149 H   0  0  0  0  0  0  0  0  0  0  0  0
   -4.1189    0.5989    1.3127 H   0  0  0  0  0  0  0  0  0  0  0  0
   -5.6267    0.0301    2.0484 H   0  0  0  0  0  0  0  0  0  0  0  0
   -6.9493   -1.6581    0.6442 H   0  0  0  0  0  0  0  0  0  0  0  0
   -7.7032   -0.2439   -0.1827 H   0  0  0  0  0  0  0  0  0  0  0  0
   -6.8261   -1.5234   -1.1328 H   0  0  0  0  0  0  0  0  0  0  0  0
  1  2  1  0
  2  3  1  0
  2  4  1  0
  4  5  1  0
  5  6  1  0
  6  7  1  0
  7  8  2  0
  7  9  1  0
  9 10  1  0
 10 11  1  0
 11 12  2  0
 11 13  1  0
 13 14  1  0
 14 15  1  0
 14 16  1  0
 16 17  1  0
 17 18  1  0
 18 19  2  0
 19 20  1  0
 20 21  2  0
 21 22  1  0
 22 23  1  0
 22 24  2  0
 24 25  1  0
 25 26  1  0
 26 27  2  0
 27 28  1  0
 28 29  2  0
 29 30  1  0
 30 31  2  0
 10 32  1  0
 32 33  1  0
 33 34  2  0
 33 35  1  0
 35 36  2  0
 36 37  1  0
 37 38  2  0
 38 39  1  0
 39 40  2  0
 40 41  1  0
 41 42  1  0
 42 43  1  0
 43 44  1  0
 44 45  1  0
 44 46  1  0
 46 47  2  0
 46  5  1  0
 24 18  1  0
 31 26  1  0
 40 35  1  0
  1 48  1  0
  1 49  1  0
  1 50  1  0
  2 51  1  0
  3 52  1  0
  3 53  1  0
  3 54  1  0
  4 55  1  0
  4 56  1  0
  5 57  1  0
  6 58  1  0
  9 59  1  0
  9 60  1  0
 10 61  1  0
 13 62  1  0
 14 63  1  0
 15 64  1  0
 15 65  1  0
 15 66  1  0
 16 67  1  0
 16 68  1  0
 19 69  1  0
 20 70  1  0
 21 71  1  0
 27 72  1  0
 28 73  1  0
 29 74  1  0
 30 75  1  0
 31 76  1  0
 32 77  1  0
 36 78  1  0
 37 79  1  0
 38 80  1  0
 39 81  1  0
 42 82  1  0
 42 83  1  0
 43 84  1  0
 43 85  1  0
 45 86  1  0
 45 87  1  0
 45 88  1  0
M  END
$$$$
