
     RDKit          3D

 76 79  0  0  0  0  0  0  0  0999 V2000
    4.8526   -2.8592   -1.1173 C   0  0  0  0  0  0  0  0  0  0  0  0
    3.4630   -3.2146   -0.5963 C   0  0  0  0  0  0  0  0  0  0  0  0
    2.8067   -2.0331   -0.0152 N   0  0  0  0  0  0  0  0  0  0  0  0
    3.1404   -1.6744    1.3819 C   0  0  0  0  0  0  0  0  0  0  0  0
    3.7247   -0.2647    1.5200 C   0  0  0  0  0  0  0  0  0  0  0  0
    4.6391    0.0058    0.4636 O   0  0  0  0  0  0  0  0  0  0  0  0
    5.4563    1.1406    0.4378 C   0  0  0  0  0  0  0  0  0  0  0  0
    6.7999    0.9921    0.7983 C   0  0  0  0  0  0  0  0  0  0  0  0
    7.6734    2.0790    0.7511 C   0  0  0  0  0  0  0  0  0  0  0  0
    7.2121    3.3257    0.3369 C   0  0  0  0  0  0  0  0  0  0  0  0
    5.8748    3.4910   -0.0315 C   0  0  0  0  0  0  0  0  0  0  0  0
    4.9762    2.4083    0.0127 C   0  0  0  0  0  0  0  0  0  0  0  0
    3.5180    2.6516   -0.3202 C   0  0  0  0  0  0  0  0  0  0  0  0
    3.0245    1.7904   -1.5017 C   0  0  0  0  0  0  0  0  0  0  0  0
    1.4848    1.6910   -1.6220 C   0  0  0  0  0  0  0  0  0  0  0  0
    0.7537    0.9835   -0.4470 C   0  0  0  0  0  0  0  0  0  0  0  0
    0.6553   -0.5763   -0.4441 C   0  0  0  0  0  0  0  0  0  0  0  0
   -0.4838   -1.0011   -1.4448 C   0  0  0  0  0  0  0  0  0  0  0  0
   -1.7859   -1.0589   -0.7719 N   0  0  0  0  0  0  0  0  0  0  0  0
   -2.9928   -0.8456   -1.5175 C   0  0  0  0  0  0  0  0  0  0  0  0
   -3.0159   -1.1000   -2.7506 O   0  0  0  0  0  0  0  0  0  0  0  0
   -4.1788   -0.2478   -0.8722 C   0  0  0  0  0  0  0  0  0  0  0  0
   -4.1317    0.7664    0.0625 C   0  0  0  0  0  0  0  0  0  0  0  0
   -5.4562    1.0008    0.3797 C   0  0  0  0  0  0  0  0  0  0  0  0
   -5.9494    1.9691    1.4200 C   0  0  0  0  0  0  0  0  0  0  0  0
   -6.3372    1.2216    2.6957 C   0  0  0  0  0  0  0  0  0  0  0  0
   -7.1314    2.7831    0.8837 C   0  0  0  0  0  0  0  0  0  0  0  0
   -6.2521    0.1589   -0.3134 N   0  0  0  0  0  0  0  0  0  0  0  0
   -5.4746   -0.5843   -1.0853 N   0  0  0  0  0  0  0  0  0  0  0  0
   -6.0029   -1.6699   -1.9102 C   0  0  0  0  0  0  0  0  0  0  0  0
   -6.3709   -2.8601   -1.0355 C   0  0  0  0  0  0  0  0  0  0  0  0
   -1.8650   -1.7007    0.5441 C   0  0  0  0  0  0  0  0  0  0  0  0
   -0.4657   -2.0658    1.0265 C   0  0  0  0  0  0  0  0  0  0  0  0
    0.3667   -0.9333    0.9076 O   0  0  0  0  0  0  0  0  0  0  0  0
    1.9572   -1.2445   -0.8876 C   0  0  0  0  0  0  0  0  0  0  0  0
    2.2427   -1.2016   -2.1184 O   0  0  0  0  0  0  0  0  0  0  0  0
    4.7948   -2.0044   -1.8219 H   0  0  0  0  0  0  0  0  0  0  0  0
    5.2929   -3.7293   -1.6485 H   0  0  0  0  0  0  0  0  0  0  0  0
    5.5147   -2.5843   -0.2693 H   0  0  0  0  0  0  0  0  0  0  0  0
    3.5474   -4.0194    0.1669 H   0  0  0  0  0  0  0  0  0  0  0  0
    2.8531   -3.6305   -1.4288 H   0  0  0  0  0  0  0  0  0  0  0  0
    2.2609   -1.7909    2.0426 H   0  0  0  0  0  0  0  0  0  0  0  0
    3.8970   -2.3837    1.7829 H   0  0  0  0  0  0  0  0  0  0  0  0
    4.2500   -0.1846    2.4955 H   0  0  0  0  0  0  0  0  0  0  0  0
    2.9065    0.4698    1.5236 H   0  0  0  0  0  0  0  0  0  0  0  0
    7.1693    0.0248    1.1136 H   0  0  0  0  0  0  0  0  0  0  0  0
    8.7097    1.9521    1.0323 H   0  0  0  0  0  0  0  0  0  0  0  0
    7.8907    4.1698    0.3061 H   0  0  0  0  0  0  0  0  0  0  0  0
    5.5395    4.4712   -0.3412 H   0  0  0  0  0  0  0  0  0  0  0  0
    2.9403    2.4898    0.6057 H   0  0  0  0  0  0  0  0  0  0  0  0
    3.3465    3.7191   -0.5869 H   0  0  0  0  0  0  0  0  0  0  0  0
    3.4081    2.2579   -2.4374 H   0  0  0  0  0  0  0  0  0  0  0  0
    3.4730    0.7847   -1.4770 H   0  0  0  0  0  0  0  0  0  0  0  0
    1.2278    1.1928   -2.5800 H   0  0  0  0  0  0  0  0  0  0  0  0
    1.0894    2.7259   -1.7003 H   0  0  0  0  0  0  0  0  0  0  0  0
   -0.2870    1.3759   -0.4371 H   0  0  0  0  0  0  0  0  0  0  0  0
    1.1471    1.3382    0.5161 H   0  0  0  0  0  0  0  0  0  0  0  0
   -0.5265   -0.3077   -2.3094 H   0  0  0  0  0  0  0  0  0  0  0  0
   -0.2762   -2.0130   -1.8571 H   0  0  0  0  0  0  0  0  0  0  0  0
   -3.2556    1.2650    0.4640 H   0  0  0  0  0  0  0  0  0  0  0  0
   -5.1293    2.6798    1.6695 H   0  0  0  0  0  0  0  0  0  0  0  0
   -7.1554    0.4973    2.4901 H   0  0  0  0  0  0  0  0  0  0  0  0
   -6.6711    1.9433    3.4712 H   0  0  0  0  0  0  0  0  0  0  0  0
   -5.4586    0.6685    3.0983 H   0  0  0  0  0  0  0  0  0  0  0  0
   -7.9943    2.1230    0.6522 H   0  0  0  0  0  0  0  0  0  0  0  0
   -7.4476    3.5374    1.6355 H   0  0  0  0  0  0  0  0  0  0  0  0
   -6.8352    3.3215   -0.0419 H   0  0  0  0  0  0  0  0  0  0  0  0
   -6.9037   -1.3106   -2.4491 H   0  0  0  0  0  0  0  0  0  0  0  0
   -5.2692   -1.9938   -2.6760 H   0  0  0  0  0  0  0  0  0  0  0  0
   -5.4838   -3.2061   -0.4621 H   0  0  0  0  0  0  0  0  0  0  0  0
   -6.7404   -3.6926   -1.6725 H   0  0  0  0  0  0  0  0  0  0  0  0
   -7.1746   -2.5695   -0.3188 H   0  0  0  0  0  0  0  0  0  0  0  0
   -2.3175   -0.9953    1.2729 H   0  0  0  0  0  0  0  0  0  0  0  0
   -2.4912   -2.6185    0.4884 H   0  0  0  0  0  0  0  0  0  0  0  0
   -0.0569   -2.9280    0.4508 H   0  0  0  0  0  0  0  0  0  0  0  0
   -0.5128   -2.3681    2.0942 H   0  0  0  0  0  0  0  0  0  0  0  0
  1  2  1  0
  2  3  1  0
  3  4  1  0
  4  5  1  0
  5  6  1  0
  6  7  1  0
  7  8  2  0
  8  9  1  0
  9 10  2  0
 10 11  1  0
 11 12  2  0
 12 13  1  0
 13 14  1  0
 14 15  1  0
 15 16  1  0
 16 17  1  0
 17 18  1  0
 18 19  1  0
 19 20  1  0
 20 21  2  0
 20 22  1  0
 22 23  2  0
 23 24  1  0
 24 25  1  0
 25 26  1  0
 25 27  1  0
 24 28  2  0
 28 29  1  0
 29 30  1  0
 30 31  1  0
 19 32  1  0
 32 33  1  0
 33 34  1  0
 17 35  1  0
 35 36  2  0
 35  3  1  0
 12  7  1  0
 34 17  1  0
 29 22  1  0
  1 37  1  0
  1 38  1  0
  1 39  1  0
  2 40  1  0
  2 41  1  0
  4 42  1  0
  4 43  1  0
  5 44  1  0
  5 45  1  0
  8 46  1  0
  9 47  1  0
 10 48  1  0
 11 49  1  0
 13 50  1  0
 13 51  1  0
 14 52  1  0
 14 53  1  0
 15 54  1  0
 15 55  1  0
 16 56  1  0
 16 57  1  0
 18 58  1  0
 18 59  1  0
 23 60  1  0
 25 61  1  0
 26 62  1  0
 26 63  1  0
 26 64  1  0
 27 65  1  0
 27 66  1  0
 27 67  1  0
 30 68  1  0
 30 69  1  0
 31 70  1  0
 31 71  1  0
 31 72  1  0
 32 73  1  0
 32 74  1  0
 33 75  1  0
 33 76  1  0
M  END
$$$$
