
     RDKit          3D

 68 71  0  0  0  0  0  0  0  0999 V2000
   -2.1702    0.3887   -2.8779 O   0  0  0  0  0  0  0  0  0  0  0  0
   -2.9512   -0.1031   -2.0162 C   0  0  0  0  0  0  0  0  0  0  0  0
   -3.2909    0.7353   -0.8055 C   0  0  0  0  0  0  0  0  0  0  0  0
   -2.1667    0.7405    0.1658 N   0  0  0  0  0  0  0  0  0  0  0  0
   -2.3914    1.7706    1.2046 C   0  0  0  0  0  0  0  0  0  0  0  0
   -2.2525    3.1698    0.6456 C   0  0  0  0  0  0  0  0  0  0  0  0
   -1.0140    3.6330    0.1713 C   0  0  0  0  0  0  0  0  0  0  0  0
   -0.8917    4.9273   -0.3435 C   0  0  0  0  0  0  0  0  0  0  0  0
   -2.0008    5.7725   -0.3859 C   0  0  0  0  0  0  0  0  0  0  0  0
   -3.2369    5.3207    0.0840 C   0  0  0  0  0  0  0  0  0  0  0  0
   -3.3650    4.0261    0.5940 C   0  0  0  0  0  0  0  0  0  0  0  0
   -2.0394   -0.5910    0.8115 C   0  0  0  0  0  0  0  0  0  0  0  0
   -0.6430   -0.9245    1.2957 C   0  0  0  0  0  0  0  0  0  0  0  0
    0.4454   -0.0542    1.1112 C   0  0  0  0  0  0  0  0  0  0  0  0
    1.7269   -0.3974    1.5669 C   0  0  0  0  0  0  0  0  0  0  0  0
    2.8795    0.5551    1.3859 C   0  0  0  0  0  0  0  0  0  0  0  0
    3.5128    0.3805    0.0017 C   0  0  0  0  0  0  0  0  0  0  0  0
    4.7290    1.2470   -0.1318 C   0  0  0  0  0  0  0  0  0  0  0  0
    4.6121    2.4205   -0.5925 O   0  0  0  0  0  0  0  0  0  0  0  0
    5.9945    0.7897    0.3637 N   0  0  0  0  0  0  0  0  0  0  0  0
    7.2175    1.5670    0.1783 C   0  0  0  0  0  0  0  0  0  0  0  0
    8.4303    0.7270   -0.1937 C   0  0  0  0  0  0  0  0  0  0  0  0
    7.7143    1.5445   -1.2591 C   0  0  0  0  0  0  0  0  0  0  0  0
    1.9329   -1.6511    2.1692 C   0  0  0  0  0  0  0  0  0  0  0  0
    0.8761   -2.5515    2.2878 C   0  0  0  0  0  0  0  0  0  0  0  0
   -0.4037   -2.2085    1.8322 C   0  0  0  0  0  0  0  0  0  0  0  0
   -1.4410   -3.1481    1.8814 O   0  0  0  0  0  0  0  0  0  0  0  0
   -1.3902   -4.3838    1.1656 C   0  0  0  0  0  0  0  0  0  0  0  0
   -2.0862   -4.2369   -0.1944 C   0  0  0  0  0  0  0  0  0  0  0  0
   -3.5968   -4.0107   -0.0175 C   0  0  0  0  0  0  0  0  0  0  0  0
   -4.3056   -3.6177   -1.3324 C   0  0  0  0  0  0  0  0  0  0  0  0
   -4.5109   -2.0989   -1.4885 C   0  0  0  0  0  0  0  0  0  0  0  0
   -3.3780   -1.4720   -2.1809 N   0  0  0  0  0  0  0  0  0  0  0  0
   -4.2290    0.4180   -0.3201 H   0  0  0  0  0  0  0  0  0  0  0  0
   -3.4928    1.7611   -1.1771 H   0  0  0  0  0  0  0  0  0  0  0  0
   -3.3889    1.6321    1.6761 H   0  0  0  0  0  0  0  0  0  0  0  0
   -1.6497    1.6566    2.0250 H   0  0  0  0  0  0  0  0  0  0  0  0
   -0.1383    2.9987    0.2145 H   0  0  0  0  0  0  0  0  0  0  0  0
    0.0648    5.2776   -0.6929 H   0  0  0  0  0  0  0  0  0  0  0  0
   -1.9071    6.7752   -0.7816 H   0  0  0  0  0  0  0  0  0  0  0  0
   -4.0972    5.9741    0.0494 H   0  0  0  0  0  0  0  0  0  0  0  0
   -4.3333    3.6908    0.9462 H   0  0  0  0  0  0  0  0  0  0  0  0
   -2.7838   -0.7239    1.6346 H   0  0  0  0  0  0  0  0  0  0  0  0
   -2.2572   -1.3816    0.0838 H   0  0  0  0  0  0  0  0  0  0  0  0
    0.3139    0.8807    0.6006 H   0  0  0  0  0  0  0  0  0  0  0  0
    3.6376    0.3793    2.1802 H   0  0  0  0  0  0  0  0  0  0  0  0
    2.5189    1.6023    1.4970 H   0  0  0  0  0  0  0  0  0  0  0  0
    2.7712    0.6554   -0.7838 H   0  0  0  0  0  0  0  0  0  0  0  0
    3.8004   -0.6794   -0.1574 H   0  0  0  0  0  0  0  0  0  0  0  0
    6.0415   -0.1104    0.8998 H   0  0  0  0  0  0  0  0  0  0  0  0
    7.3492    2.5123    0.7141 H   0  0  0  0  0  0  0  0  0  0  0  0
    9.3985    1.1565    0.1409 H   0  0  0  0  0  0  0  0  0  0  0  0
    8.2572   -0.3681   -0.2699 H   0  0  0  0  0  0  0  0  0  0  0  0
    7.1245    0.9310   -1.9734 H   0  0  0  0  0  0  0  0  0  0  0  0
    8.2755    2.4469   -1.5731 H   0  0  0  0  0  0  0  0  0  0  0  0
    2.9133   -1.9400    2.5331 H   0  0  0  0  0  0  0  0  0  0  0  0
    1.0475   -3.5199    2.7456 H   0  0  0  0  0  0  0  0  0  0  0  0
   -1.8814   -5.1764    1.7756 H   0  0  0  0  0  0  0  0  0  0  0  0
   -0.3445   -4.7033    0.9996 H   0  0  0  0  0  0  0  0  0  0  0  0
   -1.6248   -3.3907   -0.7557 H   0  0  0  0  0  0  0  0  0  0  0  0
   -1.9192   -5.1601   -0.7963 H   0  0  0  0  0  0  0  0  0  0  0  0
   -3.7724   -3.2417    0.7697 H   0  0  0  0  0  0  0  0  0  0  0  0
   -4.0427   -4.9614    0.3554 H   0  0  0  0  0  0  0  0  0  0  0  0
   -5.3140   -4.0873   -1.3338 H   0  0  0  0  0  0  0  0  0  0  0  0
   -3.7725   -4.0453   -2.2073 H   0  0  0  0  0  0  0  0  0  0  0  0
   -5.4269   -1.9249   -2.0928 H   0  0  0  0  0  0  0  0  0  0  0  0
   -4.6860   -1.6317   -0.5003 H   0  0  0  0  0  0  0  0  0  0  0  0
   -2.9978   -1.9693   -3.0165 H   0  0  0  0  0  0  0  0  0  0  0  0
  1  2  2  0
  2  3  1  0
  3  4  1  0
  4  5  1  0
  5  6  1  0
  6  7  2  0
  7  8  1  0
  8  9  2  0
  9 10  1  0
 10 11  2  0
  4 12  1  0
 12 13  1  0
 13 14  2  0
 14 15  1  0
 15 16  1  0
 16 17  1  0
 17 18  1  0
 18 19  2  0
 18 20  1  0
 20 21  1  0
 21 22  1  0
 22 23  1  0
 15 24  2  0
 24 25  1  0
 25 26  2  0
 26 27  1  0
 27 28  1  0
 28 29  1  0
 29 30  1  0
 30 31  1  0
 31 32  1  0
 32 33  1  0
 33  2  1  0
 11  6  1  0
 26 13  1  0
 23 21  1  0
  3 34  1  0
  3 35  1  0
  5 36  1  0
  5 37  1  0
  7 38  1  0
  8 39  1  0
  9 40  1  0
 10 41  1  0
 11 42  1  0
 12 43  1  0
 12 44  1  0
 14 45  1  0
 16 46  1  0
 16 47  1  0
 17 48  1  0
 17 49  1  0
 20 50  1  0
 21 51  1  0
 22 52  1  0
 22 53  1  0
 23 54  1  0
 23 55  1  0
 24 56  1  0
 25 57  1  0
 28 58  1  0
 28 59  1  0
 29 60  1  0
 29 61  1  0
 30 62  1  0
 30 63  1  0
 31 64  1  0
 31 65  1  0
 32 66  1  0
 32 67  1  0
 33 68  1  0
M  END
$$$$
