
     RDKit          3D

 81 84  0  0  0  0  0  0  0  0999 V2000
   -1.5048    1.5133   -4.8998 C   0  0  0  0  0  0  0  0  0  0  0  0
   -1.1632    0.6838   -3.7419 N   0  0  0  0  0  0  0  0  0  0  0  0
   -2.0763    0.6287   -2.5934 C   0  0  0  0  0  0  0  0  0  0  0  0
   -3.0700   -0.4992   -2.7220 C   0  0  0  0  0  0  0  0  0  0  0  0
   -3.0979   -1.1663   -3.7955 O   0  0  0  0  0  0  0  0  0  0  0  0
   -3.9787   -0.8409   -1.6491 N   0  0  0  0  0  0  0  0  0  0  0  0
   -4.7638   -2.0780   -1.7812 C   0  0  0  0  0  0  0  0  0  0  0  0
   -4.1873    0.0522   -0.4860 C   0  0  0  0  0  0  0  0  0  0  0  0
   -5.6190    0.6328   -0.5128 C   0  0  0  0  0  0  0  0  0  0  0  0
   -5.7427    1.8545    0.3615 C   0  0  0  0  0  0  0  0  0  0  0  0
   -5.3177    3.1054   -0.1144 C   0  0  0  0  0  0  0  0  0  0  0  0
   -5.3926    4.2345    0.7052 C   0  0  0  0  0  0  0  0  0  0  0  0
   -5.8801    4.1196    2.0101 C   0  0  0  0  0  0  0  0  0  0  0  0
   -6.3002    2.8768    2.4941 C   0  0  0  0  0  0  0  0  0  0  0  0
   -6.2338    1.7466    1.6734 C   0  0  0  0  0  0  0  0  0  0  0  0
   -3.8882   -0.6763    0.8341 C   0  0  0  0  0  0  0  0  0  0  0  0
   -2.5724   -1.2311    0.8088 O   0  0  0  0  0  0  0  0  0  0  0  0
   -2.0153   -1.9737    1.8649 C   0  0  0  0  0  0  0  0  0  0  0  0
   -2.7318   -2.2066    3.0582 C   0  0  0  0  0  0  0  0  0  0  0  0
   -2.1802   -2.9840    4.0792 C   0  0  0  0  0  0  0  0  0  0  0  0
   -0.9151   -3.5433    3.9275 C   0  0  0  0  0  0  0  0  0  0  0  0
   -0.1911   -3.3198    2.7568 C   0  0  0  0  0  0  0  0  0  0  0  0
   -0.7215   -2.5242    1.7254 C   0  0  0  0  0  0  0  0  0  0  0  0
    0.0979   -2.3095    0.5133 C   0  0  0  0  0  0  0  0  0  0  0  0
    0.6802   -3.3008   -0.0028 O   0  0  0  0  0  0  0  0  0  0  0  0
    0.2968   -0.9877   -0.0242 N   0  0  0  0  0  0  0  0  0  0  0  0
    1.4358   -0.5920   -0.8749 C   0  0  0  0  0  0  0  0  0  0  0  0
    2.7392   -0.6605   -0.1119 C   0  0  0  0  0  0  0  0  0  0  0  0
    2.8147   -1.3094    0.9685 O   0  0  0  0  0  0  0  0  0  0  0  0
    3.9044   -0.0002   -0.6322 N   0  0  0  0  0  0  0  0  0  0  0  0
    5.2225   -0.2053   -0.0319 C   0  0  0  0  0  0  0  0  0  0  0  0
    6.2959    0.5809   -0.7878 C   0  0  0  0  0  0  0  0  0  0  0  0
    7.5985    0.2753   -0.2866 O   0  0  0  0  0  0  0  0  0  0  0  0
    8.1386    0.7294    0.9277 C   0  0  0  0  0  0  0  0  0  0  0  0
    9.3877    0.2311    1.3230 C   0  0  0  0  0  0  0  0  0  0  0  0
    9.9725    0.6502    2.5226 C   0  0  0  0  0  0  0  0  0  0  0  0
    9.3138    1.5740    3.3370 C   0  0  0  0  0  0  0  0  0  0  0  0
    9.8844    1.9847    4.4977 F   0  0  0  0  0  0  0  0  0  0  0  0
    8.0717    2.0825    2.9515 C   0  0  0  0  0  0  0  0  0  0  0  0
    7.4841    1.6669    1.7518 C   0  0  0  0  0  0  0  0  0  0  0  0
    1.5351   -1.4102   -2.1821 C   0  0  0  0  0  0  0  0  0  0  0  0
    0.2641   -1.3497   -3.0408 C   0  0  0  0  0  0  0  0  0  0  0  0
    0.0980   -0.0184   -3.7350 C   0  0  0  0  0  0  0  0  0  0  0  0
    1.0670    0.4447   -4.4028 O   0  0  0  0  0  0  0  0  0  0  0  0
   -2.5268    1.9383   -4.8097 H   0  0  0  0  0  0  0  0  0  0  0  0
   -1.4693    0.8980   -5.8236 H   0  0  0  0  0  0  0  0  0  0  0  0
   -0.7836    2.3542   -4.9872 H   0  0  0  0  0  0  0  0  0  0  0  0
   -1.4919    0.5152   -1.6575 H   0  0  0  0  0  0  0  0  0  0  0  0
   -2.6334    1.5869   -2.5177 H   0  0  0  0  0  0  0  0  0  0  0  0
   -5.3262   -2.0721   -2.7388 H   0  0  0  0  0  0  0  0  0  0  0  0
   -5.5064   -2.1903   -0.9660 H   0  0  0  0  0  0  0  0  0  0  0  0
   -4.0835   -2.9554   -1.7584 H   0  0  0  0  0  0  0  0  0  0  0  0
   -3.4858    0.9106   -0.5203 H   0  0  0  0  0  0  0  0  0  0  0  0
   -6.3581   -0.1359   -0.1996 H   0  0  0  0  0  0  0  0  0  0  0  0
   -5.8798    0.9162   -1.5567 H   0  0  0  0  0  0  0  0  0  0  0  0
   -4.9281    3.2022   -1.1198 H   0  0  0  0  0  0  0  0  0  0  0  0
   -5.0704    5.1962    0.3291 H   0  0  0  0  0  0  0  0  0  0  0  0
   -5.9272    4.9936    2.6465 H   0  0  0  0  0  0  0  0  0  0  0  0
   -6.6720    2.7883    3.5082 H   0  0  0  0  0  0  0  0  0  0  0  0
   -6.5520    0.7875    2.0647 H   0  0  0  0  0  0  0  0  0  0  0  0
   -3.9506    0.0502    1.6720 H   0  0  0  0  0  0  0  0  0  0  0  0
   -4.6342   -1.4820    1.0112 H   0  0  0  0  0  0  0  0  0  0  0  0
   -3.7200   -1.7963    3.2083 H   0  0  0  0  0  0  0  0  0  0  0  0
   -2.7415   -3.1574    4.9878 H   0  0  0  0  0  0  0  0  0  0  0  0
   -0.4924   -4.1508    4.7194 H   0  0  0  0  0  0  0  0  0  0  0  0
    0.7976   -3.7556    2.6600 H   0  0  0  0  0  0  0  0  0  0  0  0
   -0.2612   -0.2092    0.3855 H   0  0  0  0  0  0  0  0  0  0  0  0
    1.2888    0.4734   -1.1612 H   0  0  0  0  0  0  0  0  0  0  0  0
    3.7985    0.6185   -1.4702 H   0  0  0  0  0  0  0  0  0  0  0  0
    5.1947    0.1206    1.0280 H   0  0  0  0  0  0  0  0  0  0  0  0
    5.4729   -1.2882   -0.0644 H   0  0  0  0  0  0  0  0  0  0  0  0
    6.1007    1.6736   -0.7398 H   0  0  0  0  0  0  0  0  0  0  0  0
    6.2622    0.2849   -1.8575 H   0  0  0  0  0  0  0  0  0  0  0  0
    9.9076   -0.4859    0.6996 H   0  0  0  0  0  0  0  0  0  0  0  0
   10.9361    0.2577    2.8202 H   0  0  0  0  0  0  0  0  0  0  0  0
    7.5622    2.8017    3.5830 H   0  0  0  0  0  0  0  0  0  0  0  0
    6.5263    2.0853    1.4777 H   0  0  0  0  0  0  0  0  0  0  0  0
    1.7682   -2.4717   -1.9614 H   0  0  0  0  0  0  0  0  0  0  0  0
    2.3956   -1.0393   -2.7851 H   0  0  0  0  0  0  0  0  0  0  0  0
   -0.6187   -1.6185   -2.4280 H   0  0  0  0  0  0  0  0  0  0  0  0
    0.3428   -2.1250   -3.8310 H   0  0  0  0  0  0  0  0  0  0  0  0
  1  2  1  0
  2  3  1  0
  3  4  1  0
  4  5  2  0
  4  6  1  0
  6  7  1  0
  6  8  1  0
  8  9  1  0
  9 10  1  0
 10 11  2  0
 11 12  1  0
 12 13  2  0
 13 14  1  0
 14 15  2  0
  8 16  1  0
 16 17  1  0
 17 18  1  0
 18 19  2  0
 19 20  1  0
 20 21  2  0
 21 22  1  0
 22 23  2  0
 23 24  1  0
 24 25  2  0
 24 26  1  0
 26 27  1  0
 27 28  1  0
 28 29  2  0
 28 30  1  0
 30 31  1  0
 31 32  1  0
 32 33  1  0
 33 34  1  0
 34 35  2  0
 35 36  1  0
 36 37  2  0
 37 38  1  0
 37 39  1  0
 39 40  2  0
 27 41  1  0
 41 42  1  0
 42 43  1  0
 43 44  2  0
 43  2  1  0
 15 10  1  0
 23 18  1  0
 40 34  1  0
  1 45  1  0
  1 46  1  0
  1 47  1  0
  3 48  1  0
  3 49  1  0
  7 50  1  0
  7 51  1  0
  7 52  1  0
  8 53  1  0
  9 54  1  0
  9 55  1  0
 11 56  1  0
 12 57  1  0
 13 58  1  0
 14 59  1  0
 15 60  1  0
 16 61  1  0
 16 62  1  0
 19 63  1  0
 20 64  1  0
 21 65  1  0
 22 66  1  0
 26 67  1  0
 27 68  1  0
 30 69  1  0
 31 70  1  0
 31 71  1  0
 32 72  1  0
 32 73  1  0
 35 74  1  0
 36 75  1  0
 39 76  1  0
 40 77  1  0
 41 78  1  0
 41 79  1  0
 42 80  1  0
 42 81  1  0
M  END
$$$$
