
     RDKit          3D

 69 72  0  0  0  0  0  0  0  0999 V2000
   -3.0640    4.7851   -0.8560 C   0  0  0  0  0  0  0  0  0  0  0  0
   -3.2444    3.2649   -1.0009 C   0  0  0  0  0  0  0  0  0  0  0  0
   -3.5961    2.9187   -2.4527 C   0  0  0  0  0  0  0  0  0  0  0  0
   -1.9755    2.4968   -0.5504 C   0  0  0  0  0  0  0  0  0  0  0  0
   -1.8980    2.3058    0.9894 C   0  0  0  0  0  0  0  0  0  0  0  0
   -2.8152    1.1855    1.5150 C   0  0  0  0  0  0  0  0  0  0  0  0
   -2.6010   -0.0458    0.8235 O   0  0  0  0  0  0  0  0  0  0  0  0
   -3.6184   -0.9330    0.4445 C   0  0  0  0  0  0  0  0  0  0  0  0
   -4.8125   -0.4418   -0.1194 C   0  0  0  0  0  0  0  0  0  0  0  0
   -5.8074   -1.3157   -0.5608 C   0  0  0  0  0  0  0  0  0  0  0  0
   -5.6301   -2.6920   -0.4409 C   0  0  0  0  0  0  0  0  0  0  0  0
   -6.8794   -3.7880   -1.0078 Cl  0  0  0  0  0  0  0  0  0  0  0  0
   -4.4526   -3.1978    0.1167 C   0  0  0  0  0  0  0  0  0  0  0  0
   -3.4278   -2.3343    0.5578 C   0  0  0  0  0  0  0  0  0  0  0  0
   -2.1662   -2.9456    1.0589 C   0  0  0  0  0  0  0  0  0  0  0  0
   -1.8503   -4.0984    0.6531 O   0  0  0  0  0  0  0  0  0  0  0  0
   -1.3127   -2.2820    2.0074 N   0  0  0  0  0  0  0  0  0  0  0  0
   -0.0669   -2.8851    2.4863 C   0  0  0  0  0  0  0  0  0  0  0  0
    0.9510   -3.0678    1.3385 C   0  0  0  0  0  0  0  0  0  0  0  0
    2.2951   -2.3654    1.5912 C   0  0  0  0  0  0  0  0  0  0  0  0
    2.2177   -0.8348    1.4569 C   0  0  0  0  0  0  0  0  0  0  0  0
    1.7759   -0.4144    0.1136 N   0  0  0  0  0  0  0  0  0  0  0  0
    2.4603   -0.8831   -1.0622 C   0  0  0  0  0  0  0  0  0  0  0  0
    1.7956   -1.4315   -1.9844 O   0  0  0  0  0  0  0  0  0  0  0  0
    3.9271   -0.7584   -1.2000 C   0  0  0  0  0  0  0  0  0  0  0  0
    4.6513   -1.7096   -1.9649 C   0  0  0  0  0  0  0  0  0  0  0  0
    6.0424   -1.5845   -2.1328 C   0  0  0  0  0  0  0  0  0  0  0  0
    6.6730   -0.4908   -1.5443 C   0  0  0  0  0  0  0  0  0  0  0  0
    5.9877    0.4277   -0.8186 C   0  0  0  0  0  0  0  0  0  0  0  0
    4.6129    0.3347   -0.6198 C   0  0  0  0  0  0  0  0  0  0  0  0
    6.8624    1.3831   -0.3430 O   0  0  0  0  0  0  0  0  0  0  0  0
    8.1769    1.0566   -0.8151 C   0  0  0  0  0  0  0  0  0  0  0  0
    8.0128   -0.1532   -1.5676 O   0  0  0  0  0  0  0  0  0  0  0  0
    0.5226    0.3360   -0.0401 C   0  0  0  0  0  0  0  0  0  0  0  0
    0.5889    1.6386    0.7059 C   0  0  0  0  0  0  0  0  0  0  0  0
    1.6577    2.3071    0.6714 O   0  0  0  0  0  0  0  0  0  0  0  0
   -0.5180    2.1374    1.4772 N   0  0  0  0  0  0  0  0  0  0  0  0
   -4.0123    5.3045   -1.1041 H   0  0  0  0  0  0  0  0  0  0  0  0
   -2.7882    5.0568    0.1840 H   0  0  0  0  0  0  0  0  0  0  0  0
   -2.2709    5.1547   -1.5384 H   0  0  0  0  0  0  0  0  0  0  0  0
   -4.1101    2.9655   -0.3700 H   0  0  0  0  0  0  0  0  0  0  0  0
   -2.7443    3.1384   -3.1279 H   0  0  0  0  0  0  0  0  0  0  0  0
   -3.8496    1.8413   -2.5335 H   0  0  0  0  0  0  0  0  0  0  0  0
   -4.4814    3.5043   -2.7840 H   0  0  0  0  0  0  0  0  0  0  0  0
   -1.0796    3.0504   -0.9076 H   0  0  0  0  0  0  0  0  0  0  0  0
   -1.9443    1.5027   -1.0415 H   0  0  0  0  0  0  0  0  0  0  0  0
   -2.2812    3.2377    1.4618 H   0  0  0  0  0  0  0  0  0  0  0  0
   -2.6168    1.0220    2.5950 H   0  0  0  0  0  0  0  0  0  0  0  0
   -3.8709    1.5156    1.4457 H   0  0  0  0  0  0  0  0  0  0  0  0
   -4.9625    0.6177   -0.2675 H   0  0  0  0  0  0  0  0  0  0  0  0
   -6.7097   -0.9185   -1.0120 H   0  0  0  0  0  0  0  0  0  0  0  0
   -4.3358   -4.2697    0.1926 H   0  0  0  0  0  0  0  0  0  0  0  0
   -1.6339   -1.4123    2.4818 H   0  0  0  0  0  0  0  0  0  0  0  0
   -0.2970   -3.8724    2.9418 H   0  0  0  0  0  0  0  0  0  0  0  0
    0.3538   -2.2487    3.2959 H   0  0  0  0  0  0  0  0  0  0  0  0
    1.1538   -4.1543    1.2294 H   0  0  0  0  0  0  0  0  0  0  0  0
    0.5334   -2.7350    0.3654 H   0  0  0  0  0  0  0  0  0  0  0  0
    2.6626   -2.6251    2.6076 H   0  0  0  0  0  0  0  0  0  0  0  0
    3.0476   -2.7528    0.8712 H   0  0  0  0  0  0  0  0  0  0  0  0
    1.5300   -0.4373    2.2339 H   0  0  0  0  0  0  0  0  0  0  0  0
    3.2168   -0.4053    1.6698 H   0  0  0  0  0  0  0  0  0  0  0  0
    4.1417   -2.5466   -2.4249 H   0  0  0  0  0  0  0  0  0  0  0  0
    6.6018   -2.3090   -2.7093 H   0  0  0  0  0  0  0  0  0  0  0  0
    4.0932    1.0969   -0.0517 H   0  0  0  0  0  0  0  0  0  0  0  0
    8.5584    1.8667   -1.4714 H   0  0  0  0  0  0  0  0  0  0  0  0
    8.8574    0.8833    0.0424 H   0  0  0  0  0  0  0  0  0  0  0  0
    0.3280    0.5621   -1.1104 H   0  0  0  0  0  0  0  0  0  0  0  0
   -0.3040   -0.2887    0.3357 H   0  0  0  0  0  0  0  0  0  0  0  0
   -0.2606    2.7296    2.2993 H   0  0  0  0  0  0  0  0  0  0  0  0
  1  2  1  0
  2  3  1  0
  2  4  1  0
  4  5  1  0
  5  6  1  0
  6  7  1  0
  7  8  1  0
  8  9  2  0
  9 10  1  0
 10 11  2  0
 11 12  1  0
 11 13  1  0
 13 14  2  0
 14 15  1  0
 15 16  2  0
 15 17  1  0
 17 18  1  0
 18 19  1  0
 19 20  1  0
 20 21  1  0
 21 22  1  0
 22 23  1  0
 23 24  2  0
 23 25  1  0
 25 26  2  0
 26 27  1  0
 27 28  2  0
 28 29  1  0
 29 30  2  0
 29 31  1  0
 31 32  1  0
 32 33  1  0
 22 34  1  0
 34 35  1  0
 35 36  2  0
 35 37  1  0
 37  5  1  0
 14  8  1  0
 30 25  1  0
 33 28  1  0
  1 38  1  0
  1 39  1  0
  1 40  1  0
  2 41  1  0
  3 42  1  0
  3 43  1  0
  3 44  1  0
  4 45  1  0
  4 46  1  0
  5 47  1  0
  6 48  1  0
  6 49  1  0
  9 50  1  0
 10 51  1  0
 13 52  1  0
 17 53  1  0
 18 54  1  0
 18 55  1  0
 19 56  1  0
 19 57  1  0
 20 58  1  0
 20 59  1  0
 21 60  1  0
 21 61  1  0
 26 62  1  0
 27 63  1  0
 30 64  1  0
 32 65  1  0
 32 66  1  0
 34 67  1  0
 34 68  1  0
 37 69  1  0
M  END
$$$$
