
     RDKit          3D

 69 73  0  0  0  0  0  0  0  0999 V2000
   -2.2161   -2.1759    3.0073 C   0  0  0  0  0  0  0  0  0  0  0  0
   -1.7699   -0.7192    2.9556 C   0  0  0  0  0  0  0  0  0  0  0  0
   -1.9366   -0.1772    1.6019 N   0  0  0  0  0  0  0  0  0  0  0  0
   -3.2658    0.3087    1.1902 C   0  0  0  0  0  0  0  0  0  0  0  0
   -3.2640    1.8230    0.9395 C   0  0  0  0  0  0  0  0  0  0  0  0
   -4.5594    2.3277    0.5978 O   0  0  0  0  0  0  0  0  0  0  0  0
   -5.5447    1.6619   -0.1517 C   0  0  0  0  0  0  0  0  0  0  0  0
   -6.7888    1.4800    0.4679 C   0  0  0  0  0  0  0  0  0  0  0  0
   -7.8328    0.8343   -0.1948 C   0  0  0  0  0  0  0  0  0  0  0  0
   -7.6521    0.3717   -1.4957 C   0  0  0  0  0  0  0  0  0  0  0  0
   -6.4296    0.5609   -2.1403 C   0  0  0  0  0  0  0  0  0  0  0  0
   -5.3623    1.2104   -1.4902 C   0  0  0  0  0  0  0  0  0  0  0  0
   -4.0879    1.4156   -2.2791 C   0  0  0  0  0  0  0  0  0  0  0  0
   -3.3401    0.0767   -2.5183 C   0  0  0  0  0  0  0  0  0  0  0  0
   -1.8535    0.1133   -2.0944 C   0  0  0  0  0  0  0  0  0  0  0  0
   -1.4176   -1.1492   -1.3068 C   0  0  0  0  0  0  0  0  0  0  0  0
   -0.2806   -0.9000   -0.2792 C   0  0  0  0  0  0  0  0  0  0  0  0
    0.9616   -0.3578   -1.0573 C   0  0  0  0  0  0  0  0  0  0  0  0
    2.1672   -0.4516   -0.2346 N   0  0  0  0  0  0  0  0  0  0  0  0
    3.0675    0.6657   -0.0981 C   0  0  0  0  0  0  0  0  0  0  0  0
    2.6013    1.8371   -0.0759 O   0  0  0  0  0  0  0  0  0  0  0  0
    4.5299    0.4770    0.0260 C   0  0  0  0  0  0  0  0  0  0  0  0
    5.3028    1.3600    0.7908 C   0  0  0  0  0  0  0  0  0  0  0  0
    6.6440    1.1752    0.8969 N   0  0  0  0  0  0  0  0  0  0  0  0
    7.2652    0.1562    0.2475 C   0  0  0  0  0  0  0  0  0  0  0  0
    8.7387   -0.0507    0.4121 C   0  0  0  0  0  0  0  0  0  0  0  0
    9.5271   -0.0631   -0.8894 C   0  0  0  0  0  0  0  0  0  0  0  0
    9.5980    1.1452    0.0283 C   0  0  0  0  0  0  0  0  0  0  0  0
    6.5362   -0.7136   -0.5006 N   0  0  0  0  0  0  0  0  0  0  0  0
    5.1920   -0.5706   -0.6295 C   0  0  0  0  0  0  0  0  0  0  0  0
    2.4106   -1.7290    0.4295 C   0  0  0  0  0  0  0  0  0  0  0  0
    1.1425   -2.1413    1.1665 C   0  0  0  0  0  0  0  0  0  0  0  0
    0.0178   -2.1701    0.3001 O   0  0  0  0  0  0  0  0  0  0  0  0
   -0.7638    0.0825    0.8017 C   0  0  0  0  0  0  0  0  0  0  0  0
   -0.0929    1.1212    1.0484 O   0  0  0  0  0  0  0  0  0  0  0  0
   -1.9851   -2.6005    4.0077 H   0  0  0  0  0  0  0  0  0  0  0  0
   -3.3115   -2.2486    2.8344 H   0  0  0  0  0  0  0  0  0  0  0  0
   -1.6864   -2.7737    2.2368 H   0  0  0  0  0  0  0  0  0  0  0  0
   -0.7129   -0.6428    3.2851 H   0  0  0  0  0  0  0  0  0  0  0  0
   -2.3692   -0.1249    3.6797 H   0  0  0  0  0  0  0  0  0  0  0  0
   -3.5988   -0.2268    0.2874 H   0  0  0  0  0  0  0  0  0  0  0  0
   -4.0208    0.0883    1.9772 H   0  0  0  0  0  0  0  0  0  0  0  0
   -2.9365    2.3307    1.8714 H   0  0  0  0  0  0  0  0  0  0  0  0
   -2.5331    2.1080    0.1660 H   0  0  0  0  0  0  0  0  0  0  0  0
   -6.9429    1.8340    1.4798 H   0  0  0  0  0  0  0  0  0  0  0  0
   -8.7837    0.6933    0.3020 H   0  0  0  0  0  0  0  0  0  0  0  0
   -8.4630   -0.1279   -2.0101 H   0  0  0  0  0  0  0  0  0  0  0  0
   -6.3150    0.2066   -3.1580 H   0  0  0  0  0  0  0  0  0  0  0  0
   -4.3603    1.8453   -3.2687 H   0  0  0  0  0  0  0  0  0  0  0  0
   -3.4591    2.1979   -1.8174 H   0  0  0  0  0  0  0  0  0  0  0  0
   -3.3892   -0.1710   -3.6023 H   0  0  0  0  0  0  0  0  0  0  0  0
   -3.8769   -0.7563   -2.0151 H   0  0  0  0  0  0  0  0  0  0  0  0
   -1.2234    0.2000   -3.0068 H   0  0  0  0  0  0  0  0  0  0  0  0
   -1.6300    1.0200   -1.5070 H   0  0  0  0  0  0  0  0  0  0  0  0
   -1.0882   -1.9170   -2.0420 H   0  0  0  0  0  0  0  0  0  0  0  0
   -2.2671   -1.6193   -0.7717 H   0  0  0  0  0  0  0  0  0  0  0  0
    0.7907    0.6873   -1.3947 H   0  0  0  0  0  0  0  0  0  0  0  0
    1.1283   -0.9672   -1.9723 H   0  0  0  0  0  0  0  0  0  0  0  0
    4.8398    2.1834    1.3186 H   0  0  0  0  0  0  0  0  0  0  0  0
    9.1298   -0.6944    1.2284 H   0  0  0  0  0  0  0  0  0  0  0  0
   10.4392   -0.6959   -0.8694 H   0  0  0  0  0  0  0  0  0  0  0  0
    8.9452    0.1153   -1.8194 H   0  0  0  0  0  0  0  0  0  0  0  0
   10.5522    1.2269    0.5907 H   0  0  0  0  0  0  0  0  0  0  0  0
    9.0598    2.0351   -0.3639 H   0  0  0  0  0  0  0  0  0  0  0  0
    4.6464   -1.2640   -1.2552 H   0  0  0  0  0  0  0  0  0  0  0  0
    3.2422   -1.6506    1.1629 H   0  0  0  0  0  0  0  0  0  0  0  0
    2.6687   -2.4995   -0.3284 H   0  0  0  0  0  0  0  0  0  0  0  0
    1.2900   -3.1605    1.5816 H   0  0  0  0  0  0  0  0  0  0  0  0
    0.9768   -1.4658    2.0291 H   0  0  0  0  0  0  0  0  0  0  0  0
  1  2  1  0
  2  3  1  0
  3  4  1  0
  4  5  1  0
  5  6  1  0
  6  7  1  0
  7  8  2  0
  8  9  1  0
  9 10  2  0
 10 11  1  0
 11 12  2  0
 12 13  1  0
 13 14  1  0
 14 15  1  0
 15 16  1  0
 16 17  1  0
 17 18  1  0
 18 19  1  0
 19 20  1  0
 20 21  2  0
 20 22  1  0
 22 23  2  0
 23 24  1  0
 24 25  2  0
 25 26  1  0
 26 27  1  0
 27 28  1  0
 25 29  1  0
 29 30  2  0
 19 31  1  0
 31 32  1  0
 32 33  1  0
 17 34  1  0
 34 35  2  0
 34  3  1  0
 12  7  1  0
 33 17  1  0
 30 22  1  0
 28 26  1  0
  1 36  1  0
  1 37  1  0
  1 38  1  0
  2 39  1  0
  2 40  1  0
  4 41  1  0
  4 42  1  0
  5 43  1  0
  5 44  1  0
  8 45  1  0
  9 46  1  0
 10 47  1  0
 11 48  1  0
 13 49  1  0
 13 50  1  0
 14 51  1  0
 14 52  1  0
 15 53  1  0
 15 54  1  0
 16 55  1  0
 16 56  1  0
 18 57  1  0
 18 58  1  0
 23 59  1  0
 26 60  1  0
 27 61  1  0
 27 62  1  0
 28 63  1  0
 28 64  1  0
 30 65  1  0
 31 66  1  0
 31 67  1  0
 32 68  1  0
 32 69  1  0
M  END
$$$$
