
     RDKit          3D

 72 74  0  0  0  0  0  0  0  0999 V2000
   -2.8371    4.6857   -2.2163 C   0  0  0  0  0  0  0  0  0  0  0  0
   -2.6750    3.3288   -1.7118 N   0  0  0  0  0  0  0  0  0  0  0  0
   -3.2780    2.9065   -0.4764 C   0  0  0  0  0  0  0  0  0  0  0  0
   -3.9348    3.7449    0.2049 O   0  0  0  0  0  0  0  0  0  0  0  0
   -3.0708    1.4888    0.0643 C   0  0  0  0  0  0  0  0  0  0  0  0
   -1.7642    1.4625    0.9292 C   0  0  0  0  0  0  0  0  0  0  0  0
   -0.4707    1.9365    0.2231 C   0  0  0  0  0  0  0  0  0  0  0  0
    0.7412    1.9906    1.1694 C   0  0  0  0  0  0  0  0  0  0  0  0
    1.2170    0.6180    1.6834 C   0  0  0  0  0  0  0  0  0  0  0  0
    1.6953   -0.2511    0.5903 N   0  0  0  0  0  0  0  0  0  0  0  0
    3.0619   -0.1972    0.1063 C   0  0  0  0  0  0  0  0  0  0  0  0
    3.4082   -0.9710   -0.8253 O   0  0  0  0  0  0  0  0  0  0  0  0
    4.1030    0.6933    0.7665 C   0  0  0  0  0  0  0  0  0  0  0  0
    5.4128    0.9784   -0.0345 C   0  0  0  0  0  0  0  0  0  0  0  0
    6.2755   -0.2975   -0.1790 C   0  0  0  0  0  0  0  0  0  0  0  0
    5.1011    1.5681   -1.4281 C   0  0  0  0  0  0  0  0  0  0  0  0
    6.2354    2.0210    0.7567 C   0  0  0  0  0  0  0  0  0  0  0  0
    0.8142   -1.3434    0.1445 C   0  0  0  0  0  0  0  0  0  0  0  0
    0.9509   -2.5685    1.0612 C   0  0  0  0  0  0  0  0  0  0  0  0
   -0.3326   -3.1415    1.3076 O   0  0  0  0  0  0  0  0  0  0  0  0
   -1.1021   -3.8010    0.3392 C   0  0  0  0  0  0  0  0  0  0  0  0
   -0.5245   -4.7188   -0.5551 C   0  0  0  0  0  0  0  0  0  0  0  0
   -1.3194   -5.3816   -1.4940 C   0  0  0  0  0  0  0  0  0  0  0  0
   -2.6936   -5.1381   -1.5457 C   0  0  0  0  0  0  0  0  0  0  0  0
   -3.2758   -4.2232   -0.6660 C   0  0  0  0  0  0  0  0  0  0  0  0
   -2.4835   -3.5428    0.2712 C   0  0  0  0  0  0  0  0  0  0  0  0
   -3.0910   -2.5238    1.1493 C   0  0  0  0  0  0  0  0  0  0  0  0
   -3.1686   -2.7742    2.3834 O   0  0  0  0  0  0  0  0  0  0  0  0
   -3.5473   -1.2459    0.6420 N   0  0  0  0  0  0  0  0  0  0  0  0
   -3.5773   -0.9446   -0.7987 C   0  0  0  0  0  0  0  0  0  0  0  0
   -3.0193    0.4586   -1.1144 C   0  0  0  0  0  0  0  0  0  0  0  0
   -4.1656   -0.2933    1.5752 C   0  0  0  0  0  0  0  0  0  0  0  0
   -4.2859    1.1166    0.9689 C   0  0  0  0  0  0  0  0  0  0  0  0
   -3.9141    4.9025   -2.3793 H   0  0  0  0  0  0  0  0  0  0  0  0
   -2.4176    5.4090   -1.4858 H   0  0  0  0  0  0  0  0  0  0  0  0
   -2.2968    4.7971   -3.1806 H   0  0  0  0  0  0  0  0  0  0  0  0
   -2.0767    2.6724   -2.2585 H   0  0  0  0  0  0  0  0  0  0  0  0
   -1.9192    2.1019    1.8264 H   0  0  0  0  0  0  0  0  0  0  0  0
   -1.6013    0.4339    1.2985 H   0  0  0  0  0  0  0  0  0  0  0  0
   -0.2201    1.2966   -0.6451 H   0  0  0  0  0  0  0  0  0  0  0  0
   -0.6207    2.9672   -0.1586 H   0  0  0  0  0  0  0  0  0  0  0  0
    0.4911    2.6298    2.0429 H   0  0  0  0  0  0  0  0  0  0  0  0
    1.5719    2.4922    0.6328 H   0  0  0  0  0  0  0  0  0  0  0  0
    2.0191    0.7623    2.4382 H   0  0  0  0  0  0  0  0  0  0  0  0
    0.3967    0.1244    2.2452 H   0  0  0  0  0  0  0  0  0  0  0  0
    4.3659    0.2330    1.7438 H   0  0  0  0  0  0  0  0  0  0  0  0
    3.6352    1.6717    0.9950 H   0  0  0  0  0  0  0  0  0  0  0  0
    6.4319   -0.7816    0.8083 H   0  0  0  0  0  0  0  0  0  0  0  0
    7.2723   -0.0470   -0.6017 H   0  0  0  0  0  0  0  0  0  0  0  0
    5.8167   -1.0354   -0.8633 H   0  0  0  0  0  0  0  0  0  0  0  0
    6.0414    1.8626   -1.9457 H   0  0  0  0  0  0  0  0  0  0  0  0
    4.5846    0.8333   -2.0783 H   0  0  0  0  0  0  0  0  0  0  0  0
    4.4515    2.4660   -1.3344 H   0  0  0  0  0  0  0  0  0  0  0  0
    6.4525    1.6517    1.7848 H   0  0  0  0  0  0  0  0  0  0  0  0
    5.6799    2.9821    0.8420 H   0  0  0  0  0  0  0  0  0  0  0  0
    7.2052    2.2294    0.2529 H   0  0  0  0  0  0  0  0  0  0  0  0
    1.0322   -1.6291   -0.9075 H   0  0  0  0  0  0  0  0  0  0  0  0
   -0.2387   -0.9948    0.1405 H   0  0  0  0  0  0  0  0  0  0  0  0
    1.3776   -2.2678    2.0410 H   0  0  0  0  0  0  0  0  0  0  0  0
    1.6463   -3.3111    0.6181 H   0  0  0  0  0  0  0  0  0  0  0  0
    0.5321   -4.9425   -0.5140 H   0  0  0  0  0  0  0  0  0  0  0  0
   -0.8714   -6.0905   -2.1776 H   0  0  0  0  0  0  0  0  0  0  0  0
   -3.3079   -5.6539   -2.2718 H   0  0  0  0  0  0  0  0  0  0  0  0
   -4.3402   -4.0313   -0.7266 H   0  0  0  0  0  0  0  0  0  0  0  0
   -4.6334   -1.0085   -1.1440 H   0  0  0  0  0  0  0  0  0  0  0  0
   -2.9982   -1.6789   -1.3957 H   0  0  0  0  0  0  0  0  0  0  0  0
   -1.9895    0.3468   -1.5043 H   0  0  0  0  0  0  0  0  0  0  0  0
   -3.6199    0.8405   -1.9683 H   0  0  0  0  0  0  0  0  0  0  0  0
   -3.5472   -0.2227    2.4973 H   0  0  0  0  0  0  0  0  0  0  0  0
   -5.1719   -0.6610    1.8701 H   0  0  0  0  0  0  0  0  0  0  0  0
   -5.2226    1.1649    0.3674 H   0  0  0  0  0  0  0  0  0  0  0  0
   -4.3961    1.8442    1.8048 H   0  0  0  0  0  0  0  0  0  0  0  0
  1  2  1  0
  2  3  1  0
  3  4  2  0
  3  5  1  0
  5  6  1  0
  6  7  1  0
  7  8  1  0
  8  9  1  0
  9 10  1  0
 10 11  1  0
 11 12  2  0
 11 13  1  0
 13 14  1  0
 14 15  1  0
 14 16  1  0
 14 17  1  0
 10 18  1  0
 18 19  1  0
 19 20  1  0
 20 21  1  0
 21 22  2  0
 22 23  1  0
 23 24  2  0
 24 25  1  0
 25 26  2  0
 26 27  1  0
 27 28  2  0
 27 29  1  0
 29 30  1  0
 30 31  1  0
 29 32  1  0
 32 33  1  0
 31  5  1  0
 33  5  1  0
 26 21  1  0
  1 34  1  0
  1 35  1  0
  1 36  1  0
  2 37  1  0
  6 38  1  0
  6 39  1  0
  7 40  1  0
  7 41  1  0
  8 42  1  0
  8 43  1  0
  9 44  1  0
  9 45  1  0
 13 46  1  0
 13 47  1  0
 15 48  1  0
 15 49  1  0
 15 50  1  0
 16 51  1  0
 16 52  1  0
 16 53  1  0
 17 54  1  0
 17 55  1  0
 17 56  1  0
 18 57  1  0
 18 58  1  0
 19 59  1  0
 19 60  1  0
 22 61  1  0
 23 62  1  0
 24 63  1  0
 25 64  1  0
 30 65  1  0
 30 66  1  0
 31 67  1  0
 31 68  1  0
 32 69  1  0
 32 70  1  0
 33 71  1  0
 33 72  1  0
M  END
$$$$
