
     RDKit          3D

 61 64  0  0  0  0  0  0  0  0999 V2000
   -0.0955   -3.6093    1.3413 C   0  0  0  0  0  0  0  0  0  0  0  0
    0.6005   -2.8485    0.2192 C   0  0  0  0  0  0  0  0  0  0  0  0
   -0.2114   -1.7076   -0.2165 N   0  0  0  0  0  0  0  0  0  0  0  0
   -1.3964   -1.9168   -1.0610 C   0  0  0  0  0  0  0  0  0  0  0  0
   -2.7022   -1.6587   -0.3024 C   0  0  0  0  0  0  0  0  0  0  0  0
   -2.7572   -0.3082    0.1550 O   0  0  0  0  0  0  0  0  0  0  0  0
   -3.9313    0.4115    0.4319 C   0  0  0  0  0  0  0  0  0  0  0  0
   -5.1997   -0.2039    0.4145 C   0  0  0  0  0  0  0  0  0  0  0  0
   -6.3558    0.5489    0.6286 C   0  0  0  0  0  0  0  0  0  0  0  0
   -6.2649    1.9192    0.8680 C   0  0  0  0  0  0  0  0  0  0  0  0
   -5.0155    2.5388    0.9155 C   0  0  0  0  0  0  0  0  0  0  0  0
   -3.8397    1.7930    0.7205 C   0  0  0  0  0  0  0  0  0  0  0  0
   -2.5027    2.4909    0.8397 C   0  0  0  0  0  0  0  0  0  0  0  0
   -2.0024    3.0640   -0.5029 C   0  0  0  0  0  0  0  0  0  0  0  0
   -1.0848    2.0996   -1.2735 C   0  0  0  0  0  0  0  0  0  0  0  0
    0.3248    1.9784   -0.6428 C   0  0  0  0  0  0  0  0  0  0  0  0
    0.9280    0.5481   -0.7309 C   0  0  0  0  0  0  0  0  0  0  0  0
    2.4185    0.5828   -0.2402 C   0  0  0  0  0  0  0  0  0  0  0  0
    3.1960   -0.4893   -0.8714 N   0  0  0  0  0  0  0  0  0  0  0  0
    4.2037   -1.2281   -0.1536 C   0  0  0  0  0  0  0  0  0  0  0  0
    4.4318   -2.4274   -0.4701 O   0  0  0  0  0  0  0  0  0  0  0  0
    5.0047   -0.6125    0.9226 C   0  0  0  0  0  0  0  0  0  0  0  0
    5.8564   -1.2851    1.7803 C   0  0  0  0  0  0  0  0  0  0  0  0
    6.4093   -0.2948    2.5627 C   0  0  0  0  0  0  0  0  0  0  0  0
    5.9096    0.8903    2.1725 N   0  0  0  0  0  0  0  0  0  0  0  0
    5.0612    0.7101    1.1737 N   0  0  0  0  0  0  0  0  0  0  0  0
    3.0122   -0.7415   -2.3010 C   0  0  0  0  0  0  0  0  0  0  0  0
    1.9278    0.1771   -2.8585 C   0  0  0  0  0  0  0  0  0  0  0  0
    0.7637    0.0675   -2.0691 O   0  0  0  0  0  0  0  0  0  0  0  0
    0.1700   -0.3879    0.2020 C   0  0  0  0  0  0  0  0  0  0  0  0
   -0.0130   -0.0594    1.4062 O   0  0  0  0  0  0  0  0  0  0  0  0
    0.5659   -4.4232    1.7060 H   0  0  0  0  0  0  0  0  0  0  0  0
   -0.3204   -2.9240    2.1854 H   0  0  0  0  0  0  0  0  0  0  0  0
   -1.0402   -4.0609    0.9729 H   0  0  0  0  0  0  0  0  0  0  0  0
    0.7858   -3.5306   -0.6380 H   0  0  0  0  0  0  0  0  0  0  0  0
    1.5913   -2.5005    0.5851 H   0  0  0  0  0  0  0  0  0  0  0  0
   -1.3523   -1.2591   -1.9529 H   0  0  0  0  0  0  0  0  0  0  0  0
   -1.4163   -2.9628   -1.4374 H   0  0  0  0  0  0  0  0  0  0  0  0
   -2.7963   -2.3484    0.5626 H   0  0  0  0  0  0  0  0  0  0  0  0
   -3.5298   -1.8559   -1.0164 H   0  0  0  0  0  0  0  0  0  0  0  0
   -5.3064   -1.2653    0.2415 H   0  0  0  0  0  0  0  0  0  0  0  0
   -7.3252    0.0694    0.6054 H   0  0  0  0  0  0  0  0  0  0  0  0
   -7.1633    2.5012    1.0283 H   0  0  0  0  0  0  0  0  0  0  0  0
   -4.9631    3.6013    1.1192 H   0  0  0  0  0  0  0  0  0  0  0  0
   -2.6011    3.3313    1.5607 H   0  0  0  0  0  0  0  0  0  0  0  0
   -1.7602    1.8075    1.2945 H   0  0  0  0  0  0  0  0  0  0  0  0
   -1.4440    4.0070   -0.3127 H   0  0  0  0  0  0  0  0  0  0  0  0
   -2.8696    3.3345   -1.1444 H   0  0  0  0  0  0  0  0  0  0  0  0
   -0.9697    2.4816   -2.3118 H   0  0  0  0  0  0  0  0  0  0  0  0
   -1.5798    1.1179   -1.3741 H   0  0  0  0  0  0  0  0  0  0  0  0
    0.9892    2.6900   -1.1803 H   0  0  0  0  0  0  0  0  0  0  0  0
    0.3252    2.3139    0.4168 H   0  0  0  0  0  0  0  0  0  0  0  0
    2.4642    0.5033    0.8684 H   0  0  0  0  0  0  0  0  0  0  0  0
    2.8974    1.5502   -0.5066 H   0  0  0  0  0  0  0  0  0  0  0  0
    6.0545   -2.3485    1.8262 H   0  0  0  0  0  0  0  0  0  0  0  0
    7.1322   -0.4282    3.3575 H   0  0  0  0  0  0  0  0  0  0  0  0
    6.1497    1.8214    2.5781 H   0  0  0  0  0  0  0  0  0  0  0  0
    2.7039   -1.7985   -2.4533 H   0  0  0  0  0  0  0  0  0  0  0  0
    3.9663   -0.5604   -2.8413 H   0  0  0  0  0  0  0  0  0  0  0  0
    1.6867   -0.1377   -3.8952 H   0  0  0  0  0  0  0  0  0  0  0  0
    2.2797    1.2323   -2.9047 H   0  0  0  0  0  0  0  0  0  0  0  0
  1  2  1  0
  2  3  1  0
  3  4  1  0
  4  5  1  0
  5  6  1  0
  6  7  1  0
  7  8  2  0
  8  9  1  0
  9 10  2  0
 10 11  1  0
 11 12  2  0
 12 13  1  0
 13 14  1  0
 14 15  1  0
 15 16  1  0
 16 17  1  0
 17 18  1  0
 18 19  1  0
 19 20  1  0
 20 21  2  0
 20 22  1  0
 22 23  1  0
 23 24  2  0
 24 25  1  0
 25 26  1  0
 19 27  1  0
 27 28  1  0
 28 29  1  0
 17 30  1  0
 30 31  2  0
 30  3  1  0
 12  7  1  0
 29 17  1  0
 26 22  2  0
  1 32  1  0
  1 33  1  0
  1 34  1  0
  2 35  1  0
  2 36  1  0
  4 37  1  0
  4 38  1  0
  5 39  1  0
  5 40  1  0
  8 41  1  0
  9 42  1  0
 10 43  1  0
 11 44  1  0
 13 45  1  0
 13 46  1  0
 14 47  1  0
 14 48  1  0
 15 49  1  0
 15 50  1  0
 16 51  1  0
 16 52  1  0
 18 53  1  0
 18 54  1  0
 23 55  1  0
 24 56  1  0
 25 57  1  0
 27 58  1  0
 27 59  1  0
 28 60  1  0
 28 61  1  0
M  END
$$$$
