
     RDKit          3D

 68 71  0  0  0  0  0  0  0  0999 V2000
   -4.2088   -4.4742    1.4186 C   0  0  0  0  0  0  0  0  0  0  0  0
   -3.4510   -3.2896    1.3360 O   0  0  0  0  0  0  0  0  0  0  0  0
   -3.9942   -2.4356    0.3476 C   0  0  0  0  0  0  0  0  0  0  0  0
   -3.0563   -1.2177    0.0999 C   0  0  0  0  0  0  0  0  0  0  0  0
   -1.6764   -1.7476   -0.4510 C   0  0  0  0  0  0  0  0  0  0  0  0
   -0.6898   -2.3996    0.5602 C   0  0  0  0  0  0  0  0  0  0  0  0
    0.6943   -1.7100    0.5644 C   0  0  0  0  0  0  0  0  0  0  0  0
    0.6151   -0.2689    1.1061 C   0  0  0  0  0  0  0  0  0  0  0  0
    1.8762    0.4832    1.0260 N   0  0  0  0  0  0  0  0  0  0  0  0
    2.8178    0.2318   -0.0372 C   0  0  0  0  0  0  0  0  0  0  0  0
    2.5504    0.6443   -1.1951 O   0  0  0  0  0  0  0  0  0  0  0  0
    4.1134   -0.4543    0.2204 C   0  0  0  0  0  0  0  0  0  0  0  0
    4.8156   -0.2144    1.4168 C   0  0  0  0  0  0  0  0  0  0  0  0
    6.0877   -0.7529    1.6157 C   0  0  0  0  0  0  0  0  0  0  0  0
    6.6500   -1.5536    0.6270 C   0  0  0  0  0  0  0  0  0  0  0  0
    5.9551   -1.8193   -0.5104 N   0  0  0  0  0  0  0  0  0  0  0  0
    4.7131   -1.3099   -0.7421 C   0  0  0  0  0  0  0  0  0  0  0  0
    4.0349   -1.6912   -1.9431 N   0  0  0  0  0  0  0  0  0  0  0  0
    2.0822    1.6377    1.9177 C   0  0  0  0  0  0  0  0  0  0  0  0
    0.8710    2.5980    1.9796 C   0  0  0  0  0  0  0  0  0  0  0  0
    0.9267    3.5939    0.9558 O   0  0  0  0  0  0  0  0  0  0  0  0
    0.6825    3.3632   -0.4025 C   0  0  0  0  0  0  0  0  0  0  0  0
    1.7449    3.5654   -1.2906 C   0  0  0  0  0  0  0  0  0  0  0  0
    1.5434    3.4943   -2.6713 C   0  0  0  0  0  0  0  0  0  0  0  0
    0.2670    3.2489   -3.1755 C   0  0  0  0  0  0  0  0  0  0  0  0
   -0.8017    3.0381   -2.2998 C   0  0  0  0  0  0  0  0  0  0  0  0
   -0.6043    3.0382   -0.9041 C   0  0  0  0  0  0  0  0  0  0  0  0
   -1.7580    2.8368    0.0117 C   0  0  0  0  0  0  0  0  0  0  0  0
   -1.9826    3.7150    0.8897 O   0  0  0  0  0  0  0  0  0  0  0  0
   -2.5470    1.6196    0.0036 N   0  0  0  0  0  0  0  0  0  0  0  0
   -2.9743    0.9844   -1.2533 C   0  0  0  0  0  0  0  0  0  0  0  0
   -3.7233   -0.3425   -1.0086 C   0  0  0  0  0  0  0  0  0  0  0  0
   -3.1438    1.1462    1.2566 C   0  0  0  0  0  0  0  0  0  0  0  0
   -2.9349   -0.3705    1.4227 C   0  0  0  0  0  0  0  0  0  0  0  0
   -3.7275   -5.1481    2.1555 H   0  0  0  0  0  0  0  0  0  0  0  0
   -4.2449   -5.0125    0.4433 H   0  0  0  0  0  0  0  0  0  0  0  0
   -5.2382   -4.2630    1.7804 H   0  0  0  0  0  0  0  0  0  0  0  0
   -4.1350   -2.9810   -0.6158 H   0  0  0  0  0  0  0  0  0  0  0  0
   -4.9919   -2.0688    0.6803 H   0  0  0  0  0  0  0  0  0  0  0  0
   -1.1476   -0.9488   -0.9989 H   0  0  0  0  0  0  0  0  0  0  0  0
   -1.8827   -2.4967   -1.2499 H   0  0  0  0  0  0  0  0  0  0  0  0
   -1.0869   -2.4491    1.5923 H   0  0  0  0  0  0  0  0  0  0  0  0
   -0.5341   -3.4602    0.2630 H   0  0  0  0  0  0  0  0  0  0  0  0
    1.3889   -2.2987    1.2032 H   0  0  0  0  0  0  0  0  0  0  0  0
    1.0893   -1.7172   -0.4733 H   0  0  0  0  0  0  0  0  0  0  0  0
    0.3015   -0.3242    2.1702 H   0  0  0  0  0  0  0  0  0  0  0  0
   -0.1485    0.2984    0.5421 H   0  0  0  0  0  0  0  0  0  0  0  0
    4.4102    0.4231    2.1879 H   0  0  0  0  0  0  0  0  0  0  0  0
    6.6409   -0.5272    2.5228 H   0  0  0  0  0  0  0  0  0  0  0  0
    7.6442   -1.9599    0.7617 H   0  0  0  0  0  0  0  0  0  0  0  0
    4.5449   -2.2269   -2.6857 H   0  0  0  0  0  0  0  0  0  0  0  0
    2.9970   -1.6272   -2.0294 H   0  0  0  0  0  0  0  0  0  0  0  0
    2.2733    1.2544    2.9457 H   0  0  0  0  0  0  0  0  0  0  0  0
    2.9799    2.2218    1.6052 H   0  0  0  0  0  0  0  0  0  0  0  0
   -0.1043    2.0797    1.9920 H   0  0  0  0  0  0  0  0  0  0  0  0
    0.9290    3.1334    2.9514 H   0  0  0  0  0  0  0  0  0  0  0  0
    2.7288    3.8077   -0.9085 H   0  0  0  0  0  0  0  0  0  0  0  0
    2.3717    3.6654   -3.3487 H   0  0  0  0  0  0  0  0  0  0  0  0
    0.0972    3.2450   -4.2464 H   0  0  0  0  0  0  0  0  0  0  0  0
   -1.7911    2.9156   -2.7205 H   0  0  0  0  0  0  0  0  0  0  0  0
   -2.0947    0.7802   -1.8984 H   0  0  0  0  0  0  0  0  0  0  0  0
   -3.6420    1.6804   -1.8077 H   0  0  0  0  0  0  0  0  0  0  0  0
   -3.7834   -0.9069   -1.9668 H   0  0  0  0  0  0  0  0  0  0  0  0
   -4.7683   -0.0964   -0.7159 H   0  0  0  0  0  0  0  0  0  0  0  0
   -4.2315    1.3792    1.2506 H   0  0  0  0  0  0  0  0  0  0  0  0
   -2.7007    1.6634    2.1375 H   0  0  0  0  0  0  0  0  0  0  0  0
   -3.6776   -0.7120    2.1798 H   0  0  0  0  0  0  0  0  0  0  0  0
   -1.9609   -0.5100    1.9151 H   0  0  0  0  0  0  0  0  0  0  0  0
  1  2  1  0
  2  3  1  0
  3  4  1  0
  4  5  1  0
  5  6  1  0
  6  7  1  0
  7  8  1  0
  8  9  1  0
  9 10  1  0
 10 11  2  0
 10 12  1  0
 12 13  2  0
 13 14  1  0
 14 15  2  0
 15 16  1  0
 16 17  2  0
 17 18  1  0
  9 19  1  0
 19 20  1  0
 20 21  1  0
 21 22  1  0
 22 23  2  0
 23 24  1  0
 24 25  2  0
 25 26  1  0
 26 27  2  0
 27 28  1  0
 28 29  2  0
 28 30  1  0
 30 31  1  0
 31 32  1  0
 30 33  1  0
 33 34  1  0
 32  4  1  0
 34  4  1  0
 17 12  1  0
 27 22  1  0
  1 35  1  0
  1 36  1  0
  1 37  1  0
  3 38  1  0
  3 39  1  0
  5 40  1  0
  5 41  1  0
  6 42  1  0
  6 43  1  0
  7 44  1  0
  7 45  1  0
  8 46  1  0
  8 47  1  0
 13 48  1  0
 14 49  1  0
 15 50  1  0
 18 51  1  0
 18 52  1  0
 19 53  1  0
 19 54  1  0
 20 55  1  0
 20 56  1  0
 23 57  1  0
 24 58  1  0
 25 59  1  0
 26 60  1  0
 31 61  1  0
 31 62  1  0
 32 63  1  0
 32 64  1  0
 33 65  1  0
 33 66  1  0
 34 67  1  0
 34 68  1  0
M  END
$$$$
