
     RDKit          3D

 72 76  0  0  0  0  0  0  0  0999 V2000
    8.2638   -5.9964   -0.3629 C   0  0  0  0  0  0  0  0  0  0  0  0
    7.7067   -4.8305   -0.9647 O   0  0  0  0  0  0  0  0  0  0  0  0
    6.5658   -4.1631   -0.4926 C   0  0  0  0  0  0  0  0  0  0  0  0
    6.0937   -3.0594   -1.2111 C   0  0  0  0  0  0  0  0  0  0  0  0
    4.9545   -2.3668   -0.7883 C   0  0  0  0  0  0  0  0  0  0  0  0
    4.2640   -2.7756    0.3618 C   0  0  0  0  0  0  0  0  0  0  0  0
    3.0625   -2.0485    0.8292 C   0  0  0  0  0  0  0  0  0  0  0  0
    2.7985   -1.7214    2.1429 C   0  0  0  0  0  0  0  0  0  0  0  0
    1.5616   -1.1024    2.1064 C   0  0  0  0  0  0  0  0  0  0  0  0
    0.8244   -0.6252    3.2937 C   0  0  0  0  0  0  0  0  0  0  0  0
    1.2983   -0.8921    4.4337 O   0  0  0  0  0  0  0  0  0  0  0  0
   -0.4226    0.0982    3.1989 N   0  0  0  0  0  0  0  0  0  0  0  0
   -1.2999    0.0651    4.3719 C   0  0  0  0  0  0  0  0  0  0  0  0
   -2.7092    0.4997    3.9945 C   0  0  0  0  0  0  0  0  0  0  0  0
   -2.6924    1.7600    3.3521 O   0  0  0  0  0  0  0  0  0  0  0  0
   -2.0023    1.7261    2.1072 C   0  0  0  0  0  0  0  0  0  0  0  0
   -1.9949    3.1935    1.5840 C   0  0  0  0  0  0  0  0  0  0  0  0
   -1.4860    3.3702    0.1290 C   0  0  0  0  0  0  0  0  0  0  0  0
   -2.5356    4.0629   -0.7611 C   0  0  0  0  0  0  0  0  0  0  0  0
   -2.2182    3.9266   -2.2657 C   0  0  0  0  0  0  0  0  0  0  0  0
   -3.3676    3.2880   -3.0101 C   0  0  0  0  0  0  0  0  0  0  0  0
   -4.2033    4.0780   -3.8170 C   0  0  0  0  0  0  0  0  0  0  0  0
   -5.3022    3.5100   -4.4658 C   0  0  0  0  0  0  0  0  0  0  0  0
   -5.5783    2.1506   -4.3159 C   0  0  0  0  0  0  0  0  0  0  0  0
   -4.7658    1.3540   -3.5058 C   0  0  0  0  0  0  0  0  0  0  0  0
   -3.6583    1.9162   -2.8407 C   0  0  0  0  0  0  0  0  0  0  0  0
   -2.8326    1.1544   -2.0022 O   0  0  0  0  0  0  0  0  0  0  0  0
   -2.9946   -0.2352   -1.7267 C   0  0  0  0  0  0  0  0  0  0  0  0
   -1.9121   -0.6811   -0.7417 C   0  0  0  0  0  0  0  0  0  0  0  0
   -2.2605   -0.4059    0.6541 N   0  0  0  0  0  0  0  0  0  0  0  0
   -2.7696    0.8579    1.1074 C   0  0  0  0  0  0  0  0  0  0  0  0
   -3.9190    1.2243    0.7363 O   0  0  0  0  0  0  0  0  0  0  0  0
   -0.5218    1.2667    2.3129 C   0  0  0  0  0  0  0  0  0  0  0  0
    1.1000   -1.0826    0.8401 N   0  0  0  0  0  0  0  0  0  0  0  0
    2.0129   -1.6561    0.0699 N   0  0  0  0  0  0  0  0  0  0  0  0
    1.8391   -1.8362   -1.3678 C   0  0  0  0  0  0  0  0  0  0  0  0
    4.7481   -3.8697    1.0968 C   0  0  0  0  0  0  0  0  0  0  0  0
    5.8858   -4.5628    0.6719 C   0  0  0  0  0  0  0  0  0  0  0  0
    9.1520   -6.3174   -0.9454 H   0  0  0  0  0  0  0  0  0  0  0  0
    7.5192   -6.8206   -0.3677 H   0  0  0  0  0  0  0  0  0  0  0  0
    8.5824   -5.7740    0.6777 H   0  0  0  0  0  0  0  0  0  0  0  0
    6.6131   -2.7370   -2.1059 H   0  0  0  0  0  0  0  0  0  0  0  0
    4.6254   -1.5016   -1.3519 H   0  0  0  0  0  0  0  0  0  0  0  0
    3.4127   -1.9234    3.0119 H   0  0  0  0  0  0  0  0  0  0  0  0
   -1.3443   -0.9630    4.7952 H   0  0  0  0  0  0  0  0  0  0  0  0
   -0.8990    0.7513    5.1494 H   0  0  0  0  0  0  0  0  0  0  0  0
   -3.2107   -0.2770    3.3779 H   0  0  0  0  0  0  0  0  0  0  0  0
   -3.3064    0.5906    4.9253 H   0  0  0  0  0  0  0  0  0  0  0  0
   -1.3744    3.8265    2.2567 H   0  0  0  0  0  0  0  0  0  0  0  0
   -3.0233    3.6059    1.6907 H   0  0  0  0  0  0  0  0  0  0  0  0
   -0.5596    3.9888    0.1359 H   0  0  0  0  0  0  0  0  0  0  0  0
   -1.2063    2.3905   -0.3140 H   0  0  0  0  0  0  0  0  0  0  0  0
   -2.5746    5.1425   -0.4903 H   0  0  0  0  0  0  0  0  0  0  0  0
   -3.5466    3.6460   -0.5400 H   0  0  0  0  0  0  0  0  0  0  0  0
   -1.3005    3.3230   -2.4426 H   0  0  0  0  0  0  0  0  0  0  0  0
   -2.0024    4.9339   -2.6829 H   0  0  0  0  0  0  0  0  0  0  0  0
   -4.0184    5.1368   -3.9290 H   0  0  0  0  0  0  0  0  0  0  0  0
   -5.9432    4.1272   -5.0821 H   0  0  0  0  0  0  0  0  0  0  0  0
   -6.4375    1.7175   -4.8128 H   0  0  0  0  0  0  0  0  0  0  0  0
   -5.0183    0.3050   -3.3903 H   0  0  0  0  0  0  0  0  0  0  0  0
   -2.8805   -0.8045   -2.6742 H   0  0  0  0  0  0  0  0  0  0  0  0
   -4.0043   -0.4389   -1.3062 H   0  0  0  0  0  0  0  0  0  0  0  0
   -1.7517   -1.7743   -0.8589 H   0  0  0  0  0  0  0  0  0  0  0  0
   -0.9550   -0.1750   -0.9868 H   0  0  0  0  0  0  0  0  0  0  0  0
   -1.9223   -1.0858    1.3707 H   0  0  0  0  0  0  0  0  0  0  0  0
    0.0657    2.0877    2.7787 H   0  0  0  0  0  0  0  0  0  0  0  0
   -0.0547    1.0650    1.3298 H   0  0  0  0  0  0  0  0  0  0  0  0
    2.2772   -2.8037   -1.6924 H   0  0  0  0  0  0  0  0  0  0  0  0
    2.3304   -0.9996   -1.9084 H   0  0  0  0  0  0  0  0  0  0  0  0
    0.7572   -1.8435   -1.6240 H   0  0  0  0  0  0  0  0  0  0  0  0
    4.2376   -4.1987    1.9938 H   0  0  0  0  0  0  0  0  0  0  0  0
    6.2284   -5.4068    1.2573 H   0  0  0  0  0  0  0  0  0  0  0  0
  1  2  1  0
  2  3  1  0
  3  4  2  0
  4  5  1  0
  5  6  2  0
  6  7  1  0
  7  8  2  0
  8  9  1  0
  9 10  1  0
 10 11  2  0
 10 12  1  0
 12 13  1  0
 13 14  1  0
 14 15  1  0
 15 16  1  0
 16 17  1  0
 17 18  1  0
 18 19  1  0
 19 20  1  0
 20 21  1  0
 21 22  2  0
 22 23  1  0
 23 24  2  0
 24 25  1  0
 25 26  2  0
 26 27  1  0
 27 28  1  0
 28 29  1  0
 29 30  1  0
 30 31  1  0
 31 32  2  0
 16 33  1  0
  9 34  2  0
 34 35  1  0
 35 36  1  0
  6 37  1  0
 37 38  2  0
 38  3  1  0
 35  7  1  0
 33 12  1  0
 31 16  1  0
 26 21  1  0
  1 39  1  0
  1 40  1  0
  1 41  1  0
  4 42  1  0
  5 43  1  0
  8 44  1  0
 13 45  1  0
 13 46  1  0
 14 47  1  0
 14 48  1  0
 17 49  1  0
 17 50  1  0
 18 51  1  0
 18 52  1  0
 19 53  1  0
 19 54  1  0
 20 55  1  0
 20 56  1  0
 22 57  1  0
 23 58  1  0
 24 59  1  0
 25 60  1  0
 28 61  1  0
 28 62  1  0
 29 63  1  0
 29 64  1  0
 30 65  1  0
 33 66  1  0
 33 67  1  0
 36 68  1  0
 36 69  1  0
 36 70  1  0
 37 71  1  0
 38 72  1  0
M  END
$$$$
