
     RDKit          3D

 73 76  0  0  0  0  0  0  0  0999 V2000
   -4.5516    3.2921   -0.6231 C   0  0  0  0  0  0  0  0  0  0  0  0
   -3.6031    3.3806    0.5854 C   0  0  0  0  0  0  0  0  0  0  0  0
   -2.9271    4.7613    0.5958 C   0  0  0  0  0  0  0  0  0  0  0  0
   -2.5399    2.2443    0.5801 C   0  0  0  0  0  0  0  0  0  0  0  0
   -3.1823    0.8419    0.5824 C   0  0  0  0  0  0  0  0  0  0  0  0
   -3.5045    0.4468   -0.7491 O   0  0  0  0  0  0  0  0  0  0  0  0
   -4.4179   -0.5621   -1.0989 C   0  0  0  0  0  0  0  0  0  0  0  0
   -5.1155   -0.3924   -2.3012 C   0  0  0  0  0  0  0  0  0  0  0  0
   -6.1011   -1.2984   -2.6928 C   0  0  0  0  0  0  0  0  0  0  0  0
   -6.3983   -2.3986   -1.8888 C   0  0  0  0  0  0  0  0  0  0  0  0
   -7.6432   -3.5328   -2.3815 Cl  0  0  0  0  0  0  0  0  0  0  0  0
   -5.6876   -2.6075   -0.7053 C   0  0  0  0  0  0  0  0  0  0  0  0
   -4.6779   -1.7145   -0.3099 C   0  0  0  0  0  0  0  0  0  0  0  0
   -3.8691   -2.0853    0.8662 C   0  0  0  0  0  0  0  0  0  0  0  0
   -4.3931   -2.0149    2.0112 O   0  0  0  0  0  0  0  0  0  0  0  0
   -2.5292   -2.5962    0.7381 N   0  0  0  0  0  0  0  0  0  0  0  0
   -1.9031   -2.9599   -0.5338 C   0  0  0  0  0  0  0  0  0  0  0  0
   -0.7993   -1.9659   -0.9225 C   0  0  0  0  0  0  0  0  0  0  0  0
    0.4786   -2.0851   -0.0634 C   0  0  0  0  0  0  0  0  0  0  0  0
    0.4600   -1.2300    1.2220 C   0  0  0  0  0  0  0  0  0  0  0  0
    1.1685    0.0481    1.0342 N   0  0  0  0  0  0  0  0  0  0  0  0
    2.5673    0.1911    1.3778 C   0  0  0  0  0  0  0  0  0  0  0  0
    3.0349    1.3390    1.6139 O   0  0  0  0  0  0  0  0  0  0  0  0
    3.4773   -1.0027    1.5269 C   0  0  0  0  0  0  0  0  0  0  0  0
    4.8473   -0.7168    0.9847 C   0  0  0  0  0  0  0  0  0  0  0  0
    6.0278   -0.6114    1.7157 C   0  0  0  0  0  0  0  0  0  0  0  0
    7.0658   -0.3449    0.8869 N   0  0  0  0  0  0  0  0  0  0  0  0
    8.4601   -0.1595    1.2756 C   0  0  0  0  0  0  0  0  0  0  0  0
    6.5524   -0.2696   -0.3579 C   0  0  0  0  0  0  0  0  0  0  0  0
    7.2280   -0.0108   -1.5540 C   0  0  0  0  0  0  0  0  0  0  0  0
    6.4779    0.0085   -2.7437 C   0  0  0  0  0  0  0  0  0  0  0  0
    5.0850   -0.2213   -2.7164 C   0  0  0  0  0  0  0  0  0  0  0  0
    4.4291   -0.4755   -1.4994 C   0  0  0  0  0  0  0  0  0  0  0  0
    5.1980   -0.4951   -0.3350 C   0  0  0  0  0  0  0  0  0  0  0  0
    0.3875    1.2343    0.6527 C   0  0  0  0  0  0  0  0  0  0  0  0
   -0.3386    1.8102    1.8445 C   0  0  0  0  0  0  0  0  0  0  0  0
    0.2646    1.8656    2.9506 O   0  0  0  0  0  0  0  0  0  0  0  0
   -1.6641    2.3608    1.7549 N   0  0  0  0  0  0  0  0  0  0  0  0
   -5.2295    4.1712   -0.6480 H   0  0  0  0  0  0  0  0  0  0  0  0
   -3.9794    3.2576   -1.5747 H   0  0  0  0  0  0  0  0  0  0  0  0
   -5.1946    2.3901   -0.5505 H   0  0  0  0  0  0  0  0  0  0  0  0
   -4.2188    3.2951    1.5087 H   0  0  0  0  0  0  0  0  0  0  0  0
   -2.2739    4.8873   -0.2948 H   0  0  0  0  0  0  0  0  0  0  0  0
   -3.6937    5.5656    0.5948 H   0  0  0  0  0  0  0  0  0  0  0  0
   -2.3103    4.8915    1.5090 H   0  0  0  0  0  0  0  0  0  0  0  0
   -1.9343    2.3755   -0.3430 H   0  0  0  0  0  0  0  0  0  0  0  0
   -4.0924    0.8362    1.2214 H   0  0  0  0  0  0  0  0  0  0  0  0
   -2.4664    0.1155    1.0038 H   0  0  0  0  0  0  0  0  0  0  0  0
   -4.9113    0.4690   -2.9248 H   0  0  0  0  0  0  0  0  0  0  0  0
   -6.6412   -1.1363   -3.6170 H   0  0  0  0  0  0  0  0  0  0  0  0
   -5.9009   -3.4865   -0.1086 H   0  0  0  0  0  0  0  0  0  0  0  0
   -2.0134   -2.8346    1.6159 H   0  0  0  0  0  0  0  0  0  0  0  0
   -1.4805   -3.9847   -0.4556 H   0  0  0  0  0  0  0  0  0  0  0  0
   -2.6602   -2.9945   -1.3449 H   0  0  0  0  0  0  0  0  0  0  0  0
   -0.5193   -2.1836   -1.9764 H   0  0  0  0  0  0  0  0  0  0  0  0
   -1.2006   -0.9360   -0.9120 H   0  0  0  0  0  0  0  0  0  0  0  0
    1.3433   -1.7809   -0.6910 H   0  0  0  0  0  0  0  0  0  0  0  0
    0.6482   -3.1515    0.2070 H   0  0  0  0  0  0  0  0  0  0  0  0
    0.9265   -1.7977    2.0565 H   0  0  0  0  0  0  0  0  0  0  0  0
   -0.5760   -1.0366    1.5579 H   0  0  0  0  0  0  0  0  0  0  0  0
    3.5443   -1.2703    2.6036 H   0  0  0  0  0  0  0  0  0  0  0  0
    3.0774   -1.8789    0.9795 H   0  0  0  0  0  0  0  0  0  0  0  0
    6.1178   -0.7237    2.7884 H   0  0  0  0  0  0  0  0  0  0  0  0
    8.6065   -0.4275    2.3420 H   0  0  0  0  0  0  0  0  0  0  0  0
    8.7536    0.9015    1.1276 H   0  0  0  0  0  0  0  0  0  0  0  0
    9.1123   -0.8101    0.6561 H   0  0  0  0  0  0  0  0  0  0  0  0
    8.2958    0.1676   -1.5736 H   0  0  0  0  0  0  0  0  0  0  0  0
    6.9730    0.2018   -3.6860 H   0  0  0  0  0  0  0  0  0  0  0  0
    4.5184   -0.2021   -3.6385 H   0  0  0  0  0  0  0  0  0  0  0  0
    3.3626   -0.6478   -1.4739 H   0  0  0  0  0  0  0  0  0  0  0  0
   -0.3076    0.9512   -0.1534 H   0  0  0  0  0  0  0  0  0  0  0  0
    1.0471    2.0186    0.2248 H   0  0  0  0  0  0  0  0  0  0  0  0
   -2.0859    2.7139    2.6468 H   0  0  0  0  0  0  0  0  0  0  0  0
  1  2  1  0
  2  3  1  0
  2  4  1  0
  4  5  1  0
  5  6  1  0
  6  7  1  0
  7  8  2  0
  8  9  1  0
  9 10  2  0
 10 11  1  0
 10 12  1  0
 12 13  2  0
 13 14  1  0
 14 15  2  0
 14 16  1  0
 16 17  1  0
 17 18  1  0
 18 19  1  0
 19 20  1  0
 20 21  1  0
 21 22  1  0
 22 23  2  0
 22 24  1  0
 24 25  1  0
 25 26  2  0
 26 27  1  0
 27 28  1  0
 27 29  1  0
 29 30  2  0
 30 31  1  0
 31 32  2  0
 32 33  1  0
 33 34  2  0
 21 35  1  0
 35 36  1  0
 36 37  2  0
 36 38  1  0
 38  4  1  0
 13  7  1  0
 34 25  1  0
 34 29  1  0
  1 39  1  0
  1 40  1  0
  1 41  1  0
  2 42  1  0
  3 43  1  0
  3 44  1  0
  3 45  1  0
  4 46  1  0
  5 47  1  0
  5 48  1  0
  8 49  1  0
  9 50  1  0
 12 51  1  0
 16 52  1  0
 17 53  1  0
 17 54  1  0
 18 55  1  0
 18 56  1  0
 19 57  1  0
 19 58  1  0
 20 59  1  0
 20 60  1  0
 24 61  1  0
 24 62  1  0
 26 63  1  0
 28 64  1  0
 28 65  1  0
 28 66  1  0
 30 67  1  0
 31 68  1  0
 32 69  1  0
 33 70  1  0
 35 71  1  0
 35 72  1  0
 38 73  1  0
M  END
$$$$
