
     RDKit          3D

 76 79  0  0  0  0  0  0  0  0999 V2000
   -1.8599   -0.6763   -3.9285 C   0  0  0  0  0  0  0  0  0  0  0  0
   -1.9290    0.5132   -2.9596 C   0  0  0  0  0  0  0  0  0  0  0  0
   -3.0015    1.5143   -3.4245 C   0  0  0  0  0  0  0  0  0  0  0  0
   -2.0990    0.0469   -1.4848 C   0  0  0  0  0  0  0  0  0  0  0  0
   -3.3436   -0.8332   -1.2310 C   0  0  0  0  0  0  0  0  0  0  0  0
   -3.6885   -0.7748    0.1525 O   0  0  0  0  0  0  0  0  0  0  0  0
   -4.6636   -1.5541    0.7880 C   0  0  0  0  0  0  0  0  0  0  0  0
   -5.0180   -2.8342    0.3271 C   0  0  0  0  0  0  0  0  0  0  0  0
   -5.9353   -3.6095    1.0419 C   0  0  0  0  0  0  0  0  0  0  0  0
   -6.5057   -3.1160    2.2184 C   0  0  0  0  0  0  0  0  0  0  0  0
   -6.1757   -1.8373    2.6723 C   0  0  0  0  0  0  0  0  0  0  0  0
   -5.2682   -1.0477    1.9536 C   0  0  0  0  0  0  0  0  0  0  0  0
   -5.0504    0.3550    2.3549 C   0  0  0  0  0  0  0  0  0  0  0  0
   -5.5454    1.2730    1.6479 O   0  0  0  0  0  0  0  0  0  0  0  0
   -4.2834    0.7015    3.5165 N   0  0  0  0  0  0  0  0  0  0  0  0
   -3.3423   -0.2126    4.1598 C   0  0  0  0  0  0  0  0  0  0  0  0
   -2.2494   -0.6130    3.2077 C   0  0  0  0  0  0  0  0  0  0  0  0
   -1.5239    0.2981    2.5396 C   0  0  0  0  0  0  0  0  0  0  0  0
   -0.4707   -0.1445    1.5538 C   0  0  0  0  0  0  0  0  0  0  0  0
    0.1665    1.0198    0.7273 C   0  0  0  0  0  0  0  0  0  0  0  0
    1.1910    0.4217   -0.2902 C   0  0  0  0  0  0  0  0  0  0  0  0
    2.6096    0.3613    0.2910 C   0  0  0  0  0  0  0  0  0  0  0  0
    3.1436    1.7166    0.5717 N   0  0  0  0  0  0  0  0  0  0  0  0
    4.3001    1.6649    1.4916 C   0  0  0  0  0  0  0  0  0  0  0  0
    5.4279    0.8470    0.9239 C   0  0  0  0  0  0  0  0  0  0  0  0
    6.0263    0.0236    1.6659 O   0  0  0  0  0  0  0  0  0  0  0  0
    5.8441    1.0405   -0.4388 N   0  0  0  0  0  0  0  0  0  0  0  0
    6.6767    0.1206   -1.1648 C   0  0  0  0  0  0  0  0  0  0  0  0
    6.6326   -1.2641   -0.9139 C   0  0  0  0  0  0  0  0  0  0  0  0
    7.4382   -2.1389   -1.6501 C   0  0  0  0  0  0  0  0  0  0  0  0
    8.2798   -1.6455   -2.6504 C   0  0  0  0  0  0  0  0  0  0  0  0
    9.0584   -2.4979   -3.3618 F   0  0  0  0  0  0  0  0  0  0  0  0
    8.3104   -0.2761   -2.9245 C   0  0  0  0  0  0  0  0  0  0  0  0
    7.5080    0.6039   -2.1895 C   0  0  0  0  0  0  0  0  0  0  0  0
    2.1158    2.6760    1.0560 C   0  0  0  0  0  0  0  0  0  0  0  0
    0.9140    1.9781    1.7195 C   0  0  0  0  0  0  0  0  0  0  0  0
   -0.9050    1.8043   -0.0492 C   0  0  0  0  0  0  0  0  0  0  0  0
   -0.7562    3.0438   -0.2255 O   0  0  0  0  0  0  0  0  0  0  0  0
   -2.0972    1.1978   -0.5712 N   0  0  0  0  0  0  0  0  0  0  0  0
   -2.8367   -1.2027   -3.9804 H   0  0  0  0  0  0  0  0  0  0  0  0
   -1.0791   -1.3963   -3.6006 H   0  0  0  0  0  0  0  0  0  0  0  0
   -1.5979   -0.3227   -4.9488 H   0  0  0  0  0  0  0  0  0  0  0  0
   -0.9482    1.0392   -3.0215 H   0  0  0  0  0  0  0  0  0  0  0  0
   -2.7715    1.8543   -4.4590 H   0  0  0  0  0  0  0  0  0  0  0  0
   -3.0055    2.4163   -2.7788 H   0  0  0  0  0  0  0  0  0  0  0  0
   -4.0129    1.0598   -3.4274 H   0  0  0  0  0  0  0  0  0  0  0  0
   -1.2249   -0.5908   -1.2627 H   0  0  0  0  0  0  0  0  0  0  0  0
   -3.1005   -1.8747   -1.5276 H   0  0  0  0  0  0  0  0  0  0  0  0
   -4.2140   -0.4887   -1.8226 H   0  0  0  0  0  0  0  0  0  0  0  0
   -4.5760   -3.2517   -0.5657 H   0  0  0  0  0  0  0  0  0  0  0  0
   -6.1996   -4.5975    0.6873 H   0  0  0  0  0  0  0  0  0  0  0  0
   -7.2130   -3.7192    2.7721 H   0  0  0  0  0  0  0  0  0  0  0  0
   -6.6506   -1.4484    3.5665 H   0  0  0  0  0  0  0  0  0  0  0  0
   -4.2919    1.6978    3.8352 H   0  0  0  0  0  0  0  0  0  0  0  0
   -2.8861    0.2881    5.0417 H   0  0  0  0  0  0  0  0  0  0  0  0
   -3.8814   -1.1154    4.5203 H   0  0  0  0  0  0  0  0  0  0  0  0
   -2.0677   -1.6725    3.0481 H   0  0  0  0  0  0  0  0  0  0  0  0
   -1.7247    1.3555    2.6858 H   0  0  0  0  0  0  0  0  0  0  0  0
   -0.9257   -0.9004    0.8845 H   0  0  0  0  0  0  0  0  0  0  0  0
    0.3262   -0.6802    2.1139 H   0  0  0  0  0  0  0  0  0  0  0  0
    1.2300    1.0355   -1.2180 H   0  0  0  0  0  0  0  0  0  0  0  0
    0.9068   -0.6063   -0.5989 H   0  0  0  0  0  0  0  0  0  0  0  0
    3.2647   -0.1399   -0.4539 H   0  0  0  0  0  0  0  0  0  0  0  0
    2.6023   -0.2639    1.2112 H   0  0  0  0  0  0  0  0  0  0  0  0
    3.9876    1.2559    2.4804 H   0  0  0  0  0  0  0  0  0  0  0  0
    4.6978    2.6903    1.6554 H   0  0  0  0  0  0  0  0  0  0  0  0
    5.5489    1.9212   -0.9204 H   0  0  0  0  0  0  0  0  0  0  0  0
    5.9575   -1.6754   -0.1748 H   0  0  0  0  0  0  0  0  0  0  0  0
    7.4027   -3.2022   -1.4502 H   0  0  0  0  0  0  0  0  0  0  0  0
    8.9507    0.1026   -3.7085 H   0  0  0  0  0  0  0  0  0  0  0  0
    7.5380    1.6618   -2.4149 H   0  0  0  0  0  0  0  0  0  0  0  0
    1.7646    3.2752    0.1911 H   0  0  0  0  0  0  0  0  0  0  0  0
    2.5382    3.4153    1.7731 H   0  0  0  0  0  0  0  0  0  0  0  0
    0.2218    2.7439    2.1353 H   0  0  0  0  0  0  0  0  0  0  0  0
    1.3076    1.4151    2.5955 H   0  0  0  0  0  0  0  0  0  0  0  0
   -2.9685    1.7752   -0.5296 H   0  0  0  0  0  0  0  0  0  0  0  0
  1  2  1  0
  2  3  1  0
  2  4  1  0
  4  5  1  0
  5  6  1  0
  6  7  1  0
  7  8  2  0
  8  9  1  0
  9 10  2  0
 10 11  1  0
 11 12  2  0
 12 13  1  0
 13 14  2  0
 13 15  1  0
 15 16  1  0
 16 17  1  0
 17 18  2  0
 18 19  1  0
 19 20  1  0
 20 21  1  0
 21 22  1  0
 22 23  1  0
 23 24  1  0
 24 25  1  0
 25 26  2  0
 25 27  1  0
 27 28  1  0
 28 29  2  0
 29 30  1  0
 30 31  2  0
 31 32  1  0
 31 33  1  0
 33 34  2  0
 23 35  1  0
 35 36  1  0
 20 37  1  0
 37 38  2  0
 37 39  1  0
 39  4  1  0
 12  7  1  0
 36 20  1  0
 34 28  1  0
  1 40  1  0
  1 41  1  0
  1 42  1  0
  2 43  1  0
  3 44  1  0
  3 45  1  0
  3 46  1  0
  4 47  1  0
  5 48  1  0
  5 49  1  0
  8 50  1  0
  9 51  1  0
 10 52  1  0
 11 53  1  0
 15 54  1  0
 16 55  1  0
 16 56  1  0
 17 57  1  0
 18 58  1  0
 19 59  1  0
 19 60  1  0
 21 61  1  0
 21 62  1  0
 22 63  1  0
 22 64  1  0
 24 65  1  0
 24 66  1  0
 27 67  1  0
 29 68  1  0
 30 69  1  0
 33 70  1  0
 34 71  1  0
 35 72  1  0
 35 73  1  0
 36 74  1  0
 36 75  1  0
 39 76  1  0
M  END
$$$$
