
     RDKit          3D

 78 81  0  0  0  0  0  0  0  0999 V2000
   -5.9835    3.0048    0.6097 C   0  0  0  0  0  0  0  0  0  0  0  0
   -5.2526    1.7256    0.1856 C   0  0  0  0  0  0  0  0  0  0  0  0
   -4.6861    1.0668    1.3694 N   0  0  0  0  0  0  0  0  0  0  0  0
   -3.4285    1.4108    1.9763 C   0  0  0  0  0  0  0  0  0  0  0  0
   -3.1836    0.9914    3.1425 O   0  0  0  0  0  0  0  0  0  0  0  0
   -2.3730    2.2179    1.2636 C   0  0  0  0  0  0  0  0  0  0  0  0
   -1.6801    1.4100    0.1533 C   0  0  0  0  0  0  0  0  0  0  0  0
   -0.8873    0.1882    0.6638 C   0  0  0  0  0  0  0  0  0  0  0  0
    0.3946    0.5229    1.3944 C   0  0  0  0  0  0  0  0  0  0  0  0
    0.9152   -0.3702    2.1164 O   0  0  0  0  0  0  0  0  0  0  0  0
    1.0757    1.7797    1.2288 N   0  0  0  0  0  0  0  0  0  0  0  0
    2.5141    1.9105    1.4434 C   0  0  0  0  0  0  0  0  0  0  0  0
    3.2745    1.1434    0.3930 C   0  0  0  0  0  0  0  0  0  0  0  0
    2.9800    1.3260   -0.9685 C   0  0  0  0  0  0  0  0  0  0  0  0
    3.7050    0.6389   -1.9445 C   0  0  0  0  0  0  0  0  0  0  0  0
    4.7382   -0.2247   -1.5748 C   0  0  0  0  0  0  0  0  0  0  0  0
    5.0460   -0.4183   -0.2193 C   0  0  0  0  0  0  0  0  0  0  0  0
    6.1965   -1.3074    0.1704 C   0  0  0  0  0  0  0  0  0  0  0  0
    7.4613   -0.5855    0.0252 N   0  0  0  0  0  0  0  0  0  0  0  0
    8.4371   -0.8313   -1.0205 C   0  0  0  0  0  0  0  0  0  0  0  0
    9.5830    0.1759   -0.7826 C   0  0  0  0  0  0  0  0  0  0  0  0
    9.2222    1.0026    0.4626 C   0  0  0  0  0  0  0  0  0  0  0  0
    7.9185    0.4487    0.8748 C   0  0  0  0  0  0  0  0  0  0  0  0
    7.2759    0.8476    1.8829 O   0  0  0  0  0  0  0  0  0  0  0  0
    4.3148    0.2742    0.7614 C   0  0  0  0  0  0  0  0  0  0  0  0
   -0.5727   -0.6768   -0.4772 N   0  0  0  0  0  0  0  0  0  0  0  0
   -0.9789   -2.0523   -0.5941 C   0  0  0  0  0  0  0  0  0  0  0  0
   -0.4260   -2.7778   -1.4630 O   0  0  0  0  0  0  0  0  0  0  0  0
   -2.0059   -2.6556    0.2826 C   0  0  0  0  0  0  0  0  0  0  0  0
   -1.6541   -3.7673    1.0676 C   0  0  0  0  0  0  0  0  0  0  0  0
   -2.5790   -4.3330    1.9498 C   0  0  0  0  0  0  0  0  0  0  0  0
   -3.8654   -3.7970    2.0524 C   0  0  0  0  0  0  0  0  0  0  0  0
   -4.2337   -2.7047    1.2632 C   0  0  0  0  0  0  0  0  0  0  0  0
   -3.3222   -2.1420    0.3606 C   0  0  0  0  0  0  0  0  0  0  0  0
   -3.7527   -1.0784   -0.4378 O   0  0  0  0  0  0  0  0  0  0  0  0
   -3.9670   -1.2195   -1.8365 C   0  0  0  0  0  0  0  0  0  0  0  0
   -4.6232    0.0412   -2.4031 C   0  0  0  0  0  0  0  0  0  0  0  0
   -5.9721    0.2419   -1.8415 N   0  0  0  0  0  0  0  0  0  0  0  0
   -7.1348   -0.2051   -2.6189 C   0  0  0  0  0  0  0  0  0  0  0  0
   -6.2125    0.7810   -0.5169 C   0  0  0  0  0  0  0  0  0  0  0  0
   -7.2808    0.4705    0.0835 O   0  0  0  0  0  0  0  0  0  0  0  0
   -5.2702    3.7168    1.0729 H   0  0  0  0  0  0  0  0  0  0  0  0
   -6.4427    3.4959   -0.2730 H   0  0  0  0  0  0  0  0  0  0  0  0
   -6.7781    2.7779    1.3504 H   0  0  0  0  0  0  0  0  0  0  0  0
   -4.4534    2.0431   -0.5017 H   0  0  0  0  0  0  0  0  0  0  0  0
   -5.3178    0.4472    1.9280 H   0  0  0  0  0  0  0  0  0  0  0  0
   -2.8322    3.1292    0.8261 H   0  0  0  0  0  0  0  0  0  0  0  0
   -1.6148    2.5720    1.9949 H   0  0  0  0  0  0  0  0  0  0  0  0
   -1.0341    2.0758   -0.4572 H   0  0  0  0  0  0  0  0  0  0  0  0
   -2.4467    1.0514   -0.5508 H   0  0  0  0  0  0  0  0  0  0  0  0
   -1.5260   -0.3642    1.3832 H   0  0  0  0  0  0  0  0  0  0  0  0
    0.5659    2.6342    0.9196 H   0  0  0  0  0  0  0  0  0  0  0  0
    2.8018    2.9809    1.3705 H   0  0  0  0  0  0  0  0  0  0  0  0
    2.7655    1.5666    2.4696 H   0  0  0  0  0  0  0  0  0  0  0  0
    2.1911    2.0027   -1.2746 H   0  0  0  0  0  0  0  0  0  0  0  0
    3.4722    0.7861   -2.9905 H   0  0  0  0  0  0  0  0  0  0  0  0
    5.3033   -0.7352   -2.3450 H   0  0  0  0  0  0  0  0  0  0  0  0
    6.0882   -1.6657    1.2175 H   0  0  0  0  0  0  0  0  0  0  0  0
    6.1993   -2.2094   -0.4820 H   0  0  0  0  0  0  0  0  0  0  0  0
    8.8107   -1.8768   -0.9486 H   0  0  0  0  0  0  0  0  0  0  0  0
    7.9742   -0.6650   -2.0172 H   0  0  0  0  0  0  0  0  0  0  0  0
   10.5403   -0.3666   -0.6199 H   0  0  0  0  0  0  0  0  0  0  0  0
    9.6970    0.8462   -1.6633 H   0  0  0  0  0  0  0  0  0  0  0  0
    9.1173    2.0804    0.2124 H   0  0  0  0  0  0  0  0  0  0  0  0
    9.9724    0.8580    1.2716 H   0  0  0  0  0  0  0  0  0  0  0  0
    4.5604    0.1424    1.8087 H   0  0  0  0  0  0  0  0  0  0  0  0
    0.0581   -0.2925   -1.2178 H   0  0  0  0  0  0  0  0  0  0  0  0
   -0.6548   -4.1824    1.0121 H   0  0  0  0  0  0  0  0  0  0  0  0
   -2.2972   -5.1823    2.5599 H   0  0  0  0  0  0  0  0  0  0  0  0
   -4.5803   -4.2346    2.7372 H   0  0  0  0  0  0  0  0  0  0  0  0
   -5.2383   -2.3047    1.3355 H   0  0  0  0  0  0  0  0  0  0  0  0
   -2.9983   -1.3874   -2.3521 H   0  0  0  0  0  0  0  0  0  0  0  0
   -4.6273   -2.0940   -2.0275 H   0  0  0  0  0  0  0  0  0  0  0  0
   -3.9821    0.9288   -2.2567 H   0  0  0  0  0  0  0  0  0  0  0  0
   -4.6825   -0.0776   -3.5065 H   0  0  0  0  0  0  0  0  0  0  0  0
   -7.6901   -0.9864   -2.0557 H   0  0  0  0  0  0  0  0  0  0  0  0
   -7.8100    0.6571   -2.8110 H   0  0  0  0  0  0  0  0  0  0  0  0
   -6.8375   -0.6414   -3.5971 H   0  0  0  0  0  0  0  0  0  0  0  0
  1  2  1  0
  2  3  1  0
  3  4  1  0
  4  5  2  0
  4  6  1  0
  6  7  1  0
  7  8  1  0
  8  9  1  0
  9 10  2  0
  9 11  1  0
 11 12  1  0
 12 13  1  0
 13 14  2  0
 14 15  1  0
 15 16  2  0
 16 17  1  0
 17 18  1  0
 18 19  1  0
 19 20  1  0
 20 21  1  0
 21 22  1  0
 22 23  1  0
 23 24  2  0
 17 25  2  0
  8 26  1  0
 26 27  1  0
 27 28  2  0
 27 29  1  0
 29 30  2  0
 30 31  1  0
 31 32  2  0
 32 33  1  0
 33 34  2  0
 34 35  1  0
 35 36  1  0
 36 37  1  0
 37 38  1  0
 38 39  1  0
 38 40  1  0
 40 41  2  0
 40  2  1  0
 25 13  1  0
 34 29  1  0
 23 19  1  0
  1 42  1  0
  1 43  1  0
  1 44  1  0
  2 45  1  0
  3 46  1  0
  6 47  1  0
  6 48  1  0
  7 49  1  0
  7 50  1  0
  8 51  1  0
 11 52  1  0
 12 53  1  0
 12 54  1  0
 14 55  1  0
 15 56  1  0
 16 57  1  0
 18 58  1  0
 18 59  1  0
 20 60  1  0
 20 61  1  0
 21 62  1  0
 21 63  1  0
 22 64  1  0
 22 65  1  0
 25 66  1  0
 26 67  1  0
 30 68  1  0
 31 69  1  0
 32 70  1  0
 33 71  1  0
 36 72  1  0
 36 73  1  0
 37 74  1  0
 37 75  1  0
 39 76  1  0
 39 77  1  0
 39 78  1  0
M  END
$$$$
