
     RDKit          3D

 67 69  0  0  0  0  0  0  0  0999 V2000
   -2.2619    2.9555   -2.7217 C   0  0  0  0  0  0  0  0  0  0  0  0
   -2.8232    2.0936   -1.5842 C   0  0  0  0  0  0  0  0  0  0  0  0
   -1.7196    1.5797   -0.7690 N   0  0  0  0  0  0  0  0  0  0  0  0
   -1.0945    0.3147   -1.0351 C   0  0  0  0  0  0  0  0  0  0  0  0
   -1.5665   -0.4513   -1.9225 O   0  0  0  0  0  0  0  0  0  0  0  0
    0.1825   -0.0660   -0.3360 C   0  0  0  0  0  0  0  0  0  0  0  0
    0.1312   -1.4991    0.2338 C   0  0  0  0  0  0  0  0  0  0  0  0
    1.5238   -2.0678    0.3437 C   0  0  0  0  0  0  0  0  0  0  0  0
    1.8418   -3.0511   -0.3768 O   0  0  0  0  0  0  0  0  0  0  0  0
    2.4890   -1.4816    1.2314 N   0  0  0  0  0  0  0  0  0  0  0  0
    3.8138   -2.0592    1.4606 C   0  0  0  0  0  0  0  0  0  0  0  0
    4.9113   -1.0401    1.1418 C   0  0  0  0  0  0  0  0  0  0  0  0
    4.9312   -0.6654   -0.3425 C   0  0  0  0  0  0  0  0  0  0  0  0
    6.0499    0.2320   -0.6130 N   0  0  0  0  0  0  0  0  0  0  0  0
    7.3163   -0.1441   -0.8791 C   0  0  0  0  0  0  0  0  0  0  0  0
    8.0873    0.9897   -1.0158 C   0  0  0  0  0  0  0  0  0  0  0  0
    7.2054    2.0335   -0.7968 C   0  0  0  0  0  0  0  0  0  0  0  0
    7.5423    3.4877   -0.8657 C   0  0  0  0  0  0  0  0  0  0  0  0
    8.6937    3.7362   -0.1395 F   0  0  0  0  0  0  0  0  0  0  0  0
    7.7461    3.8498   -2.1843 F   0  0  0  0  0  0  0  0  0  0  0  0
    6.5070    4.2412   -0.3418 F   0  0  0  0  0  0  0  0  0  0  0  0
    5.9691    1.5514   -0.5564 N   0  0  0  0  0  0  0  0  0  0  0  0
   -0.5134   -1.5155    1.5560 N   0  0  0  0  0  0  0  0  0  0  0  0
   -1.8963   -1.8209    1.8189 C   0  0  0  0  0  0  0  0  0  0  0  0
   -2.3747   -1.5121    2.9425 O   0  0  0  0  0  0  0  0  0  0  0  0
   -2.7750   -2.5142    0.8485 C   0  0  0  0  0  0  0  0  0  0  0  0
   -2.3233   -3.6753    0.1967 C   0  0  0  0  0  0  0  0  0  0  0  0
   -3.1613   -4.3707   -0.6780 C   0  0  0  0  0  0  0  0  0  0  0  0
   -4.4732   -3.9410   -0.8798 C   0  0  0  0  0  0  0  0  0  0  0  0
   -4.9599   -2.8319   -0.1850 C   0  0  0  0  0  0  0  0  0  0  0  0
   -4.1256   -2.1188    0.6839 C   0  0  0  0  0  0  0  0  0  0  0  0
   -4.6754   -1.0587    1.4132 O   0  0  0  0  0  0  0  0  0  0  0  0
   -4.3468    0.3075    1.1695 C   0  0  0  0  0  0  0  0  0  0  0  0
   -5.1625    0.8420   -0.0069 C   0  0  0  0  0  0  0  0  0  0  0  0
   -4.9759    2.2966   -0.1476 N   0  0  0  0  0  0  0  0  0  0  0  0
   -5.9907    3.2000    0.4109 C   0  0  0  0  0  0  0  0  0  0  0  0
   -3.7784    2.8813   -0.7152 C   0  0  0  0  0  0  0  0  0  0  0  0
   -3.4989    4.0845   -0.4527 O   0  0  0  0  0  0  0  0  0  0  0  0
   -1.6235    2.3337   -3.3847 H   0  0  0  0  0  0  0  0  0  0  0  0
   -1.6457    3.7887   -2.3194 H   0  0  0  0  0  0  0  0  0  0  0  0
   -3.0908    3.3789   -3.3294 H   0  0  0  0  0  0  0  0  0  0  0  0
   -3.3665    1.2600   -2.0702 H   0  0  0  0  0  0  0  0  0  0  0  0
   -1.2643    2.2304   -0.0873 H   0  0  0  0  0  0  0  0  0  0  0  0
    0.4109    0.6550    0.4791 H   0  0  0  0  0  0  0  0  0  0  0  0
    0.9997    0.0177   -1.0875 H   0  0  0  0  0  0  0  0  0  0  0  0
   -0.4180   -2.1393   -0.4799 H   0  0  0  0  0  0  0  0  0  0  0  0
    2.2248   -0.6421    1.7900 H   0  0  0  0  0  0  0  0  0  0  0  0
    3.9689   -2.9772    0.8546 H   0  0  0  0  0  0  0  0  0  0  0  0
    3.8945   -2.3510    2.5295 H   0  0  0  0  0  0  0  0  0  0  0  0
    5.8925   -1.4824    1.4169 H   0  0  0  0  0  0  0  0  0  0  0  0
    4.7632   -0.1264    1.7561 H   0  0  0  0  0  0  0  0  0  0  0  0
    5.0294   -1.5812   -0.9661 H   0  0  0  0  0  0  0  0  0  0  0  0
    3.9801   -0.1615   -0.6188 H   0  0  0  0  0  0  0  0  0  0  0  0
    7.6578   -1.1675   -0.9632 H   0  0  0  0  0  0  0  0  0  0  0  0
    9.1438    1.0458   -1.2445 H   0  0  0  0  0  0  0  0  0  0  0  0
    0.0136   -1.0848    2.3498 H   0  0  0  0  0  0  0  0  0  0  0  0
   -1.3369   -4.0666    0.3972 H   0  0  0  0  0  0  0  0  0  0  0  0
   -2.8004   -5.2579   -1.1812 H   0  0  0  0  0  0  0  0  0  0  0  0
   -5.1240   -4.4865   -1.5502 H   0  0  0  0  0  0  0  0  0  0  0  0
   -5.9917   -2.5282   -0.3171 H   0  0  0  0  0  0  0  0  0  0  0  0
   -4.5929    0.8951    2.0786 H   0  0  0  0  0  0  0  0  0  0  0  0
   -3.2623    0.4180    0.9759 H   0  0  0  0  0  0  0  0  0  0  0  0
   -4.9034    0.3043   -0.9388 H   0  0  0  0  0  0  0  0  0  0  0  0
   -6.2340    0.6055    0.1757 H   0  0  0  0  0  0  0  0  0  0  0  0
   -5.5408    3.8233    1.2131 H   0  0  0  0  0  0  0  0  0  0  0  0
   -6.8430    2.6429    0.8554 H   0  0  0  0  0  0  0  0  0  0  0  0
   -6.3858    3.8611   -0.3900 H   0  0  0  0  0  0  0  0  0  0  0  0
  1  2  1  0
  2  3  1  0
  3  4  1  0
  4  5  2  0
  4  6  1  0
  6  7  1  0
  7  8  1  0
  8  9  2  0
  8 10  1  0
 10 11  1  0
 11 12  1  0
 12 13  1  0
 13 14  1  0
 14 15  1  0
 15 16  2  0
 16 17  1  0
 17 18  1  0
 18 19  1  0
 18 20  1  0
 18 21  1  0
 17 22  2  0
  7 23  1  0
 23 24  1  0
 24 25  2  0
 24 26  1  0
 26 27  2  0
 27 28  1  0
 28 29  2  0
 29 30  1  0
 30 31  2  0
 31 32  1  0
 32 33  1  0
 33 34  1  0
 34 35  1  0
 35 36  1  0
 35 37  1  0
 37 38  2  0
 37  2  1  0
 22 14  1  0
 31 26  1  0
  1 39  1  0
  1 40  1  0
  1 41  1  0
  2 42  1  0
  3 43  1  0
  6 44  1  0
  6 45  1  0
  7 46  1  0
 10 47  1  0
 11 48  1  0
 11 49  1  0
 12 50  1  0
 12 51  1  0
 13 52  1  0
 13 53  1  0
 15 54  1  0
 16 55  1  0
 23 56  1  0
 27 57  1  0
 28 58  1  0
 29 59  1  0
 30 60  1  0
 33 61  1  0
 33 62  1  0
 34 63  1  0
 34 64  1  0
 36 65  1  0
 36 66  1  0
 36 67  1  0
M  END
$$$$
