
     RDKit          3D

 64 67  0  0  0  0  0  0  0  0999 V2000
   -3.3905   -0.1997   -2.7421 C   0  0  0  0  0  0  0  0  0  0  0  0
   -3.2855   -0.6496   -1.3470 N   0  0  0  0  0  0  0  0  0  0  0  0
   -2.9593   -2.0623   -1.0784 C   0  0  0  0  0  0  0  0  0  0  0  0
   -1.5401   -2.4535   -1.5457 C   0  0  0  0  0  0  0  0  0  0  0  0
   -0.4206   -1.8420   -0.6860 C   0  0  0  0  0  0  0  0  0  0  0  0
    0.1890   -0.5751   -1.3037 C   0  0  0  0  0  0  0  0  0  0  0  0
    0.9138    0.1809   -0.2575 N   0  0  0  0  0  0  0  0  0  0  0  0
    2.6445    0.1695   -0.5181 S   0  0  0  0  0  6  0  0  0  0  0  0
    2.9689    0.7440   -1.8704 O   0  0  0  0  0  0  0  0  0  0  0  0
    3.3190    0.9971    0.5446 O   0  0  0  0  0  0  0  0  0  0  0  0
    3.2657   -1.5066   -0.4452 C   0  0  0  0  0  0  0  0  0  0  0  0
    4.7088   -1.5182   -0.0035 C   0  0  0  0  0  0  0  0  0  0  0  0
    5.7011   -1.0997   -0.9114 C   0  0  0  0  0  0  0  0  0  0  0  0
    7.0426   -1.0465   -0.5258 C   0  0  0  0  0  0  0  0  0  0  0  0
    7.4129   -1.4256    0.7656 C   0  0  0  0  0  0  0  0  0  0  0  0
    6.4402   -1.8433    1.6777 C   0  0  0  0  0  0  0  0  0  0  0  0
    5.0897   -1.8817    1.3083 C   0  0  0  0  0  0  0  0  0  0  0  0
    3.9174   -2.4070    2.5174 Cl  0  0  0  0  0  0  0  0  0  0  0  0
    0.4045    1.5498    0.0295 C   0  0  0  0  0  0  0  0  0  0  0  0
    0.6418    2.5572   -1.1344 C   0  0  0  0  0  0  0  0  0  0  0  0
   -0.3527    3.7377   -1.1298 C   0  0  0  0  0  0  0  0  0  0  0  0
   -0.7916    4.0975    0.2978 C   0  0  0  0  0  0  0  0  0  0  0  0
   -1.5093    2.9226    0.9974 C   0  0  0  0  0  0  0  0  0  0  0  0
   -1.0838    1.5416    0.4494 C   0  0  0  0  0  0  0  0  0  0  0  0
   -1.2982    0.5245    1.4313 O   0  0  0  0  0  0  0  0  0  0  0  0
   -2.5289    0.0292    1.9025 C   0  0  0  0  0  0  0  0  0  0  0  0
   -2.5516   -0.3984    3.2369 C   0  0  0  0  0  0  0  0  0  0  0  0
   -3.7194   -0.8997    3.8122 C   0  0  0  0  0  0  0  0  0  0  0  0
   -4.8863   -0.9895    3.0573 C   0  0  0  0  0  0  0  0  0  0  0  0
   -4.8836   -0.5927    1.7209 C   0  0  0  0  0  0  0  0  0  0  0  0
   -3.7122   -0.1017    1.1202 C   0  0  0  0  0  0  0  0  0  0  0  0
   -3.7903    0.2312   -0.3121 C   0  0  0  0  0  0  0  0  0  0  0  0
   -4.3389    1.3223   -0.6303 O   0  0  0  0  0  0  0  0  0  0  0  0
   -2.7206    0.6713   -2.9076 H   0  0  0  0  0  0  0  0  0  0  0  0
   -4.4366    0.0982   -2.9668 H   0  0  0  0  0  0  0  0  0  0  0  0
   -3.1151   -1.0023   -3.4558 H   0  0  0  0  0  0  0  0  0  0  0  0
   -3.0721   -2.3148   -0.0027 H   0  0  0  0  0  0  0  0  0  0  0  0
   -3.6938   -2.7004   -1.6203 H   0  0  0  0  0  0  0  0  0  0  0  0
   -1.4668   -3.5611   -1.4612 H   0  0  0  0  0  0  0  0  0  0  0  0
   -1.3875   -2.2183   -2.6209 H   0  0  0  0  0  0  0  0  0  0  0  0
   -0.7982   -1.6420    0.3339 H   0  0  0  0  0  0  0  0  0  0  0  0
    0.3881   -2.5893   -0.5682 H   0  0  0  0  0  0  0  0  0  0  0  0
   -0.5993    0.0304   -1.7847 H   0  0  0  0  0  0  0  0  0  0  0  0
    0.8585   -0.8803   -2.1341 H   0  0  0  0  0  0  0  0  0  0  0  0
    2.6242   -2.1020    0.2318 H   0  0  0  0  0  0  0  0  0  0  0  0
    3.1816   -1.9662   -1.4530 H   0  0  0  0  0  0  0  0  0  0  0  0
    5.4328   -0.8173   -1.9206 H   0  0  0  0  0  0  0  0  0  0  0  0
    7.7981   -0.7240   -1.2323 H   0  0  0  0  0  0  0  0  0  0  0  0
    8.4549   -1.3978    1.0576 H   0  0  0  0  0  0  0  0  0  0  0  0
    6.7399   -2.1447    2.6744 H   0  0  0  0  0  0  0  0  0  0  0  0
    0.9629    1.9287    0.9153 H   0  0  0  0  0  0  0  0  0  0  0  0
    0.5765    2.0485   -2.1196 H   0  0  0  0  0  0  0  0  0  0  0  0
    1.6706    2.9665   -1.0458 H   0  0  0  0  0  0  0  0  0  0  0  0
   -1.2502    3.4694   -1.7324 H   0  0  0  0  0  0  0  0  0  0  0  0
    0.1191    4.6233   -1.6082 H   0  0  0  0  0  0  0  0  0  0  0  0
    0.1099    4.3789    0.8859 H   0  0  0  0  0  0  0  0  0  0  0  0
   -1.4630    4.9833    0.2730 H   0  0  0  0  0  0  0  0  0  0  0  0
   -1.2951    2.9730    2.0874 H   0  0  0  0  0  0  0  0  0  0  0  0
   -2.6078    3.0350    0.8721 H   0  0  0  0  0  0  0  0  0  0  0  0
   -1.6668    1.3507   -0.4605 H   0  0  0  0  0  0  0  0  0  0  0  0
   -1.6552   -0.3285    3.8405 H   0  0  0  0  0  0  0  0  0  0  0  0
   -3.7166   -1.2175    4.8456 H   0  0  0  0  0  0  0  0  0  0  0  0
   -5.7935   -1.3776    3.5057 H   0  0  0  0  0  0  0  0  0  0  0  0
   -5.7960   -0.6853    1.1436 H   0  0  0  0  0  0  0  0  0  0  0  0
  1  2  1  0
  2  3  1  0
  3  4  1  0
  4  5  1  0
  5  6  1  0
  6  7  1  0
  7  8  1  0
  8  9  2  0
  8 10  2  0
  8 11  1  0
 11 12  1  0
 12 13  2  0
 13 14  1  0
 14 15  2  0
 15 16  1  0
 16 17  2  0
 17 18  1  0
  7 19  1  0
 19 20  1  0
 20 21  1  0
 21 22  1  0
 22 23  1  0
 23 24  1  0
 24 25  1  0
 25 26  1  0
 26 27  2  0
 27 28  1  0
 28 29  2  0
 29 30  1  0
 30 31  2  0
 31 32  1  0
 32 33  2  0
 32  2  1  0
 17 12  1  0
 24 19  1  0
 31 26  1  0
  1 34  1  0
  1 35  1  0
  1 36  1  0
  3 37  1  0
  3 38  1  0
  4 39  1  0
  4 40  1  0
  5 41  1  0
  5 42  1  0
  6 43  1  0
  6 44  1  0
 11 45  1  0
 11 46  1  0
 13 47  1  0
 14 48  1  0
 15 49  1  0
 16 50  1  0
 19 51  1  0
 20 52  1  0
 20 53  1  0
 21 54  1  0
 21 55  1  0
 22 56  1  0
 22 57  1  0
 23 58  1  0
 23 59  1  0
 24 60  1  0
 27 61  1  0
 28 62  1  0
 29 63  1  0
 30 64  1  0
M  END
$$$$
