
     RDKit          3D

 73 76  0  0  0  0  0  0  0  0999 V2000
   -4.2460    5.2582   -0.8606 C   0  0  0  0  0  0  0  0  0  0  0  0
   -4.1576    3.8290   -0.5874 N   0  0  0  0  0  0  0  0  0  0  0  0
   -2.8914    3.1822   -0.3711 C   0  0  0  0  0  0  0  0  0  0  0  0
   -1.8348    3.8636   -0.4877 O   0  0  0  0  0  0  0  0  0  0  0  0
   -2.8088    1.6817   -0.0696 C   0  0  0  0  0  0  0  0  0  0  0  0
   -1.3248    1.2547    0.2154 C   0  0  0  0  0  0  0  0  0  0  0  0
   -0.7332    1.7788    1.5374 C   0  0  0  0  0  0  0  0  0  0  0  0
    0.7757    1.5040    1.6457 C   0  0  0  0  0  0  0  0  0  0  0  0
    1.1303    0.0101    1.8318 C   0  0  0  0  0  0  0  0  0  0  0  0
    1.2923   -0.7035    0.5424 N   0  0  0  0  0  0  0  0  0  0  0  0
    2.2794   -0.2476   -0.4089 C   0  0  0  0  0  0  0  0  0  0  0  0
    2.0219   -0.3139   -1.6430 O   0  0  0  0  0  0  0  0  0  0  0  0
    3.5973    0.3387    0.0398 C   0  0  0  0  0  0  0  0  0  0  0  0
    4.7384    0.0061   -0.9304 C   0  0  0  0  0  0  0  0  0  0  0  0
    6.0346    0.5947   -0.4394 C   0  0  0  0  0  0  0  0  0  0  0  0
    6.3670    1.9247   -0.7467 C   0  0  0  0  0  0  0  0  0  0  0  0
    7.5484    2.4878   -0.2544 C   0  0  0  0  0  0  0  0  0  0  0  0
    8.4033    1.7305    0.5527 C   0  0  0  0  0  0  0  0  0  0  0  0
    9.8847    2.4398    1.1703 Cl  0  0  0  0  0  0  0  0  0  0  0  0
    8.0735    0.4089    0.8714 C   0  0  0  0  0  0  0  0  0  0  0  0
    6.8919   -0.1567    0.3815 C   0  0  0  0  0  0  0  0  0  0  0  0
    0.5403   -1.9218    0.1588 C   0  0  0  0  0  0  0  0  0  0  0  0
   -0.2900   -2.5637    1.2794 C   0  0  0  0  0  0  0  0  0  0  0  0
   -0.7820   -3.8456    0.8813 O   0  0  0  0  0  0  0  0  0  0  0  0
   -1.6225   -4.0927   -0.2168 C   0  0  0  0  0  0  0  0  0  0  0  0
   -1.2121   -5.0681   -1.1347 C   0  0  0  0  0  0  0  0  0  0  0  0
   -2.0045   -5.3864   -2.2394 C   0  0  0  0  0  0  0  0  0  0  0  0
   -3.2272   -4.7442   -2.4291 C   0  0  0  0  0  0  0  0  0  0  0  0
   -3.6619   -3.7839   -1.5145 C   0  0  0  0  0  0  0  0  0  0  0  0
   -2.8653   -3.4372   -0.4099 C   0  0  0  0  0  0  0  0  0  0  0  0
   -3.4010   -2.4831    0.5796 C   0  0  0  0  0  0  0  0  0  0  0  0
   -3.6677   -2.9153    1.7341 O   0  0  0  0  0  0  0  0  0  0  0  0
   -3.5568   -1.0732    0.2807 N   0  0  0  0  0  0  0  0  0  0  0  0
   -3.3584   -0.6101   -1.1129 C   0  0  0  0  0  0  0  0  0  0  0  0
   -3.3365    0.9178   -1.2997 C   0  0  0  0  0  0  0  0  0  0  0  0
   -3.7422   -0.1735    1.4386 C   0  0  0  0  0  0  0  0  0  0  0  0
   -3.7550    1.3216    1.0969 C   0  0  0  0  0  0  0  0  0  0  0  0
   -3.8307    5.8311   -0.0039 H   0  0  0  0  0  0  0  0  0  0  0  0
   -3.6780    5.5014   -1.7836 H   0  0  0  0  0  0  0  0  0  0  0  0
   -5.3084    5.5503   -1.0075 H   0  0  0  0  0  0  0  0  0  0  0  0
   -5.0466    3.2834   -0.5734 H   0  0  0  0  0  0  0  0  0  0  0  0
   -0.6818    1.5773   -0.6335 H   0  0  0  0  0  0  0  0  0  0  0  0
   -1.2523    0.1565    0.2514 H   0  0  0  0  0  0  0  0  0  0  0  0
   -1.2469    1.3139    2.4048 H   0  0  0  0  0  0  0  0  0  0  0  0
   -0.8878    2.8744    1.6148 H   0  0  0  0  0  0  0  0  0  0  0  0
    1.2975    1.9458    0.7724 H   0  0  0  0  0  0  0  0  0  0  0  0
    1.1469    2.0506    2.5391 H   0  0  0  0  0  0  0  0  0  0  0  0
    0.3683   -0.4512    2.4857 H   0  0  0  0  0  0  0  0  0  0  0  0
    2.0779   -0.0627    2.4045 H   0  0  0  0  0  0  0  0  0  0  0  0
    3.8665   -0.0665    1.0379 H   0  0  0  0  0  0  0  0  0  0  0  0
    3.4930    1.4416    0.1212 H   0  0  0  0  0  0  0  0  0  0  0  0
    4.5097    0.4125   -1.9403 H   0  0  0  0  0  0  0  0  0  0  0  0
    4.8338   -1.0979   -1.0285 H   0  0  0  0  0  0  0  0  0  0  0  0
    5.7099    2.5249   -1.3638 H   0  0  0  0  0  0  0  0  0  0  0  0
    7.7970    3.5131   -0.4981 H   0  0  0  0  0  0  0  0  0  0  0  0
    8.7294   -0.1785    1.5006 H   0  0  0  0  0  0  0  0  0  0  0  0
    6.6439   -1.1778    0.6440 H   0  0  0  0  0  0  0  0  0  0  0  0
    1.2637   -2.6869   -0.1978 H   0  0  0  0  0  0  0  0  0  0  0  0
   -0.1284   -1.6832   -0.6944 H   0  0  0  0  0  0  0  0  0  0  0  0
    0.3583   -2.7228    2.1670 H   0  0  0  0  0  0  0  0  0  0  0  0
   -1.1205   -1.9016    1.5804 H   0  0  0  0  0  0  0  0  0  0  0  0
   -0.2678   -5.5781   -0.9926 H   0  0  0  0  0  0  0  0  0  0  0  0
   -1.6736   -6.1387   -2.9435 H   0  0  0  0  0  0  0  0  0  0  0  0
   -3.8481   -5.0038   -3.2774 H   0  0  0  0  0  0  0  0  0  0  0  0
   -4.6358   -3.3316   -1.6535 H   0  0  0  0  0  0  0  0  0  0  0  0
   -4.1695   -1.0215   -1.7511 H   0  0  0  0  0  0  0  0  0  0  0  0
   -2.3963   -1.0126   -1.4982 H   0  0  0  0  0  0  0  0  0  0  0  0
   -2.7195    1.1649   -2.1931 H   0  0  0  0  0  0  0  0  0  0  0  0
   -4.3737    1.2466   -1.5345 H   0  0  0  0  0  0  0  0  0  0  0  0
   -4.6980   -0.4272    1.9476 H   0  0  0  0  0  0  0  0  0  0  0  0
   -2.9263   -0.3566    2.1706 H   0  0  0  0  0  0  0  0  0  0  0  0
   -4.8033    1.5856    0.8413 H   0  0  0  0  0  0  0  0  0  0  0  0
   -3.5020    1.9128    2.0036 H   0  0  0  0  0  0  0  0  0  0  0  0
  1  2  1  0
  2  3  1  0
  3  4  2  0
  3  5  1  0
  5  6  1  0
  6  7  1  0
  7  8  1  0
  8  9  1  0
  9 10  1  0
 10 11  1  0
 11 12  2  0
 11 13  1  0
 13 14  1  0
 14 15  1  0
 15 16  2  0
 16 17  1  0
 17 18  2  0
 18 19  1  0
 18 20  1  0
 20 21  2  0
 10 22  1  0
 22 23  1  0
 23 24  1  0
 24 25  1  0
 25 26  2  0
 26 27  1  0
 27 28  2  0
 28 29  1  0
 29 30  2  0
 30 31  1  0
 31 32  2  0
 31 33  1  0
 33 34  1  0
 34 35  1  0
 33 36  1  0
 36 37  1  0
 35  5  1  0
 37  5  1  0
 21 15  1  0
 30 25  1  0
  1 38  1  0
  1 39  1  0
  1 40  1  0
  2 41  1  0
  6 42  1  0
  6 43  1  0
  7 44  1  0
  7 45  1  0
  8 46  1  0
  8 47  1  0
  9 48  1  0
  9 49  1  0
 13 50  1  0
 13 51  1  0
 14 52  1  0
 14 53  1  0
 16 54  1  0
 17 55  1  0
 20 56  1  0
 21 57  1  0
 22 58  1  0
 22 59  1  0
 23 60  1  0
 23 61  1  0
 26 62  1  0
 27 63  1  0
 28 64  1  0
 29 65  1  0
 34 66  1  0
 34 67  1  0
 35 68  1  0
 35 69  1  0
 36 70  1  0
 36 71  1  0
 37 72  1  0
 37 73  1  0
M  END
$$$$
