
     RDKit          3D

 63 66  0  0  0  0  0  0  0  0999 V2000
   -4.1001   -0.3755    2.3451 C   0  0  0  0  0  0  0  0  0  0  0  0
   -3.2772   -0.6519    1.1644 N   0  0  0  0  0  0  0  0  0  0  0  0
   -2.2154   -1.6700    1.2678 C   0  0  0  0  0  0  0  0  0  0  0  0
   -1.0127   -1.1331    2.0858 C   0  0  0  0  0  0  0  0  0  0  0  0
    0.3701   -1.3846    1.4480 C   0  0  0  0  0  0  0  0  0  0  0  0
    0.5573   -0.7904    0.0354 C   0  0  0  0  0  0  0  0  0  0  0  0
    1.3239    0.4765    0.0226 N   0  0  0  0  0  0  0  0  0  0  0  0
    2.7623    0.4281   -0.1739 C   0  0  0  0  0  0  0  0  0  0  0  0
    3.4211    1.4945   -0.3119 O   0  0  0  0  0  0  0  0  0  0  0  0
    3.5021   -0.8482   -0.2200 C   0  0  0  0  0  0  0  0  0  0  0  0
    3.8496   -1.4625    0.9921 C   0  0  0  0  0  0  0  0  0  0  0  0
    4.5455   -2.6710    0.9983 C   0  0  0  0  0  0  0  0  0  0  0  0
    4.9107   -3.2719   -0.2051 C   0  0  0  0  0  0  0  0  0  0  0  0
    4.5826   -2.6670   -1.4205 C   0  0  0  0  0  0  0  0  0  0  0  0
    3.8703   -1.4510   -1.4501 C   0  0  0  0  0  0  0  0  0  0  0  0
    3.5318   -0.7973   -2.7762 C   0  0  0  0  0  0  0  0  0  0  0  0
    2.1736   -0.5465   -2.8486 F   0  0  0  0  0  0  0  0  0  0  0  0
    4.2200    0.3966   -2.8909 F   0  0  0  0  0  0  0  0  0  0  0  0
    3.8764   -1.6033   -3.8476 F   0  0  0  0  0  0  0  0  0  0  0  0
    0.6973    1.8124    0.2225 C   0  0  0  0  0  0  0  0  0  0  0  0
    0.9808    2.2873    1.6657 C   0  0  0  0  0  0  0  0  0  0  0  0
    0.4020    3.6798    1.9338 C   0  0  0  0  0  0  0  0  0  0  0  0
   -1.0991    3.7119    1.6420 C   0  0  0  0  0  0  0  0  0  0  0  0
   -1.3730    3.2907    0.1967 C   0  0  0  0  0  0  0  0  0  0  0  0
   -0.8280    1.8812   -0.0890 C   0  0  0  0  0  0  0  0  0  0  0  0
   -1.0838    1.5823   -1.4673 O   0  0  0  0  0  0  0  0  0  0  0  0
   -1.8820    0.5521   -2.0155 C   0  0  0  0  0  0  0  0  0  0  0  0
   -1.5878    0.2006   -3.3406 C   0  0  0  0  0  0  0  0  0  0  0  0
   -2.2235   -0.8754   -3.9606 C   0  0  0  0  0  0  0  0  0  0  0  0
   -3.1728   -1.6196   -3.2653 C   0  0  0  0  0  0  0  0  0  0  0  0
   -3.5114   -1.2719   -1.9582 C   0  0  0  0  0  0  0  0  0  0  0  0
   -2.8957   -0.1812   -1.3213 C   0  0  0  0  0  0  0  0  0  0  0  0
   -3.4294    0.1971    0.0006 C   0  0  0  0  0  0  0  0  0  0  0  0
   -4.0742    1.2765    0.0936 O   0  0  0  0  0  0  0  0  0  0  0  0
   -3.9084    0.6578    2.7042 H   0  0  0  0  0  0  0  0  0  0  0  0
   -5.1739   -0.4823    2.0850 H   0  0  0  0  0  0  0  0  0  0  0  0
   -3.8680   -1.0795    3.1730 H   0  0  0  0  0  0  0  0  0  0  0  0
   -1.9197   -2.0421    0.2680 H   0  0  0  0  0  0  0  0  0  0  0  0
   -2.6247   -2.5688    1.7791 H   0  0  0  0  0  0  0  0  0  0  0  0
   -1.0194   -1.6376    3.0767 H   0  0  0  0  0  0  0  0  0  0  0  0
   -1.1306   -0.0590    2.3217 H   0  0  0  0  0  0  0  0  0  0  0  0
    1.1520   -0.9870    2.1286 H   0  0  0  0  0  0  0  0  0  0  0  0
    0.5231   -2.4849    1.3934 H   0  0  0  0  0  0  0  0  0  0  0  0
    1.0660   -1.5477   -0.5967 H   0  0  0  0  0  0  0  0  0  0  0  0
   -0.3956   -0.6714   -0.4704 H   0  0  0  0  0  0  0  0  0  0  0  0
    3.5859   -1.0008    1.9356 H   0  0  0  0  0  0  0  0  0  0  0  0
    4.8070   -3.1398    1.9383 H   0  0  0  0  0  0  0  0  0  0  0  0
    5.4546   -4.2077   -0.1972 H   0  0  0  0  0  0  0  0  0  0  0  0
    4.8903   -3.1567   -2.3351 H   0  0  0  0  0  0  0  0  0  0  0  0
    1.1786    2.5337   -0.4765 H   0  0  0  0  0  0  0  0  0  0  0  0
    0.5530    1.5668    2.3935 H   0  0  0  0  0  0  0  0  0  0  0  0
    2.0766    2.3241    1.8431 H   0  0  0  0  0  0  0  0  0  0  0  0
    0.5740    3.9498    2.9979 H   0  0  0  0  0  0  0  0  0  0  0  0
    0.9242    4.4307    1.3009 H   0  0  0  0  0  0  0  0  0  0  0  0
   -1.4821    4.7424    1.8028 H   0  0  0  0  0  0  0  0  0  0  0  0
   -1.6350    3.0318    2.3406 H   0  0  0  0  0  0  0  0  0  0  0  0
   -0.9047    4.0226   -0.4981 H   0  0  0  0  0  0  0  0  0  0  0  0
   -2.4677    3.3137    0.0150 H   0  0  0  0  0  0  0  0  0  0  0  0
   -1.3268    1.1860    0.5833 H   0  0  0  0  0  0  0  0  0  0  0  0
   -0.8295    0.7491   -3.8857 H   0  0  0  0  0  0  0  0  0  0  0  0
   -1.9682   -1.1404   -4.9788 H   0  0  0  0  0  0  0  0  0  0  0  0
   -3.6617   -2.4574   -3.7460 H   0  0  0  0  0  0  0  0  0  0  0  0
   -4.2803   -1.8408   -1.4481 H   0  0  0  0  0  0  0  0  0  0  0  0
  1  2  1  0
  2  3  1  0
  3  4  1  0
  4  5  1  0
  5  6  1  0
  6  7  1  0
  7  8  1  0
  8  9  2  0
  8 10  1  0
 10 11  2  0
 11 12  1  0
 12 13  2  0
 13 14  1  0
 14 15  2  0
 15 16  1  0
 16 17  1  0
 16 18  1  0
 16 19  1  0
  7 20  1  0
 20 21  1  0
 21 22  1  0
 22 23  1  0
 23 24  1  0
 24 25  1  0
 25 26  1  0
 26 27  1  0
 27 28  2  0
 28 29  1  0
 29 30  2  0
 30 31  1  0
 31 32  2  0
 32 33  1  0
 33 34  2  0
 33  2  1  0
 15 10  1  0
 25 20  1  0
 32 27  1  0
  1 35  1  0
  1 36  1  0
  1 37  1  0
  3 38  1  0
  3 39  1  0
  4 40  1  0
  4 41  1  0
  5 42  1  0
  5 43  1  0
  6 44  1  0
  6 45  1  0
 11 46  1  0
 12 47  1  0
 13 48  1  0
 14 49  1  0
 20 50  1  0
 21 51  1  0
 21 52  1  0
 22 53  1  0
 22 54  1  0
 23 55  1  0
 23 56  1  0
 24 57  1  0
 24 58  1  0
 25 59  1  0
 28 60  1  0
 29 61  1  0
 30 62  1  0
 31 63  1  0
M  END
$$$$
