
     RDKit          3D

 61 65  0  0  0  0  0  0  0  0999 V2000
    4.0026   -1.8831   -1.8322 O   0  0  0  0  0  0  0  0  0  0  0  0
    3.6576   -1.2414   -0.8041 C   0  0  0  0  0  0  0  0  0  0  0  0
    4.5789   -0.2295   -0.2449 C   0  0  0  0  0  0  0  0  0  0  0  0
    4.5174    0.2346    1.0282 N   0  0  0  0  0  0  0  0  0  0  0  0
    5.5094    1.0987    1.2099 N   0  0  0  0  0  0  0  0  0  0  0  0
    6.2099    1.1880    0.0694 C   0  0  0  0  0  0  0  0  0  0  0  0
    7.3317    1.9711   -0.1926 C   0  0  0  0  0  0  0  0  0  0  0  0
    7.8945    1.8927   -1.4800 C   0  0  0  0  0  0  0  0  0  0  0  0
    7.3269    1.0460   -2.4600 C   0  0  0  0  0  0  0  0  0  0  0  0
    6.1921    0.2676   -2.1620 C   0  0  0  0  0  0  0  0  0  0  0  0
    5.6611    0.3647   -0.8744 C   0  0  0  0  0  0  0  0  0  0  0  0
    2.3934   -1.5396   -0.1799 N   0  0  0  0  0  0  0  0  0  0  0  0
    1.8499   -2.8946   -0.2673 C   0  0  0  0  0  0  0  0  0  0  0  0
    0.5835   -3.0019    0.5805 C   0  0  0  0  0  0  0  0  0  0  0  0
   -0.3607   -2.0171    0.2051 O   0  0  0  0  0  0  0  0  0  0  0  0
    0.1089   -0.6672    0.2906 C   0  0  0  0  0  0  0  0  0  0  0  0
   -0.1678    0.0194   -1.0925 C   0  0  0  0  0  0  0  0  0  0  0  0
   -1.5507   -0.2578   -1.7256 C   0  0  0  0  0  0  0  0  0  0  0  0
   -2.6734    0.6460   -1.1805 C   0  0  0  0  0  0  0  0  0  0  0  0
   -4.0630    0.0065   -1.3773 C   0  0  0  0  0  0  0  0  0  0  0  0
   -5.0963    0.5273   -0.3982 C   0  0  0  0  0  0  0  0  0  0  0  0
   -6.2565    1.1290   -0.9252 C   0  0  0  0  0  0  0  0  0  0  0  0
   -7.2477    1.6355   -0.0835 C   0  0  0  0  0  0  0  0  0  0  0  0
   -7.1000    1.5516    1.2987 C   0  0  0  0  0  0  0  0  0  0  0  0
   -5.9628    0.9571    1.8438 C   0  0  0  0  0  0  0  0  0  0  0  0
   -4.9608    0.4262    1.0199 C   0  0  0  0  0  0  0  0  0  0  0  0
   -3.8380   -0.1138    1.6679 O   0  0  0  0  0  0  0  0  0  0  0  0
   -3.3199   -1.4284    1.4687 C   0  0  0  0  0  0  0  0  0  0  0  0
   -2.1898   -1.7000    2.4630 C   0  0  0  0  0  0  0  0  0  0  0  0
   -1.2346   -0.5874    2.5332 N   0  0  0  0  0  0  0  0  0  0  0  0
   -0.6111    0.0736    1.4141 C   0  0  0  0  0  0  0  0  0  0  0  0
   -0.5187    1.3314    1.4548 O   0  0  0  0  0  0  0  0  0  0  0  0
    1.6423   -0.5347    0.5792 C   0  0  0  0  0  0  0  0  0  0  0  0
    5.6941    1.6104    2.1014 H   0  0  0  0  0  0  0  0  0  0  0  0
    7.7558    2.6171    0.5653 H   0  0  0  0  0  0  0  0  0  0  0  0
    8.7663    2.4861   -1.7216 H   0  0  0  0  0  0  0  0  0  0  0  0
    7.7679    0.9958   -3.4471 H   0  0  0  0  0  0  0  0  0  0  0  0
    5.7533   -0.3742   -2.9134 H   0  0  0  0  0  0  0  0  0  0  0  0
    2.6004   -3.6260    0.1033 H   0  0  0  0  0  0  0  0  0  0  0  0
    1.6062   -3.1289   -1.3265 H   0  0  0  0  0  0  0  0  0  0  0  0
    0.1308   -4.0035    0.4229 H   0  0  0  0  0  0  0  0  0  0  0  0
    0.8252   -2.9152    1.6637 H   0  0  0  0  0  0  0  0  0  0  0  0
    0.5831   -0.3658   -1.8179 H   0  0  0  0  0  0  0  0  0  0  0  0
    0.0033    1.1173   -1.0374 H   0  0  0  0  0  0  0  0  0  0  0  0
   -1.8017   -1.3331   -1.6206 H   0  0  0  0  0  0  0  0  0  0  0  0
   -1.4777   -0.0742   -2.8201 H   0  0  0  0  0  0  0  0  0  0  0  0
   -2.5027    0.8727   -0.1181 H   0  0  0  0  0  0  0  0  0  0  0  0
   -2.6437    1.6261   -1.7056 H   0  0  0  0  0  0  0  0  0  0  0  0
   -4.0451   -1.0991   -1.3034 H   0  0  0  0  0  0  0  0  0  0  0  0
   -4.3746    0.2085   -2.4260 H   0  0  0  0  0  0  0  0  0  0  0  0
   -6.3974    1.2127   -1.9959 H   0  0  0  0  0  0  0  0  0  0  0  0
   -8.1312    2.0985   -0.5055 H   0  0  0  0  0  0  0  0  0  0  0  0
   -7.8670    1.9508    1.9502 H   0  0  0  0  0  0  0  0  0  0  0  0
   -5.8576    0.9048    2.9203 H   0  0  0  0  0  0  0  0  0  0  0  0
   -2.9060   -1.5504    0.4606 H   0  0  0  0  0  0  0  0  0  0  0  0
   -4.1290   -2.1763    1.6124 H   0  0  0  0  0  0  0  0  0  0  0  0
   -1.6702   -2.6456    2.2120 H   0  0  0  0  0  0  0  0  0  0  0  0
   -2.6416   -1.8459    3.4685 H   0  0  0  0  0  0  0  0  0  0  0  0
   -1.1836   -0.0874    3.4495 H   0  0  0  0  0  0  0  0  0  0  0  0
    1.9835    0.4925    0.3205 H   0  0  0  0  0  0  0  0  0  0  0  0
    1.8507   -0.6882    1.6617 H   0  0  0  0  0  0  0  0  0  0  0  0
  1  2  2  0
  2  3  1  0
  3  4  2  0
  4  5  1  0
  5  6  1  0
  6  7  2  0
  7  8  1  0
  8  9  2  0
  9 10  1  0
 10 11  2  0
  2 12  1  0
 12 13  1  0
 13 14  1  0
 14 15  1  0
 15 16  1  0
 16 17  1  0
 17 18  1  0
 18 19  1  0
 19 20  1  0
 20 21  1  0
 21 22  2  0
 22 23  1  0
 23 24  2  0
 24 25  1  0
 25 26  2  0
 26 27  1  0
 27 28  1  0
 28 29  1  0
 29 30  1  0
 30 31  1  0
 31 32  2  0
 16 33  1  0
 11  3  1  0
 33 12  1  0
 11  6  1  0
 31 16  1  0
 26 21  1  0
  5 34  1  0
  7 35  1  0
  8 36  1  0
  9 37  1  0
 10 38  1  0
 13 39  1  0
 13 40  1  0
 14 41  1  0
 14 42  1  0
 17 43  1  0
 17 44  1  0
 18 45  1  0
 18 46  1  0
 19 47  1  0
 19 48  1  0
 20 49  1  0
 20 50  1  0
 22 51  1  0
 23 52  1  0
 24 53  1  0
 25 54  1  0
 28 55  1  0
 28 56  1  0
 29 57  1  0
 29 58  1  0
 30 59  1  0
 33 60  1  0
 33 61  1  0
M  END
$$$$
