
     RDKit          3D

 72 74  0  0  0  0  0  0  0  0999 V2000
   -3.5100   -3.5867   -0.7819 C   0  0  0  0  0  0  0  0  0  0  0  0
   -4.4432   -2.4180   -1.1267 C   0  0  0  0  0  0  0  0  0  0  0  0
   -4.0706   -1.8047   -2.4837 C   0  0  0  0  0  0  0  0  0  0  0  0
   -4.5300   -1.3463   -0.0068 C   0  0  0  0  0  0  0  0  0  0  0  0
   -3.1680   -0.7776    0.4782 C   0  0  0  0  0  0  0  0  0  0  0  0
   -2.5400   -1.6789    1.4601 N   0  0  0  0  0  0  0  0  0  0  0  0
   -1.1317   -1.7188    1.7689 C   0  0  0  0  0  0  0  0  0  0  0  0
   -0.6650   -2.7358    2.3544 O   0  0  0  0  0  0  0  0  0  0  0  0
   -0.1954   -0.5747    1.4736 C   0  0  0  0  0  0  0  0  0  0  0  0
    0.7129   -0.8403    0.2449 C   0  0  0  0  0  0  0  0  0  0  0  0
    1.8599   -1.7645    0.5687 C   0  0  0  0  0  0  0  0  0  0  0  0
    2.5604   -1.5600    1.5972 O   0  0  0  0  0  0  0  0  0  0  0  0
    2.1704   -2.8575   -0.3082 N   0  0  0  0  0  0  0  0  0  0  0  0
    3.3515   -3.7020   -0.1308 C   0  0  0  0  0  0  0  0  0  0  0  0
    4.5183   -3.1899   -0.9838 C   0  0  0  0  0  0  0  0  0  0  0  0
    4.9895   -1.8373   -0.5299 C   0  0  0  0  0  0  0  0  0  0  0  0
    5.8225   -1.7104    0.5916 C   0  0  0  0  0  0  0  0  0  0  0  0
    6.2258   -0.4385    1.0027 C   0  0  0  0  0  0  0  0  0  0  0  0
    5.7847    0.6918    0.3087 C   0  0  0  0  0  0  0  0  0  0  0  0
    4.9391    0.5316   -0.7907 C   0  0  0  0  0  0  0  0  0  0  0  0
    4.5570   -0.7171   -1.1790 N   0  0  0  0  0  0  0  0  0  0  0  0
    1.2241    0.4167   -0.3256 N   0  0  0  0  0  0  0  0  0  0  0  0
    1.6231    1.5276    0.4863 C   0  0  0  0  0  0  0  0  0  0  0  0
    2.4450    1.3149    1.4215 O   0  0  0  0  0  0  0  0  0  0  0  0
    1.0697    2.9087    0.2968 C   0  0  0  0  0  0  0  0  0  0  0  0
    1.5113    3.9076    1.1968 C   0  0  0  0  0  0  0  0  0  0  0  0
    1.0664    5.2267    1.0960 C   0  0  0  0  0  0  0  0  0  0  0  0
    0.1769    5.5889    0.0899 C   0  0  0  0  0  0  0  0  0  0  0  0
   -0.2779    4.6297   -0.8131 C   0  0  0  0  0  0  0  0  0  0  0  0
    0.1349    3.2906   -0.7175 C   0  0  0  0  0  0  0  0  0  0  0  0
   -0.3627    2.4186   -1.6916 O   0  0  0  0  0  0  0  0  0  0  0  0
   -1.4441    1.5001   -1.5080 C   0  0  0  0  0  0  0  0  0  0  0  0
   -2.7026    2.0879   -0.8409 C   0  0  0  0  0  0  0  0  0  0  0  0
   -2.7625    1.7956    0.6052 N   0  0  0  0  0  0  0  0  0  0  0  0
   -2.5942    2.9130    1.5423 C   0  0  0  0  0  0  0  0  0  0  0  0
   -3.3859    0.5843    1.1078 C   0  0  0  0  0  0  0  0  0  0  0  0
   -4.1230    0.6488    2.1326 O   0  0  0  0  0  0  0  0  0  0  0  0
   -3.7866   -4.0241    0.1996 H   0  0  0  0  0  0  0  0  0  0  0  0
   -2.4507   -3.2562   -0.7469 H   0  0  0  0  0  0  0  0  0  0  0  0
   -3.5974   -4.3890   -1.5492 H   0  0  0  0  0  0  0  0  0  0  0  0
   -5.4638   -2.8439   -1.2424 H   0  0  0  0  0  0  0  0  0  0  0  0
   -4.1453   -2.5763   -3.2806 H   0  0  0  0  0  0  0  0  0  0  0  0
   -4.7666   -0.9792   -2.7402 H   0  0  0  0  0  0  0  0  0  0  0  0
   -3.0334   -1.4110   -2.4820 H   0  0  0  0  0  0  0  0  0  0  0  0
   -5.0854   -1.7728    0.8564 H   0  0  0  0  0  0  0  0  0  0  0  0
   -5.1636   -0.5108   -0.3854 H   0  0  0  0  0  0  0  0  0  0  0  0
   -2.5176   -0.7189   -0.3982 H   0  0  0  0  0  0  0  0  0  0  0  0
   -3.1360   -2.3982    1.9279 H   0  0  0  0  0  0  0  0  0  0  0  0
   -0.7718    0.3529    1.3269 H   0  0  0  0  0  0  0  0  0  0  0  0
    0.4256   -0.3817    2.3774 H   0  0  0  0  0  0  0  0  0  0  0  0
    0.0894   -1.3314   -0.5344 H   0  0  0  0  0  0  0  0  0  0  0  0
    1.5619   -3.0323   -1.1368 H   0  0  0  0  0  0  0  0  0  0  0  0
    3.1065   -4.7380   -0.4521 H   0  0  0  0  0  0  0  0  0  0  0  0
    3.6473   -3.7539    0.9420 H   0  0  0  0  0  0  0  0  0  0  0  0
    5.3587   -3.9167   -0.9234 H   0  0  0  0  0  0  0  0  0  0  0  0
    4.2001   -3.1365   -2.0485 H   0  0  0  0  0  0  0  0  0  0  0  0
    6.1647   -2.5853    1.1304 H   0  0  0  0  0  0  0  0  0  0  0  0
    6.8779   -0.3277    1.8610 H   0  0  0  0  0  0  0  0  0  0  0  0
    6.0948    1.6815    0.6234 H   0  0  0  0  0  0  0  0  0  0  0  0
    4.5748    1.3987   -1.3287 H   0  0  0  0  0  0  0  0  0  0  0  0
    1.2765    0.5108   -1.3696 H   0  0  0  0  0  0  0  0  0  0  0  0
    2.2100    3.6767    1.9912 H   0  0  0  0  0  0  0  0  0  0  0  0
    1.4177    5.9711    1.7983 H   0  0  0  0  0  0  0  0  0  0  0  0
   -0.1615    6.6148    0.0110 H   0  0  0  0  0  0  0  0  0  0  0  0
   -0.9680    4.9252   -1.5937 H   0  0  0  0  0  0  0  0  0  0  0  0
   -1.7236    1.1083   -2.5070 H   0  0  0  0  0  0  0  0  0  0  0  0
   -1.0869    0.6516   -0.9433 H   0  0  0  0  0  0  0  0  0  0  0  0
   -2.7417    3.1844   -1.0248 H   0  0  0  0  0  0  0  0  0  0  0  0
   -3.6098    1.6664   -1.3309 H   0  0  0  0  0  0  0  0  0  0  0  0
   -2.4440    2.5435    2.5766 H   0  0  0  0  0  0  0  0  0  0  0  0
   -1.6998    3.5052    1.2827 H   0  0  0  0  0  0  0  0  0  0  0  0
   -3.4890    3.5688    1.5074 H   0  0  0  0  0  0  0  0  0  0  0  0
  1  2  1  0
  2  3  1  0
  2  4  1  0
  4  5  1  0
  5  6  1  0
  6  7  1  0
  7  8  2  0
  7  9  1  0
  9 10  1  0
 10 11  1  0
 11 12  2  0
 11 13  1  0
 13 14  1  0
 14 15  1  0
 15 16  1  0
 16 17  2  0
 17 18  1  0
 18 19  2  0
 19 20  1  0
 20 21  2  0
 10 22  1  0
 22 23  1  0
 23 24  2  0
 23 25  1  0
 25 26  2  0
 26 27  1  0
 27 28  2  0
 28 29  1  0
 29 30  2  0
 30 31  1  0
 31 32  1  0
 32 33  1  0
 33 34  1  0
 34 35  1  0
 34 36  1  0
 36 37  2  0
 36  5  1  0
 21 16  1  0
 30 25  1  0
  1 38  1  0
  1 39  1  0
  1 40  1  0
  2 41  1  0
  3 42  1  0
  3 43  1  0
  3 44  1  0
  4 45  1  0
  4 46  1  0
  5 47  1  0
  6 48  1  0
  9 49  1  0
  9 50  1  0
 10 51  1  0
 13 52  1  0
 14 53  1  0
 14 54  1  0
 15 55  1  0
 15 56  1  0
 17 57  1  0
 18 58  1  0
 19 59  1  0
 20 60  1  0
 22 61  1  0
 26 62  1  0
 27 63  1  0
 28 64  1  0
 29 65  1  0
 32 66  1  0
 32 67  1  0
 33 68  1  0
 33 69  1  0
 35 70  1  0
 35 71  1  0
 35 72  1  0
M  END
$$$$
