
     RDKit          3D

 61 65  0  0  0  0  0  0  0  0999 V2000
    8.2160    1.4764   -0.8785 C   0  0  0  0  0  0  0  0  0  0  0  0
    7.8524    0.4698    0.0147 C   0  0  0  0  0  0  0  0  0  0  0  0
    6.5747    0.0094    0.0320 N   0  0  0  0  0  0  0  0  0  0  0  0
    5.6299    0.5147   -0.8101 C   0  0  0  0  0  0  0  0  0  0  0  0
    4.2798    0.0097   -0.7700 N   0  0  0  0  0  0  0  0  0  0  0  0
    3.2047    0.6731   -1.5224 C   0  0  0  0  0  0  0  0  0  0  0  0
    1.9154    0.6966   -0.6942 C   0  0  0  0  0  0  0  0  0  0  0  0
    1.6150   -0.6197   -0.1070 N   0  0  0  0  0  0  0  0  0  0  0  0
    0.3692   -0.8262    0.5942 C   0  0  0  0  0  0  0  0  0  0  0  0
   -0.0899   -2.0399    0.7453 N   0  0  0  0  0  0  0  0  0  0  0  0
   -1.3132   -2.4341    1.4501 C   0  0  0  0  0  0  0  0  0  0  0  0
   -2.4320   -2.7094    0.4399 C   0  0  0  0  0  0  0  0  0  0  0  0
   -3.7788   -3.0454    1.1111 C   0  0  0  0  0  0  0  0  0  0  0  0
   -4.5079   -1.8489    1.7593 C   0  0  0  0  0  0  0  0  0  0  0  0
   -5.0286   -0.8277    0.7421 C   0  0  0  0  0  0  0  0  0  0  0  0
   -3.9527   -0.0119    0.2961 O   0  0  0  0  0  0  0  0  0  0  0  0
   -3.9773    0.7916   -0.8494 C   0  0  0  0  0  0  0  0  0  0  0  0
   -5.1803    1.1719   -1.4711 C   0  0  0  0  0  0  0  0  0  0  0  0
   -5.1523    1.9246   -2.6489 C   0  0  0  0  0  0  0  0  0  0  0  0
   -3.9301    2.2917   -3.2181 C   0  0  0  0  0  0  0  0  0  0  0  0
   -2.7314    1.9217   -2.6024 C   0  0  0  0  0  0  0  0  0  0  0  0
   -2.7502    1.1938   -1.4076 C   0  0  0  0  0  0  0  0  0  0  0  0
   -1.5403    0.8350   -0.8033 O   0  0  0  0  0  0  0  0  0  0  0  0
   -1.2624    1.0918    0.5446 C   0  0  0  0  0  0  0  0  0  0  0  0
   -1.9074    2.1029    1.1938 N   0  0  0  0  0  0  0  0  0  0  0  0
   -1.6488    2.4065    2.4931 C   0  0  0  0  0  0  0  0  0  0  0  0
   -0.6955    1.6778    3.2032 C   0  0  0  0  0  0  0  0  0  0  0  0
   -0.0219    0.6343    2.5681 C   0  0  0  0  0  0  0  0  0  0  0  0
   -0.3065    0.3258    1.2317 C   0  0  0  0  0  0  0  0  0  0  0  0
    2.5677   -1.7276   -0.2761 C   0  0  0  0  0  0  0  0  0  0  0  0
    3.9993   -1.2350   -0.0374 C   0  0  0  0  0  0  0  0  0  0  0  0
    5.9758    1.4981   -1.6878 N   0  0  0  0  0  0  0  0  0  0  0  0
    7.2430    1.9842   -1.7365 C   0  0  0  0  0  0  0  0  0  0  0  0
    9.2291    1.8558   -0.9063 H   0  0  0  0  0  0  0  0  0  0  0  0
    8.5842    0.0537    0.6945 H   0  0  0  0  0  0  0  0  0  0  0  0
    3.4735    1.7216   -1.7744 H   0  0  0  0  0  0  0  0  0  0  0  0
    3.0305    0.1223   -2.4722 H   0  0  0  0  0  0  0  0  0  0  0  0
    1.0796    1.0127   -1.3538 H   0  0  0  0  0  0  0  0  0  0  0  0
    2.0269    1.4435    0.1217 H   0  0  0  0  0  0  0  0  0  0  0  0
   -1.6169   -1.6707    2.1931 H   0  0  0  0  0  0  0  0  0  0  0  0
   -1.1051   -3.3692    2.0110 H   0  0  0  0  0  0  0  0  0  0  0  0
   -2.1274   -3.5870   -0.1712 H   0  0  0  0  0  0  0  0  0  0  0  0
   -2.5336   -1.8640   -0.2665 H   0  0  0  0  0  0  0  0  0  0  0  0
   -4.4485   -3.5025    0.3501 H   0  0  0  0  0  0  0  0  0  0  0  0
   -3.6091   -3.8203    1.8900 H   0  0  0  0  0  0  0  0  0  0  0  0
   -5.3831   -2.2505    2.3144 H   0  0  0  0  0  0  0  0  0  0  0  0
   -3.8589   -1.3439    2.5049 H   0  0  0  0  0  0  0  0  0  0  0  0
   -5.7942   -0.1833    1.2235 H   0  0  0  0  0  0  0  0  0  0  0  0
   -5.4961   -1.3564   -0.1169 H   0  0  0  0  0  0  0  0  0  0  0  0
   -6.1361    0.8878   -1.0520 H   0  0  0  0  0  0  0  0  0  0  0  0
   -6.0788    2.2164   -3.1259 H   0  0  0  0  0  0  0  0  0  0  0  0
   -3.9127    2.8651   -4.1361 H   0  0  0  0  0  0  0  0  0  0  0  0
   -1.7869    2.2116   -3.0455 H   0  0  0  0  0  0  0  0  0  0  0  0
   -2.1819    3.2164    2.9729 H   0  0  0  0  0  0  0  0  0  0  0  0
   -0.4849    1.9146    4.2376 H   0  0  0  0  0  0  0  0  0  0  0  0
    0.7096    0.0567    3.1198 H   0  0  0  0  0  0  0  0  0  0  0  0
    2.4777   -2.1353   -1.3066 H   0  0  0  0  0  0  0  0  0  0  0  0
    2.3612   -2.5517    0.4416 H   0  0  0  0  0  0  0  0  0  0  0  0
    4.7077   -2.0300   -0.3598 H   0  0  0  0  0  0  0  0  0  0  0  0
    4.1442   -1.0548    1.0507 H   0  0  0  0  0  0  0  0  0  0  0  0
    7.4943    2.7659   -2.4405 H   0  0  0  0  0  0  0  0  0  0  0  0
  1  2  2  0
  2  3  1  0
  3  4  2  0
  4  5  1  0
  5  6  1  0
  6  7  1  0
  7  8  1  0
  8  9  1  0
  9 10  2  0
 10 11  1  0
 11 12  1  0
 12 13  1  0
 13 14  1  0
 14 15  1  0
 15 16  1  0
 16 17  1  0
 17 18  2  0
 18 19  1  0
 19 20  2  0
 20 21  1  0
 21 22  2  0
 22 23  1  0
 23 24  1  0
 24 25  2  0
 25 26  1  0
 26 27  2  0
 27 28  1  0
 28 29  2  0
  8 30  1  0
 30 31  1  0
  4 32  1  0
 32 33  2  0
 33  1  1  0
 31  5  1  0
 29  9  1  0
 22 17  1  0
 29 24  1  0
  1 34  1  0
  2 35  1  0
  6 36  1  0
  6 37  1  0
  7 38  1  0
  7 39  1  0
 11 40  1  0
 11 41  1  0
 12 42  1  0
 12 43  1  0
 13 44  1  0
 13 45  1  0
 14 46  1  0
 14 47  1  0
 15 48  1  0
 15 49  1  0
 18 50  1  0
 19 51  1  0
 20 52  1  0
 21 53  1  0
 26 54  1  0
 27 55  1  0
 28 56  1  0
 30 57  1  0
 30 58  1  0
 31 59  1  0
 31 60  1  0
 33 61  1  0
M  END
$$$$
