
     RDKit          3D

 68 72  0  0  0  0  0  0  0  0999 V2000
   -3.8402    1.8866   -2.9824 O   0  0  0  0  0  0  0  0  0  0  0  0
   -3.2784    1.4172   -1.9596 C   0  0  0  0  0  0  0  0  0  0  0  0
   -3.2927    2.2220   -0.7018 C   0  0  0  0  0  0  0  0  0  0  0  0
   -4.5568    2.5444   -0.1795 C   0  0  0  0  0  0  0  0  0  0  0  0
   -4.6829    3.3123    0.9791 C   0  0  0  0  0  0  0  0  0  0  0  0
   -3.5490    3.7839    1.6316 C   0  0  0  0  0  0  0  0  0  0  0  0
   -2.2827    3.4912    1.1309 C   0  0  0  0  0  0  0  0  0  0  0  0
   -2.1256    2.7096   -0.0336 C   0  0  0  0  0  0  0  0  0  0  0  0
   -0.8375    2.4127   -0.5276 O   0  0  0  0  0  0  0  0  0  0  0  0
    0.4202    2.6810    0.1147 C   0  0  0  0  0  0  0  0  0  0  0  0
    0.7021    1.7843    1.3643 C   0  0  0  0  0  0  0  0  0  0  0  0
    1.6323    0.6500    1.1017 N   0  0  0  0  0  0  0  0  0  0  0  0
    2.8871    0.9664    0.4597 C   0  0  0  0  0  0  0  0  0  0  0  0
    3.4859    2.0344    0.7597 O   0  0  0  0  0  0  0  0  0  0  0  0
    3.5080    0.0400   -0.5125 C   0  0  0  0  0  0  0  0  0  0  0  0
    2.7355   -0.5810   -1.5174 C   0  0  0  0  0  0  0  0  0  0  0  0
    3.3324   -1.4534   -2.4514 C   0  0  0  0  0  0  0  0  0  0  0  0
    4.7128   -1.7064   -2.4116 C   0  0  0  0  0  0  0  0  0  0  0  0
    5.4629   -1.0689   -1.4274 C   0  0  0  0  0  0  0  0  0  0  0  0
    6.7868   -1.1675   -1.2266 N   0  0  0  0  0  0  0  0  0  0  0  0
    7.0607   -0.3800   -0.1629 C   0  0  0  0  0  0  0  0  0  0  0  0
    5.9029    0.2201    0.3170 C   0  0  0  0  0  0  0  0  0  0  0  0
    4.8870   -0.2259   -0.5096 C   0  0  0  0  0  0  0  0  0  0  0  0
    1.7098   -0.4691    2.0795 C   0  0  0  0  0  0  0  0  0  0  0  0
    0.4456   -1.3615    2.1614 C   0  0  0  0  0  0  0  0  0  0  0  0
    0.4227   -2.5344    1.1335 C   0  0  0  0  0  0  0  0  0  0  0  0
   -0.9707   -2.9351    0.5286 C   0  0  0  0  0  0  0  0  0  0  0  0
   -1.9551   -1.7905    0.0709 C   0  0  0  0  0  0  0  0  0  0  0  0
   -2.9026   -1.4663    1.2839 C   0  0  0  0  0  0  0  0  0  0  0  0
   -3.5967   -0.2612    1.1046 O   0  0  0  0  0  0  0  0  0  0  0  0
   -1.1256   -0.5455   -0.4088 C   0  0  0  0  0  0  0  0  0  0  0  0
   -1.3523   -0.1519   -1.8601 C   0  0  0  0  0  0  0  0  0  0  0  0
   -2.7749    0.0685   -2.0080 N   0  0  0  0  0  0  0  0  0  0  0  0
   -3.6546   -1.0903   -1.7791 C   0  0  0  0  0  0  0  0  0  0  0  0
   -2.8880   -2.2731   -1.1005 C   0  0  0  0  0  0  0  0  0  0  0  0
   -5.4570    2.1913   -0.6685 H   0  0  0  0  0  0  0  0  0  0  0  0
   -5.6638    3.5371    1.3752 H   0  0  0  0  0  0  0  0  0  0  0  0
   -3.6518    4.3806    2.5292 H   0  0  0  0  0  0  0  0  0  0  0  0
   -1.4233    3.8635    1.6679 H   0  0  0  0  0  0  0  0  0  0  0  0
    1.2115    2.5491   -0.6505 H   0  0  0  0  0  0  0  0  0  0  0  0
    0.4676    3.7528    0.4006 H   0  0  0  0  0  0  0  0  0  0  0  0
    1.1610    2.4250    2.1491 H   0  0  0  0  0  0  0  0  0  0  0  0
   -0.2533    1.4404    1.7999 H   0  0  0  0  0  0  0  0  0  0  0  0
    1.6856   -0.3563   -1.6160 H   0  0  0  0  0  0  0  0  0  0  0  0
    2.7229   -1.9175   -3.2168 H   0  0  0  0  0  0  0  0  0  0  0  0
    5.1783   -2.3656   -3.1329 H   0  0  0  0  0  0  0  0  0  0  0  0
    7.4676   -1.7357   -1.7767 H   0  0  0  0  0  0  0  0  0  0  0  0
    8.0518   -0.2460    0.2494 H   0  0  0  0  0  0  0  0  0  0  0  0
    5.8243    0.8891    1.1637 H   0  0  0  0  0  0  0  0  0  0  0  0
    2.5838   -1.1246    1.8655 H   0  0  0  0  0  0  0  0  0  0  0  0
    1.8978   -0.0336    3.0849 H   0  0  0  0  0  0  0  0  0  0  0  0
    0.3939   -1.8032    3.1798 H   0  0  0  0  0  0  0  0  0  0  0  0
   -0.4230   -0.7087    2.0919 H   0  0  0  0  0  0  0  0  0  0  0  0
    1.1258   -2.3294    0.2975 H   0  0  0  0  0  0  0  0  0  0  0  0
    0.8491   -3.4345    1.6277 H   0  0  0  0  0  0  0  0  0  0  0  0
   -0.7436   -3.5836   -0.3449 H   0  0  0  0  0  0  0  0  0  0  0  0
   -1.4847   -3.6004    1.2546 H   0  0  0  0  0  0  0  0  0  0  0  0
   -3.6354   -2.2961    1.4156 H   0  0  0  0  0  0  0  0  0  0  0  0
   -2.3668   -1.4266    2.2499 H   0  0  0  0  0  0  0  0  0  0  0  0
   -4.2539   -0.2034    1.8458 H   0  0  0  0  0  0  0  0  0  0  0  0
   -0.0449   -0.6473   -0.3292 H   0  0  0  0  0  0  0  0  0  0  0  0
   -1.3866    0.2863    0.2494 H   0  0  0  0  0  0  0  0  0  0  0  0
   -1.0170   -0.9659   -2.5401 H   0  0  0  0  0  0  0  0  0  0  0  0
   -0.7695    0.7408   -2.1605 H   0  0  0  0  0  0  0  0  0  0  0  0
   -4.0655   -1.4277   -2.7526 H   0  0  0  0  0  0  0  0  0  0  0  0
   -4.5135   -0.7965   -1.1431 H   0  0  0  0  0  0  0  0  0  0  0  0
   -3.6166   -3.0357   -0.7474 H   0  0  0  0  0  0  0  0  0  0  0  0
   -2.2796   -2.7806   -1.8792 H   0  0  0  0  0  0  0  0  0  0  0  0
  1  2  2  0
  2  3  1  0
  3  4  2  0
  4  5  1  0
  5  6  2  0
  6  7  1  0
  7  8  2  0
  8  9  1  0
  9 10  1  0
 10 11  1  0
 11 12  1  0
 12 13  1  0
 13 14  2  0
 13 15  1  0
 15 16  1  0
 16 17  2  0
 17 18  1  0
 18 19  2  0
 19 20  1  0
 20 21  1  0
 21 22  2  0
 22 23  1  0
 12 24  1  0
 24 25  1  0
 25 26  1  0
 26 27  1  0
 27 28  1  0
 28 29  1  0
 29 30  1  0
 28 31  1  0
 31 32  1  0
 32 33  1  0
 33 34  1  0
 34 35  1  0
 33  2  1  0
  8  3  1  0
 23 15  2  0
 35 28  1  0
 23 19  1  0
  4 36  1  0
  5 37  1  0
  6 38  1  0
  7 39  1  0
 10 40  1  0
 10 41  1  0
 11 42  1  0
 11 43  1  0
 16 44  1  0
 17 45  1  0
 18 46  1  0
 20 47  1  0
 21 48  1  0
 22 49  1  0
 24 50  1  0
 24 51  1  0
 25 52  1  0
 25 53  1  0
 26 54  1  0
 26 55  1  0
 27 56  1  0
 27 57  1  0
 29 58  1  0
 29 59  1  0
 30 60  1  0
 31 61  1  0
 31 62  1  0
 32 63  1  0
 32 64  1  0
 34 65  1  0
 34 66  1  0
 35 67  1  0
 35 68  1  0
M  END
$$$$
