
     RDKit          3D

 63 66  0  0  0  0  0  0  0  0999 V2000
    2.0447   -2.8323    1.1391 C   0  0  0  0  0  0  0  0  0  0  0  0
    1.0880   -3.0538   -0.0306 C   0  0  0  0  0  0  0  0  0  0  0  0
    0.8195   -1.8215   -0.8011 N   0  0  0  0  0  0  0  0  0  0  0  0
    1.3380   -1.7625   -2.1826 C   0  0  0  0  0  0  0  0  0  0  0  0
    2.8649   -1.6406   -2.2280 C   0  0  0  0  0  0  0  0  0  0  0  0
    3.2581   -0.3009   -1.9160 O   0  0  0  0  0  0  0  0  0  0  0  0
    3.9343    0.0952   -0.7525 C   0  0  0  0  0  0  0  0  0  0  0  0
    4.8818   -0.7384   -0.1282 C   0  0  0  0  0  0  0  0  0  0  0  0
    5.5017   -0.3410    1.0581 C   0  0  0  0  0  0  0  0  0  0  0  0
    5.2024    0.8981    1.6218 C   0  0  0  0  0  0  0  0  0  0  0  0
    4.3038    1.7560    0.9862 C   0  0  0  0  0  0  0  0  0  0  0  0
    3.6756    1.3722   -0.2115 C   0  0  0  0  0  0  0  0  0  0  0  0
    2.7340    2.3332   -0.9026 C   0  0  0  0  0  0  0  0  0  0  0  0
    1.2538    1.9414   -0.7548 C   0  0  0  0  0  0  0  0  0  0  0  0
    0.7724    1.8964    0.7089 C   0  0  0  0  0  0  0  0  0  0  0  0
    0.6439    0.4647    1.2914 C   0  0  0  0  0  0  0  0  0  0  0  0
   -0.6018   -0.3966    0.8796 C   0  0  0  0  0  0  0  0  0  0  0  0
   -1.8757    0.5166    0.8894 C   0  0  0  0  0  0  0  0  0  0  0  0
   -3.1054   -0.2775    0.9164 N   0  0  0  0  0  0  0  0  0  0  0  0
   -4.3054    0.1472    0.2410 C   0  0  0  0  0  0  0  0  0  0  0  0
   -5.1067   -0.7236   -0.1937 O   0  0  0  0  0  0  0  0  0  0  0  0
   -4.6324    1.5798    0.0709 C   0  0  0  0  0  0  0  0  0  0  0  0
   -3.9622    2.5654    0.6143 O   0  0  0  0  0  0  0  0  0  0  0  0
   -4.5533    3.6841    0.2605 C   0  0  0  0  0  0  0  0  0  0  0  0
   -5.6355    3.4761   -0.5195 N   0  0  0  0  0  0  0  0  0  0  0  0
   -5.6819    2.1358   -0.6401 C   0  0  0  0  0  0  0  0  0  0  0  0
   -6.7345    1.4140   -1.4202 C   0  0  0  0  0  0  0  0  0  0  0  0
   -3.1576   -1.3819    1.8677 C   0  0  0  0  0  0  0  0  0  0  0  0
   -1.8986   -2.2140    1.7045 C   0  0  0  0  0  0  0  0  0  0  0  0
   -0.7348   -1.4175    1.8697 O   0  0  0  0  0  0  0  0  0  0  0  0
   -0.3597   -1.0299   -0.4989 C   0  0  0  0  0  0  0  0  0  0  0  0
   -1.2192   -0.8566   -1.4079 O   0  0  0  0  0  0  0  0  0  0  0  0
    2.2819   -3.8148    1.6043 H   0  0  0  0  0  0  0  0  0  0  0  0
    1.5983   -2.1948    1.9257 H   0  0  0  0  0  0  0  0  0  0  0  0
    2.9898   -2.3766    0.7903 H   0  0  0  0  0  0  0  0  0  0  0  0
    0.1471   -3.5029    0.3388 H   0  0  0  0  0  0  0  0  0  0  0  0
    1.5451   -3.8256   -0.6883 H   0  0  0  0  0  0  0  0  0  0  0  0
    1.0212   -2.6754   -2.7327 H   0  0  0  0  0  0  0  0  0  0  0  0
    0.9126   -0.8942   -2.7338 H   0  0  0  0  0  0  0  0  0  0  0  0
    3.2021   -1.8624   -3.2633 H   0  0  0  0  0  0  0  0  0  0  0  0
    3.3297   -2.3952   -1.5647 H   0  0  0  0  0  0  0  0  0  0  0  0
    5.1567   -1.6920   -0.5581 H   0  0  0  0  0  0  0  0  0  0  0  0
    6.2172   -0.9960    1.5403 H   0  0  0  0  0  0  0  0  0  0  0  0
    5.6784    1.2000    2.5449 H   0  0  0  0  0  0  0  0  0  0  0  0
    4.0987    2.7214    1.4289 H   0  0  0  0  0  0  0  0  0  0  0  0
    2.8766    3.3668   -0.5166 H   0  0  0  0  0  0  0  0  0  0  0  0
    2.9884    2.3710   -1.9835 H   0  0  0  0  0  0  0  0  0  0  0  0
    1.0733    0.9855   -1.2739 H   0  0  0  0  0  0  0  0  0  0  0  0
    0.6494    2.7027   -1.2961 H   0  0  0  0  0  0  0  0  0  0  0  0
   -0.1752    2.4623    0.8074 H   0  0  0  0  0  0  0  0  0  0  0  0
    1.4845    2.4618    1.3484 H   0  0  0  0  0  0  0  0  0  0  0  0
    0.6130    0.5830    2.3973 H   0  0  0  0  0  0  0  0  0  0  0  0
    1.5847   -0.0802    1.0808 H   0  0  0  0  0  0  0  0  0  0  0  0
   -1.8692    1.1599    1.7969 H   0  0  0  0  0  0  0  0  0  0  0  0
   -1.8704    1.1730   -0.0085 H   0  0  0  0  0  0  0  0  0  0  0  0
   -4.2120    4.6647    0.5617 H   0  0  0  0  0  0  0  0  0  0  0  0
   -7.4125    2.1422   -1.9139 H   0  0  0  0  0  0  0  0  0  0  0  0
   -7.3347    0.7750   -0.7388 H   0  0  0  0  0  0  0  0  0  0  0  0
   -6.2590    0.7841   -2.2008 H   0  0  0  0  0  0  0  0  0  0  0  0
   -4.0475   -2.0260    1.6967 H   0  0  0  0  0  0  0  0  0  0  0  0
   -3.2071   -0.9756    2.9013 H   0  0  0  0  0  0  0  0  0  0  0  0
   -1.8940   -3.0094    2.4787 H   0  0  0  0  0  0  0  0  0  0  0  0
   -1.9196   -2.7202    0.7160 H   0  0  0  0  0  0  0  0  0  0  0  0
  1  2  1  0
  2  3  1  0
  3  4  1  0
  4  5  1  0
  5  6  1  0
  6  7  1  0
  7  8  2  0
  8  9  1  0
  9 10  2  0
 10 11  1  0
 11 12  2  0
 12 13  1  0
 13 14  1  0
 14 15  1  0
 15 16  1  0
 16 17  1  0
 17 18  1  0
 18 19  1  0
 19 20  1  0
 20 21  2  0
 20 22  1  0
 22 23  1  0
 23 24  1  0
 24 25  2  0
 25 26  1  0
 26 27  1  0
 19 28  1  0
 28 29  1  0
 29 30  1  0
 17 31  1  0
 31 32  2  0
 31  3  1  0
 12  7  1  0
 30 17  1  0
 26 22  2  0
  1 33  1  0
  1 34  1  0
  1 35  1  0
  2 36  1  0
  2 37  1  0
  4 38  1  0
  4 39  1  0
  5 40  1  0
  5 41  1  0
  8 42  1  0
  9 43  1  0
 10 44  1  0
 11 45  1  0
 13 46  1  0
 13 47  1  0
 14 48  1  0
 14 49  1  0
 15 50  1  0
 15 51  1  0
 16 52  1  0
 16 53  1  0
 18 54  1  0
 18 55  1  0
 24 56  1  0
 27 57  1  0
 27 58  1  0
 27 59  1  0
 28 60  1  0
 28 61  1  0
 29 62  1  0
 29 63  1  0
M  END
$$$$
