
     RDKit          3D

 69 71  0  0  0  0  0  0  0  0999 V2000
    4.1963    0.6453    3.8824 C   0  0  0  0  0  0  0  0  0  0  0  0
    4.0741    1.5043    2.6303 C   0  0  0  0  0  0  0  0  0  0  0  0
    4.2323    0.6815    1.4327 N   0  0  0  0  0  0  0  0  0  0  0  0
    3.2217    0.0714    0.8340 N   0  0  0  0  0  0  0  0  0  0  0  0
    3.7233   -0.6140   -0.2132 C   0  0  0  0  0  0  0  0  0  0  0  0
    2.9105   -1.4221   -1.1392 C   0  0  0  0  0  0  0  0  0  0  0  0
    3.4841   -2.2458   -1.9030 O   0  0  0  0  0  0  0  0  0  0  0  0
    1.4757   -1.3028   -1.1683 N   0  0  0  0  0  0  0  0  0  0  0  0
    0.6819   -2.5229   -1.4155 C   0  0  0  0  0  0  0  0  0  0  0  0
   -0.7262   -2.4332   -0.8132 C   0  0  0  0  0  0  0  0  0  0  0  0
   -1.4936   -3.7520   -0.9477 C   0  0  0  0  0  0  0  0  0  0  0  0
   -2.9218   -3.6224   -0.4055 C   0  0  0  0  0  0  0  0  0  0  0  0
   -3.7190   -2.7258   -1.2490 N   0  0  0  0  0  0  0  0  0  0  0  0
   -4.3746   -1.5367   -0.7768 C   0  0  0  0  0  0  0  0  0  0  0  0
   -5.2022   -0.9501   -1.5238 O   0  0  0  0  0  0  0  0  0  0  0  0
   -4.1287   -0.9996    0.5705 C   0  0  0  0  0  0  0  0  0  0  0  0
   -4.9405   -1.4659    1.6172 C   0  0  0  0  0  0  0  0  0  0  0  0
   -4.6856   -1.0851    2.9373 C   0  0  0  0  0  0  0  0  0  0  0  0
   -5.7037   -1.6825    4.2357 Cl  0  0  0  0  0  0  0  0  0  0  0  0
   -3.6087   -0.2446    3.2236 C   0  0  0  0  0  0  0  0  0  0  0  0
   -2.8014    0.2342    2.1903 C   0  0  0  0  0  0  0  0  0  0  0  0
   -3.0619   -0.1091    0.8570 C   0  0  0  0  0  0  0  0  0  0  0  0
   -2.2265    0.4554   -0.1194 O   0  0  0  0  0  0  0  0  0  0  0  0
   -2.6484    0.9151   -1.4013 C   0  0  0  0  0  0  0  0  0  0  0  0
   -1.6381    1.9185   -2.0095 C   0  0  0  0  0  0  0  0  0  0  0  0
   -0.9235    2.8491   -0.9813 C   0  0  0  0  0  0  0  0  0  0  0  0
    0.1001    3.7635   -1.6740 C   0  0  0  0  0  0  0  0  0  0  0  0
   -1.9413    3.7144   -0.2186 C   0  0  0  0  0  0  0  0  0  0  0  0
   -0.7075    1.2504   -2.9400 N   0  0  0  0  0  0  0  0  0  0  0  0
    0.3506    0.3128   -2.6524 C   0  0  0  0  0  0  0  0  0  0  0  0
    0.9496   -0.2222   -3.6238 O   0  0  0  0  0  0  0  0  0  0  0  0
    0.8649    0.0386   -1.2635 C   0  0  0  0  0  0  0  0  0  0  0  0
    5.0969   -0.4542   -0.2689 C   0  0  0  0  0  0  0  0  0  0  0  0
    5.3847    0.3706    0.7995 C   0  0  0  0  0  0  0  0  0  0  0  0
    6.7386    0.9059    1.1476 C   0  0  0  0  0  0  0  0  0  0  0  0
    4.0757    1.2826    4.7848 H   0  0  0  0  0  0  0  0  0  0  0  0
    5.1928    0.1582    3.9189 H   0  0  0  0  0  0  0  0  0  0  0  0
    3.4071   -0.1364    3.8862 H   0  0  0  0  0  0  0  0  0  0  0  0
    3.0741    1.9883    2.6177 H   0  0  0  0  0  0  0  0  0  0  0  0
    4.8386    2.3092    2.6494 H   0  0  0  0  0  0  0  0  0  0  0  0
    1.2009   -3.3981   -0.9646 H   0  0  0  0  0  0  0  0  0  0  0  0
    0.6090   -2.6986   -2.5105 H   0  0  0  0  0  0  0  0  0  0  0  0
   -1.2901   -1.6518   -1.3566 H   0  0  0  0  0  0  0  0  0  0  0  0
   -0.6526   -2.1534    0.2607 H   0  0  0  0  0  0  0  0  0  0  0  0
   -0.9649   -4.5439   -0.3748 H   0  0  0  0  0  0  0  0  0  0  0  0
   -1.5295   -4.0642   -2.0148 H   0  0  0  0  0  0  0  0  0  0  0  0
   -3.3979   -4.6259   -0.4071 H   0  0  0  0  0  0  0  0  0  0  0  0
   -2.8903   -3.2780    0.6495 H   0  0  0  0  0  0  0  0  0  0  0  0
   -3.8762   -3.0080   -2.2432 H   0  0  0  0  0  0  0  0  0  0  0  0
   -5.7581   -2.1458    1.4078 H   0  0  0  0  0  0  0  0  0  0  0  0
   -3.4002    0.0437    4.2463 H   0  0  0  0  0  0  0  0  0  0  0  0
   -1.9759    0.8953    2.4225 H   0  0  0  0  0  0  0  0  0  0  0  0
   -3.6336    1.4203   -1.2928 H   0  0  0  0  0  0  0  0  0  0  0  0
   -2.7762    0.0611   -2.0968 H   0  0  0  0  0  0  0  0  0  0  0  0
   -2.2589    2.5968   -2.6405 H   0  0  0  0  0  0  0  0  0  0  0  0
   -0.3780    2.2527   -0.2249 H   0  0  0  0  0  0  0  0  0  0  0  0
    0.9121    3.1638   -2.1370 H   0  0  0  0  0  0  0  0  0  0  0  0
   -0.3911    4.3738   -2.4624 H   0  0  0  0  0  0  0  0  0  0  0  0
    0.5704    4.4456   -0.9332 H   0  0  0  0  0  0  0  0  0  0  0  0
   -2.5148    4.3563   -0.9207 H   0  0  0  0  0  0  0  0  0  0  0  0
   -2.6558    3.0777    0.3456 H   0  0  0  0  0  0  0  0  0  0  0  0
   -1.4201    4.3646    0.5171 H   0  0  0  0  0  0  0  0  0  0  0  0
   -0.8524    1.4664   -3.9531 H   0  0  0  0  0  0  0  0  0  0  0  0
    1.6015    0.8333   -1.0254 H   0  0  0  0  0  0  0  0  0  0  0  0
    0.0717    0.1105   -0.5088 H   0  0  0  0  0  0  0  0  0  0  0  0
    5.7866   -0.8649   -0.9942 H   0  0  0  0  0  0  0  0  0  0  0  0
    7.5273    0.3589    0.5885 H   0  0  0  0  0  0  0  0  0  0  0  0
    6.9288    0.7874    2.2349 H   0  0  0  0  0  0  0  0  0  0  0  0
    6.7885    1.9825    0.8812 H   0  0  0  0  0  0  0  0  0  0  0  0
  1  2  1  0
  2  3  1  0
  3  4  1  0
  4  5  2  0
  5  6  1  0
  6  7  2  0
  6  8  1  0
  8  9  1  0
  9 10  1  0
 10 11  1  0
 11 12  1  0
 12 13  1  0
 13 14  1  0
 14 15  2  0
 14 16  1  0
 16 17  2  0
 17 18  1  0
 18 19  1  0
 18 20  2  0
 20 21  1  0
 21 22  2  0
 22 23  1  0
 23 24  1  0
 24 25  1  0
 25 26  1  0
 26 27  1  0
 26 28  1  0
 25 29  1  0
 29 30  1  0
 30 31  2  0
 30 32  1  0
  5 33  1  0
 33 34  2  0
 34 35  1  0
 34  3  1  0
 32  8  1  0
 22 16  1  0
  1 36  1  0
  1 37  1  0
  1 38  1  0
  2 39  1  0
  2 40  1  0
  9 41  1  0
  9 42  1  0
 10 43  1  0
 10 44  1  0
 11 45  1  0
 11 46  1  0
 12 47  1  0
 12 48  1  0
 13 49  1  0
 17 50  1  0
 20 51  1  0
 21 52  1  0
 24 53  1  0
 24 54  1  0
 25 55  1  0
 26 56  1  0
 27 57  1  0
 27 58  1  0
 27 59  1  0
 28 60  1  0
 28 61  1  0
 28 62  1  0
 29 63  1  0
 32 64  1  0
 32 65  1  0
 33 66  1  0
 35 67  1  0
 35 68  1  0
 35 69  1  0
M  END
$$$$
