
     RDKit          3D

 68 71  0  0  0  0  0  0  0  0999 V2000
    3.3215    0.0088   -1.2134 O   0  0  0  0  0  0  0  0  0  0  0  0
    3.9267    0.2232   -0.1256 C   0  0  0  0  0  0  0  0  0  0  0  0
    3.1481    0.3397    1.1554 C   0  0  0  0  0  0  0  0  0  0  0  0
    1.9682   -0.5975    1.1724 C   0  0  0  0  0  0  0  0  0  0  0  0
    2.1274   -1.9249    1.5906 C   0  0  0  0  0  0  0  0  0  0  0  0
    1.0427   -2.8010    1.5727 C   0  0  0  0  0  0  0  0  0  0  0  0
   -0.2089   -2.3702    1.1212 C   0  0  0  0  0  0  0  0  0  0  0  0
   -0.3862   -1.0386    0.6766 C   0  0  0  0  0  0  0  0  0  0  0  0
    0.7169   -0.1644    0.7067 C   0  0  0  0  0  0  0  0  0  0  0  0
   -1.7179   -0.6342    0.0748 C   0  0  0  0  0  0  0  0  0  0  0  0
   -2.0177    0.8150    0.1807 N   0  0  0  0  0  0  0  0  0  0  0  0
   -1.6532    1.5365   -1.0648 C   0  0  0  0  0  0  0  0  0  0  0  0
   -1.6572    3.0314   -0.8563 C   0  0  0  0  0  0  0  0  0  0  0  0
   -2.4918    3.8545   -1.6315 C   0  0  0  0  0  0  0  0  0  0  0  0
   -2.4934    5.2397   -1.4378 C   0  0  0  0  0  0  0  0  0  0  0  0
   -1.6615    5.8132   -0.4737 C   0  0  0  0  0  0  0  0  0  0  0  0
   -0.8280    5.0026    0.3016 C   0  0  0  0  0  0  0  0  0  0  0  0
   -0.8244    3.6171    0.1128 C   0  0  0  0  0  0  0  0  0  0  0  0
   -3.4407    1.0430    0.5563 C   0  0  0  0  0  0  0  0  0  0  0  0
   -4.4280    0.5146   -0.4694 C   0  0  0  0  0  0  0  0  0  0  0  0
   -4.8418    1.2945   -1.3694 O   0  0  0  0  0  0  0  0  0  0  0  0
   -4.8369   -0.8634   -0.5063 N   0  0  0  0  0  0  0  0  0  0  0  0
   -5.3747   -1.5527    0.6688 C   0  0  0  0  0  0  0  0  0  0  0  0
   -5.4281   -3.0826    0.4634 C   0  0  0  0  0  0  0  0  0  0  0  0
   -4.1054   -3.7954    0.8035 C   0  0  0  0  0  0  0  0  0  0  0  0
   -3.1063   -3.7938   -0.3686 C   0  0  0  0  0  0  0  0  0  0  0  0
   -1.6680   -4.0980    0.0802 C   0  0  0  0  0  0  0  0  0  0  0  0
   -1.2860   -3.2609    1.1715 O   0  0  0  0  0  0  0  0  0  0  0  0
    5.3469    0.4269   -0.1223 N   0  0  0  0  0  0  0  0  0  0  0  0
    6.1197    0.3291   -1.3681 C   0  0  0  0  0  0  0  0  0  0  0  0
    7.6347    0.6328   -1.2664 C   0  0  0  0  0  0  0  0  0  0  0  0
    8.3829    0.2142   -0.0100 C   0  0  0  0  0  0  0  0  0  0  0  0
    8.1006    1.6913   -0.2785 C   0  0  0  0  0  0  0  0  0  0  0  0
    2.8078    1.3912    1.2718 H   0  0  0  0  0  0  0  0  0  0  0  0
    3.8089    0.1139    2.0198 H   0  0  0  0  0  0  0  0  0  0  0  0
    3.0909   -2.2807    1.9339 H   0  0  0  0  0  0  0  0  0  0  0  0
    1.1731   -3.8202    1.9142 H   0  0  0  0  0  0  0  0  0  0  0  0
    0.6229    0.8541    0.3717 H   0  0  0  0  0  0  0  0  0  0  0  0
   -1.7457   -0.9734   -0.9845 H   0  0  0  0  0  0  0  0  0  0  0  0
   -2.4882   -1.2109    0.6231 H   0  0  0  0  0  0  0  0  0  0  0  0
   -2.3226    1.2474   -1.9036 H   0  0  0  0  0  0  0  0  0  0  0  0
   -0.6355    1.2503   -1.4019 H   0  0  0  0  0  0  0  0  0  0  0  0
   -3.1412    3.4259   -2.3848 H   0  0  0  0  0  0  0  0  0  0  0  0
   -3.1393    5.8693   -2.0364 H   0  0  0  0  0  0  0  0  0  0  0  0
   -1.6637    6.8856   -0.3260 H   0  0  0  0  0  0  0  0  0  0  0  0
   -0.1856    5.4485    1.0503 H   0  0  0  0  0  0  0  0  0  0  0  0
   -0.1781    3.0047    0.7264 H   0  0  0  0  0  0  0  0  0  0  0  0
   -3.6358    0.5969    1.5521 H   0  0  0  0  0  0  0  0  0  0  0  0
   -3.6205    2.1296    0.7024 H   0  0  0  0  0  0  0  0  0  0  0  0
   -5.1214   -1.2301   -1.4426 H   0  0  0  0  0  0  0  0  0  0  0  0
   -4.7898   -1.3116    1.5788 H   0  0  0  0  0  0  0  0  0  0  0  0
   -6.4099   -1.1849    0.8383 H   0  0  0  0  0  0  0  0  0  0  0  0
   -6.2060   -3.4824    1.1485 H   0  0  0  0  0  0  0  0  0  0  0  0
   -5.7562   -3.3353   -0.5674 H   0  0  0  0  0  0  0  0  0  0  0  0
   -4.3275   -4.8543    1.0603 H   0  0  0  0  0  0  0  0  0  0  0  0
   -3.6694   -3.3352    1.7148 H   0  0  0  0  0  0  0  0  0  0  0  0
   -3.1259   -2.8255   -0.9001 H   0  0  0  0  0  0  0  0  0  0  0  0
   -3.4188   -4.5606   -1.1102 H   0  0  0  0  0  0  0  0  0  0  0  0
   -1.6020   -5.1573    0.4072 H   0  0  0  0  0  0  0  0  0  0  0  0
   -0.9782   -3.9604   -0.7825 H   0  0  0  0  0  0  0  0  0  0  0  0
    5.7925    0.6418    0.7937 H   0  0  0  0  0  0  0  0  0  0  0  0
    5.6905    1.0357   -2.1108 H   0  0  0  0  0  0  0  0  0  0  0  0
    6.0073   -0.6976   -1.7781 H   0  0  0  0  0  0  0  0  0  0  0  0
    8.2374    0.5780   -2.1980 H   0  0  0  0  0  0  0  0  0  0  0  0
    7.7894   -0.2433    0.8059 H   0  0  0  0  0  0  0  0  0  0  0  0
    9.4395   -0.0770   -0.1876 H   0  0  0  0  0  0  0  0  0  0  0  0
    8.9916    2.2633   -0.6144 H   0  0  0  0  0  0  0  0  0  0  0  0
    7.3293    2.1542    0.3688 H   0  0  0  0  0  0  0  0  0  0  0  0
  1  2  2  0
  2  3  1  0
  3  4  1  0
  4  5  2  0
  5  6  1  0
  6  7  2  0
  7  8  1  0
  8  9  2  0
  8 10  1  0
 10 11  1  0
 11 12  1  0
 12 13  1  0
 13 14  2  0
 14 15  1  0
 15 16  2  0
 16 17  1  0
 17 18  2  0
 11 19  1  0
 19 20  1  0
 20 21  2  0
 20 22  1  0
 22 23  1  0
 23 24  1  0
 24 25  1  0
 25 26  1  0
 26 27  1  0
 27 28  1  0
  2 29  1  0
 29 30  1  0
 30 31  1  0
 31 32  1  0
 32 33  1  0
  9  4  1  0
 18 13  1  0
 33 31  1  0
 28  7  1  0
  3 34  1  0
  3 35  1  0
  5 36  1  0
  6 37  1  0
  9 38  1  0
 10 39  1  0
 10 40  1  0
 12 41  1  0
 12 42  1  0
 14 43  1  0
 15 44  1  0
 16 45  1  0
 17 46  1  0
 18 47  1  0
 19 48  1  0
 19 49  1  0
 22 50  1  0
 23 51  1  0
 23 52  1  0
 24 53  1  0
 24 54  1  0
 25 55  1  0
 25 56  1  0
 26 57  1  0
 26 58  1  0
 27 59  1  0
 27 60  1  0
 29 61  1  0
 30 62  1  0
 30 63  1  0
 31 64  1  0
 32 65  1  0
 32 66  1  0
 33 67  1  0
 33 68  1  0
M  END
$$$$
