
     RDKit          3D

 90 92  0  0  0  0  0  0  0  0999 V2000
   -8.6179   -1.0513    0.6199 C   0  0  0  0  0  0  0  0  0  0  0  0
   -7.9371   -0.6385    1.9253 C   0  0  0  0  0  0  0  0  0  0  0  0
   -6.5626    0.0118    1.6882 C   0  0  0  0  0  0  0  0  0  0  0  0
   -5.4956   -1.0044    1.2660 C   0  0  0  0  0  0  0  0  0  0  0  0
   -4.1804   -0.3503    1.1597 N   0  0  0  0  0  0  0  0  0  0  0  0
   -3.1225   -0.7392    2.1023 C   0  0  0  0  0  0  0  0  0  0  0  0
   -2.5453   -2.1034    1.7262 C   0  0  0  0  0  0  0  0  0  0  0  0
   -1.7859   -1.9873    0.5239 O   0  0  0  0  0  0  0  0  0  0  0  0
   -1.6066   -3.0383   -0.3820 C   0  0  0  0  0  0  0  0  0  0  0  0
   -2.7100   -3.7053   -0.9320 C   0  0  0  0  0  0  0  0  0  0  0  0
   -2.5234   -4.6908   -1.9043 C   0  0  0  0  0  0  0  0  0  0  0  0
   -1.2340   -5.0137   -2.3358 C   0  0  0  0  0  0  0  0  0  0  0  0
   -0.1279   -4.3579   -1.7874 C   0  0  0  0  0  0  0  0  0  0  0  0
   -0.3087   -3.3835   -0.7961 C   0  0  0  0  0  0  0  0  0  0  0  0
    0.8523   -2.7149   -0.1919 C   0  0  0  0  0  0  0  0  0  0  0  0
    1.0123   -2.7445    1.0586 O   0  0  0  0  0  0  0  0  0  0  0  0
    1.7021   -1.8937   -0.9901 N   0  0  0  0  0  0  0  0  0  0  0  0
    1.4919   -0.4473   -0.9877 C   0  0  0  0  0  0  0  0  0  0  0  0
    2.8019    0.2487   -0.7166 C   0  0  0  0  0  0  0  0  0  0  0  0
    3.3598    0.9458   -1.6105 O   0  0  0  0  0  0  0  0  0  0  0  0
    3.4210    0.1063    0.5687 N   0  0  0  0  0  0  0  0  0  0  0  0
    4.6677    0.7787    0.9251 C   0  0  0  0  0  0  0  0  0  0  0  0
    5.8603    0.0913    0.2612 C   0  0  0  0  0  0  0  0  0  0  0  0
    7.0457    0.7526    0.6500 O   0  0  0  0  0  0  0  0  0  0  0  0
    8.1499    0.1783   -0.0210 C   0  0  0  0  0  0  0  0  0  0  0  0
    9.4369    0.8611    0.4519 C   0  0  0  0  0  0  0  0  0  0  0  0
   10.6572    0.3335   -0.2837 C   0  0  0  0  0  0  0  0  0  0  0  0
   11.7466    0.4895    0.7316 C   0  0  0  0  0  0  0  0  0  0  0  0
   11.0037    0.4703    2.0554 C   0  0  0  0  0  0  0  0  0  0  0  0
    9.6211    0.6449    1.8334 O   0  0  0  0  0  0  0  0  0  0  0  0
    0.8252   -0.0216   -2.3154 C   0  0  0  0  0  0  0  0  0  0  0  0
    0.1002    1.3301   -2.2034 C   0  0  0  0  0  0  0  0  0  0  0  0
   -1.3091    1.1556   -1.7134 C   0  0  0  0  0  0  0  0  0  0  0  0
   -2.1899    0.7626   -2.5252 O   0  0  0  0  0  0  0  0  0  0  0  0
   -1.6459    1.4160   -0.3393 N   0  0  0  0  0  0  0  0  0  0  0  0
   -3.0040    1.7105    0.1364 C   0  0  0  0  0  0  0  0  0  0  0  0
   -3.5725    2.9525   -0.5955 C   0  0  0  0  0  0  0  0  0  0  0  0
   -4.9817    3.3926   -0.1269 C   0  0  0  0  0  0  0  0  0  0  0  0
   -5.0020    3.8075    1.3520 C   0  0  0  0  0  0  0  0  0  0  0  0
   -5.4845    4.5536   -0.9982 C   0  0  0  0  0  0  0  0  0  0  0  0
   -3.9010    0.4937    0.0190 C   0  0  0  0  0  0  0  0  0  0  0  0
   -4.4370    0.2278   -1.0912 O   0  0  0  0  0  0  0  0  0  0  0  0
   -8.0608   -1.8735    0.1262 H   0  0  0  0  0  0  0  0  0  0  0  0
   -9.6490   -1.4090    0.8370 H   0  0  0  0  0  0  0  0  0  0  0  0
   -8.6825   -0.1819   -0.0700 H   0  0  0  0  0  0  0  0  0  0  0  0
   -8.5910    0.1042    2.4362 H   0  0  0  0  0  0  0  0  0  0  0  0
   -7.8387   -1.5222    2.5948 H   0  0  0  0  0  0  0  0  0  0  0  0
   -6.6516    0.8032    0.9150 H   0  0  0  0  0  0  0  0  0  0  0  0
   -6.2340    0.4961    2.6320 H   0  0  0  0  0  0  0  0  0  0  0  0
   -5.7627   -1.4666    0.2926 H   0  0  0  0  0  0  0  0  0  0  0  0
   -5.4660   -1.8248    2.0193 H   0  0  0  0  0  0  0  0  0  0  0  0
   -2.3007    0.0039    2.1280 H   0  0  0  0  0  0  0  0  0  0  0  0
   -3.5417   -0.7908    3.1292 H   0  0  0  0  0  0  0  0  0  0  0  0
   -1.8686   -2.4502    2.5389 H   0  0  0  0  0  0  0  0  0  0  0  0
   -3.3607   -2.8513    1.6215 H   0  0  0  0  0  0  0  0  0  0  0  0
   -3.7137   -3.4334   -0.6353 H   0  0  0  0  0  0  0  0  0  0  0  0
   -3.3809   -5.1953   -2.3325 H   0  0  0  0  0  0  0  0  0  0  0  0
   -1.0901   -5.7720   -3.0941 H   0  0  0  0  0  0  0  0  0  0  0  0
    0.8677   -4.6237   -2.1247 H   0  0  0  0  0  0  0  0  0  0  0  0
    2.2270   -2.3296   -1.7809 H   0  0  0  0  0  0  0  0  0  0  0  0
    0.8062   -0.1835   -0.1522 H   0  0  0  0  0  0  0  0  0  0  0  0
    2.9254   -0.4416    1.3102 H   0  0  0  0  0  0  0  0  0  0  0  0
    4.7997    0.7363    2.0298 H   0  0  0  0  0  0  0  0  0  0  0  0
    4.6194    1.8484    0.6188 H   0  0  0  0  0  0  0  0  0  0  0  0
    5.8828   -0.9740    0.5918 H   0  0  0  0  0  0  0  0  0  0  0  0
    5.7294    0.1298   -0.8449 H   0  0  0  0  0  0  0  0  0  0  0  0
    8.0513    0.3230   -1.1231 H   0  0  0  0  0  0  0  0  0  0  0  0
    8.2237   -0.9112    0.2033 H   0  0  0  0  0  0  0  0  0  0  0  0
    9.3513    1.9581    0.2717 H   0  0  0  0  0  0  0  0  0  0  0  0
   10.5432   -0.7461   -0.5357 H   0  0  0  0  0  0  0  0  0  0  0  0
   10.8662    0.9194   -1.2061 H   0  0  0  0  0  0  0  0  0  0  0  0
   12.4864   -0.3382    0.6643 H   0  0  0  0  0  0  0  0  0  0  0  0
   12.2588    1.4677    0.5941 H   0  0  0  0  0  0  0  0  0  0  0  0
   11.1646   -0.5032    2.5627 H   0  0  0  0  0  0  0  0  0  0  0  0
   11.3793    1.2773    2.7191 H   0  0  0  0  0  0  0  0  0  0  0  0
    1.5878    0.0314   -3.1259 H   0  0  0  0  0  0  0  0  0  0  0  0
    0.0980   -0.8029   -2.6357 H   0  0  0  0  0  0  0  0  0  0  0  0
    0.6595    2.0299   -1.5443 H   0  0  0  0  0  0  0  0  0  0  0  0
    0.0601    1.8008   -3.2107 H   0  0  0  0  0  0  0  0  0  0  0  0
   -0.8631    1.5269    0.3446 H   0  0  0  0  0  0  0  0  0  0  0  0
   -2.9244    1.9824    1.2086 H   0  0  0  0  0  0  0  0  0  0  0  0
   -3.6114    2.7436   -1.6863 H   0  0  0  0  0  0  0  0  0  0  0  0
   -2.8655    3.8044   -0.4598 H   0  0  0  0  0  0  0  0  0  0  0  0
   -5.6932    2.5517   -0.2691 H   0  0  0  0  0  0  0  0  0  0  0  0
   -4.8120    2.9318    2.0055 H   0  0  0  0  0  0  0  0  0  0  0  0
   -6.0022    4.1989    1.6239 H   0  0  0  0  0  0  0  0  0  0  0  0
   -4.2452    4.5942    1.5507 H   0  0  0  0  0  0  0  0  0  0  0  0
   -5.5156    4.2499   -2.0664 H   0  0  0  0  0  0  0  0  0  0  0  0
   -6.5122    4.8442   -0.6970 H   0  0  0  0  0  0  0  0  0  0  0  0
   -4.8206    5.4384   -0.8930 H   0  0  0  0  0  0  0  0  0  0  0  0
  1  2  1  0
  2  3  1  0
  3  4  1  0
  4  5  1  0
  5  6  1  0
  6  7  1  0
  7  8  1  0
  8  9  1  0
  9 10  2  0
 10 11  1  0
 11 12  2  0
 12 13  1  0
 13 14  2  0
 14 15  1  0
 15 16  2  0
 15 17  1  0
 17 18  1  0
 18 19  1  0
 19 20  2  0
 19 21  1  0
 21 22  1  0
 22 23  1  0
 23 24  1  0
 24 25  1  0
 25 26  1  0
 26 27  1  0
 27 28  1  0
 28 29  1  0
 29 30  1  0
 18 31  1  0
 31 32  1  0
 32 33  1  0
 33 34  2  0
 33 35  1  0
 35 36  1  0
 36 37  1  0
 37 38  1  0
 38 39  1  0
 38 40  1  0
 36 41  1  0
 41 42  2  0
 41  5  1  0
 14  9  1  0
 30 26  1  0
  1 43  1  0
  1 44  1  0
  1 45  1  0
  2 46  1  0
  2 47  1  0
  3 48  1  0
  3 49  1  0
  4 50  1  0
  4 51  1  0
  6 52  1  0
  6 53  1  0
  7 54  1  0
  7 55  1  0
 10 56  1  0
 11 57  1  0
 12 58  1  0
 13 59  1  0
 17 60  1  0
 18 61  1  0
 21 62  1  0
 22 63  1  0
 22 64  1  0
 23 65  1  0
 23 66  1  0
 25 67  1  0
 25 68  1  0
 26 69  1  0
 27 70  1  0
 27 71  1  0
 28 72  1  0
 28 73  1  0
 29 74  1  0
 29 75  1  0
 31 76  1  0
 31 77  1  0
 32 78  1  0
 32 79  1  0
 35 80  1  0
 36 81  1  0
 37 82  1  0
 37 83  1  0
 38 84  1  0
 39 85  1  0
 39 86  1  0
 39 87  1  0
 40 88  1  0
 40 89  1  0
 40 90  1  0
M  END
$$$$
