
     RDKit          3D

 80 83  0  0  0  0  0  0  0  0999 V2000
   -6.6397    0.6747    1.9302 C   0  0  0  0  0  0  0  0  0  0  0  0
   -6.3348    0.1934    0.4916 C   0  0  0  0  0  0  0  0  0  0  0  0
   -5.2558   -0.9153    0.5397 C   0  0  0  0  0  0  0  0  0  0  0  0
   -5.7840    1.4021   -0.3315 C   0  0  0  0  0  0  0  0  0  0  0  0
   -4.5554    1.9703    0.2378 N   0  0  0  0  0  0  0  0  0  0  0  0
   -3.2489    1.6573   -0.2677 C   0  0  0  0  0  0  0  0  0  0  0  0
   -3.1236    0.8391   -1.2163 O   0  0  0  0  0  0  0  0  0  0  0  0
   -2.0371    2.3743    0.2823 C   0  0  0  0  0  0  0  0  0  0  0  0
   -0.8500    1.5111    0.4686 N   0  0  0  0  0  0  0  0  0  0  0  0
   -1.1146    0.2855    1.2465 C   0  0  0  0  0  0  0  0  0  0  0  0
    0.2081   -0.3578    1.7247 C   0  0  0  0  0  0  0  0  0  0  0  0
    1.4190   -0.1023    0.7646 C   0  0  0  0  0  0  0  0  0  0  0  0
    2.1945    1.1796    1.2506 C   0  0  0  0  0  0  0  0  0  0  0  0
    3.2993    1.7343    0.3182 C   0  0  0  0  0  0  0  0  0  0  0  0
    4.6721    1.0792    0.5326 C   0  0  0  0  0  0  0  0  0  0  0  0
    5.6759    1.5460   -0.5284 C   0  0  0  0  0  0  0  0  0  0  0  0
    7.0139    0.8759   -0.3368 C   0  0  0  0  0  0  0  0  0  0  0  0
    8.0043    1.5228    0.4261 C   0  0  0  0  0  0  0  0  0  0  0  0
    9.2540    0.9249    0.6166 C   0  0  0  0  0  0  0  0  0  0  0  0
    9.5223   -0.3213    0.0532 C   0  0  0  0  0  0  0  0  0  0  0  0
    8.5392   -0.9874   -0.6850 C   0  0  0  0  0  0  0  0  0  0  0  0
    7.2699   -0.4067   -0.8750 C   0  0  0  0  0  0  0  0  0  0  0  0
    6.2781   -1.0516   -1.6352 O   0  0  0  0  0  0  0  0  0  0  0  0
    6.0036   -2.4551   -1.5943 C   0  0  0  0  0  0  0  0  0  0  0  0
    4.8359   -2.7320   -0.6436 C   0  0  0  0  0  0  0  0  0  0  0  0
    3.5247   -2.1691   -1.2097 C   0  0  0  0  0  0  0  0  0  0  0  0
    2.4479   -2.2491   -0.2287 N   0  0  0  0  0  0  0  0  0  0  0  0
    2.3459   -1.3102    0.8475 C   0  0  0  0  0  0  0  0  0  0  0  0
    2.9810   -1.5355    1.9133 O   0  0  0  0  0  0  0  0  0  0  0  0
    0.8505    0.0646   -0.6779 C   0  0  0  0  0  0  0  0  0  0  0  0
   -0.0987    1.2716   -0.7852 C   0  0  0  0  0  0  0  0  0  0  0  0
   -7.6299   -0.3927   -0.1217 C   0  0  0  0  0  0  0  0  0  0  0  0
   -8.2234    0.1216   -1.3021 C   0  0  0  0  0  0  0  0  0  0  0  0
   -9.3901   -0.4427   -1.8247 C   0  0  0  0  0  0  0  0  0  0  0  0
   -9.9930   -1.5270   -1.1903 C   0  0  0  0  0  0  0  0  0  0  0  0
   -9.4356   -2.0485   -0.0252 C   0  0  0  0  0  0  0  0  0  0  0  0
  -10.0226   -3.1006    0.5952 F   0  0  0  0  0  0  0  0  0  0  0  0
   -8.2675   -1.4923    0.5039 C   0  0  0  0  0  0  0  0  0  0  0  0
   -5.7300    1.0873    2.4187 H   0  0  0  0  0  0  0  0  0  0  0  0
   -7.4218    1.4663    1.9166 H   0  0  0  0  0  0  0  0  0  0  0  0
   -6.9993   -0.1566    2.5715 H   0  0  0  0  0  0  0  0  0  0  0  0
   -5.5947   -1.7943    1.1271 H   0  0  0  0  0  0  0  0  0  0  0  0
   -5.0063   -1.2596   -0.4871 H   0  0  0  0  0  0  0  0  0  0  0  0
   -4.3271   -0.5515    1.0252 H   0  0  0  0  0  0  0  0  0  0  0  0
   -5.5949    1.0970   -1.3841 H   0  0  0  0  0  0  0  0  0  0  0  0
   -6.5499    2.2093   -0.3554 H   0  0  0  0  0  0  0  0  0  0  0  0
   -4.6450    2.6743    1.0052 H   0  0  0  0  0  0  0  0  0  0  0  0
   -1.7893    3.2236   -0.3947 H   0  0  0  0  0  0  0  0  0  0  0  0
   -2.2932    2.8226    1.2662 H   0  0  0  0  0  0  0  0  0  0  0  0
   -1.6709   -0.4479    0.6218 H   0  0  0  0  0  0  0  0  0  0  0  0
   -1.7412    0.5175    2.1377 H   0  0  0  0  0  0  0  0  0  0  0  0
    0.0167   -1.4497    1.8299 H   0  0  0  0  0  0  0  0  0  0  0  0
    0.4473    0.0112    2.7477 H   0  0  0  0  0  0  0  0  0  0  0  0
    1.4668    2.0029    1.4109 H   0  0  0  0  0  0  0  0  0  0  0  0
    2.6314    0.9978    2.2580 H   0  0  0  0  0  0  0  0  0  0  0  0
    3.4093    2.8178    0.5375 H   0  0  0  0  0  0  0  0  0  0  0  0
    3.0077    1.6727   -0.7470 H   0  0  0  0  0  0  0  0  0  0  0  0
    5.0508    1.3404    1.5452 H   0  0  0  0  0  0  0  0  0  0  0  0
    4.5859   -0.0185    0.4722 H   0  0  0  0  0  0  0  0  0  0  0  0
    5.2896    1.3075   -1.5446 H   0  0  0  0  0  0  0  0  0  0  0  0
    5.7857    2.6546   -0.4714 H   0  0  0  0  0  0  0  0  0  0  0  0
    7.8131    2.4960    0.8672 H   0  0  0  0  0  0  0  0  0  0  0  0
   10.0170    1.4350    1.1962 H   0  0  0  0  0  0  0  0  0  0  0  0
   10.4989   -0.7718    0.1837 H   0  0  0  0  0  0  0  0  0  0  0  0
    8.7885   -1.9310   -1.1413 H   0  0  0  0  0  0  0  0  0  0  0  0
    5.7361   -2.7937   -2.6201 H   0  0  0  0  0  0  0  0  0  0  0  0
    6.8852   -3.0440   -1.2779 H   0  0  0  0  0  0  0  0  0  0  0  0
    4.7275   -3.8293   -0.5039 H   0  0  0  0  0  0  0  0  0  0  0  0
    5.0646   -2.2863    0.3451 H   0  0  0  0  0  0  0  0  0  0  0  0
    3.2370   -2.7510   -2.1132 H   0  0  0  0  0  0  0  0  0  0  0  0
    3.6612   -1.1119   -1.5227 H   0  0  0  0  0  0  0  0  0  0  0  0
    1.6414   -2.8881   -0.4115 H   0  0  0  0  0  0  0  0  0  0  0  0
    0.2717   -0.8467   -0.9474 H   0  0  0  0  0  0  0  0  0  0  0  0
    1.6464    0.1450   -1.4440 H   0  0  0  0  0  0  0  0  0  0  0  0
    0.5085    2.1776   -1.0033 H   0  0  0  0  0  0  0  0  0  0  0  0
   -0.7704    1.1226   -1.6535 H   0  0  0  0  0  0  0  0  0  0  0  0
   -7.8041    0.9544   -1.8441 H   0  0  0  0  0  0  0  0  0  0  0  0
   -9.8260   -0.0396   -2.7295 H   0  0  0  0  0  0  0  0  0  0  0  0
  -10.8951   -1.9607   -1.6007 H   0  0  0  0  0  0  0  0  0  0  0  0
   -7.8646   -1.9319    1.4079 H   0  0  0  0  0  0  0  0  0  0  0  0
  1  2  1  0
  2  3  1  0
  2  4  1  0
  4  5  1  0
  5  6  1  0
  6  7  2  0
  6  8  1  0
  8  9  1  0
  9 10  1  0
 10 11  1  0
 11 12  1  0
 12 13  1  0
 13 14  1  0
 14 15  1  0
 15 16  1  0
 16 17  1  0
 17 18  2  0
 18 19  1  0
 19 20  2  0
 20 21  1  0
 21 22  2  0
 22 23  1  0
 23 24  1  0
 24 25  1  0
 25 26  1  0
 26 27  1  0
 27 28  1  0
 28 29  2  0
 12 30  1  0
 30 31  1  0
  2 32  1  0
 32 33  2  0
 33 34  1  0
 34 35  2  0
 35 36  1  0
 36 37  1  0
 36 38  2  0
 31  9  1  0
 38 32  1  0
 28 12  1  0
 22 17  1  0
  1 39  1  0
  1 40  1  0
  1 41  1  0
  3 42  1  0
  3 43  1  0
  3 44  1  0
  4 45  1  0
  4 46  1  0
  5 47  1  0
  8 48  1  0
  8 49  1  0
 10 50  1  0
 10 51  1  0
 11 52  1  0
 11 53  1  0
 13 54  1  0
 13 55  1  0
 14 56  1  0
 14 57  1  0
 15 58  1  0
 15 59  1  0
 16 60  1  0
 16 61  1  0
 18 62  1  0
 19 63  1  0
 20 64  1  0
 21 65  1  0
 24 66  1  0
 24 67  1  0
 25 68  1  0
 25 69  1  0
 26 70  1  0
 26 71  1  0
 27 72  1  0
 30 73  1  0
 30 74  1  0
 31 75  1  0
 31 76  1  0
 33 77  1  0
 34 78  1  0
 35 79  1  0
 38 80  1  0
M  END
$$$$
