
     RDKit          3D

 64 67  0  0  0  0  0  0  0  0999 V2000
    8.7864   -1.3984    0.6534 C   0  0  0  0  0  0  0  0  0  0  0  0
    7.7457   -0.3368    0.3105 C   0  0  0  0  0  0  0  0  0  0  0  0
    6.9188   -0.7455   -0.9104 C   0  0  0  0  0  0  0  0  0  0  0  0
    5.9311    0.2847   -1.2132 N   0  0  0  0  0  0  0  0  0  0  0  0
    6.1282    1.3655   -1.9890 C   0  0  0  0  0  0  0  0  0  0  0  0
    4.9769    2.1190   -1.9672 C   0  0  0  0  0  0  0  0  0  0  0  0
    4.7282    3.6337   -2.8192 Cl  0  0  0  0  0  0  0  0  0  0  0  0
    4.1008    1.4322   -1.1335 C   0  0  0  0  0  0  0  0  0  0  0  0
    2.7166    1.8451   -0.7757 C   0  0  0  0  0  0  0  0  0  0  0  0
    2.2855    2.9261   -1.2610 O   0  0  0  0  0  0  0  0  0  0  0  0
    1.8502    1.0682    0.0938 N   0  0  0  0  0  0  0  0  0  0  0  0
    2.3263   -0.1272    0.8005 C   0  0  0  0  0  0  0  0  0  0  0  0
    1.2006   -0.7329    1.6321 C   0  0  0  0  0  0  0  0  0  0  0  0
    0.0518   -0.8447    0.8216 O   0  0  0  0  0  0  0  0  0  0  0  0
   -0.5491    0.4145    0.5088 C   0  0  0  0  0  0  0  0  0  0  0  0
   -1.2126    0.2355   -0.8912 C   0  0  0  0  0  0  0  0  0  0  0  0
   -2.0885    1.4031   -1.4384 C   0  0  0  0  0  0  0  0  0  0  0  0
   -3.5924    1.2690   -1.1439 C   0  0  0  0  0  0  0  0  0  0  0  0
   -4.2826    0.1860   -1.9978 C   0  0  0  0  0  0  0  0  0  0  0  0
   -5.5562   -0.2950   -1.3429 C   0  0  0  0  0  0  0  0  0  0  0  0
   -6.8050    0.0009   -1.9132 C   0  0  0  0  0  0  0  0  0  0  0  0
   -7.9806   -0.4484   -1.3064 C   0  0  0  0  0  0  0  0  0  0  0  0
   -7.9204   -1.1940   -0.1273 C   0  0  0  0  0  0  0  0  0  0  0  0
   -6.6848   -1.4883    0.4549 C   0  0  0  0  0  0  0  0  0  0  0  0
   -5.4951   -1.0363   -0.1449 C   0  0  0  0  0  0  0  0  0  0  0  0
   -4.2354   -1.2828    0.4185 O   0  0  0  0  0  0  0  0  0  0  0  0
   -3.9985   -1.8266    1.7098 C   0  0  0  0  0  0  0  0  0  0  0  0
   -2.5171   -1.6678    2.0432 C   0  0  0  0  0  0  0  0  0  0  0  0
   -2.2136   -0.2778    2.4059 N   0  0  0  0  0  0  0  0  0  0  0  0
   -1.6195    0.7237    1.5535 C   0  0  0  0  0  0  0  0  0  0  0  0
   -1.9799    1.9225    1.7120 O   0  0  0  0  0  0  0  0  0  0  0  0
    0.5163    1.5790    0.4550 C   0  0  0  0  0  0  0  0  0  0  0  0
    4.7184    0.3204   -0.6842 N   0  0  0  0  0  0  0  0  0  0  0  0
    9.4830   -1.5455   -0.1995 H   0  0  0  0  0  0  0  0  0  0  0  0
    9.3725   -1.0719    1.5383 H   0  0  0  0  0  0  0  0  0  0  0  0
    8.2892   -2.3628    0.8922 H   0  0  0  0  0  0  0  0  0  0  0  0
    8.2636    0.6250    0.1032 H   0  0  0  0  0  0  0  0  0  0  0  0
    7.0724   -0.1925    1.1835 H   0  0  0  0  0  0  0  0  0  0  0  0
    6.3972   -1.7066   -0.7081 H   0  0  0  0  0  0  0  0  0  0  0  0
    7.5856   -0.8933   -1.7886 H   0  0  0  0  0  0  0  0  0  0  0  0
    7.0430    1.5928   -2.5214 H   0  0  0  0  0  0  0  0  0  0  0  0
    2.6426   -0.8911    0.0583 H   0  0  0  0  0  0  0  0  0  0  0  0
    3.1769    0.1342    1.4661 H   0  0  0  0  0  0  0  0  0  0  0  0
    0.9971   -0.1256    2.5434 H   0  0  0  0  0  0  0  0  0  0  0  0
    1.5012   -1.7468    1.9704 H   0  0  0  0  0  0  0  0  0  0  0  0
   -1.8002   -0.7046   -0.8832 H   0  0  0  0  0  0  0  0  0  0  0  0
   -0.3936    0.0603   -1.6237 H   0  0  0  0  0  0  0  0  0  0  0  0
   -1.7604    2.3803   -1.0376 H   0  0  0  0  0  0  0  0  0  0  0  0
   -1.9549    1.4629   -2.5409 H   0  0  0  0  0  0  0  0  0  0  0  0
   -4.0839    2.2419   -1.3653 H   0  0  0  0  0  0  0  0  0  0  0  0
   -3.7393    1.0937   -0.0611 H   0  0  0  0  0  0  0  0  0  0  0  0
   -4.4883    0.6000   -3.0094 H   0  0  0  0  0  0  0  0  0  0  0  0
   -3.6234   -0.6924   -2.1529 H   0  0  0  0  0  0  0  0  0  0  0  0
   -6.8696    0.5774   -2.8276 H   0  0  0  0  0  0  0  0  0  0  0  0
   -8.9400   -0.2194   -1.7519 H   0  0  0  0  0  0  0  0  0  0  0  0
   -8.8335   -1.5424    0.3380 H   0  0  0  0  0  0  0  0  0  0  0  0
   -6.6626   -2.0675    1.3680 H   0  0  0  0  0  0  0  0  0  0  0  0
   -4.6141   -1.3005    2.4720 H   0  0  0  0  0  0  0  0  0  0  0  0
   -4.2656   -2.9052    1.7068 H   0  0  0  0  0  0  0  0  0  0  0  0
   -1.9235   -2.0232    1.1815 H   0  0  0  0  0  0  0  0  0  0  0  0
   -2.2725   -2.3193    2.9092 H   0  0  0  0  0  0  0  0  0  0  0  0
   -2.6607    0.0699    3.2846 H   0  0  0  0  0  0  0  0  0  0  0  0
    0.2042    2.3887   -0.2276 H   0  0  0  0  0  0  0  0  0  0  0  0
    0.6073    2.0569    1.4557 H   0  0  0  0  0  0  0  0  0  0  0  0
  1  2  1  0
  2  3  1  0
  3  4  1  0
  4  5  1  0
  5  6  2  0
  6  7  1  0
  6  8  1  0
  8  9  1  0
  9 10  2  0
  9 11  1  0
 11 12  1  0
 12 13  1  0
 13 14  1  0
 14 15  1  0
 15 16  1  0
 16 17  1  0
 17 18  1  0
 18 19  1  0
 19 20  1  0
 20 21  2  0
 21 22  1  0
 22 23  2  0
 23 24  1  0
 24 25  2  0
 25 26  1  0
 26 27  1  0
 27 28  1  0
 28 29  1  0
 29 30  1  0
 30 31  2  0
 15 32  1  0
  8 33  2  0
 33  4  1  0
 32 11  1  0
 30 15  1  0
 25 20  1  0
  1 34  1  0
  1 35  1  0
  1 36  1  0
  2 37  1  0
  2 38  1  0
  3 39  1  0
  3 40  1  0
  5 41  1  0
 12 42  1  0
 12 43  1  0
 13 44  1  0
 13 45  1  0
 16 46  1  0
 16 47  1  0
 17 48  1  0
 17 49  1  0
 18 50  1  0
 18 51  1  0
 19 52  1  0
 19 53  1  0
 21 54  1  0
 22 55  1  0
 23 56  1  0
 24 57  1  0
 27 58  1  0
 27 59  1  0
 28 60  1  0
 28 61  1  0
 29 62  1  0
 32 63  1  0
 32 64  1  0
M  END
$$$$
