
     RDKit          3D

 69 73  0  0  0  0  0  0  0  0999 V2000
    1.7076   -2.0942   -0.8440 O   0  0  0  0  0  0  0  0  0  0  0  0
    2.2479   -1.1911   -0.1515 C   0  0  0  0  0  0  0  0  0  0  0  0
    3.7074   -0.9685   -0.2560 C   0  0  0  0  0  0  0  0  0  0  0  0
    4.5447   -1.9565   -0.8054 C   0  0  0  0  0  0  0  0  0  0  0  0
    5.9163   -1.7172   -0.9170 C   0  0  0  0  0  0  0  0  0  0  0  0
    6.4465   -0.4870   -0.5010 C   0  0  0  0  0  0  0  0  0  0  0  0
    7.8130   -0.1970   -0.6413 C   0  0  0  0  0  0  0  0  0  0  0  0
    8.3022    1.0572   -0.2571 C   0  0  0  0  0  0  0  0  0  0  0  0
    7.4395    2.0174    0.2923 C   0  0  0  0  0  0  0  0  0  0  0  0
    6.0783    1.7286    0.4484 C   0  0  0  0  0  0  0  0  0  0  0  0
    5.5771    0.4812    0.0504 C   0  0  0  0  0  0  0  0  0  0  0  0
    4.2495    0.2119    0.1627 N   0  0  0  0  0  0  0  0  0  0  0  0
    1.4298   -0.3985    0.7304 N   0  0  0  0  0  0  0  0  0  0  0  0
    0.7481   -1.0785    1.8424 C   0  0  0  0  0  0  0  0  0  0  0  0
   -0.5086   -1.7837    1.3272 C   0  0  0  0  0  0  0  0  0  0  0  0
   -1.4977   -2.1676    2.4388 C   0  0  0  0  0  0  0  0  0  0  0  0
   -2.9078   -2.5453    1.9040 C   0  0  0  0  0  0  0  0  0  0  0  0
   -3.7922   -1.4210    1.2212 C   0  0  0  0  0  0  0  0  0  0  0  0
   -5.2889   -1.7466    1.5183 C   0  0  0  0  0  0  0  0  0  0  0  0
   -5.6306   -3.0308    1.0475 O   0  0  0  0  0  0  0  0  0  0  0  0
   -3.4764   -0.0061    1.8169 C   0  0  0  0  0  0  0  0  0  0  0  0
   -4.0968    1.1442    1.0244 C   0  0  0  0  0  0  0  0  0  0  0  0
   -3.7138    1.0171   -0.3806 N   0  0  0  0  0  0  0  0  0  0  0  0
   -4.1030   -0.2094   -1.0754 C   0  0  0  0  0  0  0  0  0  0  0  0
   -3.5808   -1.4506   -0.3368 C   0  0  0  0  0  0  0  0  0  0  0  0
   -3.4020    2.1910   -1.1443 C   0  0  0  0  0  0  0  0  0  0  0  0
   -4.1647    3.1916   -1.0748 O   0  0  0  0  0  0  0  0  0  0  0  0
   -2.2396    2.2183   -2.0628 C   0  0  0  0  0  0  0  0  0  0  0  0
   -2.3775    2.8330   -3.3205 C   0  0  0  0  0  0  0  0  0  0  0  0
   -1.3025    2.8681   -4.2126 C   0  0  0  0  0  0  0  0  0  0  0  0
   -0.0765    2.3087   -3.8545 C   0  0  0  0  0  0  0  0  0  0  0  0
    0.0819    1.7024   -2.6063 C   0  0  0  0  0  0  0  0  0  0  0  0
   -0.9858    1.6668   -1.6962 C   0  0  0  0  0  0  0  0  0  0  0  0
   -0.8004    1.0867   -0.4330 O   0  0  0  0  0  0  0  0  0  0  0  0
    0.0188    1.6756    0.5789 C   0  0  0  0  0  0  0  0  0  0  0  0
    1.4301    1.0727    0.6217 C   0  0  0  0  0  0  0  0  0  0  0  0
    4.1424   -2.9041   -1.1416 H   0  0  0  0  0  0  0  0  0  0  0  0
    6.5598   -2.4759   -1.3445 H   0  0  0  0  0  0  0  0  0  0  0  0
    8.4935   -0.9284   -1.0609 H   0  0  0  0  0  0  0  0  0  0  0  0
    9.3519    1.2883   -0.3833 H   0  0  0  0  0  0  0  0  0  0  0  0
    7.8284    2.9894    0.5831 H   0  0  0  0  0  0  0  0  0  0  0  0
    5.4115    2.4762    0.8694 H   0  0  0  0  0  0  0  0  0  0  0  0
    1.4288   -1.8169    2.3165 H   0  0  0  0  0  0  0  0  0  0  0  0
    0.4745   -0.3382    2.6232 H   0  0  0  0  0  0  0  0  0  0  0  0
   -0.2350   -2.6873    0.7407 H   0  0  0  0  0  0  0  0  0  0  0  0
   -0.9843   -1.0735    0.6506 H   0  0  0  0  0  0  0  0  0  0  0  0
   -1.5831   -1.3671    3.2032 H   0  0  0  0  0  0  0  0  0  0  0  0
   -1.0821   -3.0518    2.9681 H   0  0  0  0  0  0  0  0  0  0  0  0
   -2.7981   -3.4013    1.1946 H   0  0  0  0  0  0  0  0  0  0  0  0
   -3.4594   -2.9677    2.7824 H   0  0  0  0  0  0  0  0  0  0  0  0
   -5.4898   -1.6539    2.6172 H   0  0  0  0  0  0  0  0  0  0  0  0
   -5.9586   -1.0177    1.0138 H   0  0  0  0  0  0  0  0  0  0  0  0
   -5.8601   -3.5826    1.8417 H   0  0  0  0  0  0  0  0  0  0  0  0
   -3.8112    0.0501    2.8771 H   0  0  0  0  0  0  0  0  0  0  0  0
   -2.3929    0.1979    1.8216 H   0  0  0  0  0  0  0  0  0  0  0  0
   -5.2047    1.1436    1.1171 H   0  0  0  0  0  0  0  0  0  0  0  0
   -3.7240    2.1082    1.4449 H   0  0  0  0  0  0  0  0  0  0  0  0
   -3.6915   -0.2192   -2.1089 H   0  0  0  0  0  0  0  0  0  0  0  0
   -5.2109   -0.2488   -1.1574 H   0  0  0  0  0  0  0  0  0  0  0  0
   -2.5230   -1.5762   -0.6136 H   0  0  0  0  0  0  0  0  0  0  0  0
   -4.0722   -2.3457   -0.7789 H   0  0  0  0  0  0  0  0  0  0  0  0
   -3.3260    3.2669   -3.6214 H   0  0  0  0  0  0  0  0  0  0  0  0
   -1.4239    3.3312   -5.1838 H   0  0  0  0  0  0  0  0  0  0  0  0
    0.7513    2.3328   -4.5526 H   0  0  0  0  0  0  0  0  0  0  0  0
    1.0304    1.2507   -2.3539 H   0  0  0  0  0  0  0  0  0  0  0  0
   -0.4723    1.5269    1.5617 H   0  0  0  0  0  0  0  0  0  0  0  0
    0.0906    2.7761    0.4205 H   0  0  0  0  0  0  0  0  0  0  0  0
    1.9799    1.4974    1.4899 H   0  0  0  0  0  0  0  0  0  0  0  0
    1.9665    1.3978   -0.2910 H   0  0  0  0  0  0  0  0  0  0  0  0
  1  2  2  0
  2  3  1  0
  3  4  2  0
  4  5  1  0
  5  6  2  0
  6  7  1  0
  7  8  2  0
  8  9  1  0
  9 10  2  0
 10 11  1  0
 11 12  2  0
  2 13  1  0
 13 14  1  0
 14 15  1  0
 15 16  1  0
 16 17  1  0
 17 18  1  0
 18 19  1  0
 19 20  1  0
 18 21  1  0
 21 22  1  0
 22 23  1  0
 23 24  1  0
 24 25  1  0
 23 26  1  0
 26 27  2  0
 26 28  1  0
 28 29  2  0
 29 30  1  0
 30 31  2  0
 31 32  1  0
 32 33  2  0
 33 34  1  0
 34 35  1  0
 35 36  1  0
 12  3  1  0
 36 13  1  0
 11  6  1  0
 25 18  1  0
 33 28  1  0
  4 37  1  0
  5 38  1  0
  7 39  1  0
  8 40  1  0
  9 41  1  0
 10 42  1  0
 14 43  1  0
 14 44  1  0
 15 45  1  0
 15 46  1  0
 16 47  1  0
 16 48  1  0
 17 49  1  0
 17 50  1  0
 19 51  1  0
 19 52  1  0
 20 53  1  0
 21 54  1  0
 21 55  1  0
 22 56  1  0
 22 57  1  0
 24 58  1  0
 24 59  1  0
 25 60  1  0
 25 61  1  0
 29 62  1  0
 30 63  1  0
 31 64  1  0
 32 65  1  0
 35 66  1  0
 35 67  1  0
 36 68  1  0
 36 69  1  0
M  END
$$$$
