
     RDKit          3D

 78 81  0  0  0  0  0  0  0  0999 V2000
   -7.4014   -4.3100    0.2707 C   0  0  0  0  0  0  0  0  0  0  0  0
   -7.0710   -3.0165   -0.3926 C   0  0  0  0  0  0  0  0  0  0  0  0
   -8.0043   -2.1641   -0.8711 N   0  0  0  0  0  0  0  0  0  0  0  0
   -7.2489   -1.1397   -1.3136 C   0  0  0  0  0  0  0  0  0  0  0  0
   -7.8181    0.0819   -1.9635 C   0  0  0  0  0  0  0  0  0  0  0  0
   -5.9358   -1.3700   -1.1100 N   0  0  0  0  0  0  0  0  0  0  0  0
   -4.8080   -0.4950   -1.4247 C   0  0  0  0  0  0  0  0  0  0  0  0
   -4.4385    0.3310   -0.2207 C   0  0  0  0  0  0  0  0  0  0  0  0
   -5.1932    1.2956    0.0837 O   0  0  0  0  0  0  0  0  0  0  0  0
   -3.2625    0.0623    0.5832 N   0  0  0  0  0  0  0  0  0  0  0  0
   -2.5439   -1.2231    0.4897 C   0  0  0  0  0  0  0  0  0  0  0  0
   -1.4300   -1.1662   -0.5768 C   0  0  0  0  0  0  0  0  0  0  0  0
   -0.0602   -0.8204    0.0312 C   0  0  0  0  0  0  0  0  0  0  0  0
    0.8825   -0.1775   -1.0046 C   0  0  0  0  0  0  0  0  0  0  0  0
    2.3151    0.1843   -0.4803 C   0  0  0  0  0  0  0  0  0  0  0  0
    2.9569    1.2065   -1.4812 C   0  0  0  0  0  0  0  0  0  0  0  0
    4.4772    1.0494   -1.5560 C   0  0  0  0  0  0  0  0  0  0  0  0
    4.8324   -0.2632   -2.1386 N   0  0  0  0  0  0  0  0  0  0  0  0
    6.2746   -0.5733   -2.0430 C   0  0  0  0  0  0  0  0  0  0  0  0
    6.7515   -0.7751   -0.6253 C   0  0  0  0  0  0  0  0  0  0  0  0
    7.4048    0.2576    0.0670 C   0  0  0  0  0  0  0  0  0  0  0  0
    7.8415    0.0386    1.3747 C   0  0  0  0  0  0  0  0  0  0  0  0
    7.6238   -1.1996    1.9808 C   0  0  0  0  0  0  0  0  0  0  0  0
    6.9705   -2.2048    1.2638 C   0  0  0  0  0  0  0  0  0  0  0  0
    6.5562   -1.9749   -0.0110 N   0  0  0  0  0  0  0  0  0  0  0  0
    3.9374   -1.3841   -1.7543 C   0  0  0  0  0  0  0  0  0  0  0  0
    3.1952   -1.1172   -0.4339 C   0  0  0  0  0  0  0  0  0  0  0  0
    2.2598    0.7912    0.9335 C   0  0  0  0  0  0  0  0  0  0  0  0
    2.3399    0.0287    1.9351 O   0  0  0  0  0  0  0  0  0  0  0  0
    2.1515    2.1704    1.1741 O   0  0  0  0  0  0  0  0  0  0  0  0
    1.0242    2.9605    0.7915 C   0  0  0  0  0  0  0  0  0  0  0  0
    0.0114    3.1364    1.9616 C   0  0  0  0  0  0  0  0  0  0  0  0
    0.1046    2.1306    2.9365 O   0  0  0  0  0  0  0  0  0  0  0  0
   -1.4612    3.3729    1.5192 C   0  0  0  0  0  0  0  0  0  0  0  0
   -1.5055    4.5738    0.7888 O   0  0  0  0  0  0  0  0  0  0  0  0
   -2.1114    2.2430    0.6708 C   0  0  0  0  0  0  0  0  0  0  0  0
   -2.7592    1.1123    1.4880 C   0  0  0  0  0  0  0  0  0  0  0  0
   -5.8156   -2.5426   -0.5150 N   0  0  0  0  0  0  0  0  0  0  0  0
   -7.5887   -4.1342    1.3500 H   0  0  0  0  0  0  0  0  0  0  0  0
   -6.5574   -5.0227    0.1552 H   0  0  0  0  0  0  0  0  0  0  0  0
   -8.3098   -4.7508   -0.1919 H   0  0  0  0  0  0  0  0  0  0  0  0
   -8.9272    0.0375   -1.9577 H   0  0  0  0  0  0  0  0  0  0  0  0
   -7.4941    0.9883   -1.4122 H   0  0  0  0  0  0  0  0  0  0  0  0
   -7.4680    0.1444   -3.0145 H   0  0  0  0  0  0  0  0  0  0  0  0
   -5.0736    0.1851   -2.2625 H   0  0  0  0  0  0  0  0  0  0  0  0
   -3.9579   -1.1051   -1.7881 H   0  0  0  0  0  0  0  0  0  0  0  0
   -3.2559   -2.0361    0.2400 H   0  0  0  0  0  0  0  0  0  0  0  0
   -2.1266   -1.5073    1.4805 H   0  0  0  0  0  0  0  0  0  0  0  0
   -1.7064   -0.4279   -1.3601 H   0  0  0  0  0  0  0  0  0  0  0  0
   -1.3507   -2.1563   -1.0758 H   0  0  0  0  0  0  0  0  0  0  0  0
    0.3915   -1.7388    0.4602 H   0  0  0  0  0  0  0  0  0  0  0  0
   -0.2117   -0.1069    0.8509 H   0  0  0  0  0  0  0  0  0  0  0  0
    0.9711   -0.8652   -1.8740 H   0  0  0  0  0  0  0  0  0  0  0  0
    0.3876    0.7353   -1.3983 H   0  0  0  0  0  0  0  0  0  0  0  0
    2.7113    2.2575   -1.2335 H   0  0  0  0  0  0  0  0  0  0  0  0
    2.5621    1.0412   -2.5083 H   0  0  0  0  0  0  0  0  0  0  0  0
    4.8921    1.8563   -2.1981 H   0  0  0  0  0  0  0  0  0  0  0  0
    4.8961    1.1711   -0.5343 H   0  0  0  0  0  0  0  0  0  0  0  0
    6.8575    0.2412   -2.5266 H   0  0  0  0  0  0  0  0  0  0  0  0
    6.4970   -1.4888   -2.6335 H   0  0  0  0  0  0  0  0  0  0  0  0
    7.5739    1.2195   -0.4000 H   0  0  0  0  0  0  0  0  0  0  0  0
    8.3480    0.8271    1.9173 H   0  0  0  0  0  0  0  0  0  0  0  0
    7.9601   -1.3796    2.9954 H   0  0  0  0  0  0  0  0  0  0  0  0
    6.7978   -3.1703    1.7190 H   0  0  0  0  0  0  0  0  0  0  0  0
    4.4915   -2.3452   -1.6747 H   0  0  0  0  0  0  0  0  0  0  0  0
    3.1916   -1.5284   -2.5644 H   0  0  0  0  0  0  0  0  0  0  0  0
    2.5865   -2.0088   -0.1753 H   0  0  0  0  0  0  0  0  0  0  0  0
    3.9728   -1.0356    0.3570 H   0  0  0  0  0  0  0  0  0  0  0  0
    0.5669    2.5578   -0.1231 H   0  0  0  0  0  0  0  0  0  0  0  0
    1.3977    3.9671    0.5055 H   0  0  0  0  0  0  0  0  0  0  0  0
    0.3199    4.0693    2.4850 H   0  0  0  0  0  0  0  0  0  0  0  0
    0.0524    1.2605    2.4823 H   0  0  0  0  0  0  0  0  0  0  0  0
   -2.0631    3.5007    2.4513 H   0  0  0  0  0  0  0  0  0  0  0  0
   -2.4272    4.9337    0.8739 H   0  0  0  0  0  0  0  0  0  0  0  0
   -1.4033    1.8058   -0.0507 H   0  0  0  0  0  0  0  0  0  0  0  0
   -2.9133    2.6981    0.0521 H   0  0  0  0  0  0  0  0  0  0  0  0
   -3.5959    1.5173    2.0964 H   0  0  0  0  0  0  0  0  0  0  0  0
   -2.0368    0.6832    2.2058 H   0  0  0  0  0  0  0  0  0  0  0  0
  1  2  1  0
  2  3  1  0
  3  4  2  0
  4  5  1  0
  4  6  1  0
  6  7  1  0
  7  8  1  0
  8  9  2  0
  8 10  1  0
 10 11  1  0
 11 12  1  0
 12 13  1  0
 13 14  1  0
 14 15  1  0
 15 16  1  0
 16 17  1  0
 17 18  1  0
 18 19  1  0
 19 20  1  0
 20 21  2  0
 21 22  1  0
 22 23  2  0
 23 24  1  0
 24 25  2  0
 18 26  1  0
 26 27  1  0
 15 28  1  0
 28 29  2  0
 28 30  1  0
 30 31  1  0
 31 32  1  0
 32 33  1  0
 32 34  1  0
 34 35  1  0
 34 36  1  0
 36 37  1  0
  6 38  1  0
 38  2  2  0
 37 10  1  0
 27 15  1  0
 25 20  1  0
  1 39  1  0
  1 40  1  0
  1 41  1  0
  5 42  1  0
  5 43  1  0
  5 44  1  0
  7 45  1  0
  7 46  1  0
 11 47  1  0
 11 48  1  0
 12 49  1  0
 12 50  1  0
 13 51  1  0
 13 52  1  0
 14 53  1  0
 14 54  1  0
 16 55  1  0
 16 56  1  0
 17 57  1  0
 17 58  1  0
 19 59  1  0
 19 60  1  0
 21 61  1  0
 22 62  1  0
 23 63  1  0
 24 64  1  0
 26 65  1  0
 26 66  1  0
 27 67  1  0
 27 68  1  0
 31 69  1  0
 31 70  1  0
 32 71  1  0
 33 72  1  0
 34 73  1  0
 35 74  1  0
 36 75  1  0
 36 76  1  0
 37 77  1  0
 37 78  1  0
M  END
$$$$
