
     RDKit          3D

 78 82  0  0  0  0  0  0  0  0999 V2000
   -3.5371    0.2728   -2.6754 O   0  0  0  0  0  0  0  0  0  0  0  0
   -3.8387   -0.0112   -1.4858 C   0  0  0  0  0  0  0  0  0  0  0  0
   -5.1968    0.2513   -0.9936 C   0  0  0  0  0  0  0  0  0  0  0  0
   -6.0282   -0.8098   -0.6128 C   0  0  0  0  0  0  0  0  0  0  0  0
   -7.2741   -0.5575   -0.1302 N   0  0  0  0  0  0  0  0  0  0  0  0
   -7.7387    0.7125    0.0215 C   0  0  0  0  0  0  0  0  0  0  0  0
   -9.0198    0.9351    0.5400 C   0  0  0  0  0  0  0  0  0  0  0  0
   -9.4897    2.2410    0.7217 C   0  0  0  0  0  0  0  0  0  0  0  0
   -8.6765    3.3288    0.3919 C   0  0  0  0  0  0  0  0  0  0  0  0
   -7.4003    3.1176   -0.1440 C   0  0  0  0  0  0  0  0  0  0  0  0
   -6.9267    1.8117   -0.3386 C   0  0  0  0  0  0  0  0  0  0  0  0
   -5.6522    1.5689   -0.8613 C   0  0  0  0  0  0  0  0  0  0  0  0
   -2.8524   -0.5737   -0.6113 N   0  0  0  0  0  0  0  0  0  0  0  0
   -2.6124    0.1086    0.6828 C   0  0  0  0  0  0  0  0  0  0  0  0
   -1.9687    1.5046    0.4904 C   0  0  0  0  0  0  0  0  0  0  0  0
   -0.5463    1.4657   -0.0998 C   0  0  0  0  0  0  0  0  0  0  0  0
    0.5253    1.0775    0.9504 C   0  0  0  0  0  0  0  0  0  0  0  0
    1.9926    0.9588    0.4082 C   0  0  0  0  0  0  0  0  0  0  0  0
    2.8517    0.1555    1.4431 C   0  0  0  0  0  0  0  0  0  0  0  0
    4.1853    0.8318    1.8107 C   0  0  0  0  0  0  0  0  0  0  0  0
    4.8920    1.3850    0.6374 N   0  0  0  0  0  0  0  0  0  0  0  0
    5.4989    0.3454   -0.2262 C   0  0  0  0  0  0  0  0  0  0  0  0
    6.6394   -0.3279    0.4860 C   0  0  0  0  0  0  0  0  0  0  0  0
    7.8421    0.3625    0.7193 C   0  0  0  0  0  0  0  0  0  0  0  0
    8.8563   -0.2596    1.4521 C   0  0  0  0  0  0  0  0  0  0  0  0
    8.6659   -1.5490    1.9439 C   0  0  0  0  0  0  0  0  0  0  0  0
    7.4577   -2.2076    1.6887 C   0  0  0  0  0  0  0  0  0  0  0  0
    6.4774   -1.5872    0.9801 N   0  0  0  0  0  0  0  0  0  0  0  0
    4.0838    2.3720   -0.1265 C   0  0  0  0  0  0  0  0  0  0  0  0
    2.5859    2.3918    0.2505 C   0  0  0  0  0  0  0  0  0  0  0  0
    1.9902    0.2258   -0.9334 C   0  0  0  0  0  0  0  0  0  0  0  0
    2.1446    0.8738   -2.0093 O   0  0  0  0  0  0  0  0  0  0  0  0
    1.6462   -1.1301   -1.0004 O   0  0  0  0  0  0  0  0  0  0  0  0
    1.0875   -1.6826   -2.1910 C   0  0  0  0  0  0  0  0  0  0  0  0
    0.5860   -3.1314   -2.0051 C   0  0  0  0  0  0  0  0  0  0  0  0
    1.6957   -3.9889   -2.1062 O   0  0  0  0  0  0  0  0  0  0  0  0
   -0.1847   -3.4312   -0.6831 C   0  0  0  0  0  0  0  0  0  0  0  0
   -0.9644   -4.5841   -0.8746 O   0  0  0  0  0  0  0  0  0  0  0  0
   -1.0704   -2.2948   -0.1255 C   0  0  0  0  0  0  0  0  0  0  0  0
   -2.2417   -1.8581   -1.0198 C   0  0  0  0  0  0  0  0  0  0  0  0
   -5.6935   -1.8375   -0.7072 H   0  0  0  0  0  0  0  0  0  0  0  0
   -9.6490    0.0988    0.8082 H   0  0  0  0  0  0  0  0  0  0  0  0
  -10.4765    2.4093    1.1291 H   0  0  0  0  0  0  0  0  0  0  0  0
   -9.0397    4.3388    0.5437 H   0  0  0  0  0  0  0  0  0  0  0  0
   -6.7770    3.9659   -0.3914 H   0  0  0  0  0  0  0  0  0  0  0  0
   -5.0022    2.3992   -1.1294 H   0  0  0  0  0  0  0  0  0  0  0  0
   -3.5839    0.2415    1.2098 H   0  0  0  0  0  0  0  0  0  0  0  0
   -2.0056   -0.4938    1.3824 H   0  0  0  0  0  0  0  0  0  0  0  0
   -1.9564    2.0426    1.4614 H   0  0  0  0  0  0  0  0  0  0  0  0
   -2.6191    2.0995   -0.1883 H   0  0  0  0  0  0  0  0  0  0  0  0
   -0.5454    0.7674   -0.9628 H   0  0  0  0  0  0  0  0  0  0  0  0
   -0.3100    2.4793   -0.4894 H   0  0  0  0  0  0  0  0  0  0  0  0
    0.4954    1.8356    1.7673 H   0  0  0  0  0  0  0  0  0  0  0  0
    0.2327    0.1263    1.4350 H   0  0  0  0  0  0  0  0  0  0  0  0
    2.2956    0.0176    2.3969 H   0  0  0  0  0  0  0  0  0  0  0  0
    3.0667   -0.8768    1.0873 H   0  0  0  0  0  0  0  0  0  0  0  0
    3.9933    1.6532    2.5354 H   0  0  0  0  0  0  0  0  0  0  0  0
    4.8273    0.1095    2.3585 H   0  0  0  0  0  0  0  0  0  0  0  0
    5.9129    0.8054   -1.1553 H   0  0  0  0  0  0  0  0  0  0  0  0
    4.7428   -0.4096   -0.5371 H   0  0  0  0  0  0  0  0  0  0  0  0
    7.9862    1.3715    0.3382 H   0  0  0  0  0  0  0  0  0  0  0  0
    9.7793    0.2664    1.6523 H   0  0  0  0  0  0  0  0  0  0  0  0
    9.4472   -2.0382    2.5092 H   0  0  0  0  0  0  0  0  0  0  0  0
    7.2893   -3.2061    2.0729 H   0  0  0  0  0  0  0  0  0  0  0  0
    4.4978    3.3828    0.0716 H   0  0  0  0  0  0  0  0  0  0  0  0
    4.1703    2.2186   -1.2240 H   0  0  0  0  0  0  0  0  0  0  0  0
    2.0302    2.9792   -0.5103 H   0  0  0  0  0  0  0  0  0  0  0  0
    2.4697    2.9504    1.2056 H   0  0  0  0  0  0  0  0  0  0  0  0
    1.8515   -1.6539   -2.9961 H   0  0  0  0  0  0  0  0  0  0  0  0
    0.2439   -1.0457   -2.5253 H   0  0  0  0  0  0  0  0  0  0  0  0
   -0.1019   -3.3394   -2.8582 H   0  0  0  0  0  0  0  0  0  0  0  0
    1.3465   -4.9062   -2.2757 H   0  0  0  0  0  0  0  0  0  0  0  0
    0.5851   -3.6312    0.0977 H   0  0  0  0  0  0  0  0  0  0  0  0
   -1.1608   -4.9520    0.0290 H   0  0  0  0  0  0  0  0  0  0  0  0
   -1.4860   -2.6365    0.8483 H   0  0  0  0  0  0  0  0  0  0  0  0
   -0.4325   -1.4301    0.0850 H   0  0  0  0  0  0  0  0  0  0  0  0
   -3.0208   -2.6522   -0.9960 H   0  0  0  0  0  0  0  0  0  0  0  0
   -1.8879   -1.7635   -2.0655 H   0  0  0  0  0  0  0  0  0  0  0  0
  1  2  2  0
  2  3  1  0
  3  4  2  0
  4  5  1  0
  5  6  2  0
  6  7  1  0
  7  8  2  0
  8  9  1  0
  9 10  2  0
 10 11  1  0
 11 12  2  0
  2 13  1  0
 13 14  1  0
 14 15  1  0
 15 16  1  0
 16 17  1  0
 17 18  1  0
 18 19  1  0
 19 20  1  0
 20 21  1  0
 21 22  1  0
 22 23  1  0
 23 24  2  0
 24 25  1  0
 25 26  2  0
 26 27  1  0
 27 28  2  0
 21 29  1  0
 29 30  1  0
 18 31  1  0
 31 32  2  0
 31 33  1  0
 33 34  1  0
 34 35  1  0
 35 36  1  0
 35 37  1  0
 37 38  1  0
 37 39  1  0
 39 40  1  0
 12  3  1  0
 40 13  1  0
 11  6  1  0
 30 18  1  0
 28 23  1  0
  4 41  1  0
  7 42  1  0
  8 43  1  0
  9 44  1  0
 10 45  1  0
 12 46  1  0
 14 47  1  0
 14 48  1  0
 15 49  1  0
 15 50  1  0
 16 51  1  0
 16 52  1  0
 17 53  1  0
 17 54  1  0
 19 55  1  0
 19 56  1  0
 20 57  1  0
 20 58  1  0
 22 59  1  0
 22 60  1  0
 24 61  1  0
 25 62  1  0
 26 63  1  0
 27 64  1  0
 29 65  1  0
 29 66  1  0
 30 67  1  0
 30 68  1  0
 34 69  1  0
 34 70  1  0
 35 71  1  0
 36 72  1  0
 37 73  1  0
 38 74  1  0
 39 75  1  0
 39 76  1  0
 40 77  1  0
 40 78  1  0
M  END
$$$$
