
     RDKit          3D

 75 79  0  0  0  0  0  0  0  0999 V2000
   -2.0381   -4.9842    2.6361 C   0  0  0  0  0  0  0  0  0  0  0  0
   -2.4007   -3.5629    2.2162 C   0  0  0  0  0  0  0  0  0  0  0  0
   -1.2598   -2.5843    2.5275 C   0  0  0  0  0  0  0  0  0  0  0  0
   -1.6238   -1.1359    2.1690 C   0  0  0  0  0  0  0  0  0  0  0  0
   -2.0087   -0.9939    0.7564 N   0  0  0  0  0  0  0  0  0  0  0  0
   -3.4234   -0.6696    0.4612 C   0  0  0  0  0  0  0  0  0  0  0  0
   -3.7723   -0.5612   -1.0425 C   0  0  0  0  0  0  0  0  0  0  0  0
   -4.7308    0.4695   -1.3169 O   0  0  0  0  0  0  0  0  0  0  0  0
   -4.6463    1.7987   -0.8653 C   0  0  0  0  0  0  0  0  0  0  0  0
   -5.5423    2.1897    0.1395 C   0  0  0  0  0  0  0  0  0  0  0  0
   -5.5473    3.4976    0.6245 C   0  0  0  0  0  0  0  0  0  0  0  0
   -4.6716    4.4415    0.0926 C   0  0  0  0  0  0  0  0  0  0  0  0
   -3.7870    4.0805   -0.9241 C   0  0  0  0  0  0  0  0  0  0  0  0
   -3.7410    2.7574   -1.4069 C   0  0  0  0  0  0  0  0  0  0  0  0
   -2.8308    2.4422   -2.5763 C   0  0  0  0  0  0  0  0  0  0  0  0
   -1.3630    2.9237   -2.4358 C   0  0  0  0  0  0  0  0  0  0  0  0
   -0.6578    2.7459   -1.0658 C   0  0  0  0  0  0  0  0  0  0  0  0
   -0.8953    1.4205   -0.3065 C   0  0  0  0  0  0  0  0  0  0  0  0
   -0.3308    0.1083   -0.9391 C   0  0  0  0  0  0  0  0  0  0  0  0
    1.2074    0.0851   -0.7169 C   0  0  0  0  0  0  0  0  0  0  0  0
    1.8243   -0.9471   -1.5467 N   0  0  0  0  0  0  0  0  0  0  0  0
    2.9420   -1.7184   -1.0734 C   0  0  0  0  0  0  0  0  0  0  0  0
    2.9809   -2.9549   -1.3140 O   0  0  0  0  0  0  0  0  0  0  0  0
    4.0337   -1.0968   -0.2912 C   0  0  0  0  0  0  0  0  0  0  0  0
    4.7201   -1.8232    0.6909 C   0  0  0  0  0  0  0  0  0  0  0  0
    5.7159   -1.2336    1.4021 N   0  0  0  0  0  0  0  0  0  0  0  0
    6.0706    0.0597    1.1771 C   0  0  0  0  0  0  0  0  0  0  0  0
    7.1696    0.7172    1.9644 C   0  0  0  0  0  0  0  0  0  0  0  0
    8.0030   -0.1550    2.8942 C   0  0  0  0  0  0  0  0  0  0  0  0
    8.5598    0.2627    1.5450 C   0  0  0  0  0  0  0  0  0  0  0  0
    5.4391    0.7698    0.2061 N   0  0  0  0  0  0  0  0  0  0  0  0
    4.4395    0.2218   -0.5300 C   0  0  0  0  0  0  0  0  0  0  0  0
    1.4514   -0.9878   -2.9560 C   0  0  0  0  0  0  0  0  0  0  0  0
   -0.0701   -0.9283   -3.0857 C   0  0  0  0  0  0  0  0  0  0  0  0
   -0.6382    0.1310   -2.3329 O   0  0  0  0  0  0  0  0  0  0  0  0
   -0.9690   -1.1155   -0.2422 C   0  0  0  0  0  0  0  0  0  0  0  0
   -0.5194   -2.2676   -0.4857 O   0  0  0  0  0  0  0  0  0  0  0  0
   -1.8547   -5.0307    3.7320 H   0  0  0  0  0  0  0  0  0  0  0  0
   -1.1290   -5.3234    2.0945 H   0  0  0  0  0  0  0  0  0  0  0  0
   -2.8758   -5.6690    2.3859 H   0  0  0  0  0  0  0  0  0  0  0  0
   -2.6134   -3.5613    1.1238 H   0  0  0  0  0  0  0  0  0  0  0  0
   -3.3207   -3.2505    2.7553 H   0  0  0  0  0  0  0  0  0  0  0  0
   -1.0304   -2.6264    3.6154 H   0  0  0  0  0  0  0  0  0  0  0  0
   -0.3384   -2.8891    1.9876 H   0  0  0  0  0  0  0  0  0  0  0  0
   -2.4510   -0.8002    2.8345 H   0  0  0  0  0  0  0  0  0  0  0  0
   -0.7532   -0.4766    2.3838 H   0  0  0  0  0  0  0  0  0  0  0  0
   -3.6736    0.2720    0.9888 H   0  0  0  0  0  0  0  0  0  0  0  0
   -4.0752   -1.4484    0.9118 H   0  0  0  0  0  0  0  0  0  0  0  0
   -4.2026   -1.5294   -1.3740 H   0  0  0  0  0  0  0  0  0  0  0  0
   -2.8951   -0.4160   -1.6755 H   0  0  0  0  0  0  0  0  0  0  0  0
   -6.2389    1.4686    0.5496 H   0  0  0  0  0  0  0  0  0  0  0  0
   -6.2410    3.7837    1.4034 H   0  0  0  0  0  0  0  0  0  0  0  0
   -4.6888    5.4602    0.4574 H   0  0  0  0  0  0  0  0  0  0  0  0
   -3.1440    4.8447   -1.3417 H   0  0  0  0  0  0  0  0  0  0  0  0
   -3.2632    2.9356   -3.4733 H   0  0  0  0  0  0  0  0  0  0  0  0
   -2.8360    1.3710   -2.8242 H   0  0  0  0  0  0  0  0  0  0  0  0
   -0.7531    2.4316   -3.2223 H   0  0  0  0  0  0  0  0  0  0  0  0
   -1.3300    4.0054   -2.6901 H   0  0  0  0  0  0  0  0  0  0  0  0
    0.4291    2.9186   -1.2030 H   0  0  0  0  0  0  0  0  0  0  0  0
   -1.0037    3.5673   -0.4010 H   0  0  0  0  0  0  0  0  0  0  0  0
   -0.4718    1.5325    0.7160 H   0  0  0  0  0  0  0  0  0  0  0  0
   -1.9768    1.3510   -0.1573 H   0  0  0  0  0  0  0  0  0  0  0  0
    1.4309   -0.0952    0.3588 H   0  0  0  0  0  0  0  0  0  0  0  0
    1.6535    1.0592   -0.9956 H   0  0  0  0  0  0  0  0  0  0  0  0
    4.4509   -2.8507    0.9087 H   0  0  0  0  0  0  0  0  0  0  0  0
    7.1028    1.7977    2.2073 H   0  0  0  0  0  0  0  0  0  0  0  0
    7.7422   -1.2311    2.9527 H   0  0  0  0  0  0  0  0  0  0  0  0
    8.4572    0.3890    3.7497 H   0  0  0  0  0  0  0  0  0  0  0  0
    9.3435    1.0465    1.6069 H   0  0  0  0  0  0  0  0  0  0  0  0
    8.6054   -0.5645    0.8035 H   0  0  0  0  0  0  0  0  0  0  0  0
    3.9795    0.8099   -1.3140 H   0  0  0  0  0  0  0  0  0  0  0  0
    1.8236   -1.9161   -3.4408 H   0  0  0  0  0  0  0  0  0  0  0  0
    1.9020   -0.1143   -3.4749 H   0  0  0  0  0  0  0  0  0  0  0  0
   -0.3137   -0.7529   -4.1543 H   0  0  0  0  0  0  0  0  0  0  0  0
   -0.5364   -1.9014   -2.8345 H   0  0  0  0  0  0  0  0  0  0  0  0
  1  2  1  0
  2  3  1  0
  3  4  1  0
  4  5  1  0
  5  6  1  0
  6  7  1  0
  7  8  1  0
  8  9  1  0
  9 10  2  0
 10 11  1  0
 11 12  2  0
 12 13  1  0
 13 14  2  0
 14 15  1  0
 15 16  1  0
 16 17  1  0
 17 18  1  0
 18 19  1  0
 19 20  1  0
 20 21  1  0
 21 22  1  0
 22 23  2  0
 22 24  1  0
 24 25  2  0
 25 26  1  0
 26 27  2  0
 27 28  1  0
 28 29  1  0
 29 30  1  0
 27 31  1  0
 31 32  2  0
 21 33  1  0
 33 34  1  0
 34 35  1  0
 19 36  1  0
 36 37  2  0
 36  5  1  0
 14  9  1  0
 35 19  1  0
 32 24  1  0
 30 28  1  0
  1 38  1  0
  1 39  1  0
  1 40  1  0
  2 41  1  0
  2 42  1  0
  3 43  1  0
  3 44  1  0
  4 45  1  0
  4 46  1  0
  6 47  1  0
  6 48  1  0
  7 49  1  0
  7 50  1  0
 10 51  1  0
 11 52  1  0
 12 53  1  0
 13 54  1  0
 15 55  1  0
 15 56  1  0
 16 57  1  0
 16 58  1  0
 17 59  1  0
 17 60  1  0
 18 61  1  0
 18 62  1  0
 20 63  1  0
 20 64  1  0
 25 65  1  0
 28 66  1  0
 29 67  1  0
 29 68  1  0
 30 69  1  0
 30 70  1  0
 32 71  1  0
 33 72  1  0
 33 73  1  0
 34 74  1  0
 34 75  1  0
M  END
$$$$
