
     RDKit          3D

 70 74  0  0  0  0  0  0  0  0999 V2000
    5.4902    1.3411   -0.8857 C   0  0  0  0  0  0  0  0  0  0  0  0
    4.3934    0.6987   -0.0899 C   0  0  0  0  0  0  0  0  0  0  0  0
    3.2526    0.0831   -0.5802 C   0  0  0  0  0  0  0  0  0  0  0  0
    2.9203   -0.2229   -1.9886 C   0  0  0  0  0  0  0  0  0  0  0  0
    3.8045   -0.0863   -2.8751 O   0  0  0  0  0  0  0  0  0  0  0  0
    1.6238   -0.7217   -2.3599 N   0  0  0  0  0  0  0  0  0  0  0  0
    1.5244   -1.6454   -3.4959 C   0  0  0  0  0  0  0  0  0  0  0  0
    0.0636   -2.0085   -3.7485 C   0  0  0  0  0  0  0  0  0  0  0  0
   -0.5820   -2.2291   -2.5119 O   0  0  0  0  0  0  0  0  0  0  0  0
   -0.8077   -1.0147   -1.7899 C   0  0  0  0  0  0  0  0  0  0  0  0
   -0.9677   -1.4042   -0.2922 C   0  0  0  0  0  0  0  0  0  0  0  0
   -1.8351   -2.6692   -0.0408 C   0  0  0  0  0  0  0  0  0  0  0  0
   -2.8398   -2.5204    1.1207 C   0  0  0  0  0  0  0  0  0  0  0  0
   -4.1852   -1.9126    0.6673 C   0  0  0  0  0  0  0  0  0  0  0  0
   -4.6972   -0.8688    1.6290 C   0  0  0  0  0  0  0  0  0  0  0  0
   -5.6002   -1.2173    2.6482 C   0  0  0  0  0  0  0  0  0  0  0  0
   -6.1311   -0.2294    3.4814 C   0  0  0  0  0  0  0  0  0  0  0  0
   -5.7723    1.1109    3.3003 C   0  0  0  0  0  0  0  0  0  0  0  0
   -4.8656    1.4653    2.2984 C   0  0  0  0  0  0  0  0  0  0  0  0
   -4.3136    0.4767    1.4686 C   0  0  0  0  0  0  0  0  0  0  0  0
   -3.3606    0.7933    0.4965 O   0  0  0  0  0  0  0  0  0  0  0  0
   -3.4524    1.9023   -0.3942 C   0  0  0  0  0  0  0  0  0  0  0  0
   -2.1911    1.9581   -1.2633 C   0  0  0  0  0  0  0  0  0  0  0  0
   -2.2956    1.0465   -2.4187 N   0  0  0  0  0  0  0  0  0  0  0  0
   -2.7371    1.5668   -3.7174 C   0  0  0  0  0  0  0  0  0  0  0  0
   -2.1108   -0.3816   -2.2914 C   0  0  0  0  0  0  0  0  0  0  0  0
   -3.0365   -1.1431   -2.6858 O   0  0  0  0  0  0  0  0  0  0  0  0
    0.4054   -0.0187   -1.9342 C   0  0  0  0  0  0  0  0  0  0  0  0
    2.4986   -0.2868    0.4753 N   0  0  0  0  0  0  0  0  0  0  0  0
    3.1442    0.0906    1.5693 N   0  0  0  0  0  0  0  0  0  0  0  0
    4.2981    0.6637    1.2566 N   0  0  0  0  0  0  0  0  0  0  0  0
    5.2380    1.1370    2.2337 C   0  0  0  0  0  0  0  0  0  0  0  0
    6.6123    0.8781    2.0958 C   0  0  0  0  0  0  0  0  0  0  0  0
    7.5174    1.3462    3.0538 C   0  0  0  0  0  0  0  0  0  0  0  0
    7.0567    2.0570    4.1673 C   0  0  0  0  0  0  0  0  0  0  0  0
    5.6867    2.2905    4.3294 C   0  0  0  0  0  0  0  0  0  0  0  0
    4.7808    1.8303    3.3679 C   0  0  0  0  0  0  0  0  0  0  0  0
    5.0640    1.8734   -1.7614 H   0  0  0  0  0  0  0  0  0  0  0  0
    6.2020    0.5640   -1.2340 H   0  0  0  0  0  0  0  0  0  0  0  0
    6.0313    2.0905   -0.2766 H   0  0  0  0  0  0  0  0  0  0  0  0
    1.9568   -1.1842   -4.4149 H   0  0  0  0  0  0  0  0  0  0  0  0
    2.0965   -2.5743   -3.2620 H   0  0  0  0  0  0  0  0  0  0  0  0
    0.0210   -2.9421   -4.3472 H   0  0  0  0  0  0  0  0  0  0  0  0
   -0.4456   -1.2109   -4.3402 H   0  0  0  0  0  0  0  0  0  0  0  0
   -1.3402   -0.5368    0.2886 H   0  0  0  0  0  0  0  0  0  0  0  0
    0.0427   -1.6197    0.1273 H   0  0  0  0  0  0  0  0  0  0  0  0
   -1.1469   -3.5046    0.2025 H   0  0  0  0  0  0  0  0  0  0  0  0
   -2.3709   -2.9916   -0.9510 H   0  0  0  0  0  0  0  0  0  0  0  0
   -3.0655   -3.5376    1.4964 H   0  0  0  0  0  0  0  0  0  0  0  0
   -2.3840   -1.9635    1.9644 H   0  0  0  0  0  0  0  0  0  0  0  0
   -4.9415   -2.7259    0.5549 H   0  0  0  0  0  0  0  0  0  0  0  0
   -4.0921   -1.4543   -0.3375 H   0  0  0  0  0  0  0  0  0  0  0  0
   -5.9062   -2.2507    2.7829 H   0  0  0  0  0  0  0  0  0  0  0  0
   -6.8298   -0.4996    4.2631 H   0  0  0  0  0  0  0  0  0  0  0  0
   -6.1854    1.8740    3.9456 H   0  0  0  0  0  0  0  0  0  0  0  0
   -4.5717    2.4997    2.1956 H   0  0  0  0  0  0  0  0  0  0  0  0
   -3.5290    2.8505    0.1818 H   0  0  0  0  0  0  0  0  0  0  0  0
   -4.3646    1.8037   -1.0277 H   0  0  0  0  0  0  0  0  0  0  0  0
   -1.3008    1.7242   -0.6491 H   0  0  0  0  0  0  0  0  0  0  0  0
   -2.0539    3.0080   -1.6135 H   0  0  0  0  0  0  0  0  0  0  0  0
   -3.7071    1.0932   -3.9994 H   0  0  0  0  0  0  0  0  0  0  0  0
   -2.8809    2.6772   -3.6928 H   0  0  0  0  0  0  0  0  0  0  0  0
   -1.9664    1.3366   -4.4874 H   0  0  0  0  0  0  0  0  0  0  0  0
    0.5786    0.5406   -0.9933 H   0  0  0  0  0  0  0  0  0  0  0  0
    0.1929    0.7481   -2.7101 H   0  0  0  0  0  0  0  0  0  0  0  0
    6.9845    0.3053    1.2555 H   0  0  0  0  0  0  0  0  0  0  0  0
    8.5742    1.1564    2.9332 H   0  0  0  0  0  0  0  0  0  0  0  0
    7.7581    2.4210    4.9056 H   0  0  0  0  0  0  0  0  0  0  0  0
    5.3250    2.8268    5.2018 H   0  0  0  0  0  0  0  0  0  0  0  0
    3.7256    2.0216    3.5028 H   0  0  0  0  0  0  0  0  0  0  0  0
  1  2  1  0
  2  3  2  0
  3  4  1  0
  4  5  2  0
  4  6  1  0
  6  7  1  0
  7  8  1  0
  8  9  1  0
  9 10  1  0
 10 11  1  0
 11 12  1  0
 12 13  1  0
 13 14  1  0
 14 15  1  0
 15 16  2  0
 16 17  1  0
 17 18  2  0
 18 19  1  0
 19 20  2  0
 20 21  1  0
 21 22  1  0
 22 23  1  0
 23 24  1  0
 24 25  1  0
 24 26  1  0
 26 27  2  0
 10 28  1  0
  3 29  1  0
 29 30  2  0
 30 31  1  0
 31 32  1  0
 32 33  2  0
 33 34  1  0
 34 35  2  0
 35 36  1  0
 36 37  2  0
 31  2  1  0
 37 32  1  0
 28  6  1  0
 26 10  1  0
 20 15  1  0
  1 38  1  0
  1 39  1  0
  1 40  1  0
  7 41  1  0
  7 42  1  0
  8 43  1  0
  8 44  1  0
 11 45  1  0
 11 46  1  0
 12 47  1  0
 12 48  1  0
 13 49  1  0
 13 50  1  0
 14 51  1  0
 14 52  1  0
 16 53  1  0
 17 54  1  0
 18 55  1  0
 19 56  1  0
 22 57  1  0
 22 58  1  0
 23 59  1  0
 23 60  1  0
 25 61  1  0
 25 62  1  0
 25 63  1  0
 28 64  1  0
 28 65  1  0
 33 66  1  0
 34 67  1  0
 35 68  1  0
 36 69  1  0
 37 70  1  0
M  END
$$$$
