
     RDKit          3D

 74 77  0  0  0  0  0  0  0  0999 V2000
   -0.7192    5.5072    3.1340 C   0  0  0  0  0  0  0  0  0  0  0  0
   -1.8171    4.4591    3.0013 C   0  0  0  0  0  0  0  0  0  0  0  0
   -1.3841    3.3231    2.0644 C   0  0  0  0  0  0  0  0  0  0  0  0
   -2.5209    2.3100    1.8862 C   0  0  0  0  0  0  0  0  0  0  0  0
   -2.1063    1.2073    0.9991 N   0  0  0  0  0  0  0  0  0  0  0  0
   -2.9069    0.9641   -0.2253 C   0  0  0  0  0  0  0  0  0  0  0  0
   -4.3307    0.4520    0.1009 C   0  0  0  0  0  0  0  0  0  0  0  0
   -4.4560   -0.9698   -0.0273 O   0  0  0  0  0  0  0  0  0  0  0  0
   -4.5732   -1.6850   -1.2414 C   0  0  0  0  0  0  0  0  0  0  0  0
   -5.1337   -1.0957   -2.3961 C   0  0  0  0  0  0  0  0  0  0  0  0
   -5.3248   -1.8415   -3.5628 C   0  0  0  0  0  0  0  0  0  0  0  0
   -4.9356   -3.1805   -3.6133 C   0  0  0  0  0  0  0  0  0  0  0  0
   -4.3374   -3.7720   -2.4988 C   0  0  0  0  0  0  0  0  0  0  0  0
   -4.1680   -3.0475   -1.2995 C   0  0  0  0  0  0  0  0  0  0  0  0
   -3.5209   -3.7449   -0.1159 C   0  0  0  0  0  0  0  0  0  0  0  0
   -1.9773   -3.6366   -0.1291 C   0  0  0  0  0  0  0  0  0  0  0  0
   -1.5511   -2.1680   -0.1627 C   0  0  0  0  0  0  0  0  0  0  0  0
   -0.1933   -1.8441    0.4603 C   0  0  0  0  0  0  0  0  0  0  0  0
    0.0183   -0.3037    0.6166 C   0  0  0  0  0  0  0  0  0  0  0  0
    1.3974   -0.0880    1.3364 C   0  0  0  0  0  0  0  0  0  0  0  0
    2.4840    0.0105    0.3551 N   0  0  0  0  0  0  0  0  0  0  0  0
    3.7977   -0.5006    0.6677 C   0  0  0  0  0  0  0  0  0  0  0  0
    4.0866   -0.8011    1.8588 O   0  0  0  0  0  0  0  0  0  0  0  0
    4.8215   -0.7100   -0.3770 C   0  0  0  0  0  0  0  0  0  0  0  0
    4.4943   -1.4380   -1.5317 C   0  0  0  0  0  0  0  0  0  0  0  0
    5.4498   -1.6481   -2.5281 C   0  0  0  0  0  0  0  0  0  0  0  0
    6.7418   -1.1448   -2.3764 C   0  0  0  0  0  0  0  0  0  0  0  0
    7.0847   -0.4278   -1.2272 C   0  0  0  0  0  0  0  0  0  0  0  0
    6.1302   -0.2080   -0.2128 C   0  0  0  0  0  0  0  0  0  0  0  0
    6.4372    0.5165    0.9504 O   0  0  0  0  0  0  0  0  0  0  0  0
    7.6954    1.1392    1.2094 C   0  0  0  0  0  0  0  0  0  0  0  0
    2.2820    0.8910   -0.8026 C   0  0  0  0  0  0  0  0  0  0  0  0
    0.8328    1.3763   -0.8497 C   0  0  0  0  0  0  0  0  0  0  0  0
   -0.0297    0.2708   -0.6919 O   0  0  0  0  0  0  0  0  0  0  0  0
   -1.0986    0.2821    1.4907 C   0  0  0  0  0  0  0  0  0  0  0  0
   -1.1281   -0.0490    2.7066 O   0  0  0  0  0  0  0  0  0  0  0  0
   -0.5439    6.0021    2.1551 H   0  0  0  0  0  0  0  0  0  0  0  0
    0.2173    5.0373    3.4873 H   0  0  0  0  0  0  0  0  0  0  0  0
   -1.0380    6.2778    3.8675 H   0  0  0  0  0  0  0  0  0  0  0  0
   -2.7346    4.9468    2.6056 H   0  0  0  0  0  0  0  0  0  0  0  0
   -2.0366    4.0478    4.0098 H   0  0  0  0  0  0  0  0  0  0  0  0
   -1.1056    3.7360    1.0678 H   0  0  0  0  0  0  0  0  0  0  0  0
   -0.4983    2.8117    2.5005 H   0  0  0  0  0  0  0  0  0  0  0  0
   -2.8264    1.9021    2.8772 H   0  0  0  0  0  0  0  0  0  0  0  0
   -3.3995    2.8410    1.4608 H   0  0  0  0  0  0  0  0  0  0  0  0
   -2.9889    1.9277   -0.7800 H   0  0  0  0  0  0  0  0  0  0  0  0
   -2.4131    0.2707   -0.9280 H   0  0  0  0  0  0  0  0  0  0  0  0
   -5.0780    0.9767   -0.5328 H   0  0  0  0  0  0  0  0  0  0  0  0
   -4.5922    0.7219    1.1396 H   0  0  0  0  0  0  0  0  0  0  0  0
   -5.4421   -0.0572   -2.4110 H   0  0  0  0  0  0  0  0  0  0  0  0
   -5.7676   -1.3732   -4.4333 H   0  0  0  0  0  0  0  0  0  0  0  0
   -5.0823   -3.7503   -4.5231 H   0  0  0  0  0  0  0  0  0  0  0  0
   -4.0042   -4.7980   -2.5726 H   0  0  0  0  0  0  0  0  0  0  0  0
   -3.9186   -3.3272    0.8370 H   0  0  0  0  0  0  0  0  0  0  0  0
   -3.7936   -4.8217   -0.1228 H   0  0  0  0  0  0  0  0  0  0  0  0
   -1.5855   -4.1254    0.7908 H   0  0  0  0  0  0  0  0  0  0  0  0
   -1.5646   -4.1690   -1.0175 H   0  0  0  0  0  0  0  0  0  0  0  0
   -2.2893   -1.6245    0.4392 H   0  0  0  0  0  0  0  0  0  0  0  0
   -1.5619   -1.8098   -1.2142 H   0  0  0  0  0  0  0  0  0  0  0  0
   -0.1285   -2.3396    1.4510 H   0  0  0  0  0  0  0  0  0  0  0  0
    0.6062   -2.2655   -0.1808 H   0  0  0  0  0  0  0  0  0  0  0  0
    1.3835    0.8592    1.9101 H   0  0  0  0  0  0  0  0  0  0  0  0
    1.5870   -0.8985    2.0764 H   0  0  0  0  0  0  0  0  0  0  0  0
    3.4953   -1.8451   -1.6593 H   0  0  0  0  0  0  0  0  0  0  0  0
    5.1920   -2.2092   -3.4156 H   0  0  0  0  0  0  0  0  0  0  0  0
    7.4823   -1.3179   -3.1452 H   0  0  0  0  0  0  0  0  0  0  0  0
    8.0941   -0.0497   -1.1368 H   0  0  0  0  0  0  0  0  0  0  0  0
    7.9140    1.9001    0.4203 H   0  0  0  0  0  0  0  0  0  0  0  0
    7.6482    1.6485    2.1982 H   0  0  0  0  0  0  0  0  0  0  0  0
    8.5112    0.3726    1.2300 H   0  0  0  0  0  0  0  0  0  0  0  0
    2.9673    1.7627   -0.7452 H   0  0  0  0  0  0  0  0  0  0  0  0
    2.4832    0.3361   -1.7377 H   0  0  0  0  0  0  0  0  0  0  0  0
    0.6407    2.1458   -0.0715 H   0  0  0  0  0  0  0  0  0  0  0  0
    0.6301    1.8528   -1.8332 H   0  0  0  0  0  0  0  0  0  0  0  0
  1  2  1  0
  2  3  1  0
  3  4  1  0
  4  5  1  0
  5  6  1  0
  6  7  1  0
  7  8  1  0
  8  9  1  0
  9 10  2  0
 10 11  1  0
 11 12  2  0
 12 13  1  0
 13 14  2  0
 14 15  1  0
 15 16  1  0
 16 17  1  0
 17 18  1  0
 18 19  1  0
 19 20  1  0
 20 21  1  0
 21 22  1  0
 22 23  2  0
 22 24  1  0
 24 25  2  0
 25 26  1  0
 26 27  2  0
 27 28  1  0
 28 29  2  0
 29 30  1  0
 30 31  1  0
 21 32  1  0
 32 33  1  0
 33 34  1  0
 19 35  1  0
 35 36  2  0
 35  5  1  0
 14  9  1  0
 34 19  1  0
 29 24  1  0
  1 37  1  0
  1 38  1  0
  1 39  1  0
  2 40  1  0
  2 41  1  0
  3 42  1  0
  3 43  1  0
  4 44  1  0
  4 45  1  0
  6 46  1  0
  6 47  1  0
  7 48  1  0
  7 49  1  0
 10 50  1  0
 11 51  1  0
 12 52  1  0
 13 53  1  0
 15 54  1  0
 15 55  1  0
 16 56  1  0
 16 57  1  0
 17 58  1  0
 17 59  1  0
 18 60  1  0
 18 61  1  0
 20 62  1  0
 20 63  1  0
 25 64  1  0
 26 65  1  0
 27 66  1  0
 28 67  1  0
 31 68  1  0
 31 69  1  0
 31 70  1  0
 32 71  1  0
 32 72  1  0
 33 73  1  0
 33 74  1  0
M  END
$$$$
