
     RDKit          3D

 67 70  0  0  0  0  0  0  0  0999 V2000
    2.7856   -1.7220    0.0053 O   0  0  0  0  0  0  0  0  0  0  0  0
    2.6125   -0.4816   -0.1392 C   0  0  0  0  0  0  0  0  0  0  0  0
    1.3861   -0.0066   -0.8715 C   0  0  0  0  0  0  0  0  0  0  0  0
    0.8486    1.2341   -0.2662 N   0  0  0  0  0  0  0  0  0  0  0  0
    1.2477    2.4575   -0.9975 C   0  0  0  0  0  0  0  0  0  0  0  0
    0.2131    2.8728   -2.0557 C   0  0  0  0  0  0  0  0  0  0  0  0
   -0.5933    1.7749   -2.4342 O   0  0  0  0  0  0  0  0  0  0  0  0
   -1.4449    1.3509   -1.3725 C   0  0  0  0  0  0  0  0  0  0  0  0
   -2.0222   -0.0213   -1.8337 C   0  0  0  0  0  0  0  0  0  0  0  0
   -3.0986   -0.5672   -0.9334 C   0  0  0  0  0  0  0  0  0  0  0  0
   -2.8861   -1.5923   -0.0883 C   0  0  0  0  0  0  0  0  0  0  0  0
   -3.8767   -2.0110    0.9773 C   0  0  0  0  0  0  0  0  0  0  0  0
   -5.3223   -1.8078    0.5810 C   0  0  0  0  0  0  0  0  0  0  0  0
   -5.9941   -2.8068   -0.1412 C   0  0  0  0  0  0  0  0  0  0  0  0
   -7.3057   -2.6003   -0.5788 C   0  0  0  0  0  0  0  0  0  0  0  0
   -7.9508   -1.3910   -0.3130 C   0  0  0  0  0  0  0  0  0  0  0  0
   -7.2883   -0.3839    0.3917 C   0  0  0  0  0  0  0  0  0  0  0  0
   -5.9748   -0.5840    0.8395 C   0  0  0  0  0  0  0  0  0  0  0  0
   -5.3000    0.4319    1.5227 O   0  0  0  0  0  0  0  0  0  0  0  0
   -5.0558    1.7132    0.9444 C   0  0  0  0  0  0  0  0  0  0  0  0
   -3.5685    2.0515    1.0990 C   0  0  0  0  0  0  0  0  0  0  0  0
   -3.0997    2.8832   -0.0117 N   0  0  0  0  0  0  0  0  0  0  0  0
   -2.6083    2.3524   -1.2588 C   0  0  0  0  0  0  0  0  0  0  0  0
   -3.1232    2.7838   -2.3275 O   0  0  0  0  0  0  0  0  0  0  0  0
   -0.6124    1.1990   -0.0398 C   0  0  0  0  0  0  0  0  0  0  0  0
    3.6034    0.4364    0.3507 N   0  0  0  0  0  0  0  0  0  0  0  0
    4.8475   -0.0212    0.9663 C   0  0  0  0  0  0  0  0  0  0  0  0
    5.8408   -0.4703   -0.1093 C   0  0  0  0  0  0  0  0  0  0  0  0
    7.0773   -1.0528    0.5200 C   0  0  0  0  0  0  0  0  0  0  0  0
    8.1101   -0.2104    0.9650 C   0  0  0  0  0  0  0  0  0  0  0  0
    9.2431   -0.7510    1.5803 C   0  0  0  0  0  0  0  0  0  0  0  0
    9.3507   -2.1330    1.7597 C   0  0  0  0  0  0  0  0  0  0  0  0
    8.3238   -2.9763    1.3271 C   0  0  0  0  0  0  0  0  0  0  0  0
    7.1865   -2.4399    0.7165 C   0  0  0  0  0  0  0  0  0  0  0  0
    0.6472   -0.8334   -0.8128 H   0  0  0  0  0  0  0  0  0  0  0  0
    1.6293    0.1284   -1.9497 H   0  0  0  0  0  0  0  0  0  0  0  0
    2.2433    2.3307   -1.4813 H   0  0  0  0  0  0  0  0  0  0  0  0
    1.3614    3.2877   -0.2647 H   0  0  0  0  0  0  0  0  0  0  0  0
    0.7451    3.2464   -2.9571 H   0  0  0  0  0  0  0  0  0  0  0  0
   -0.4042    3.7214   -1.6834 H   0  0  0  0  0  0  0  0  0  0  0  0
   -2.4761    0.1035   -2.8415 H   0  0  0  0  0  0  0  0  0  0  0  0
   -1.2153   -0.7675   -1.9729 H   0  0  0  0  0  0  0  0  0  0  0  0
   -4.0563   -0.0660   -0.9636 H   0  0  0  0  0  0  0  0  0  0  0  0
   -1.9087   -2.0691   -0.0699 H   0  0  0  0  0  0  0  0  0  0  0  0
   -3.6506   -1.4485    1.9080 H   0  0  0  0  0  0  0  0  0  0  0  0
   -3.7062   -3.0836    1.2147 H   0  0  0  0  0  0  0  0  0  0  0  0
   -5.4990   -3.7415   -0.3721 H   0  0  0  0  0  0  0  0  0  0  0  0
   -7.8177   -3.3755   -1.1327 H   0  0  0  0  0  0  0  0  0  0  0  0
   -8.9650   -1.2320   -0.6557 H   0  0  0  0  0  0  0  0  0  0  0  0
   -7.7926    0.5532    0.5878 H   0  0  0  0  0  0  0  0  0  0  0  0
   -5.6774    2.4748    1.4597 H   0  0  0  0  0  0  0  0  0  0  0  0
   -5.3379    1.7142   -0.1325 H   0  0  0  0  0  0  0  0  0  0  0  0
   -3.4152    2.5989    2.0535 H   0  0  0  0  0  0  0  0  0  0  0  0
   -2.9786    1.1198    1.1666 H   0  0  0  0  0  0  0  0  0  0  0  0
   -3.4859    3.8525   -0.0429 H   0  0  0  0  0  0  0  0  0  0  0  0
   -0.8381    2.0319    0.6576 H   0  0  0  0  0  0  0  0  0  0  0  0
   -0.8820    0.2771    0.5170 H   0  0  0  0  0  0  0  0  0  0  0  0
    3.4213    1.4629    0.3370 H   0  0  0  0  0  0  0  0  0  0  0  0
    5.2949    0.8134    1.5485 H   0  0  0  0  0  0  0  0  0  0  0  0
    4.6341   -0.8510    1.6746 H   0  0  0  0  0  0  0  0  0  0  0  0
    6.1170    0.3993   -0.7463 H   0  0  0  0  0  0  0  0  0  0  0  0
    5.3653   -1.2243   -0.7736 H   0  0  0  0  0  0  0  0  0  0  0  0
    8.0335    0.8622    0.8381 H   0  0  0  0  0  0  0  0  0  0  0  0
   10.0364   -0.0974    1.9225 H   0  0  0  0  0  0  0  0  0  0  0  0
   10.2276   -2.5484    2.2383 H   0  0  0  0  0  0  0  0  0  0  0  0
    8.4061   -4.0455    1.4701 H   0  0  0  0  0  0  0  0  0  0  0  0
    6.3932   -3.1057    0.3981 H   0  0  0  0  0  0  0  0  0  0  0  0
  1  2  2  0
  2  3  1  0
  3  4  1  0
  4  5  1  0
  5  6  1  0
  6  7  1  0
  7  8  1  0
  8  9  1  0
  9 10  1  0
 10 11  2  0
 11 12  1  0
 12 13  1  0
 13 14  2  0
 14 15  1  0
 15 16  2  0
 16 17  1  0
 17 18  2  0
 18 19  1  0
 19 20  1  0
 20 21  1  0
 21 22  1  0
 22 23  1  0
 23 24  2  0
  8 25  1  0
  2 26  1  0
 26 27  1  0
 27 28  1  0
 28 29  1  0
 29 30  2  0
 30 31  1  0
 31 32  2  0
 32 33  1  0
 33 34  2  0
 25  4  1  0
 34 29  1  0
 23  8  1  0
 18 13  1  0
  3 35  1  0
  3 36  1  0
  5 37  1  0
  5 38  1  0
  6 39  1  0
  6 40  1  0
  9 41  1  0
  9 42  1  0
 10 43  1  0
 11 44  1  0
 12 45  1  0
 12 46  1  0
 14 47  1  0
 15 48  1  0
 16 49  1  0
 17 50  1  0
 20 51  1  0
 20 52  1  0
 21 53  1  0
 21 54  1  0
 22 55  1  0
 25 56  1  0
 25 57  1  0
 26 58  1  0
 27 59  1  0
 27 60  1  0
 28 61  1  0
 28 62  1  0
 30 63  1  0
 31 64  1  0
 32 65  1  0
 33 66  1  0
 34 67  1  0
M  END
$$$$
