
     RDKit          3D

 70 72  0  0  0  0  0  0  0  0999 V2000
    6.4613   -0.0950   -1.6966 C   0  0  0  0  0  0  0  0  0  0  0  0
    5.2234    0.2239   -1.0675 O   0  0  0  0  0  0  0  0  0  0  0  0
    5.0541    0.4081    0.3171 C   0  0  0  0  0  0  0  0  0  0  0  0
    6.1292    0.2829    1.2219 C   0  0  0  0  0  0  0  0  0  0  0  0
    5.9213    0.4614    2.5934 C   0  0  0  0  0  0  0  0  0  0  0  0
    4.6461    0.7558    3.0790 C   0  0  0  0  0  0  0  0  0  0  0  0
    3.5714    0.8803    2.1964 C   0  0  0  0  0  0  0  0  0  0  0  0
    3.7669    0.7203    0.8121 C   0  0  0  0  0  0  0  0  0  0  0  0
    2.5937    0.8586   -0.1341 C   0  0  0  0  0  0  0  0  0  0  0  0
    2.0644   -0.4781   -0.6131 C   0  0  0  0  0  0  0  0  0  0  0  0
    2.6012   -1.5367   -0.1719 O   0  0  0  0  0  0  0  0  0  0  0  0
    0.9586   -0.5715   -1.5537 N   0  0  0  0  0  0  0  0  0  0  0  0
    0.5704   -1.9150   -2.0491 C   0  0  0  0  0  0  0  0  0  0  0  0
   -0.7620   -2.4167   -1.4610 C   0  0  0  0  0  0  0  0  0  0  0  0
   -0.7201   -2.8728    0.0145 C   0  0  0  0  0  0  0  0  0  0  0  0
   -0.4903   -1.7319    1.0199 C   0  0  0  0  0  0  0  0  0  0  0  0
   -1.2602   -1.9187    2.2493 N   0  0  0  0  0  0  0  0  0  0  0  0
   -2.5891   -1.4111    2.4412 C   0  0  0  0  0  0  0  0  0  0  0  0
   -2.8566   -0.7832    3.5010 O   0  0  0  0  0  0  0  0  0  0  0  0
   -3.6966   -1.7675    1.5345 C   0  0  0  0  0  0  0  0  0  0  0  0
   -4.6363   -2.7117    1.9799 C   0  0  0  0  0  0  0  0  0  0  0  0
   -5.6660   -3.1435    1.1366 C   0  0  0  0  0  0  0  0  0  0  0  0
   -6.8171   -4.3398    1.6984 Cl  0  0  0  0  0  0  0  0  0  0  0  0
   -5.7697   -2.6320   -0.1582 C   0  0  0  0  0  0  0  0  0  0  0  0
   -4.8549   -1.6753   -0.6055 C   0  0  0  0  0  0  0  0  0  0  0  0
   -3.8322   -1.2201    0.2390 C   0  0  0  0  0  0  0  0  0  0  0  0
   -2.9417   -0.2722   -0.2622 O   0  0  0  0  0  0  0  0  0  0  0  0
   -2.8631    1.0685    0.2016 C   0  0  0  0  0  0  0  0  0  0  0  0
   -1.7319    1.7974   -0.5565 C   0  0  0  0  0  0  0  0  0  0  0  0
   -1.8009    3.3375   -0.3698 C   0  0  0  0  0  0  0  0  0  0  0  0
   -1.7893    3.7454    1.1159 C   0  0  0  0  0  0  0  0  0  0  0  0
   -0.6326    4.0301   -1.0933 C   0  0  0  0  0  0  0  0  0  0  0  0
   -1.8324    1.4616   -1.9861 N   0  0  0  0  0  0  0  0  0  0  0  0
   -0.8782    0.6697   -2.7176 C   0  0  0  0  0  0  0  0  0  0  0  0
   -1.2624    0.0583   -3.7534 O   0  0  0  0  0  0  0  0  0  0  0  0
    0.5835    0.6215   -2.3498 C   0  0  0  0  0  0  0  0  0  0  0  0
    6.8407   -1.0657   -1.3159 H   0  0  0  0  0  0  0  0  0  0  0  0
    6.2986   -0.1847   -2.7913 H   0  0  0  0  0  0  0  0  0  0  0  0
    7.2013    0.7111   -1.5094 H   0  0  0  0  0  0  0  0  0  0  0  0
    7.1280    0.0425    0.8788 H   0  0  0  0  0  0  0  0  0  0  0  0
    6.7493    0.3660    3.2848 H   0  0  0  0  0  0  0  0  0  0  0  0
    4.4900    0.8916    4.1415 H   0  0  0  0  0  0  0  0  0  0  0  0
    2.5894    1.1085    2.5939 H   0  0  0  0  0  0  0  0  0  0  0  0
    2.9258    1.4604   -1.0083 H   0  0  0  0  0  0  0  0  0  0  0  0
    1.7654    1.4140    0.3620 H   0  0  0  0  0  0  0  0  0  0  0  0
    1.3638   -2.6704   -1.8690 H   0  0  0  0  0  0  0  0  0  0  0  0
    0.4615   -1.8793   -3.1554 H   0  0  0  0  0  0  0  0  0  0  0  0
   -1.0732   -3.2960   -2.0649 H   0  0  0  0  0  0  0  0  0  0  0  0
   -1.5526   -1.6646   -1.6163 H   0  0  0  0  0  0  0  0  0  0  0  0
   -1.6906   -3.3675    0.2356 H   0  0  0  0  0  0  0  0  0  0  0  0
    0.0689   -3.6459    0.1432 H   0  0  0  0  0  0  0  0  0  0  0  0
    0.5822   -1.7172    1.2931 H   0  0  0  0  0  0  0  0  0  0  0  0
   -0.7137   -0.7455    0.5850 H   0  0  0  0  0  0  0  0  0  0  0  0
   -0.7137   -2.1360    3.1132 H   0  0  0  0  0  0  0  0  0  0  0  0
   -4.5534   -3.1359    2.9729 H   0  0  0  0  0  0  0  0  0  0  0  0
   -6.5647   -2.9752   -0.8131 H   0  0  0  0  0  0  0  0  0  0  0  0
   -4.9421   -1.2751   -1.6087 H   0  0  0  0  0  0  0  0  0  0  0  0
   -3.8386    1.5688    0.0139 H   0  0  0  0  0  0  0  0  0  0  0  0
   -2.6558    1.0751    1.2920 H   0  0  0  0  0  0  0  0  0  0  0  0
   -0.7640    1.4448   -0.1448 H   0  0  0  0  0  0  0  0  0  0  0  0
   -2.7496    3.7056   -0.8211 H   0  0  0  0  0  0  0  0  0  0  0  0
   -1.7501    4.8533    1.2128 H   0  0  0  0  0  0  0  0  0  0  0  0
   -0.9068    3.3186    1.6420 H   0  0  0  0  0  0  0  0  0  0  0  0
   -2.7180    3.4017    1.6198 H   0  0  0  0  0  0  0  0  0  0  0  0
   -0.7213    5.1335   -0.9982 H   0  0  0  0  0  0  0  0  0  0  0  0
   -0.6403    3.7851   -2.1767 H   0  0  0  0  0  0  0  0  0  0  0  0
    0.3416    3.7156   -0.6599 H   0  0  0  0  0  0  0  0  0  0  0  0
   -2.7303    1.6922   -2.4699 H   0  0  0  0  0  0  0  0  0  0  0  0
    1.1814    0.6190   -3.2849 H   0  0  0  0  0  0  0  0  0  0  0  0
    0.8293    1.5631   -1.8292 H   0  0  0  0  0  0  0  0  0  0  0  0
  1  2  1  0
  2  3  1  0
  3  4  2  0
  4  5  1  0
  5  6  2  0
  6  7  1  0
  7  8  2  0
  8  9  1  0
  9 10  1  0
 10 11  2  0
 10 12  1  0
 12 13  1  0
 13 14  1  0
 14 15  1  0
 15 16  1  0
 16 17  1  0
 17 18  1  0
 18 19  2  0
 18 20  1  0
 20 21  2  0
 21 22  1  0
 22 23  1  0
 22 24  2  0
 24 25  1  0
 25 26  2  0
 26 27  1  0
 27 28  1  0
 28 29  1  0
 29 30  1  0
 30 31  1  0
 30 32  1  0
 29 33  1  0
 33 34  1  0
 34 35  2  0
 34 36  1  0
  8  3  1  0
 36 12  1  0
 26 20  1  0
  1 37  1  0
  1 38  1  0
  1 39  1  0
  4 40  1  0
  5 41  1  0
  6 42  1  0
  7 43  1  0
  9 44  1  0
  9 45  1  0
 13 46  1  0
 13 47  1  0
 14 48  1  0
 14 49  1  0
 15 50  1  0
 15 51  1  0
 16 52  1  0
 16 53  1  0
 17 54  1  0
 21 55  1  0
 24 56  1  0
 25 57  1  0
 28 58  1  0
 28 59  1  0
 29 60  1  0
 30 61  1  0
 31 62  1  0
 31 63  1  0
 31 64  1  0
 32 65  1  0
 32 66  1  0
 32 67  1  0
 33 68  1  0
 36 69  1  0
 36 70  1  0
M  END
$$$$
