
     RDKit          3D

 72 76  0  0  0  0  0  0  0  0999 V2000
   -3.2475    3.7576    2.5985 C   0  0  0  0  0  0  0  0  0  0  0  0
   -2.0940    3.3559    1.6836 C   0  0  0  0  0  0  0  0  0  0  0  0
   -2.2521    3.9783    0.2915 C   0  0  0  0  0  0  0  0  0  0  0  0
   -1.0566    3.6779   -0.6263 C   0  0  0  0  0  0  0  0  0  0  0  0
   -1.0085    2.2589   -1.0296 N   0  0  0  0  0  0  0  0  0  0  0  0
   -1.9513    1.8505   -2.0940 C   0  0  0  0  0  0  0  0  0  0  0  0
   -2.7333    0.5789   -1.7697 C   0  0  0  0  0  0  0  0  0  0  0  0
   -3.3857    0.6354   -0.5055 O   0  0  0  0  0  0  0  0  0  0  0  0
   -3.5182   -0.4179    0.4287 C   0  0  0  0  0  0  0  0  0  0  0  0
   -3.9221   -0.0243    1.7133 C   0  0  0  0  0  0  0  0  0  0  0  0
   -3.9686   -0.9307    2.7705 C   0  0  0  0  0  0  0  0  0  0  0  0
   -3.6186   -2.2594    2.5626 C   0  0  0  0  0  0  0  0  0  0  0  0
   -3.2637   -2.6978    1.2891 C   0  0  0  0  0  0  0  0  0  0  0  0
   -3.2338   -1.8105    0.1932 C   0  0  0  0  0  0  0  0  0  0  0  0
   -3.0077   -2.4431   -1.1700 C   0  0  0  0  0  0  0  0  0  0  0  0
   -1.5376   -2.6556   -1.6537 C   0  0  0  0  0  0  0  0  0  0  0  0
   -0.3679   -2.4813   -0.6494 C   0  0  0  0  0  0  0  0  0  0  0  0
   -0.0748   -1.0659   -0.0941 C   0  0  0  0  0  0  0  0  0  0  0  0
    0.5645    0.0910   -0.9679 C   0  0  0  0  0  0  0  0  0  0  0  0
    2.1109    0.1836   -0.7289 C   0  0  0  0  0  0  0  0  0  0  0  0
    2.8233   -0.7749   -1.5612 N   0  0  0  0  0  0  0  0  0  0  0  0
    3.3573   -1.9964   -1.0160 C   0  0  0  0  0  0  0  0  0  0  0  0
    3.1932   -3.0830   -1.6363 O   0  0  0  0  0  0  0  0  0  0  0  0
    4.1144   -2.0098    0.2479 C   0  0  0  0  0  0  0  0  0  0  0  0
    4.2946   -3.0863    1.1149 C   0  0  0  0  0  0  0  0  0  0  0  0
    5.0912   -2.7212    2.1496 N   0  0  0  0  0  0  0  0  0  0  0  0
    5.4191   -1.4560    1.9479 N   0  0  0  0  0  0  0  0  0  0  0  0
    6.2279   -0.6893    2.7180 C   0  0  0  0  0  0  0  0  0  0  0  0
    6.4838    0.6218    2.2948 C   0  0  0  0  0  0  0  0  0  0  0  0
    5.8985    1.0750    1.0940 C   0  0  0  0  0  0  0  0  0  0  0  0
    5.0908    0.2516    0.3636 N   0  0  0  0  0  0  0  0  0  0  0  0
    4.8584   -1.0040    0.8208 C   0  0  0  0  0  0  0  0  0  0  0  0
    2.5410   -0.6438   -2.9789 C   0  0  0  0  0  0  0  0  0  0  0  0
    1.0457   -0.8335   -3.1717 C   0  0  0  0  0  0  0  0  0  0  0  0
    0.2493    0.0322   -2.3647 O   0  0  0  0  0  0  0  0  0  0  0  0
   -0.0162    1.3989   -0.3870 C   0  0  0  0  0  0  0  0  0  0  0  0
    0.3915    1.7315    0.7641 O   0  0  0  0  0  0  0  0  0  0  0  0
   -4.2197    3.4695    2.1462 H   0  0  0  0  0  0  0  0  0  0  0  0
   -3.2404    4.8558    2.7697 H   0  0  0  0  0  0  0  0  0  0  0  0
   -3.1430    3.2427    3.5775 H   0  0  0  0  0  0  0  0  0  0  0  0
   -2.0712    2.2494    1.5996 H   0  0  0  0  0  0  0  0  0  0  0  0
   -1.1402    3.6940    2.1437 H   0  0  0  0  0  0  0  0  0  0  0  0
   -3.1921    3.6136   -0.1753 H   0  0  0  0  0  0  0  0  0  0  0  0
   -2.3346    5.0831    0.3989 H   0  0  0  0  0  0  0  0  0  0  0  0
   -0.1105    3.9900   -0.1322 H   0  0  0  0  0  0  0  0  0  0  0  0
   -1.1386    4.3139   -1.5356 H   0  0  0  0  0  0  0  0  0  0  0  0
   -1.3968    1.7154   -3.0459 H   0  0  0  0  0  0  0  0  0  0  0  0
   -2.6909    2.6567   -2.2920 H   0  0  0  0  0  0  0  0  0  0  0  0
   -3.4798    0.3814   -2.5675 H   0  0  0  0  0  0  0  0  0  0  0  0
   -2.0034   -0.2053   -1.7650 H   0  0  0  0  0  0  0  0  0  0  0  0
   -4.1779    1.0095    1.9022 H   0  0  0  0  0  0  0  0  0  0  0  0
   -4.2642   -0.5968    3.7566 H   0  0  0  0  0  0  0  0  0  0  0  0
   -3.6496   -2.9608    3.3870 H   0  0  0  0  0  0  0  0  0  0  0  0
   -3.0368   -3.7487    1.1510 H   0  0  0  0  0  0  0  0  0  0  0  0
   -3.5848   -1.8980   -1.9427 H   0  0  0  0  0  0  0  0  0  0  0  0
   -3.5051   -3.4400   -1.1678 H   0  0  0  0  0  0  0  0  0  0  0  0
   -1.3651   -2.0644   -2.5713 H   0  0  0  0  0  0  0  0  0  0  0  0
   -1.4706   -3.7042   -2.0196 H   0  0  0  0  0  0  0  0  0  0  0  0
    0.5614   -2.8939   -1.0862 H   0  0  0  0  0  0  0  0  0  0  0  0
   -0.5855   -3.1427    0.2175 H   0  0  0  0  0  0  0  0  0  0  0  0
    0.5874   -1.2317    0.7836 H   0  0  0  0  0  0  0  0  0  0  0  0
   -0.9869   -0.7014    0.3954 H   0  0  0  0  0  0  0  0  0  0  0  0
    2.3608    0.0529    0.3448 H   0  0  0  0  0  0  0  0  0  0  0  0
    2.4719    1.2007   -1.0036 H   0  0  0  0  0  0  0  0  0  0  0  0
    3.8701   -4.0747    0.9991 H   0  0  0  0  0  0  0  0  0  0  0  0
    6.6676   -1.0794    3.6271 H   0  0  0  0  0  0  0  0  0  0  0  0
    7.1265    1.2725    2.8743 H   0  0  0  0  0  0  0  0  0  0  0  0
    6.0923    2.0812    0.7451 H   0  0  0  0  0  0  0  0  0  0  0  0
    2.8393    0.3687   -3.3282 H   0  0  0  0  0  0  0  0  0  0  0  0
    3.1094   -1.3902   -3.5756 H   0  0  0  0  0  0  0  0  0  0  0  0
    0.7934   -1.8938   -3.0174 H   0  0  0  0  0  0  0  0  0  0  0  0
    0.8104   -0.6195   -4.2350 H   0  0  0  0  0  0  0  0  0  0  0  0
  1  2  1  0
  2  3  1  0
  3  4  1  0
  4  5  1  0
  5  6  1  0
  6  7  1  0
  7  8  1  0
  8  9  1  0
  9 10  2  0
 10 11  1  0
 11 12  2  0
 12 13  1  0
 13 14  2  0
 14 15  1  0
 15 16  1  0
 16 17  1  0
 17 18  1  0
 18 19  1  0
 19 20  1  0
 20 21  1  0
 21 22  1  0
 22 23  2  0
 22 24  1  0
 24 25  1  0
 25 26  2  0
 26 27  1  0
 27 28  1  0
 28 29  2  0
 29 30  1  0
 30 31  2  0
 31 32  1  0
 21 33  1  0
 33 34  1  0
 34 35  1  0
 19 36  1  0
 36 37  2  0
 36  5  1  0
 14  9  1  0
 35 19  1  0
 32 24  2  0
 32 27  1  0
  1 38  1  0
  1 39  1  0
  1 40  1  0
  2 41  1  0
  2 42  1  0
  3 43  1  0
  3 44  1  0
  4 45  1  0
  4 46  1  0
  6 47  1  0
  6 48  1  0
  7 49  1  0
  7 50  1  0
 10 51  1  0
 11 52  1  0
 12 53  1  0
 13 54  1  0
 15 55  1  0
 15 56  1  0
 16 57  1  0
 16 58  1  0
 17 59  1  0
 17 60  1  0
 18 61  1  0
 18 62  1  0
 20 63  1  0
 20 64  1  0
 25 65  1  0
 28 66  1  0
 29 67  1  0
 30 68  1  0
 33 69  1  0
 33 70  1  0
 34 71  1  0
 34 72  1  0
M  END
$$$$
