
     RDKit          3D

 85 89  0  0  0  0  0  0  0  0999 V2000
   -3.1056    3.5438    0.5012 C   0  0  0  0  0  0  0  0  0  0  0  0
   -4.2468    2.5142    0.5798 C   0  0  0  0  0  0  0  0  0  0  0  0
   -5.5020    3.2325    1.1145 C   0  0  0  0  0  0  0  0  0  0  0  0
   -4.5285    1.8219   -0.7963 C   0  0  0  0  0  0  0  0  0  0  0  0
   -3.4245    0.9704   -1.2573 N   0  0  0  0  0  0  0  0  0  0  0  0
   -2.1467    1.4498   -1.6924 C   0  0  0  0  0  0  0  0  0  0  0  0
   -2.0203    2.6151   -2.1555 O   0  0  0  0  0  0  0  0  0  0  0  0
   -0.9532    0.5466   -1.5881 C   0  0  0  0  0  0  0  0  0  0  0  0
   -0.6389    0.2072   -0.1058 C   0  0  0  0  0  0  0  0  0  0  0  0
    0.5567    0.9943    0.3740 C   0  0  0  0  0  0  0  0  0  0  0  0
    0.3942    1.8962    1.2410 O   0  0  0  0  0  0  0  0  0  0  0  0
    1.8619    0.7406   -0.1666 N   0  0  0  0  0  0  0  0  0  0  0  0
    3.0014    1.6136    0.1067 C   0  0  0  0  0  0  0  0  0  0  0  0
    4.2789    0.8230    0.0646 C   0  0  0  0  0  0  0  0  0  0  0  0
    4.7516    0.1811    1.2205 C   0  0  0  0  0  0  0  0  0  0  0  0
    5.9296   -0.5704    1.1769 C   0  0  0  0  0  0  0  0  0  0  0  0
    6.6358   -0.7119   -0.0277 C   0  0  0  0  0  0  0  0  0  0  0  0
    7.9338   -1.4767   -0.0610 C   0  0  0  0  0  0  0  0  0  0  0  0
    9.0791   -0.6324    0.2961 N   0  0  0  0  0  0  0  0  0  0  0  0
    9.0921    0.8218    0.3807 C   0  0  0  0  0  0  0  0  0  0  0  0
   10.5446    1.2218    0.7091 C   0  0  0  0  0  0  0  0  0  0  0  0
   11.3930   -0.0581    0.6756 C   0  0  0  0  0  0  0  0  0  0  0  0
   10.3971   -1.1227    0.4468 C   0  0  0  0  0  0  0  0  0  0  0  0
   10.6873   -2.3465    0.3790 O   0  0  0  0  0  0  0  0  0  0  0  0
    6.1545   -0.0825   -1.1857 C   0  0  0  0  0  0  0  0  0  0  0  0
    4.9799    0.6744   -1.1417 C   0  0  0  0  0  0  0  0  0  0  0  0
   -0.4209   -1.2343    0.0848 N   0  0  0  0  0  0  0  0  0  0  0  0
   -1.5267   -2.1300    0.2720 C   0  0  0  0  0  0  0  0  0  0  0  0
   -1.7263   -2.6344    1.4088 O   0  0  0  0  0  0  0  0  0  0  0  0
   -2.3521   -2.5586   -0.8746 C   0  0  0  0  0  0  0  0  0  0  0  0
   -1.6763   -2.9660   -2.0404 C   0  0  0  0  0  0  0  0  0  0  0  0
   -2.3768   -3.4777   -3.1332 C   0  0  0  0  0  0  0  0  0  0  0  0
   -3.7612   -3.6090   -3.0732 C   0  0  0  0  0  0  0  0  0  0  0  0
   -4.4500   -3.2194   -1.9240 C   0  0  0  0  0  0  0  0  0  0  0  0
   -3.7711   -2.6759   -0.8241 C   0  0  0  0  0  0  0  0  0  0  0  0
   -4.5712   -2.2752    0.2595 O   0  0  0  0  0  0  0  0  0  0  0  0
   -4.3348   -1.1752    1.1381 C   0  0  0  0  0  0  0  0  0  0  0  0
   -5.6396   -0.3932    1.3740 C   0  0  0  0  0  0  0  0  0  0  0  0
   -6.6723   -1.2756    2.0926 C   0  0  0  0  0  0  0  0  0  0  0  0
   -8.0023   -0.9817    1.4212 C   0  0  0  0  0  0  0  0  0  0  0  0
   -7.6513   -0.4560    0.0418 C   0  0  0  0  0  0  0  0  0  0  0  0
   -6.2850    0.0487    0.1273 N   0  0  0  0  0  0  0  0  0  0  0  0
   -5.8278    1.0203   -0.8599 C   0  0  0  0  0  0  0  0  0  0  0  0
   -6.5374    1.1983   -1.8880 O   0  0  0  0  0  0  0  0  0  0  0  0
   -2.1246    3.0377    0.4056 H   0  0  0  0  0  0  0  0  0  0  0  0
   -3.2572    4.2431   -0.3485 H   0  0  0  0  0  0  0  0  0  0  0  0
   -3.0519    4.1432    1.4357 H   0  0  0  0  0  0  0  0  0  0  0  0
   -3.9145    1.7637    1.3188 H   0  0  0  0  0  0  0  0  0  0  0  0
   -5.2912    3.7011    2.0997 H   0  0  0  0  0  0  0  0  0  0  0  0
   -5.8258    4.0234    0.4051 H   0  0  0  0  0  0  0  0  0  0  0  0
   -6.3458    2.5304    1.2643 H   0  0  0  0  0  0  0  0  0  0  0  0
   -4.6402    2.6452   -1.5385 H   0  0  0  0  0  0  0  0  0  0  0  0
   -3.5998   -0.0469   -1.4065 H   0  0  0  0  0  0  0  0  0  0  0  0
   -0.0813    1.0204   -2.0927 H   0  0  0  0  0  0  0  0  0  0  0  0
   -1.1739   -0.3680   -2.1688 H   0  0  0  0  0  0  0  0  0  0  0  0
   -1.4928    0.5002    0.5458 H   0  0  0  0  0  0  0  0  0  0  0  0
    1.9566    0.0211   -0.9187 H   0  0  0  0  0  0  0  0  0  0  0  0
    3.0264    2.4266   -0.6501 H   0  0  0  0  0  0  0  0  0  0  0  0
    2.8995    2.0921    1.1052 H   0  0  0  0  0  0  0  0  0  0  0  0
    4.2126    0.2707    2.1555 H   0  0  0  0  0  0  0  0  0  0  0  0
    6.2943   -1.0378    2.0824 H   0  0  0  0  0  0  0  0  0  0  0  0
    8.0988   -1.9081   -1.0723 H   0  0  0  0  0  0  0  0  0  0  0  0
    7.8746   -2.3283    0.6515 H   0  0  0  0  0  0  0  0  0  0  0  0
    8.4035    1.1660    1.1820 H   0  0  0  0  0  0  0  0  0  0  0  0
    8.7848    1.2583   -0.5955 H   0  0  0  0  0  0  0  0  0  0  0  0
   10.5925    1.6826    1.7203 H   0  0  0  0  0  0  0  0  0  0  0  0
   10.9212    1.9572   -0.0349 H   0  0  0  0  0  0  0  0  0  0  0  0
   11.9158   -0.2181    1.6426 H   0  0  0  0  0  0  0  0  0  0  0  0
   12.1211   -0.0317   -0.1638 H   0  0  0  0  0  0  0  0  0  0  0  0
    6.6933   -0.1707   -2.1209 H   0  0  0  0  0  0  0  0  0  0  0  0
    4.6193    1.1473   -2.0462 H   0  0  0  0  0  0  0  0  0  0  0  0
    0.5157   -1.5736    0.3993 H   0  0  0  0  0  0  0  0  0  0  0  0
   -0.5965   -2.9029   -2.0996 H   0  0  0  0  0  0  0  0  0  0  0  0
   -1.8409   -3.7866   -4.0222 H   0  0  0  0  0  0  0  0  0  0  0  0
   -4.3039   -4.0145   -3.9183 H   0  0  0  0  0  0  0  0  0  0  0  0
   -5.5280   -3.3202   -1.8935 H   0  0  0  0  0  0  0  0  0  0  0  0
   -3.5612   -0.4994    0.7530 H   0  0  0  0  0  0  0  0  0  0  0  0
   -3.9690   -1.5635    2.1112 H   0  0  0  0  0  0  0  0  0  0  0  0
   -5.4538    0.4730    2.0345 H   0  0  0  0  0  0  0  0  0  0  0  0
   -6.4491   -2.3598    1.9731 H   0  0  0  0  0  0  0  0  0  0  0  0
   -6.7174   -1.0447    3.1815 H   0  0  0  0  0  0  0  0  0  0  0  0
   -8.5382   -0.1937    1.9964 H   0  0  0  0  0  0  0  0  0  0  0  0
   -8.6400   -1.8907    1.3571 H   0  0  0  0  0  0  0  0  0  0  0  0
   -7.6948   -1.2724   -0.7119 H   0  0  0  0  0  0  0  0  0  0  0  0
   -8.3598    0.3557   -0.2372 H   0  0  0  0  0  0  0  0  0  0  0  0
  1  2  1  0
  2  3  1  0
  2  4  1  0
  4  5  1  0
  5  6  1  0
  6  7  2  0
  6  8  1  0
  8  9  1  0
  9 10  1  0
 10 11  2  0
 10 12  1  0
 12 13  1  0
 13 14  1  0
 14 15  2  0
 15 16  1  0
 16 17  2  0
 17 18  1  0
 18 19  1  0
 19 20  1  0
 20 21  1  0
 21 22  1  0
 22 23  1  0
 23 24  2  0
 17 25  1  0
 25 26  2  0
  9 27  1  0
 27 28  1  0
 28 29  2  0
 28 30  1  0
 30 31  2  0
 31 32  1  0
 32 33  2  0
 33 34  1  0
 34 35  2  0
 35 36  1  0
 36 37  1  0
 37 38  1  0
 38 39  1  0
 39 40  1  0
 40 41  1  0
 41 42  1  0
 42 43  1  0
 43 44  2  0
 43  4  1  0
 26 14  1  0
 35 30  1  0
 42 38  1  0
 23 19  1  0
  1 45  1  0
  1 46  1  0
  1 47  1  0
  2 48  1  0
  3 49  1  0
  3 50  1  0
  3 51  1  0
  4 52  1  0
  5 53  1  0
  8 54  1  0
  8 55  1  0
  9 56  1  0
 12 57  1  0
 13 58  1  0
 13 59  1  0
 15 60  1  0
 16 61  1  0
 18 62  1  0
 18 63  1  0
 20 64  1  0
 20 65  1  0
 21 66  1  0
 21 67  1  0
 22 68  1  0
 22 69  1  0
 25 70  1  0
 26 71  1  0
 27 72  1  0
 31 73  1  0
 32 74  1  0
 33 75  1  0
 34 76  1  0
 37 77  1  0
 37 78  1  0
 38 79  1  0
 39 80  1  0
 39 81  1  0
 40 82  1  0
 40 83  1  0
 41 84  1  0
 41 85  1  0
M  END
$$$$
