
     RDKit          3D

 64 67  0  0  0  0  0  0  0  0999 V2000
    6.4577    2.5227    0.8739 C   0  0  0  0  0  0  0  0  0  0  0  0
    5.3890    2.7835   -0.1754 C   0  0  0  0  0  0  0  0  0  0  0  0
    4.1611    2.1944    0.2432 O   0  0  0  0  0  0  0  0  0  0  0  0
    2.9794    2.1886   -0.5144 C   0  0  0  0  0  0  0  0  0  0  0  0
    2.8999    2.8123   -1.7732 C   0  0  0  0  0  0  0  0  0  0  0  0
    1.7011    2.8142   -2.4823 C   0  0  0  0  0  0  0  0  0  0  0  0
    0.5755    2.1843   -1.9559 C   0  0  0  0  0  0  0  0  0  0  0  0
    0.6363    1.5191   -0.7185 C   0  0  0  0  0  0  0  0  0  0  0  0
    1.8494    1.5422    0.0176 C   0  0  0  0  0  0  0  0  0  0  0  0
    1.9428    1.0244    1.3172 O   0  0  0  0  0  0  0  0  0  0  0  0
    1.9549   -0.3660    1.6431 C   0  0  0  0  0  0  0  0  0  0  0  0
    3.2102   -1.0723    1.1040 C   0  0  0  0  0  0  0  0  0  0  0  0
    2.9644   -1.8365   -0.2107 C   0  0  0  0  0  0  0  0  0  0  0  0
    2.3059   -3.2221   -0.0033 C   0  0  0  0  0  0  0  0  0  0  0  0
    0.8202   -3.2666   -0.3836 C   0  0  0  0  0  0  0  0  0  0  0  0
    0.6439   -3.1426   -1.8279 N   0  0  0  0  0  0  0  0  0  0  0  0
   -0.3575   -2.2992   -2.4084 C   0  0  0  0  0  0  0  0  0  0  0  0
   -1.1786   -2.7948   -3.2254 O   0  0  0  0  0  0  0  0  0  0  0  0
   -0.3724   -0.8123   -2.1588 C   0  0  0  0  0  0  0  0  0  0  0  0
   -0.9494   -0.4383   -0.8480 N   0  0  0  0  0  0  0  0  0  0  0  0
   -2.1610   -1.0953   -0.4124 C   0  0  0  0  0  0  0  0  0  0  0  0
   -2.9758   -1.5362   -1.2678 O   0  0  0  0  0  0  0  0  0  0  0  0
   -2.4884   -1.2628    1.0468 C   0  0  0  0  0  0  0  0  0  0  0  0
   -3.4487   -0.2457    1.4807 N   0  0  0  0  0  0  0  0  0  0  0  0
   -3.1606    0.8809    2.1780 C   0  0  0  0  0  0  0  0  0  0  0  0
   -4.3075    1.6384    2.3842 C   0  0  0  0  0  0  0  0  0  0  0  0
   -5.3252    0.9276    1.7859 C   0  0  0  0  0  0  0  0  0  0  0  0
   -6.6864    1.2080    1.6928 C   0  0  0  0  0  0  0  0  0  0  0  0
   -7.5040    0.2804    1.0234 C   0  0  0  0  0  0  0  0  0  0  0  0
   -6.9485   -0.8953    0.4730 C   0  0  0  0  0  0  0  0  0  0  0  0
   -5.5700   -1.1541    0.5860 C   0  0  0  0  0  0  0  0  0  0  0  0
   -4.7781   -0.2104    1.2487 C   0  0  0  0  0  0  0  0  0  0  0  0
   -0.6227    0.8548   -0.1993 C   0  0  0  0  0  0  0  0  0  0  0  0
    6.6122    1.4285    0.9912 H   0  0  0  0  0  0  0  0  0  0  0  0
    6.1468    2.9543    1.8492 H   0  0  0  0  0  0  0  0  0  0  0  0
    7.4144    2.9903    0.5599 H   0  0  0  0  0  0  0  0  0  0  0  0
    5.2557    3.8808   -0.2987 H   0  0  0  0  0  0  0  0  0  0  0  0
    5.7135    2.3355   -1.1406 H   0  0  0  0  0  0  0  0  0  0  0  0
    3.7551    3.3140   -2.2054 H   0  0  0  0  0  0  0  0  0  0  0  0
    1.6430    3.3092   -3.4435 H   0  0  0  0  0  0  0  0  0  0  0  0
   -0.3487    2.2039   -2.5208 H   0  0  0  0  0  0  0  0  0  0  0  0
    1.9588   -0.4457    2.7502 H   0  0  0  0  0  0  0  0  0  0  0  0
    1.0286   -0.8522    1.3049 H   0  0  0  0  0  0  0  0  0  0  0  0
    4.0133   -0.3230    0.9424 H   0  0  0  0  0  0  0  0  0  0  0  0
    3.6024   -1.7729    1.8729 H   0  0  0  0  0  0  0  0  0  0  0  0
    2.3880   -1.2070   -0.9164 H   0  0  0  0  0  0  0  0  0  0  0  0
    3.9565   -2.0016   -0.6843 H   0  0  0  0  0  0  0  0  0  0  0  0
    2.4094   -3.5538    1.0524 H   0  0  0  0  0  0  0  0  0  0  0  0
    2.8461   -3.9754   -0.6188 H   0  0  0  0  0  0  0  0  0  0  0  0
    0.4003   -4.2443   -0.0633 H   0  0  0  0  0  0  0  0  0  0  0  0
    0.2502   -2.4939    0.1551 H   0  0  0  0  0  0  0  0  0  0  0  0
    1.0270   -3.9131   -2.4211 H   0  0  0  0  0  0  0  0  0  0  0  0
    0.6770   -0.4775   -2.2489 H   0  0  0  0  0  0  0  0  0  0  0  0
   -0.9488   -0.3058   -2.9626 H   0  0  0  0  0  0  0  0  0  0  0  0
   -1.5639   -1.2080    1.6596 H   0  0  0  0  0  0  0  0  0  0  0  0
   -2.9166   -2.2740    1.2141 H   0  0  0  0  0  0  0  0  0  0  0  0
   -2.1735    1.1454    2.5322 H   0  0  0  0  0  0  0  0  0  0  0  0
   -4.3826    2.5803    2.9108 H   0  0  0  0  0  0  0  0  0  0  0  0
   -7.1034    2.1083    2.1239 H   0  0  0  0  0  0  0  0  0  0  0  0
   -8.5662    0.4673    0.9337 H   0  0  0  0  0  0  0  0  0  0  0  0
   -7.5885   -1.6050   -0.0356 H   0  0  0  0  0  0  0  0  0  0  0  0
   -5.1487   -2.0621    0.1761 H   0  0  0  0  0  0  0  0  0  0  0  0
   -0.5368    0.7198    0.8942 H   0  0  0  0  0  0  0  0  0  0  0  0
   -1.4774    1.5525   -0.3454 H   0  0  0  0  0  0  0  0  0  0  0  0
  1  2  1  0
  2  3  1  0
  3  4  1  0
  4  5  2  0
  5  6  1  0
  6  7  2  0
  7  8  1  0
  8  9  2  0
  9 10  1  0
 10 11  1  0
 11 12  1  0
 12 13  1  0
 13 14  1  0
 14 15  1  0
 15 16  1  0
 16 17  1  0
 17 18  2  0
 17 19  1  0
 19 20  1  0
 20 21  1  0
 21 22  2  0
 21 23  1  0
 23 24  1  0
 24 25  1  0
 25 26  2  0
 26 27  1  0
 27 28  2  0
 28 29  1  0
 29 30  2  0
 30 31  1  0
 31 32  2  0
 20 33  1  0
  9  4  1  0
 32 24  1  0
 33  8  1  0
 32 27  1  0
  1 34  1  0
  1 35  1  0
  1 36  1  0
  2 37  1  0
  2 38  1  0
  5 39  1  0
  6 40  1  0
  7 41  1  0
 11 42  1  0
 11 43  1  0
 12 44  1  0
 12 45  1  0
 13 46  1  0
 13 47  1  0
 14 48  1  0
 14 49  1  0
 15 50  1  0
 15 51  1  0
 16 52  1  0
 19 53  1  0
 19 54  1  0
 23 55  1  0
 23 56  1  0
 25 57  1  0
 26 58  1  0
 28 59  1  0
 29 60  1  0
 30 61  1  0
 31 62  1  0
 33 63  1  0
 33 64  1  0
M  END
$$$$
