
     RDKit          3D

 71 75  0  0  0  0  0  0  0  0999 V2000
   -4.5047   -4.5913   -0.1764 C   0  0  0  0  0  0  0  0  0  0  0  0
   -3.8728   -3.3431   -0.3588 O   0  0  0  0  0  0  0  0  0  0  0  0
   -4.0488   -2.5502    0.7976 C   0  0  0  0  0  0  0  0  0  0  0  0
   -3.2864   -1.2015    0.6642 C   0  0  0  0  0  0  0  0  0  0  0  0
   -1.7366   -1.4522    0.6738 C   0  0  0  0  0  0  0  0  0  0  0  0
   -1.1376   -2.1746   -0.5520 C   0  0  0  0  0  0  0  0  0  0  0  0
    0.3954   -2.0191   -0.5820 C   0  0  0  0  0  0  0  0  0  0  0  0
    0.8361   -0.7331   -1.3151 C   0  0  0  0  0  0  0  0  0  0  0  0
    2.2158   -0.2973   -0.9954 N   0  0  0  0  0  0  0  0  0  0  0  0
    3.1597   -1.1897   -0.3702 C   0  0  0  0  0  0  0  0  0  0  0  0
    3.3358   -2.3425   -0.8496 O   0  0  0  0  0  0  0  0  0  0  0  0
    3.9000   -0.7694    0.8433 C   0  0  0  0  0  0  0  0  0  0  0  0
    3.3307    0.1819    1.7241 C   0  0  0  0  0  0  0  0  0  0  0  0
    4.0282    0.6146    2.8711 C   0  0  0  0  0  0  0  0  0  0  0  0
    5.2959    0.0917    3.1739 C   0  0  0  0  0  0  0  0  0  0  0  0
    5.8318   -0.8555    2.3078 C   0  0  0  0  0  0  0  0  0  0  0  0
    7.0463   -1.5031    2.3480 C   0  0  0  0  0  0  0  0  0  0  0  0
    7.0639   -2.3070    1.2152 C   0  0  0  0  0  0  0  0  0  0  0  0
    5.9230   -2.1646    0.5046 N   0  0  0  0  0  0  0  0  0  0  0  0
    5.1651   -1.2816    1.1843 C   0  0  0  0  0  0  0  0  0  0  0  0
    2.7771    0.9708   -1.5117 C   0  0  0  0  0  0  0  0  0  0  0  0
    1.7631    1.9370   -2.1407 C   0  0  0  0  0  0  0  0  0  0  0  0
    0.8739    2.4518   -1.1509 O   0  0  0  0  0  0  0  0  0  0  0  0
   -0.1501    3.3751   -1.4281 C   0  0  0  0  0  0  0  0  0  0  0  0
   -0.0348    4.3141   -2.4750 C   0  0  0  0  0  0  0  0  0  0  0  0
   -1.1021    5.1614   -2.7909 C   0  0  0  0  0  0  0  0  0  0  0  0
   -2.2974    5.0671   -2.0820 C   0  0  0  0  0  0  0  0  0  0  0  0
   -2.4134    4.1688   -1.0208 C   0  0  0  0  0  0  0  0  0  0  0  0
   -1.3358    3.3414   -0.6685 C   0  0  0  0  0  0  0  0  0  0  0  0
   -1.5043    2.3806    0.4356 C   0  0  0  0  0  0  0  0  0  0  0  0
   -0.6469    2.3435    1.3581 O   0  0  0  0  0  0  0  0  0  0  0  0
   -2.6235    1.4777    0.4569 N   0  0  0  0  0  0  0  0  0  0  0  0
   -3.3109    1.1859    1.7226 C   0  0  0  0  0  0  0  0  0  0  0  0
   -3.6385   -0.3178    1.8969 C   0  0  0  0  0  0  0  0  0  0  0  0
   -3.1061    0.9060   -0.8061 C   0  0  0  0  0  0  0  0  0  0  0  0
   -3.7938   -0.4517   -0.5993 C   0  0  0  0  0  0  0  0  0  0  0  0
   -5.5949   -4.4727    0.0198 H   0  0  0  0  0  0  0  0  0  0  0  0
   -4.3960   -5.1809   -1.1076 H   0  0  0  0  0  0  0  0  0  0  0  0
   -4.0242   -5.1685    0.6403 H   0  0  0  0  0  0  0  0  0  0  0  0
   -3.6786   -3.0836    1.7050 H   0  0  0  0  0  0  0  0  0  0  0  0
   -5.1372   -2.3404    0.9369 H   0  0  0  0  0  0  0  0  0  0  0  0
   -1.4833   -2.0551    1.5769 H   0  0  0  0  0  0  0  0  0  0  0  0
   -1.1943   -0.4961    0.8180 H   0  0  0  0  0  0  0  0  0  0  0  0
   -1.3734   -3.2585   -0.4773 H   0  0  0  0  0  0  0  0  0  0  0  0
   -1.5583   -1.7992   -1.5076 H   0  0  0  0  0  0  0  0  0  0  0  0
    0.8267   -2.8959   -1.1121 H   0  0  0  0  0  0  0  0  0  0  0  0
    0.7827   -2.0282    0.4635 H   0  0  0  0  0  0  0  0  0  0  0  0
    0.7495   -0.8997   -2.4113 H   0  0  0  0  0  0  0  0  0  0  0  0
    0.1359    0.0791   -1.0409 H   0  0  0  0  0  0  0  0  0  0  0  0
    2.3523    0.6021    1.5211 H   0  0  0  0  0  0  0  0  0  0  0  0
    3.5803    1.3524    3.5255 H   0  0  0  0  0  0  0  0  0  0  0  0
    5.8426    0.4252    4.0468 H   0  0  0  0  0  0  0  0  0  0  0  0
    7.8284   -1.3947    3.0892 H   0  0  0  0  0  0  0  0  0  0  0  0
    7.8829   -2.9478    0.9178 H   0  0  0  0  0  0  0  0  0  0  0  0
    5.7059   -2.6409   -0.3981 H   0  0  0  0  0  0  0  0  0  0  0  0
    3.5450    0.7307   -2.2786 H   0  0  0  0  0  0  0  0  0  0  0  0
    3.2929    1.5142   -0.6923 H   0  0  0  0  0  0  0  0  0  0  0  0
    2.3445    2.7686   -2.5919 H   0  0  0  0  0  0  0  0  0  0  0  0
    1.1911    1.4399   -2.9530 H   0  0  0  0  0  0  0  0  0  0  0  0
    0.8745    4.4015   -3.0493 H   0  0  0  0  0  0  0  0  0  0  0  0
   -1.0052    5.8746   -3.5989 H   0  0  0  0  0  0  0  0  0  0  0  0
   -3.1331    5.7049   -2.3403 H   0  0  0  0  0  0  0  0  0  0  0  0
   -3.3421    4.1230   -0.4617 H   0  0  0  0  0  0  0  0  0  0  0  0
   -4.2500    1.7767    1.7540 H   0  0  0  0  0  0  0  0  0  0  0  0
   -2.6971    1.5193    2.5844 H   0  0  0  0  0  0  0  0  0  0  0  0
   -3.1155   -0.7058    2.7970 H   0  0  0  0  0  0  0  0  0  0  0  0
   -4.7242   -0.3970    2.1172 H   0  0  0  0  0  0  0  0  0  0  0  0
   -2.2478    0.7550   -1.4954 H   0  0  0  0  0  0  0  0  0  0  0  0
   -3.8112    1.6149   -1.2891 H   0  0  0  0  0  0  0  0  0  0  0  0
   -4.8899   -0.2749   -0.4954 H   0  0  0  0  0  0  0  0  0  0  0  0
   -3.6759   -1.0663   -1.5169 H   0  0  0  0  0  0  0  0  0  0  0  0
  1  2  1  0
  2  3  1  0
  3  4  1  0
  4  5  1  0
  5  6  1  0
  6  7  1  0
  7  8  1  0
  8  9  1  0
  9 10  1  0
 10 11  2  0
 10 12  1  0
 12 13  1  0
 13 14  2  0
 14 15  1  0
 15 16  2  0
 16 17  1  0
 17 18  2  0
 18 19  1  0
 19 20  1  0
  9 21  1  0
 21 22  1  0
 22 23  1  0
 23 24  1  0
 24 25  2  0
 25 26  1  0
 26 27  2  0
 27 28  1  0
 28 29  2  0
 29 30  1  0
 30 31  2  0
 30 32  1  0
 32 33  1  0
 33 34  1  0
 32 35  1  0
 35 36  1  0
 34  4  1  0
 36  4  1  0
 20 12  2  0
 29 24  1  0
 20 16  1  0
  1 37  1  0
  1 38  1  0
  1 39  1  0
  3 40  1  0
  3 41  1  0
  5 42  1  0
  5 43  1  0
  6 44  1  0
  6 45  1  0
  7 46  1  0
  7 47  1  0
  8 48  1  0
  8 49  1  0
 13 50  1  0
 14 51  1  0
 15 52  1  0
 17 53  1  0
 18 54  1  0
 19 55  1  0
 21 56  1  0
 21 57  1  0
 22 58  1  0
 22 59  1  0
 25 60  1  0
 26 61  1  0
 27 62  1  0
 28 63  1  0
 33 64  1  0
 33 65  1  0
 34 66  1  0
 34 67  1  0
 35 68  1  0
 35 69  1  0
 36 70  1  0
 36 71  1  0
M  END
$$$$
