
     RDKit          3D

 66 69  0  0  0  0  0  0  0  0999 V2000
    1.4056    5.8418   -0.7129 C   0  0  0  0  0  0  0  0  0  0  0  0
    1.9529    4.4788   -1.1226 C   0  0  0  0  0  0  0  0  0  0  0  0
    0.9661    3.3592   -0.7802 C   0  0  0  0  0  0  0  0  0  0  0  0
    1.5631    1.9914   -1.1326 C   0  0  0  0  0  0  0  0  0  0  0  0
    0.6811    0.8997   -0.6970 N   0  0  0  0  0  0  0  0  0  0  0  0
   -0.3774    0.4577   -1.6264 C   0  0  0  0  0  0  0  0  0  0  0  0
   -1.7711    0.5039   -0.9912 C   0  0  0  0  0  0  0  0  0  0  0  0
   -2.6408   -0.3638   -1.7136 O   0  0  0  0  0  0  0  0  0  0  0  0
   -3.9210   -0.6951   -1.2555 C   0  0  0  0  0  0  0  0  0  0  0  0
   -5.0245   -0.0173   -1.7906 C   0  0  0  0  0  0  0  0  0  0  0  0
   -6.3191   -0.3490   -1.3908 C   0  0  0  0  0  0  0  0  0  0  0  0
   -6.5228   -1.3643   -0.4548 C   0  0  0  0  0  0  0  0  0  0  0  0
   -5.4349   -2.0502    0.0883 C   0  0  0  0  0  0  0  0  0  0  0  0
   -4.1234   -1.7343   -0.3108 C   0  0  0  0  0  0  0  0  0  0  0  0
   -2.9679   -2.4573    0.3334 C   0  0  0  0  0  0  0  0  0  0  0  0
   -2.7184   -1.9100    1.7530 C   0  0  0  0  0  0  0  0  0  0  0  0
   -1.3384   -2.2859    2.3414 C   0  0  0  0  0  0  0  0  0  0  0  0
   -0.2956   -1.1360    2.2887 C   0  0  0  0  0  0  0  0  0  0  0  0
    0.6786   -1.0890    1.0547 C   0  0  0  0  0  0  0  0  0  0  0  0
    2.0888   -1.6151    1.4681 C   0  0  0  0  0  0  0  0  0  0  0  0
    2.8603   -1.9032    0.2507 N   0  0  0  0  0  0  0  0  0  0  0  0
    4.2198   -1.4683    0.0505 C   0  0  0  0  0  0  0  0  0  0  0  0
    5.0150   -2.2130   -0.5844 O   0  0  0  0  0  0  0  0  0  0  0  0
    4.6969   -0.1443    0.4961 C   0  0  0  0  0  0  0  0  0  0  0  0
    5.9508    0.3873    0.2847 C   0  0  0  0  0  0  0  0  0  0  0  0
    5.9976    1.6266    0.8092 N   0  0  0  0  0  0  0  0  0  0  0  0
    4.7615    1.7921    1.3319 C   0  0  0  0  0  0  0  0  0  0  0  0
    3.9879    0.7457    1.1463 O   0  0  0  0  0  0  0  0  0  0  0  0
    2.2224   -2.7400   -0.7692 C   0  0  0  0  0  0  0  0  0  0  0  0
    0.7729   -3.0114   -0.3948 C   0  0  0  0  0  0  0  0  0  0  0  0
    0.1211   -1.7998   -0.0553 O   0  0  0  0  0  0  0  0  0  0  0  0
    0.8449    0.3842    0.6545 C   0  0  0  0  0  0  0  0  0  0  0  0
    1.2039    1.1886    1.5585 O   0  0  0  0  0  0  0  0  0  0  0  0
    0.4386    6.0414   -1.2272 H   0  0  0  0  0  0  0  0  0  0  0  0
    1.2557    5.8838    0.3848 H   0  0  0  0  0  0  0  0  0  0  0  0
    2.1264    6.6319   -1.0009 H   0  0  0  0  0  0  0  0  0  0  0  0
    2.9149    4.3080   -0.5919 H   0  0  0  0  0  0  0  0  0  0  0  0
    2.1531    4.4793   -2.2150 H   0  0  0  0  0  0  0  0  0  0  0  0
    0.7342    3.3962    0.3083 H   0  0  0  0  0  0  0  0  0  0  0  0
    0.0245    3.5033   -1.3511 H   0  0  0  0  0  0  0  0  0  0  0  0
    2.5653    1.8790   -0.6649 H   0  0  0  0  0  0  0  0  0  0  0  0
    1.7328    1.9304   -2.2281 H   0  0  0  0  0  0  0  0  0  0  0  0
   -0.1388   -0.5491   -2.0206 H   0  0  0  0  0  0  0  0  0  0  0  0
   -0.4023    1.1145   -2.5255 H   0  0  0  0  0  0  0  0  0  0  0  0
   -1.7272    0.1863    0.0657 H   0  0  0  0  0  0  0  0  0  0  0  0
   -2.1687    1.5349   -1.0288 H   0  0  0  0  0  0  0  0  0  0  0  0
   -4.8716    0.7565   -2.5289 H   0  0  0  0  0  0  0  0  0  0  0  0
   -7.1663    0.1767   -1.8089 H   0  0  0  0  0  0  0  0  0  0  0  0
   -7.5288   -1.6140   -0.1434 H   0  0  0  0  0  0  0  0  0  0  0  0
   -5.6108   -2.8191    0.8245 H   0  0  0  0  0  0  0  0  0  0  0  0
   -2.0884   -2.3713   -0.3149 H   0  0  0  0  0  0  0  0  0  0  0  0
   -3.1910   -3.5424    0.3997 H   0  0  0  0  0  0  0  0  0  0  0  0
   -2.8807   -0.8096    1.7883 H   0  0  0  0  0  0  0  0  0  0  0  0
   -3.5037   -2.3448    2.4130 H   0  0  0  0  0  0  0  0  0  0  0  0
   -0.9565   -3.2407    1.9327 H   0  0  0  0  0  0  0  0  0  0  0  0
   -1.5146   -2.4846    3.4210 H   0  0  0  0  0  0  0  0  0  0  0  0
    0.3159   -1.1938    3.2185 H   0  0  0  0  0  0  0  0  0  0  0  0
   -0.8395   -0.1747    2.3987 H   0  0  0  0  0  0  0  0  0  0  0  0
    2.6166   -0.9229    2.1455 H   0  0  0  0  0  0  0  0  0  0  0  0
    1.9797   -2.5630    2.0411 H   0  0  0  0  0  0  0  0  0  0  0  0
    6.7743   -0.0840   -0.2383 H   0  0  0  0  0  0  0  0  0  0  0  0
    4.4453    2.6879    1.8486 H   0  0  0  0  0  0  0  0  0  0  0  0
    2.2408   -2.1978   -1.7428 H   0  0  0  0  0  0  0  0  0  0  0  0
    2.7655   -3.7014   -0.8711 H   0  0  0  0  0  0  0  0  0  0  0  0
    0.7200   -3.7431    0.4414 H   0  0  0  0  0  0  0  0  0  0  0  0
    0.2495   -3.4639   -1.2568 H   0  0  0  0  0  0  0  0  0  0  0  0
  1  2  1  0
  2  3  1  0
  3  4  1  0
  4  5  1  0
  5  6  1  0
  6  7  1  0
  7  8  1  0
  8  9  1  0
  9 10  2  0
 10 11  1  0
 11 12  2  0
 12 13  1  0
 13 14  2  0
 14 15  1  0
 15 16  1  0
 16 17  1  0
 17 18  1  0
 18 19  1  0
 19 20  1  0
 20 21  1  0
 21 22  1  0
 22 23  2  0
 22 24  1  0
 24 25  2  0
 25 26  1  0
 26 27  2  0
 27 28  1  0
 21 29  1  0
 29 30  1  0
 30 31  1  0
 19 32  1  0
 32 33  2  0
 32  5  1  0
 14  9  1  0
 31 19  1  0
 28 24  1  0
  1 34  1  0
  1 35  1  0
  1 36  1  0
  2 37  1  0
  2 38  1  0
  3 39  1  0
  3 40  1  0
  4 41  1  0
  4 42  1  0
  6 43  1  0
  6 44  1  0
  7 45  1  0
  7 46  1  0
 10 47  1  0
 11 48  1  0
 12 49  1  0
 13 50  1  0
 15 51  1  0
 15 52  1  0
 16 53  1  0
 16 54  1  0
 17 55  1  0
 17 56  1  0
 18 57  1  0
 18 58  1  0
 20 59  1  0
 20 60  1  0
 25 61  1  0
 27 62  1  0
 29 63  1  0
 29 64  1  0
 30 65  1  0
 30 66  1  0
M  END
$$$$
