
     RDKit          3D

 76 79  0  0  0  0  0  0  0  0999 V2000
   -4.8222    2.5542    2.4414 C   0  0  0  0  0  0  0  0  0  0  0  0
   -3.3759    2.2728    2.8404 C   0  0  0  0  0  0  0  0  0  0  0  0
   -2.9010    0.9613    2.3557 N   0  0  0  0  0  0  0  0  0  0  0  0
   -3.6058   -0.2455    2.8198 C   0  0  0  0  0  0  0  0  0  0  0  0
   -4.6865   -0.7243    1.8328 C   0  0  0  0  0  0  0  0  0  0  0  0
   -4.6470    0.0016    0.6031 O   0  0  0  0  0  0  0  0  0  0  0  0
   -5.6048   -0.0995   -0.4194 C   0  0  0  0  0  0  0  0  0  0  0  0
   -6.7116   -0.9690   -0.3123 C   0  0  0  0  0  0  0  0  0  0  0  0
   -7.6720   -1.0245   -1.3233 C   0  0  0  0  0  0  0  0  0  0  0  0
   -7.5352   -0.2265   -2.4568 C   0  0  0  0  0  0  0  0  0  0  0  0
   -6.4266    0.6142   -2.5941 C   0  0  0  0  0  0  0  0  0  0  0  0
   -5.4586    0.6913   -1.5786 C   0  0  0  0  0  0  0  0  0  0  0  0
   -4.2655    1.6007   -1.7653 C   0  0  0  0  0  0  0  0  0  0  0  0
   -3.1074    0.9050   -2.5054 C   0  0  0  0  0  0  0  0  0  0  0  0
   -2.3059   -0.0657   -1.6173 C   0  0  0  0  0  0  0  0  0  0  0  0
   -1.3758    0.6683   -0.6125 C   0  0  0  0  0  0  0  0  0  0  0  0
   -1.0969   -0.0738    0.7513 C   0  0  0  0  0  0  0  0  0  0  0  0
    0.4479   -0.3315    0.8816 C   0  0  0  0  0  0  0  0  0  0  0  0
    0.8355   -1.4461    0.0180 N   0  0  0  0  0  0  0  0  0  0  0  0
    2.0775   -1.4446   -0.7111 C   0  0  0  0  0  0  0  0  0  0  0  0
    2.1018   -1.9017   -1.8845 O   0  0  0  0  0  0  0  0  0  0  0  0
    3.3718   -1.0545   -0.0486 C   0  0  0  0  0  0  0  0  0  0  0  0
    4.3222   -0.6313   -1.0311 O   0  0  0  0  0  0  0  0  0  0  0  0
    5.6846   -0.4081   -0.7719 C   0  0  0  0  0  0  0  0  0  0  0  0
    6.2384   -0.5899    0.5141 C   0  0  0  0  0  0  0  0  0  0  0  0
    7.6094   -0.4138    0.7294 C   0  0  0  0  0  0  0  0  0  0  0  0
    8.4467   -0.0424   -0.3278 C   0  0  0  0  0  0  0  0  0  0  0  0
   10.1729    0.1669   -0.0403 S   0  0  0  0  0  6  0  0  0  0  0  0
   10.4143    1.3429    1.2061 N   0  0  0  0  0  0  0  0  0  0  0  0
   10.7717   -1.1453    0.3855 O   0  0  0  0  0  0  0  0  0  0  0  0
   10.8569    0.6330   -1.2959 O   0  0  0  0  0  0  0  0  0  0  0  0
    7.9060    0.1448   -1.6077 C   0  0  0  0  0  0  0  0  0  0  0  0
    6.5273   -0.0214   -1.8329 C   0  0  0  0  0  0  0  0  0  0  0  0
    5.9781    0.1250   -3.2231 C   0  0  0  0  0  0  0  0  0  0  0  0
   -0.0234   -2.6250   -0.0161 C   0  0  0  0  0  0  0  0  0  0  0  0
   -1.1602   -2.4757    0.9990 C   0  0  0  0  0  0  0  0  0  0  0  0
   -1.8794   -1.2713    0.8049 O   0  0  0  0  0  0  0  0  0  0  0  0
   -1.5306    0.8651    1.8900 C   0  0  0  0  0  0  0  0  0  0  0  0
   -0.6824    1.6817    2.3512 O   0  0  0  0  0  0  0  0  0  0  0  0
   -5.5193    1.8373    2.9301 H   0  0  0  0  0  0  0  0  0  0  0  0
   -5.0985    3.5836    2.7666 H   0  0  0  0  0  0  0  0  0  0  0  0
   -4.9370    2.5018    1.3392 H   0  0  0  0  0  0  0  0  0  0  0  0
   -3.2830    2.3170    3.9462 H   0  0  0  0  0  0  0  0  0  0  0  0
   -2.7581    3.0938    2.4184 H   0  0  0  0  0  0  0  0  0  0  0  0
   -4.0869   -0.0454    3.8046 H   0  0  0  0  0  0  0  0  0  0  0  0
   -2.8833   -1.0631    3.0343 H   0  0  0  0  0  0  0  0  0  0  0  0
   -4.5406   -1.8052    1.6224 H   0  0  0  0  0  0  0  0  0  0  0  0
   -5.6896   -0.6069    2.3077 H   0  0  0  0  0  0  0  0  0  0  0  0
   -6.8525   -1.5950    0.5606 H   0  0  0  0  0  0  0  0  0  0  0  0
   -8.5337   -1.6775   -1.2199 H   0  0  0  0  0  0  0  0  0  0  0  0
   -8.2801   -0.2694   -3.2391 H   0  0  0  0  0  0  0  0  0  0  0  0
   -6.3303    1.2125   -3.4914 H   0  0  0  0  0  0  0  0  0  0  0  0
   -3.9383    2.0057   -0.7876 H   0  0  0  0  0  0  0  0  0  0  0  0
   -4.5703    2.4909   -2.3608 H   0  0  0  0  0  0  0  0  0  0  0  0
   -2.4183    1.6746   -2.9185 H   0  0  0  0  0  0  0  0  0  0  0  0
   -3.5251    0.3339   -3.3707 H   0  0  0  0  0  0  0  0  0  0  0  0
   -3.0229   -0.7534   -1.1365 H   0  0  0  0  0  0  0  0  0  0  0  0
   -1.6733   -0.7043   -2.2780 H   0  0  0  0  0  0  0  0  0  0  0  0
   -1.7594    1.6907   -0.4196 H   0  0  0  0  0  0  0  0  0  0  0  0
   -0.4269    0.8609   -1.1601 H   0  0  0  0  0  0  0  0  0  0  0  0
    1.0205    0.5881    0.6233 H   0  0  0  0  0  0  0  0  0  0  0  0
    0.7124   -0.5931    1.9313 H   0  0  0  0  0  0  0  0  0  0  0  0
    3.2120   -0.2298    0.6798 H   0  0  0  0  0  0  0  0  0  0  0  0
    3.7521   -1.9472    0.4968 H   0  0  0  0  0  0  0  0  0  0  0  0
    5.6207   -0.8784    1.3549 H   0  0  0  0  0  0  0  0  0  0  0  0
    8.0166   -0.5735    1.7228 H   0  0  0  0  0  0  0  0  0  0  0  0
   11.4346    1.5705    1.2216 H   0  0  0  0  0  0  0  0  0  0  0  0
    9.9168    2.2103    0.9041 H   0  0  0  0  0  0  0  0  0  0  0  0
    8.5578    0.4188   -2.4307 H   0  0  0  0  0  0  0  0  0  0  0  0
    5.0258    0.6998   -3.2061 H   0  0  0  0  0  0  0  0  0  0  0  0
    5.7937   -0.8816   -3.6550 H   0  0  0  0  0  0  0  0  0  0  0  0
    6.6873    0.6708   -3.8854 H   0  0  0  0  0  0  0  0  0  0  0  0
   -0.4471   -2.7522   -1.0334 H   0  0  0  0  0  0  0  0  0  0  0  0
    0.5700   -3.5275    0.2408 H   0  0  0  0  0  0  0  0  0  0  0  0
   -0.7741   -2.5244    2.0406 H   0  0  0  0  0  0  0  0  0  0  0  0
   -1.8598   -3.3306    0.8746 H   0  0  0  0  0  0  0  0  0  0  0  0
  1  2  1  0
  2  3  1  0
  3  4  1  0
  4  5  1  0
  5  6  1  0
  6  7  1  0
  7  8  2  0
  8  9  1  0
  9 10  2  0
 10 11  1  0
 11 12  2  0
 12 13  1  0
 13 14  1  0
 14 15  1  0
 15 16  1  0
 16 17  1  0
 17 18  1  0
 18 19  1  0
 19 20  1  0
 20 21  2  0
 20 22  1  0
 22 23  1  0
 23 24  1  0
 24 25  2  0
 25 26  1  0
 26 27  2  0
 27 28  1  0
 28 29  1  0
 28 30  2  0
 28 31  2  0
 27 32  1  0
 32 33  2  0
 33 34  1  0
 19 35  1  0
 35 36  1  0
 36 37  1  0
 17 38  1  0
 38 39  2  0
 38  3  1  0
 12  7  1  0
 37 17  1  0
 33 24  1  0
  1 40  1  0
  1 41  1  0
  1 42  1  0
  2 43  1  0
  2 44  1  0
  4 45  1  0
  4 46  1  0
  5 47  1  0
  5 48  1  0
  8 49  1  0
  9 50  1  0
 10 51  1  0
 11 52  1  0
 13 53  1  0
 13 54  1  0
 14 55  1  0
 14 56  1  0
 15 57  1  0
 15 58  1  0
 16 59  1  0
 16 60  1  0
 18 61  1  0
 18 62  1  0
 22 63  1  0
 22 64  1  0
 25 65  1  0
 26 66  1  0
 29 67  1  0
 29 68  1  0
 32 69  1  0
 34 70  1  0
 34 71  1  0
 34 72  1  0
 35 73  1  0
 35 74  1  0
 36 75  1  0
 36 76  1  0
M  END
$$$$
