
     RDKit          3D

 89 90  0  0  0  0  0  0  0  0999 V2000
   -6.8500    1.9283    2.3122 C   0  0  0  0  0  0  0  0  0  0  0  0
   -5.5970    2.5541    2.1511 O   0  0  0  0  0  0  0  0  0  0  0  0
   -4.5717    1.5950    2.2790 C   0  0  0  0  0  0  0  0  0  0  0  0
   -3.2476    2.2544    2.0517 C   0  0  0  0  0  0  0  0  0  0  0  0
   -2.7930    3.0262    2.9387 O   0  0  0  0  0  0  0  0  0  0  0  0
   -2.5434    2.1092    0.8015 N   0  0  0  0  0  0  0  0  0  0  0  0
   -3.2281    2.8278   -0.3095 C   0  0  0  0  0  0  0  0  0  0  0  0
   -3.3475    2.0497   -1.6397 C   0  0  0  0  0  0  0  0  0  0  0  0
   -2.0516    1.8610   -2.1856 O   0  0  0  0  0  0  0  0  0  0  0  0
   -1.7477    2.8446   -3.1497 C   0  0  0  0  0  0  0  0  0  0  0  0
   -4.0715    0.6794   -1.4653 C   0  0  0  0  0  0  0  0  0  0  0  0
   -5.3843    0.8685   -0.9789 O   0  0  0  0  0  0  0  0  0  0  0  0
   -4.0689   -0.2013   -2.7646 C   0  0  0  0  0  0  0  0  0  0  0  0
   -5.1695    0.0947   -3.5870 O   0  0  0  0  0  0  0  0  0  0  0  0
   -3.9923   -1.7227   -2.4616 C   0  0  0  0  0  0  0  0  0  0  0  0
   -2.6497   -2.1704   -2.5760 O   0  0  0  0  0  0  0  0  0  0  0  0
   -2.1227   -2.7022   -1.3685 C   0  0  0  0  0  0  0  0  0  0  0  0
   -0.7072   -2.1535   -1.1402 C   0  0  0  0  0  0  0  0  0  0  0  0
   -0.7458   -0.6229   -1.0110 C   0  0  0  0  0  0  0  0  0  0  0  0
    0.5868    0.0256   -0.6463 C   0  0  0  0  0  0  0  0  0  0  0  0
    0.7540    0.2488    0.8127 N   0  0  0  0  0  0  0  0  0  0  0  0
    2.0031   -0.1380    1.4661 C   0  0  0  0  0  0  0  0  0  0  0  0
    2.0498   -0.1876    2.7273 O   0  0  0  0  0  0  0  0  0  0  0  0
    3.2583   -0.4428    0.7229 C   0  0  0  0  0  0  0  0  0  0  0  0
    4.4678   -0.2838    1.2785 C   0  0  0  0  0  0  0  0  0  0  0  0
    5.7362   -0.5866    0.5671 C   0  0  0  0  0  0  0  0  0  0  0  0
    6.8801   -0.8882    1.3191 C   0  0  0  0  0  0  0  0  0  0  0  0
    8.0854   -1.1926    0.6854 C   0  0  0  0  0  0  0  0  0  0  0  0
    8.1718   -1.1878   -0.7211 C   0  0  0  0  0  0  0  0  0  0  0  0
    9.3612   -1.5021   -1.3963 O   0  0  0  0  0  0  0  0  0  0  0  0
   10.6055   -1.7753   -0.7612 C   0  0  0  0  0  0  0  0  0  0  0  0
    7.0460   -0.8591   -1.4849 C   0  0  0  0  0  0  0  0  0  0  0  0
    7.1714   -0.8443   -2.8840 O   0  0  0  0  0  0  0  0  0  0  0  0
    6.1115   -0.5448   -3.7888 C   0  0  0  0  0  0  0  0  0  0  0  0
    5.8351   -0.5483   -0.8399 C   0  0  0  0  0  0  0  0  0  0  0  0
   -0.2090    1.0782    1.6225 C   0  0  0  0  0  0  0  0  0  0  0  0
   -0.8794    0.2735    2.7966 C   0  0  0  0  0  0  0  0  0  0  0  0
   -1.2419   -1.2133    2.5325 C   0  0  0  0  0  0  0  0  0  0  0  0
   -2.7379   -1.3860    2.2533 C   0  0  0  0  0  0  0  0  0  0  0  0
   -0.8445   -2.1076    3.7195 C   0  0  0  0  0  0  0  0  0  0  0  0
   -1.0546    2.1751    0.8246 C   0  0  0  0  0  0  0  0  0  0  0  0
   -7.0190    1.1523    1.5316 H   0  0  0  0  0  0  0  0  0  0  0  0
   -7.6458    2.6922    2.1963 H   0  0  0  0  0  0  0  0  0  0  0  0
   -6.9509    1.4897    3.3314 H   0  0  0  0  0  0  0  0  0  0  0  0
   -4.6981    0.7701    1.5465 H   0  0  0  0  0  0  0  0  0  0  0  0
   -4.5718    1.1628    3.3060 H   0  0  0  0  0  0  0  0  0  0  0  0
   -4.2586    3.1402   -0.0194 H   0  0  0  0  0  0  0  0  0  0  0  0
   -2.6956    3.7884   -0.4935 H   0  0  0  0  0  0  0  0  0  0  0  0
   -3.9962    2.6592   -2.3179 H   0  0  0  0  0  0  0  0  0  0  0  0
   -2.4018    2.7327   -4.0429 H   0  0  0  0  0  0  0  0  0  0  0  0
   -1.8346    3.8711   -2.7304 H   0  0  0  0  0  0  0  0  0  0  0  0
   -0.6956    2.7044   -3.4797 H   0  0  0  0  0  0  0  0  0  0  0  0
   -3.5353    0.1273   -0.6803 H   0  0  0  0  0  0  0  0  0  0  0  0
   -5.8694    1.4588   -1.6202 H   0  0  0  0  0  0  0  0  0  0  0  0
   -3.1708    0.0413   -3.3673 H   0  0  0  0  0  0  0  0  0  0  0  0
   -5.9761   -0.3149   -3.1750 H   0  0  0  0  0  0  0  0  0  0  0  0
   -4.4981   -1.9602   -1.4963 H   0  0  0  0  0  0  0  0  0  0  0  0
   -4.5744   -2.2751   -3.2283 H   0  0  0  0  0  0  0  0  0  0  0  0
   -2.7256   -2.4819   -0.4599 H   0  0  0  0  0  0  0  0  0  0  0  0
   -2.0571   -3.8038   -1.4660 H   0  0  0  0  0  0  0  0  0  0  0  0
   -0.0637   -2.4351   -2.0024 H   0  0  0  0  0  0  0  0  0  0  0  0
   -0.2631   -2.6230   -0.2367 H   0  0  0  0  0  0  0  0  0  0  0  0
   -1.0432   -0.2383   -2.0023 H   0  0  0  0  0  0  0  0  0  0  0  0
   -1.4974   -0.3279   -0.2646 H   0  0  0  0  0  0  0  0  0  0  0  0
    1.3638   -0.6279   -1.0822 H   0  0  0  0  0  0  0  0  0  0  0  0
    0.7194    0.9883   -1.1905 H   0  0  0  0  0  0  0  0  0  0  0  0
    3.2176   -0.8459   -0.2694 H   0  0  0  0  0  0  0  0  0  0  0  0
    4.5379    0.0572    2.3034 H   0  0  0  0  0  0  0  0  0  0  0  0
    6.8353   -0.9018    2.4036 H   0  0  0  0  0  0  0  0  0  0  0  0
    8.9411   -1.4364    1.2973 H   0  0  0  0  0  0  0  0  0  0  0  0
   10.5188   -2.6744   -0.1191 H   0  0  0  0  0  0  0  0  0  0  0  0
   11.3758   -1.9649   -1.5364 H   0  0  0  0  0  0  0  0  0  0  0  0
   10.9269   -0.9086   -0.1557 H   0  0  0  0  0  0  0  0  0  0  0  0
    6.4835   -0.6490   -4.8278 H   0  0  0  0  0  0  0  0  0  0  0  0
    5.2634   -1.2483   -3.6407 H   0  0  0  0  0  0  0  0  0  0  0  0
    5.7742    0.5016   -3.6463 H   0  0  0  0  0  0  0  0  0  0  0  0
    4.9821   -0.2564   -1.4275 H   0  0  0  0  0  0  0  0  0  0  0  0
    0.4640    1.7630    2.1904 H   0  0  0  0  0  0  0  0  0  0  0  0
   -0.1672    0.3040    3.6503 H   0  0  0  0  0  0  0  0  0  0  0  0
   -1.7360    0.7959    3.2460 H   0  0  0  0  0  0  0  0  0  0  0  0
   -0.6822   -1.5921    1.6651 H   0  0  0  0  0  0  0  0  0  0  0  0
   -3.3382   -1.0563    3.1269 H   0  0  0  0  0  0  0  0  0  0  0  0
   -2.9748   -2.4523    2.0382 H   0  0  0  0  0  0  0  0  0  0  0  0
   -3.0378   -0.7898    1.3743 H   0  0  0  0  0  0  0  0  0  0  0  0
   -1.0916   -3.1686    3.5039 H   0  0  0  0  0  0  0  0  0  0  0  0
   -1.3751   -1.7981    4.6425 H   0  0  0  0  0  0  0  0  0  0  0  0
    0.2522   -2.0470    3.8939 H   0  0  0  0  0  0  0  0  0  0  0  0
   -0.7993    3.1744    1.2488 H   0  0  0  0  0  0  0  0  0  0  0  0
   -0.6789    2.2703   -0.2060 H   0  0  0  0  0  0  0  0  0  0  0  0
  1  2  1  0
  2  3  1  0
  3  4  1  0
  4  5  2  0
  4  6  1  0
  6  7  1  0
  7  8  1  0
  8  9  1  0
  9 10  1  0
  8 11  1  0
 11 12  1  0
 11 13  1  0
 13 14  1  0
 13 15  1  0
 15 16  1  0
 16 17  1  0
 17 18  1  0
 18 19  1  0
 19 20  1  0
 20 21  1  0
 21 22  1  0
 22 23  2  0
 22 24  1  0
 24 25  2  0
 25 26  1  0
 26 27  2  0
 27 28  1  0
 28 29  2  0
 29 30  1  0
 30 31  1  0
 29 32  1  0
 32 33  1  0
 33 34  1  0
 32 35  2  0
 21 36  1  0
 36 37  1  0
 37 38  1  0
 38 39  1  0
 38 40  1  0
 36 41  1  0
 41  6  1  0
 35 26  1  0
  1 42  1  0
  1 43  1  0
  1 44  1  0
  3 45  1  0
  3 46  1  0
  7 47  1  0
  7 48  1  0
  8 49  1  0
 10 50  1  0
 10 51  1  0
 10 52  1  0
 11 53  1  0
 12 54  1  0
 13 55  1  0
 14 56  1  0
 15 57  1  0
 15 58  1  0
 17 59  1  0
 17 60  1  0
 18 61  1  0
 18 62  1  0
 19 63  1  0
 19 64  1  0
 20 65  1  0
 20 66  1  0
 24 67  1  0
 25 68  1  0
 27 69  1  0
 28 70  1  0
 31 71  1  0
 31 72  1  0
 31 73  1  0
 34 74  1  0
 34 75  1  0
 34 76  1  0
 35 77  1  0
 36 78  1  0
 37 79  1  0
 37 80  1  0
 38 81  1  0
 39 82  1  0
 39 83  1  0
 39 84  1  0
 40 85  1  0
 40 86  1  0
 40 87  1  0
 41 88  1  0
 41 89  1  0
M  END
$$$$
