
     RDKit          3D

 67 70  0  0  0  0  0  0  0  0999 V2000
   -1.9167    3.6072    1.1958 C   0  0  0  0  0  0  0  0  0  0  0  0
   -1.3461    3.6092   -0.2182 C   0  0  0  0  0  0  0  0  0  0  0  0
   -1.0883    2.2379   -0.6824 N   0  0  0  0  0  0  0  0  0  0  0  0
   -1.7139    1.7886   -1.9396 C   0  0  0  0  0  0  0  0  0  0  0  0
   -3.2002    1.4552   -1.7507 C   0  0  0  0  0  0  0  0  0  0  0  0
   -3.3287    0.0904   -1.3677 O   0  0  0  0  0  0  0  0  0  0  0  0
   -4.3890   -0.4517   -0.6244 C   0  0  0  0  0  0  0  0  0  0  0  0
   -5.6090    0.2309   -0.4627 C   0  0  0  0  0  0  0  0  0  0  0  0
   -6.6278   -0.3224    0.3173 C   0  0  0  0  0  0  0  0  0  0  0  0
   -6.4414   -1.5568    0.9422 C   0  0  0  0  0  0  0  0  0  0  0  0
   -5.2390   -2.2493    0.7801 C   0  0  0  0  0  0  0  0  0  0  0  0
   -4.2086   -1.7081   -0.0049 C   0  0  0  0  0  0  0  0  0  0  0  0
   -2.9273   -2.4856   -0.1948 C   0  0  0  0  0  0  0  0  0  0  0  0
   -2.0138   -2.5521    1.0487 C   0  0  0  0  0  0  0  0  0  0  0  0
   -1.9241   -1.2977    1.9451 C   0  0  0  0  0  0  0  0  0  0  0  0
   -1.4697    0.0377    1.3069 C   0  0  0  0  0  0  0  0  0  0  0  0
   -0.1807    0.0595    0.4290 C   0  0  0  0  0  0  0  0  0  0  0  0
    1.0215   -0.3894    1.3123 C   0  0  0  0  0  0  0  0  0  0  0  0
    2.2133   -0.6206    0.4936 N   0  0  0  0  0  0  0  0  0  0  0  0
    3.5172   -0.4029    1.0714 C   0  0  0  0  0  0  0  0  0  0  0  0
    3.6928    0.5732    1.8497 O   0  0  0  0  0  0  0  0  0  0  0  0
    4.6690   -1.3451    0.8298 C   0  0  0  0  0  0  0  0  0  0  0  0
    5.8517   -0.6119    0.2538 C   0  0  0  0  0  0  0  0  0  0  0  0
    5.9723   -0.4345   -1.1349 C   0  0  0  0  0  0  0  0  0  0  0  0
    7.0662    0.2584   -1.6638 C   0  0  0  0  0  0  0  0  0  0  0  0
    8.0416    0.7858   -0.8119 C   0  0  0  0  0  0  0  0  0  0  0  0
    7.9234    0.6241    0.5709 C   0  0  0  0  0  0  0  0  0  0  0  0
    6.8306   -0.0674    1.1040 C   0  0  0  0  0  0  0  0  0  0  0  0
    2.0315   -1.4089   -0.7252 C   0  0  0  0  0  0  0  0  0  0  0  0
    0.8105   -0.9045   -1.4912 C   0  0  0  0  0  0  0  0  0  0  0  0
   -0.3430   -0.8307   -0.6672 O   0  0  0  0  0  0  0  0  0  0  0  0
   -0.0019    1.5004   -0.0756 C   0  0  0  0  0  0  0  0  0  0  0  0
    1.1184    2.0708    0.0489 O   0  0  0  0  0  0  0  0  0  0  0  0
   -2.8418    2.9942    1.2383 H   0  0  0  0  0  0  0  0  0  0  0  0
   -1.1710    3.2011    1.9113 H   0  0  0  0  0  0  0  0  0  0  0  0
   -2.1648    4.6472    1.4984 H   0  0  0  0  0  0  0  0  0  0  0  0
   -0.4052    4.1986   -0.2384 H   0  0  0  0  0  0  0  0  0  0  0  0
   -2.0700    4.1220   -0.8880 H   0  0  0  0  0  0  0  0  0  0  0  0
   -1.1849    0.9117   -2.3627 H   0  0  0  0  0  0  0  0  0  0  0  0
   -1.6178    2.5955   -2.6985 H   0  0  0  0  0  0  0  0  0  0  0  0
   -3.6370    2.1246   -0.9795 H   0  0  0  0  0  0  0  0  0  0  0  0
   -3.7464    1.6110   -2.7054 H   0  0  0  0  0  0  0  0  0  0  0  0
   -5.7805    1.1847   -0.9428 H   0  0  0  0  0  0  0  0  0  0  0  0
   -7.5643    0.2072    0.4392 H   0  0  0  0  0  0  0  0  0  0  0  0
   -7.2327   -1.9822    1.5472 H   0  0  0  0  0  0  0  0  0  0  0  0
   -5.1110   -3.2100    1.2633 H   0  0  0  0  0  0  0  0  0  0  0  0
   -2.3580   -2.1022   -1.0629 H   0  0  0  0  0  0  0  0  0  0  0  0
   -3.1938   -3.5265   -0.4816 H   0  0  0  0  0  0  0  0  0  0  0  0
   -2.3861   -3.3796    1.6920 H   0  0  0  0  0  0  0  0  0  0  0  0
   -0.9939   -2.8544    0.7321 H   0  0  0  0  0  0  0  0  0  0  0  0
   -2.9203   -1.1291    2.4088 H   0  0  0  0  0  0  0  0  0  0  0  0
   -1.2485   -1.5335    2.7946 H   0  0  0  0  0  0  0  0  0  0  0  0
   -1.3195    0.7475    2.1505 H   0  0  0  0  0  0  0  0  0  0  0  0
   -2.3208    0.4572    0.7540 H   0  0  0  0  0  0  0  0  0  0  0  0
    1.2128    0.3711    2.0998 H   0  0  0  0  0  0  0  0  0  0  0  0
    0.7924   -1.3436    1.8271 H   0  0  0  0  0  0  0  0  0  0  0  0
    4.9488   -1.8110    1.7998 H   0  0  0  0  0  0  0  0  0  0  0  0
    4.3858   -2.1862    0.1638 H   0  0  0  0  0  0  0  0  0  0  0  0
    5.2269   -0.8374   -1.8084 H   0  0  0  0  0  0  0  0  0  0  0  0
    7.1583    0.3847   -2.7348 H   0  0  0  0  0  0  0  0  0  0  0  0
    8.8886    1.3196   -1.2243 H   0  0  0  0  0  0  0  0  0  0  0  0
    8.6769    1.0365    1.2300 H   0  0  0  0  0  0  0  0  0  0  0  0
    6.7467   -0.1790    2.1775 H   0  0  0  0  0  0  0  0  0  0  0  0
    2.9141   -1.3125   -1.3905 H   0  0  0  0  0  0  0  0  0  0  0  0
    1.8905   -2.4781   -0.4578 H   0  0  0  0  0  0  0  0  0  0  0  0
    0.5995   -1.6130   -2.3191 H   0  0  0  0  0  0  0  0  0  0  0  0
    1.0364    0.0740   -1.9673 H   0  0  0  0  0  0  0  0  0  0  0  0
  1  2  1  0
  2  3  1  0
  3  4  1  0
  4  5  1  0
  5  6  1  0
  6  7  1  0
  7  8  2  0
  8  9  1  0
  9 10  2  0
 10 11  1  0
 11 12  2  0
 12 13  1  0
 13 14  1  0
 14 15  1  0
 15 16  1  0
 16 17  1  0
 17 18  1  0
 18 19  1  0
 19 20  1  0
 20 21  2  0
 20 22  1  0
 22 23  1  0
 23 24  2  0
 24 25  1  0
 25 26  2  0
 26 27  1  0
 27 28  2  0
 19 29  1  0
 29 30  1  0
 30 31  1  0
 17 32  1  0
 32 33  2  0
 32  3  1  0
 12  7  1  0
 31 17  1  0
 28 23  1  0
  1 34  1  0
  1 35  1  0
  1 36  1  0
  2 37  1  0
  2 38  1  0
  4 39  1  0
  4 40  1  0
  5 41  1  0
  5 42  1  0
  8 43  1  0
  9 44  1  0
 10 45  1  0
 11 46  1  0
 13 47  1  0
 13 48  1  0
 14 49  1  0
 14 50  1  0
 15 51  1  0
 15 52  1  0
 16 53  1  0
 16 54  1  0
 18 55  1  0
 18 56  1  0
 22 57  1  0
 22 58  1  0
 24 59  1  0
 25 60  1  0
 26 61  1  0
 27 62  1  0
 28 63  1  0
 29 64  1  0
 29 65  1  0
 30 66  1  0
 30 67  1  0
M  END
$$$$
