
     RDKit          3D

 83 86  0  0  0  0  0  0  0  0999 V2000
    7.2515   -1.3763    0.5739 C   0  0  0  0  0  0  0  0  0  0  0  0
    6.2793   -0.4538    1.3305 C   0  0  0  0  0  0  0  0  0  0  0  0
    6.8050    0.9842    1.3595 C   0  0  0  0  0  0  0  0  0  0  0  0
    4.8185   -0.5742    0.8187 C   0  0  0  0  0  0  0  0  0  0  0  0
    4.5651   -0.0456   -0.6306 C   0  0  0  0  0  0  0  0  0  0  0  0
    4.0867    1.4183   -0.6321 C   0  0  0  0  0  0  0  0  0  0  0  0
    2.7593    1.5587   -0.1068 O   0  0  0  0  0  0  0  0  0  0  0  0
    2.1058    2.8039    0.0147 C   0  0  0  0  0  0  0  0  0  0  0  0
    2.7459    4.0117   -0.3441 C   0  0  0  0  0  0  0  0  0  0  0  0
    2.1009    5.2384   -0.1891 C   0  0  0  0  0  0  0  0  0  0  0  0
    0.8077    5.2887    0.3118 C   0  0  0  0  0  0  0  0  0  0  0  0
    0.1576    4.1123    0.6614 C   0  0  0  0  0  0  0  0  0  0  0  0
    0.7856    2.8671    0.5114 C   0  0  0  0  0  0  0  0  0  0  0  0
    0.0300    1.6532    0.8622 C   0  0  0  0  0  0  0  0  0  0  0  0
   -0.4848    1.5592    2.0102 O   0  0  0  0  0  0  0  0  0  0  0  0
   -0.2108    0.6433   -0.1271 N   0  0  0  0  0  0  0  0  0  0  0  0
   -1.1624   -0.4584    0.0937 C   0  0  0  0  0  0  0  0  0  0  0  0
   -2.5326    0.0788    0.4168 C   0  0  0  0  0  0  0  0  0  0  0  0
   -3.1872   -0.4563    1.3520 O   0  0  0  0  0  0  0  0  0  0  0  0
   -3.0859    1.1709   -0.3238 N   0  0  0  0  0  0  0  0  0  0  0  0
   -4.2991    1.8808    0.0834 C   0  0  0  0  0  0  0  0  0  0  0  0
   -5.5663    1.3732   -0.6653 C   0  0  0  0  0  0  0  0  0  0  0  0
   -5.3428    1.5234   -2.1892 C   0  0  0  0  0  0  0  0  0  0  0  0
   -6.7568    2.2923   -0.3006 C   0  0  0  0  0  0  0  0  0  0  0  0
   -5.9055   -0.0740   -0.2411 C   0  0  0  0  0  0  0  0  0  0  0  0
   -5.8682   -1.1663   -1.1429 C   0  0  0  0  0  0  0  0  0  0  0  0
   -6.2299   -2.4531   -0.7294 C   0  0  0  0  0  0  0  0  0  0  0  0
   -6.6078   -2.6870    0.5967 C   0  0  0  0  0  0  0  0  0  0  0  0
   -6.9632   -3.9345    0.9956 F   0  0  0  0  0  0  0  0  0  0  0  0
   -6.6270   -1.6319    1.5077 C   0  0  0  0  0  0  0  0  0  0  0  0
   -6.2734   -0.3439    1.1013 C   0  0  0  0  0  0  0  0  0  0  0  0
   -1.2538   -1.3683   -1.1480 C   0  0  0  0  0  0  0  0  0  0  0  0
    0.0921   -1.9142   -1.5103 C   0  0  0  0  0  0  0  0  0  0  0  0
    0.6158   -1.6020   -2.6171 O   0  0  0  0  0  0  0  0  0  0  0  0
    0.8242   -2.7272   -0.5811 N   0  0  0  0  0  0  0  0  0  0  0  0
    0.2899   -3.9378    0.0021 C   0  0  0  0  0  0  0  0  0  0  0  0
    1.4335   -4.5417    0.8115 C   0  0  0  0  0  0  0  0  0  0  0  0
    2.4526   -3.4205    1.0111 C   0  0  0  0  0  0  0  0  0  0  0  0
    2.0984   -2.3233   -0.0041 C   0  0  0  0  0  0  0  0  0  0  0  0
    3.1379   -2.1660   -1.0822 C   0  0  0  0  0  0  0  0  0  0  0  0
    3.4591   -3.1501   -1.7973 O   0  0  0  0  0  0  0  0  0  0  0  0
    3.6277   -0.8624   -1.4276 N   0  0  0  0  0  0  0  0  0  0  0  0
    8.2477   -1.3634    1.0747 H   0  0  0  0  0  0  0  0  0  0  0  0
    7.3863   -1.0451   -0.4799 H   0  0  0  0  0  0  0  0  0  0  0  0
    6.8767   -2.4307    0.5788 H   0  0  0  0  0  0  0  0  0  0  0  0
    6.2678   -0.8095    2.3819 H   0  0  0  0  0  0  0  0  0  0  0  0
    6.9672    1.3704    0.3316 H   0  0  0  0  0  0  0  0  0  0  0  0
    6.0927    1.6446    1.9059 H   0  0  0  0  0  0  0  0  0  0  0  0
    7.7726    1.0213    1.9029 H   0  0  0  0  0  0  0  0  0  0  0  0
    4.5792   -1.6499    0.8893 H   0  0  0  0  0  0  0  0  0  0  0  0
    4.1376   -0.0618    1.5335 H   0  0  0  0  0  0  0  0  0  0  0  0
    5.5278   -0.0571   -1.1793 H   0  0  0  0  0  0  0  0  0  0  0  0
    4.7813    2.0488   -0.0364 H   0  0  0  0  0  0  0  0  0  0  0  0
    4.1074    1.7921   -1.6836 H   0  0  0  0  0  0  0  0  0  0  0  0
    3.7518    4.0258   -0.7327 H   0  0  0  0  0  0  0  0  0  0  0  0
    2.6133    6.1525   -0.4553 H   0  0  0  0  0  0  0  0  0  0  0  0
    0.3125    6.2394    0.4300 H   0  0  0  0  0  0  0  0  0  0  0  0
   -0.8598    4.1630    1.0321 H   0  0  0  0  0  0  0  0  0  0  0  0
    0.3847    0.6602   -0.9906 H   0  0  0  0  0  0  0  0  0  0  0  0
   -0.8064   -1.0597    0.9574 H   0  0  0  0  0  0  0  0  0  0  0  0
   -2.5416    1.5643   -1.1245 H   0  0  0  0  0  0  0  0  0  0  0  0
   -4.4291    1.8097    1.1823 H   0  0  0  0  0  0  0  0  0  0  0  0
   -4.1515    2.9629   -0.1326 H   0  0  0  0  0  0  0  0  0  0  0  0
   -4.4934    0.9025   -2.5382 H   0  0  0  0  0  0  0  0  0  0  0  0
   -6.2600    1.2254   -2.7465 H   0  0  0  0  0  0  0  0  0  0  0  0
   -5.1030    2.5800   -2.4456 H   0  0  0  0  0  0  0  0  0  0  0  0
   -7.6909    1.8981   -0.7347 H   0  0  0  0  0  0  0  0  0  0  0  0
   -6.8885    2.3763    0.7968 H   0  0  0  0  0  0  0  0  0  0  0  0
   -6.6009    3.3266   -0.6791 H   0  0  0  0  0  0  0  0  0  0  0  0
   -5.5814   -1.0467   -2.1766 H   0  0  0  0  0  0  0  0  0  0  0  0
   -6.2171   -3.2749   -1.4322 H   0  0  0  0  0  0  0  0  0  0  0  0
   -6.9172   -1.8119    2.5393 H   0  0  0  0  0  0  0  0  0  0  0  0
   -6.2875    0.4424    1.8417 H   0  0  0  0  0  0  0  0  0  0  0  0
   -1.6709   -0.7912   -2.0064 H   0  0  0  0  0  0  0  0  0  0  0  0
   -1.9431   -2.2167   -0.9376 H   0  0  0  0  0  0  0  0  0  0  0  0
   -0.5691   -3.6902    0.6637 H   0  0  0  0  0  0  0  0  0  0  0  0
   -0.0309   -4.6436   -0.7985 H   0  0  0  0  0  0  0  0  0  0  0  0
    1.9049   -5.3717    0.2345 H   0  0  0  0  0  0  0  0  0  0  0  0
    1.0752   -4.9351    1.7848 H   0  0  0  0  0  0  0  0  0  0  0  0
    3.4911   -3.8053    0.8924 H   0  0  0  0  0  0  0  0  0  0  0  0
    2.3545   -3.0126    2.0425 H   0  0  0  0  0  0  0  0  0  0  0  0
    1.9602   -1.3565    0.5288 H   0  0  0  0  0  0  0  0  0  0  0  0
    3.4772   -0.5623   -2.4178 H   0  0  0  0  0  0  0  0  0  0  0  0
  1  2  1  0
  2  3  1  0
  2  4  1  0
  4  5  1  0
  5  6  1  0
  6  7  1  0
  7  8  1  0
  8  9  2  0
  9 10  1  0
 10 11  2  0
 11 12  1  0
 12 13  2  0
 13 14  1  0
 14 15  2  0
 14 16  1  0
 16 17  1  0
 17 18  1  0
 18 19  2  0
 18 20  1  0
 20 21  1  0
 21 22  1  0
 22 23  1  0
 22 24  1  0
 22 25  1  0
 25 26  2  0
 26 27  1  0
 27 28  2  0
 28 29  1  0
 28 30  1  0
 30 31  2  0
 17 32  1  0
 32 33  1  0
 33 34  2  0
 33 35  1  0
 35 36  1  0
 36 37  1  0
 37 38  1  0
 38 39  1  0
 39 40  1  0
 40 41  2  0
 40 42  1  0
 42  5  1  0
 13  8  1  0
 31 25  1  0
 39 35  1  0
  1 43  1  0
  1 44  1  0
  1 45  1  0
  2 46  1  0
  3 47  1  0
  3 48  1  0
  3 49  1  0
  4 50  1  0
  4 51  1  0
  5 52  1  0
  6 53  1  0
  6 54  1  0
  9 55  1  0
 10 56  1  0
 11 57  1  0
 12 58  1  0
 16 59  1  0
 17 60  1  0
 20 61  1  0
 21 62  1  0
 21 63  1  0
 23 64  1  0
 23 65  1  0
 23 66  1  0
 24 67  1  0
 24 68  1  0
 24 69  1  0
 26 70  1  0
 27 71  1  0
 30 72  1  0
 31 73  1  0
 32 74  1  0
 32 75  1  0
 36 76  1  0
 36 77  1  0
 37 78  1  0
 37 79  1  0
 38 80  1  0
 38 81  1  0
 39 82  1  0
 42 83  1  0
M  END
$$$$
