
     RDKit          3D

 65 67  0  0  0  0  0  0  0  0999 V2000
   -6.5381   -0.2427    1.9553 C   0  0  0  0  0  0  0  0  0  0  0  0
   -5.2072   -0.9670    2.1991 C   0  0  0  0  0  0  0  0  0  0  0  0
   -4.7684   -0.8632    3.6705 C   0  0  0  0  0  0  0  0  0  0  0  0
   -4.1671   -0.5061    1.2366 N   0  0  0  0  0  0  0  0  0  0  0  0
   -3.6896    0.8866    1.4493 C   0  0  0  0  0  0  0  0  0  0  0  0
   -3.6739    1.6601    0.1195 C   0  0  0  0  0  0  0  0  0  0  0  0
   -2.3466    1.7292   -0.3662 O   0  0  0  0  0  0  0  0  0  0  0  0
   -2.3246    2.3282   -1.6430 C   0  0  0  0  0  0  0  0  0  0  0  0
   -0.8877    2.7002   -1.9796 C   0  0  0  0  0  0  0  0  0  0  0  0
   -0.0891    1.5149   -2.0294 O   0  0  0  0  0  0  0  0  0  0  0  0
    1.1571    1.3200   -1.4049 C   0  0  0  0  0  0  0  0  0  0  0  0
    1.9081    2.3968   -0.8865 C   0  0  0  0  0  0  0  0  0  0  0  0
    3.1256    2.1711   -0.2422 C   0  0  0  0  0  0  0  0  0  0  0  0
    3.6394    0.8752   -0.1391 C   0  0  0  0  0  0  0  0  0  0  0  0
    4.9366    0.6501    0.5245 C   0  0  0  0  0  0  0  0  0  0  0  0
    5.0792    1.0376    1.7161 O   0  0  0  0  0  0  0  0  0  0  0  0
    6.0383    0.0236   -0.1689 N   0  0  0  0  0  0  0  0  0  0  0  0
    6.0585   -0.0149   -1.6381 C   0  0  0  0  0  0  0  0  0  0  0  0
    7.2031   -0.4591    0.5882 C   0  0  0  0  0  0  0  0  0  0  0  0
    6.9001   -1.8147    1.2295 C   0  0  0  0  0  0  0  0  0  0  0  0
    8.0457   -2.3032    1.8819 O   0  0  0  0  0  0  0  0  0  0  0  0
    2.9094   -0.2007   -0.6558 C   0  0  0  0  0  0  0  0  0  0  0  0
    1.6658    0.0042   -1.2823 C   0  0  0  0  0  0  0  0  0  0  0  0
    0.9945   -1.1855   -1.9393 C   0  0  0  0  0  0  0  0  0  0  0  0
   -0.5021   -1.2429   -1.7414 C   0  0  0  0  0  0  0  0  0  0  0  0
   -1.3523   -1.3136   -2.8586 C   0  0  0  0  0  0  0  0  0  0  0  0
   -2.7317   -1.4327   -2.6914 C   0  0  0  0  0  0  0  0  0  0  0  0
   -3.2791   -1.4811   -1.4086 C   0  0  0  0  0  0  0  0  0  0  0  0
   -2.4495   -1.3891   -0.2793 C   0  0  0  0  0  0  0  0  0  0  0  0
   -1.0571   -1.2874   -0.4504 C   0  0  0  0  0  0  0  0  0  0  0  0
   -3.0525   -1.4745    1.0985 C   0  0  0  0  0  0  0  0  0  0  0  0
   -6.8079   -0.3054    0.8807 H   0  0  0  0  0  0  0  0  0  0  0  0
   -7.3492   -0.7263    2.5461 H   0  0  0  0  0  0  0  0  0  0  0  0
   -6.4858    0.8253    2.2427 H   0  0  0  0  0  0  0  0  0  0  0  0
   -5.4326   -2.0394    2.0025 H   0  0  0  0  0  0  0  0  0  0  0  0
   -5.5212   -1.3546    4.3254 H   0  0  0  0  0  0  0  0  0  0  0  0
   -3.8012   -1.3874    3.8142 H   0  0  0  0  0  0  0  0  0  0  0  0
   -4.6639    0.1863    4.0044 H   0  0  0  0  0  0  0  0  0  0  0  0
   -2.6744    0.9083    1.9154 H   0  0  0  0  0  0  0  0  0  0  0  0
   -4.3487    1.4461    2.1519 H   0  0  0  0  0  0  0  0  0  0  0  0
   -4.3478    1.1601   -0.6183 H   0  0  0  0  0  0  0  0  0  0  0  0
   -4.0636    2.6906    0.3102 H   0  0  0  0  0  0  0  0  0  0  0  0
   -2.9370    3.2582   -1.6802 H   0  0  0  0  0  0  0  0  0  0  0  0
   -2.7007    1.6127   -2.4047 H   0  0  0  0  0  0  0  0  0  0  0  0
   -0.8500    3.2081   -2.9660 H   0  0  0  0  0  0  0  0  0  0  0  0
   -0.5499    3.4103   -1.1985 H   0  0  0  0  0  0  0  0  0  0  0  0
    1.5793    3.4206   -0.9862 H   0  0  0  0  0  0  0  0  0  0  0  0
    3.6855    3.0139    0.1513 H   0  0  0  0  0  0  0  0  0  0  0  0
    5.9184    1.0085   -2.0503 H   0  0  0  0  0  0  0  0  0  0  0  0
    5.2539   -0.6793   -2.0114 H   0  0  0  0  0  0  0  0  0  0  0  0
    7.0175   -0.4128   -2.0288 H   0  0  0  0  0  0  0  0  0  0  0  0
    7.4845    0.2741    1.3763 H   0  0  0  0  0  0  0  0  0  0  0  0
    8.0886   -0.5650   -0.0732 H   0  0  0  0  0  0  0  0  0  0  0  0
    6.0493   -1.7258    1.9474 H   0  0  0  0  0  0  0  0  0  0  0  0
    6.6081   -2.5316    0.4322 H   0  0  0  0  0  0  0  0  0  0  0  0
    8.1059   -1.8233    2.7487 H   0  0  0  0  0  0  0  0  0  0  0  0
    3.3129   -1.2016   -0.5655 H   0  0  0  0  0  0  0  0  0  0  0  0
    1.4154   -2.1347   -1.5434 H   0  0  0  0  0  0  0  0  0  0  0  0
    1.2485   -1.1640   -3.0189 H   0  0  0  0  0  0  0  0  0  0  0  0
   -0.9447   -1.2933   -3.8602 H   0  0  0  0  0  0  0  0  0  0  0  0
   -3.3759   -1.5130   -3.5599 H   0  0  0  0  0  0  0  0  0  0  0  0
   -4.3509   -1.5914   -1.2914 H   0  0  0  0  0  0  0  0  0  0  0  0
   -0.4056   -1.2527    0.4142 H   0  0  0  0  0  0  0  0  0  0  0  0
   -2.2871   -1.3190    1.8929 H   0  0  0  0  0  0  0  0  0  0  0  0
   -3.4142   -2.5215    1.2157 H   0  0  0  0  0  0  0  0  0  0  0  0
  1  2  1  0
  2  3  1  0
  2  4  1  0
  4  5  1  0
  5  6  1  0
  6  7  1  0
  7  8  1  0
  8  9  1  0
  9 10  1  0
 10 11  1  0
 11 12  2  0
 12 13  1  0
 13 14  2  0
 14 15  1  0
 15 16  2  0
 15 17  1  0
 17 18  1  0
 17 19  1  0
 19 20  1  0
 20 21  1  0
 14 22  1  0
 22 23  2  0
 23 24  1  0
 24 25  1  0
 25 26  1  0
 26 27  2  0
 27 28  1  0
 28 29  2  0
 29 30  1  0
 29 31  1  0
 31  4  1  0
 23 11  1  0
 30 25  2  0
  1 32  1  0
  1 33  1  0
  1 34  1  0
  2 35  1  0
  3 36  1  0
  3 37  1  0
  3 38  1  0
  5 39  1  0
  5 40  1  0
  6 41  1  0
  6 42  1  0
  8 43  1  0
  8 44  1  0
  9 45  1  0
  9 46  1  0
 12 47  1  0
 13 48  1  0
 18 49  1  0
 18 50  1  0
 18 51  1  0
 19 52  1  0
 19 53  1  0
 20 54  1  0
 20 55  1  0
 21 56  1  0
 22 57  1  0
 24 58  1  0
 24 59  1  0
 26 60  1  0
 27 61  1  0
 28 62  1  0
 30 63  1  0
 31 64  1  0
 31 65  1  0
M  END
$$$$
