
     RDKit          3D

 66 68  0  0  0  0  0  0  0  0999 V2000
   -4.3174   -3.7363    2.1586 C   0  0  0  0  0  0  0  0  0  0  0  0
   -3.2739   -2.9570    1.6137 O   0  0  0  0  0  0  0  0  0  0  0  0
   -3.7420   -2.2870    0.4576 C   0  0  0  0  0  0  0  0  0  0  0  0
   -2.6352   -1.3672   -0.1405 C   0  0  0  0  0  0  0  0  0  0  0  0
   -1.3662   -2.2491   -0.3894 C   0  0  0  0  0  0  0  0  0  0  0  0
   -0.2566   -1.5786   -1.2246 C   0  0  0  0  0  0  0  0  0  0  0  0
    1.1516   -2.1030   -0.8654 C   0  0  0  0  0  0  0  0  0  0  0  0
    1.9007   -1.1406    0.0789 C   0  0  0  0  0  0  0  0  0  0  0  0
    2.8122   -0.2711   -0.6850 N   0  0  0  0  0  0  0  0  0  0  0  0
    4.1188   -0.7483   -1.0987 C   0  0  0  0  0  0  0  0  0  0  0  0
    4.6522   -0.2704   -2.1392 O   0  0  0  0  0  0  0  0  0  0  0  0
    4.9018   -1.7546   -0.2738 C   0  0  0  0  0  0  0  0  0  0  0  0
    5.4265   -1.0825    0.9993 C   0  0  0  0  0  0  0  0  0  0  0  0
    6.0628   -2.3730   -1.0672 C   0  0  0  0  0  0  0  0  0  0  0  0
    2.2777    0.9796   -1.2597 C   0  0  0  0  0  0  0  0  0  0  0  0
    1.8788    1.9908   -0.1701 C   0  0  0  0  0  0  0  0  0  0  0  0
    0.4790    2.2595   -0.2460 O   0  0  0  0  0  0  0  0  0  0  0  0
   -0.1671    3.2958    0.4486 C   0  0  0  0  0  0  0  0  0  0  0  0
    0.4743    4.0095    1.4815 C   0  0  0  0  0  0  0  0  0  0  0  0
   -0.1747    5.0743    2.1136 C   0  0  0  0  0  0  0  0  0  0  0  0
   -1.4612    5.4462    1.7195 C   0  0  0  0  0  0  0  0  0  0  0  0
   -2.1109    4.7431    0.7053 C   0  0  0  0  0  0  0  0  0  0  0  0
   -1.4811    3.6548    0.0823 C   0  0  0  0  0  0  0  0  0  0  0  0
   -2.2067    2.8983   -0.9517 C   0  0  0  0  0  0  0  0  0  0  0  0
   -2.4631    3.4640   -2.0535 O   0  0  0  0  0  0  0  0  0  0  0  0
   -2.6048    1.5323   -0.7322 N   0  0  0  0  0  0  0  0  0  0  0  0
   -2.7012    0.6208   -1.8804 C   0  0  0  0  0  0  0  0  0  0  0  0
   -3.2066   -0.7830   -1.4860 C   0  0  0  0  0  0  0  0  0  0  0  0
   -3.0004    1.0692    0.6012 C   0  0  0  0  0  0  0  0  0  0  0  0
   -2.2948   -0.2470    0.9018 C   0  0  0  0  0  0  0  0  0  0  0  0
   -3.9284   -4.2798    3.0455 H   0  0  0  0  0  0  0  0  0  0  0  0
   -5.1604   -3.0942    2.5005 H   0  0  0  0  0  0  0  0  0  0  0  0
   -4.6796   -4.4952    1.4311 H   0  0  0  0  0  0  0  0  0  0  0  0
   -4.0497   -3.0302   -0.3157 H   0  0  0  0  0  0  0  0  0  0  0  0
   -4.6307   -1.6611    0.7089 H   0  0  0  0  0  0  0  0  0  0  0  0
   -0.9515   -2.5480    0.6021 H   0  0  0  0  0  0  0  0  0  0  0  0
   -1.6579   -3.1905   -0.9059 H   0  0  0  0  0  0  0  0  0  0  0  0
   -0.4537   -1.7658   -2.3009 H   0  0  0  0  0  0  0  0  0  0  0  0
   -0.2846   -0.4877   -1.0758 H   0  0  0  0  0  0  0  0  0  0  0  0
    1.0875   -3.1074   -0.3944 H   0  0  0  0  0  0  0  0  0  0  0  0
    1.7416   -2.2398   -1.8003 H   0  0  0  0  0  0  0  0  0  0  0  0
    1.1806   -0.5305    0.6644 H   0  0  0  0  0  0  0  0  0  0  0  0
    2.4514   -1.7074    0.8506 H   0  0  0  0  0  0  0  0  0  0  0  0
    4.2403   -2.5976    0.0099 H   0  0  0  0  0  0  0  0  0  0  0  0
    6.1080   -0.2466    0.7397 H   0  0  0  0  0  0  0  0  0  0  0  0
    5.9781   -1.8160    1.6217 H   0  0  0  0  0  0  0  0  0  0  0  0
    4.5835   -0.6856    1.6022 H   0  0  0  0  0  0  0  0  0  0  0  0
    6.8039   -1.6009   -1.3645 H   0  0  0  0  0  0  0  0  0  0  0  0
    5.6730   -2.8706   -1.9817 H   0  0  0  0  0  0  0  0  0  0  0  0
    6.5812   -3.1400   -0.4523 H   0  0  0  0  0  0  0  0  0  0  0  0
    1.4170    0.7439   -1.9233 H   0  0  0  0  0  0  0  0  0  0  0  0
    3.0275    1.4700   -1.9218 H   0  0  0  0  0  0  0  0  0  0  0  0
    2.4337    2.9397   -0.3500 H   0  0  0  0  0  0  0  0  0  0  0  0
    2.1425    1.6242    0.8448 H   0  0  0  0  0  0  0  0  0  0  0  0
    1.4771    3.7522    1.8016 H   0  0  0  0  0  0  0  0  0  0  0  0
    0.3234    5.6148    2.9086 H   0  0  0  0  0  0  0  0  0  0  0  0
   -1.9585    6.2759    2.2032 H   0  0  0  0  0  0  0  0  0  0  0  0
   -3.1140    5.0376    0.4189 H   0  0  0  0  0  0  0  0  0  0  0  0
   -3.4064    1.0460   -2.6289 H   0  0  0  0  0  0  0  0  0  0  0  0
   -1.7161    0.5494   -2.3842 H   0  0  0  0  0  0  0  0  0  0  0  0
   -4.3138   -0.6974   -1.4209 H   0  0  0  0  0  0  0  0  0  0  0  0
   -3.0135   -1.4887   -2.3237 H   0  0  0  0  0  0  0  0  0  0  0  0
   -4.1033    0.9304    0.6327 H   0  0  0  0  0  0  0  0  0  0  0  0
   -2.7350    1.8052    1.3906 H   0  0  0  0  0  0  0  0  0  0  0  0
   -1.2035   -0.0388    0.9346 H   0  0  0  0  0  0  0  0  0  0  0  0
   -2.5619   -0.5591    1.9341 H   0  0  0  0  0  0  0  0  0  0  0  0
  1  2  1  0
  2  3  1  0
  3  4  1  0
  4  5  1  0
  5  6  1  0
  6  7  1  0
  7  8  1  0
  8  9  1  0
  9 10  1  0
 10 11  2  0
 10 12  1  0
 12 13  1  0
 12 14  1  0
  9 15  1  0
 15 16  1  0
 16 17  1  0
 17 18  1  0
 18 19  2  0
 19 20  1  0
 20 21  2  0
 21 22  1  0
 22 23  2  0
 23 24  1  0
 24 25  2  0
 24 26  1  0
 26 27  1  0
 27 28  1  0
 26 29  1  0
 29 30  1  0
 28  4  1  0
 30  4  1  0
 23 18  1  0
  1 31  1  0
  1 32  1  0
  1 33  1  0
  3 34  1  0
  3 35  1  0
  5 36  1  0
  5 37  1  0
  6 38  1  0
  6 39  1  0
  7 40  1  0
  7 41  1  0
  8 42  1  0
  8 43  1  0
 12 44  1  0
 13 45  1  0
 13 46  1  0
 13 47  1  0
 14 48  1  0
 14 49  1  0
 14 50  1  0
 15 51  1  0
 15 52  1  0
 16 53  1  0
 16 54  1  0
 19 55  1  0
 20 56  1  0
 21 57  1  0
 22 58  1  0
 27 59  1  0
 27 60  1  0
 28 61  1  0
 28 62  1  0
 29 63  1  0
 29 64  1  0
 30 65  1  0
 30 66  1  0
M  END
$$$$
