
     RDKit          3D

 73 75  0  0  0  0  0  0  0  0999 V2000
   10.0920    0.6716   -0.2805 C   0  0  0  0  0  0  0  0  0  0  0  0
    8.7091    0.0282   -0.4320 C   0  0  0  0  0  0  0  0  0  0  0  0
    8.5536   -0.5556   -1.8452 C   0  0  0  0  0  0  0  0  0  0  0  0
    7.5987    1.0565   -0.1290 C   0  0  0  0  0  0  0  0  0  0  0  0
    6.2830    0.4176   -0.0522 N   0  0  0  0  0  0  0  0  0  0  0  0
    5.0740    1.1847    0.0030 C   0  0  0  0  0  0  0  0  0  0  0  0
    5.1257    2.4473    0.0134 O   0  0  0  0  0  0  0  0  0  0  0  0
    3.7476    0.4810   -0.0570 C   0  0  0  0  0  0  0  0  0  0  0  0
    2.6474    1.2268    0.7104 C   0  0  0  0  0  0  0  0  0  0  0  0
    1.3853    0.4051    0.7220 C   0  0  0  0  0  0  0  0  0  0  0  0
    1.0628   -0.3826    1.8339 C   0  0  0  0  0  0  0  0  0  0  0  0
   -0.0418   -1.2354    1.7976 C   0  0  0  0  0  0  0  0  0  0  0  0
   -0.8290   -1.3375    0.6343 C   0  0  0  0  0  0  0  0  0  0  0  0
   -0.5143   -0.5389   -0.4818 C   0  0  0  0  0  0  0  0  0  0  0  0
    0.5855    0.3323   -0.4268 C   0  0  0  0  0  0  0  0  0  0  0  0
   -1.3103   -0.6625   -1.7593 C   0  0  0  0  0  0  0  0  0  0  0  0
   -2.6594   -0.0765   -1.5910 N   0  0  0  0  0  0  0  0  0  0  0  0
   -2.5986    1.4007   -1.7447 C   0  0  0  0  0  0  0  0  0  0  0  0
   -3.6473    2.0690   -0.8971 C   0  0  0  0  0  0  0  0  0  0  0  0
   -3.5621    2.0025    0.5039 C   0  0  0  0  0  0  0  0  0  0  0  0
   -4.5493    2.5921    1.2992 C   0  0  0  0  0  0  0  0  0  0  0  0
   -5.6162    3.2710    0.7024 C   0  0  0  0  0  0  0  0  0  0  0  0
   -5.6974    3.3606   -0.6904 C   0  0  0  0  0  0  0  0  0  0  0  0
   -4.7142    2.7678   -1.4900 C   0  0  0  0  0  0  0  0  0  0  0  0
   -3.5936   -0.6869   -2.5684 C   0  0  0  0  0  0  0  0  0  0  0  0
   -5.0300   -0.3873   -2.2295 C   0  0  0  0  0  0  0  0  0  0  0  0
   -5.7398    0.2026   -3.0845 O   0  0  0  0  0  0  0  0  0  0  0  0
   -5.6153   -0.7393   -0.9653 N   0  0  0  0  0  0  0  0  0  0  0  0
   -5.1227   -1.8097   -0.0952 C   0  0  0  0  0  0  0  0  0  0  0  0
   -4.9877   -1.2940    1.3432 C   0  0  0  0  0  0  0  0  0  0  0  0
   -4.6258   -2.3996    2.3535 C   0  0  0  0  0  0  0  0  0  0  0  0
   -3.1180   -2.5032    2.6533 C   0  0  0  0  0  0  0  0  0  0  0  0
   -2.3090   -3.1736    1.5336 C   0  0  0  0  0  0  0  0  0  0  0  0
   -1.9069   -2.2337    0.5366 O   0  0  0  0  0  0  0  0  0  0  0  0
   10.2247    1.0527    0.7540 H   0  0  0  0  0  0  0  0  0  0  0  0
   10.2132    1.5138   -0.9940 H   0  0  0  0  0  0  0  0  0  0  0  0
   10.8871   -0.0811   -0.4718 H   0  0  0  0  0  0  0  0  0  0  0  0
    8.6400   -0.8011    0.3054 H   0  0  0  0  0  0  0  0  0  0  0  0
    7.5937   -1.1067   -1.9369 H   0  0  0  0  0  0  0  0  0  0  0  0
    8.5755    0.2529   -2.6079 H   0  0  0  0  0  0  0  0  0  0  0  0
    9.3751   -1.2724   -2.0566 H   0  0  0  0  0  0  0  0  0  0  0  0
    7.8023    1.5557    0.8428 H   0  0  0  0  0  0  0  0  0  0  0  0
    7.5899    1.8333   -0.9256 H   0  0  0  0  0  0  0  0  0  0  0  0
    6.2092   -0.6249   -0.0593 H   0  0  0  0  0  0  0  0  0  0  0  0
    3.4563    0.3828   -1.1239 H   0  0  0  0  0  0  0  0  0  0  0  0
    3.8587   -0.5414    0.3661 H   0  0  0  0  0  0  0  0  0  0  0  0
    2.4453    2.2058    0.2226 H   0  0  0  0  0  0  0  0  0  0  0  0
    2.9826    1.4347    1.7507 H   0  0  0  0  0  0  0  0  0  0  0  0
    1.6790   -0.3537    2.7242 H   0  0  0  0  0  0  0  0  0  0  0  0
   -0.2553   -1.8304    2.6730 H   0  0  0  0  0  0  0  0  0  0  0  0
    0.8463    0.9268   -1.2942 H   0  0  0  0  0  0  0  0  0  0  0  0
   -1.3639   -1.7475   -1.9995 H   0  0  0  0  0  0  0  0  0  0  0  0
   -0.7798   -0.1918   -2.6189 H   0  0  0  0  0  0  0  0  0  0  0  0
   -1.6188    1.8020   -1.4048 H   0  0  0  0  0  0  0  0  0  0  0  0
   -2.6882    1.7021   -2.8131 H   0  0  0  0  0  0  0  0  0  0  0  0
   -2.7395    1.4806    0.9768 H   0  0  0  0  0  0  0  0  0  0  0  0
   -4.4911    2.5185    2.3775 H   0  0  0  0  0  0  0  0  0  0  0  0
   -6.3787    3.7296    1.3190 H   0  0  0  0  0  0  0  0  0  0  0  0
   -6.5226    3.8929   -1.1494 H   0  0  0  0  0  0  0  0  0  0  0  0
   -4.7924    2.8438   -2.5672 H   0  0  0  0  0  0  0  0  0  0  0  0
   -3.4924   -1.7938   -2.5827 H   0  0  0  0  0  0  0  0  0  0  0  0
   -3.3596   -0.3416   -3.6022 H   0  0  0  0  0  0  0  0  0  0  0  0
   -6.5599   -0.3494   -0.7485 H   0  0  0  0  0  0  0  0  0  0  0  0
   -5.8483   -2.6523   -0.1283 H   0  0  0  0  0  0  0  0  0  0  0  0
   -4.1537   -2.1998   -0.4523 H   0  0  0  0  0  0  0  0  0  0  0  0
   -5.9652   -0.8546    1.6437 H   0  0  0  0  0  0  0  0  0  0  0  0
   -4.2378   -0.4778    1.3795 H   0  0  0  0  0  0  0  0  0  0  0  0
   -5.1266   -2.1473    3.3137 H   0  0  0  0  0  0  0  0  0  0  0  0
   -5.0318   -3.3854    2.0388 H   0  0  0  0  0  0  0  0  0  0  0  0
   -3.0034   -3.1254    3.5679 H   0  0  0  0  0  0  0  0  0  0  0  0
   -2.7055   -1.5016    2.8977 H   0  0  0  0  0  0  0  0  0  0  0  0
   -1.4167   -3.6884    1.9517 H   0  0  0  0  0  0  0  0  0  0  0  0
   -2.9232   -3.9607    1.0470 H   0  0  0  0  0  0  0  0  0  0  0  0
  1  2  1  0
  2  3  1  0
  2  4  1  0
  4  5  1  0
  5  6  1  0
  6  7  2  0
  6  8  1  0
  8  9  1  0
  9 10  1  0
 10 11  2  0
 11 12  1  0
 12 13  2  0
 13 14  1  0
 14 15  2  0
 14 16  1  0
 16 17  1  0
 17 18  1  0
 18 19  1  0
 19 20  2  0
 20 21  1  0
 21 22  2  0
 22 23  1  0
 23 24  2  0
 17 25  1  0
 25 26  1  0
 26 27  2  0
 26 28  1  0
 28 29  1  0
 29 30  1  0
 30 31  1  0
 31 32  1  0
 32 33  1  0
 33 34  1  0
 15 10  1  0
 24 19  1  0
 34 13  1  0
  1 35  1  0
  1 36  1  0
  1 37  1  0
  2 38  1  0
  3 39  1  0
  3 40  1  0
  3 41  1  0
  4 42  1  0
  4 43  1  0
  5 44  1  0
  8 45  1  0
  8 46  1  0
  9 47  1  0
  9 48  1  0
 11 49  1  0
 12 50  1  0
 15 51  1  0
 16 52  1  0
 16 53  1  0
 18 54  1  0
 18 55  1  0
 20 56  1  0
 21 57  1  0
 22 58  1  0
 23 59  1  0
 24 60  1  0
 25 61  1  0
 25 62  1  0
 28 63  1  0
 29 64  1  0
 29 65  1  0
 30 66  1  0
 30 67  1  0
 31 68  1  0
 31 69  1  0
 32 70  1  0
 32 71  1  0
 33 72  1  0
 33 73  1  0
M  END
$$$$
