
     RDKit          3D

 68 70  0  0  0  0  0  0  0  0999 V2000
    7.2388    1.5339   -3.6630 C   0  0  0  0  0  0  0  0  0  0  0  0
    6.2078    1.1801   -2.6448 C   0  0  0  0  0  0  0  0  0  0  0  0
    6.1431    0.0043   -1.9296 C   0  0  0  0  0  0  0  0  0  0  0  0
    4.9860    0.1426   -1.1898 C   0  0  0  0  0  0  0  0  0  0  0  0
    4.4222   -0.8560   -0.2645 C   0  0  0  0  0  0  0  0  0  0  0  0
    4.9877   -1.9787   -0.1623 O   0  0  0  0  0  0  0  0  0  0  0  0
    3.2163   -0.5983    0.4833 N   0  0  0  0  0  0  0  0  0  0  0  0
    2.9709    0.7167    1.1003 C   0  0  0  0  0  0  0  0  0  0  0  0
    1.8814    1.5037    0.3380 C   0  0  0  0  0  0  0  0  0  0  0  0
    0.7929    2.0917    1.2525 C   0  0  0  0  0  0  0  0  0  0  0  0
   -0.1242    1.0054    1.8276 C   0  0  0  0  0  0  0  0  0  0  0  0
   -1.2549    1.5703    2.4864 O   0  0  0  0  0  0  0  0  0  0  0  0
   -2.3056    2.3100    1.9128 C   0  0  0  0  0  0  0  0  0  0  0  0
   -2.9223    3.2483    2.7515 C   0  0  0  0  0  0  0  0  0  0  0  0
   -3.9764    4.0416    2.2980 C   0  0  0  0  0  0  0  0  0  0  0  0
   -4.4413    3.9024    0.9926 C   0  0  0  0  0  0  0  0  0  0  0  0
   -5.7714    4.8947    0.4223 Cl  0  0  0  0  0  0  0  0  0  0  0  0
   -3.8589    2.9593    0.1442 C   0  0  0  0  0  0  0  0  0  0  0  0
   -2.7977    2.1496    0.5857 C   0  0  0  0  0  0  0  0  0  0  0  0
   -2.3199    1.1283   -0.3599 C   0  0  0  0  0  0  0  0  0  0  0  0
   -1.3522    1.4022   -1.1212 O   0  0  0  0  0  0  0  0  0  0  0  0
   -3.0664   -0.0841   -0.5655 N   0  0  0  0  0  0  0  0  0  0  0  0
   -3.5606   -0.3542   -1.9195 C   0  0  0  0  0  0  0  0  0  0  0  0
   -3.4236   -0.9468    0.5787 C   0  0  0  0  0  0  0  0  0  0  0  0
   -4.8152   -0.5703    1.1073 C   0  0  0  0  0  0  0  0  0  0  0  0
   -3.3395   -2.4259    0.2117 C   0  0  0  0  0  0  0  0  0  0  0  0
   -4.4123   -3.0499   -0.0340 O   0  0  0  0  0  0  0  0  0  0  0  0
   -2.0681   -3.1213    0.0978 N   0  0  0  0  0  0  0  0  0  0  0  0
   -2.0662   -4.5791   -0.1018 C   0  0  0  0  0  0  0  0  0  0  0  0
   -0.8075   -2.3534    0.1369 C   0  0  0  0  0  0  0  0  0  0  0  0
    0.4432   -3.1312   -0.3290 C   0  0  0  0  0  0  0  0  0  0  0  0
    1.6505   -2.2052   -0.5609 C   0  0  0  0  0  0  0  0  0  0  0  0
    2.2843   -1.7045    0.7478 C   0  0  0  0  0  0  0  0  0  0  0  0
    4.4395    1.3031   -1.4716 O   0  0  0  0  0  0  0  0  0  0  0  0
    5.1452    1.9544   -2.3487 N   0  0  0  0  0  0  0  0  0  0  0  0
    7.5791    2.5797   -3.5027 H   0  0  0  0  0  0  0  0  0  0  0  0
    6.7997    1.4415   -4.6798 H   0  0  0  0  0  0  0  0  0  0  0  0
    8.1159    0.8540   -3.5834 H   0  0  0  0  0  0  0  0  0  0  0  0
    6.8265   -0.8337   -1.9568 H   0  0  0  0  0  0  0  0  0  0  0  0
    3.9082    1.3140    1.1243 H   0  0  0  0  0  0  0  0  0  0  0  0
    2.7003    0.5717    2.1675 H   0  0  0  0  0  0  0  0  0  0  0  0
    1.4015    0.8756   -0.4417 H   0  0  0  0  0  0  0  0  0  0  0  0
    2.3663    2.3475   -0.1977 H   0  0  0  0  0  0  0  0  0  0  0  0
    0.1851    2.8007    0.6523 H   0  0  0  0  0  0  0  0  0  0  0  0
    1.2585    2.6687    2.0801 H   0  0  0  0  0  0  0  0  0  0  0  0
    0.4374    0.4253    2.5856 H   0  0  0  0  0  0  0  0  0  0  0  0
   -0.4354    0.2911    1.0537 H   0  0  0  0  0  0  0  0  0  0  0  0
   -2.5708    3.3706    3.7680 H   0  0  0  0  0  0  0  0  0  0  0  0
   -4.4300    4.7628    2.9653 H   0  0  0  0  0  0  0  0  0  0  0  0
   -4.2474    2.8473   -0.8616 H   0  0  0  0  0  0  0  0  0  0  0  0
   -4.2835   -1.1955   -1.9334 H   0  0  0  0  0  0  0  0  0  0  0  0
   -4.0820    0.5432   -2.3146 H   0  0  0  0  0  0  0  0  0  0  0  0
   -2.7074   -0.6059   -2.5835 H   0  0  0  0  0  0  0  0  0  0  0  0
   -2.7098   -0.7697    1.4113 H   0  0  0  0  0  0  0  0  0  0  0  0
   -4.8102    0.4650    1.5027 H   0  0  0  0  0  0  0  0  0  0  0  0
   -5.5743   -0.6394    0.2991 H   0  0  0  0  0  0  0  0  0  0  0  0
   -5.1068   -1.2459    1.9376 H   0  0  0  0  0  0  0  0  0  0  0  0
   -3.0227   -5.0369    0.2224 H   0  0  0  0  0  0  0  0  0  0  0  0
   -1.9039   -4.8115   -1.1752 H   0  0  0  0  0  0  0  0  0  0  0  0
   -1.2765   -5.0562    0.5128 H   0  0  0  0  0  0  0  0  0  0  0  0
   -0.9105   -1.4727   -0.5286 H   0  0  0  0  0  0  0  0  0  0  0  0
   -0.6521   -2.0073    1.1782 H   0  0  0  0  0  0  0  0  0  0  0  0
    0.2184   -3.6312   -1.2954 H   0  0  0  0  0  0  0  0  0  0  0  0
    0.7162   -3.9101    0.4157 H   0  0  0  0  0  0  0  0  0  0  0  0
    1.3439   -1.3470   -1.1964 H   0  0  0  0  0  0  0  0  0  0  0  0
    2.4208   -2.7689   -1.1305 H   0  0  0  0  0  0  0  0  0  0  0  0
    1.4961   -1.3716    1.4492 H   0  0  0  0  0  0  0  0  0  0  0  0
    2.8241   -2.5388    1.2463 H   0  0  0  0  0  0  0  0  0  0  0  0
  1  2  1  0
  2  3  1  0
  3  4  2  0
  4  5  1  0
  5  6  2  0
  5  7  1  0
  7  8  1  0
  8  9  1  0
  9 10  1  0
 10 11  1  0
 11 12  1  0
 12 13  1  0
 13 14  2  0
 14 15  1  0
 15 16  2  0
 16 17  1  0
 16 18  1  0
 18 19  2  0
 19 20  1  0
 20 21  2  0
 20 22  1  0
 22 23  1  0
 22 24  1  0
 24 25  1  0
 24 26  1  0
 26 27  2  0
 26 28  1  0
 28 29  1  0
 28 30  1  0
 30 31  1  0
 31 32  1  0
 32 33  1  0
  4 34  1  0
 34 35  1  0
 35  2  2  0
 33  7  1  0
 19 13  1  0
  1 36  1  0
  1 37  1  0
  1 38  1  0
  3 39  1  0
  8 40  1  0
  8 41  1  0
  9 42  1  0
  9 43  1  0
 10 44  1  0
 10 45  1  0
 11 46  1  0
 11 47  1  0
 14 48  1  0
 15 49  1  0
 18 50  1  0
 23 51  1  0
 23 52  1  0
 23 53  1  0
 24 54  1  0
 25 55  1  0
 25 56  1  0
 25 57  1  0
 29 58  1  0
 29 59  1  0
 29 60  1  0
 30 61  1  0
 30 62  1  0
 31 63  1  0
 31 64  1  0
 32 65  1  0
 32 66  1  0
 33 67  1  0
 33 68  1  0
M  END
$$$$
