
     RDKit          3D

 66 69  0  0  0  0  0  0  0  0999 V2000
    5.7908   -0.4227   -1.6534 C   0  0  0  0  0  0  0  0  0  0  0  0
    4.6973   -1.1075   -2.4689 C   0  0  0  0  0  0  0  0  0  0  0  0
    3.3765   -0.3225   -2.4467 C   0  0  0  0  0  0  0  0  0  0  0  0
    2.8398   -0.1960   -1.0806 N   0  0  0  0  0  0  0  0  0  0  0  0
    2.8194    1.1448   -0.4567 C   0  0  0  0  0  0  0  0  0  0  0  0
    1.7769    2.0891   -1.0947 C   0  0  0  0  0  0  0  0  0  0  0  0
    0.3566    1.5093   -1.1502 C   0  0  0  0  0  0  0  0  0  0  0  0
   -0.2702    1.3570    0.2505 C   0  0  0  0  0  0  0  0  0  0  0  0
   -1.5320    0.5907    0.2789 N   0  0  0  0  0  0  0  0  0  0  0  0
   -2.3374    0.7644    1.4586 C   0  0  0  0  0  0  0  0  0  0  0  0
   -2.3073   -0.1174    2.3580 O   0  0  0  0  0  0  0  0  0  0  0  0
   -3.1860    1.9719    1.6199 C   0  0  0  0  0  0  0  0  0  0  0  0
   -3.4209    2.8177    0.5185 C   0  0  0  0  0  0  0  0  0  0  0  0
   -4.2159    3.9592    0.6559 C   0  0  0  0  0  0  0  0  0  0  0  0
   -4.7866    4.2719    1.8914 C   0  0  0  0  0  0  0  0  0  0  0  0
   -5.5525    5.3829    2.0244 F   0  0  0  0  0  0  0  0  0  0  0  0
   -4.5667    3.4405    2.9911 C   0  0  0  0  0  0  0  0  0  0  0  0
   -3.7734    2.2947    2.8626 C   0  0  0  0  0  0  0  0  0  0  0  0
   -3.5715    1.5181    3.9568 F   0  0  0  0  0  0  0  0  0  0  0  0
   -1.8211   -0.5138   -0.6687 C   0  0  0  0  0  0  0  0  0  0  0  0
   -3.2936   -0.9823   -0.6131 C   0  0  0  0  0  0  0  0  0  0  0  0
   -3.6159   -1.9669   -1.7570 C   0  0  0  0  0  0  0  0  0  0  0  0
   -2.4033   -2.8127   -2.1957 C   0  0  0  0  0  0  0  0  0  0  0  0
   -1.4289   -3.0431   -1.0367 C   0  0  0  0  0  0  0  0  0  0  0  0
   -0.8394   -1.7174   -0.5009 C   0  0  0  0  0  0  0  0  0  0  0  0
   -0.4919   -1.9194    0.8739 O   0  0  0  0  0  0  0  0  0  0  0  0
    0.7099   -1.6802    1.5817 C   0  0  0  0  0  0  0  0  0  0  0  0
    0.5821   -1.7425    2.9782 C   0  0  0  0  0  0  0  0  0  0  0  0
    1.6676   -1.5117    3.8209 C   0  0  0  0  0  0  0  0  0  0  0  0
    2.9175   -1.2262    3.2837 C   0  0  0  0  0  0  0  0  0  0  0  0
    3.0856   -1.1737    1.9021 C   0  0  0  0  0  0  0  0  0  0  0  0
    2.0011   -1.3864    1.0299 C   0  0  0  0  0  0  0  0  0  0  0  0
    2.3204   -1.3771   -0.4100 C   0  0  0  0  0  0  0  0  0  0  0  0
    2.2045   -2.4604   -1.0458 O   0  0  0  0  0  0  0  0  0  0  0  0
    5.9498    0.6161   -2.0091 H   0  0  0  0  0  0  0  0  0  0  0  0
    6.7434   -0.9829   -1.7647 H   0  0  0  0  0  0  0  0  0  0  0  0
    5.5200   -0.4063   -0.5774 H   0  0  0  0  0  0  0  0  0  0  0  0
    4.5441   -2.1367   -2.0831 H   0  0  0  0  0  0  0  0  0  0  0  0
    5.0396   -1.1925   -3.5226 H   0  0  0  0  0  0  0  0  0  0  0  0
    2.6286   -0.8316   -3.0928 H   0  0  0  0  0  0  0  0  0  0  0  0
    3.5573    0.6775   -2.8966 H   0  0  0  0  0  0  0  0  0  0  0  0
    2.6488    1.0934    0.6341 H   0  0  0  0  0  0  0  0  0  0  0  0
    3.8226    1.6096   -0.5706 H   0  0  0  0  0  0  0  0  0  0  0  0
    1.7626    3.0456   -0.5286 H   0  0  0  0  0  0  0  0  0  0  0  0
    2.0943    2.3368   -2.1297 H   0  0  0  0  0  0  0  0  0  0  0  0
   -0.2855    2.1915   -1.7477 H   0  0  0  0  0  0  0  0  0  0  0  0
    0.4141    0.5579   -1.7028 H   0  0  0  0  0  0  0  0  0  0  0  0
    0.4376    0.8845    0.9511 H   0  0  0  0  0  0  0  0  0  0  0  0
   -0.4541    2.3821    0.6429 H   0  0  0  0  0  0  0  0  0  0  0  0
   -2.9946    2.5967   -0.4527 H   0  0  0  0  0  0  0  0  0  0  0  0
   -4.3880    4.6018   -0.1977 H   0  0  0  0  0  0  0  0  0  0  0  0
   -5.0103    3.6861    3.9483 H   0  0  0  0  0  0  0  0  0  0  0  0
   -1.7021   -0.1100   -1.6981 H   0  0  0  0  0  0  0  0  0  0  0  0
   -3.4880   -1.4865    0.3593 H   0  0  0  0  0  0  0  0  0  0  0  0
   -3.9758   -0.1059   -0.6875 H   0  0  0  0  0  0  0  0  0  0  0  0
   -3.9897   -1.3988   -2.6376 H   0  0  0  0  0  0  0  0  0  0  0  0
   -4.4355   -2.6412   -1.4249 H   0  0  0  0  0  0  0  0  0  0  0  0
   -2.7549   -3.7916   -2.5871 H   0  0  0  0  0  0  0  0  0  0  0  0
   -1.8661   -2.2960   -3.0213 H   0  0  0  0  0  0  0  0  0  0  0  0
   -1.9674   -3.5781   -0.2228 H   0  0  0  0  0  0  0  0  0  0  0  0
   -0.6021   -3.7060   -1.3742 H   0  0  0  0  0  0  0  0  0  0  0  0
    0.0266   -1.4991   -1.1242 H   0  0  0  0  0  0  0  0  0  0  0  0
   -0.3817   -1.9658    3.4182 H   0  0  0  0  0  0  0  0  0  0  0  0
    1.5391   -1.5578    4.8944 H   0  0  0  0  0  0  0  0  0  0  0  0
    3.7613   -1.0543    3.9395 H   0  0  0  0  0  0  0  0  0  0  0  0
    4.0743   -0.9706    1.5081 H   0  0  0  0  0  0  0  0  0  0  0  0
  1  2  1  0
  2  3  1  0
  3  4  1  0
  4  5  1  0
  5  6  1  0
  6  7  1  0
  7  8  1  0
  8  9  1  0
  9 10  1  0
 10 11  2  0
 10 12  1  0
 12 13  2  0
 13 14  1  0
 14 15  2  0
 15 16  1  0
 15 17  1  0
 17 18  2  0
 18 19  1  0
  9 20  1  0
 20 21  1  0
 21 22  1  0
 22 23  1  0
 23 24  1  0
 24 25  1  0
 25 26  1  0
 26 27  1  0
 27 28  2  0
 28 29  1  0
 29 30  2  0
 30 31  1  0
 31 32  2  0
 32 33  1  0
 33 34  2  0
 33  4  1  0
 18 12  1  0
 25 20  1  0
 32 27  1  0
  1 35  1  0
  1 36  1  0
  1 37  1  0
  2 38  1  0
  2 39  1  0
  3 40  1  0
  3 41  1  0
  5 42  1  0
  5 43  1  0
  6 44  1  0
  6 45  1  0
  7 46  1  0
  7 47  1  0
  8 48  1  0
  8 49  1  0
 13 50  1  0
 14 51  1  0
 17 52  1  0
 20 53  1  0
 21 54  1  0
 21 55  1  0
 22 56  1  0
 22 57  1  0
 23 58  1  0
 23 59  1  0
 24 60  1  0
 24 61  1  0
 25 62  1  0
 28 63  1  0
 29 64  1  0
 30 65  1  0
 31 66  1  0
M  END
$$$$
