
     RDKit          3D

 68 70  0  0  0  0  0  0  0  0999 V2000
    5.3843   -2.9345   -0.6279 C   0  0  0  0  0  0  0  0  0  0  0  0
    5.7274   -1.6915   -0.0581 O   0  0  0  0  0  0  0  0  0  0  0  0
    5.5586   -0.6717   -1.0203 C   0  0  0  0  0  0  0  0  0  0  0  0
    5.8510    0.6919   -0.3842 C   0  0  0  0  0  0  0  0  0  0  0  0
    4.8684    1.0393    0.7434 C   0  0  0  0  0  0  0  0  0  0  0  0
    3.5284    1.3132    0.2238 N   0  0  0  0  0  0  0  0  0  0  0  0
    2.4062    1.4825    1.0990 C   0  0  0  0  0  0  0  0  0  0  0  0
    2.5884    1.5543    2.3462 O   0  0  0  0  0  0  0  0  0  0  0  0
    1.0110    1.5338    0.5204 C   0  0  0  0  0  0  0  0  0  0  0  0
    0.5722    0.1444    0.0181 C   0  0  0  0  0  0  0  0  0  0  0  0
    0.2932   -0.8594    1.1538 C   0  0  0  0  0  0  0  0  0  0  0  0
    0.2048   -2.2704    0.6374 C   0  0  0  0  0  0  0  0  0  0  0  0
    1.2157   -3.0145    0.7594 O   0  0  0  0  0  0  0  0  0  0  0  0
   -0.9873   -2.7983    0.0191 N   0  0  0  0  0  0  0  0  0  0  0  0
   -1.0044   -4.1060   -0.6150 C   0  0  0  0  0  0  0  0  0  0  0  0
   -2.4258   -4.3056   -1.1242 C   0  0  0  0  0  0  0  0  0  0  0  0
   -3.0539   -2.9170   -1.1413 C   0  0  0  0  0  0  0  0  0  0  0  0
   -2.2514   -2.0861   -0.1406 C   0  0  0  0  0  0  0  0  0  0  0  0
   -2.9920   -1.9775    1.1760 C   0  0  0  0  0  0  0  0  0  0  0  0
   -2.8017   -2.8660    2.0530 O   0  0  0  0  0  0  0  0  0  0  0  0
   -3.9562   -0.9254    1.4269 N   0  0  0  0  0  0  0  0  0  0  0  0
   -4.6383   -0.8825    2.7245 C   0  0  0  0  0  0  0  0  0  0  0  0
   -4.2312    0.1259    0.4345 C   0  0  0  0  0  0  0  0  0  0  0  0
   -3.1962    1.2500    0.5363 C   0  0  0  0  0  0  0  0  0  0  0  0
   -2.8986    1.7456   -0.7663 O   0  0  0  0  0  0  0  0  0  0  0  0
   -2.0875    2.8494   -1.0903 C   0  0  0  0  0  0  0  0  0  0  0  0
   -2.1866    3.3188   -2.4074 C   0  0  0  0  0  0  0  0  0  0  0  0
   -1.4624    4.4323   -2.8338 C   0  0  0  0  0  0  0  0  0  0  0  0
   -0.6195    5.0971   -1.9479 C   0  0  0  0  0  0  0  0  0  0  0  0
   -0.4850    4.6373   -0.6380 C   0  0  0  0  0  0  0  0  0  0  0  0
   -1.1974    3.5096   -0.1955 C   0  0  0  0  0  0  0  0  0  0  0  0
   -0.9476    3.0630    1.1833 C   0  0  0  0  0  0  0  0  0  0  0  0
   -1.6012    3.5928    2.1207 O   0  0  0  0  0  0  0  0  0  0  0  0
    0.0462    2.0712    1.4927 N   0  0  0  0  0  0  0  0  0  0  0  0
    6.0281   -3.1716   -1.5044 H   0  0  0  0  0  0  0  0  0  0  0  0
    5.5442   -3.7273    0.1310 H   0  0  0  0  0  0  0  0  0  0  0  0
    4.3086   -2.9591   -0.9148 H   0  0  0  0  0  0  0  0  0  0  0  0
    4.5219   -0.6664   -1.4288 H   0  0  0  0  0  0  0  0  0  0  0  0
    6.2709   -0.8182   -1.8624 H   0  0  0  0  0  0  0  0  0  0  0  0
    6.8849    0.6850    0.0270 H   0  0  0  0  0  0  0  0  0  0  0  0
    5.8077    1.4794   -1.1691 H   0  0  0  0  0  0  0  0  0  0  0  0
    5.2412    1.9374    1.2804 H   0  0  0  0  0  0  0  0  0  0  0  0
    4.8206    0.1996    1.4696 H   0  0  0  0  0  0  0  0  0  0  0  0
    3.3626    1.3374   -0.8073 H   0  0  0  0  0  0  0  0  0  0  0  0
    1.0624    2.2066   -0.3626 H   0  0  0  0  0  0  0  0  0  0  0  0
   -0.3353    0.2786   -0.6031 H   0  0  0  0  0  0  0  0  0  0  0  0
    1.3620   -0.2627   -0.6528 H   0  0  0  0  0  0  0  0  0  0  0  0
    1.1204   -0.8146    1.8977 H   0  0  0  0  0  0  0  0  0  0  0  0
   -0.6380   -0.5975    1.6955 H   0  0  0  0  0  0  0  0  0  0  0  0
   -0.7374   -4.8950    0.1222 H   0  0  0  0  0  0  0  0  0  0  0  0
   -0.2845   -4.1203   -1.4613 H   0  0  0  0  0  0  0  0  0  0  0  0
   -2.9892   -4.9578   -0.4187 H   0  0  0  0  0  0  0  0  0  0  0  0
   -2.4349   -4.7682   -2.1347 H   0  0  0  0  0  0  0  0  0  0  0  0
   -4.1383   -2.9633   -0.9023 H   0  0  0  0  0  0  0  0  0  0  0  0
   -2.9361   -2.4786   -2.1555 H   0  0  0  0  0  0  0  0  0  0  0  0
   -2.0604   -1.0912   -0.5734 H   0  0  0  0  0  0  0  0  0  0  0  0
   -3.8890   -0.8357    3.5428 H   0  0  0  0  0  0  0  0  0  0  0  0
   -5.2619   -1.7942    2.8515 H   0  0  0  0  0  0  0  0  0  0  0  0
   -5.2954    0.0086    2.8098 H   0  0  0  0  0  0  0  0  0  0  0  0
   -4.2517   -0.3133   -0.5849 H   0  0  0  0  0  0  0  0  0  0  0  0
   -5.2460    0.5519    0.5881 H   0  0  0  0  0  0  0  0  0  0  0  0
   -3.6081    2.0678    1.1661 H   0  0  0  0  0  0  0  0  0  0  0  0
   -2.2747    0.8614    1.0020 H   0  0  0  0  0  0  0  0  0  0  0  0
   -2.8477    2.8209   -3.1078 H   0  0  0  0  0  0  0  0  0  0  0  0
   -1.5642    4.7842   -3.8522 H   0  0  0  0  0  0  0  0  0  0  0  0
   -0.0630    5.9649   -2.2779 H   0  0  0  0  0  0  0  0  0  0  0  0
    0.1889    5.1586    0.0312 H   0  0  0  0  0  0  0  0  0  0  0  0
    0.0997    1.7465    2.4814 H   0  0  0  0  0  0  0  0  0  0  0  0
  1  2  1  0
  2  3  1  0
  3  4  1  0
  4  5  1  0
  5  6  1  0
  6  7  1  0
  7  8  2  0
  7  9  1  0
  9 10  1  0
 10 11  1  0
 11 12  1  0
 12 13  2  0
 12 14  1  0
 14 15  1  0
 15 16  1  0
 16 17  1  0
 17 18  1  0
 18 19  1  0
 19 20  2  0
 19 21  1  0
 21 22  1  0
 21 23  1  0
 23 24  1  0
 24 25  1  0
 25 26  1  0
 26 27  2  0
 27 28  1  0
 28 29  2  0
 29 30  1  0
 30 31  2  0
 31 32  1  0
 32 33  2  0
 32 34  1  0
 34  9  1  0
 18 14  1  0
 31 26  1  0
  1 35  1  0
  1 36  1  0
  1 37  1  0
  3 38  1  0
  3 39  1  0
  4 40  1  0
  4 41  1  0
  5 42  1  0
  5 43  1  0
  6 44  1  0
  9 45  1  0
 10 46  1  0
 10 47  1  0
 11 48  1  0
 11 49  1  0
 15 50  1  0
 15 51  1  0
 16 52  1  0
 16 53  1  0
 17 54  1  0
 17 55  1  0
 18 56  1  0
 22 57  1  0
 22 58  1  0
 22 59  1  0
 23 60  1  0
 23 61  1  0
 24 62  1  0
 24 63  1  0
 27 64  1  0
 28 65  1  0
 29 66  1  0
 30 67  1  0
 34 68  1  0
M  END
$$$$
