
     RDKit          3D

 56 59  0  0  0  0  0  0  0  0999 V2000
    7.5479    0.6272   -1.4259 C   0  0  0  0  0  0  0  0  0  0  0  0
    6.6576    1.4793   -0.7611 C   0  0  0  0  0  0  0  0  0  0  0  0
    5.4611    0.9672   -0.2549 C   0  0  0  0  0  0  0  0  0  0  0  0
    5.1658   -0.3938   -0.4216 C   0  0  0  0  0  0  0  0  0  0  0  0
    3.8823   -0.9767    0.0973 C   0  0  0  0  0  0  0  0  0  0  0  0
    2.9515   -1.3513   -1.0583 C   0  0  0  0  0  0  0  0  0  0  0  0
    1.6945   -1.8897   -0.5423 N   0  0  0  0  0  0  0  0  0  0  0  0
    0.6468   -1.0617   -0.0151 C   0  0  0  0  0  0  0  0  0  0  0  0
    0.7797    0.2374   -0.0509 N   0  0  0  0  0  0  0  0  0  0  0  0
   -0.1409    1.2637    0.4432 C   0  0  0  0  0  0  0  0  0  0  0  0
   -0.2990    1.2218    1.9705 C   0  0  0  0  0  0  0  0  0  0  0  0
   -1.1976    2.3589    2.5033 C   0  0  0  0  0  0  0  0  0  0  0  0
   -2.6325    1.9194    2.8635 C   0  0  0  0  0  0  0  0  0  0  0  0
   -3.5915    1.8868    1.6728 C   0  0  0  0  0  0  0  0  0  0  0  0
   -3.3121    0.7700    0.8340 O   0  0  0  0  0  0  0  0  0  0  0  0
   -3.9257    0.5434   -0.4096 C   0  0  0  0  0  0  0  0  0  0  0  0
   -5.1440    1.1580   -0.7575 C   0  0  0  0  0  0  0  0  0  0  0  0
   -5.7015    0.9539   -2.0238 C   0  0  0  0  0  0  0  0  0  0  0  0
   -5.0481    0.1458   -2.9564 C   0  0  0  0  0  0  0  0  0  0  0  0
   -3.8400   -0.4703   -2.6216 C   0  0  0  0  0  0  0  0  0  0  0  0
   -3.2845   -0.2950   -1.3482 C   0  0  0  0  0  0  0  0  0  0  0  0
   -2.0621   -0.9127   -1.0564 O   0  0  0  0  0  0  0  0  0  0  0  0
   -1.8176   -1.6042    0.1329 C   0  0  0  0  0  0  0  0  0  0  0  0
   -2.8495   -2.1938    0.8001 N   0  0  0  0  0  0  0  0  0  0  0  0
   -2.6545   -2.9191    1.9312 C   0  0  0  0  0  0  0  0  0  0  0  0
   -1.3663   -3.0927    2.4347 C   0  0  0  0  0  0  0  0  0  0  0  0
   -0.2901   -2.4981    1.7767 C   0  0  0  0  0  0  0  0  0  0  0  0
   -0.5072   -1.7253    0.6282 C   0  0  0  0  0  0  0  0  0  0  0  0
    6.0505   -1.1985   -1.0762 N   0  0  0  0  0  0  0  0  0  0  0  0
    7.2223   -0.7220   -1.5755 C   0  0  0  0  0  0  0  0  0  0  0  0
    8.4768    1.0150   -1.8234 H   0  0  0  0  0  0  0  0  0  0  0  0
    6.8986    2.5226   -0.6377 H   0  0  0  0  0  0  0  0  0  0  0  0
    4.7753    1.6241    0.2597 H   0  0  0  0  0  0  0  0  0  0  0  0
    3.3722   -0.2556    0.7730 H   0  0  0  0  0  0  0  0  0  0  0  0
    4.1147   -1.8857    0.6928 H   0  0  0  0  0  0  0  0  0  0  0  0
    2.7491   -0.4664   -1.7018 H   0  0  0  0  0  0  0  0  0  0  0  0
    3.4443   -2.1242   -1.6884 H   0  0  0  0  0  0  0  0  0  0  0  0
    1.5459   -2.9216   -0.5870 H   0  0  0  0  0  0  0  0  0  0  0  0
    0.2826    2.2501    0.1636 H   0  0  0  0  0  0  0  0  0  0  0  0
   -1.1093    1.1858   -0.0743 H   0  0  0  0  0  0  0  0  0  0  0  0
   -0.6934    0.2454    2.3042 H   0  0  0  0  0  0  0  0  0  0  0  0
    0.7130    1.3265    2.4166 H   0  0  0  0  0  0  0  0  0  0  0  0
   -0.7325    2.7371    3.4375 H   0  0  0  0  0  0  0  0  0  0  0  0
   -1.2210    3.2197    1.8037 H   0  0  0  0  0  0  0  0  0  0  0  0
   -3.0387    2.6558    3.5890 H   0  0  0  0  0  0  0  0  0  0  0  0
   -2.6294    0.9367    3.3776 H   0  0  0  0  0  0  0  0  0  0  0  0
   -3.5025    2.8278    1.0883 H   0  0  0  0  0  0  0  0  0  0  0  0
   -4.6288    1.8049    2.0613 H   0  0  0  0  0  0  0  0  0  0  0  0
   -5.6657    1.7967   -0.0575 H   0  0  0  0  0  0  0  0  0  0  0  0
   -6.6376    1.4306   -2.2857 H   0  0  0  0  0  0  0  0  0  0  0  0
   -5.4769   -0.0015   -3.9401 H   0  0  0  0  0  0  0  0  0  0  0  0
   -3.3379   -1.0953   -3.3494 H   0  0  0  0  0  0  0  0  0  0  0  0
   -3.4998   -3.3695    2.4331 H   0  0  0  0  0  0  0  0  0  0  0  0
   -1.2035   -3.6776    3.3301 H   0  0  0  0  0  0  0  0  0  0  0  0
    0.7095   -2.6178    2.1762 H   0  0  0  0  0  0  0  0  0  0  0  0
    7.8995   -1.3914   -2.0926 H   0  0  0  0  0  0  0  0  0  0  0  0
  1  2  2  0
  2  3  1  0
  3  4  2  0
  4  5  1  0
  5  6  1  0
  6  7  1  0
  7  8  1  0
  8  9  2  0
  9 10  1  0
 10 11  1  0
 11 12  1  0
 12 13  1  0
 13 14  1  0
 14 15  1  0
 15 16  1  0
 16 17  2  0
 17 18  1  0
 18 19  2  0
 19 20  1  0
 20 21  2  0
 21 22  1  0
 22 23  1  0
 23 24  2  0
 24 25  1  0
 25 26  2  0
 26 27  1  0
 27 28  2  0
  4 29  1  0
 29 30  2  0
 30  1  1  0
 28  8  1  0
 21 16  1  0
 28 23  1  0
  1 31  1  0
  2 32  1  0
  3 33  1  0
  5 34  1  0
  5 35  1  0
  6 36  1  0
  6 37  1  0
  7 38  1  0
 10 39  1  0
 10 40  1  0
 11 41  1  0
 11 42  1  0
 12 43  1  0
 12 44  1  0
 13 45  1  0
 13 46  1  0
 14 47  1  0
 14 48  1  0
 17 49  1  0
 18 50  1  0
 19 51  1  0
 20 52  1  0
 25 53  1  0
 26 54  1  0
 27 55  1  0
 30 56  1  0
M  END
$$$$
