
     RDKit          3D

 73 76  0  0  0  0  0  0  0  0999 V2000
   -3.4673    5.9254    1.1196 C   0  0  0  0  0  0  0  0  0  0  0  0
   -3.1503    4.5410    1.6827 C   0  0  0  0  0  0  0  0  0  0  0  0
   -2.8908    3.5296    0.5607 C   0  0  0  0  0  0  0  0  0  0  0  0
   -2.7067    2.1142    1.1231 C   0  0  0  0  0  0  0  0  0  0  0  0
   -2.5580    1.1373    0.0336 N   0  0  0  0  0  0  0  0  0  0  0  0
   -3.7289    0.3530   -0.3913 C   0  0  0  0  0  0  0  0  0  0  0  0
   -4.1783   -0.6339    0.7092 C   0  0  0  0  0  0  0  0  0  0  0  0
   -4.2695   -1.9859    0.2466 O   0  0  0  0  0  0  0  0  0  0  0  0
   -3.2530   -2.6769   -0.4318 C   0  0  0  0  0  0  0  0  0  0  0  0
   -3.4380   -2.9132   -1.8032 C   0  0  0  0  0  0  0  0  0  0  0  0
   -2.4975   -3.6348   -2.5358 C   0  0  0  0  0  0  0  0  0  0  0  0
   -1.3802   -4.1714   -1.8993 C   0  0  0  0  0  0  0  0  0  0  0  0
   -1.1929   -3.9729   -0.5307 C   0  0  0  0  0  0  0  0  0  0  0  0
   -2.1037   -3.1991    0.2196 C   0  0  0  0  0  0  0  0  0  0  0  0
   -1.8500   -3.0243    1.6992 C   0  0  0  0  0  0  0  0  0  0  0  0
   -0.5051   -2.3309    2.0191 C   0  0  0  0  0  0  0  0  0  0  0  0
   -0.4277   -0.8464    1.6062 C   0  0  0  0  0  0  0  0  0  0  0  0
    0.0110   -0.6428    0.1396 C   0  0  0  0  0  0  0  0  0  0  0  0
   -0.0059    0.8411   -0.3465 C   0  0  0  0  0  0  0  0  0  0  0  0
    1.0109    0.9461   -1.5360 C   0  0  0  0  0  0  0  0  0  0  0  0
    2.3746    0.9327   -1.0087 N   0  0  0  0  0  0  0  0  0  0  0  0
    3.4374    0.3397   -1.7706 C   0  0  0  0  0  0  0  0  0  0  0  0
    3.4810    0.5201   -3.0161 O   0  0  0  0  0  0  0  0  0  0  0  0
    4.4668   -0.4928   -1.1177 C   0  0  0  0  0  0  0  0  0  0  0  0
    4.3467   -1.1699    0.0811 C   0  0  0  0  0  0  0  0  0  0  0  0
    5.4847   -1.8597    0.2887 N   0  0  0  0  0  0  0  0  0  0  0  0
    5.7309   -2.7757    1.3933 C   0  0  0  0  0  0  0  0  0  0  0  0
    6.3168   -1.6875   -0.7272 N   0  0  0  0  0  0  0  0  0  0  0  0
    5.7233   -0.8444   -1.5957 C   0  0  0  0  0  0  0  0  0  0  0  0
    6.3497   -0.4087   -2.8814 C   0  0  0  0  0  0  0  0  0  0  0  0
    2.6739    1.7522    0.1677 C   0  0  0  0  0  0  0  0  0  0  0  0
    1.4271    2.5449    0.5751 C   0  0  0  0  0  0  0  0  0  0  0  0
    0.3112    1.6887    0.7649 O   0  0  0  0  0  0  0  0  0  0  0  0
   -1.4129    1.1895   -0.8393 C   0  0  0  0  0  0  0  0  0  0  0  0
   -1.6008    1.5036   -2.0487 O   0  0  0  0  0  0  0  0  0  0  0  0
   -3.6528    6.6308    1.9560 H   0  0  0  0  0  0  0  0  0  0  0  0
   -2.6109    6.3062    0.5230 H   0  0  0  0  0  0  0  0  0  0  0  0
   -4.3752    5.8813    0.4773 H   0  0  0  0  0  0  0  0  0  0  0  0
   -2.2516    4.6124    2.3322 H   0  0  0  0  0  0  0  0  0  0  0  0
   -4.0104    4.2052    2.3049 H   0  0  0  0  0  0  0  0  0  0  0  0
   -3.7580    3.5227   -0.1417 H   0  0  0  0  0  0  0  0  0  0  0  0
   -1.9784    3.8309   -0.0041 H   0  0  0  0  0  0  0  0  0  0  0  0
   -1.8308    2.0789    1.8030 H   0  0  0  0  0  0  0  0  0  0  0  0
   -3.5936    1.8570    1.7453 H   0  0  0  0  0  0  0  0  0  0  0  0
   -4.5623    1.0505   -0.6252 H   0  0  0  0  0  0  0  0  0  0  0  0
   -3.5097   -0.1894   -1.3356 H   0  0  0  0  0  0  0  0  0  0  0  0
   -3.5321   -0.5797    1.5982 H   0  0  0  0  0  0  0  0  0  0  0  0
   -5.1855   -0.3306    1.0636 H   0  0  0  0  0  0  0  0  0  0  0  0
   -4.3164   -2.5251   -2.3056 H   0  0  0  0  0  0  0  0  0  0  0  0
   -2.6426   -3.7941   -3.5953 H   0  0  0  0  0  0  0  0  0  0  0  0
   -0.6624   -4.7494   -2.4651 H   0  0  0  0  0  0  0  0  0  0  0  0
   -0.3273   -4.4206   -0.0570 H   0  0  0  0  0  0  0  0  0  0  0  0
   -1.8268   -4.0383    2.1546 H   0  0  0  0  0  0  0  0  0  0  0  0
   -2.6774   -2.4968    2.2103 H   0  0  0  0  0  0  0  0  0  0  0  0
    0.3500   -2.8949    1.5891 H   0  0  0  0  0  0  0  0  0  0  0  0
   -0.3761   -2.3761    3.1219 H   0  0  0  0  0  0  0  0  0  0  0  0
   -1.3828   -0.3445    1.8201 H   0  0  0  0  0  0  0  0  0  0  0  0
    0.3320   -0.3580    2.2563 H   0  0  0  0  0  0  0  0  0  0  0  0
    1.0382   -1.0595    0.0548 H   0  0  0  0  0  0  0  0  0  0  0  0
   -0.6137   -1.2454   -0.5460 H   0  0  0  0  0  0  0  0  0  0  0  0
    0.8595    0.1052   -2.2508 H   0  0  0  0  0  0  0  0  0  0  0  0
    0.8676    1.8945   -2.1002 H   0  0  0  0  0  0  0  0  0  0  0  0
    3.4852   -1.1849    0.7366 H   0  0  0  0  0  0  0  0  0  0  0  0
    5.3086   -2.3585    2.3330 H   0  0  0  0  0  0  0  0  0  0  0  0
    5.2528   -3.7549    1.1784 H   0  0  0  0  0  0  0  0  0  0  0  0
    6.8243   -2.9247    1.5282 H   0  0  0  0  0  0  0  0  0  0  0  0
    7.4148   -0.7177   -2.9082 H   0  0  0  0  0  0  0  0  0  0  0  0
    5.8148   -0.8800   -3.7332 H   0  0  0  0  0  0  0  0  0  0  0  0
    6.2948    0.6975   -2.9727 H   0  0  0  0  0  0  0  0  0  0  0  0
    2.9820    1.1015    1.0157 H   0  0  0  0  0  0  0  0  0  0  0  0
    3.5006    2.4630   -0.0631 H   0  0  0  0  0  0  0  0  0  0  0  0
    1.1869    3.3289   -0.1807 H   0  0  0  0  0  0  0  0  0  0  0  0
    1.6362    3.0686    1.5319 H   0  0  0  0  0  0  0  0  0  0  0  0
  1  2  1  0
  2  3  1  0
  3  4  1  0
  4  5  1  0
  5  6  1  0
  6  7  1  0
  7  8  1  0
  8  9  1  0
  9 10  2  0
 10 11  1  0
 11 12  2  0
 12 13  1  0
 13 14  2  0
 14 15  1  0
 15 16  1  0
 16 17  1  0
 17 18  1  0
 18 19  1  0
 19 20  1  0
 20 21  1  0
 21 22  1  0
 22 23  2  0
 22 24  1  0
 24 25  2  0
 25 26  1  0
 26 27  1  0
 26 28  1  0
 28 29  2  0
 29 30  1  0
 21 31  1  0
 31 32  1  0
 32 33  1  0
 19 34  1  0
 34 35  2  0
 34  5  1  0
 14  9  1  0
 33 19  1  0
 29 24  1  0
  1 36  1  0
  1 37  1  0
  1 38  1  0
  2 39  1  0
  2 40  1  0
  3 41  1  0
  3 42  1  0
  4 43  1  0
  4 44  1  0
  6 45  1  0
  6 46  1  0
  7 47  1  0
  7 48  1  0
 10 49  1  0
 11 50  1  0
 12 51  1  0
 13 52  1  0
 15 53  1  0
 15 54  1  0
 16 55  1  0
 16 56  1  0
 17 57  1  0
 17 58  1  0
 18 59  1  0
 18 60  1  0
 20 61  1  0
 20 62  1  0
 25 63  1  0
 27 64  1  0
 27 65  1  0
 27 66  1  0
 30 67  1  0
 30 68  1  0
 30 69  1  0
 31 70  1  0
 31 71  1  0
 32 72  1  0
 32 73  1  0
M  END
$$$$
