
     RDKit          3D

 69 70  0  0  0  0  0  0  0  0999 V2000
    3.8845   -1.8799    0.5280 C   0  0  0  0  0  0  0  0  0  0  0  0
    5.0624   -1.2852   -0.2380 C   0  0  0  0  0  0  0  0  0  0  0  0
    4.9107    0.1708   -0.3782 N   0  0  0  0  0  0  0  0  0  0  0  0
    5.3030    1.0339    0.7469 C   0  0  0  0  0  0  0  0  0  0  0  0
    4.0971    1.7855    1.3029 C   0  0  0  0  0  0  0  0  0  0  0  0
    4.4741    0.7714   -1.6201 C   0  0  0  0  0  0  0  0  0  0  0  0
    4.8334    1.9481   -1.8997 O   0  0  0  0  0  0  0  0  0  0  0  0
    3.5903    0.0406   -2.6031 C   0  0  0  0  0  0  0  0  0  0  0  0
    2.2936    0.8101   -2.8964 C   0  0  0  0  0  0  0  0  0  0  0  0
    1.4642    1.0063   -1.6515 C   0  0  0  0  0  0  0  0  0  0  0  0
    1.3971    2.2612   -1.0366 C   0  0  0  0  0  0  0  0  0  0  0  0
    0.6865    2.4235    0.1512 C   0  0  0  0  0  0  0  0  0  0  0  0
    0.0192    1.3434    0.7401 C   0  0  0  0  0  0  0  0  0  0  0  0
    0.0756    0.0643    0.1310 C   0  0  0  0  0  0  0  0  0  0  0  0
    0.8065   -0.0831   -1.0637 C   0  0  0  0  0  0  0  0  0  0  0  0
   -0.4983   -1.1815    0.7849 C   0  0  0  0  0  0  0  0  0  0  0  0
   -1.9264   -1.4372    0.4441 N   0  0  0  0  0  0  0  0  0  0  0  0
   -2.5375   -2.5095    1.2961 C   0  0  0  0  0  0  0  0  0  0  0  0
   -2.9385   -1.9687    2.6757 C   0  0  0  0  0  0  0  0  0  0  0  0
   -1.6651   -3.7739    1.4503 C   0  0  0  0  0  0  0  0  0  0  0  0
   -2.1076   -1.7186   -1.0035 C   0  0  0  0  0  0  0  0  0  0  0  0
   -3.5575   -1.6577   -1.4233 C   0  0  0  0  0  0  0  0  0  0  0  0
   -4.1472   -2.7350   -1.7060 O   0  0  0  0  0  0  0  0  0  0  0  0
   -4.2811   -0.4203   -1.5477 N   0  0  0  0  0  0  0  0  0  0  0  0
   -3.8235    0.8697   -1.0331 C   0  0  0  0  0  0  0  0  0  0  0  0
   -4.6186    1.2377    0.2271 C   0  0  0  0  0  0  0  0  0  0  0  0
   -4.1872    2.5712    0.8756 C   0  0  0  0  0  0  0  0  0  0  0  0
   -2.6758    2.7259    1.1313 C   0  0  0  0  0  0  0  0  0  0  0  0
   -2.0901    1.6101    2.0136 C   0  0  0  0  0  0  0  0  0  0  0  0
   -0.6673    1.5790    1.9371 O   0  0  0  0  0  0  0  0  0  0  0  0
    3.9994   -2.9823    0.5924 H   0  0  0  0  0  0  0  0  0  0  0  0
    3.8488   -1.4661    1.5574 H   0  0  0  0  0  0  0  0  0  0  0  0
    2.9292   -1.6508    0.0154 H   0  0  0  0  0  0  0  0  0  0  0  0
    6.0017   -1.5156    0.3095 H   0  0  0  0  0  0  0  0  0  0  0  0
    5.1618   -1.7744   -1.2297 H   0  0  0  0  0  0  0  0  0  0  0  0
    5.7450    0.4310    1.5699 H   0  0  0  0  0  0  0  0  0  0  0  0
    6.0785    1.7585    0.4169 H   0  0  0  0  0  0  0  0  0  0  0  0
    3.2782    1.0757    1.5463 H   0  0  0  0  0  0  0  0  0  0  0  0
    3.7326    2.5282    0.5641 H   0  0  0  0  0  0  0  0  0  0  0  0
    4.3892    2.3277    2.2271 H   0  0  0  0  0  0  0  0  0  0  0  0
    3.3213   -0.9715   -2.2441 H   0  0  0  0  0  0  0  0  0  0  0  0
    4.1530   -0.0882   -3.5522 H   0  0  0  0  0  0  0  0  0  0  0  0
    2.5371    1.7878   -3.3676 H   0  0  0  0  0  0  0  0  0  0  0  0
    1.6978    0.2376   -3.6401 H   0  0  0  0  0  0  0  0  0  0  0  0
    1.9128    3.1121   -1.4646 H   0  0  0  0  0  0  0  0  0  0  0  0
    0.6526    3.3984    0.6211 H   0  0  0  0  0  0  0  0  0  0  0  0
    0.8872   -1.0594   -1.5276 H   0  0  0  0  0  0  0  0  0  0  0  0
   -0.3753   -1.0693    1.8814 H   0  0  0  0  0  0  0  0  0  0  0  0
    0.1277   -2.0551    0.4950 H   0  0  0  0  0  0  0  0  0  0  0  0
   -3.4931   -2.8497    0.8432 H   0  0  0  0  0  0  0  0  0  0  0  0
   -3.6716   -1.1439    2.5672 H   0  0  0  0  0  0  0  0  0  0  0  0
   -2.0612   -1.6061    3.2484 H   0  0  0  0  0  0  0  0  0  0  0  0
   -3.4295   -2.7700    3.2692 H   0  0  0  0  0  0  0  0  0  0  0  0
   -2.2561   -4.5795    1.9361 H   0  0  0  0  0  0  0  0  0  0  0  0
   -0.7765   -3.5768    2.0866 H   0  0  0  0  0  0  0  0  0  0  0  0
   -1.3315   -4.1527    0.4634 H   0  0  0  0  0  0  0  0  0  0  0  0
   -1.5781   -0.9755   -1.6285 H   0  0  0  0  0  0  0  0  0  0  0  0
   -1.6772   -2.7079   -1.2691 H   0  0  0  0  0  0  0  0  0  0  0  0
   -5.2540   -0.4644   -1.9274 H   0  0  0  0  0  0  0  0  0  0  0  0
   -2.7397    0.8366   -0.8196 H   0  0  0  0  0  0  0  0  0  0  0  0
   -3.9867    1.6466   -1.8102 H   0  0  0  0  0  0  0  0  0  0  0  0
   -5.6927    1.3220   -0.0464 H   0  0  0  0  0  0  0  0  0  0  0  0
   -4.5521    0.4141    0.9663 H   0  0  0  0  0  0  0  0  0  0  0  0
   -4.5137    3.4059    0.2175 H   0  0  0  0  0  0  0  0  0  0  0  0
   -4.7278    2.6850    1.8404 H   0  0  0  0  0  0  0  0  0  0  0  0
   -2.1508    2.7795    0.1557 H   0  0  0  0  0  0  0  0  0  0  0  0
   -2.4975    3.7016    1.6334 H   0  0  0  0  0  0  0  0  0  0  0  0
   -2.3908    1.7793    3.0691 H   0  0  0  0  0  0  0  0  0  0  0  0
   -2.4748    0.6295    1.7137 H   0  0  0  0  0  0  0  0  0  0  0  0
  1  2  1  0
  2  3  1  0
  3  4  1  0
  4  5  1  0
  3  6  1  0
  6  7  2  0
  6  8  1  0
  8  9  1  0
  9 10  1  0
 10 11  2  0
 11 12  1  0
 12 13  2  0
 13 14  1  0
 14 15  2  0
 14 16  1  0
 16 17  1  0
 17 18  1  0
 18 19  1  0
 18 20  1  0
 17 21  1  0
 21 22  1  0
 22 23  2  0
 22 24  1  0
 24 25  1  0
 25 26  1  0
 26 27  1  0
 27 28  1  0
 28 29  1  0
 29 30  1  0
 15 10  1  0
 30 13  1  0
  1 31  1  0
  1 32  1  0
  1 33  1  0
  2 34  1  0
  2 35  1  0
  4 36  1  0
  4 37  1  0
  5 38  1  0
  5 39  1  0
  5 40  1  0
  8 41  1  0
  8 42  1  0
  9 43  1  0
  9 44  1  0
 11 45  1  0
 12 46  1  0
 15 47  1  0
 16 48  1  0
 16 49  1  0
 18 50  1  0
 19 51  1  0
 19 52  1  0
 19 53  1  0
 20 54  1  0
 20 55  1  0
 20 56  1  0
 21 57  1  0
 21 58  1  0
 24 59  1  0
 25 60  1  0
 25 61  1  0
 26 62  1  0
 26 63  1  0
 27 64  1  0
 27 65  1  0
 28 66  1  0
 28 67  1  0
 29 68  1  0
 29 69  1  0
M  END
$$$$
