
     RDKit          3D

 70 72  0  0  0  0  0  0  0  0999 V2000
    7.1900   -3.4135   -0.0146 C   0  0  0  0  0  0  0  0  0  0  0  0
    6.2334   -2.5732   -0.6500 O   0  0  0  0  0  0  0  0  0  0  0  0
    5.6454   -1.4496   -0.0482 C   0  0  0  0  0  0  0  0  0  0  0  0
    5.9731   -1.0344    1.2588 C   0  0  0  0  0  0  0  0  0  0  0  0
    5.3395    0.0765    1.8249 C   0  0  0  0  0  0  0  0  0  0  0  0
    4.3707    0.7743    1.1005 C   0  0  0  0  0  0  0  0  0  0  0  0
    4.0441    0.3748   -0.2020 C   0  0  0  0  0  0  0  0  0  0  0  0
    2.9981    1.0926   -0.9423 C   0  0  0  0  0  0  0  0  0  0  0  0
    3.3405    2.0051   -1.7406 O   0  0  0  0  0  0  0  0  0  0  0  0
    1.6021    0.7773   -0.7481 N   0  0  0  0  0  0  0  0  0  0  0  0
    1.1866   -0.5621   -0.3066 C   0  0  0  0  0  0  0  0  0  0  0  0
    1.0527   -1.4888   -1.5210 C   0  0  0  0  0  0  0  0  0  0  0  0
    0.6958   -2.9364   -1.1410 C   0  0  0  0  0  0  0  0  0  0  0  0
   -0.6699   -3.0814   -0.4514 C   0  0  0  0  0  0  0  0  0  0  0  0
   -1.7592   -2.5691   -1.2879 N   0  0  0  0  0  0  0  0  0  0  0  0
   -3.0825   -2.3491   -0.7809 C   0  0  0  0  0  0  0  0  0  0  0  0
   -4.0252   -2.1246   -1.5861 O   0  0  0  0  0  0  0  0  0  0  0  0
   -3.3761   -2.4206    0.6603 C   0  0  0  0  0  0  0  0  0  0  0  0
   -4.0479   -3.5589    1.1340 C   0  0  0  0  0  0  0  0  0  0  0  0
   -4.2505   -3.7456    2.5028 C   0  0  0  0  0  0  0  0  0  0  0  0
   -5.0807   -5.1797    3.0801 Cl  0  0  0  0  0  0  0  0  0  0  0  0
   -3.7739   -2.8010    3.4125 C   0  0  0  0  0  0  0  0  0  0  0  0
   -3.1168   -1.6577    2.9532 C   0  0  0  0  0  0  0  0  0  0  0  0
   -2.9379   -1.4328    1.5819 C   0  0  0  0  0  0  0  0  0  0  0  0
   -2.3327   -0.2199    1.2086 O   0  0  0  0  0  0  0  0  0  0  0  0
   -2.6000    0.5066    0.0092 C   0  0  0  0  0  0  0  0  0  0  0  0
   -2.4230    2.0130    0.2720 C   0  0  0  0  0  0  0  0  0  0  0  0
   -2.6877    2.8816   -0.9862 C   0  0  0  0  0  0  0  0  0  0  0  0
   -3.1456    4.3250   -0.6584 C   0  0  0  0  0  0  0  0  0  0  0  0
   -3.7150    4.9939   -1.9166 C   0  0  0  0  0  0  0  0  0  0  0  0
   -2.0029    5.1786   -0.0902 C   0  0  0  0  0  0  0  0  0  0  0  0
   -1.1361    2.3100    0.9265 N   0  0  0  0  0  0  0  0  0  0  0  0
    0.1751    2.4231    0.3349 C   0  0  0  0  0  0  0  0  0  0  0  0
    1.0683    3.0421    0.9762 O   0  0  0  0  0  0  0  0  0  0  0  0
    0.5672    1.7945   -0.9744 C   0  0  0  0  0  0  0  0  0  0  0  0
    4.6907   -0.7287   -0.7767 C   0  0  0  0  0  0  0  0  0  0  0  0
    7.4727   -4.2285   -0.7123 H   0  0  0  0  0  0  0  0  0  0  0  0
    8.1001   -2.8299    0.2433 H   0  0  0  0  0  0  0  0  0  0  0  0
    6.7539   -3.8645    0.9032 H   0  0  0  0  0  0  0  0  0  0  0  0
    6.7106   -1.5633    1.8458 H   0  0  0  0  0  0  0  0  0  0  0  0
    5.5976    0.3953    2.8283 H   0  0  0  0  0  0  0  0  0  0  0  0
    3.8781    1.6272    1.5517 H   0  0  0  0  0  0  0  0  0  0  0  0
    1.9104   -0.9817    0.4239 H   0  0  0  0  0  0  0  0  0  0  0  0
    0.2135   -0.4884    0.2193 H   0  0  0  0  0  0  0  0  0  0  0  0
    0.2922   -1.0761   -2.2185 H   0  0  0  0  0  0  0  0  0  0  0  0
    2.0197   -1.5059   -2.0684 H   0  0  0  0  0  0  0  0  0  0  0  0
    0.6958   -3.5549   -2.0649 H   0  0  0  0  0  0  0  0  0  0  0  0
    1.4840   -3.3424   -0.4702 H   0  0  0  0  0  0  0  0  0  0  0  0
   -0.6456   -2.5550    0.5235 H   0  0  0  0  0  0  0  0  0  0  0  0
   -0.8554   -4.1568   -0.2417 H   0  0  0  0  0  0  0  0  0  0  0  0
   -1.6054   -2.4517   -2.3161 H   0  0  0  0  0  0  0  0  0  0  0  0
   -4.3907   -4.3160    0.4391 H   0  0  0  0  0  0  0  0  0  0  0  0
   -3.9177   -2.9468    4.4757 H   0  0  0  0  0  0  0  0  0  0  0  0
   -2.7681   -0.9240    3.6687 H   0  0  0  0  0  0  0  0  0  0  0  0
   -1.9431    0.1473   -0.8017 H   0  0  0  0  0  0  0  0  0  0  0  0
   -3.6536    0.3330   -0.2984 H   0  0  0  0  0  0  0  0  0  0  0  0
   -3.2253    2.2593    1.0050 H   0  0  0  0  0  0  0  0  0  0  0  0
   -3.5014    2.3931   -1.5683 H   0  0  0  0  0  0  0  0  0  0  0  0
   -1.8092    2.9201   -1.6584 H   0  0  0  0  0  0  0  0  0  0  0  0
   -3.9643    4.2885    0.0936 H   0  0  0  0  0  0  0  0  0  0  0  0
   -2.9414    5.0596   -2.7109 H   0  0  0  0  0  0  0  0  0  0  0  0
   -4.0763    6.0176   -1.6796 H   0  0  0  0  0  0  0  0  0  0  0  0
   -4.5780    4.4134   -2.3047 H   0  0  0  0  0  0  0  0  0  0  0  0
   -1.1133    5.1371   -0.7555 H   0  0  0  0  0  0  0  0  0  0  0  0
   -2.3226    6.2385    0.0088 H   0  0  0  0  0  0  0  0  0  0  0  0
   -1.7225    4.8304    0.9238 H   0  0  0  0  0  0  0  0  0  0  0  0
   -1.1998    2.5949    1.9304 H   0  0  0  0  0  0  0  0  0  0  0  0
    0.9382    2.5970   -1.6482 H   0  0  0  0  0  0  0  0  0  0  0  0
   -0.2831    1.3314   -1.5002 H   0  0  0  0  0  0  0  0  0  0  0  0
    4.4401   -1.0400   -1.7842 H   0  0  0  0  0  0  0  0  0  0  0  0
  1  2  1  0
  2  3  1  0
  3  4  2  0
  4  5  1  0
  5  6  2  0
  6  7  1  0
  7  8  1  0
  8  9  2  0
  8 10  1  0
 10 11  1  0
 11 12  1  0
 12 13  1  0
 13 14  1  0
 14 15  1  0
 15 16  1  0
 16 17  2  0
 16 18  1  0
 18 19  2  0
 19 20  1  0
 20 21  1  0
 20 22  2  0
 22 23  1  0
 23 24  2  0
 24 25  1  0
 25 26  1  0
 26 27  1  0
 27 28  1  0
 28 29  1  0
 29 30  1  0
 29 31  1  0
 27 32  1  0
 32 33  1  0
 33 34  2  0
 33 35  1  0
  7 36  2  0
 36  3  1  0
 35 10  1  0
 24 18  1  0
  1 37  1  0
  1 38  1  0
  1 39  1  0
  4 40  1  0
  5 41  1  0
  6 42  1  0
 11 43  1  0
 11 44  1  0
 12 45  1  0
 12 46  1  0
 13 47  1  0
 13 48  1  0
 14 49  1  0
 14 50  1  0
 15 51  1  0
 19 52  1  0
 22 53  1  0
 23 54  1  0
 26 55  1  0
 26 56  1  0
 27 57  1  0
 28 58  1  0
 28 59  1  0
 29 60  1  0
 30 61  1  0
 30 62  1  0
 30 63  1  0
 31 64  1  0
 31 65  1  0
 31 66  1  0
 32 67  1  0
 35 68  1  0
 35 69  1  0
 36 70  1  0
M  END
$$$$
