
     RDKit          3D

 62 65  0  0  0  0  0  0  0  0999 V2000
    3.8813    0.8430    2.1512 C   0  0  0  0  0  0  0  0  0  0  0  0
    4.8588    0.0116    1.3867 C   0  0  0  0  0  0  0  0  0  0  0  0
    6.1772   -0.0117    1.6607 N   0  0  0  0  0  0  0  0  0  0  0  0
    6.7239   -0.8672    0.8442 O   0  0  0  0  0  0  0  0  0  0  0  0
    5.8281   -1.4010    0.0478 C   0  0  0  0  0  0  0  0  0  0  0  0
    6.1415   -2.4069   -1.0078 C   0  0  0  0  0  0  0  0  0  0  0  0
    4.5916   -0.8684    0.3492 C   0  0  0  0  0  0  0  0  0  0  0  0
    3.3043   -1.1665   -0.3046 C   0  0  0  0  0  0  0  0  0  0  0  0
    2.9764   -2.3793   -0.4502 O   0  0  0  0  0  0  0  0  0  0  0  0
    2.4154   -0.1171   -0.7500 N   0  0  0  0  0  0  0  0  0  0  0  0
    2.9488    1.1646   -1.2237 C   0  0  0  0  0  0  0  0  0  0  0  0
    2.0637    2.3046   -0.7312 C   0  0  0  0  0  0  0  0  0  0  0  0
    0.5955    2.0615   -1.1117 C   0  0  0  0  0  0  0  0  0  0  0  0
    0.0324    0.6674   -0.6645 C   0  0  0  0  0  0  0  0  0  0  0  0
   -0.1958    0.6981    0.9032 C   0  0  0  0  0  0  0  0  0  0  0  0
    0.0916   -0.5681    1.7522 C   0  0  0  0  0  0  0  0  0  0  0  0
   -1.0402   -1.6064    1.8136 C   0  0  0  0  0  0  0  0  0  0  0  0
   -2.2803   -1.1378    2.6104 C   0  0  0  0  0  0  0  0  0  0  0  0
   -3.5323   -0.9923    1.7400 C   0  0  0  0  0  0  0  0  0  0  0  0
   -3.4639    0.2090    0.9816 O   0  0  0  0  0  0  0  0  0  0  0  0
   -4.4198    0.5259    0.0184 C   0  0  0  0  0  0  0  0  0  0  0  0
   -5.4099    1.4665    0.3276 C   0  0  0  0  0  0  0  0  0  0  0  0
   -6.4083    1.7699   -0.5988 C   0  0  0  0  0  0  0  0  0  0  0  0
   -6.4184    1.1409   -1.8449 C   0  0  0  0  0  0  0  0  0  0  0  0
   -5.4160    0.2239   -2.1755 C   0  0  0  0  0  0  0  0  0  0  0  0
   -4.3966   -0.0784   -1.2565 C   0  0  0  0  0  0  0  0  0  0  0  0
   -3.3279   -1.0250   -1.6467 C   0  0  0  0  0  0  0  0  0  0  0  0
   -3.6334   -2.0441   -2.3249 O   0  0  0  0  0  0  0  0  0  0  0  0
   -1.9501   -0.8101   -1.2981 N   0  0  0  0  0  0  0  0  0  0  0  0
   -1.3349    0.5132   -1.4200 C   0  0  0  0  0  0  0  0  0  0  0  0
    1.0316   -0.4338   -1.1367 C   0  0  0  0  0  0  0  0  0  0  0  0
    4.0379    0.6986    3.2395 H   0  0  0  0  0  0  0  0  0  0  0  0
    2.8423    0.5552    1.9075 H   0  0  0  0  0  0  0  0  0  0  0  0
    4.0325    1.9147    1.8996 H   0  0  0  0  0  0  0  0  0  0  0  0
    7.2401   -2.5045   -1.1175 H   0  0  0  0  0  0  0  0  0  0  0  0
    5.7127   -2.0764   -1.9788 H   0  0  0  0  0  0  0  0  0  0  0  0
    5.7140   -3.3919   -0.7306 H   0  0  0  0  0  0  0  0  0  0  0  0
    2.9762    1.1636   -2.3350 H   0  0  0  0  0  0  0  0  0  0  0  0
    3.9843    1.3410   -0.8698 H   0  0  0  0  0  0  0  0  0  0  0  0
    2.4031    3.2598   -1.1907 H   0  0  0  0  0  0  0  0  0  0  0  0
    2.1778    2.4201    0.3668 H   0  0  0  0  0  0  0  0  0  0  0  0
   -0.0203    2.8775   -0.6739 H   0  0  0  0  0  0  0  0  0  0  0  0
    0.5272    2.1755   -2.2164 H   0  0  0  0  0  0  0  0  0  0  0  0
   -1.2068    1.0809    1.1393 H   0  0  0  0  0  0  0  0  0  0  0  0
    0.4575    1.4767    1.3478 H   0  0  0  0  0  0  0  0  0  0  0  0
    0.2940   -0.2430    2.7957 H   0  0  0  0  0  0  0  0  0  0  0  0
    1.0281   -1.0606    1.4362 H   0  0  0  0  0  0  0  0  0  0  0  0
   -1.3010   -1.9639    0.8044 H   0  0  0  0  0  0  0  0  0  0  0  0
   -0.6267   -2.4996    2.3319 H   0  0  0  0  0  0  0  0  0  0  0  0
   -2.5041   -1.8962    3.3930 H   0  0  0  0  0  0  0  0  0  0  0  0
   -2.0887   -0.1814    3.1419 H   0  0  0  0  0  0  0  0  0  0  0  0
   -3.6406   -1.8721    1.0690 H   0  0  0  0  0  0  0  0  0  0  0  0
   -4.4305   -0.9537    2.3958 H   0  0  0  0  0  0  0  0  0  0  0  0
   -5.4170    1.9498    1.2956 H   0  0  0  0  0  0  0  0  0  0  0  0
   -7.1753    2.4914   -0.3478 H   0  0  0  0  0  0  0  0  0  0  0  0
   -7.1930    1.3739   -2.5636 H   0  0  0  0  0  0  0  0  0  0  0  0
   -5.4270   -0.2378   -3.1549 H   0  0  0  0  0  0  0  0  0  0  0  0
   -1.3366   -1.6357   -1.4692 H   0  0  0  0  0  0  0  0  0  0  0  0
   -1.1830    0.6993   -2.5062 H   0  0  0  0  0  0  0  0  0  0  0  0
   -2.0368    1.2980   -1.0659 H   0  0  0  0  0  0  0  0  0  0  0  0
    0.9934   -0.5219   -2.2444 H   0  0  0  0  0  0  0  0  0  0  0  0
    0.7317   -1.4236   -0.7401 H   0  0  0  0  0  0  0  0  0  0  0  0
  1  2  1  0
  2  3  2  0
  3  4  1  0
  4  5  1  0
  5  6  1  0
  5  7  2  0
  7  8  1  0
  8  9  2  0
  8 10  1  0
 10 11  1  0
 11 12  1  0
 12 13  1  0
 13 14  1  0
 14 15  1  0
 15 16  1  0
 16 17  1  0
 17 18  1  0
 18 19  1  0
 19 20  1  0
 20 21  1  0
 21 22  2  0
 22 23  1  0
 23 24  2  0
 24 25  1  0
 25 26  2  0
 26 27  1  0
 27 28  2  0
 27 29  1  0
 29 30  1  0
 14 31  1  0
  7  2  1  0
 31 10  1  0
 30 14  1  0
 26 21  1  0
  1 32  1  0
  1 33  1  0
  1 34  1  0
  6 35  1  0
  6 36  1  0
  6 37  1  0
 11 38  1  0
 11 39  1  0
 12 40  1  0
 12 41  1  0
 13 42  1  0
 13 43  1  0
 15 44  1  0
 15 45  1  0
 16 46  1  0
 16 47  1  0
 17 48  1  0
 17 49  1  0
 18 50  1  0
 18 51  1  0
 19 52  1  0
 19 53  1  0
 22 54  1  0
 23 55  1  0
 24 56  1  0
 25 57  1  0
 29 58  1  0
 30 59  1  0
 30 60  1  0
 31 61  1  0
 31 62  1  0
M  END
$$$$
