
     RDKit          3D

 68 70  0  0  0  0  0  0  0  0999 V2000
   -4.3268   -4.7904   -0.1918 C   0  0  0  0  0  0  0  0  0  0  0  0
   -3.7205   -3.4929   -0.4591 N   0  0  0  0  0  0  0  0  0  0  0  0
   -3.5242   -2.5281    0.5898 C   0  0  0  0  0  0  0  0  0  0  0  0
   -3.8126   -2.8572    1.7747 O   0  0  0  0  0  0  0  0  0  0  0  0
   -2.9103   -1.1468    0.3376 C   0  0  0  0  0  0  0  0  0  0  0  0
   -1.4170   -1.1690    0.7853 C   0  0  0  0  0  0  0  0  0  0  0  0
   -0.5241   -2.2329    0.0967 C   0  0  0  0  0  0  0  0  0  0  0  0
    0.8107   -1.6403   -0.3863 C   0  0  0  0  0  0  0  0  0  0  0  0
    1.6966   -1.1304    0.7676 C   0  0  0  0  0  0  0  0  0  0  0  0
    2.4924    0.0325    0.3368 N   0  0  0  0  0  0  0  0  0  0  0  0
    3.6786   -0.1102   -0.4859 C   0  0  0  0  0  0  0  0  0  0  0  0
    4.3267    0.9213   -0.8200 O   0  0  0  0  0  0  0  0  0  0  0  0
    4.1262   -1.4471   -1.0359 C   0  0  0  0  0  0  0  0  0  0  0  0
    5.5537   -1.4237   -1.4211 N   0  0  0  0  0  0  0  0  0  0  0  0
    6.4188   -1.4605   -0.2277 C   0  0  0  0  0  0  0  0  0  0  0  0
    5.8603   -2.5772   -2.2843 C   0  0  0  0  0  0  0  0  0  0  0  0
    2.0543    1.3847    0.7377 C   0  0  0  0  0  0  0  0  0  0  0  0
    1.4846    2.1666   -0.4620 C   0  0  0  0  0  0  0  0  0  0  0  0
    0.0935    2.4501   -0.2954 O   0  0  0  0  0  0  0  0  0  0  0  0
   -0.4357    3.5323    0.4316 C   0  0  0  0  0  0  0  0  0  0  0  0
    0.3554    4.2957    1.3124 C   0  0  0  0  0  0  0  0  0  0  0  0
   -0.1929    5.3904    1.9856 C   0  0  0  0  0  0  0  0  0  0  0  0
   -1.5262    5.7451    1.7793 C   0  0  0  0  0  0  0  0  0  0  0  0
   -2.3235    4.9965    0.9116 C   0  0  0  0  0  0  0  0  0  0  0  0
   -1.7932    3.8781    0.2525 C   0  0  0  0  0  0  0  0  0  0  0  0
   -2.6592    3.0828   -0.6391 C   0  0  0  0  0  0  0  0  0  0  0  0
   -3.1541    3.6235   -1.6629 O   0  0  0  0  0  0  0  0  0  0  0  0
   -2.9233    1.6985   -0.3628 N   0  0  0  0  0  0  0  0  0  0  0  0
   -3.1678    1.3184    1.0376 C   0  0  0  0  0  0  0  0  0  0  0  0
   -3.6925   -0.1136    1.1903 C   0  0  0  0  0  0  0  0  0  0  0  0
   -2.5597    0.7284   -1.4071 C   0  0  0  0  0  0  0  0  0  0  0  0
   -3.0727   -0.6938   -1.1392 C   0  0  0  0  0  0  0  0  0  0  0  0
   -5.3882   -4.6516    0.1102 H   0  0  0  0  0  0  0  0  0  0  0  0
   -4.2956   -5.4178   -1.1085 H   0  0  0  0  0  0  0  0  0  0  0  0
   -3.7706   -5.3112    0.6161 H   0  0  0  0  0  0  0  0  0  0  0  0
   -3.3962   -3.3107   -1.4319 H   0  0  0  0  0  0  0  0  0  0  0  0
   -1.3675   -1.3353    1.8841 H   0  0  0  0  0  0  0  0  0  0  0  0
   -0.9759   -0.1650    0.6247 H   0  0  0  0  0  0  0  0  0  0  0  0
   -1.0331   -2.6821   -0.7803 H   0  0  0  0  0  0  0  0  0  0  0  0
   -0.3212   -3.0667    0.8052 H   0  0  0  0  0  0  0  0  0  0  0  0
    1.3639   -2.4214   -0.9493 H   0  0  0  0  0  0  0  0  0  0  0  0
    0.5918   -0.8138   -1.0988 H   0  0  0  0  0  0  0  0  0  0  0  0
    2.3523   -1.9402    1.1472 H   0  0  0  0  0  0  0  0  0  0  0  0
    1.0777   -0.8564    1.6471 H   0  0  0  0  0  0  0  0  0  0  0  0
    3.4956   -1.6462   -1.9307 H   0  0  0  0  0  0  0  0  0  0  0  0
    3.9465   -2.2671   -0.3107 H   0  0  0  0  0  0  0  0  0  0  0  0
    6.2649   -2.3936    0.3589 H   0  0  0  0  0  0  0  0  0  0  0  0
    7.4855   -1.3987   -0.5300 H   0  0  0  0  0  0  0  0  0  0  0  0
    6.2160   -0.5880    0.4281 H   0  0  0  0  0  0  0  0  0  0  0  0
    6.9382   -2.5785   -2.5576 H   0  0  0  0  0  0  0  0  0  0  0  0
    5.2861   -2.5055   -3.2327 H   0  0  0  0  0  0  0  0  0  0  0  0
    5.6112   -3.5386   -1.7788 H   0  0  0  0  0  0  0  0  0  0  0  0
    1.2902    1.3378    1.5448 H   0  0  0  0  0  0  0  0  0  0  0  0
    2.9193    1.9365    1.1698 H   0  0  0  0  0  0  0  0  0  0  0  0
    1.6001    1.5735   -1.3948 H   0  0  0  0  0  0  0  0  0  0  0  0
    2.0506    3.1117   -0.6190 H   0  0  0  0  0  0  0  0  0  0  0  0
    1.3928    4.0496    1.4867 H   0  0  0  0  0  0  0  0  0  0  0  0
    0.4175    5.9666    2.6663 H   0  0  0  0  0  0  0  0  0  0  0  0
   -1.9446    6.5978    2.2985 H   0  0  0  0  0  0  0  0  0  0  0  0
   -3.3606    5.2754    0.7678 H   0  0  0  0  0  0  0  0  0  0  0  0
   -2.2335    1.4421    1.6285 H   0  0  0  0  0  0  0  0  0  0  0  0
   -3.9219    2.0075    1.4781 H   0  0  0  0  0  0  0  0  0  0  0  0
   -3.6453   -0.3807    2.2701 H   0  0  0  0  0  0  0  0  0  0  0  0
   -4.7680   -0.1276    0.8980 H   0  0  0  0  0  0  0  0  0  0  0  0
   -2.9660    1.0643   -2.3867 H   0  0  0  0  0  0  0  0  0  0  0  0
   -1.4521    0.7027   -1.5102 H   0  0  0  0  0  0  0  0  0  0  0  0
   -4.1486   -0.7389   -1.4216 H   0  0  0  0  0  0  0  0  0  0  0  0
   -2.5267   -1.3608   -1.8349 H   0  0  0  0  0  0  0  0  0  0  0  0
  1  2  1  0
  2  3  1  0
  3  4  2  0
  3  5  1  0
  5  6  1  0
  6  7  1  0
  7  8  1  0
  8  9  1  0
  9 10  1  0
 10 11  1  0
 11 12  2  0
 11 13  1  0
 13 14  1  0
 14 15  1  0
 14 16  1  0
 10 17  1  0
 17 18  1  0
 18 19  1  0
 19 20  1  0
 20 21  2  0
 21 22  1  0
 22 23  2  0
 23 24  1  0
 24 25  2  0
 25 26  1  0
 26 27  2  0
 26 28  1  0
 28 29  1  0
 29 30  1  0
 28 31  1  0
 31 32  1  0
 30  5  1  0
 32  5  1  0
 25 20  1  0
  1 33  1  0
  1 34  1  0
  1 35  1  0
  2 36  1  0
  6 37  1  0
  6 38  1  0
  7 39  1  0
  7 40  1  0
  8 41  1  0
  8 42  1  0
  9 43  1  0
  9 44  1  0
 13 45  1  0
 13 46  1  0
 15 47  1  0
 15 48  1  0
 15 49  1  0
 16 50  1  0
 16 51  1  0
 16 52  1  0
 17 53  1  0
 17 54  1  0
 18 55  1  0
 18 56  1  0
 21 57  1  0
 22 58  1  0
 23 59  1  0
 24 60  1  0
 29 61  1  0
 29 62  1  0
 30 63  1  0
 30 64  1  0
 31 65  1  0
 31 66  1  0
 32 67  1  0
 32 68  1  0
M  END
$$$$
