
     RDKit          3D

 74 76  0  0  0  0  0  0  0  0999 V2000
    3.5418    1.1394    2.7900 C   0  0  0  0  0  0  0  0  0  0  0  0
    4.4998    0.2205    2.3108 O   0  0  0  0  0  0  0  0  0  0  0  0
    4.3808    0.0581    0.9083 C   0  0  0  0  0  0  0  0  0  0  0  0
    3.6427   -1.2545    0.5798 C   0  0  0  0  0  0  0  0  0  0  0  0
    4.4498   -2.4882    0.9995 C   0  0  0  0  0  0  0  0  0  0  0  0
    5.1045   -3.0176   -0.2751 C   0  0  0  0  0  0  0  0  0  0  0  0
    4.2843   -2.4589   -1.4287 C   0  0  0  0  0  0  0  0  0  0  0  0
    3.4782   -1.3858   -0.8642 N   0  0  0  0  0  0  0  0  0  0  0  0
    2.6549   -0.5412   -1.6908 C   0  0  0  0  0  0  0  0  0  0  0  0
    3.0363   -0.2575   -2.8568 O   0  0  0  0  0  0  0  0  0  0  0  0
    1.3254   -0.0101   -1.2043 C   0  0  0  0  0  0  0  0  0  0  0  0
    1.3004    1.5383   -1.2352 C   0  0  0  0  0  0  0  0  0  0  0  0
    0.4222    2.1126   -0.1105 C   0  0  0  0  0  0  0  0  0  0  0  0
    0.2170    3.5933   -0.3070 C   0  0  0  0  0  0  0  0  0  0  0  0
    1.1508    4.3722    0.0278 O   0  0  0  0  0  0  0  0  0  0  0  0
   -0.9784    4.1325   -0.9221 N   0  0  0  0  0  0  0  0  0  0  0  0
   -0.9467    5.5094   -1.4284 C   0  0  0  0  0  0  0  0  0  0  0  0
   -2.2247    3.3537   -0.9956 C   0  0  0  0  0  0  0  0  0  0  0  0
   -2.8306    3.2110    0.3834 C   0  0  0  0  0  0  0  0  0  0  0  0
   -2.7921    4.2130    1.1492 O   0  0  0  0  0  0  0  0  0  0  0  0
   -3.5098    2.0263    0.8488 N   0  0  0  0  0  0  0  0  0  0  0  0
   -3.5856    0.7305    0.1627 C   0  0  0  0  0  0  0  0  0  0  0  0
   -5.0702    0.3288   -0.0871 C   0  0  0  0  0  0  0  0  0  0  0  0
   -5.9401    0.3138    1.1826 C   0  0  0  0  0  0  0  0  0  0  0  0
   -5.1796   -1.0120   -0.8344 C   0  0  0  0  0  0  0  0  0  0  0  0
   -2.7581   -0.3194    0.9404 C   0  0  0  0  0  0  0  0  0  0  0  0
   -1.9598   -1.0619    0.0251 O   0  0  0  0  0  0  0  0  0  0  0  0
   -1.0908   -2.1111    0.3684 C   0  0  0  0  0  0  0  0  0  0  0  0
   -1.0997   -2.7121    1.6428 C   0  0  0  0  0  0  0  0  0  0  0  0
   -0.2526   -3.7928    1.9184 C   0  0  0  0  0  0  0  0  0  0  0  0
    0.6062   -4.2787    0.9320 C   0  0  0  0  0  0  0  0  0  0  0  0
    0.6256   -3.6841   -0.3335 C   0  0  0  0  0  0  0  0  0  0  0  0
   -0.2100   -2.5940   -0.6145 C   0  0  0  0  0  0  0  0  0  0  0  0
   -0.1419   -1.9394   -1.9301 C   0  0  0  0  0  0  0  0  0  0  0  0
   -0.4502   -2.5901   -2.9660 O   0  0  0  0  0  0  0  0  0  0  0  0
    0.2586   -0.5670   -2.0491 N   0  0  0  0  0  0  0  0  0  0  0  0
    3.7206    2.1585    2.3621 H   0  0  0  0  0  0  0  0  0  0  0  0
    3.6399    1.2150    3.8936 H   0  0  0  0  0  0  0  0  0  0  0  0
    2.5033    0.7938    2.5698 H   0  0  0  0  0  0  0  0  0  0  0  0
    3.8760    0.9157    0.4029 H   0  0  0  0  0  0  0  0  0  0  0  0
    5.4061    0.0097    0.4823 H   0  0  0  0  0  0  0  0  0  0  0  0
    2.6621   -1.2836    1.0998 H   0  0  0  0  0  0  0  0  0  0  0  0
    3.7507   -3.2615    1.3982 H   0  0  0  0  0  0  0  0  0  0  0  0
    5.2165   -2.2684    1.7776 H   0  0  0  0  0  0  0  0  0  0  0  0
    5.1171   -4.1306   -0.2879 H   0  0  0  0  0  0  0  0  0  0  0  0
    6.1509   -2.6375   -0.3386 H   0  0  0  0  0  0  0  0  0  0  0  0
    4.9539   -2.0699   -2.2270 H   0  0  0  0  0  0  0  0  0  0  0  0
    3.6156   -3.2436   -1.8475 H   0  0  0  0  0  0  0  0  0  0  0  0
    1.1623   -0.3400   -0.1606 H   0  0  0  0  0  0  0  0  0  0  0  0
    0.9371    1.8978   -2.2241 H   0  0  0  0  0  0  0  0  0  0  0  0
    2.3291    1.9430   -1.1041 H   0  0  0  0  0  0  0  0  0  0  0  0
    0.9289    1.9456    0.8659 H   0  0  0  0  0  0  0  0  0  0  0  0
   -0.5398    1.5649   -0.0572 H   0  0  0  0  0  0  0  0  0  0  0  0
   -0.7475    6.2133   -0.5905 H   0  0  0  0  0  0  0  0  0  0  0  0
   -1.9079    5.7969   -1.9022 H   0  0  0  0  0  0  0  0  0  0  0  0
   -0.1463    5.6084   -2.1898 H   0  0  0  0  0  0  0  0  0  0  0  0
   -2.9762    3.8642   -1.6376 H   0  0  0  0  0  0  0  0  0  0  0  0
   -2.0073    2.4003   -1.5065 H   0  0  0  0  0  0  0  0  0  0  0  0
   -3.8626    2.0609    1.8311 H   0  0  0  0  0  0  0  0  0  0  0  0
   -3.1507    0.8134   -0.8462 H   0  0  0  0  0  0  0  0  0  0  0  0
   -5.5070    1.1002   -0.7619 H   0  0  0  0  0  0  0  0  0  0  0  0
   -5.5371   -0.3720    1.9577 H   0  0  0  0  0  0  0  0  0  0  0  0
   -6.0346    1.3343    1.6004 H   0  0  0  0  0  0  0  0  0  0  0  0
   -6.9681   -0.0276    0.9301 H   0  0  0  0  0  0  0  0  0  0  0  0
   -4.5503   -1.0000   -1.7462 H   0  0  0  0  0  0  0  0  0  0  0  0
   -4.8659   -1.8570   -0.1903 H   0  0  0  0  0  0  0  0  0  0  0  0
   -6.2281   -1.1928   -1.1497 H   0  0  0  0  0  0  0  0  0  0  0  0
   -3.4142   -1.0039    1.5140 H   0  0  0  0  0  0  0  0  0  0  0  0
   -2.0787    0.1833    1.6654 H   0  0  0  0  0  0  0  0  0  0  0  0
   -1.7674   -2.3694    2.4184 H   0  0  0  0  0  0  0  0  0  0  0  0
   -0.2667   -4.2549    2.8980 H   0  0  0  0  0  0  0  0  0  0  0  0
    1.2601   -5.1146    1.1485 H   0  0  0  0  0  0  0  0  0  0  0  0
    1.3025   -4.0670   -1.0867 H   0  0  0  0  0  0  0  0  0  0  0  0
    0.0653   -0.1023   -2.9665 H   0  0  0  0  0  0  0  0  0  0  0  0
  1  2  1  0
  2  3  1  0
  3  4  1  0
  4  5  1  0
  5  6  1  0
  6  7  1  0
  7  8  1  0
  8  9  1  0
  9 10  2  0
  9 11  1  0
 11 12  1  0
 12 13  1  0
 13 14  1  0
 14 15  2  0
 14 16  1  0
 16 17  1  0
 16 18  1  0
 18 19  1  0
 19 20  2  0
 19 21  1  0
 21 22  1  0
 22 23  1  0
 23 24  1  0
 23 25  1  0
 22 26  1  0
 26 27  1  0
 27 28  1  0
 28 29  2  0
 29 30  1  0
 30 31  2  0
 31 32  1  0
 32 33  2  0
 33 34  1  0
 34 35  2  0
 34 36  1  0
  8  4  1  0
 36 11  1  0
 33 28  1  0
  1 37  1  0
  1 38  1  0
  1 39  1  0
  3 40  1  0
  3 41  1  0
  4 42  1  0
  5 43  1  0
  5 44  1  0
  6 45  1  0
  6 46  1  0
  7 47  1  0
  7 48  1  0
 11 49  1  0
 12 50  1  0
 12 51  1  0
 13 52  1  0
 13 53  1  0
 17 54  1  0
 17 55  1  0
 17 56  1  0
 18 57  1  0
 18 58  1  0
 21 59  1  0
 22 60  1  0
 23 61  1  0
 24 62  1  0
 24 63  1  0
 24 64  1  0
 25 65  1  0
 25 66  1  0
 25 67  1  0
 26 68  1  0
 26 69  1  0
 29 70  1  0
 30 71  1  0
 31 72  1  0
 32 73  1  0
 36 74  1  0
M  END
$$$$
