
     RDKit          3D

 65 69  0  0  0  0  0  0  0  0999 V2000
    1.4035   -0.0303   -1.3203 O   0  0  0  0  0  0  0  0  0  0  0  0
    1.9504    0.6478   -0.4114 C   0  0  0  0  0  0  0  0  0  0  0  0
    3.4281    0.6418   -0.3209 C   0  0  0  0  0  0  0  0  0  0  0  0
    4.2757    0.0183   -1.2166 C   0  0  0  0  0  0  0  0  0  0  0  0
    5.5427    0.2211   -0.6897 C   0  0  0  0  0  0  0  0  0  0  0  0
    6.8263   -0.2841   -1.2333 C   0  0  0  0  0  0  0  0  0  0  0  0
    6.8537   -1.2529   -2.2569 C   0  0  0  0  0  0  0  0  0  0  0  0
    8.0735   -1.7532   -2.7247 C   0  0  0  0  0  0  0  0  0  0  0  0
    9.2753   -1.2965   -2.1782 C   0  0  0  0  0  0  0  0  0  0  0  0
   10.4560   -1.7882   -2.6288 F   0  0  0  0  0  0  0  0  0  0  0  0
    9.2592   -0.3345   -1.1655 C   0  0  0  0  0  0  0  0  0  0  0  0
    8.0439    0.1704   -0.6925 C   0  0  0  0  0  0  0  0  0  0  0  0
    5.4440    0.9203    0.4612 N   0  0  0  0  0  0  0  0  0  0  0  0
    4.1631    1.1657    0.6810 N   0  0  0  0  0  0  0  0  0  0  0  0
    1.1194    1.3893    0.5039 N   0  0  0  0  0  0  0  0  0  0  0  0
    1.4115    2.7753    0.8619 C   0  0  0  0  0  0  0  0  0  0  0  0
    0.1013    3.5307    1.0073 C   0  0  0  0  0  0  0  0  0  0  0  0
   -0.7382    2.8960    1.9569 O   0  0  0  0  0  0  0  0  0  0  0  0
   -1.1652    1.6010    1.5380 C   0  0  0  0  0  0  0  0  0  0  0  0
   -1.9586    1.0043    2.7501 C   0  0  0  0  0  0  0  0  0  0  0  0
   -2.4544   -0.4635    2.6320 C   0  0  0  0  0  0  0  0  0  0  0  0
   -3.8253   -0.5880    1.9435 C   0  0  0  0  0  0  0  0  0  0  0  0
   -4.1344   -2.0272    1.4809 C   0  0  0  0  0  0  0  0  0  0  0  0
   -5.1707   -1.9978    0.3813 C   0  0  0  0  0  0  0  0  0  0  0  0
   -6.5258   -1.9419    0.7588 C   0  0  0  0  0  0  0  0  0  0  0  0
   -7.5319   -1.8742   -0.2055 C   0  0  0  0  0  0  0  0  0  0  0  0
   -7.2031   -1.8524   -1.5622 C   0  0  0  0  0  0  0  0  0  0  0  0
   -5.8654   -1.9067   -1.9572 C   0  0  0  0  0  0  0  0  0  0  0  0
   -4.8369   -1.9655   -1.0064 C   0  0  0  0  0  0  0  0  0  0  0  0
   -3.5242   -2.0631   -1.4969 O   0  0  0  0  0  0  0  0  0  0  0  0
   -2.4511   -1.1642   -1.2152 C   0  0  0  0  0  0  0  0  0  0  0  0
   -2.7814    0.2828   -1.5899 C   0  0  0  0  0  0  0  0  0  0  0  0
   -1.8275    1.1826   -0.9417 N   0  0  0  0  0  0  0  0  0  0  0  0
   -2.1129    1.7511    0.3463 C   0  0  0  0  0  0  0  0  0  0  0  0
   -3.1673    2.4309    0.4888 O   0  0  0  0  0  0  0  0  0  0  0  0
    0.0726    0.6856    1.2498 C   0  0  0  0  0  0  0  0  0  0  0  0
    3.9991   -0.5125   -2.1182 H   0  0  0  0  0  0  0  0  0  0  0  0
    5.9385   -1.6404   -2.6854 H   0  0  0  0  0  0  0  0  0  0  0  0
    8.0833   -2.5081   -3.5010 H   0  0  0  0  0  0  0  0  0  0  0  0
   10.1901    0.0162   -0.7408 H   0  0  0  0  0  0  0  0  0  0  0  0
    8.0580    0.9152    0.0965 H   0  0  0  0  0  0  0  0  0  0  0  0
    3.8161    1.6585    1.5320 H   0  0  0  0  0  0  0  0  0  0  0  0
    1.9411    2.8083    1.8364 H   0  0  0  0  0  0  0  0  0  0  0  0
    2.0375    3.2608    0.0813 H   0  0  0  0  0  0  0  0  0  0  0  0
    0.3243    4.5534    1.3695 H   0  0  0  0  0  0  0  0  0  0  0  0
   -0.3958    3.6428    0.0204 H   0  0  0  0  0  0  0  0  0  0  0  0
   -1.2905    1.0503    3.6396 H   0  0  0  0  0  0  0  0  0  0  0  0
   -2.8184    1.6653    3.0006 H   0  0  0  0  0  0  0  0  0  0  0  0
   -1.6956   -1.1017    2.1384 H   0  0  0  0  0  0  0  0  0  0  0  0
   -2.5656   -0.8756    3.6588 H   0  0  0  0  0  0  0  0  0  0  0  0
   -4.6206   -0.2517    2.6462 H   0  0  0  0  0  0  0  0  0  0  0  0
   -3.8750    0.0817    1.0715 H   0  0  0  0  0  0  0  0  0  0  0  0
   -4.5165   -2.6098    2.3503 H   0  0  0  0  0  0  0  0  0  0  0  0
   -3.2296   -2.5757    1.1406 H   0  0  0  0  0  0  0  0  0  0  0  0
   -6.8024   -1.9508    1.8063 H   0  0  0  0  0  0  0  0  0  0  0  0
   -8.5712   -1.8338    0.0998 H   0  0  0  0  0  0  0  0  0  0  0  0
   -7.9881   -1.8014   -2.3070 H   0  0  0  0  0  0  0  0  0  0  0  0
   -5.6212   -1.9039   -3.0117 H   0  0  0  0  0  0  0  0  0  0  0  0
   -1.5618   -1.4829   -1.7990 H   0  0  0  0  0  0  0  0  0  0  0  0
   -2.1634   -1.2261   -0.1571 H   0  0  0  0  0  0  0  0  0  0  0  0
   -3.8219    0.5492   -1.2979 H   0  0  0  0  0  0  0  0  0  0  0  0
   -2.7067    0.4006   -2.6936 H   0  0  0  0  0  0  0  0  0  0  0  0
   -0.8500    1.2051   -1.3054 H   0  0  0  0  0  0  0  0  0  0  0  0
   -0.2378   -0.2231    0.6931 H   0  0  0  0  0  0  0  0  0  0  0  0
    0.5185    0.3388    2.2083 H   0  0  0  0  0  0  0  0  0  0  0  0
  1  2  2  0
  2  3  1  0
  3  4  2  0
  4  5  1  0
  5  6  1  0
  6  7  2  0
  7  8  1  0
  8  9  2  0
  9 10  1  0
  9 11  1  0
 11 12  2  0
  5 13  2  0
 13 14  1  0
  2 15  1  0
 15 16  1  0
 16 17  1  0
 17 18  1  0
 18 19  1  0
 19 20  1  0
 20 21  1  0
 21 22  1  0
 22 23  1  0
 23 24  1  0
 24 25  2  0
 25 26  1  0
 26 27  2  0
 27 28  1  0
 28 29  2  0
 29 30  1  0
 30 31  1  0
 31 32  1  0
 32 33  1  0
 33 34  1  0
 34 35  2  0
 19 36  1  0
 14  3  1  0
 36 15  1  0
 12  6  1  0
 34 19  1  0
 29 24  1  0
  4 37  1  0
  7 38  1  0
  8 39  1  0
 11 40  1  0
 12 41  1  0
 14 42  1  0
 16 43  1  0
 16 44  1  0
 17 45  1  0
 17 46  1  0
 20 47  1  0
 20 48  1  0
 21 49  1  0
 21 50  1  0
 22 51  1  0
 22 52  1  0
 23 53  1  0
 23 54  1  0
 25 55  1  0
 26 56  1  0
 27 57  1  0
 28 58  1  0
 31 59  1  0
 31 60  1  0
 32 61  1  0
 32 62  1  0
 33 63  1  0
 36 64  1  0
 36 65  1  0
M  END
$$$$
