
     RDKit          3D

 72 75  0  0  0  0  0  0  0  0999 V2000
    2.1722    1.0285   -2.0706 O   0  0  0  0  0  0  0  0  0  0  0  0
    1.8988    0.3791   -1.0273 C   0  0  0  0  0  0  0  0  0  0  0  0
    0.8581    0.9000   -0.0807 C   0  0  0  0  0  0  0  0  0  0  0  0
   -0.2988   -0.0165   -0.0007 N   0  0  0  0  0  0  0  0  0  0  0  0
   -1.0175   -0.2143   -1.2865 C   0  0  0  0  0  0  0  0  0  0  0  0
   -1.4249    1.0953   -2.0000 C   0  0  0  0  0  0  0  0  0  0  0  0
   -2.4667    0.8399   -3.1119 C   0  0  0  0  0  0  0  0  0  0  0  0
   -3.6344    1.8439   -3.0867 C   0  0  0  0  0  0  0  0  0  0  0  0
   -4.5689    1.7026   -1.8665 C   0  0  0  0  0  0  0  0  0  0  0  0
   -5.2300    0.3193   -1.7688 C   0  0  0  0  0  0  0  0  0  0  0  0
   -6.4020    0.3766   -0.9560 O   0  0  0  0  0  0  0  0  0  0  0  0
   -6.4799    0.5637    0.4371 C   0  0  0  0  0  0  0  0  0  0  0  0
   -7.7393    0.9090    0.9504 C   0  0  0  0  0  0  0  0  0  0  0  0
   -7.9346    1.0948    2.3197 C   0  0  0  0  0  0  0  0  0  0  0  0
   -6.8674    0.9393    3.2031 C   0  0  0  0  0  0  0  0  0  0  0  0
   -5.6085    0.5880    2.7178 C   0  0  0  0  0  0  0  0  0  0  0  0
   -5.3973    0.3879    1.3393 C   0  0  0  0  0  0  0  0  0  0  0  0
   -4.1169    0.0363    0.8979 O   0  0  0  0  0  0  0  0  0  0  0  0
   -3.3606   -0.9712    1.5099 C   0  0  0  0  0  0  0  0  0  0  0  0
   -3.9893   -2.0691    2.0173 N   0  0  0  0  0  0  0  0  0  0  0  0
   -3.3049   -3.0980    2.5823 C   0  0  0  0  0  0  0  0  0  0  0  0
   -1.9141   -3.0540    2.6569 C   0  0  0  0  0  0  0  0  0  0  0  0
   -1.2415   -1.9359    2.1646 C   0  0  0  0  0  0  0  0  0  0  0  0
   -1.9567   -0.8760    1.5858 C   0  0  0  0  0  0  0  0  0  0  0  0
   -1.2102    0.3436    1.1076 C   0  0  0  0  0  0  0  0  0  0  0  0
    2.5392   -0.8798   -0.7635 N   0  0  0  0  0  0  0  0  0  0  0  0
    3.7555   -1.2916   -1.4614 C   0  0  0  0  0  0  0  0  0  0  0  0
    4.9752   -0.6461   -0.8018 C   0  0  0  0  0  0  0  0  0  0  0  0
    6.4780   -1.0483   -1.6902 S   0  0  0  0  0  6  0  0  0  0  0  0
    6.4597   -0.3579   -3.0257 O   0  0  0  0  0  0  0  0  0  0  0  0
    6.5428   -2.5346   -1.9175 O   0  0  0  0  0  0  0  0  0  0  0  0
    7.9012   -0.5406   -0.8057 N   0  0  0  0  0  0  0  0  0  0  0  0
    7.8405    0.8891   -0.4745 C   0  0  0  0  0  0  0  0  0  0  0  0
    7.5350    1.0113    1.0053 C   0  0  0  0  0  0  0  0  0  0  0  0
    8.0635   -0.2698    1.6029 C   0  0  0  0  0  0  0  0  0  0  0  0
    8.0332   -1.2781    0.4616 C   0  0  0  0  0  0  0  0  0  0  0  0
    0.5424    1.9266   -0.3631 H   0  0  0  0  0  0  0  0  0  0  0  0
    1.3467    0.9747    0.9133 H   0  0  0  0  0  0  0  0  0  0  0  0
   -0.3784   -0.8114   -1.9719 H   0  0  0  0  0  0  0  0  0  0  0  0
   -1.9219   -0.8350   -1.1045 H   0  0  0  0  0  0  0  0  0  0  0  0
   -0.5259    1.5549   -2.4651 H   0  0  0  0  0  0  0  0  0  0  0  0
   -1.8000    1.8358   -1.2698 H   0  0  0  0  0  0  0  0  0  0  0  0
   -1.9590    0.9290   -4.0978 H   0  0  0  0  0  0  0  0  0  0  0  0
   -2.8708   -0.1941   -3.0804 H   0  0  0  0  0  0  0  0  0  0  0  0
   -4.2331    1.7114   -4.0152 H   0  0  0  0  0  0  0  0  0  0  0  0
   -3.2282    2.8801   -3.1104 H   0  0  0  0  0  0  0  0  0  0  0  0
   -5.3693    2.4685   -1.9692 H   0  0  0  0  0  0  0  0  0  0  0  0
   -4.0269    1.9284   -0.9256 H   0  0  0  0  0  0  0  0  0  0  0  0
   -5.5513    0.0032   -2.7854 H   0  0  0  0  0  0  0  0  0  0  0  0
   -4.5271   -0.4550   -1.4022 H   0  0  0  0  0  0  0  0  0  0  0  0
   -8.5797    1.0270    0.2765 H   0  0  0  0  0  0  0  0  0  0  0  0
   -8.9134    1.3622    2.6964 H   0  0  0  0  0  0  0  0  0  0  0  0
   -7.0163    1.0905    4.2653 H   0  0  0  0  0  0  0  0  0  0  0  0
   -4.7884    0.4780    3.4164 H   0  0  0  0  0  0  0  0  0  0  0  0
   -3.8417   -3.9529    2.9686 H   0  0  0  0  0  0  0  0  0  0  0  0
   -1.3632   -3.8749    3.0994 H   0  0  0  0  0  0  0  0  0  0  0  0
   -0.1608   -1.8934    2.2353 H   0  0  0  0  0  0  0  0  0  0  0  0
   -1.9017    1.1588    0.8169 H   0  0  0  0  0  0  0  0  0  0  0  0
   -0.6387    0.7316    1.9800 H   0  0  0  0  0  0  0  0  0  0  0  0
    2.2279   -1.4412    0.0612 H   0  0  0  0  0  0  0  0  0  0  0  0
    3.8475   -2.3982   -1.4053 H   0  0  0  0  0  0  0  0  0  0  0  0
    3.6962   -1.0068   -2.5349 H   0  0  0  0  0  0  0  0  0  0  0  0
    5.0552   -1.0038    0.2470 H   0  0  0  0  0  0  0  0  0  0  0  0
    4.8517    0.4576   -0.7879 H   0  0  0  0  0  0  0  0  0  0  0  0
    7.0988    1.4512   -1.0835 H   0  0  0  0  0  0  0  0  0  0  0  0
    8.8386    1.3364   -0.6751 H   0  0  0  0  0  0  0  0  0  0  0  0
    8.0263    1.9029    1.4522 H   0  0  0  0  0  0  0  0  0  0  0  0
    6.4358    1.0770    1.1588 H   0  0  0  0  0  0  0  0  0  0  0  0
    7.4376   -0.6050    2.4615 H   0  0  0  0  0  0  0  0  0  0  0  0
    9.1133   -0.1214    1.9464 H   0  0  0  0  0  0  0  0  0  0  0  0
    7.2063   -2.0048    0.6284 H   0  0  0  0  0  0  0  0  0  0  0  0
    8.9831   -1.8543    0.4451 H   0  0  0  0  0  0  0  0  0  0  0  0
  1  2  2  0
  2  3  1  0
  3  4  1  0
  4  5  1  0
  5  6  1  0
  6  7  1  0
  7  8  1  0
  8  9  1  0
  9 10  1  0
 10 11  1  0
 11 12  1  0
 12 13  2  0
 13 14  1  0
 14 15  2  0
 15 16  1  0
 16 17  2  0
 17 18  1  0
 18 19  1  0
 19 20  2  0
 20 21  1  0
 21 22  2  0
 22 23  1  0
 23 24  2  0
 24 25  1  0
  2 26  1  0
 26 27  1  0
 27 28  1  0
 28 29  1  0
 29 30  2  0
 29 31  2  0
 29 32  1  0
 32 33  1  0
 33 34  1  0
 34 35  1  0
 35 36  1  0
 25  4  1  0
 36 32  1  0
 17 12  1  0
 24 19  1  0
  3 37  1  0
  3 38  1  0
  5 39  1  0
  5 40  1  0
  6 41  1  0
  6 42  1  0
  7 43  1  0
  7 44  1  0
  8 45  1  0
  8 46  1  0
  9 47  1  0
  9 48  1  0
 10 49  1  0
 10 50  1  0
 13 51  1  0
 14 52  1  0
 15 53  1  0
 16 54  1  0
 21 55  1  0
 22 56  1  0
 23 57  1  0
 25 58  1  0
 25 59  1  0
 26 60  1  0
 27 61  1  0
 27 62  1  0
 28 63  1  0
 28 64  1  0
 33 65  1  0
 33 66  1  0
 34 67  1  0
 34 68  1  0
 35 69  1  0
 35 70  1  0
 36 71  1  0
 36 72  1  0
M  END
$$$$
