
     RDKit          3D

 85 89  0  0  0  0  0  0  0  0999 V2000
   -3.9264    3.4595    1.0071 C   0  0  0  0  0  0  0  0  0  0  0  0
   -3.4840    1.9980    1.1638 C   0  0  0  0  0  0  0  0  0  0  0  0
   -3.1297    1.6786    2.6237 C   0  0  0  0  0  0  0  0  0  0  0  0
   -4.4764    1.0277    0.6374 N   0  0  0  0  0  0  0  0  0  0  0  0
   -5.8509    1.0533    1.1969 C   0  0  0  0  0  0  0  0  0  0  0  0
   -6.8833    1.7308    0.3153 C   0  0  0  0  0  0  0  0  0  0  0  0
   -6.6002    2.8321   -0.2268 O   0  0  0  0  0  0  0  0  0  0  0  0
   -8.2145    1.2047    0.1495 N   0  0  0  0  0  0  0  0  0  0  0  0
   -8.6279   -0.1506    0.5150 C   0  0  0  0  0  0  0  0  0  0  0  0
   -8.1223   -1.1622   -0.5247 C   0  0  0  0  0  0  0  0  0  0  0  0
   -8.1748   -2.6166   -0.0263 C   0  0  0  0  0  0  0  0  0  0  0  0
   -7.0482   -2.9944    0.9582 C   0  0  0  0  0  0  0  0  0  0  0  0
   -5.6774   -3.1913    0.2930 C   0  0  0  0  0  0  0  0  0  0  0  0
   -5.0913   -1.9344   -0.0332 O   0  0  0  0  0  0  0  0  0  0  0  0
   -3.8178   -1.7576   -0.6003 C   0  0  0  0  0  0  0  0  0  0  0  0
   -2.9374   -2.8390   -0.7966 C   0  0  0  0  0  0  0  0  0  0  0  0
   -1.6681   -2.6308   -1.3395 C   0  0  0  0  0  0  0  0  0  0  0  0
   -1.2576   -1.3431   -1.7074 C   0  0  0  0  0  0  0  0  0  0  0  0
    0.1232   -1.1182   -2.2630 C   0  0  0  0  0  0  0  0  0  0  0  0
    1.1382   -0.9194   -1.1290 C   0  0  0  0  0  0  0  0  0  0  0  0
    2.5258   -0.6325   -1.6495 C   0  0  0  0  0  0  0  0  0  0  0  0
    2.8902   -1.1304   -2.7508 O   0  0  0  0  0  0  0  0  0  0  0  0
    3.4586    0.1673   -0.8947 N   0  0  0  0  0  0  0  0  0  0  0  0
    3.3275    0.3273    0.5644 C   0  0  0  0  0  0  0  0  0  0  0  0
    4.7057    0.2646    1.2421 C   0  0  0  0  0  0  0  0  0  0  0  0
    5.7242    1.0103    0.4856 N   0  0  0  0  0  0  0  0  0  0  0  0
    7.1156    0.8500    0.8197 C   0  0  0  0  0  0  0  0  0  0  0  0
    7.5500    0.9989    2.1506 C   0  0  0  0  0  0  0  0  0  0  0  0
    8.9037    0.8616    2.4726 C   0  0  0  0  0  0  0  0  0  0  0  0
    9.8325    0.5713    1.4695 C   0  0  0  0  0  0  0  0  0  0  0  0
    9.4036    0.3727    0.1517 C   0  0  0  0  0  0  0  0  0  0  0  0
    8.0540    0.5214   -0.1765 C   0  0  0  0  0  0  0  0  0  0  0  0
   10.3437    0.0312   -0.8267 O   0  0  0  0  0  0  0  0  0  0  0  0
   11.6682   -0.3712   -0.4696 C   0  0  0  0  0  0  0  0  0  0  0  0
   12.1747    0.4591    0.7182 C   0  0  0  0  0  0  0  0  0  0  0  0
   11.1971    0.4783    1.7614 O   0  0  0  0  0  0  0  0  0  0  0  0
    5.3224    1.7874   -0.6918 C   0  0  0  0  0  0  0  0  0  0  0  0
    4.5072    0.8957   -1.6275 C   0  0  0  0  0  0  0  0  0  0  0  0
   -2.1274   -0.2597   -1.5108 C   0  0  0  0  0  0  0  0  0  0  0  0
   -3.4106   -0.4596   -0.9751 C   0  0  0  0  0  0  0  0  0  0  0  0
   -4.3413    0.7125   -0.7977 C   0  0  0  0  0  0  0  0  0  0  0  0
   -3.1122    4.1361    1.3416 H   0  0  0  0  0  0  0  0  0  0  0  0
   -4.8291    3.6753    1.6143 H   0  0  0  0  0  0  0  0  0  0  0  0
   -4.1355    3.6845   -0.0582 H   0  0  0  0  0  0  0  0  0  0  0  0
   -2.5310    1.8866    0.5950 H   0  0  0  0  0  0  0  0  0  0  0  0
   -2.9194    0.5930    2.7374 H   0  0  0  0  0  0  0  0  0  0  0  0
   -2.2224    2.2438    2.9259 H   0  0  0  0  0  0  0  0  0  0  0  0
   -3.9506    1.9588    3.3155 H   0  0  0  0  0  0  0  0  0  0  0  0
   -5.8729    1.5537    2.1863 H   0  0  0  0  0  0  0  0  0  0  0  0
   -6.1332    0.0061    1.3943 H   0  0  0  0  0  0  0  0  0  0  0  0
   -8.9374    1.8353   -0.2605 H   0  0  0  0  0  0  0  0  0  0  0  0
   -9.7391   -0.1974    0.5357 H   0  0  0  0  0  0  0  0  0  0  0  0
   -8.2889   -0.3888    1.5434 H   0  0  0  0  0  0  0  0  0  0  0  0
   -7.1027   -0.9083   -0.8584 H   0  0  0  0  0  0  0  0  0  0  0  0
   -8.7672   -1.0788   -1.4268 H   0  0  0  0  0  0  0  0  0  0  0  0
   -9.1556   -2.7916    0.4666 H   0  0  0  0  0  0  0  0  0  0  0  0
   -8.1331   -3.3007   -0.9015 H   0  0  0  0  0  0  0  0  0  0  0  0
   -6.9668   -2.2535    1.7802 H   0  0  0  0  0  0  0  0  0  0  0  0
   -7.3292   -3.9611    1.4288 H   0  0  0  0  0  0  0  0  0  0  0  0
   -5.0187   -3.7221    1.0144 H   0  0  0  0  0  0  0  0  0  0  0  0
   -5.7755   -3.8137   -0.6242 H   0  0  0  0  0  0  0  0  0  0  0  0
   -3.2195   -3.8450   -0.5218 H   0  0  0  0  0  0  0  0  0  0  0  0
   -1.0023   -3.4756   -1.4720 H   0  0  0  0  0  0  0  0  0  0  0  0
    0.1261   -0.2270   -2.9290 H   0  0  0  0  0  0  0  0  0  0  0  0
    0.4184   -1.9930   -2.8834 H   0  0  0  0  0  0  0  0  0  0  0  0
    0.8014   -0.0679   -0.4985 H   0  0  0  0  0  0  0  0  0  0  0  0
    1.1764   -1.8336   -0.4983 H   0  0  0  0  0  0  0  0  0  0  0  0
    2.6903   -0.4716    1.0029 H   0  0  0  0  0  0  0  0  0  0  0  0
    2.8490    1.3074    0.7801 H   0  0  0  0  0  0  0  0  0  0  0  0
    5.0143   -0.8014    1.3116 H   0  0  0  0  0  0  0  0  0  0  0  0
    4.6235    0.6714    2.2712 H   0  0  0  0  0  0  0  0  0  0  0  0
    6.8444    1.2459    2.9327 H   0  0  0  0  0  0  0  0  0  0  0  0
    9.2330    1.0089    3.4933 H   0  0  0  0  0  0  0  0  0  0  0  0
    7.7377    0.3671   -1.2023 H   0  0  0  0  0  0  0  0  0  0  0  0
   12.3435   -0.2463   -1.3417 H   0  0  0  0  0  0  0  0  0  0  0  0
   11.6550   -1.4446   -0.1851 H   0  0  0  0  0  0  0  0  0  0  0  0
   13.1266    0.0364    1.1061 H   0  0  0  0  0  0  0  0  0  0  0  0
   12.3633    1.5014    0.3817 H   0  0  0  0  0  0  0  0  0  0  0  0
    4.7009    2.6483   -0.3642 H   0  0  0  0  0  0  0  0  0  0  0  0
    6.1985    2.2036   -1.2340 H   0  0  0  0  0  0  0  0  0  0  0  0
    5.1916    0.1637   -2.1109 H   0  0  0  0  0  0  0  0  0  0  0  0
    4.0459    1.5271   -2.4183 H   0  0  0  0  0  0  0  0  0  0  0  0
   -1.8060    0.7408   -1.7792 H   0  0  0  0  0  0  0  0  0  0  0  0
   -3.9794    1.6011   -1.3595 H   0  0  0  0  0  0  0  0  0  0  0  0
   -5.3105    0.4421   -1.2578 H   0  0  0  0  0  0  0  0  0  0  0  0
  1  2  1  0
  2  3  1  0
  2  4  1  0
  4  5  1  0
  5  6  1  0
  6  7  2  0
  6  8  1  0
  8  9  1  0
  9 10  1  0
 10 11  1  0
 11 12  1  0
 12 13  1  0
 13 14  1  0
 14 15  1  0
 15 16  2  0
 16 17  1  0
 17 18  2  0
 18 19  1  0
 19 20  1  0
 20 21  1  0
 21 22  2  0
 21 23  1  0
 23 24  1  0
 24 25  1  0
 25 26  1  0
 26 27  1  0
 27 28  2  0
 28 29  1  0
 29 30  2  0
 30 31  1  0
 31 32  2  0
 31 33  1  0
 33 34  1  0
 34 35  1  0
 35 36  1  0
 26 37  1  0
 37 38  1  0
 18 39  1  0
 39 40  2  0
 40 41  1  0
 41  4  1  0
 40 15  1  0
 38 23  1  0
 32 27  1  0
 36 30  1  0
  1 42  1  0
  1 43  1  0
  1 44  1  0
  2 45  1  0
  3 46  1  0
  3 47  1  0
  3 48  1  0
  5 49  1  0
  5 50  1  0
  8 51  1  0
  9 52  1  0
  9 53  1  0
 10 54  1  0
 10 55  1  0
 11 56  1  0
 11 57  1  0
 12 58  1  0
 12 59  1  0
 13 60  1  0
 13 61  1  0
 16 62  1  0
 17 63  1  0
 19 64  1  0
 19 65  1  0
 20 66  1  0
 20 67  1  0
 24 68  1  0
 24 69  1  0
 25 70  1  0
 25 71  1  0
 28 72  1  0
 29 73  1  0
 32 74  1  0
 34 75  1  0
 34 76  1  0
 35 77  1  0
 35 78  1  0
 37 79  1  0
 37 80  1  0
 38 81  1  0
 38 82  1  0
 39 83  1  0
 41 84  1  0
 41 85  1  0
M  END
$$$$
