
     RDKit          3D

 69 72  0  0  0  0  0  0  0  0999 V2000
   -5.6309   -2.9824    2.1310 C   0  0  0  0  0  0  0  0  0  0  0  0
   -5.0390   -1.9256    1.2043 C   0  0  0  0  0  0  0  0  0  0  0  0
   -3.5118   -2.0214    1.1547 C   0  0  0  0  0  0  0  0  0  0  0  0
   -2.9706   -1.0040    0.2439 N   0  0  0  0  0  0  0  0  0  0  0  0
   -2.3804   -1.4082   -1.0439 C   0  0  0  0  0  0  0  0  0  0  0  0
   -0.8430   -1.3060   -0.9866 C   0  0  0  0  0  0  0  0  0  0  0  0
   -0.2668   -0.4736   -2.1426 C   0  0  0  0  0  0  0  0  0  0  0  0
    1.2468   -0.2672   -2.0160 C   0  0  0  0  0  0  0  0  0  0  0  0
    1.6181    0.4180   -0.7579 N   0  0  0  0  0  0  0  0  0  0  0  0
    2.1059   -0.3837    0.3449 C   0  0  0  0  0  0  0  0  0  0  0  0
    1.6884   -0.1501    1.5059 O   0  0  0  0  0  0  0  0  0  0  0  0
    3.1004   -1.4785    0.1391 C   0  0  0  0  0  0  0  0  0  0  0  0
    4.0985   -1.2995   -0.8403 C   0  0  0  0  0  0  0  0  0  0  0  0
    5.0943   -2.2540   -1.0361 C   0  0  0  0  0  0  0  0  0  0  0  0
    5.1198   -3.4048   -0.2563 C   0  0  0  0  0  0  0  0  0  0  0  0
    4.1381   -3.6169    0.7099 C   0  0  0  0  0  0  0  0  0  0  0  0
    3.1009   -2.6810    0.9107 C   0  0  0  0  0  0  0  0  0  0  0  0
    2.0371   -2.9870    1.9510 C   0  0  0  0  0  0  0  0  0  0  0  0
    2.2720   -2.2385    3.0888 F   0  0  0  0  0  0  0  0  0  0  0  0
    2.0433   -4.3255    2.3051 F   0  0  0  0  0  0  0  0  0  0  0  0
    0.7792   -2.6974    1.4569 F   0  0  0  0  0  0  0  0  0  0  0  0
    1.6749    1.9063   -0.7283 C   0  0  0  0  0  0  0  0  0  0  0  0
    3.1436    2.4085   -0.6010 C   0  0  0  0  0  0  0  0  0  0  0  0
    3.3506    3.4489    0.5044 C   0  0  0  0  0  0  0  0  0  0  0  0
    2.7598    2.9387    1.8176 C   0  0  0  0  0  0  0  0  0  0  0  0
    1.2353    2.7514    1.7299 C   0  0  0  0  0  0  0  0  0  0  0  0
    0.6973    2.5850    0.2896 C   0  0  0  0  0  0  0  0  0  0  0  0
   -0.5758    1.9334    0.3259 O   0  0  0  0  0  0  0  0  0  0  0  0
   -1.6825    2.2202   -0.4996 C   0  0  0  0  0  0  0  0  0  0  0  0
   -1.6459    3.2027   -1.5142 C   0  0  0  0  0  0  0  0  0  0  0  0
   -2.7611    3.4255   -2.3257 C   0  0  0  0  0  0  0  0  0  0  0  0
   -3.9200    2.6716   -2.1485 C   0  0  0  0  0  0  0  0  0  0  0  0
   -3.9673    1.6880   -1.1612 C   0  0  0  0  0  0  0  0  0  0  0  0
   -2.8591    1.4626   -0.3331 C   0  0  0  0  0  0  0  0  0  0  0  0
   -2.9195    0.3782    0.6597 C   0  0  0  0  0  0  0  0  0  0  0  0
   -2.9173    0.6731    1.8852 O   0  0  0  0  0  0  0  0  0  0  0  0
   -5.2503   -2.8439    3.1652 H   0  0  0  0  0  0  0  0  0  0  0  0
   -6.7368   -2.8879    2.1439 H   0  0  0  0  0  0  0  0  0  0  0  0
   -5.3648   -4.0008    1.7754 H   0  0  0  0  0  0  0  0  0  0  0  0
   -5.3408   -0.9186    1.5660 H   0  0  0  0  0  0  0  0  0  0  0  0
   -5.4501   -2.0681    0.1813 H   0  0  0  0  0  0  0  0  0  0  0  0
   -3.2188   -3.0417    0.8210 H   0  0  0  0  0  0  0  0  0  0  0  0
   -3.0839   -1.8824    2.1720 H   0  0  0  0  0  0  0  0  0  0  0  0
   -2.6636   -2.4543   -1.2930 H   0  0  0  0  0  0  0  0  0  0  0  0
   -2.8073   -0.7877   -1.8610 H   0  0  0  0  0  0  0  0  0  0  0  0
   -0.4046   -2.3276   -1.0184 H   0  0  0  0  0  0  0  0  0  0  0  0
   -0.5405   -0.8523   -0.0210 H   0  0  0  0  0  0  0  0  0  0  0  0
   -0.4734   -1.0006   -3.0994 H   0  0  0  0  0  0  0  0  0  0  0  0
   -0.7597    0.5128   -2.2061 H   0  0  0  0  0  0  0  0  0  0  0  0
    1.7347   -1.2606   -2.0976 H   0  0  0  0  0  0  0  0  0  0  0  0
    1.6052    0.3206   -2.8887 H   0  0  0  0  0  0  0  0  0  0  0  0
    4.1142   -0.4156   -1.4625 H   0  0  0  0  0  0  0  0  0  0  0  0
    5.8540   -2.0956   -1.7910 H   0  0  0  0  0  0  0  0  0  0  0  0
    5.9008   -4.1396   -0.4030 H   0  0  0  0  0  0  0  0  0  0  0  0
    4.1930   -4.5247    1.2969 H   0  0  0  0  0  0  0  0  0  0  0  0
    1.3215    2.2736   -1.7185 H   0  0  0  0  0  0  0  0  0  0  0  0
    3.8321    1.5666   -0.3913 H   0  0  0  0  0  0  0  0  0  0  0  0
    3.4739    2.8483   -1.5677 H   0  0  0  0  0  0  0  0  0  0  0  0
    4.4390    3.6321    0.6362 H   0  0  0  0  0  0  0  0  0  0  0  0
    2.8774    4.4138    0.2195 H   0  0  0  0  0  0  0  0  0  0  0  0
    3.2407    1.9724    2.0835 H   0  0  0  0  0  0  0  0  0  0  0  0
    2.9978    3.6581    2.6308 H   0  0  0  0  0  0  0  0  0  0  0  0
    0.9169    1.9125    2.3801 H   0  0  0  0  0  0  0  0  0  0  0  0
    0.7489    3.6492    2.1737 H   0  0  0  0  0  0  0  0  0  0  0  0
    0.5611    3.6334   -0.0495 H   0  0  0  0  0  0  0  0  0  0  0  0
   -0.7615    3.7855   -1.7157 H   0  0  0  0  0  0  0  0  0  0  0  0
   -2.7222    4.1781   -3.1029 H   0  0  0  0  0  0  0  0  0  0  0  0
   -4.7789    2.8418   -2.7847 H   0  0  0  0  0  0  0  0  0  0  0  0
   -4.8668    1.0964   -1.0446 H   0  0  0  0  0  0  0  0  0  0  0  0
  1  2  1  0
  2  3  1  0
  3  4  1  0
  4  5  1  0
  5  6  1  0
  6  7  1  0
  7  8  1  0
  8  9  1  0
  9 10  1  0
 10 11  2  0
 10 12  1  0
 12 13  2  0
 13 14  1  0
 14 15  2  0
 15 16  1  0
 16 17  2  0
 17 18  1  0
 18 19  1  0
 18 20  1  0
 18 21  1  0
  9 22  1  0
 22 23  1  0
 23 24  1  0
 24 25  1  0
 25 26  1  0
 26 27  1  0
 27 28  1  0
 28 29  1  0
 29 30  2  0
 30 31  1  0
 31 32  2  0
 32 33  1  0
 33 34  2  0
 34 35  1  0
 35 36  2  0
 35  4  1  0
 17 12  1  0
 27 22  1  0
 34 29  1  0
  1 37  1  0
  1 38  1  0
  1 39  1  0
  2 40  1  0
  2 41  1  0
  3 42  1  0
  3 43  1  0
  5 44  1  0
  5 45  1  0
  6 46  1  0
  6 47  1  0
  7 48  1  0
  7 49  1  0
  8 50  1  0
  8 51  1  0
 13 52  1  0
 14 53  1  0
 15 54  1  0
 16 55  1  0
 22 56  1  0
 23 57  1  0
 23 58  1  0
 24 59  1  0
 24 60  1  0
 25 61  1  0
 25 62  1  0
 26 63  1  0
 26 64  1  0
 27 65  1  0
 30 66  1  0
 31 67  1  0
 32 68  1  0
 33 69  1  0
M  END
$$$$
