
     RDKit          3D

 66 69  0  0  0  0  0  0  0  0999 V2000
    6.6518   -1.5172   -2.0899 C   0  0  0  0  0  0  0  0  0  0  0  0
    6.8921   -0.1859   -1.4656 C   0  0  0  0  0  0  0  0  0  0  0  0
    8.1131    0.3610   -1.3073 N   0  0  0  0  0  0  0  0  0  0  0  0
    7.9441    1.5589   -0.7660 N   0  0  0  0  0  0  0  0  0  0  0  0
    9.0355    2.4854   -0.5028 C   0  0  0  0  0  0  0  0  0  0  0  0
    6.6318    1.8153   -0.5887 C   0  0  0  0  0  0  0  0  0  0  0  0
    5.9316    0.7056   -1.0199 C   0  0  0  0  0  0  0  0  0  0  0  0
    4.5100    0.5019   -1.0365 N   0  0  0  0  0  0  0  0  0  0  0  0
    3.5956    1.1653   -0.1494 C   0  0  0  0  0  0  0  0  0  0  0  0
    4.0108    2.0129    0.6860 O   0  0  0  0  0  0  0  0  0  0  0  0
    2.1363    0.8164   -0.1756 C   0  0  0  0  0  0  0  0  0  0  0  0
    1.9372   -0.6250    0.0870 N   0  0  0  0  0  0  0  0  0  0  0  0
    2.2137   -1.0020    1.4908 C   0  0  0  0  0  0  0  0  0  0  0  0
    0.9544   -0.9674    2.3739 C   0  0  0  0  0  0  0  0  0  0  0  0
   -0.0252   -0.0990    1.8372 O   0  0  0  0  0  0  0  0  0  0  0  0
   -0.5454   -0.5890    0.6017 C   0  0  0  0  0  0  0  0  0  0  0  0
   -1.2967    0.5809   -0.0891 C   0  0  0  0  0  0  0  0  0  0  0  0
   -2.4014    1.2016    0.7973 C   0  0  0  0  0  0  0  0  0  0  0  0
   -3.2652    2.2200    0.0358 C   0  0  0  0  0  0  0  0  0  0  0  0
   -4.2725    1.5697   -0.9307 C   0  0  0  0  0  0  0  0  0  0  0  0
   -5.4894    1.0148   -0.2248 C   0  0  0  0  0  0  0  0  0  0  0  0
   -6.5228    1.8961    0.1389 C   0  0  0  0  0  0  0  0  0  0  0  0
   -7.6828    1.4142    0.7442 C   0  0  0  0  0  0  0  0  0  0  0  0
   -7.8357    0.0508    0.9800 C   0  0  0  0  0  0  0  0  0  0  0  0
   -6.8120   -0.8343    0.6453 C   0  0  0  0  0  0  0  0  0  0  0  0
   -5.6152   -0.3644    0.0615 C   0  0  0  0  0  0  0  0  0  0  0  0
   -4.5209   -1.2180   -0.1772 O   0  0  0  0  0  0  0  0  0  0  0  0
   -4.5902   -2.6223   -0.4411 C   0  0  0  0  0  0  0  0  0  0  0  0
   -3.2868   -3.3213   -0.0310 C   0  0  0  0  0  0  0  0  0  0  0  0
   -2.1241   -2.4491   -0.2266 N   0  0  0  0  0  0  0  0  0  0  0  0
   -1.5584   -1.6964    0.8609 C   0  0  0  0  0  0  0  0  0  0  0  0
   -1.9837   -1.8821    2.0310 O   0  0  0  0  0  0  0  0  0  0  0  0
    0.6053   -1.1041   -0.3376 C   0  0  0  0  0  0  0  0  0  0  0  0
    5.9310   -2.0966   -1.4769 H   0  0  0  0  0  0  0  0  0  0  0  0
    7.6048   -2.0852   -2.1591 H   0  0  0  0  0  0  0  0  0  0  0  0
    6.2394   -1.3753   -3.1073 H   0  0  0  0  0  0  0  0  0  0  0  0
    9.2010    3.1282   -1.3947 H   0  0  0  0  0  0  0  0  0  0  0  0
    9.9691    1.9193   -0.2824 H   0  0  0  0  0  0  0  0  0  0  0  0
    8.7913    3.1285    0.3735 H   0  0  0  0  0  0  0  0  0  0  0  0
    6.2313    2.7467   -0.2108 H   0  0  0  0  0  0  0  0  0  0  0  0
    4.1329   -0.2555   -1.6482 H   0  0  0  0  0  0  0  0  0  0  0  0
    1.5902    1.4356    0.5685 H   0  0  0  0  0  0  0  0  0  0  0  0
    1.7563    1.0764   -1.1871 H   0  0  0  0  0  0  0  0  0  0  0  0
    3.0064   -0.3579    1.9379 H   0  0  0  0  0  0  0  0  0  0  0  0
    2.6246   -2.0375    1.4972 H   0  0  0  0  0  0  0  0  0  0  0  0
    0.5531   -1.9961    2.5026 H   0  0  0  0  0  0  0  0  0  0  0  0
    1.2317   -0.6112    3.3885 H   0  0  0  0  0  0  0  0  0  0  0  0
   -0.5798    1.3849   -0.3511 H   0  0  0  0  0  0  0  0  0  0  0  0
   -1.7263    0.2242   -1.0464 H   0  0  0  0  0  0  0  0  0  0  0  0
   -3.0615    0.4261    1.2300 H   0  0  0  0  0  0  0  0  0  0  0  0
   -1.9182    1.7250    1.6458 H   0  0  0  0  0  0  0  0  0  0  0  0
   -3.8174    2.8494    0.7698 H   0  0  0  0  0  0  0  0  0  0  0  0
   -2.6024    2.9106   -0.5330 H   0  0  0  0  0  0  0  0  0  0  0  0
   -4.6104    2.3510   -1.6411 H   0  0  0  0  0  0  0  0  0  0  0  0
   -3.7962    0.8016   -1.5641 H   0  0  0  0  0  0  0  0  0  0  0  0
   -6.4284    2.9586   -0.0434 H   0  0  0  0  0  0  0  0  0  0  0  0
   -8.4728    2.1008    1.0224 H   0  0  0  0  0  0  0  0  0  0  0  0
   -8.7456   -0.3163    1.4408 H   0  0  0  0  0  0  0  0  0  0  0  0
   -6.9597   -1.8727    0.8859 H   0  0  0  0  0  0  0  0  0  0  0  0
   -5.4093   -3.1151    0.1152 H   0  0  0  0  0  0  0  0  0  0  0  0
   -4.7729   -2.7724   -1.5249 H   0  0  0  0  0  0  0  0  0  0  0  0
   -3.3524   -3.6440    1.0325 H   0  0  0  0  0  0  0  0  0  0  0  0
   -3.1577   -4.2447   -0.6382 H   0  0  0  0  0  0  0  0  0  0  0  0
   -1.8472   -2.2193   -1.2083 H   0  0  0  0  0  0  0  0  0  0  0  0
    0.6411   -2.2152   -0.3174 H   0  0  0  0  0  0  0  0  0  0  0  0
    0.4194   -0.8450   -1.4035 H   0  0  0  0  0  0  0  0  0  0  0  0
  1  2  1  0
  2  3  2  0
  3  4  1  0
  4  5  1  0
  4  6  1  0
  6  7  2  0
  7  8  1  0
  8  9  1  0
  9 10  2  0
  9 11  1  0
 11 12  1  0
 12 13  1  0
 13 14  1  0
 14 15  1  0
 15 16  1  0
 16 17  1  0
 17 18  1  0
 18 19  1  0
 19 20  1  0
 20 21  1  0
 21 22  2  0
 22 23  1  0
 23 24  2  0
 24 25  1  0
 25 26  2  0
 26 27  1  0
 27 28  1  0
 28 29  1  0
 29 30  1  0
 30 31  1  0
 31 32  2  0
 16 33  1  0
  7  2  1  0
 33 12  1  0
 31 16  1  0
 26 21  1  0
  1 34  1  0
  1 35  1  0
  1 36  1  0
  5 37  1  0
  5 38  1  0
  5 39  1  0
  6 40  1  0
  8 41  1  0
 11 42  1  0
 11 43  1  0
 13 44  1  0
 13 45  1  0
 14 46  1  0
 14 47  1  0
 17 48  1  0
 17 49  1  0
 18 50  1  0
 18 51  1  0
 19 52  1  0
 19 53  1  0
 20 54  1  0
 20 55  1  0
 22 56  1  0
 23 57  1  0
 24 58  1  0
 25 59  1  0
 28 60  1  0
 28 61  1  0
 29 62  1  0
 29 63  1  0
 30 64  1  0
 33 65  1  0
 33 66  1  0
M  END
$$$$
