
     RDKit          3D

 65 69  0  0  0  0  0  0  0  0999 V2000
   -7.3528    0.6560   -3.7031 C   0  0  0  0  0  0  0  0  0  0  0  0
   -6.8012    0.3575   -2.3443 C   0  0  0  0  0  0  0  0  0  0  0  0
   -7.5486   -0.4212   -1.4296 C   0  0  0  0  0  0  0  0  0  0  0  0
   -6.9980   -0.7026   -0.1660 C   0  0  0  0  0  0  0  0  0  0  0  0
   -7.7382   -1.5299    0.8450 C   0  0  0  0  0  0  0  0  0  0  0  0
   -7.9285   -0.7922    1.9987 F   0  0  0  0  0  0  0  0  0  0  0  0
   -7.0045   -2.6640    1.1412 F   0  0  0  0  0  0  0  0  0  0  0  0
   -5.7638   -0.2022    0.1003 N   0  0  0  0  0  0  0  0  0  0  0  0
   -5.0474   -0.3332    1.1995 N   0  0  0  0  0  0  0  0  0  0  0  0
   -3.8979    0.3391    0.9401 C   0  0  0  0  0  0  0  0  0  0  0  0
   -2.8052    0.4592    1.9228 C   0  0  0  0  0  0  0  0  0  0  0  0
   -3.0373    0.1526    3.1239 O   0  0  0  0  0  0  0  0  0  0  0  0
   -1.4953    0.9319    1.5553 N   0  0  0  0  0  0  0  0  0  0  0  0
   -0.6977    1.6800    2.5271 C   0  0  0  0  0  0  0  0  0  0  0  0
    0.6295    2.1051    1.8963 C   0  0  0  0  0  0  0  0  0  0  0  0
    1.3129    0.9918    1.3534 O   0  0  0  0  0  0  0  0  0  0  0  0
    0.5766    0.2345    0.3796 C   0  0  0  0  0  0  0  0  0  0  0  0
    1.2797    0.3255   -1.0238 C   0  0  0  0  0  0  0  0  0  0  0  0
    2.6742    0.9871   -0.9932 C   0  0  0  0  0  0  0  0  0  0  0  0
    3.5003    0.7280   -2.2715 C   0  0  0  0  0  0  0  0  0  0  0  0
    4.5404   -0.4107   -2.1424 C   0  0  0  0  0  0  0  0  0  0  0  0
    5.4764   -0.2276   -0.9617 C   0  0  0  0  0  0  0  0  0  0  0  0
    6.3250    0.8965   -0.9536 C   0  0  0  0  0  0  0  0  0  0  0  0
    7.1930    1.1291    0.1142 C   0  0  0  0  0  0  0  0  0  0  0  0
    7.2400    0.2375    1.1840 C   0  0  0  0  0  0  0  0  0  0  0  0
    6.4235   -0.8936    1.1859 C   0  0  0  0  0  0  0  0  0  0  0  0
    5.5349   -1.1385    0.1295 C   0  0  0  0  0  0  0  0  0  0  0  0
    4.7818   -2.3203    0.1837 O   0  0  0  0  0  0  0  0  0  0  0  0
    3.3717   -2.3783    0.4073 C   0  0  0  0  0  0  0  0  0  0  0  0
    2.9502   -1.6580    1.6932 C   0  0  0  0  0  0  0  0  0  0  0  0
    1.4960   -1.7029    1.8495 N   0  0  0  0  0  0  0  0  0  0  0  0
    0.5811   -1.2215    0.8501 C   0  0  0  0  0  0  0  0  0  0  0  0
   -0.2405   -2.0409    0.3537 O   0  0  0  0  0  0  0  0  0  0  0  0
   -0.9172    0.6915    0.2307 C   0  0  0  0  0  0  0  0  0  0  0  0
   -3.8747    0.9093   -0.2958 N   0  0  0  0  0  0  0  0  0  0  0  0
   -5.0711    0.5287   -0.7726 C   0  0  0  0  0  0  0  0  0  0  0  0
   -5.5621    0.8214   -2.0011 N   0  0  0  0  0  0  0  0  0  0  0  0
   -6.6946    1.3705   -4.2413 H   0  0  0  0  0  0  0  0  0  0  0  0
   -8.3637    1.1072   -3.6123 H   0  0  0  0  0  0  0  0  0  0  0  0
   -7.4222   -0.2834   -4.2904 H   0  0  0  0  0  0  0  0  0  0  0  0
   -8.5262   -0.7999   -1.7027 H   0  0  0  0  0  0  0  0  0  0  0  0
   -8.7312   -1.8422    0.4563 H   0  0  0  0  0  0  0  0  0  0  0  0
   -0.4947    1.0409    3.4142 H   0  0  0  0  0  0  0  0  0  0  0  0
   -1.2541    2.5863    2.8514 H   0  0  0  0  0  0  0  0  0  0  0  0
    1.2667    2.5589    2.6829 H   0  0  0  0  0  0  0  0  0  0  0  0
    0.4665    2.8785    1.1132 H   0  0  0  0  0  0  0  0  0  0  0  0
    1.3439   -0.6765   -1.5004 H   0  0  0  0  0  0  0  0  0  0  0  0
    0.6652    0.9231   -1.7352 H   0  0  0  0  0  0  0  0  0  0  0  0
    2.5273    2.0855   -0.8832 H   0  0  0  0  0  0  0  0  0  0  0  0
    3.2451    0.6678   -0.1047 H   0  0  0  0  0  0  0  0  0  0  0  0
    2.8284    0.5126   -3.1302 H   0  0  0  0  0  0  0  0  0  0  0  0
    4.0375    1.6641   -2.5338 H   0  0  0  0  0  0  0  0  0  0  0  0
    5.1556   -0.4123   -3.0687 H   0  0  0  0  0  0  0  0  0  0  0  0
    4.0408   -1.3969   -2.1345 H   0  0  0  0  0  0  0  0  0  0  0  0
    6.3153    1.5989   -1.7776 H   0  0  0  0  0  0  0  0  0  0  0  0
    7.8313    2.0025    0.1121 H   0  0  0  0  0  0  0  0  0  0  0  0
    7.9160    0.4212    2.0102 H   0  0  0  0  0  0  0  0  0  0  0  0
    6.4779   -1.5869    2.0159 H   0  0  0  0  0  0  0  0  0  0  0  0
    2.8328   -1.9623   -0.4533 H   0  0  0  0  0  0  0  0  0  0  0  0
    3.0755   -3.4457    0.4837 H   0  0  0  0  0  0  0  0  0  0  0  0
    3.2963   -0.6084    1.7025 H   0  0  0  0  0  0  0  0  0  0  0  0
    3.4295   -2.1653    2.5579 H   0  0  0  0  0  0  0  0  0  0  0  0
    1.1133   -2.3395    2.5864 H   0  0  0  0  0  0  0  0  0  0  0  0
   -0.9820    1.6404   -0.3461 H   0  0  0  0  0  0  0  0  0  0  0  0
   -1.5015   -0.0640   -0.3360 H   0  0  0  0  0  0  0  0  0  0  0  0
  1  2  1  0
  2  3  1  0
  3  4  2  0
  4  5  1  0
  5  6  1  0
  5  7  1  0
  4  8  1  0
  8  9  1  0
  9 10  2  0
 10 11  1  0
 11 12  2  0
 11 13  1  0
 13 14  1  0
 14 15  1  0
 15 16  1  0
 16 17  1  0
 17 18  1  0
 18 19  1  0
 19 20  1  0
 20 21  1  0
 21 22  1  0
 22 23  2  0
 23 24  1  0
 24 25  2  0
 25 26  1  0
 26 27  2  0
 27 28  1  0
 28 29  1  0
 29 30  1  0
 30 31  1  0
 31 32  1  0
 32 33  2  0
 17 34  1  0
 10 35  1  0
 35 36  2  0
 36 37  1  0
 37  2  2  0
 36  8  1  0
 34 13  1  0
 32 17  1  0
 27 22  1  0
  1 38  1  0
  1 39  1  0
  1 40  1  0
  3 41  1  0
  5 42  1  0
 14 43  1  0
 14 44  1  0
 15 45  1  0
 15 46  1  0
 18 47  1  0
 18 48  1  0
 19 49  1  0
 19 50  1  0
 20 51  1  0
 20 52  1  0
 21 53  1  0
 21 54  1  0
 23 55  1  0
 24 56  1  0
 25 57  1  0
 26 58  1  0
 29 59  1  0
 29 60  1  0
 30 61  1  0
 30 62  1  0
 31 63  1  0
 34 64  1  0
 34 65  1  0
M  END
$$$$
