
     RDKit          3D

 69 71  0  0  0  0  0  0  0  0999 V2000
   -3.9432   -0.4386    4.0778 C   0  0  0  0  0  0  0  0  0  0  0  0
   -3.6073   -0.3251    2.6597 N   0  0  0  0  0  0  0  0  0  0  0  0
   -3.1268   -1.5046    1.9300 C   0  0  0  0  0  0  0  0  0  0  0  0
   -1.6215   -1.7198    2.1477 C   0  0  0  0  0  0  0  0  0  0  0  0
   -1.1091   -2.7479    1.3044 O   0  0  0  0  0  0  0  0  0  0  0  0
   -0.9397   -2.5755   -0.0714 C   0  0  0  0  0  0  0  0  0  0  0  0
   -1.9931   -2.8855   -0.9415 C   0  0  0  0  0  0  0  0  0  0  0  0
   -1.8135   -2.8073   -2.3227 C   0  0  0  0  0  0  0  0  0  0  0  0
   -0.5667   -2.4607   -2.8455 C   0  0  0  0  0  0  0  0  0  0  0  0
    0.4932   -2.1610   -1.9875 C   0  0  0  0  0  0  0  0  0  0  0  0
    0.3048   -2.1681   -0.5969 C   0  0  0  0  0  0  0  0  0  0  0  0
    1.4462   -1.8789    0.2906 C   0  0  0  0  0  0  0  0  0  0  0  0
    2.3784   -2.7160    0.3797 O   0  0  0  0  0  0  0  0  0  0  0  0
    1.5046   -0.6773    1.0733 N   0  0  0  0  0  0  0  0  0  0  0  0
    1.6868    0.6686    0.5085 C   0  0  0  0  0  0  0  0  0  0  0  0
    2.6833    0.6519   -0.6364 C   0  0  0  0  0  0  0  0  0  0  0  0
    2.2732    0.3616   -1.7960 O   0  0  0  0  0  0  0  0  0  0  0  0
    4.0848    0.9496   -0.4352 N   0  0  0  0  0  0  0  0  0  0  0  0
    4.6108    1.5933    0.7620 C   0  0  0  0  0  0  0  0  0  0  0  0
    6.0722    1.9263    0.4661 C   0  0  0  0  0  0  0  0  0  0  0  0
    6.2444    1.7635   -1.0418 C   0  0  0  0  0  0  0  0  0  0  0  0
    5.0686    0.8976   -1.5162 C   0  0  0  0  0  0  0  0  0  0  0  0
    5.5221   -0.5502   -1.7833 C   0  0  0  0  0  0  0  0  0  0  0  0
    4.4784   -1.3035   -2.3375 O   0  0  0  0  0  0  0  0  0  0  0  0
    0.3375    1.2838    0.0642 C   0  0  0  0  0  0  0  0  0  0  0  0
   -0.3473    2.0285    1.1825 C   0  0  0  0  0  0  0  0  0  0  0  0
    0.2180    3.0458    1.6743 O   0  0  0  0  0  0  0  0  0  0  0  0
   -1.5666    1.5572    1.7752 N   0  0  0  0  0  0  0  0  0  0  0  0
   -2.8869    1.6461    1.1361 C   0  0  0  0  0  0  0  0  0  0  0  0
   -2.8766    1.1791   -0.3387 C   0  0  0  0  0  0  0  0  0  0  0  0
   -4.2573    1.2525   -1.0086 C   0  0  0  0  0  0  0  0  0  0  0  0
   -4.2210    0.8110   -2.4498 C   0  0  0  0  0  0  0  0  0  0  0  0
   -5.4247    0.4068   -3.1004 N   0  0  0  0  0  0  0  0  0  0  0  0
   -3.1492    0.8523   -3.1107 O   0  0  0  0  0  0  0  0  0  0  0  0
   -3.9112    0.9078    1.9765 C   0  0  0  0  0  0  0  0  0  0  0  0
   -5.0592    1.4147    2.1188 O   0  0  0  0  0  0  0  0  0  0  0  0
   -5.0438   -0.3973    4.2051 H   0  0  0  0  0  0  0  0  0  0  0  0
   -3.5798   -1.3988    4.4989 H   0  0  0  0  0  0  0  0  0  0  0  0
   -3.4659    0.3887    4.6436 H   0  0  0  0  0  0  0  0  0  0  0  0
   -3.3646   -1.3980    0.8565 H   0  0  0  0  0  0  0  0  0  0  0  0
   -3.6834   -2.4096    2.2690 H   0  0  0  0  0  0  0  0  0  0  0  0
   -1.0557   -0.7971    1.9612 H   0  0  0  0  0  0  0  0  0  0  0  0
   -1.4443   -2.0121    3.2037 H   0  0  0  0  0  0  0  0  0  0  0  0
   -2.9413   -3.2315   -0.5516 H   0  0  0  0  0  0  0  0  0  0  0  0
   -2.6369   -3.0554   -2.9867 H   0  0  0  0  0  0  0  0  0  0  0  0
   -0.4117   -2.4483   -3.9166 H   0  0  0  0  0  0  0  0  0  0  0  0
    1.4673   -1.9484   -2.4096 H   0  0  0  0  0  0  0  0  0  0  0  0
    1.6629   -0.7925    2.0999 H   0  0  0  0  0  0  0  0  0  0  0  0
    2.0999    1.3124    1.3095 H   0  0  0  0  0  0  0  0  0  0  0  0
    4.5441    0.8983    1.6356 H   0  0  0  0  0  0  0  0  0  0  0  0
    4.0467    2.5314    0.9634 H   0  0  0  0  0  0  0  0  0  0  0  0
    6.3358    2.9532    0.7927 H   0  0  0  0  0  0  0  0  0  0  0  0
    6.7268    1.1973    0.9943 H   0  0  0  0  0  0  0  0  0  0  0  0
    7.2359    1.3213   -1.2773 H   0  0  0  0  0  0  0  0  0  0  0  0
    6.1871    2.7623   -1.5205 H   0  0  0  0  0  0  0  0  0  0  0  0
    4.6507    1.3440   -2.4462 H   0  0  0  0  0  0  0  0  0  0  0  0
    5.9000   -1.0184   -0.8440 H   0  0  0  0  0  0  0  0  0  0  0  0
    6.3548   -0.5421   -2.5142 H   0  0  0  0  0  0  0  0  0  0  0  0
    4.0171   -1.7560   -1.5806 H   0  0  0  0  0  0  0  0  0  0  0  0
   -0.3047    0.4789   -0.3378 H   0  0  0  0  0  0  0  0  0  0  0  0
    0.4995    2.0155   -0.7617 H   0  0  0  0  0  0  0  0  0  0  0  0
   -1.5716    1.6018    2.8170 H   0  0  0  0  0  0  0  0  0  0  0  0
   -3.1708    2.7215    1.1323 H   0  0  0  0  0  0  0  0  0  0  0  0
   -2.4916    0.1444   -0.4206 H   0  0  0  0  0  0  0  0  0  0  0  0
   -2.1924    1.8508   -0.9060 H   0  0  0  0  0  0  0  0  0  0  0  0
   -4.9649    0.5875   -0.4659 H   0  0  0  0  0  0  0  0  0  0  0  0
   -4.6469    2.2958   -0.9600 H   0  0  0  0  0  0  0  0  0  0  0  0
   -6.3282    0.3720   -2.5774 H   0  0  0  0  0  0  0  0  0  0  0  0
   -5.4164    0.1506   -4.1132 H   0  0  0  0  0  0  0  0  0  0  0  0
  1  2  1  0
  2  3  1  0
  3  4  1  0
  4  5  1  0
  5  6  1  0
  6  7  2  0
  7  8  1  0
  8  9  2  0
  9 10  1  0
 10 11  2  0
 11 12  1  0
 12 13  2  0
 12 14  1  0
 14 15  1  0
 15 16  1  0
 16 17  2  0
 16 18  1  0
 18 19  1  0
 19 20  1  0
 20 21  1  0
 21 22  1  0
 22 23  1  0
 23 24  1  0
 15 25  1  0
 25 26  1  0
 26 27  2  0
 26 28  1  0
 28 29  1  0
 29 30  1  0
 30 31  1  0
 31 32  1  0
 32 33  1  0
 32 34  2  0
 29 35  1  0
 35 36  2  0
 35  2  1  0
 11  6  1  0
 22 18  1  0
  1 37  1  0
  1 38  1  0
  1 39  1  0
  3 40  1  0
  3 41  1  0
  4 42  1  0
  4 43  1  0
  7 44  1  0
  8 45  1  0
  9 46  1  0
 10 47  1  0
 14 48  1  0
 15 49  1  0
 19 50  1  0
 19 51  1  0
 20 52  1  0
 20 53  1  0
 21 54  1  0
 21 55  1  0
 22 56  1  0
 23 57  1  0
 23 58  1  0
 24 59  1  0
 25 60  1  0
 25 61  1  0
 28 62  1  0
 29 63  1  0
 30 64  1  0
 30 65  1  0
 31 66  1  0
 31 67  1  0
 33 68  1  0
 33 69  1  0
M  END
$$$$
