
     RDKit          3D

 63 66  0  0  0  0  0  0  0  0999 V2000
   -1.6729    4.8337    0.9446 C   0  0  0  0  0  0  0  0  0  0  0  0
   -0.7109    3.9507    0.1552 C   0  0  0  0  0  0  0  0  0  0  0  0
   -1.0427    2.5332    0.3290 N   0  0  0  0  0  0  0  0  0  0  0  0
   -2.2106    1.9682   -0.3654 C   0  0  0  0  0  0  0  0  0  0  0  0
   -3.2786    1.5251    0.6480 C   0  0  0  0  0  0  0  0  0  0  0  0
   -4.2561    0.6618    0.0695 O   0  0  0  0  0  0  0  0  0  0  0  0
   -3.9602   -0.5150   -0.6333 C   0  0  0  0  0  0  0  0  0  0  0  0
   -4.2069   -0.5189   -2.0151 C   0  0  0  0  0  0  0  0  0  0  0  0
   -4.0165   -1.6745   -2.7748 C   0  0  0  0  0  0  0  0  0  0  0  0
   -3.5611   -2.8374   -2.1640 C   0  0  0  0  0  0  0  0  0  0  0  0
   -3.3056   -2.8522   -0.7882 C   0  0  0  0  0  0  0  0  0  0  0  0
   -3.4962   -1.7002    0.0001 C   0  0  0  0  0  0  0  0  0  0  0  0
   -3.3863   -1.8383    1.5053 C   0  0  0  0  0  0  0  0  0  0  0  0
   -1.9879   -2.2907    1.9890 C   0  0  0  0  0  0  0  0  0  0  0  0
   -0.9676   -1.1501    2.1639 C   0  0  0  0  0  0  0  0  0  0  0  0
   -0.3243   -0.7141    0.8317 C   0  0  0  0  0  0  0  0  0  0  0  0
    0.5447    0.5708    0.9435 C   0  0  0  0  0  0  0  0  0  0  0  0
    1.2346    0.8344   -0.4479 C   0  0  0  0  0  0  0  0  0  0  0  0
    2.5937    0.2800   -0.4916 N   0  0  0  0  0  0  0  0  0  0  0  0
    3.1820   -0.0476   -1.7661 C   0  0  0  0  0  0  0  0  0  0  0  0
    2.7828    0.5452   -2.8064 O   0  0  0  0  0  0  0  0  0  0  0  0
    4.2484   -1.0646   -1.8819 C   0  0  0  0  0  0  0  0  0  0  0  0
    5.1699   -1.0259   -2.9402 C   0  0  0  0  0  0  0  0  0  0  0  0
    6.1603   -2.0079   -3.0270 C   0  0  0  0  0  0  0  0  0  0  0  0
    6.2226   -3.0173   -2.0653 C   0  0  0  0  0  0  0  0  0  0  0  0
    5.2795   -3.0357   -1.0367 C   0  0  0  0  0  0  0  0  0  0  0  0
    4.3261   -2.0703   -0.9675 N   0  0  0  0  0  0  0  0  0  0  0  0
    3.4656    0.4493    0.6800 C   0  0  0  0  0  0  0  0  0  0  0  0
    2.6798    1.0608    1.8326 C   0  0  0  0  0  0  0  0  0  0  0  0
    1.4828    0.3351    1.9965 O   0  0  0  0  0  0  0  0  0  0  0  0
   -0.3219    1.7695    1.3187 C   0  0  0  0  0  0  0  0  0  0  0  0
   -0.3886    2.1285    2.5265 O   0  0  0  0  0  0  0  0  0  0  0  0
   -2.6883    4.7964    0.4910 H   0  0  0  0  0  0  0  0  0  0  0  0
   -1.3141    5.8863    0.9343 H   0  0  0  0  0  0  0  0  0  0  0  0
   -1.7302    4.4901    2.0000 H   0  0  0  0  0  0  0  0  0  0  0  0
   -0.7613    4.2186   -0.9231 H   0  0  0  0  0  0  0  0  0  0  0  0
    0.3291    4.1471    0.4993 H   0  0  0  0  0  0  0  0  0  0  0  0
   -1.8823    1.1301   -1.0076 H   0  0  0  0  0  0  0  0  0  0  0  0
   -2.6636    2.7208   -1.0467 H   0  0  0  0  0  0  0  0  0  0  0  0
   -3.7969    2.4270    1.0392 H   0  0  0  0  0  0  0  0  0  0  0  0
   -2.8143    1.0302    1.5149 H   0  0  0  0  0  0  0  0  0  0  0  0
   -4.5810    0.3736   -2.4974 H   0  0  0  0  0  0  0  0  0  0  0  0
   -4.2382   -1.6717   -3.8363 H   0  0  0  0  0  0  0  0  0  0  0  0
   -3.4348   -3.7402   -2.7499 H   0  0  0  0  0  0  0  0  0  0  0  0
   -3.0154   -3.7876   -0.3312 H   0  0  0  0  0  0  0  0  0  0  0  0
   -3.6886   -0.9122    2.0331 H   0  0  0  0  0  0  0  0  0  0  0  0
   -4.1219   -2.6143    1.8118 H   0  0  0  0  0  0  0  0  0  0  0  0
   -1.5626   -3.0869    1.3398 H   0  0  0  0  0  0  0  0  0  0  0  0
   -2.1277   -2.7614    2.9864 H   0  0  0  0  0  0  0  0  0  0  0  0
   -1.4413   -0.2989    2.6922 H   0  0  0  0  0  0  0  0  0  0  0  0
   -0.1569   -1.5229    2.8309 H   0  0  0  0  0  0  0  0  0  0  0  0
    0.3236   -1.5491    0.4811 H   0  0  0  0  0  0  0  0  0  0  0  0
   -1.1051   -0.5816    0.0664 H   0  0  0  0  0  0  0  0  0  0  0  0
    0.6210    0.4148   -1.2776 H   0  0  0  0  0  0  0  0  0  0  0  0
    1.3207    1.9278   -0.6397 H   0  0  0  0  0  0  0  0  0  0  0  0
    5.1316   -0.2381   -3.6812 H   0  0  0  0  0  0  0  0  0  0  0  0
    6.8795   -1.9830   -3.8364 H   0  0  0  0  0  0  0  0  0  0  0  0
    6.9897   -3.7792   -2.1174 H   0  0  0  0  0  0  0  0  0  0  0  0
    5.3135   -3.8123   -0.2838 H   0  0  0  0  0  0  0  0  0  0  0  0
    4.3273    1.1040    0.4251 H   0  0  0  0  0  0  0  0  0  0  0  0
    3.8506   -0.5388    1.0097 H   0  0  0  0  0  0  0  0  0  0  0  0
    3.2803    0.9833    2.7651 H   0  0  0  0  0  0  0  0  0  0  0  0
    2.4796    2.1423    1.6545 H   0  0  0  0  0  0  0  0  0  0  0  0
  1  2  1  0
  2  3  1  0
  3  4  1  0
  4  5  1  0
  5  6  1  0
  6  7  1  0
  7  8  2  0
  8  9  1  0
  9 10  2  0
 10 11  1  0
 11 12  2  0
 12 13  1  0
 13 14  1  0
 14 15  1  0
 15 16  1  0
 16 17  1  0
 17 18  1  0
 18 19  1  0
 19 20  1  0
 20 21  2  0
 20 22  1  0
 22 23  2  0
 23 24  1  0
 24 25  2  0
 25 26  1  0
 26 27  2  0
 19 28  1  0
 28 29  1  0
 29 30  1  0
 17 31  1  0
 31 32  2  0
 31  3  1  0
 12  7  1  0
 30 17  1  0
 27 22  1  0
  1 33  1  0
  1 34  1  0
  1 35  1  0
  2 36  1  0
  2 37  1  0
  4 38  1  0
  4 39  1  0
  5 40  1  0
  5 41  1  0
  8 42  1  0
  9 43  1  0
 10 44  1  0
 11 45  1  0
 13 46  1  0
 13 47  1  0
 14 48  1  0
 14 49  1  0
 15 50  1  0
 15 51  1  0
 16 52  1  0
 16 53  1  0
 18 54  1  0
 18 55  1  0
 23 56  1  0
 24 57  1  0
 25 58  1  0
 26 59  1  0
 28 60  1  0
 28 61  1  0
 29 62  1  0
 29 63  1  0
M  END
$$$$
