
     RDKit          3D

 72 76  0  0  0  0  0  0  0  0999 V2000
   -5.2993   -0.8145   -4.3391 O   0  0  0  0  0  0  0  0  0  0  0  0
   -4.7188   -0.2213   -3.3917 C   0  0  0  0  0  0  0  0  0  0  0  0
   -5.5248    0.6657   -2.4914 C   0  0  0  0  0  0  0  0  0  0  0  0
   -5.7195   -0.0049   -1.2482 O   0  0  0  0  0  0  0  0  0  0  0  0
   -5.9509    0.6282   -0.0174 C   0  0  0  0  0  0  0  0  0  0  0  0
   -6.3515    1.9766    0.0456 C   0  0  0  0  0  0  0  0  0  0  0  0
   -6.5531    2.5993    1.2775 C   0  0  0  0  0  0  0  0  0  0  0  0
   -6.3657    1.8860    2.4593 C   0  0  0  0  0  0  0  0  0  0  0  0
   -5.9832    0.5446    2.4143 C   0  0  0  0  0  0  0  0  0  0  0  0
   -5.7631   -0.0994    1.1835 C   0  0  0  0  0  0  0  0  0  0  0  0
   -5.4427   -1.5830    1.1895 C   0  0  0  0  0  0  0  0  0  0  0  0
   -4.4299   -1.9944    0.1562 C   0  0  0  0  0  0  0  0  0  0  0  0
   -3.1595   -1.5674    0.1908 C   0  0  0  0  0  0  0  0  0  0  0  0
   -2.1765   -1.9519   -0.8881 C   0  0  0  0  0  0  0  0  0  0  0  0
   -1.4759   -0.7222   -1.5117 C   0  0  0  0  0  0  0  0  0  0  0  0
   -2.5053    0.2445   -2.1670 C   0  0  0  0  0  0  0  0  0  0  0  0
   -1.7871    1.4360   -2.8301 C   0  0  0  0  0  0  0  0  0  0  0  0
   -0.5513    1.9052   -2.0455 C   0  0  0  0  0  0  0  0  0  0  0  0
   -0.5860    1.4326   -0.5873 C   0  0  0  0  0  0  0  0  0  0  0  0
   -0.6378   -0.0483   -0.4747 N   0  0  0  0  0  0  0  0  0  0  0  0
    0.7213   -0.6368   -0.4065 C   0  0  0  0  0  0  0  0  0  0  0  0
    1.3426   -0.4360    0.9526 C   0  0  0  0  0  0  0  0  0  0  0  0
    0.6034   -0.1193    1.9240 O   0  0  0  0  0  0  0  0  0  0  0  0
    2.7586   -0.6221    1.1651 N   0  0  0  0  0  0  0  0  0  0  0  0
    3.5254   -1.5936    0.3677 C   0  0  0  0  0  0  0  0  0  0  0  0
    4.9218   -1.0486    0.0572 C   0  0  0  0  0  0  0  0  0  0  0  0
    5.5595   -0.4922    1.2565 N   0  0  0  0  0  0  0  0  0  0  0  0
    6.9435   -0.1207    1.2071 C   0  0  0  0  0  0  0  0  0  0  0  0
    7.3057    1.2336    1.2527 C   0  0  0  0  0  0  0  0  0  0  0  0
    8.6540    1.6032    1.2065 C   0  0  0  0  0  0  0  0  0  0  0  0
    9.6460    0.6219    1.1187 C   0  0  0  0  0  0  0  0  0  0  0  0
    9.2909   -0.7301    1.0796 C   0  0  0  0  0  0  0  0  0  0  0  0
    7.9435   -1.1044    1.1273 C   0  0  0  0  0  0  0  0  0  0  0  0
    7.6154   -2.4208    1.1205 F   0  0  0  0  0  0  0  0  0  0  0  0
    4.8381   -0.4235    2.5306 C   0  0  0  0  0  0  0  0  0  0  0  0
    3.3992    0.0560    2.3054 C   0  0  0  0  0  0  0  0  0  0  0  0
   -3.3148   -0.4533   -3.1764 N   0  0  0  0  0  0  0  0  0  0  0  0
   -6.5131    0.8916   -2.9471 H   0  0  0  0  0  0  0  0  0  0  0  0
   -4.9774    1.6224   -2.3470 H   0  0  0  0  0  0  0  0  0  0  0  0
   -6.5233    2.5476   -0.8562 H   0  0  0  0  0  0  0  0  0  0  0  0
   -6.8626    3.6357    1.3147 H   0  0  0  0  0  0  0  0  0  0  0  0
   -6.5292    2.3692    3.4128 H   0  0  0  0  0  0  0  0  0  0  0  0
   -5.8654    0.0042    3.3450 H   0  0  0  0  0  0  0  0  0  0  0  0
   -6.3864   -2.1352    0.9982 H   0  0  0  0  0  0  0  0  0  0  0  0
   -5.0708   -1.9066    2.1861 H   0  0  0  0  0  0  0  0  0  0  0  0
   -4.7572   -2.6514   -0.6460 H   0  0  0  0  0  0  0  0  0  0  0  0
   -2.8235   -0.9382    1.0094 H   0  0  0  0  0  0  0  0  0  0  0  0
   -2.6818   -2.5249   -1.6946 H   0  0  0  0  0  0  0  0  0  0  0  0
   -1.4264   -2.6359   -0.4451 H   0  0  0  0  0  0  0  0  0  0  0  0
   -0.8244   -1.0955   -2.3381 H   0  0  0  0  0  0  0  0  0  0  0  0
   -3.1531    0.6399   -1.3556 H   0  0  0  0  0  0  0  0  0  0  0  0
   -2.5066    2.2794   -2.9214 H   0  0  0  0  0  0  0  0  0  0  0  0
   -1.4685    1.1620   -3.8614 H   0  0  0  0  0  0  0  0  0  0  0  0
   -0.4971    3.0141   -2.0682 H   0  0  0  0  0  0  0  0  0  0  0  0
    0.3694    1.5195   -2.5326 H   0  0  0  0  0  0  0  0  0  0  0  0
   -1.4798    1.8618   -0.0832 H   0  0  0  0  0  0  0  0  0  0  0  0
    0.2952    1.8522   -0.0509 H   0  0  0  0  0  0  0  0  0  0  0  0
    1.3787   -0.1923   -1.1861 H   0  0  0  0  0  0  0  0  0  0  0  0
    0.6831   -1.7321   -0.5853 H   0  0  0  0  0  0  0  0  0  0  0  0
    3.0268   -1.8346   -0.5920 H   0  0  0  0  0  0  0  0  0  0  0  0
    3.6194   -2.5385    0.9445 H   0  0  0  0  0  0  0  0  0  0  0  0
    5.5400   -1.8736   -0.3572 H   0  0  0  0  0  0  0  0  0  0  0  0
    4.8421   -0.2504   -0.7129 H   0  0  0  0  0  0  0  0  0  0  0  0
    6.5433    1.9990    1.3207 H   0  0  0  0  0  0  0  0  0  0  0  0
    8.9306    2.6498    1.2405 H   0  0  0  0  0  0  0  0  0  0  0  0
   10.6898    0.9081    1.0866 H   0  0  0  0  0  0  0  0  0  0  0  0
   10.0613   -1.4884    1.0173 H   0  0  0  0  0  0  0  0  0  0  0  0
    4.8270   -1.4334    2.9950 H   0  0  0  0  0  0  0  0  0  0  0  0
    5.3470    0.2716    3.2340 H   0  0  0  0  0  0  0  0  0  0  0  0
    2.8215   -0.1319    3.2360 H   0  0  0  0  0  0  0  0  0  0  0  0
    3.4104    1.1498    2.1117 H   0  0  0  0  0  0  0  0  0  0  0  0
   -2.8110   -1.0329   -3.8852 H   0  0  0  0  0  0  0  0  0  0  0  0
  1  2  2  0
  2  3  1  0
  3  4  1  0
  4  5  1  0
  5  6  2  0
  6  7  1  0
  7  8  2  0
  8  9  1  0
  9 10  2  0
 10 11  1  0
 11 12  1  0
 12 13  2  0
 13 14  1  0
 14 15  1  0
 15 16  1  0
 16 17  1  0
 17 18  1  0
 18 19  1  0
 19 20  1  0
 20 21  1  0
 21 22  1  0
 22 23  2  0
 22 24  1  0
 24 25  1  0
 25 26  1  0
 26 27  1  0
 27 28  1  0
 28 29  2  0
 29 30  1  0
 30 31  2  0
 31 32  1  0
 32 33  2  0
 33 34  1  0
 27 35  1  0
 35 36  1  0
 16 37  1  0
 37  2  1  0
 10  5  1  0
 20 15  1  0
 36 24  1  0
 33 28  1  0
  3 38  1  0
  3 39  1  0
  6 40  1  0
  7 41  1  0
  8 42  1  0
  9 43  1  0
 11 44  1  0
 11 45  1  0
 12 46  1  0
 13 47  1  0
 14 48  1  0
 14 49  1  0
 15 50  1  0
 16 51  1  0
 17 52  1  0
 17 53  1  0
 18 54  1  0
 18 55  1  0
 19 56  1  0
 19 57  1  0
 21 58  1  0
 21 59  1  0
 25 60  1  0
 25 61  1  0
 26 62  1  0
 26 63  1  0
 29 64  1  0
 30 65  1  0
 31 66  1  0
 32 67  1  0
 35 68  1  0
 35 69  1  0
 36 70  1  0
 36 71  1  0
 37 72  1  0
M  END
$$$$
