
     RDKit          3D

 66 70  0  0  0  0  0  0  0  0999 V2000
    3.3420   -0.5367   -1.3338 O   0  0  0  0  0  0  0  0  0  0  0  0
    2.7831    0.1470   -0.4325 C   0  0  0  0  0  0  0  0  0  0  0  0
    3.5477    1.2688    0.2199 C   0  0  0  0  0  0  0  0  0  0  0  0
    4.9863    1.0185    0.1801 N   0  0  0  0  0  0  0  0  0  0  0  0
    5.8355    1.2899   -0.9411 C   0  0  0  0  0  0  0  0  0  0  0  0
    5.4935    2.0467   -1.8898 O   0  0  0  0  0  0  0  0  0  0  0  0
    7.1194    0.5804   -0.8867 C   0  0  0  0  0  0  0  0  0  0  0  0
    8.1568    0.6341   -1.8209 C   0  0  0  0  0  0  0  0  0  0  0  0
    9.3071   -0.1384   -1.5952 C   0  0  0  0  0  0  0  0  0  0  0  0
    9.4052   -0.9519   -0.4493 C   0  0  0  0  0  0  0  0  0  0  0  0
    8.3549   -0.9971    0.4807 C   0  0  0  0  0  0  0  0  0  0  0  0
    7.2224   -0.2210    0.2402 C   0  0  0  0  0  0  0  0  0  0  0  0
    5.7927   -0.0992    1.2231 S   0  0  0  0  0  6  0  0  0  0  0  0
    6.0671    0.5064    2.5692 O   0  0  0  0  0  0  0  0  0  0  0  0
    5.0528   -1.4016    1.3247 O   0  0  0  0  0  0  0  0  0  0  0  0
    1.4171   -0.1412   -0.0723 N   0  0  0  0  0  0  0  0  0  0  0  0
    0.8714   -1.4717   -0.3400 C   0  0  0  0  0  0  0  0  0  0  0  0
   -0.4761   -1.6413    0.3623 C   0  0  0  0  0  0  0  0  0  0  0  0
   -1.3784   -0.6098    0.0090 O   0  0  0  0  0  0  0  0  0  0  0  0
   -0.8917    0.7225    0.2025 C   0  0  0  0  0  0  0  0  0  0  0  0
   -1.8147    1.4791    1.2038 C   0  0  0  0  0  0  0  0  0  0  0  0
   -2.2704    0.6743    2.4429 C   0  0  0  0  0  0  0  0  0  0  0  0
   -3.4813   -0.2460    2.1909 C   0  0  0  0  0  0  0  0  0  0  0  0
   -4.7982    0.5198    1.9574 C   0  0  0  0  0  0  0  0  0  0  0  0
   -5.7213   -0.2650    1.0593 C   0  0  0  0  0  0  0  0  0  0  0  0
   -6.7383   -1.0473    1.6325 C   0  0  0  0  0  0  0  0  0  0  0  0
   -7.6008   -1.7905    0.8250 C   0  0  0  0  0  0  0  0  0  0  0  0
   -7.4514   -1.7699   -0.5597 C   0  0  0  0  0  0  0  0  0  0  0  0
   -6.4342   -1.0120   -1.1450 C   0  0  0  0  0  0  0  0  0  0  0  0
   -5.5481   -0.2587   -0.3455 C   0  0  0  0  0  0  0  0  0  0  0  0
   -4.4995    0.4923   -0.9159 O   0  0  0  0  0  0  0  0  0  0  0  0
   -4.2872    0.6370   -2.3200 C   0  0  0  0  0  0  0  0  0  0  0  0
   -3.0750    1.5305   -2.5975 C   0  0  0  0  0  0  0  0  0  0  0  0
   -1.8437    0.8737   -2.1617 N   0  0  0  0  0  0  0  0  0  0  0  0
   -1.0278    1.4366   -1.1299 C   0  0  0  0  0  0  0  0  0  0  0  0
   -0.5440    2.5915   -1.2897 O   0  0  0  0  0  0  0  0  0  0  0  0
    0.5936    0.8075    0.6830 C   0  0  0  0  0  0  0  0  0  0  0  0
    3.3149    2.2203   -0.3022 H   0  0  0  0  0  0  0  0  0  0  0  0
    3.2386    1.3702    1.2812 H   0  0  0  0  0  0  0  0  0  0  0  0
    8.0787    1.2564   -2.7045 H   0  0  0  0  0  0  0  0  0  0  0  0
   10.1218   -0.1110   -2.3087 H   0  0  0  0  0  0  0  0  0  0  0  0
   10.2929   -1.5485   -0.2868 H   0  0  0  0  0  0  0  0  0  0  0  0
    8.4226   -1.6215    1.3625 H   0  0  0  0  0  0  0  0  0  0  0  0
    1.5711   -2.2463    0.0390 H   0  0  0  0  0  0  0  0  0  0  0  0
    0.7432   -1.6068   -1.4347 H   0  0  0  0  0  0  0  0  0  0  0  0
   -0.3445   -1.6803    1.4659 H   0  0  0  0  0  0  0  0  0  0  0  0
   -0.9174   -2.6134    0.0514 H   0  0  0  0  0  0  0  0  0  0  0  0
   -1.2811    2.3873    1.5637 H   0  0  0  0  0  0  0  0  0  0  0  0
   -2.7029    1.8726    0.6704 H   0  0  0  0  0  0  0  0  0  0  0  0
   -1.4248    0.0676    2.8289 H   0  0  0  0  0  0  0  0  0  0  0  0
   -2.5411    1.3881    3.2517 H   0  0  0  0  0  0  0  0  0  0  0  0
   -3.6139   -0.8967    3.0835 H   0  0  0  0  0  0  0  0  0  0  0  0
   -3.2772   -0.9356    1.3501 H   0  0  0  0  0  0  0  0  0  0  0  0
   -4.6403    1.5199    1.5088 H   0  0  0  0  0  0  0  0  0  0  0  0
   -5.2805    0.7157    2.9399 H   0  0  0  0  0  0  0  0  0  0  0  0
   -6.8668   -1.0789    2.7070 H   0  0  0  0  0  0  0  0  0  0  0  0
   -8.3879   -2.3839    1.2735 H   0  0  0  0  0  0  0  0  0  0  0  0
   -8.1243   -2.3475   -1.1824 H   0  0  0  0  0  0  0  0  0  0  0  0
   -6.3415   -1.0258   -2.2216 H   0  0  0  0  0  0  0  0  0  0  0  0
   -5.1859    1.0916   -2.7899 H   0  0  0  0  0  0  0  0  0  0  0  0
   -4.1136   -0.3634   -2.7757 H   0  0  0  0  0  0  0  0  0  0  0  0
   -3.2064    2.5094   -2.0859 H   0  0  0  0  0  0  0  0  0  0  0  0
   -3.0097    1.7204   -3.6896 H   0  0  0  0  0  0  0  0  0  0  0  0
   -1.6311   -0.0899   -2.5088 H   0  0  0  0  0  0  0  0  0  0  0  0
    0.6669    0.5549    1.7628 H   0  0  0  0  0  0  0  0  0  0  0  0
    0.9737    1.8463    0.5703 H   0  0  0  0  0  0  0  0  0  0  0  0
  1  2  2  0
  2  3  1  0
  3  4  1  0
  4  5  1  0
  5  6  2  0
  5  7  1  0
  7  8  2  0
  8  9  1  0
  9 10  2  0
 10 11  1  0
 11 12  2  0
 12 13  1  0
 13 14  2  0
 13 15  2  0
  2 16  1  0
 16 17  1  0
 17 18  1  0
 18 19  1  0
 19 20  1  0
 20 21  1  0
 21 22  1  0
 22 23  1  0
 23 24  1  0
 24 25  1  0
 25 26  2  0
 26 27  1  0
 27 28  2  0
 28 29  1  0
 29 30  2  0
 30 31  1  0
 31 32  1  0
 32 33  1  0
 33 34  1  0
 34 35  1  0
 35 36  2  0
 20 37  1  0
 13  4  1  0
 37 16  1  0
 12  7  1  0
 35 20  1  0
 30 25  1  0
  3 38  1  0
  3 39  1  0
  8 40  1  0
  9 41  1  0
 10 42  1  0
 11 43  1  0
 17 44  1  0
 17 45  1  0
 18 46  1  0
 18 47  1  0
 21 48  1  0
 21 49  1  0
 22 50  1  0
 22 51  1  0
 23 52  1  0
 23 53  1  0
 24 54  1  0
 24 55  1  0
 26 56  1  0
 27 57  1  0
 28 58  1  0
 29 59  1  0
 32 60  1  0
 32 61  1  0
 33 62  1  0
 33 63  1  0
 34 64  1  0
 37 65  1  0
 37 66  1  0
M  END
$$$$
