
     RDKit          3D

 93 96  0  0  0  0  0  0  0  0999 V2000
    7.2491    1.2823    3.0332 C   0  0  0  0  0  0  0  0  0  0  0  0
    7.7383    0.3912    1.9390 C   0  0  0  0  0  0  0  0  0  0  0  0
    9.0319    0.2968    1.5710 N   0  0  0  0  0  0  0  0  0  0  0  0
    9.1005   -0.5607    0.5643 N   0  0  0  0  0  0  0  0  0  0  0  0
   10.3414   -0.8916   -0.1271 C   0  0  0  0  0  0  0  0  0  0  0  0
    7.8631   -1.0056    0.2561 C   0  0  0  0  0  0  0  0  0  0  0  0
    7.5618   -1.9931   -0.8319 C   0  0  0  0  0  0  0  0  0  0  0  0
    6.9612   -0.4295    1.1378 C   0  0  0  0  0  0  0  0  0  0  0  0
    5.4666   -0.5842    1.1652 C   0  0  0  0  0  0  0  0  0  0  0  0
    4.8065    0.3456    0.1416 C   0  0  0  0  0  0  0  0  0  0  0  0
    3.3619    0.1246    0.0954 N   0  0  0  0  0  0  0  0  0  0  0  0
    2.5552    0.6752   -0.9537 C   0  0  0  0  0  0  0  0  0  0  0  0
    3.0600    1.4931   -1.7733 O   0  0  0  0  0  0  0  0  0  0  0  0
    1.1261    0.2212   -1.1161 C   0  0  0  0  0  0  0  0  0  0  0  0
    1.1168   -1.2002   -1.7192 C   0  0  0  0  0  0  0  0  0  0  0  0
   -0.2720   -1.8549   -1.6865 C   0  0  0  0  0  0  0  0  0  0  0  0
   -0.6687   -2.2660   -0.2972 C   0  0  0  0  0  0  0  0  0  0  0  0
    0.0424   -3.0814    0.3472 O   0  0  0  0  0  0  0  0  0  0  0  0
   -1.8482   -1.7314    0.3059 N   0  0  0  0  0  0  0  0  0  0  0  0
   -3.1367   -2.4389    0.2792 C   0  0  0  0  0  0  0  0  0  0  0  0
   -3.4751   -3.0511   -1.1099 C   0  0  0  0  0  0  0  0  0  0  0  0
   -2.9553   -4.4875   -1.2893 C   0  0  0  0  0  0  0  0  0  0  0  0
   -3.7212   -5.4669   -0.4472 C   0  0  0  0  0  0  0  0  0  0  0  0
   -3.1407   -6.0222    0.7338 N   0  0  0  0  0  0  0  0  0  0  0  0
   -4.8879   -5.7979   -0.7834 O   0  0  0  0  0  0  0  0  0  0  0  0
   -4.2492   -1.5151    0.7323 C   0  0  0  0  0  0  0  0  0  0  0  0
   -5.2244   -2.0213    1.3507 O   0  0  0  0  0  0  0  0  0  0  0  0
   -4.2251   -0.0886    0.5017 N   0  0  0  0  0  0  0  0  0  0  0  0
   -4.7605    0.7684    1.5690 C   0  0  0  0  0  0  0  0  0  0  0  0
   -3.7866    0.4646   -0.8012 C   0  0  0  0  0  0  0  0  0  0  0  0
   -4.9710    0.6786   -1.7696 C   0  0  0  0  0  0  0  0  0  0  0  0
   -6.0156    1.6498   -1.2789 C   0  0  0  0  0  0  0  0  0  0  0  0
   -5.8797    3.0271   -1.5231 C   0  0  0  0  0  0  0  0  0  0  0  0
   -6.8509    3.9242   -1.0631 C   0  0  0  0  0  0  0  0  0  0  0  0
   -7.9627    3.4538   -0.3610 C   0  0  0  0  0  0  0  0  0  0  0  0
   -8.1110    2.0855   -0.1231 C   0  0  0  0  0  0  0  0  0  0  0  0
   -7.1464    1.1847   -0.5840 C   0  0  0  0  0  0  0  0  0  0  0  0
   -2.8782    1.6972   -0.6504 C   0  0  0  0  0  0  0  0  0  0  0  0
   -1.8240    1.3943    0.2600 O   0  0  0  0  0  0  0  0  0  0  0  0
   -0.8955    2.3474    0.6857 C   0  0  0  0  0  0  0  0  0  0  0  0
   -0.8848    2.7106    2.0371 C   0  0  0  0  0  0  0  0  0  0  0  0
    0.0030    3.6831    2.5014 C   0  0  0  0  0  0  0  0  0  0  0  0
    0.8915    4.2970    1.6172 C   0  0  0  0  0  0  0  0  0  0  0  0
    0.9038    3.9293    0.2698 C   0  0  0  0  0  0  0  0  0  0  0  0
    0.0301    2.9378   -0.2024 C   0  0  0  0  0  0  0  0  0  0  0  0
    0.1228    2.5186   -1.6118 C   0  0  0  0  0  0  0  0  0  0  0  0
   -0.0259    3.3810   -2.5177 O   0  0  0  0  0  0  0  0  0  0  0  0
    0.3835    1.1549   -1.9771 N   0  0  0  0  0  0  0  0  0  0  0  0
    6.7076    0.6814    3.7922 H   0  0  0  0  0  0  0  0  0  0  0  0
    8.1057    1.7924    3.5236 H   0  0  0  0  0  0  0  0  0  0  0  0
    6.5651    2.0483    2.6124 H   0  0  0  0  0  0  0  0  0  0  0  0
   11.2137   -0.5408    0.4622 H   0  0  0  0  0  0  0  0  0  0  0  0
   10.4212   -1.9915   -0.2594 H   0  0  0  0  0  0  0  0  0  0  0  0
   10.3546   -0.3988   -1.1207 H   0  0  0  0  0  0  0  0  0  0  0  0
    8.0876   -1.6948   -1.7622 H   0  0  0  0  0  0  0  0  0  0  0  0
    7.9102   -3.0006   -0.5217 H   0  0  0  0  0  0  0  0  0  0  0  0
    6.4753   -2.0370   -1.0492 H   0  0  0  0  0  0  0  0  0  0  0  0
    5.0793   -0.3527    2.1819 H   0  0  0  0  0  0  0  0  0  0  0  0
    5.2004   -1.6410    0.9399 H   0  0  0  0  0  0  0  0  0  0  0  0
    5.0051    1.4064    0.4096 H   0  0  0  0  0  0  0  0  0  0  0  0
    5.2377    0.1456   -0.8642 H   0  0  0  0  0  0  0  0  0  0  0  0
    2.9128   -0.5241    0.7818 H   0  0  0  0  0  0  0  0  0  0  0  0
    0.6548    0.1855   -0.1125 H   0  0  0  0  0  0  0  0  0  0  0  0
    1.4654   -1.1505   -2.7730 H   0  0  0  0  0  0  0  0  0  0  0  0
    1.8356   -1.8555   -1.1794 H   0  0  0  0  0  0  0  0  0  0  0  0
   -1.0231   -1.1596   -2.1165 H   0  0  0  0  0  0  0  0  0  0  0  0
   -0.2553   -2.7648   -2.3234 H   0  0  0  0  0  0  0  0  0  0  0  0
   -1.6749   -1.1217    1.1370 H   0  0  0  0  0  0  0  0  0  0  0  0
   -3.0797   -3.2538    1.0332 H   0  0  0  0  0  0  0  0  0  0  0  0
   -3.0578   -2.4265   -1.9243 H   0  0  0  0  0  0  0  0  0  0  0  0
   -4.5769   -3.0639   -1.2695 H   0  0  0  0  0  0  0  0  0  0  0  0
   -1.8723   -4.5491   -1.0595 H   0  0  0  0  0  0  0  0  0  0  0  0
   -3.0743   -4.7770   -2.3565 H   0  0  0  0  0  0  0  0  0  0  0  0
   -3.6734   -6.7103    1.3116 H   0  0  0  0  0  0  0  0  0  0  0  0
   -2.1679   -5.7673    1.0230 H   0  0  0  0  0  0  0  0  0  0  0  0
   -4.7975    1.8347    1.2752 H   0  0  0  0  0  0  0  0  0  0  0  0
   -4.1243    0.6772    2.4734 H   0  0  0  0  0  0  0  0  0  0  0  0
   -5.7946    0.4609    1.8276 H   0  0  0  0  0  0  0  0  0  0  0  0
   -3.1435   -0.2751   -1.3101 H   0  0  0  0  0  0  0  0  0  0  0  0
   -4.5795    1.0224   -2.7516 H   0  0  0  0  0  0  0  0  0  0  0  0
   -5.4485   -0.3074   -1.9625 H   0  0  0  0  0  0  0  0  0  0  0  0
   -5.0250    3.4061   -2.0706 H   0  0  0  0  0  0  0  0  0  0  0  0
   -6.7408    4.9844   -1.2517 H   0  0  0  0  0  0  0  0  0  0  0  0
   -8.7111    4.1477   -0.0032 H   0  0  0  0  0  0  0  0  0  0  0  0
   -8.9742    1.7214    0.4181 H   0  0  0  0  0  0  0  0  0  0  0  0
   -7.2735    0.1266   -0.3897 H   0  0  0  0  0  0  0  0  0  0  0  0
   -3.4389    2.5812   -0.2865 H   0  0  0  0  0  0  0  0  0  0  0  0
   -2.4599    1.9577   -1.6453 H   0  0  0  0  0  0  0  0  0  0  0  0
   -1.5796    2.2476    2.7260 H   0  0  0  0  0  0  0  0  0  0  0  0
   -0.0030    3.9648    3.5458 H   0  0  0  0  0  0  0  0  0  0  0  0
    1.5763    5.0539    1.9765 H   0  0  0  0  0  0  0  0  0  0  0  0
    1.6149    4.3976   -0.4007 H   0  0  0  0  0  0  0  0  0  0  0  0
    0.2059    0.8901   -2.9728 H   0  0  0  0  0  0  0  0  0  0  0  0
  1  2  1  0
  2  3  2  0
  3  4  1  0
  4  5  1  0
  4  6  1  0
  6  7  1  0
  6  8  2  0
  8  9  1  0
  9 10  1  0
 10 11  1  0
 11 12  1  0
 12 13  2  0
 12 14  1  0
 14 15  1  0
 15 16  1  0
 16 17  1  0
 17 18  2  0
 17 19  1  0
 19 20  1  0
 20 21  1  0
 21 22  1  0
 22 23  1  0
 23 24  1  0
 23 25  2  0
 20 26  1  0
 26 27  2  0
 26 28  1  0
 28 29  1  0
 28 30  1  0
 30 31  1  0
 31 32  1  0
 32 33  2  0
 33 34  1  0
 34 35  2  0
 35 36  1  0
 36 37  2  0
 30 38  1  0
 38 39  1  0
 39 40  1  0
 40 41  2  0
 41 42  1  0
 42 43  2  0
 43 44  1  0
 44 45  2  0
 45 46  1  0
 46 47  2  0
 46 48  1  0
  8  2  1  0
 48 14  1  0
 37 32  1  0
 45 40  1  0
  1 49  1  0
  1 50  1  0
  1 51  1  0
  5 52  1  0
  5 53  1  0
  5 54  1  0
  7 55  1  0
  7 56  1  0
  7 57  1  0
  9 58  1  0
  9 59  1  0
 10 60  1  0
 10 61  1  0
 11 62  1  0
 14 63  1  0
 15 64  1  0
 15 65  1  0
 16 66  1  0
 16 67  1  0
 19 68  1  0
 20 69  1  0
 21 70  1  0
 21 71  1  0
 22 72  1  0
 22 73  1  0
 24 74  1  0
 24 75  1  0
 29 76  1  0
 29 77  1  0
 29 78  1  0
 30 79  1  0
 31 80  1  0
 31 81  1  0
 33 82  1  0
 34 83  1  0
 35 84  1  0
 36 85  1  0
 37 86  1  0
 38 87  1  0
 38 88  1  0
 41 89  1  0
 42 90  1  0
 43 91  1  0
 44 92  1  0
 48 93  1  0
M  END
$$$$
