
     RDKit          3D

 73 75  0  0  0  0  0  0  0  0999 V2000
   -4.6757    0.3371   -1.2033 C   0  0  0  0  0  0  0  0  0  0  0  0
   -3.7510   -0.6976   -0.5326 C   0  0  0  0  0  0  0  0  0  0  0  0
   -4.0089   -2.0344   -1.2088 C   0  0  0  0  0  0  0  0  0  0  0  0
   -5.0713   -2.6525   -0.9145 O   0  0  0  0  0  0  0  0  0  0  0  0
   -3.1128   -2.6002   -2.1954 N   0  0  0  0  0  0  0  0  0  0  0  0
   -3.2515   -4.0186   -2.5335 C   0  0  0  0  0  0  0  0  0  0  0  0
   -2.0188   -1.8297   -2.8030 C   0  0  0  0  0  0  0  0  0  0  0  0
   -0.7248   -2.0354   -2.0105 C   0  0  0  0  0  0  0  0  0  0  0  0
    0.4099   -1.1514   -2.5481 C   0  0  0  0  0  0  0  0  0  0  0  0
    1.6775   -1.2660   -1.6734 C   0  0  0  0  0  0  0  0  0  0  0  0
    2.0103    0.0185   -1.0271 N   0  0  0  0  0  0  0  0  0  0  0  0
    3.2552    0.7083   -1.2874 C   0  0  0  0  0  0  0  0  0  0  0  0
    3.3571    1.9339   -1.0077 O   0  0  0  0  0  0  0  0  0  0  0  0
    4.4364    0.0122   -1.9104 C   0  0  0  0  0  0  0  0  0  0  0  0
    5.6548    0.7131   -1.6553 O   0  0  0  0  0  0  0  0  0  0  0  0
    6.3355    0.7264   -0.4268 C   0  0  0  0  0  0  0  0  0  0  0  0
    7.5776    1.3736   -0.3653 C   0  0  0  0  0  0  0  0  0  0  0  0
    8.3024    1.4072    0.8290 C   0  0  0  0  0  0  0  0  0  0  0  0
    7.7887    0.7970    1.9756 C   0  0  0  0  0  0  0  0  0  0  0  0
    8.4924    0.8275    3.1341 F   0  0  0  0  0  0  0  0  0  0  0  0
    6.5469    0.1559    1.9307 C   0  0  0  0  0  0  0  0  0  0  0  0
    5.8217    0.1144    0.7357 C   0  0  0  0  0  0  0  0  0  0  0  0
    1.0797    0.5740   -0.0304 C   0  0  0  0  0  0  0  0  0  0  0  0
    1.5111    0.1716    1.3850 C   0  0  0  0  0  0  0  0  0  0  0  0
    0.7220    0.8998    2.4847 C   0  0  0  0  0  0  0  0  0  0  0  0
   -0.7107    0.3792    2.6758 C   0  0  0  0  0  0  0  0  0  0  0  0
   -1.5571    0.6587    1.5583 O   0  0  0  0  0  0  0  0  0  0  0  0
   -2.3785    1.7901    1.4923 C   0  0  0  0  0  0  0  0  0  0  0  0
   -1.8146    3.0627    1.3176 C   0  0  0  0  0  0  0  0  0  0  0  0
   -2.6222    4.2012    1.3186 C   0  0  0  0  0  0  0  0  0  0  0  0
   -4.0016    4.0796    1.4904 C   0  0  0  0  0  0  0  0  0  0  0  0
   -5.0121    5.5122    1.4952 Cl  0  0  0  0  0  0  0  0  0  0  0  0
   -4.5792    2.8154    1.6353 C   0  0  0  0  0  0  0  0  0  0  0  0
   -3.7794    1.6599    1.6106 C   0  0  0  0  0  0  0  0  0  0  0  0
   -4.4273    0.3324    1.7130 C   0  0  0  0  0  0  0  0  0  0  0  0
   -5.3897    0.1777    2.5124 O   0  0  0  0  0  0  0  0  0  0  0  0
   -3.9771   -0.7920    0.9329 N   0  0  0  0  0  0  0  0  0  0  0  0
   -3.5552   -1.9787    1.6889 C   0  0  0  0  0  0  0  0  0  0  0  0
   -4.5953    0.2699   -2.3106 H   0  0  0  0  0  0  0  0  0  0  0  0
   -5.7341    0.1571   -0.9125 H   0  0  0  0  0  0  0  0  0  0  0  0
   -4.3901    1.3729   -0.9277 H   0  0  0  0  0  0  0  0  0  0  0  0
   -2.7057   -0.3698   -0.6888 H   0  0  0  0  0  0  0  0  0  0  0  0
   -2.4621   -4.3474   -3.2442 H   0  0  0  0  0  0  0  0  0  0  0  0
   -3.1598   -4.6308   -1.6137 H   0  0  0  0  0  0  0  0  0  0  0  0
   -4.2418   -4.1983   -3.0001 H   0  0  0  0  0  0  0  0  0  0  0  0
   -1.8631   -2.1604   -3.8534 H   0  0  0  0  0  0  0  0  0  0  0  0
   -2.2826   -0.7524   -2.8593 H   0  0  0  0  0  0  0  0  0  0  0  0
   -0.4201   -3.1020   -2.0838 H   0  0  0  0  0  0  0  0  0  0  0  0
   -0.9055   -1.8106   -0.9401 H   0  0  0  0  0  0  0  0  0  0  0  0
    0.0685   -0.0940   -2.6085 H   0  0  0  0  0  0  0  0  0  0  0  0
    0.6488   -1.4723   -3.5875 H   0  0  0  0  0  0  0  0  0  0  0  0
    1.5655   -2.0452   -0.8844 H   0  0  0  0  0  0  0  0  0  0  0  0
    2.4990   -1.6199   -2.3286 H   0  0  0  0  0  0  0  0  0  0  0  0
    4.5320   -1.0275   -1.5372 H   0  0  0  0  0  0  0  0  0  0  0  0
    4.2777   -0.0283   -3.0068 H   0  0  0  0  0  0  0  0  0  0  0  0
    7.9867    1.8453   -1.2489 H   0  0  0  0  0  0  0  0  0  0  0  0
    9.2648    1.9016    0.8635 H   0  0  0  0  0  0  0  0  0  0  0  0
    6.1472   -0.3109    2.8232 H   0  0  0  0  0  0  0  0  0  0  0  0
    4.8648   -0.3899    0.7295 H   0  0  0  0  0  0  0  0  0  0  0  0
    0.0568    0.1984   -0.2173 H   0  0  0  0  0  0  0  0  0  0  0  0
    1.0311    1.6807   -0.1259 H   0  0  0  0  0  0  0  0  0  0  0  0
    1.4135   -0.9293    1.5096 H   0  0  0  0  0  0  0  0  0  0  0  0
    2.5842    0.4273    1.5144 H   0  0  0  0  0  0  0  0  0  0  0  0
    1.2609    0.7384    3.4439 H   0  0  0  0  0  0  0  0  0  0  0  0
    0.7291    1.9925    2.3100 H   0  0  0  0  0  0  0  0  0  0  0  0
   -0.6748   -0.7200    2.8259 H   0  0  0  0  0  0  0  0  0  0  0  0
   -1.1450    0.8230    3.5979 H   0  0  0  0  0  0  0  0  0  0  0  0
   -0.7530    3.1769    1.1648 H   0  0  0  0  0  0  0  0  0  0  0  0
   -2.1753    5.1786    1.1857 H   0  0  0  0  0  0  0  0  0  0  0  0
   -5.6540    2.7310    1.7401 H   0  0  0  0  0  0  0  0  0  0  0  0
   -2.9513   -1.6775    2.5700 H   0  0  0  0  0  0  0  0  0  0  0  0
   -4.4480   -2.5345    2.0436 H   0  0  0  0  0  0  0  0  0  0  0  0
   -2.9285   -2.6558    1.0746 H   0  0  0  0  0  0  0  0  0  0  0  0
  1  2  1  0
  2  3  1  0
  3  4  2  0
  3  5  1  0
  5  6  1  0
  5  7  1  0
  7  8  1  0
  8  9  1  0
  9 10  1  0
 10 11  1  0
 11 12  1  0
 12 13  2  0
 12 14  1  0
 14 15  1  0
 15 16  1  0
 16 17  2  0
 17 18  1  0
 18 19  2  0
 19 20  1  0
 19 21  1  0
 21 22  2  0
 11 23  1  0
 23 24  1  0
 24 25  1  0
 25 26  1  0
 26 27  1  0
 27 28  1  0
 28 29  2  0
 29 30  1  0
 30 31  2  0
 31 32  1  0
 31 33  1  0
 33 34  2  0
 34 35  1  0
 35 36  2  0
 35 37  1  0
 37 38  1  0
 37  2  1  0
 22 16  1  0
 34 28  1  0
  1 39  1  0
  1 40  1  0
  1 41  1  0
  2 42  1  0
  6 43  1  0
  6 44  1  0
  6 45  1  0
  7 46  1  0
  7 47  1  0
  8 48  1  0
  8 49  1  0
  9 50  1  0
  9 51  1  0
 10 52  1  0
 10 53  1  0
 14 54  1  0
 14 55  1  0
 17 56  1  0
 18 57  1  0
 21 58  1  0
 22 59  1  0
 23 60  1  0
 23 61  1  0
 24 62  1  0
 24 63  1  0
 25 64  1  0
 25 65  1  0
 26 66  1  0
 26 67  1  0
 29 68  1  0
 30 69  1  0
 33 70  1  0
 38 71  1  0
 38 72  1  0
 38 73  1  0
M  END
$$$$
