
     RDKit          3D

100103  0  0  0  0  0  0  0  0999 V2000
   -9.4853   -1.7850    0.4833 C   0  0  0  0  0  0  0  0  0  0  0  0
   -9.2350   -0.3987    1.0777 C   0  0  0  0  0  0  0  0  0  0  0  0
   -7.8125   -0.2384    1.6352 C   0  0  0  0  0  0  0  0  0  0  0  0
   -6.7486   -0.1973    0.5279 C   0  0  0  0  0  0  0  0  0  0  0  0
   -5.4308    0.1726    1.0687 N   0  0  0  0  0  0  0  0  0  0  0  0
   -4.7235   -0.7067    2.0152 C   0  0  0  0  0  0  0  0  0  0  0  0
   -4.5277   -2.1174    1.4644 C   0  0  0  0  0  0  0  0  0  0  0  0
   -3.8910   -2.0671    0.1906 O   0  0  0  0  0  0  0  0  0  0  0  0
   -3.5344   -3.2282   -0.5004 C   0  0  0  0  0  0  0  0  0  0  0  0
   -4.2327   -3.5555   -1.6696 C   0  0  0  0  0  0  0  0  0  0  0  0
   -3.9460   -4.7385   -2.3556 C   0  0  0  0  0  0  0  0  0  0  0  0
   -2.9532   -5.5990   -1.8816 C   0  0  0  0  0  0  0  0  0  0  0  0
   -2.2336   -5.2712   -0.7289 C   0  0  0  0  0  0  0  0  0  0  0  0
   -2.4986   -4.0749   -0.0409 C   0  0  0  0  0  0  0  0  0  0  0  0
   -1.6702   -3.7128    1.1278 C   0  0  0  0  0  0  0  0  0  0  0  0
   -1.3993   -4.5910    1.9903 O   0  0  0  0  0  0  0  0  0  0  0  0
   -1.1811   -2.3761    1.3125 N   0  0  0  0  0  0  0  0  0  0  0  0
   -0.6300   -1.5841    0.2028 C   0  0  0  0  0  0  0  0  0  0  0  0
    0.8593   -1.8118    0.0926 C   0  0  0  0  0  0  0  0  0  0  0  0
    1.4550   -2.5263    0.9479 O   0  0  0  0  0  0  0  0  0  0  0  0
    1.5948   -1.2362   -0.9994 N   0  0  0  0  0  0  0  0  0  0  0  0
    3.0043   -1.5355   -1.2482 C   0  0  0  0  0  0  0  0  0  0  0  0
    3.8897   -0.4324   -0.7284 C   0  0  0  0  0  0  0  0  0  0  0  0
    3.8459   -0.0571    0.6248 C   0  0  0  0  0  0  0  0  0  0  0  0
    4.7306    0.9057    1.1215 C   0  0  0  0  0  0  0  0  0  0  0  0
    5.6941    1.4826    0.2819 C   0  0  0  0  0  0  0  0  0  0  0  0
    6.6882    2.4287    0.8319 C   0  0  0  0  0  0  0  0  0  0  0  0
    6.3065    3.2945    1.6641 O   0  0  0  0  0  0  0  0  0  0  0  0
    8.0797    2.3691    0.4502 N   0  0  0  0  0  0  0  0  0  0  0  0
    8.8491    3.6208    0.4519 C   0  0  0  0  0  0  0  0  0  0  0  0
    8.7426    1.0577    0.2770 C   0  0  0  0  0  0  0  0  0  0  0  0
    9.4729    0.9432   -1.0724 C   0  0  0  0  0  0  0  0  0  0  0  0
   10.1873   -0.4251   -1.1922 C   0  0  0  0  0  0  0  0  0  0  0  0
   10.1618   -1.1732    0.0132 O   0  0  0  0  0  0  0  0  0  0  0  0
   10.6699   -0.3938    1.0792 C   0  0  0  0  0  0  0  0  0  0  0  0
    9.7065    0.7546    1.4399 C   0  0  0  0  0  0  0  0  0  0  0  0
    5.7206    1.1293   -1.0748 C   0  0  0  0  0  0  0  0  0  0  0  0
    4.8271    0.1779   -1.5757 C   0  0  0  0  0  0  0  0  0  0  0  0
   -0.9607   -0.0796    0.4032 C   0  0  0  0  0  0  0  0  0  0  0  0
   -1.7903    0.4575   -0.7349 C   0  0  0  0  0  0  0  0  0  0  0  0
   -1.2998    0.4638   -1.8963 O   0  0  0  0  0  0  0  0  0  0  0  0
   -3.1492    0.8794   -0.5538 N   0  0  0  0  0  0  0  0  0  0  0  0
   -3.5640    1.8305    0.4834 C   0  0  0  0  0  0  0  0  0  0  0  0
   -3.3744    3.2870   -0.0072 C   0  0  0  0  0  0  0  0  0  0  0  0
   -4.1916    3.6487   -1.2830 C   0  0  0  0  0  0  0  0  0  0  0  0
   -4.8098    5.0493   -1.1589 C   0  0  0  0  0  0  0  0  0  0  0  0
   -3.3215    3.5801   -2.5469 C   0  0  0  0  0  0  0  0  0  0  0  0
   -4.9849    1.5312    0.9131 C   0  0  0  0  0  0  0  0  0  0  0  0
   -5.7858    2.4739    1.1604 O   0  0  0  0  0  0  0  0  0  0  0  0
   -9.2653   -2.5730    1.2342 H   0  0  0  0  0  0  0  0  0  0  0  0
  -10.5508   -1.8700    0.1829 H   0  0  0  0  0  0  0  0  0  0  0  0
   -8.8589   -1.9489   -0.4178 H   0  0  0  0  0  0  0  0  0  0  0  0
   -9.4347    0.3777    0.3073 H   0  0  0  0  0  0  0  0  0  0  0  0
   -9.9576   -0.2413    1.9063 H   0  0  0  0  0  0  0  0  0  0  0  0
   -7.5947   -1.0692    2.3406 H   0  0  0  0  0  0  0  0  0  0  0  0
   -7.7701    0.7129    2.2076 H   0  0  0  0  0  0  0  0  0  0  0  0
   -6.6805   -1.1819    0.0233 H   0  0  0  0  0  0  0  0  0  0  0  0
   -7.0549    0.5323   -0.2557 H   0  0  0  0  0  0  0  0  0  0  0  0
   -5.2886   -0.7564    2.9698 H   0  0  0  0  0  0  0  0  0  0  0  0
   -3.7240   -0.2957    2.2636 H   0  0  0  0  0  0  0  0  0  0  0  0
   -5.5057   -2.6349    1.3773 H   0  0  0  0  0  0  0  0  0  0  0  0
   -3.9100   -2.6929    2.1843 H   0  0  0  0  0  0  0  0  0  0  0  0
   -5.0142   -2.8992   -2.0355 H   0  0  0  0  0  0  0  0  0  0  0  0
   -4.4994   -4.9917   -3.2510 H   0  0  0  0  0  0  0  0  0  0  0  0
   -2.7317   -6.5151   -2.4149 H   0  0  0  0  0  0  0  0  0  0  0  0
   -1.4496   -5.9385   -0.3896 H   0  0  0  0  0  0  0  0  0  0  0  0
   -0.9238   -2.0935    2.2862 H   0  0  0  0  0  0  0  0  0  0  0  0
   -1.0673   -1.9440   -0.7547 H   0  0  0  0  0  0  0  0  0  0  0  0
    1.1124   -0.5780   -1.6504 H   0  0  0  0  0  0  0  0  0  0  0  0
    3.2936   -2.4952   -0.7710 H   0  0  0  0  0  0  0  0  0  0  0  0
    3.1451   -1.6690   -2.3437 H   0  0  0  0  0  0  0  0  0  0  0  0
    3.1418   -0.5204    1.3047 H   0  0  0  0  0  0  0  0  0  0  0  0
    4.6931    1.1652    2.1729 H   0  0  0  0  0  0  0  0  0  0  0  0
    8.4333    4.3112   -0.3123 H   0  0  0  0  0  0  0  0  0  0  0  0
    9.9209    3.4517    0.2243 H   0  0  0  0  0  0  0  0  0  0  0  0
    8.7894    4.1019    1.4520 H   0  0  0  0  0  0  0  0  0  0  0  0
    7.9794    0.2470    0.2898 H   0  0  0  0  0  0  0  0  0  0  0  0
   10.2322    1.7451   -1.1749 H   0  0  0  0  0  0  0  0  0  0  0  0
    8.7473    1.0621   -1.9052 H   0  0  0  0  0  0  0  0  0  0  0  0
    9.6758   -1.0257   -1.9722 H   0  0  0  0  0  0  0  0  0  0  0  0
   11.2369   -0.2866   -1.5355 H   0  0  0  0  0  0  0  0  0  0  0  0
   10.8023   -1.0484    1.9668 H   0  0  0  0  0  0  0  0  0  0  0  0
   11.6794    0.0066    0.8301 H   0  0  0  0  0  0  0  0  0  0  0  0
    9.1087    0.4801    2.3379 H   0  0  0  0  0  0  0  0  0  0  0  0
   10.3095    1.6491    1.7041 H   0  0  0  0  0  0  0  0  0  0  0  0
    6.4375    1.5845   -1.7451 H   0  0  0  0  0  0  0  0  0  0  0  0
    4.8817   -0.0932   -2.6221 H   0  0  0  0  0  0  0  0  0  0  0  0
   -0.0360    0.5343    0.4779 H   0  0  0  0  0  0  0  0  0  0  0  0
   -1.4938    0.0599    1.3630 H   0  0  0  0  0  0  0  0  0  0  0  0
   -3.7957    0.7397   -1.3628 H   0  0  0  0  0  0  0  0  0  0  0  0
   -2.9278    1.7203    1.3832 H   0  0  0  0  0  0  0  0  0  0  0  0
   -2.2898    3.4662   -0.1816 H   0  0  0  0  0  0  0  0  0  0  0  0
   -3.6479    3.9615    0.8358 H   0  0  0  0  0  0  0  0  0  0  0  0
   -5.0344    2.9356   -1.4160 H   0  0  0  0  0  0  0  0  0  0  0  0
   -4.0174    5.8180   -1.0259 H   0  0  0  0  0  0  0  0  0  0  0  0
   -5.3991    5.2940   -2.0692 H   0  0  0  0  0  0  0  0  0  0  0  0
   -5.4988    5.0898   -0.2877 H   0  0  0  0  0  0  0  0  0  0  0  0
   -2.5145    4.3423   -2.5065 H   0  0  0  0  0  0  0  0  0  0  0  0
   -3.9431    3.7686   -3.4481 H   0  0  0  0  0  0  0  0  0  0  0  0
   -2.8606    2.5793   -2.6560 H   0  0  0  0  0  0  0  0  0  0  0  0
  1  2  1  0
  2  3  1  0
  3  4  1  0
  4  5  1  0
  5  6  1  0
  6  7  1  0
  7  8  1  0
  8  9  1  0
  9 10  2  0
 10 11  1  0
 11 12  2  0
 12 13  1  0
 13 14  2  0
 14 15  1  0
 15 16  2  0
 15 17  1  0
 17 18  1  0
 18 19  1  0
 19 20  2  0
 19 21  1  0
 21 22  1  0
 22 23  1  0
 23 24  2  0
 24 25  1  0
 25 26  2  0
 26 27  1  0
 27 28  2  0
 27 29  1  0
 29 30  1  0
 29 31  1  0
 31 32  1  0
 32 33  1  0
 33 34  1  0
 34 35  1  0
 35 36  1  0
 26 37  1  0
 37 38  2  0
 18 39  1  0
 39 40  1  0
 40 41  2  0
 40 42  1  0
 42 43  1  0
 43 44  1  0
 44 45  1  0
 45 46  1  0
 45 47  1  0
 43 48  1  0
 48 49  2  0
 48  5  1  0
 14  9  1  0
 38 23  1  0
 36 31  1  0
  1 50  1  0
  1 51  1  0
  1 52  1  0
  2 53  1  0
  2 54  1  0
  3 55  1  0
  3 56  1  0
  4 57  1  0
  4 58  1  0
  6 59  1  0
  6 60  1  0
  7 61  1  0
  7 62  1  0
 10 63  1  0
 11 64  1  0
 12 65  1  0
 13 66  1  0
 17 67  1  0
 18 68  1  0
 21 69  1  0
 22 70  1  0
 22 71  1  0
 24 72  1  0
 25 73  1  0
 30 74  1  0
 30 75  1  0
 30 76  1  0
 31 77  1  0
 32 78  1  0
 32 79  1  0
 33 80  1  0
 33 81  1  0
 35 82  1  0
 35 83  1  0
 36 84  1  0
 36 85  1  0
 37 86  1  0
 38 87  1  0
 39 88  1  0
 39 89  1  0
 42 90  1  0
 43 91  1  0
 44 92  1  0
 44 93  1  0
 45 94  1  0
 46 95  1  0
 46 96  1  0
 46 97  1  0
 47 98  1  0
 47 99  1  0
 47100  1  0
M  END
$$$$
