
     RDKit          3D

 71 74  0  0  0  0  0  0  0  0999 V2000
   -1.9955    4.5263    1.1539 C   0  0  0  0  0  0  0  0  0  0  0  0
   -1.6772    3.0682    0.7982 C   0  0  0  0  0  0  0  0  0  0  0  0
   -0.6274    2.5118    1.7753 C   0  0  0  0  0  0  0  0  0  0  0  0
   -1.2036    2.9789   -0.6749 C   0  0  0  0  0  0  0  0  0  0  0  0
   -1.0175    1.5347   -1.2000 C   0  0  0  0  0  0  0  0  0  0  0  0
   -2.3593    0.7646   -1.2479 C   0  0  0  0  0  0  0  0  0  0  0  0
   -2.5041    0.0081   -0.0462 O   0  0  0  0  0  0  0  0  0  0  0  0
   -3.6850   -0.6439    0.3272 C   0  0  0  0  0  0  0  0  0  0  0  0
   -4.3099   -0.2420    1.5142 C   0  0  0  0  0  0  0  0  0  0  0  0
   -5.4918   -0.8533    1.9384 C   0  0  0  0  0  0  0  0  0  0  0  0
   -6.0592   -1.8808    1.1798 C   0  0  0  0  0  0  0  0  0  0  0  0
   -7.5458   -2.6464    1.7139 Cl  0  0  0  0  0  0  0  0  0  0  0  0
   -5.4361   -2.3059    0.0032 C   0  0  0  0  0  0  0  0  0  0  0  0
   -4.2411   -1.7063   -0.4265 C   0  0  0  0  0  0  0  0  0  0  0  0
   -3.6048   -2.2202   -1.6537 C   0  0  0  0  0  0  0  0  0  0  0  0
   -4.2173   -2.0961   -2.7470 O   0  0  0  0  0  0  0  0  0  0  0  0
   -2.3299   -2.8786   -1.6417 N   0  0  0  0  0  0  0  0  0  0  0  0
   -1.6768   -3.3652   -0.4227 C   0  0  0  0  0  0  0  0  0  0  0  0
   -0.1950   -3.7388   -0.6844 C   0  0  0  0  0  0  0  0  0  0  0  0
    0.8110   -2.9832    0.2049 C   0  0  0  0  0  0  0  0  0  0  0  0
    0.8557   -1.4677   -0.0513 C   0  0  0  0  0  0  0  0  0  0  0  0
    1.3784   -1.1483   -1.3912 N   0  0  0  0  0  0  0  0  0  0  0  0
    2.7945   -1.1961   -1.6446 C   0  0  0  0  0  0  0  0  0  0  0  0
    3.2238   -1.5656   -2.7718 O   0  0  0  0  0  0  0  0  0  0  0  0
    3.7574   -0.7363   -0.6378 C   0  0  0  0  0  0  0  0  0  0  0  0
    4.3760   -1.6569    0.2216 C   0  0  0  0  0  0  0  0  0  0  0  0
    5.2965   -1.2129    1.1758 C   0  0  0  0  0  0  0  0  0  0  0  0
    5.6017    0.1511    1.2797 C   0  0  0  0  0  0  0  0  0  0  0  0
    6.5001    0.5846    2.2058 N   0  0  0  0  0  0  0  0  0  0  0  0
    6.8283    1.9020    2.3223 C   0  0  0  0  0  0  0  0  0  0  0  0
    6.2415    2.8519    1.4808 C   0  0  0  0  0  0  0  0  0  0  0  0
    5.3165    2.4383    0.5177 C   0  0  0  0  0  0  0  0  0  0  0  0
    4.9792    1.0798    0.4143 C   0  0  0  0  0  0  0  0  0  0  0  0
    4.0557    0.6313   -0.5384 C   0  0  0  0  0  0  0  0  0  0  0  0
    0.4511   -0.8926   -2.5037 C   0  0  0  0  0  0  0  0  0  0  0  0
    0.5317    0.5361   -2.9805 C   0  0  0  0  0  0  0  0  0  0  0  0
    1.4285    0.8452   -3.8086 O   0  0  0  0  0  0  0  0  0  0  0  0
   -0.3809    1.5559   -2.5247 N   0  0  0  0  0  0  0  0  0  0  0  0
   -2.3567    4.5945    2.2019 H   0  0  0  0  0  0  0  0  0  0  0  0
   -2.7967    4.9136    0.4895 H   0  0  0  0  0  0  0  0  0  0  0  0
   -1.0903    5.1635    1.0409 H   0  0  0  0  0  0  0  0  0  0  0  0
   -2.6203    2.4897    0.9189 H   0  0  0  0  0  0  0  0  0  0  0  0
   -0.5672    1.4051    1.7035 H   0  0  0  0  0  0  0  0  0  0  0  0
   -0.9014    2.7522    2.8229 H   0  0  0  0  0  0  0  0  0  0  0  0
    0.3743    2.9437    1.5675 H   0  0  0  0  0  0  0  0  0  0  0  0
   -0.2377    3.5234   -0.7680 H   0  0  0  0  0  0  0  0  0  0  0  0
   -1.9326    3.5022   -1.3310 H   0  0  0  0  0  0  0  0  0  0  0  0
   -0.3121    1.0373   -0.5137 H   0  0  0  0  0  0  0  0  0  0  0  0
   -3.2183    1.4646   -1.3538 H   0  0  0  0  0  0  0  0  0  0  0  0
   -2.3956    0.0940   -2.1278 H   0  0  0  0  0  0  0  0  0  0  0  0
   -3.8769    0.5533    2.1095 H   0  0  0  0  0  0  0  0  0  0  0  0
   -5.9674   -0.5269    2.8545 H   0  0  0  0  0  0  0  0  0  0  0  0
   -5.8729   -3.1184   -0.5671 H   0  0  0  0  0  0  0  0  0  0  0  0
   -1.9355   -3.1495   -2.5722 H   0  0  0  0  0  0  0  0  0  0  0  0
   -2.2276   -4.2621   -0.0653 H   0  0  0  0  0  0  0  0  0  0  0  0
   -1.7594   -2.6095    0.3823 H   0  0  0  0  0  0  0  0  0  0  0  0
    0.0887   -3.5920   -1.7474 H   0  0  0  0  0  0  0  0  0  0  0  0
   -0.0676   -4.8267   -0.4852 H   0  0  0  0  0  0  0  0  0  0  0  0
    1.8216   -3.4119    0.0382 H   0  0  0  0  0  0  0  0  0  0  0  0
    0.5531   -3.1568    1.2724 H   0  0  0  0  0  0  0  0  0  0  0  0
   -0.1601   -1.0566    0.0815 H   0  0  0  0  0  0  0  0  0  0  0  0
    1.4830   -0.9839    0.7283 H   0  0  0  0  0  0  0  0  0  0  0  0
    4.1452   -2.7150    0.1534 H   0  0  0  0  0  0  0  0  0  0  0  0
    5.7705   -1.9330    1.8302 H   0  0  0  0  0  0  0  0  0  0  0  0
    7.5429    2.2120    3.0726 H   0  0  0  0  0  0  0  0  0  0  0  0
    6.5050    3.9015    1.5721 H   0  0  0  0  0  0  0  0  0  0  0  0
    4.8656    3.1754   -0.1373 H   0  0  0  0  0  0  0  0  0  0  0  0
    3.5793    1.3385   -1.2105 H   0  0  0  0  0  0  0  0  0  0  0  0
   -0.5800   -1.1221   -2.2025 H   0  0  0  0  0  0  0  0  0  0  0  0
    0.6799   -1.5797   -3.3472 H   0  0  0  0  0  0  0  0  0  0  0  0
   -0.4023    2.4476   -3.0747 H   0  0  0  0  0  0  0  0  0  0  0  0
  1  2  1  0
  2  3  1  0
  2  4  1  0
  4  5  1  0
  5  6  1  0
  6  7  1  0
  7  8  1  0
  8  9  2  0
  9 10  1  0
 10 11  2  0
 11 12  1  0
 11 13  1  0
 13 14  2  0
 14 15  1  0
 15 16  2  0
 15 17  1  0
 17 18  1  0
 18 19  1  0
 19 20  1  0
 20 21  1  0
 21 22  1  0
 22 23  1  0
 23 24  2  0
 23 25  1  0
 25 26  2  0
 26 27  1  0
 27 28  2  0
 28 29  1  0
 29 30  2  0
 30 31  1  0
 31 32  2  0
 32 33  1  0
 33 34  2  0
 22 35  1  0
 35 36  1  0
 36 37  2  0
 36 38  1  0
 38  5  1  0
 14  8  1  0
 34 25  1  0
 33 28  1  0
  1 39  1  0
  1 40  1  0
  1 41  1  0
  2 42  1  0
  3 43  1  0
  3 44  1  0
  3 45  1  0
  4 46  1  0
  4 47  1  0
  5 48  1  0
  6 49  1  0
  6 50  1  0
  9 51  1  0
 10 52  1  0
 13 53  1  0
 17 54  1  0
 18 55  1  0
 18 56  1  0
 19 57  1  0
 19 58  1  0
 20 59  1  0
 20 60  1  0
 21 61  1  0
 21 62  1  0
 26 63  1  0
 27 64  1  0
 30 65  1  0
 31 66  1  0
 32 67  1  0
 34 68  1  0
 35 69  1  0
 35 70  1  0
 38 71  1  0
M  END
$$$$
