
     RDKit          3D

 72 75  0  0  0  0  0  0  0  0999 V2000
    0.6377    5.4683   -0.0177 C   0  0  0  0  0  0  0  0  0  0  0  0
    0.2882    4.2611    0.8472 C   0  0  0  0  0  0  0  0  0  0  0  0
   -0.2900    3.1217    0.0009 C   0  0  0  0  0  0  0  0  0  0  0  0
   -0.6366    1.9109    0.8694 C   0  0  0  0  0  0  0  0  0  0  0  0
   -1.1143    0.8050    0.0354 N   0  0  0  0  0  0  0  0  0  0  0  0
   -2.5505    0.5694   -0.1427 C   0  0  0  0  0  0  0  0  0  0  0  0
   -3.0980   -0.3383    0.9733 C   0  0  0  0  0  0  0  0  0  0  0  0
   -4.3322   -0.9594    0.6072 O   0  0  0  0  0  0  0  0  0  0  0  0
   -4.4946   -1.7525   -0.5389 C   0  0  0  0  0  0  0  0  0  0  0  0
   -5.1089   -1.1691   -1.6548 C   0  0  0  0  0  0  0  0  0  0  0  0
   -5.3167   -1.9063   -2.8201 C   0  0  0  0  0  0  0  0  0  0  0  0
   -4.9426   -3.2465   -2.8737 C   0  0  0  0  0  0  0  0  0  0  0  0
   -4.3504   -3.8500   -1.7648 C   0  0  0  0  0  0  0  0  0  0  0  0
   -4.0894   -3.1126   -0.5929 C   0  0  0  0  0  0  0  0  0  0  0  0
   -3.4831   -3.8320    0.5959 C   0  0  0  0  0  0  0  0  0  0  0  0
   -2.1006   -4.4735    0.2956 C   0  0  0  0  0  0  0  0  0  0  0  0
   -0.9034   -3.5667    0.6277 C   0  0  0  0  0  0  0  0  0  0  0  0
   -0.6757   -2.4746   -0.4372 C   0  0  0  0  0  0  0  0  0  0  0  0
    0.2986   -1.3378    0.0094 C   0  0  0  0  0  0  0  0  0  0  0  0
    1.7447   -1.6708   -0.4785 C   0  0  0  0  0  0  0  0  0  0  0  0
    2.6922   -0.7713    0.1871 N   0  0  0  0  0  0  0  0  0  0  0  0
    3.5964    0.0585   -0.5780 C   0  0  0  0  0  0  0  0  0  0  0  0
    3.7063   -0.1171   -1.8215 O   0  0  0  0  0  0  0  0  0  0  0  0
    4.3920    1.1336    0.0556 C   0  0  0  0  0  0  0  0  0  0  0  0
    5.1356    0.8393    1.1579 N   0  0  0  0  0  0  0  0  0  0  0  0
    5.9104    1.7637    1.7810 C   0  0  0  0  0  0  0  0  0  0  0  0
    5.9704    3.0667    1.2915 C   0  0  0  0  0  0  0  0  0  0  0  0
    5.2250    3.4075    0.1645 C   0  0  0  0  0  0  0  0  0  0  0  0
    4.4207    2.4485   -0.4700 C   0  0  0  0  0  0  0  0  0  0  0  0
    3.6323    2.8360   -1.6909 C   0  0  0  0  0  0  0  0  0  0  0  0
    2.5760   -0.6439    1.6445 C   0  0  0  0  0  0  0  0  0  0  0  0
    1.3747   -1.4438    2.1583 C   0  0  0  0  0  0  0  0  0  0  0  0
    0.2021   -1.1302    1.4270 O   0  0  0  0  0  0  0  0  0  0  0  0
   -0.1675   -0.0418   -0.6392 C   0  0  0  0  0  0  0  0  0  0  0  0
    0.1941    0.2602   -1.8100 O   0  0  0  0  0  0  0  0  0  0  0  0
    1.0431    6.2800    0.6222 H   0  0  0  0  0  0  0  0  0  0  0  0
    1.4030    5.1899   -0.7739 H   0  0  0  0  0  0  0  0  0  0  0  0
   -0.2685    5.8479   -0.5362 H   0  0  0  0  0  0  0  0  0  0  0  0
    1.2115    3.9138    1.3635 H   0  0  0  0  0  0  0  0  0  0  0  0
   -0.4511    4.5710    1.6180 H   0  0  0  0  0  0  0  0  0  0  0  0
   -1.2075    3.4726   -0.5182 H   0  0  0  0  0  0  0  0  0  0  0  0
    0.4531    2.8225   -0.7653 H   0  0  0  0  0  0  0  0  0  0  0  0
    0.2561    1.5879    1.4449 H   0  0  0  0  0  0  0  0  0  0  0  0
   -1.4202    2.1975    1.6036 H   0  0  0  0  0  0  0  0  0  0  0  0
   -3.1003    1.5340   -0.1346 H   0  0  0  0  0  0  0  0  0  0  0  0
   -2.7182    0.1201   -1.1429 H   0  0  0  0  0  0  0  0  0  0  0  0
   -2.3684   -1.1139    1.2542 H   0  0  0  0  0  0  0  0  0  0  0  0
   -3.2695    0.2746    1.8832 H   0  0  0  0  0  0  0  0  0  0  0  0
   -5.4146   -0.1311   -1.6201 H   0  0  0  0  0  0  0  0  0  0  0  0
   -5.7791   -1.4384   -3.6780 H   0  0  0  0  0  0  0  0  0  0  0  0
   -5.1225   -3.8228   -3.7722 H   0  0  0  0  0  0  0  0  0  0  0  0
   -4.1045   -4.9022   -1.8179 H   0  0  0  0  0  0  0  0  0  0  0  0
   -4.1859   -4.6463    0.8745 H   0  0  0  0  0  0  0  0  0  0  0  0
   -3.4252   -3.1782    1.4902 H   0  0  0  0  0  0  0  0  0  0  0  0
   -2.0247   -4.8295   -0.7538 H   0  0  0  0  0  0  0  0  0  0  0  0
   -2.0085   -5.3810    0.9328 H   0  0  0  0  0  0  0  0  0  0  0  0
    0.0133   -4.1921    0.6879 H   0  0  0  0  0  0  0  0  0  0  0  0
   -1.0711   -3.1338    1.6348 H   0  0  0  0  0  0  0  0  0  0  0  0
   -0.3078   -2.9553   -1.3707 H   0  0  0  0  0  0  0  0  0  0  0  0
   -1.6541   -2.0474   -0.7192 H   0  0  0  0  0  0  0  0  0  0  0  0
    2.0047   -2.7177   -0.2092 H   0  0  0  0  0  0  0  0  0  0  0  0
    1.8186   -1.6155   -1.5848 H   0  0  0  0  0  0  0  0  0  0  0  0
    6.4848    1.4843    2.6536 H   0  0  0  0  0  0  0  0  0  0  0  0
    6.5856    3.8064    1.7847 H   0  0  0  0  0  0  0  0  0  0  0  0
    5.2748    4.4200   -0.2126 H   0  0  0  0  0  0  0  0  0  0  0  0
    3.5501    3.9412   -1.7844 H   0  0  0  0  0  0  0  0  0  0  0  0
    2.6081    2.4173   -1.6368 H   0  0  0  0  0  0  0  0  0  0  0  0
    4.1397    2.4426   -2.5976 H   0  0  0  0  0  0  0  0  0  0  0  0
    2.4302    0.4245    1.9134 H   0  0  0  0  0  0  0  0  0  0  0  0
    3.4983   -1.0260    2.1313 H   0  0  0  0  0  0  0  0  0  0  0  0
    1.5792   -2.5374    2.1107 H   0  0  0  0  0  0  0  0  0  0  0  0
    1.2047   -1.1914    3.2267 H   0  0  0  0  0  0  0  0  0  0  0  0
  1  2  1  0
  2  3  1  0
  3  4  1  0
  4  5  1  0
  5  6  1  0
  6  7  1  0
  7  8  1  0
  8  9  1  0
  9 10  2  0
 10 11  1  0
 11 12  2  0
 12 13  1  0
 13 14  2  0
 14 15  1  0
 15 16  1  0
 16 17  1  0
 17 18  1  0
 18 19  1  0
 19 20  1  0
 20 21  1  0
 21 22  1  0
 22 23  2  0
 22 24  1  0
 24 25  2  0
 25 26  1  0
 26 27  2  0
 27 28  1  0
 28 29  2  0
 29 30  1  0
 21 31  1  0
 31 32  1  0
 32 33  1  0
 19 34  1  0
 34 35  2  0
 34  5  1  0
 14  9  1  0
 33 19  1  0
 29 24  1  0
  1 36  1  0
  1 37  1  0
  1 38  1  0
  2 39  1  0
  2 40  1  0
  3 41  1  0
  3 42  1  0
  4 43  1  0
  4 44  1  0
  6 45  1  0
  6 46  1  0
  7 47  1  0
  7 48  1  0
 10 49  1  0
 11 50  1  0
 12 51  1  0
 13 52  1  0
 15 53  1  0
 15 54  1  0
 16 55  1  0
 16 56  1  0
 17 57  1  0
 17 58  1  0
 18 59  1  0
 18 60  1  0
 20 61  1  0
 20 62  1  0
 26 63  1  0
 27 64  1  0
 28 65  1  0
 30 66  1  0
 30 67  1  0
 30 68  1  0
 31 69  1  0
 31 70  1  0
 32 71  1  0
 32 72  1  0
M  END
$$$$
