
     RDKit          3D

 67 69  0  0  0  0  0  0  0  0999 V2000
    7.3948   -2.0220    0.7473 C   0  0  0  0  0  0  0  0  0  0  0  0
    6.0804   -1.6921    0.3594 O   0  0  0  0  0  0  0  0  0  0  0  0
    6.0875   -1.2370   -0.9779 C   0  0  0  0  0  0  0  0  0  0  0  0
    4.6621   -0.8686   -1.4027 C   0  0  0  0  0  0  0  0  0  0  0  0
    4.0717    0.2807   -0.6112 C   0  0  0  0  0  0  0  0  0  0  0  0
    4.8324    0.9657    0.1291 O   0  0  0  0  0  0  0  0  0  0  0  0
    2.6730    0.6493   -0.7239 N   0  0  0  0  0  0  0  0  0  0  0  0
    1.7374   -0.1922   -1.4976 C   0  0  0  0  0  0  0  0  0  0  0  0
    1.1265   -1.2849   -0.6072 C   0  0  0  0  0  0  0  0  0  0  0  0
    0.0200   -2.0696   -1.3429 C   0  0  0  0  0  0  0  0  0  0  0  0
   -1.1092   -2.6103   -0.4268 C   0  0  0  0  0  0  0  0  0  0  0  0
   -2.4147   -1.7444   -0.2169 C   0  0  0  0  0  0  0  0  0  0  0  0
   -3.5360   -2.7194    0.2612 C   0  0  0  0  0  0  0  0  0  0  0  0
   -3.1135   -3.4506    1.3973 O   0  0  0  0  0  0  0  0  0  0  0  0
   -4.1419   -4.3247    1.8041 C   0  0  0  0  0  0  0  0  0  0  0  0
   -2.2127   -0.6742    0.9080 C   0  0  0  0  0  0  0  0  0  0  0  0
   -2.9956    0.6119    0.6543 C   0  0  0  0  0  0  0  0  0  0  0  0
   -2.5474    1.2048   -0.6128 N   0  0  0  0  0  0  0  0  0  0  0  0
   -2.4550    0.3551   -1.8076 C   0  0  0  0  0  0  0  0  0  0  0  0
   -2.9262   -1.0928   -1.5531 C   0  0  0  0  0  0  0  0  0  0  0  0
   -2.1230    2.5841   -0.7162 C   0  0  0  0  0  0  0  0  0  0  0  0
   -1.8334    3.0698   -1.8438 O   0  0  0  0  0  0  0  0  0  0  0  0
   -2.0364    3.4653    0.4593 C   0  0  0  0  0  0  0  0  0  0  0  0
   -3.2391    4.0086    0.9417 C   0  0  0  0  0  0  0  0  0  0  0  0
   -3.2375    4.9052    2.0098 C   0  0  0  0  0  0  0  0  0  0  0  0
   -2.0341    5.2796    2.6029 C   0  0  0  0  0  0  0  0  0  0  0  0
   -0.8302    4.7498    2.1362 C   0  0  0  0  0  0  0  0  0  0  0  0
   -0.8046    3.8326    1.0756 C   0  0  0  0  0  0  0  0  0  0  0  0
    0.4658    3.3397    0.7152 O   0  0  0  0  0  0  0  0  0  0  0  0
    0.7556    2.2333   -0.1352 C   0  0  0  0  0  0  0  0  0  0  0  0
    2.2261    1.8328    0.0508 C   0  0  0  0  0  0  0  0  0  0  0  0
    7.3734   -2.3841    1.7956 H   0  0  0  0  0  0  0  0  0  0  0  0
    8.0603   -1.1309    0.7138 H   0  0  0  0  0  0  0  0  0  0  0  0
    7.8079   -2.8408    0.1169 H   0  0  0  0  0  0  0  0  0  0  0  0
    6.4483   -2.0411   -1.6596 H   0  0  0  0  0  0  0  0  0  0  0  0
    6.7452   -0.3451   -1.0985 H   0  0  0  0  0  0  0  0  0  0  0  0
    4.0295   -1.7728   -1.2878 H   0  0  0  0  0  0  0  0  0  0  0  0
    4.6755   -0.5863   -2.4773 H   0  0  0  0  0  0  0  0  0  0  0  0
    0.9401    0.4279   -1.9486 H   0  0  0  0  0  0  0  0  0  0  0  0
    2.2451   -0.6572   -2.3677 H   0  0  0  0  0  0  0  0  0  0  0  0
    0.7636   -0.8278    0.3244 H   0  0  0  0  0  0  0  0  0  0  0  0
    1.9215   -1.9943   -0.2934 H   0  0  0  0  0  0  0  0  0  0  0  0
    0.5198   -2.9464   -1.8122 H   0  0  0  0  0  0  0  0  0  0  0  0
   -0.3841   -1.5161   -2.2052 H   0  0  0  0  0  0  0  0  0  0  0  0
   -1.4187   -3.5773   -0.8840 H   0  0  0  0  0  0  0  0  0  0  0  0
   -0.6764   -2.8828    0.5613 H   0  0  0  0  0  0  0  0  0  0  0  0
   -3.7862   -3.4180   -0.5723 H   0  0  0  0  0  0  0  0  0  0  0  0
   -4.4524   -2.1311    0.5037 H   0  0  0  0  0  0  0  0  0  0  0  0
   -4.3806   -5.0648    1.0081 H   0  0  0  0  0  0  0  0  0  0  0  0
   -3.7937   -4.8899    2.6928 H   0  0  0  0  0  0  0  0  0  0  0  0
   -5.0553   -3.7623    2.1000 H   0  0  0  0  0  0  0  0  0  0  0  0
   -1.1577   -0.3892    1.0081 H   0  0  0  0  0  0  0  0  0  0  0  0
   -2.4972   -1.0697    1.9073 H   0  0  0  0  0  0  0  0  0  0  0  0
   -4.0839    0.3953    0.5995 H   0  0  0  0  0  0  0  0  0  0  0  0
   -2.8327    1.2925    1.5143 H   0  0  0  0  0  0  0  0  0  0  0  0
   -3.0867    0.7901   -2.6127 H   0  0  0  0  0  0  0  0  0  0  0  0
   -1.4139    0.3712   -2.1757 H   0  0  0  0  0  0  0  0  0  0  0  0
   -2.6708   -1.7315   -2.4260 H   0  0  0  0  0  0  0  0  0  0  0  0
   -4.0386   -1.0459   -1.5463 H   0  0  0  0  0  0  0  0  0  0  0  0
   -4.1831    3.7417    0.4811 H   0  0  0  0  0  0  0  0  0  0  0  0
   -4.1706    5.3173    2.3721 H   0  0  0  0  0  0  0  0  0  0  0  0
   -2.0329    5.9807    3.4276 H   0  0  0  0  0  0  0  0  0  0  0  0
    0.0962    5.0455    2.6128 H   0  0  0  0  0  0  0  0  0  0  0  0
    0.5896    2.5341   -1.1900 H   0  0  0  0  0  0  0  0  0  0  0  0
    0.1090    1.3818    0.1455 H   0  0  0  0  0  0  0  0  0  0  0  0
    2.3964    1.6348    1.1320 H   0  0  0  0  0  0  0  0  0  0  0  0
    2.8514    2.7068   -0.2361 H   0  0  0  0  0  0  0  0  0  0  0  0
  1  2  1  0
  2  3  1  0
  3  4  1  0
  4  5  1  0
  5  6  2  0
  5  7  1  0
  7  8  1  0
  8  9  1  0
  9 10  1  0
 10 11  1  0
 11 12  1  0
 12 13  1  0
 13 14  1  0
 14 15  1  0
 12 16  1  0
 16 17  1  0
 17 18  1  0
 18 19  1  0
 19 20  1  0
 18 21  1  0
 21 22  2  0
 21 23  1  0
 23 24  2  0
 24 25  1  0
 25 26  2  0
 26 27  1  0
 27 28  2  0
 28 29  1  0
 29 30  1  0
 30 31  1  0
 31  7  1  0
 20 12  1  0
 28 23  1  0
  1 32  1  0
  1 33  1  0
  1 34  1  0
  3 35  1  0
  3 36  1  0
  4 37  1  0
  4 38  1  0
  8 39  1  0
  8 40  1  0
  9 41  1  0
  9 42  1  0
 10 43  1  0
 10 44  1  0
 11 45  1  0
 11 46  1  0
 13 47  1  0
 13 48  1  0
 15 49  1  0
 15 50  1  0
 15 51  1  0
 16 52  1  0
 16 53  1  0
 17 54  1  0
 17 55  1  0
 19 56  1  0
 19 57  1  0
 20 58  1  0
 20 59  1  0
 24 60  1  0
 25 61  1  0
 26 62  1  0
 27 63  1  0
 30 64  1  0
 30 65  1  0
 31 66  1  0
 31 67  1  0
M  END
$$$$
