
     RDKit          3D

 65 69  0  0  0  0  0  0  0  0999 V2000
   -1.8311    2.0037    1.3419 O   0  0  0  0  0  0  0  0  0  0  0  0
   -2.1940    0.8512    0.9783 C   0  0  0  0  0  0  0  0  0  0  0  0
   -3.5761    0.7089    0.4605 C   0  0  0  0  0  0  0  0  0  0  0  0
   -4.4471   -0.3608    0.5921 C   0  0  0  0  0  0  0  0  0  0  0  0
   -5.6092    0.0584   -0.0381 C   0  0  0  0  0  0  0  0  0  0  0  0
   -6.8672   -0.7108   -0.1939 C   0  0  0  0  0  0  0  0  0  0  0  0
   -6.9318   -2.0832    0.1232 C   0  0  0  0  0  0  0  0  0  0  0  0
   -8.1236   -2.7944   -0.0494 C   0  0  0  0  0  0  0  0  0  0  0  0
   -9.2623   -2.1471   -0.5331 C   0  0  0  0  0  0  0  0  0  0  0  0
   -9.2129   -0.7865   -0.8465 C   0  0  0  0  0  0  0  0  0  0  0  0
   -8.0226   -0.0722   -0.6833 C   0  0  0  0  0  0  0  0  0  0  0  0
   -5.4400    1.3129   -0.5014 N   0  0  0  0  0  0  0  0  0  0  0  0
   -4.2148    1.6988   -0.1907 N   0  0  0  0  0  0  0  0  0  0  0  0
   -1.2297   -0.2301    0.9973 N   0  0  0  0  0  0  0  0  0  0  0  0
   -1.6350   -1.6331    1.1012 C   0  0  0  0  0  0  0  0  0  0  0  0
   -0.4044   -2.5338    1.1797 C   0  0  0  0  0  0  0  0  0  0  0  0
    0.4782   -2.2269    0.1212 O   0  0  0  0  0  0  0  0  0  0  0  0
    1.0417   -0.9116    0.1933 C   0  0  0  0  0  0  0  0  0  0  0  0
    1.0244   -0.3638   -1.2829 C   0  0  0  0  0  0  0  0  0  0  0  0
    2.1525    0.5876   -1.7567 C   0  0  0  0  0  0  0  0  0  0  0  0
    2.3090    1.8646   -0.9202 C   0  0  0  0  0  0  0  0  0  0  0  0
    3.5046    2.7334   -1.3600 C   0  0  0  0  0  0  0  0  0  0  0  0
    4.8320    1.9966   -1.4597 C   0  0  0  0  0  0  0  0  0  0  0  0
    5.5605    2.0621   -2.6615 C   0  0  0  0  0  0  0  0  0  0  0  0
    6.8058    1.4405   -2.7730 C   0  0  0  0  0  0  0  0  0  0  0  0
    7.3423    0.7516   -1.6865 C   0  0  0  0  0  0  0  0  0  0  0  0
    6.6358    0.6747   -0.4856 C   0  0  0  0  0  0  0  0  0  0  0  0
    5.3746    1.2859   -0.3620 C   0  0  0  0  0  0  0  0  0  0  0  0
    4.6297    1.1975    0.8197 O   0  0  0  0  0  0  0  0  0  0  0  0
    4.8855    0.3181    1.9101 C   0  0  0  0  0  0  0  0  0  0  0  0
    3.5807    0.1067    2.6858 C   0  0  0  0  0  0  0  0  0  0  0  0
    2.7646   -0.9698    2.1171 N   0  0  0  0  0  0  0  0  0  0  0  0
    2.4636   -1.0878    0.7192 C   0  0  0  0  0  0  0  0  0  0  0  0
    3.3496   -1.5601   -0.0419 O   0  0  0  0  0  0  0  0  0  0  0  0
    0.2055    0.0730    1.0973 C   0  0  0  0  0  0  0  0  0  0  0  0
   -4.2959   -1.2903    1.1171 H   0  0  0  0  0  0  0  0  0  0  0  0
   -6.0662   -2.6146    0.4940 H   0  0  0  0  0  0  0  0  0  0  0  0
   -8.1639   -3.8497    0.1914 H   0  0  0  0  0  0  0  0  0  0  0  0
  -10.1842   -2.6990   -0.6618 H   0  0  0  0  0  0  0  0  0  0  0  0
  -10.0967   -0.2852   -1.2186 H   0  0  0  0  0  0  0  0  0  0  0  0
   -8.0090    0.9805   -0.9356 H   0  0  0  0  0  0  0  0  0  0  0  0
   -3.8213    2.6361   -0.4303 H   0  0  0  0  0  0  0  0  0  0  0  0
   -2.2449   -1.7836    2.0176 H   0  0  0  0  0  0  0  0  0  0  0  0
   -2.2150   -1.9189    0.1971 H   0  0  0  0  0  0  0  0  0  0  0  0
    0.1030   -2.4342    2.1651 H   0  0  0  0  0  0  0  0  0  0  0  0
   -0.7271   -3.5908    1.0796 H   0  0  0  0  0  0  0  0  0  0  0  0
    1.0671   -1.2345   -1.9732 H   0  0  0  0  0  0  0  0  0  0  0  0
    0.0450    0.1176   -1.4915 H   0  0  0  0  0  0  0  0  0  0  0  0
    3.1097    0.0342   -1.8080 H   0  0  0  0  0  0  0  0  0  0  0  0
    1.9257    0.8903   -2.8025 H   0  0  0  0  0  0  0  0  0  0  0  0
    1.3799    2.4689   -1.0127 H   0  0  0  0  0  0  0  0  0  0  0  0
    2.4214    1.6177    0.1480 H   0  0  0  0  0  0  0  0  0  0  0  0
    3.2478    3.2045   -2.3332 H   0  0  0  0  0  0  0  0  0  0  0  0
    3.6237    3.5634   -0.6321 H   0  0  0  0  0  0  0  0  0  0  0  0
    5.1689    2.6008   -3.5161 H   0  0  0  0  0  0  0  0  0  0  0  0
    7.3585    1.4999   -3.7017 H   0  0  0  0  0  0  0  0  0  0  0  0
    8.3132    0.2810   -1.7735 H   0  0  0  0  0  0  0  0  0  0  0  0
    7.0855    0.1493    0.3451 H   0  0  0  0  0  0  0  0  0  0  0  0
    5.6482    0.7804    2.5717 H   0  0  0  0  0  0  0  0  0  0  0  0
    5.2696   -0.6637    1.5572 H   0  0  0  0  0  0  0  0  0  0  0  0
    3.8246   -0.1481    3.7397 H   0  0  0  0  0  0  0  0  0  0  0  0
    2.9898    1.0480    2.7016 H   0  0  0  0  0  0  0  0  0  0  0  0
    2.4235   -1.7257    2.7545 H   0  0  0  0  0  0  0  0  0  0  0  0
    0.4874   -0.0122    2.1664 H   0  0  0  0  0  0  0  0  0  0  0  0
    0.3929    1.1238    0.8129 H   0  0  0  0  0  0  0  0  0  0  0  0
  1  2  2  0
  2  3  1  0
  3  4  2  0
  4  5  1  0
  5  6  1  0
  6  7  2  0
  7  8  1  0
  8  9  2  0
  9 10  1  0
 10 11  2  0
  5 12  2  0
 12 13  1  0
  2 14  1  0
 14 15  1  0
 15 16  1  0
 16 17  1  0
 17 18  1  0
 18 19  1  0
 19 20  1  0
 20 21  1  0
 21 22  1  0
 22 23  1  0
 23 24  2  0
 24 25  1  0
 25 26  2  0
 26 27  1  0
 27 28  2  0
 28 29  1  0
 29 30  1  0
 30 31  1  0
 31 32  1  0
 32 33  1  0
 33 34  2  0
 18 35  1  0
 13  3  1  0
 35 14  1  0
 11  6  1  0
 33 18  1  0
 28 23  1  0
  4 36  1  0
  7 37  1  0
  8 38  1  0
  9 39  1  0
 10 40  1  0
 11 41  1  0
 13 42  1  0
 15 43  1  0
 15 44  1  0
 16 45  1  0
 16 46  1  0
 19 47  1  0
 19 48  1  0
 20 49  1  0
 20 50  1  0
 21 51  1  0
 21 52  1  0
 22 53  1  0
 22 54  1  0
 24 55  1  0
 25 56  1  0
 26 57  1  0
 27 58  1  0
 30 59  1  0
 30 60  1  0
 31 61  1  0
 31 62  1  0
 32 63  1  0
 35 64  1  0
 35 65  1  0
M  END
$$$$
