
     RDKit          3D

 67 69  0  0  0  0  0  0  0  0999 V2000
    8.3095    0.0964   -2.4376 C   0  0  0  0  0  0  0  0  0  0  0  0
    7.0722   -0.6040   -2.5141 O   0  0  0  0  0  0  0  0  0  0  0  0
    6.1353   -0.6722   -1.4722 C   0  0  0  0  0  0  0  0  0  0  0  0
    6.3327   -0.0301   -0.2354 C   0  0  0  0  0  0  0  0  0  0  0  0
    5.3688   -0.1276    0.7732 C   0  0  0  0  0  0  0  0  0  0  0  0
    4.1915   -0.8694    0.5612 C   0  0  0  0  0  0  0  0  0  0  0  0
    3.1931   -1.0065    1.5384 O   0  0  0  0  0  0  0  0  0  0  0  0
    3.1168   -0.2694    2.7596 C   0  0  0  0  0  0  0  0  0  0  0  0
    2.7165    1.1887    2.5029 C   0  0  0  0  0  0  0  0  0  0  0  0
    1.5841    1.2646    1.5816 N   0  0  0  0  0  0  0  0  0  0  0  0
    0.2710    0.8026    1.9274 C   0  0  0  0  0  0  0  0  0  0  0  0
    0.0093    0.4707    3.1163 O   0  0  0  0  0  0  0  0  0  0  0  0
   -0.7702    0.6426    0.8492 C   0  0  0  0  0  0  0  0  0  0  0  0
   -0.5481   -0.6936    0.1125 C   0  0  0  0  0  0  0  0  0  0  0  0
   -1.2105   -0.7187   -1.2427 C   0  0  0  0  0  0  0  0  0  0  0  0
   -0.9939    0.2437   -2.0275 O   0  0  0  0  0  0  0  0  0  0  0  0
   -1.9855   -1.8301   -1.7317 N   0  0  0  0  0  0  0  0  0  0  0  0
   -2.5487   -2.9472   -0.9602 C   0  0  0  0  0  0  0  0  0  0  0  0
   -1.4603   -3.9830   -0.6231 C   0  0  0  0  0  0  0  0  0  0  0  0
   -2.0508   -5.1433   -0.1033 O   0  0  0  0  0  0  0  0  0  0  0  0
   -3.3502   -2.4604    0.2331 C   0  0  0  0  0  0  0  0  0  0  0  0
   -3.0038   -2.8035    1.3964 O   0  0  0  0  0  0  0  0  0  0  0  0
   -4.5197   -1.6335    0.0829 N   0  0  0  0  0  0  0  0  0  0  0  0
   -5.0899   -1.2003   -1.1960 C   0  0  0  0  0  0  0  0  0  0  0  0
   -5.1261    0.3249   -1.2848 C   0  0  0  0  0  0  0  0  0  0  0  0
   -3.9080    0.8787   -0.7925 O   0  0  0  0  0  0  0  0  0  0  0  0
   -3.6648    2.2558   -0.7204 C   0  0  0  0  0  0  0  0  0  0  0  0
   -3.9963    3.1062   -1.7898 C   0  0  0  0  0  0  0  0  0  0  0  0
   -3.7790    4.4825   -1.6897 C   0  0  0  0  0  0  0  0  0  0  0  0
   -3.2382    5.0228   -0.5218 C   0  0  0  0  0  0  0  0  0  0  0  0
   -2.9052    4.1876    0.5470 C   0  0  0  0  0  0  0  0  0  0  0  0
   -3.0974    2.8000    0.4498 C   0  0  0  0  0  0  0  0  0  0  0  0
   -2.7909    1.9377    1.6073 C   0  0  0  0  0  0  0  0  0  0  0  0
   -3.1477    2.2940    2.7624 O   0  0  0  0  0  0  0  0  0  0  0  0
   -2.1134    0.6891    1.4361 N   0  0  0  0  0  0  0  0  0  0  0  0
    4.0025   -1.5096   -0.6685 C   0  0  0  0  0  0  0  0  0  0  0  0
    4.9643   -1.4094   -1.6775 C   0  0  0  0  0  0  0  0  0  0  0  0
    8.8498   -0.0152   -3.3996 H   0  0  0  0  0  0  0  0  0  0  0  0
    8.9380   -0.3273   -1.6263 H   0  0  0  0  0  0  0  0  0  0  0  0
    8.1262    1.1762   -2.2557 H   0  0  0  0  0  0  0  0  0  0  0  0
    7.2281    0.5444   -0.0421 H   0  0  0  0  0  0  0  0  0  0  0  0
    5.5570    0.3703    1.7132 H   0  0  0  0  0  0  0  0  0  0  0  0
    4.0774   -0.3226    3.3138 H   0  0  0  0  0  0  0  0  0  0  0  0
    2.3480   -0.7461    3.4026 H   0  0  0  0  0  0  0  0  0  0  0  0
    3.5772    1.7368    2.0651 H   0  0  0  0  0  0  0  0  0  0  0  0
    2.4568    1.6850    3.4625 H   0  0  0  0  0  0  0  0  0  0  0  0
    1.7540    1.6368    0.6198 H   0  0  0  0  0  0  0  0  0  0  0  0
   -0.6447    1.4875    0.1364 H   0  0  0  0  0  0  0  0  0  0  0  0
    0.5391   -0.8531   -0.0594 H   0  0  0  0  0  0  0  0  0  0  0  0
   -0.8904   -1.5125    0.7654 H   0  0  0  0  0  0  0  0  0  0  0  0
   -2.2320   -1.8044   -2.7475 H   0  0  0  0  0  0  0  0  0  0  0  0
   -3.2668   -3.4846   -1.6191 H   0  0  0  0  0  0  0  0  0  0  0  0
   -0.9109   -4.2394   -1.5570 H   0  0  0  0  0  0  0  0  0  0  0  0
   -0.7244   -3.5855    0.1043 H   0  0  0  0  0  0  0  0  0  0  0  0
   -1.3110   -5.7880    0.0432 H   0  0  0  0  0  0  0  0  0  0  0  0
   -5.0159   -1.3335    0.9527 H   0  0  0  0  0  0  0  0  0  0  0  0
   -6.1252   -1.5939   -1.2809 H   0  0  0  0  0  0  0  0  0  0  0  0
   -4.5263   -1.5981   -2.0593 H   0  0  0  0  0  0  0  0  0  0  0  0
   -5.2902    0.6178   -2.3429 H   0  0  0  0  0  0  0  0  0  0  0  0
   -5.9713    0.7071   -0.6719 H   0  0  0  0  0  0  0  0  0  0  0  0
   -4.4119    2.7077   -2.7047 H   0  0  0  0  0  0  0  0  0  0  0  0
   -4.0345    5.1317   -2.5173 H   0  0  0  0  0  0  0  0  0  0  0  0
   -3.0791    6.0905   -0.4437 H   0  0  0  0  0  0  0  0  0  0  0  0
   -2.4914    4.6225    1.4488 H   0  0  0  0  0  0  0  0  0  0  0  0
   -2.3964   -0.0936    2.0688 H   0  0  0  0  0  0  0  0  0  0  0  0
    3.1020   -2.0844   -0.8444 H   0  0  0  0  0  0  0  0  0  0  0  0
    4.7996   -1.9090   -2.6238 H   0  0  0  0  0  0  0  0  0  0  0  0
  1  2  1  0
  2  3  1  0
  3  4  2  0
  4  5  1  0
  5  6  2  0
  6  7  1  0
  7  8  1  0
  8  9  1  0
  9 10  1  0
 10 11  1  0
 11 12  2  0
 11 13  1  0
 13 14  1  0
 14 15  1  0
 15 16  2  0
 15 17  1  0
 17 18  1  0
 18 19  1  0
 19 20  1  0
 18 21  1  0
 21 22  2  0
 21 23  1  0
 23 24  1  0
 24 25  1  0
 25 26  1  0
 26 27  1  0
 27 28  2  0
 28 29  1  0
 29 30  2  0
 30 31  1  0
 31 32  2  0
 32 33  1  0
 33 34  2  0
 33 35  1  0
  6 36  1  0
 36 37  2  0
 37  3  1  0
 35 13  1  0
 32 27  1  0
  1 38  1  0
  1 39  1  0
  1 40  1  0
  4 41  1  0
  5 42  1  0
  8 43  1  0
  8 44  1  0
  9 45  1  0
  9 46  1  0
 10 47  1  0
 13 48  1  0
 14 49  1  0
 14 50  1  0
 17 51  1  0
 18 52  1  0
 19 53  1  0
 19 54  1  0
 20 55  1  0
 23 56  1  0
 24 57  1  0
 24 58  1  0
 25 59  1  0
 25 60  1  0
 28 61  1  0
 29 62  1  0
 30 63  1  0
 31 64  1  0
 35 65  1  0
 36 66  1  0
 37 67  1  0
M  END
$$$$
