
     RDKit          3D

 64 67  0  0  0  0  0  0  0  0999 V2000
   -2.9512    3.0272   -1.1375 C   0  0  0  0  0  0  0  0  0  0  0  0
   -3.0826    1.8844   -0.2251 N   0  0  0  0  0  0  0  0  0  0  0  0
   -2.8432    2.0906    1.2148 C   0  0  0  0  0  0  0  0  0  0  0  0
   -1.3818    2.4724    1.5270 C   0  0  0  0  0  0  0  0  0  0  0  0
   -0.3942    1.3018    1.3874 C   0  0  0  0  0  0  0  0  0  0  0  0
    0.1757    1.1654   -0.0308 C   0  0  0  0  0  0  0  0  0  0  0  0
    0.9475   -0.1000   -0.1368 N   0  0  0  0  0  0  0  0  0  0  0  0
    2.6284    0.2748   -0.4990 S   0  0  0  0  0  6  0  0  0  0  0  0
    2.7071    1.0752   -1.7700 O   0  0  0  0  0  0  0  0  0  0  0  0
    3.4426   -0.9778   -0.6628 O   0  0  0  0  0  0  0  0  0  0  0  0
    3.3379    1.2184    0.8455 C   0  0  0  0  0  0  0  0  0  0  0  0
    4.8033    1.4521    0.6061 C   0  0  0  0  0  0  0  0  0  0  0  0
    5.2294    2.5581   -0.1481 C   0  0  0  0  0  0  0  0  0  0  0  0
    6.5910    2.7579   -0.3979 C   0  0  0  0  0  0  0  0  0  0  0  0
    6.9965    3.8291   -1.1235 F   0  0  0  0  0  0  0  0  0  0  0  0
    7.5338    1.8517    0.0961 C   0  0  0  0  0  0  0  0  0  0  0  0
    7.1166    0.7425    0.8378 C   0  0  0  0  0  0  0  0  0  0  0  0
    8.0316   -0.1396    1.3099 F   0  0  0  0  0  0  0  0  0  0  0  0
    5.7559    0.5396    1.0896 C   0  0  0  0  0  0  0  0  0  0  0  0
    0.4174   -1.1571   -1.0597 C   0  0  0  0  0  0  0  0  0  0  0  0
    1.0391   -2.5339   -0.6516 C   0  0  0  0  0  0  0  0  0  0  0  0
    0.0670   -3.7206   -0.6317 C   0  0  0  0  0  0  0  0  0  0  0  0
   -0.8071   -3.7179   -1.8786 C   0  0  0  0  0  0  0  0  0  0  0  0
   -1.6222   -2.4212   -2.0162 C   0  0  0  0  0  0  0  0  0  0  0  0
   -1.1420   -1.2537   -1.1175 C   0  0  0  0  0  0  0  0  0  0  0  0
   -1.6574   -1.3809    0.2114 O   0  0  0  0  0  0  0  0  0  0  0  0
   -3.0117   -1.4146    0.5799 C   0  0  0  0  0  0  0  0  0  0  0  0
   -3.3996   -2.4133    1.4828 C   0  0  0  0  0  0  0  0  0  0  0  0
   -4.7301   -2.5340    1.8872 C   0  0  0  0  0  0  0  0  0  0  0  0
   -5.6898   -1.6470    1.4019 C   0  0  0  0  0  0  0  0  0  0  0  0
   -5.3179   -0.6274    0.5241 C   0  0  0  0  0  0  0  0  0  0  0  0
   -3.9815   -0.4883    0.1159 C   0  0  0  0  0  0  0  0  0  0  0  0
   -3.6498    0.6584   -0.7468 C   0  0  0  0  0  0  0  0  0  0  0  0
   -3.9322    0.5712   -1.9733 O   0  0  0  0  0  0  0  0  0  0  0  0
   -2.1789    2.8096   -1.9046 H   0  0  0  0  0  0  0  0  0  0  0  0
   -2.6673    3.9535   -0.5961 H   0  0  0  0  0  0  0  0  0  0  0  0
   -3.9215    3.2219   -1.6417 H   0  0  0  0  0  0  0  0  0  0  0  0
   -3.1184    1.1990    1.8143 H   0  0  0  0  0  0  0  0  0  0  0  0
   -3.5060    2.9105    1.5669 H   0  0  0  0  0  0  0  0  0  0  0  0
   -1.3538    2.8088    2.5866 H   0  0  0  0  0  0  0  0  0  0  0  0
   -1.0483    3.3394    0.9191 H   0  0  0  0  0  0  0  0  0  0  0  0
   -0.8680    0.3596    1.7259 H   0  0  0  0  0  0  0  0  0  0  0  0
    0.4604    1.4815    2.0758 H   0  0  0  0  0  0  0  0  0  0  0  0
   -0.6039    1.2690   -0.7945 H   0  0  0  0  0  0  0  0  0  0  0  0
    0.8060    2.0617   -0.2161 H   0  0  0  0  0  0  0  0  0  0  0  0
    3.1843    0.6616    1.7944 H   0  0  0  0  0  0  0  0  0  0  0  0
    2.8136    2.1917    0.9435 H   0  0  0  0  0  0  0  0  0  0  0  0
    4.5068    3.2618   -0.5429 H   0  0  0  0  0  0  0  0  0  0  0  0
    8.5872    2.0069   -0.0990 H   0  0  0  0  0  0  0  0  0  0  0  0
    5.4436   -0.3281    1.6576 H   0  0  0  0  0  0  0  0  0  0  0  0
    0.7464   -0.9244   -2.0988 H   0  0  0  0  0  0  0  0  0  0  0  0
    1.8552   -2.7825   -1.3648 H   0  0  0  0  0  0  0  0  0  0  0  0
    1.4942   -2.4686    0.3613 H   0  0  0  0  0  0  0  0  0  0  0  0
    0.6461   -4.6686   -0.5906 H   0  0  0  0  0  0  0  0  0  0  0  0
   -0.5693   -3.6841    0.2786 H   0  0  0  0  0  0  0  0  0  0  0  0
   -1.4954   -4.5901   -1.8452 H   0  0  0  0  0  0  0  0  0  0  0  0
   -0.1555   -3.8430   -2.7718 H   0  0  0  0  0  0  0  0  0  0  0  0
   -1.5765   -2.0957   -3.0793 H   0  0  0  0  0  0  0  0  0  0  0  0
   -2.6923   -2.6351   -1.8071 H   0  0  0  0  0  0  0  0  0  0  0  0
   -1.5406   -0.3564   -1.6092 H   0  0  0  0  0  0  0  0  0  0  0  0
   -2.6645   -3.1126    1.8604 H   0  0  0  0  0  0  0  0  0  0  0  0
   -5.0172   -3.3183    2.5757 H   0  0  0  0  0  0  0  0  0  0  0  0
   -6.7214   -1.7417    1.7156 H   0  0  0  0  0  0  0  0  0  0  0  0
   -6.0718    0.0686    0.1757 H   0  0  0  0  0  0  0  0  0  0  0  0
  1  2  1  0
  2  3  1  0
  3  4  1  0
  4  5  1  0
  5  6  1  0
  6  7  1  0
  7  8  1  0
  8  9  2  0
  8 10  2  0
  8 11  1  0
 11 12  1  0
 12 13  2  0
 13 14  1  0
 14 15  1  0
 14 16  2  0
 16 17  1  0
 17 18  1  0
 17 19  2  0
  7 20  1  0
 20 21  1  0
 21 22  1  0
 22 23  1  0
 23 24  1  0
 24 25  1  0
 25 26  1  0
 26 27  1  0
 27 28  2  0
 28 29  1  0
 29 30  2  0
 30 31  1  0
 31 32  2  0
 32 33  1  0
 33 34  2  0
 33  2  1  0
 19 12  1  0
 25 20  1  0
 32 27  1  0
  1 35  1  0
  1 36  1  0
  1 37  1  0
  3 38  1  0
  3 39  1  0
  4 40  1  0
  4 41  1  0
  5 42  1  0
  5 43  1  0
  6 44  1  0
  6 45  1  0
 11 46  1  0
 11 47  1  0
 13 48  1  0
 16 49  1  0
 19 50  1  0
 20 51  1  0
 21 52  1  0
 21 53  1  0
 22 54  1  0
 22 55  1  0
 23 56  1  0
 23 57  1  0
 24 58  1  0
 24 59  1  0
 25 60  1  0
 28 61  1  0
 29 62  1  0
 30 63  1  0
 31 64  1  0
M  END
$$$$
