
     RDKit          3D

 77 80  0  0  0  0  0  0  0  0999 V2000
   10.7221   -1.8501   -0.2199 C   0  0  0  0  0  0  0  0  0  0  0  0
    9.4974   -1.2125   -0.7877 C   0  0  0  0  0  0  0  0  0  0  0  0
    8.7187   -0.3458   -0.1100 N   0  0  0  0  0  0  0  0  0  0  0  0
    7.6960   -0.0305   -0.8914 N   0  0  0  0  0  0  0  0  0  0  0  0
    6.6085    0.8482   -0.4642 C   0  0  0  0  0  0  0  0  0  0  0  0
    5.5494    0.0466    0.2962 C   0  0  0  0  0  0  0  0  0  0  0  0
    4.4699    0.9172    0.7603 N   0  0  0  0  0  0  0  0  0  0  0  0
    3.4026    0.4163    1.5765 C   0  0  0  0  0  0  0  0  0  0  0  0
    3.3971   -0.7923    1.9397 O   0  0  0  0  0  0  0  0  0  0  0  0
    2.3231    1.3447    2.0568 C   0  0  0  0  0  0  0  0  0  0  0  0
    0.9622    0.7092    1.9363 C   0  0  0  0  0  0  0  0  0  0  0  0
    0.2902    0.2460    3.0752 C   0  0  0  0  0  0  0  0  0  0  0  0
   -0.9726   -0.3369    2.9602 C   0  0  0  0  0  0  0  0  0  0  0  0
   -1.5798   -0.4788    1.7012 C   0  0  0  0  0  0  0  0  0  0  0  0
   -0.9021   -0.0370    0.5466 C   0  0  0  0  0  0  0  0  0  0  0  0
    0.3673    0.5540    0.6757 C   0  0  0  0  0  0  0  0  0  0  0  0
   -1.4778   -0.2666   -0.8362 C   0  0  0  0  0  0  0  0  0  0  0  0
   -2.8023    0.3738   -1.0142 N   0  0  0  0  0  0  0  0  0  0  0  0
   -2.6750    1.8567   -0.9973 C   0  0  0  0  0  0  0  0  0  0  0  0
   -3.9126    2.4968   -0.4215 C   0  0  0  0  0  0  0  0  0  0  0  0
   -4.3641    2.1377    0.8599 C   0  0  0  0  0  0  0  0  0  0  0  0
   -5.5042    2.7380    1.4016 C   0  0  0  0  0  0  0  0  0  0  0  0
   -6.1924    3.7146    0.6770 C   0  0  0  0  0  0  0  0  0  0  0  0
   -5.7359    4.0982   -0.5870 C   0  0  0  0  0  0  0  0  0  0  0  0
   -4.5961    3.4990   -1.1325 C   0  0  0  0  0  0  0  0  0  0  0  0
   -3.3953   -0.1006   -2.2915 C   0  0  0  0  0  0  0  0  0  0  0  0
   -4.8633    0.2165   -2.3769 C   0  0  0  0  0  0  0  0  0  0  0  0
   -5.2256    1.2285   -3.0322 O   0  0  0  0  0  0  0  0  0  0  0  0
   -5.8625   -0.5776   -1.7185 N   0  0  0  0  0  0  0  0  0  0  0  0
   -5.7839   -2.0324   -1.5660 C   0  0  0  0  0  0  0  0  0  0  0  0
   -5.0024   -2.4478   -0.3134 C   0  0  0  0  0  0  0  0  0  0  0  0
   -5.5136   -1.7436    0.9516 C   0  0  0  0  0  0  0  0  0  0  0  0
   -4.8498   -2.2669    2.2370 C   0  0  0  0  0  0  0  0  0  0  0  0
   -3.3151   -2.1931    2.2359 C   0  0  0  0  0  0  0  0  0  0  0  0
   -2.8698   -1.0060    1.5827 O   0  0  0  0  0  0  0  0  0  0  0  0
    7.7895   -0.7062   -2.0594 C   0  0  0  0  0  0  0  0  0  0  0  0
    6.7945   -0.6397   -3.1783 C   0  0  0  0  0  0  0  0  0  0  0  0
    8.9366   -1.4753   -2.0237 C   0  0  0  0  0  0  0  0  0  0  0  0
    9.5373   -2.5774   -3.2525 Cl  0  0  0  0  0  0  0  0  0  0  0  0
   10.4853   -2.8861    0.1006 H   0  0  0  0  0  0  0  0  0  0  0  0
   11.0821   -1.2710    0.6558 H   0  0  0  0  0  0  0  0  0  0  0  0
   11.5261   -1.8787   -0.9851 H   0  0  0  0  0  0  0  0  0  0  0  0
    7.0193    1.6404    0.2002 H   0  0  0  0  0  0  0  0  0  0  0  0
    6.1476    1.3492   -1.3431 H   0  0  0  0  0  0  0  0  0  0  0  0
    5.1274   -0.7377   -0.3694 H   0  0  0  0  0  0  0  0  0  0  0  0
    6.0262   -0.4474    1.1715 H   0  0  0  0  0  0  0  0  0  0  0  0
    4.4810    1.9343    0.5142 H   0  0  0  0  0  0  0  0  0  0  0  0
    2.5379    1.6236    3.1112 H   0  0  0  0  0  0  0  0  0  0  0  0
    2.3337    2.2841    1.4620 H   0  0  0  0  0  0  0  0  0  0  0  0
    0.7361    0.3506    4.0565 H   0  0  0  0  0  0  0  0  0  0  0  0
   -1.4866   -0.6419    3.8611 H   0  0  0  0  0  0  0  0  0  0  0  0
    0.8997    0.8915   -0.2059 H   0  0  0  0  0  0  0  0  0  0  0  0
   -1.5632   -1.3695   -0.9582 H   0  0  0  0  0  0  0  0  0  0  0  0
   -0.7745    0.0878   -1.6257 H   0  0  0  0  0  0  0  0  0  0  0  0
   -1.8303    2.1912   -0.3576 H   0  0  0  0  0  0  0  0  0  0  0  0
   -2.4497    2.2572   -2.0116 H   0  0  0  0  0  0  0  0  0  0  0  0
   -3.8333    1.3968    1.4417 H   0  0  0  0  0  0  0  0  0  0  0  0
   -5.8499    2.4500    2.3857 H   0  0  0  0  0  0  0  0  0  0  0  0
   -7.0737    4.1803    1.0988 H   0  0  0  0  0  0  0  0  0  0  0  0
   -6.2638    4.8621   -1.1432 H   0  0  0  0  0  0  0  0  0  0  0  0
   -4.2526    3.8106   -2.1110 H   0  0  0  0  0  0  0  0  0  0  0  0
   -2.8642    0.3438   -3.1636 H   0  0  0  0  0  0  0  0  0  0  0  0
   -3.2756   -1.1981   -2.4079 H   0  0  0  0  0  0  0  0  0  0  0  0
   -6.8008   -0.1394   -1.5827 H   0  0  0  0  0  0  0  0  0  0  0  0
   -5.3224   -2.4858   -2.4693 H   0  0  0  0  0  0  0  0  0  0  0  0
   -6.8146   -2.4430   -1.4884 H   0  0  0  0  0  0  0  0  0  0  0  0
   -5.1041   -3.5475   -0.1869 H   0  0  0  0  0  0  0  0  0  0  0  0
   -3.9274   -2.2314   -0.4607 H   0  0  0  0  0  0  0  0  0  0  0  0
   -6.6109   -1.8995    1.0378 H   0  0  0  0  0  0  0  0  0  0  0  0
   -5.3387   -0.6500    0.8702 H   0  0  0  0  0  0  0  0  0  0  0  0
   -5.1617   -3.3194    2.4139 H   0  0  0  0  0  0  0  0  0  0  0  0
   -5.2313   -1.6630    3.0885 H   0  0  0  0  0  0  0  0  0  0  0  0
   -2.9626   -2.2347    3.2871 H   0  0  0  0  0  0  0  0  0  0  0  0
   -2.8969   -3.0732    1.7006 H   0  0  0  0  0  0  0  0  0  0  0  0
    7.1012   -1.2915   -4.0231 H   0  0  0  0  0  0  0  0  0  0  0  0
    6.7193    0.4045   -3.5480 H   0  0  0  0  0  0  0  0  0  0  0  0
    5.8000   -0.9739   -2.8154 H   0  0  0  0  0  0  0  0  0  0  0  0
  1  2  1  0
  2  3  2  0
  3  4  1  0
  4  5  1  0
  5  6  1  0
  6  7  1  0
  7  8  1  0
  8  9  2  0
  8 10  1  0
 10 11  1  0
 11 12  2  0
 12 13  1  0
 13 14  2  0
 14 15  1  0
 15 16  2  0
 15 17  1  0
 17 18  1  0
 18 19  1  0
 19 20  1  0
 20 21  2  0
 21 22  1  0
 22 23  2  0
 23 24  1  0
 24 25  2  0
 18 26  1  0
 26 27  1  0
 27 28  2  0
 27 29  1  0
 29 30  1  0
 30 31  1  0
 31 32  1  0
 32 33  1  0
 33 34  1  0
 34 35  1  0
  4 36  1  0
 36 37  1  0
 36 38  2  0
 38 39  1  0
 38  2  1  0
 16 11  1  0
 25 20  1  0
 35 14  1  0
  1 40  1  0
  1 41  1  0
  1 42  1  0
  5 43  1  0
  5 44  1  0
  6 45  1  0
  6 46  1  0
  7 47  1  0
 10 48  1  0
 10 49  1  0
 12 50  1  0
 13 51  1  0
 16 52  1  0
 17 53  1  0
 17 54  1  0
 19 55  1  0
 19 56  1  0
 21 57  1  0
 22 58  1  0
 23 59  1  0
 24 60  1  0
 25 61  1  0
 26 62  1  0
 26 63  1  0
 29 64  1  0
 30 65  1  0
 30 66  1  0
 31 67  1  0
 31 68  1  0
 32 69  1  0
 32 70  1  0
 33 71  1  0
 33 72  1  0
 34 73  1  0
 34 74  1  0
 37 75  1  0
 37 76  1  0
 37 77  1  0
M  END
$$$$
