
     RDKit          3D

 62 65  0  0  0  0  0  0  0  0999 V2000
   -0.1467   -2.5043    3.1514 C   0  0  0  0  0  0  0  0  0  0  0  0
   -0.7843   -2.4178    1.7675 C   0  0  0  0  0  0  0  0  0  0  0  0
   -1.4248   -1.1056    1.5705 N   0  0  0  0  0  0  0  0  0  0  0  0
   -2.7683   -0.9245    2.1543 C   0  0  0  0  0  0  0  0  0  0  0  0
   -3.6642   -0.0030    1.3215 C   0  0  0  0  0  0  0  0  0  0  0  0
   -3.6625   -0.3904   -0.0482 O   0  0  0  0  0  0  0  0  0  0  0  0
   -4.4105    0.3112   -0.9998 C   0  0  0  0  0  0  0  0  0  0  0  0
   -5.8114    0.2464   -0.9822 C   0  0  0  0  0  0  0  0  0  0  0  0
   -6.5596    0.9289   -1.9463 C   0  0  0  0  0  0  0  0  0  0  0  0
   -5.9126    1.6750   -2.9351 C   0  0  0  0  0  0  0  0  0  0  0  0
   -4.5164    1.7468   -2.9593 C   0  0  0  0  0  0  0  0  0  0  0  0
   -3.7561    1.0790   -1.9849 C   0  0  0  0  0  0  0  0  0  0  0  0
   -2.2528    1.1709   -1.9996 C   0  0  0  0  0  0  0  0  0  0  0  0
   -1.6432   -0.0238   -2.7413 C   0  0  0  0  0  0  0  0  0  0  0  0
   -0.1493   -0.2281   -2.4274 C   0  0  0  0  0  0  0  0  0  0  0  0
    0.1023   -0.8743   -1.0353 C   0  0  0  0  0  0  0  0  0  0  0  0
    0.4531    0.0924    0.1648 C   0  0  0  0  0  0  0  0  0  0  0  0
    1.7998   -0.3658    0.8271 C   0  0  0  0  0  0  0  0  0  0  0  0
    2.9407    0.1551    0.0738 N   0  0  0  0  0  0  0  0  0  0  0  0
    4.0872   -0.6773   -0.1630 C   0  0  0  0  0  0  0  0  0  0  0  0
    3.9644   -1.7004   -0.8872 O   0  0  0  0  0  0  0  0  0  0  0  0
    5.3957   -0.3665    0.4377 C   0  0  0  0  0  0  0  0  0  0  0  0
    6.4727   -1.1536    0.1672 N   0  0  0  0  0  0  0  0  0  0  0  0
    7.6902   -0.8846    0.7081 C   0  0  0  0  0  0  0  0  0  0  0  0
    7.8490    0.2105    1.5559 C   0  0  0  0  0  0  0  0  0  0  0  0
    6.7373    1.0074    1.8258 C   0  0  0  0  0  0  0  0  0  0  0  0
    5.5363    0.7041    1.2677 N   0  0  0  0  0  0  0  0  0  0  0  0
    2.9114    1.5419   -0.3896 C   0  0  0  0  0  0  0  0  0  0  0  0
    1.6105    2.2032    0.0611 C   0  0  0  0  0  0  0  0  0  0  0  0
    0.4959    1.4335   -0.3482 O   0  0  0  0  0  0  0  0  0  0  0  0
   -0.6292    0.0640    1.2494 C   0  0  0  0  0  0  0  0  0  0  0  0
   -0.7965    1.1106    1.9357 O   0  0  0  0  0  0  0  0  0  0  0  0
    0.3529   -3.4896    3.2726 H   0  0  0  0  0  0  0  0  0  0  0  0
    0.6101   -1.7013    3.2748 H   0  0  0  0  0  0  0  0  0  0  0  0
   -0.9239   -2.3989    3.9392 H   0  0  0  0  0  0  0  0  0  0  0  0
   -1.5351   -3.2328    1.6607 H   0  0  0  0  0  0  0  0  0  0  0  0
   -0.0190   -2.6206    0.9999 H   0  0  0  0  0  0  0  0  0  0  0  0
   -2.6687   -0.5034    3.1781 H   0  0  0  0  0  0  0  0  0  0  0  0
   -3.2881   -1.9040    2.2450 H   0  0  0  0  0  0  0  0  0  0  0  0
   -4.6999   -0.0543    1.7234 H   0  0  0  0  0  0  0  0  0  0  0  0
   -3.3215    1.0486    1.4104 H   0  0  0  0  0  0  0  0  0  0  0  0
   -6.3208   -0.3417   -0.2288 H   0  0  0  0  0  0  0  0  0  0  0  0
   -7.6419    0.8765   -1.9284 H   0  0  0  0  0  0  0  0  0  0  0  0
   -6.4937    2.1985   -3.6848 H   0  0  0  0  0  0  0  0  0  0  0  0
   -4.0290    2.3279   -3.7329 H   0  0  0  0  0  0  0  0  0  0  0  0
   -1.9003    1.2115   -0.9528 H   0  0  0  0  0  0  0  0  0  0  0  0
   -1.9231    2.1165   -2.4827 H   0  0  0  0  0  0  0  0  0  0  0  0
   -2.2019   -0.9572   -2.5069 H   0  0  0  0  0  0  0  0  0  0  0  0
   -1.7582    0.1506   -3.8331 H   0  0  0  0  0  0  0  0  0  0  0  0
    0.2348   -0.9347   -3.1975 H   0  0  0  0  0  0  0  0  0  0  0  0
    0.4225    0.7094   -2.5871 H   0  0  0  0  0  0  0  0  0  0  0  0
   -0.7762   -1.5120   -0.8027 H   0  0  0  0  0  0  0  0  0  0  0  0
    0.9318   -1.6061   -1.1797 H   0  0  0  0  0  0  0  0  0  0  0  0
    1.8679   -1.4699    0.9115 H   0  0  0  0  0  0  0  0  0  0  0  0
    1.8730    0.0225    1.8688 H   0  0  0  0  0  0  0  0  0  0  0  0
    8.5318   -1.5257    0.4826 H   0  0  0  0  0  0  0  0  0  0  0  0
    8.8108    0.4347    1.9956 H   0  0  0  0  0  0  0  0  0  0  0  0
    6.8265    1.8649    2.4798 H   0  0  0  0  0  0  0  0  0  0  0  0
    2.9713    1.5573   -1.4994 H   0  0  0  0  0  0  0  0  0  0  0  0
    3.7679    2.1136    0.0229 H   0  0  0  0  0  0  0  0  0  0  0  0
    1.6017    2.3493    1.1651 H   0  0  0  0  0  0  0  0  0  0  0  0
    1.5402    3.2095   -0.4059 H   0  0  0  0  0  0  0  0  0  0  0  0
  1  2  1  0
  2  3  1  0
  3  4  1  0
  4  5  1  0
  5  6  1  0
  6  7  1  0
  7  8  2  0
  8  9  1  0
  9 10  2  0
 10 11  1  0
 11 12  2  0
 12 13  1  0
 13 14  1  0
 14 15  1  0
 15 16  1  0
 16 17  1  0
 17 18  1  0
 18 19  1  0
 19 20  1  0
 20 21  2  0
 20 22  1  0
 22 23  2  0
 23 24  1  0
 24 25  2  0
 25 26  1  0
 26 27  2  0
 19 28  1  0
 28 29  1  0
 29 30  1  0
 17 31  1  0
 31 32  2  0
 31  3  1  0
 12  7  1  0
 30 17  1  0
 27 22  1  0
  1 33  1  0
  1 34  1  0
  1 35  1  0
  2 36  1  0
  2 37  1  0
  4 38  1  0
  4 39  1  0
  5 40  1  0
  5 41  1  0
  8 42  1  0
  9 43  1  0
 10 44  1  0
 11 45  1  0
 13 46  1  0
 13 47  1  0
 14 48  1  0
 14 49  1  0
 15 50  1  0
 15 51  1  0
 16 52  1  0
 16 53  1  0
 18 54  1  0
 18 55  1  0
 24 56  1  0
 25 57  1  0
 26 58  1  0
 28 59  1  0
 28 60  1  0
 29 61  1  0
 29 62  1  0
M  END
$$$$
