
     RDKit          3D

 90 95  0  0  0  0  0  0  0  0999 V2000
   -3.3581    1.7480   -1.1809 O   0  0  0  0  0  0  0  0  0  0  0  0
   -2.9475    1.0150   -0.2376 C   0  0  0  0  0  0  0  0  0  0  0  0
   -1.5529    0.9828    0.0992 N   0  0  0  0  0  0  0  0  0  0  0  0
   -0.4984    1.3416   -0.8584 C   0  0  0  0  0  0  0  0  0  0  0  0
    0.3494    2.5010   -0.3031 C   0  0  0  0  0  0  0  0  0  0  0  0
    1.2337    2.0627    0.8698 C   0  0  0  0  0  0  0  0  0  0  0  0
    2.0112    0.8655    0.5232 N   0  0  0  0  0  0  0  0  0  0  0  0
    3.2735    0.6472    1.1759 C   0  0  0  0  0  0  0  0  0  0  0  0
    3.4354   -0.3833    1.8840 O   0  0  0  0  0  0  0  0  0  0  0  0
    4.3934    1.6479    1.0475 C   0  0  0  0  0  0  0  0  0  0  0  0
    5.6443    1.0574    0.3767 C   0  0  0  0  0  0  0  0  0  0  0  0
    6.4306    0.1126    1.2987 C   0  0  0  0  0  0  0  0  0  0  0  0
    7.7163   -0.2452    0.6914 N   0  0  0  0  0  0  0  0  0  0  0  0
    8.0274   -1.3443   -0.0537 C   0  0  0  0  0  0  0  0  0  0  0  0
    7.0750   -2.4644   -0.3599 C   0  0  0  0  0  0  0  0  0  0  0  0
    7.6586   -3.3579   -1.2411 F   0  0  0  0  0  0  0  0  0  0  0  0
    6.7569   -3.1325    0.8076 F   0  0  0  0  0  0  0  0  0  0  0  0
    5.9210   -1.9649   -0.9339 F   0  0  0  0  0  0  0  0  0  0  0  0
    9.3255   -1.3683   -0.4567 N   0  0  0  0  0  0  0  0  0  0  0  0
    9.8255   -0.2276    0.0510 C   0  0  0  0  0  0  0  0  0  0  0  0
   11.1305    0.2450   -0.0544 C   0  0  0  0  0  0  0  0  0  0  0  0
   11.4394    1.4628    0.5807 C   0  0  0  0  0  0  0  0  0  0  0  0
   10.4424    2.1744    1.2857 C   0  0  0  0  0  0  0  0  0  0  0  0
    9.1320    1.6704    1.3698 C   0  0  0  0  0  0  0  0  0  0  0  0
    8.8638    0.4544    0.7367 C   0  0  0  0  0  0  0  0  0  0  0  0
    1.2915   -0.2948   -0.0155 C   0  0  0  0  0  0  0  0  0  0  0  0
    0.4075    0.1291   -1.2065 C   0  0  0  0  0  0  0  0  0  0  0  0
   -0.3552   -1.0541   -1.8595 C   0  0  0  0  0  0  0  0  0  0  0  0
   -1.3039   -1.7759   -0.9358 C   0  0  0  0  0  0  0  0  0  0  0  0
   -2.2602   -2.5891   -1.4106 C   0  0  0  0  0  0  0  0  0  0  0  0
   -3.3007   -3.1858   -0.4896 C   0  0  0  0  0  0  0  0  0  0  0  0
   -4.7622   -2.7759   -0.8538 C   0  0  0  0  0  0  0  0  0  0  0  0
   -5.2752   -3.6736   -2.0174 C   0  0  0  0  0  0  0  0  0  0  0  0
   -6.7913   -3.5107   -2.2181 C   0  0  0  0  0  0  0  0  0  0  0  0
   -7.4951   -3.8396   -1.0366 O   0  0  0  0  0  0  0  0  0  0  0  0
   -7.1610   -2.9329   -0.0050 C   0  0  0  0  0  0  0  0  0  0  0  0
   -5.6762   -3.0500    0.3707 C   0  0  0  0  0  0  0  0  0  0  0  0
   -4.8369   -1.2963   -1.2538 C   0  0  0  0  0  0  0  0  0  0  0  0
   -4.7148   -0.9695   -2.4659 O   0  0  0  0  0  0  0  0  0  0  0  0
   -5.0366   -0.2547   -0.2885 N   0  0  0  0  0  0  0  0  0  0  0  0
   -3.9328    0.2003    0.5631 C   0  0  0  0  0  0  0  0  0  0  0  0
   -4.4436    0.9649    1.8011 C   0  0  0  0  0  0  0  0  0  0  0  0
   -5.3109    2.1574    1.4720 C   0  0  0  0  0  0  0  0  0  0  0  0
   -4.7283    3.3956    1.1487 C   0  0  0  0  0  0  0  0  0  0  0  0
   -5.5359    4.4916    0.8288 C   0  0  0  0  0  0  0  0  0  0  0  0
   -6.9275    4.3632    0.8383 C   0  0  0  0  0  0  0  0  0  0  0  0
   -7.5157    3.1394    1.1684 C   0  0  0  0  0  0  0  0  0  0  0  0
   -6.7116    2.0398    1.4859 C   0  0  0  0  0  0  0  0  0  0  0  0
   -1.2830    0.6133    1.0388 H   0  0  0  0  0  0  0  0  0  0  0  0
   -0.9585    1.7017   -1.8060 H   0  0  0  0  0  0  0  0  0  0  0  0
   -0.3176    3.3290    0.0264 H   0  0  0  0  0  0  0  0  0  0  0  0
    1.0013    2.8956   -1.1143 H   0  0  0  0  0  0  0  0  0  0  0  0
    1.9019    2.9083    1.1394 H   0  0  0  0  0  0  0  0  0  0  0  0
    0.6038    1.8450    1.7593 H   0  0  0  0  0  0  0  0  0  0  0  0
    4.0527    2.5023    0.4242 H   0  0  0  0  0  0  0  0  0  0  0  0
    4.6466    2.0524    2.0519 H   0  0  0  0  0  0  0  0  0  0  0  0
    5.3569    0.5320   -0.5582 H   0  0  0  0  0  0  0  0  0  0  0  0
    6.3087    1.9022    0.0920 H   0  0  0  0  0  0  0  0  0  0  0  0
    6.6110    0.6019    2.2809 H   0  0  0  0  0  0  0  0  0  0  0  0
    5.8459   -0.8063    1.5022 H   0  0  0  0  0  0  0  0  0  0  0  0
   11.8846   -0.3081   -0.5980 H   0  0  0  0  0  0  0  0  0  0  0  0
   12.4452    1.8560    0.5264 H   0  0  0  0  0  0  0  0  0  0  0  0
   10.6911    3.1102    1.7690 H   0  0  0  0  0  0  0  0  0  0  0  0
    8.3645    2.2129    1.9040 H   0  0  0  0  0  0  0  0  0  0  0  0
    0.6919   -0.7482    0.7984 H   0  0  0  0  0  0  0  0  0  0  0  0
    2.0179   -1.0602   -0.3686 H   0  0  0  0  0  0  0  0  0  0  0  0
    1.1115    0.4893   -1.9907 H   0  0  0  0  0  0  0  0  0  0  0  0
    0.3793   -1.7905   -2.2522 H   0  0  0  0  0  0  0  0  0  0  0  0
   -0.9243   -0.6615   -2.7314 H   0  0  0  0  0  0  0  0  0  0  0  0
   -1.2473   -1.6061    0.1316 H   0  0  0  0  0  0  0  0  0  0  0  0
   -2.3273   -2.7850   -2.4768 H   0  0  0  0  0  0  0  0  0  0  0  0
   -3.1936   -4.2914   -0.5207 H   0  0  0  0  0  0  0  0  0  0  0  0
   -3.0837   -2.9070    0.5638 H   0  0  0  0  0  0  0  0  0  0  0  0
   -5.0785   -4.7451   -1.7898 H   0  0  0  0  0  0  0  0  0  0  0  0
   -4.7453   -3.4423   -2.9669 H   0  0  0  0  0  0  0  0  0  0  0  0
   -7.1168   -4.2050   -3.0220 H   0  0  0  0  0  0  0  0  0  0  0  0
   -7.0446   -2.4821   -2.5603 H   0  0  0  0  0  0  0  0  0  0  0  0
   -7.4246   -1.8891   -0.2888 H   0  0  0  0  0  0  0  0  0  0  0  0
   -7.7687   -3.1849    0.8895 H   0  0  0  0  0  0  0  0  0  0  0  0
   -5.4478   -2.3542    1.2073 H   0  0  0  0  0  0  0  0  0  0  0  0
   -5.4957   -4.0819    0.7476 H   0  0  0  0  0  0  0  0  0  0  0  0
   -5.7625    0.4505   -0.5512 H   0  0  0  0  0  0  0  0  0  0  0  0
   -3.3981   -0.6887    0.9511 H   0  0  0  0  0  0  0  0  0  0  0  0
   -5.0139    0.2565    2.4421 H   0  0  0  0  0  0  0  0  0  0  0  0
   -3.5741    1.2997    2.4103 H   0  0  0  0  0  0  0  0  0  0  0  0
   -3.6513    3.5084    1.1372 H   0  0  0  0  0  0  0  0  0  0  0  0
   -5.0827    5.4408    0.5733 H   0  0  0  0  0  0  0  0  0  0  0  0
   -7.5513    5.2124    0.5907 H   0  0  0  0  0  0  0  0  0  0  0  0
   -8.5940    3.0423    1.1778 H   0  0  0  0  0  0  0  0  0  0  0  0
   -7.1816    1.0958    1.7332 H   0  0  0  0  0  0  0  0  0  0  0  0
  1  2  2  0
  2  3  1  0
  3  4  1  0
  4  5  1  0
  5  6  1  0
  6  7  1  0
  7  8  1  0
  8  9  2  0
  8 10  1  0
 10 11  1  0
 11 12  1  0
 12 13  1  0
 13 14  1  0
 14 15  1  0
 15 16  1  0
 15 17  1  0
 15 18  1  0
 14 19  2  0
 19 20  1  0
 20 21  2  0
 21 22  1  0
 22 23  2  0
 23 24  1  0
 24 25  2  0
  7 26  1  0
 26 27  1  0
 27 28  1  0
 28 29  1  0
 29 30  2  0
 30 31  1  0
 31 32  1  0
 32 33  1  0
 33 34  1  0
 34 35  1  0
 35 36  1  0
 36 37  1  0
 32 38  1  0
 38 39  2  0
 38 40  1  0
 40 41  1  0
 41 42  1  0
 42 43  1  0
 43 44  2  0
 44 45  1  0
 45 46  2  0
 46 47  1  0
 47 48  2  0
 41  2  1  0
 48 43  1  0
 27  4  1  0
 37 32  1  0
 25 13  1  0
 25 20  1  0
  3 49  1  0
  4 50  1  0
  5 51  1  0
  5 52  1  0
  6 53  1  0
  6 54  1  0
 10 55  1  0
 10 56  1  0
 11 57  1  0
 11 58  1  0
 12 59  1  0
 12 60  1  0
 21 61  1  0
 22 62  1  0
 23 63  1  0
 24 64  1  0
 26 65  1  0
 26 66  1  0
 27 67  1  0
 28 68  1  0
 28 69  1  0
 29 70  1  0
 30 71  1  0
 31 72  1  0
 31 73  1  0
 33 74  1  0
 33 75  1  0
 34 76  1  0
 34 77  1  0
 36 78  1  0
 36 79  1  0
 37 80  1  0
 37 81  1  0
 40 82  1  0
 41 83  1  0
 42 84  1  0
 42 85  1  0
 44 86  1  0
 45 87  1  0
 46 88  1  0
 47 89  1  0
 48 90  1  0
M  END
$$$$
