
     RDKit          3D

 85 88  0  0  0  0  0  0  0  0999 V2000
    7.4357    1.0917   -2.9592 C   0  0  0  0  0  0  0  0  0  0  0  0
    7.9103   -0.0550   -2.0607 C   0  0  0  0  0  0  0  0  0  0  0  0
    6.7913   -0.8838   -1.6133 N   0  0  0  0  0  0  0  0  0  0  0  0
    5.7626   -1.2156   -2.3834 N   0  0  0  0  0  0  0  0  0  0  0  0
    4.8614   -2.1291   -1.9208 C   0  0  0  0  0  0  0  0  0  0  0  0
    3.7473   -2.6545   -1.0591 C   0  0  0  0  0  0  0  0  0  0  0  0
    3.4923   -3.9020   -1.1100 O   0  0  0  0  0  0  0  0  0  0  0  0
    2.7803   -1.7495   -0.4623 N   0  0  0  0  0  0  0  0  0  0  0  0
    1.7561   -2.2858    0.4518 C   0  0  0  0  0  0  0  0  0  0  0  0
    1.9051   -1.6826    1.8574 C   0  0  0  0  0  0  0  0  0  0  0  0
    0.8376   -2.2443    2.8025 C   0  0  0  0  0  0  0  0  0  0  0  0
   -0.5675   -1.6671    2.5296 C   0  0  0  0  0  0  0  0  0  0  0  0
   -0.5824   -0.2515    2.6910 O   0  0  0  0  0  0  0  0  0  0  0  0
   -1.7031    0.4691    3.1314 C   0  0  0  0  0  0  0  0  0  0  0  0
   -1.5018    1.4011    4.1649 C   0  0  0  0  0  0  0  0  0  0  0  0
   -2.5835    2.1039    4.6990 C   0  0  0  0  0  0  0  0  0  0  0  0
   -3.8869    1.8859    4.2256 C   0  0  0  0  0  0  0  0  0  0  0  0
   -5.2240    2.8052    4.8992 Cl  0  0  0  0  0  0  0  0  0  0  0  0
   -4.0965    0.9803    3.1695 C   0  0  0  0  0  0  0  0  0  0  0  0
   -3.0150    0.2925    2.5916 C   0  0  0  0  0  0  0  0  0  0  0  0
   -3.2780   -0.5949    1.4375 C   0  0  0  0  0  0  0  0  0  0  0  0
   -3.5751   -1.8025    1.6811 O   0  0  0  0  0  0  0  0  0  0  0  0
   -3.1974   -0.1113    0.0619 N   0  0  0  0  0  0  0  0  0  0  0  0
   -3.4348   -1.1079   -0.9950 C   0  0  0  0  0  0  0  0  0  0  0  0
   -3.0280    1.3337   -0.2647 C   0  0  0  0  0  0  0  0  0  0  0  0
   -4.2841    1.9176   -0.9546 C   0  0  0  0  0  0  0  0  0  0  0  0
   -5.4836    1.8853   -0.0344 C   0  0  0  0  0  0  0  0  0  0  0  0
   -5.6634    2.9150    0.9055 C   0  0  0  0  0  0  0  0  0  0  0  0
   -6.7734    2.8993    1.7576 C   0  0  0  0  0  0  0  0  0  0  0  0
   -7.6937    1.8506    1.6903 C   0  0  0  0  0  0  0  0  0  0  0  0
   -7.5157    0.8165    0.7675 C   0  0  0  0  0  0  0  0  0  0  0  0
   -6.4214    0.8370   -0.1023 C   0  0  0  0  0  0  0  0  0  0  0  0
   -1.7458    1.5904   -1.0589 C   0  0  0  0  0  0  0  0  0  0  0  0
   -0.8081    2.2333   -0.5002 O   0  0  0  0  0  0  0  0  0  0  0  0
   -1.4866    0.9754   -2.3318 N   0  0  0  0  0  0  0  0  0  0  0  0
   -2.0091    1.5595   -3.5640 C   0  0  0  0  0  0  0  0  0  0  0  0
   -0.4088   -0.0259   -2.4023 C   0  0  0  0  0  0  0  0  0  0  0  0
    0.9758    0.6135   -2.7181 C   0  0  0  0  0  0  0  0  0  0  0  0
    2.1383   -0.3660   -2.4488 C   0  0  0  0  0  0  0  0  0  0  0  0
    2.6012   -0.3708   -0.9725 C   0  0  0  0  0  0  0  0  0  0  0  0
    5.7733   -2.6301   -0.8550 C   0  0  0  0  0  0  0  0  0  0  0  0
    6.8342   -1.7695   -0.6427 C   0  0  0  0  0  0  0  0  0  0  0  0
    7.9100   -1.8967    0.3961 C   0  0  0  0  0  0  0  0  0  0  0  0
    7.0749    0.6930   -3.9324 H   0  0  0  0  0  0  0  0  0  0  0  0
    6.6334    1.6753   -2.4713 H   0  0  0  0  0  0  0  0  0  0  0  0
    8.2832    1.7778   -3.1499 H   0  0  0  0  0  0  0  0  0  0  0  0
    8.6627   -0.6936   -2.6079 H   0  0  0  0  0  0  0  0  0  0  0  0
    8.4116    0.4097   -1.1821 H   0  0  0  0  0  0  0  0  0  0  0  0
    1.8069   -3.3914    0.5511 H   0  0  0  0  0  0  0  0  0  0  0  0
    0.7560   -2.0460    0.0368 H   0  0  0  0  0  0  0  0  0  0  0  0
    2.9277   -1.9415    2.2282 H   0  0  0  0  0  0  0  0  0  0  0  0
    1.8392   -0.5736    1.8351 H   0  0  0  0  0  0  0  0  0  0  0  0
    0.8000   -3.3566    2.7438 H   0  0  0  0  0  0  0  0  0  0  0  0
    1.1379   -1.9890    3.8380 H   0  0  0  0  0  0  0  0  0  0  0  0
   -0.9142   -1.9256    1.5048 H   0  0  0  0  0  0  0  0  0  0  0  0
   -1.2700   -2.1318    3.2479 H   0  0  0  0  0  0  0  0  0  0  0  0
   -0.5081    1.5519    4.5707 H   0  0  0  0  0  0  0  0  0  0  0  0
   -2.4065    2.8164    5.4968 H   0  0  0  0  0  0  0  0  0  0  0  0
   -5.0968    0.8131    2.7958 H   0  0  0  0  0  0  0  0  0  0  0  0
   -3.4906   -0.6545   -2.0049 H   0  0  0  0  0  0  0  0  0  0  0  0
   -4.3964   -1.6185   -0.8245 H   0  0  0  0  0  0  0  0  0  0  0  0
   -2.6185   -1.8670   -0.9630 H   0  0  0  0  0  0  0  0  0  0  0  0
   -2.8982    1.9098    0.6751 H   0  0  0  0  0  0  0  0  0  0  0  0
   -4.0968    2.9773   -1.2395 H   0  0  0  0  0  0  0  0  0  0  0  0
   -4.5272    1.3577   -1.8789 H   0  0  0  0  0  0  0  0  0  0  0  0
   -4.9703    3.7350    0.9728 H   0  0  0  0  0  0  0  0  0  0  0  0
   -6.9093    3.7007    2.4740 H   0  0  0  0  0  0  0  0  0  0  0  0
   -8.5342    1.8287    2.3490 H   0  0  0  0  0  0  0  0  0  0  0  0
   -8.2282   -0.0060    0.7296 H   0  0  0  0  0  0  0  0  0  0  0  0
   -6.3145    0.0466   -0.8243 H   0  0  0  0  0  0  0  0  0  0  0  0
   -1.2457    2.2430   -3.9910 H   0  0  0  0  0  0  0  0  0  0  0  0
   -2.9570    2.1121   -3.4084 H   0  0  0  0  0  0  0  0  0  0  0  0
   -2.2089    0.7804   -4.3196 H   0  0  0  0  0  0  0  0  0  0  0  0
   -0.6619   -0.7958   -3.1637 H   0  0  0  0  0  0  0  0  0  0  0  0
   -0.3582   -0.5516   -1.4224 H   0  0  0  0  0  0  0  0  0  0  0  0
    1.0196    0.8662   -3.7957 H   0  0  0  0  0  0  0  0  0  0  0  0
    1.1474    1.5538   -2.1538 H   0  0  0  0  0  0  0  0  0  0  0  0
    1.8550   -1.3959   -2.7802 H   0  0  0  0  0  0  0  0  0  0  0  0
    3.0120   -0.0629   -3.0749 H   0  0  0  0  0  0  0  0  0  0  0  0
    1.8656    0.1589   -0.3352 H   0  0  0  0  0  0  0  0  0  0  0  0
    3.5747    0.1832   -0.8806 H   0  0  0  0  0  0  0  0  0  0  0  0
    5.7262   -3.4565   -0.1212 H   0  0  0  0  0  0  0  0  0  0  0  0
    7.5739   -2.6086    1.1810 H   0  0  0  0  0  0  0  0  0  0  0  0
    8.8502   -2.2800   -0.0625 H   0  0  0  0  0  0  0  0  0  0  0  0
    8.1084   -0.9045    0.8606 H   0  0  0  0  0  0  0  0  0  0  0  0
  1  2  1  0
  2  3  1  0
  3  4  1  0
  4  5  2  0
  5  6  1  0
  6  7  2  0
  6  8  1  0
  8  9  1  0
  9 10  1  0
 10 11  1  0
 11 12  1  0
 12 13  1  0
 13 14  1  0
 14 15  2  0
 15 16  1  0
 16 17  2  0
 17 18  1  0
 17 19  1  0
 19 20  2  0
 20 21  1  0
 21 22  2  0
 21 23  1  0
 23 24  1  0
 23 25  1  0
 25 26  1  0
 26 27  1  0
 27 28  2  0
 28 29  1  0
 29 30  2  0
 30 31  1  0
 31 32  2  0
 25 33  1  0
 33 34  2  0
 33 35  1  0
 35 36  1  0
 35 37  1  0
 37 38  1  0
 38 39  1  0
 39 40  1  0
  5 41  1  0
 41 42  2  0
 42 43  1  0
 42  3  1  0
 40  8  1  0
 20 14  1  0
 32 27  1  0
  1 44  1  0
  1 45  1  0
  1 46  1  0
  2 47  1  0
  2 48  1  0
  9 49  1  0
  9 50  1  0
 10 51  1  0
 10 52  1  0
 11 53  1  0
 11 54  1  0
 12 55  1  0
 12 56  1  0
 15 57  1  0
 16 58  1  0
 19 59  1  0
 24 60  1  0
 24 61  1  0
 24 62  1  0
 25 63  1  0
 26 64  1  0
 26 65  1  0
 28 66  1  0
 29 67  1  0
 30 68  1  0
 31 69  1  0
 32 70  1  0
 36 71  1  0
 36 72  1  0
 36 73  1  0
 37 74  1  0
 37 75  1  0
 38 76  1  0
 38 77  1  0
 39 78  1  0
 39 79  1  0
 40 80  1  0
 40 81  1  0
 41 82  1  0
 43 83  1  0
 43 84  1  0
 43 85  1  0
M  END
$$$$
