
     RDKit          3D

 83 86  0  0  0  0  0  0  0  0999 V2000
    6.9848    5.0552    0.6519 C   0  0  0  0  0  0  0  0  0  0  0  0
    7.3715    3.7383    1.0305 O   0  0  0  0  0  0  0  0  0  0  0  0
    6.8153    2.5588    0.5060 C   0  0  0  0  0  0  0  0  0  0  0  0
    5.7694    2.5876   -0.4335 C   0  0  0  0  0  0  0  0  0  0  0  0
    5.2468    1.3997   -0.9524 C   0  0  0  0  0  0  0  0  0  0  0  0
    4.0752    1.4374   -1.8977 C   0  0  0  0  0  0  0  0  0  0  0  0
    2.8288    1.4042   -1.1354 N   0  0  0  0  0  0  0  0  0  0  0  0
    2.2725    0.1806   -0.6323 C   0  0  0  0  0  0  0  0  0  0  0  0
    2.7230   -0.9313   -1.0279 O   0  0  0  0  0  0  0  0  0  0  0  0
    1.2112    0.2200    0.4295 C   0  0  0  0  0  0  0  0  0  0  0  0
    0.2252   -0.9049    0.2603 C   0  0  0  0  0  0  0  0  0  0  0  0
    0.4044   -2.1076    0.9513 C   0  0  0  0  0  0  0  0  0  0  0  0
   -0.4923   -3.1568    0.7702 C   0  0  0  0  0  0  0  0  0  0  0  0
   -1.5900   -3.0211   -0.0866 C   0  0  0  0  0  0  0  0  0  0  0  0
   -1.7700   -1.8234   -0.8280 C   0  0  0  0  0  0  0  0  0  0  0  0
   -0.8382   -0.7810   -0.6449 C   0  0  0  0  0  0  0  0  0  0  0  0
   -2.8468   -1.6949   -1.8947 C   0  0  0  0  0  0  0  0  0  0  0  0
   -3.6956   -0.4880   -1.6802 N   0  0  0  0  0  0  0  0  0  0  0  0
   -3.3138    0.6093   -2.6046 C   0  0  0  0  0  0  0  0  0  0  0  0
   -3.6878    1.9448   -2.0137 C   0  0  0  0  0  0  0  0  0  0  0  0
   -4.5571    2.8114   -2.6997 C   0  0  0  0  0  0  0  0  0  0  0  0
   -4.8993    4.0488   -2.1444 C   0  0  0  0  0  0  0  0  0  0  0  0
   -4.3738    4.4324   -0.9072 C   0  0  0  0  0  0  0  0  0  0  0  0
   -3.5057    3.5785   -0.2230 C   0  0  0  0  0  0  0  0  0  0  0  0
   -3.1633    2.3393   -0.7699 C   0  0  0  0  0  0  0  0  0  0  0  0
   -5.1390   -0.7885   -1.8599 C   0  0  0  0  0  0  0  0  0  0  0  0
   -5.7739   -1.2827   -0.5962 C   0  0  0  0  0  0  0  0  0  0  0  0
   -6.5909   -2.2400   -0.6632 O   0  0  0  0  0  0  0  0  0  0  0  0
   -5.5586   -0.6036    0.6517 N   0  0  0  0  0  0  0  0  0  0  0  0
   -6.3773   -0.8613    1.8389 C   0  0  0  0  0  0  0  0  0  0  0  0
   -5.6536   -1.7541    2.8617 C   0  0  0  0  0  0  0  0  0  0  0  0
   -5.2752   -3.1397    2.3043 C   0  0  0  0  0  0  0  0  0  0  0  0
   -3.8772   -3.1378    1.6613 C   0  0  0  0  0  0  0  0  0  0  0  0
   -3.7944   -4.0782    0.4470 C   0  0  0  0  0  0  0  0  0  0  0  0
   -2.4907   -4.0927   -0.1476 O   0  0  0  0  0  0  0  0  0  0  0  0
    5.7630    0.1736   -0.5196 C   0  0  0  0  0  0  0  0  0  0  0  0
    6.7936    0.1166    0.4372 C   0  0  0  0  0  0  0  0  0  0  0  0
    7.2833   -1.1186    0.8899 O   0  0  0  0  0  0  0  0  0  0  0  0
    6.7983   -2.3927    0.4757 C   0  0  0  0  0  0  0  0  0  0  0  0
    7.3290    1.3273    0.9498 C   0  0  0  0  0  0  0  0  0  0  0  0
    8.3639    1.3813    1.9044 O   0  0  0  0  0  0  0  0  0  0  0  0
    9.0368    0.2730    2.4901 C   0  0  0  0  0  0  0  0  0  0  0  0
    7.6042    5.7884    1.2096 H   0  0  0  0  0  0  0  0  0  0  0  0
    7.1512    5.2049   -0.4356 H   0  0  0  0  0  0  0  0  0  0  0  0
    5.9183    5.2281    0.9059 H   0  0  0  0  0  0  0  0  0  0  0  0
    5.3518    3.5303   -0.7606 H   0  0  0  0  0  0  0  0  0  0  0  0
    4.1077    2.3684   -2.5069 H   0  0  0  0  0  0  0  0  0  0  0  0
    4.1151    0.5865   -2.6144 H   0  0  0  0  0  0  0  0  0  0  0  0
    2.4197    2.3151   -0.8230 H   0  0  0  0  0  0  0  0  0  0  0  0
    0.6709    1.1905    0.3932 H   0  0  0  0  0  0  0  0  0  0  0  0
    1.7011    0.1553    1.4242 H   0  0  0  0  0  0  0  0  0  0  0  0
    1.2384   -2.2346    1.6313 H   0  0  0  0  0  0  0  0  0  0  0  0
   -0.3527   -4.0762    1.3238 H   0  0  0  0  0  0  0  0  0  0  0  0
   -0.9127    0.1319   -1.2082 H   0  0  0  0  0  0  0  0  0  0  0  0
   -2.3505   -1.6762   -2.8917 H   0  0  0  0  0  0  0  0  0  0  0  0
   -3.4567   -2.6201   -1.9182 H   0  0  0  0  0  0  0  0  0  0  0  0
   -3.7864    0.4644   -3.6036 H   0  0  0  0  0  0  0  0  0  0  0  0
   -2.2253    0.6312   -2.8099 H   0  0  0  0  0  0  0  0  0  0  0  0
   -4.9741    2.5281   -3.6567 H   0  0  0  0  0  0  0  0  0  0  0  0
   -5.5700    4.7110   -2.6764 H   0  0  0  0  0  0  0  0  0  0  0  0
   -4.6403    5.3903   -0.4802 H   0  0  0  0  0  0  0  0  0  0  0  0
   -3.0965    3.8769    0.7353 H   0  0  0  0  0  0  0  0  0  0  0  0
   -2.4927    1.6884   -0.2254 H   0  0  0  0  0  0  0  0  0  0  0  0
   -5.2958   -1.5198   -2.6855 H   0  0  0  0  0  0  0  0  0  0  0  0
   -5.7131    0.1210   -2.1441 H   0  0  0  0  0  0  0  0  0  0  0  0
   -4.7978    0.1104    0.7185 H   0  0  0  0  0  0  0  0  0  0  0  0
   -7.3505   -1.3206    1.5561 H   0  0  0  0  0  0  0  0  0  0  0  0
   -6.6109    0.1107    2.3261 H   0  0  0  0  0  0  0  0  0  0  0  0
   -4.7556   -1.2306    3.2574 H   0  0  0  0  0  0  0  0  0  0  0  0
   -6.3416   -1.9012    3.7218 H   0  0  0  0  0  0  0  0  0  0  0  0
   -5.2682   -3.8732    3.1390 H   0  0  0  0  0  0  0  0  0  0  0  0
   -6.0542   -3.4853    1.5920 H   0  0  0  0  0  0  0  0  0  0  0  0
   -3.1238   -3.4451    2.4184 H   0  0  0  0  0  0  0  0  0  0  0  0
   -3.6098   -2.1136    1.3318 H   0  0  0  0  0  0  0  0  0  0  0  0
   -4.0438   -5.1134    0.7650 H   0  0  0  0  0  0  0  0  0  0  0  0
   -4.5390   -3.7810   -0.3153 H   0  0  0  0  0  0  0  0  0  0  0  0
    5.3459   -0.7360   -0.9274 H   0  0  0  0  0  0  0  0  0  0  0  0
    7.3515   -3.1855    1.0193 H   0  0  0  0  0  0  0  0  0  0  0  0
    5.7163   -2.4894    0.7129 H   0  0  0  0  0  0  0  0  0  0  0  0
    6.9654   -2.5282   -0.6134 H   0  0  0  0  0  0  0  0  0  0  0  0
    9.8147    0.6517    3.1868 H   0  0  0  0  0  0  0  0  0  0  0  0
    9.5390   -0.3305    1.7070 H   0  0  0  0  0  0  0  0  0  0  0  0
    8.3197   -0.3423    3.0721 H   0  0  0  0  0  0  0  0  0  0  0  0
  1  2  1  0
  2  3  1  0
  3  4  2  0
  4  5  1  0
  5  6  1  0
  6  7  1  0
  7  8  1  0
  8  9  2  0
  8 10  1  0
 10 11  1  0
 11 12  2  0
 12 13  1  0
 13 14  2  0
 14 15  1  0
 15 16  2  0
 15 17  1  0
 17 18  1  0
 18 19  1  0
 19 20  1  0
 20 21  2  0
 21 22  1  0
 22 23  2  0
 23 24  1  0
 24 25  2  0
 18 26  1  0
 26 27  1  0
 27 28  2  0
 27 29  1  0
 29 30  1  0
 30 31  1  0
 31 32  1  0
 32 33  1  0
 33 34  1  0
 34 35  1  0
  5 36  2  0
 36 37  1  0
 37 38  1  0
 38 39  1  0
 37 40  2  0
 40 41  1  0
 41 42  1  0
 40  3  1  0
 16 11  1  0
 25 20  1  0
 35 14  1  0
  1 43  1  0
  1 44  1  0
  1 45  1  0
  4 46  1  0
  6 47  1  0
  6 48  1  0
  7 49  1  0
 10 50  1  0
 10 51  1  0
 12 52  1  0
 13 53  1  0
 16 54  1  0
 17 55  1  0
 17 56  1  0
 19 57  1  0
 19 58  1  0
 21 59  1  0
 22 60  1  0
 23 61  1  0
 24 62  1  0
 25 63  1  0
 26 64  1  0
 26 65  1  0
 29 66  1  0
 30 67  1  0
 30 68  1  0
 31 69  1  0
 31 70  1  0
 32 71  1  0
 32 72  1  0
 33 73  1  0
 33 74  1  0
 34 75  1  0
 34 76  1  0
 36 77  1  0
 39 78  1  0
 39 79  1  0
 39 80  1  0
 42 81  1  0
 42 82  1  0
 42 83  1  0
M  END
$$$$
