
     RDKit          3D

 87 90  0  0  0  0  0  0  0  0999 V2000
   -5.4823   -1.2810   -0.1968 C   0  0  0  0  0  0  0  0  0  0  0  0
   -4.5873   -1.2037    0.8931 O   0  0  0  0  0  0  0  0  0  0  0  0
   -3.2849   -0.8542    0.4502 C   0  0  0  0  0  0  0  0  0  0  0  0
   -3.0982    0.6887    0.5094 C   0  0  0  0  0  0  0  0  0  0  0  0
   -2.3485    1.1975   -0.6592 N   0  0  0  0  0  0  0  0  0  0  0  0
   -3.1052    1.6196   -1.8125 C   0  0  0  0  0  0  0  0  0  0  0  0
   -2.8170    1.1507   -2.9481 O   0  0  0  0  0  0  0  0  0  0  0  0
   -4.2101    2.6012   -1.6939 C   0  0  0  0  0  0  0  0  0  0  0  0
   -4.1641    3.5991   -0.7038 C   0  0  0  0  0  0  0  0  0  0  0  0
   -5.1933    4.5374   -0.5944 C   0  0  0  0  0  0  0  0  0  0  0  0
   -6.2809    4.4902   -1.4692 C   0  0  0  0  0  0  0  0  0  0  0  0
   -6.3386    3.5071   -2.4594 C   0  0  0  0  0  0  0  0  0  0  0  0
   -5.3101    2.5663   -2.5779 C   0  0  0  0  0  0  0  0  0  0  0  0
   -5.4043    1.6090   -3.5356 F   0  0  0  0  0  0  0  0  0  0  0  0
   -0.9162    0.8842   -0.8485 C   0  0  0  0  0  0  0  0  0  0  0  0
   -0.0125    1.3510    0.3247 C   0  0  0  0  0  0  0  0  0  0  0  0
   -0.1031    2.8541    0.7043 C   0  0  0  0  0  0  0  0  0  0  0  0
    0.6203    3.8941   -0.1909 C   0  0  0  0  0  0  0  0  0  0  0  0
   -0.1525    4.1997   -1.4866 C   0  0  0  0  0  0  0  0  0  0  0  0
    0.8086    5.1996    0.5989 C   0  0  0  0  0  0  0  0  0  0  0  0
    1.3874    0.8667    0.2033 N   0  0  0  0  0  0  0  0  0  0  0  0
    2.0686    0.7782   -1.0741 C   0  0  0  0  0  0  0  0  0  0  0  0
    1.8639    1.6345   -1.9724 O   0  0  0  0  0  0  0  0  0  0  0  0
    2.9436   -0.3556   -1.3961 C   0  0  0  0  0  0  0  0  0  0  0  0
    4.2173   -0.3947   -0.9923 C   0  0  0  0  0  0  0  0  0  0  0  0
    5.0835   -1.5748   -1.2011 C   0  0  0  0  0  0  0  0  0  0  0  0
    4.9310   -2.4270   -2.3303 C   0  0  0  0  0  0  0  0  0  0  0  0
    5.7487   -3.5605   -2.4857 C   0  0  0  0  0  0  0  0  0  0  0  0
    6.7071   -3.8101   -1.5093 C   0  0  0  0  0  0  0  0  0  0  0  0
    6.8724   -2.9925   -0.4397 C   0  0  0  0  0  0  0  0  0  0  0  0
    6.0884   -1.8584   -0.2491 C   0  0  0  0  0  0  0  0  0  0  0  0
    7.8867   -3.4820    0.3615 O   0  0  0  0  0  0  0  0  0  0  0  0
    8.3827   -4.6861   -0.2375 C   0  0  0  0  0  0  0  0  0  0  0  0
    7.6059   -4.8561   -1.4336 O   0  0  0  0  0  0  0  0  0  0  0  0
    2.0038    0.2583    1.3991 C   0  0  0  0  0  0  0  0  0  0  0  0
    1.7678   -1.2667    1.4298 C   0  0  0  0  0  0  0  0  0  0  0  0
    1.5153   -1.7930    2.8512 C   0  0  0  0  0  0  0  0  0  0  0  0
    0.9946   -3.2407    2.8571 C   0  0  0  0  0  0  0  0  0  0  0  0
   -0.4209   -3.2505    2.7803 O   0  0  0  0  0  0  0  0  0  0  0  0
   -0.8841   -3.7423    1.5353 C   0  0  0  0  0  0  0  0  0  0  0  0
   -2.2575   -3.1187    1.1966 C   0  0  0  0  0  0  0  0  0  0  0  0
   -3.2889   -3.7004    1.9561 O   0  0  0  0  0  0  0  0  0  0  0  0
   -2.2393   -1.5714    1.3421 C   0  0  0  0  0  0  0  0  0  0  0  0
   -2.3332   -1.1770    2.6915 O   0  0  0  0  0  0  0  0  0  0  0  0
   -6.4996   -1.4793    0.1980 H   0  0  0  0  0  0  0  0  0  0  0  0
   -5.5207   -0.3230   -0.7592 H   0  0  0  0  0  0  0  0  0  0  0  0
   -5.2125   -2.1211   -0.8725 H   0  0  0  0  0  0  0  0  0  0  0  0
   -3.0970   -1.1935   -0.5989 H   0  0  0  0  0  0  0  0  0  0  0  0
   -4.0994    1.1663    0.5526 H   0  0  0  0  0  0  0  0  0  0  0  0
   -2.6137    1.0137    1.4512 H   0  0  0  0  0  0  0  0  0  0  0  0
   -3.3278    3.6591   -0.0206 H   0  0  0  0  0  0  0  0  0  0  0  0
   -5.1469    5.3024    0.1701 H   0  0  0  0  0  0  0  0  0  0  0  0
   -7.0790    5.2154   -1.3786 H   0  0  0  0  0  0  0  0  0  0  0  0
   -7.1859    3.4680   -3.1310 H   0  0  0  0  0  0  0  0  0  0  0  0
   -0.8020   -0.2106   -0.9874 H   0  0  0  0  0  0  0  0  0  0  0  0
   -0.5611    1.3293   -1.7912 H   0  0  0  0  0  0  0  0  0  0  0  0
   -0.4382    0.8419    1.2134 H   0  0  0  0  0  0  0  0  0  0  0  0
   -1.1689    3.1421    0.8179 H   0  0  0  0  0  0  0  0  0  0  0  0
    0.3289    2.9307    1.7275 H   0  0  0  0  0  0  0  0  0  0  0  0
    1.6365    3.5332   -0.4445 H   0  0  0  0  0  0  0  0  0  0  0  0
   -1.2263    4.3817   -1.2747 H   0  0  0  0  0  0  0  0  0  0  0  0
    0.2609    5.1034   -1.9841 H   0  0  0  0  0  0  0  0  0  0  0  0
   -0.0605    3.3804   -2.2184 H   0  0  0  0  0  0  0  0  0  0  0  0
   -0.1752    5.6188    0.9016 H   0  0  0  0  0  0  0  0  0  0  0  0
    1.3444    5.9538   -0.0165 H   0  0  0  0  0  0  0  0  0  0  0  0
    1.4193    5.0183    1.5096 H   0  0  0  0  0  0  0  0  0  0  0  0
    2.5014   -1.1882   -1.9247 H   0  0  0  0  0  0  0  0  0  0  0  0
    4.6124    0.4323   -0.4145 H   0  0  0  0  0  0  0  0  0  0  0  0
    4.1941   -2.2113   -3.0923 H   0  0  0  0  0  0  0  0  0  0  0  0
    5.6374   -4.2192   -3.3367 H   0  0  0  0  0  0  0  0  0  0  0  0
    6.2335   -1.2315    0.6228 H   0  0  0  0  0  0  0  0  0  0  0  0
    8.2258   -5.5472    0.4477 H   0  0  0  0  0  0  0  0  0  0  0  0
    9.4575   -4.5725   -0.4898 H   0  0  0  0  0  0  0  0  0  0  0  0
    3.0916    0.4767    1.4253 H   0  0  0  0  0  0  0  0  0  0  0  0
    1.5904    0.7423    2.3108 H   0  0  0  0  0  0  0  0  0  0  0  0
    0.9134   -1.5164    0.7764 H   0  0  0  0  0  0  0  0  0  0  0  0
    2.6553   -1.7872    1.0089 H   0  0  0  0  0  0  0  0  0  0  0  0
    2.4718   -1.7471    3.4171 H   0  0  0  0  0  0  0  0  0  0  0  0
    0.7796   -1.1464    3.3794 H   0  0  0  0  0  0  0  0  0  0  0  0
    1.5102   -3.8592    2.0845 H   0  0  0  0  0  0  0  0  0  0  0  0
    1.2697   -3.6940    3.8322 H   0  0  0  0  0  0  0  0  0  0  0  0
   -0.1965   -3.5080    0.6892 H   0  0  0  0  0  0  0  0  0  0  0  0
   -0.9823   -4.8486    1.5930 H   0  0  0  0  0  0  0  0  0  0  0  0
   -2.4592   -3.3682    0.1321 H   0  0  0  0  0  0  0  0  0  0  0  0
   -3.0252   -3.6619    2.9119 H   0  0  0  0  0  0  0  0  0  0  0  0
   -1.2556   -1.2404    0.9815 H   0  0  0  0  0  0  0  0  0  0  0  0
   -3.2651   -1.3251    2.9941 H   0  0  0  0  0  0  0  0  0  0  0  0
  1  2  1  0
  2  3  1  0
  3  4  1  0
  4  5  1  0
  5  6  1  0
  6  7  2  0
  6  8  1  0
  8  9  2  0
  9 10  1  0
 10 11  2  0
 11 12  1  0
 12 13  2  0
 13 14  1  0
  5 15  1  0
 15 16  1  0
 16 17  1  0
 17 18  1  0
 18 19  1  0
 18 20  1  0
 16 21  1  0
 21 22  1  0
 22 23  2  0
 22 24  1  0
 24 25  2  0
 25 26  1  0
 26 27  2  0
 27 28  1  0
 28 29  2  0
 29 30  1  0
 30 31  2  0
 30 32  1  0
 32 33  1  0
 33 34  1  0
 21 35  1  0
 35 36  1  0
 36 37  1  0
 37 38  1  0
 38 39  1  0
 39 40  1  0
 40 41  1  0
 41 42  1  0
 41 43  1  0
 43 44  1  0
 43  3  1  0
 13  8  1  0
 31 26  1  0
 34 29  1  0
  1 45  1  0
  1 46  1  0
  1 47  1  0
  3 48  1  0
  4 49  1  0
  4 50  1  0
  9 51  1  0
 10 52  1  0
 11 53  1  0
 12 54  1  0
 15 55  1  0
 15 56  1  0
 16 57  1  0
 17 58  1  0
 17 59  1  0
 18 60  1  0
 19 61  1  0
 19 62  1  0
 19 63  1  0
 20 64  1  0
 20 65  1  0
 20 66  1  0
 24 67  1  0
 25 68  1  0
 27 69  1  0
 28 70  1  0
 31 71  1  0
 33 72  1  0
 33 73  1  0
 35 74  1  0
 35 75  1  0
 36 76  1  0
 36 77  1  0
 37 78  1  0
 37 79  1  0
 38 80  1  0
 38 81  1  0
 40 82  1  0
 40 83  1  0
 41 84  1  0
 42 85  1  0
 43 86  1  0
 44 87  1  0
M  END
$$$$
