
     RDKit          3D

 80 83  0  0  0  0  0  0  0  0999 V2000
   -0.2548    4.3796    0.0358 C   0  0  0  0  0  0  0  0  0  0  0  0
   -1.2526    4.1733   -1.1034 C   0  0  0  0  0  0  0  0  0  0  0  0
   -2.7113    4.1521   -0.6228 C   0  0  0  0  0  0  0  0  0  0  0  0
   -3.0553    2.9609    0.2908 C   0  0  0  0  0  0  0  0  0  0  0  0
   -2.7274    1.6617   -0.3328 N   0  0  0  0  0  0  0  0  0  0  0  0
   -3.5418    1.2508   -1.4946 C   0  0  0  0  0  0  0  0  0  0  0  0
   -4.3528   -0.0366   -1.2691 C   0  0  0  0  0  0  0  0  0  0  0  0
   -4.4661   -0.3685    0.1158 O   0  0  0  0  0  0  0  0  0  0  0  0
   -5.2023   -1.4682    0.5863 C   0  0  0  0  0  0  0  0  0  0  0  0
   -6.4382   -1.8155    0.0056 C   0  0  0  0  0  0  0  0  0  0  0  0
   -7.1661   -2.9061    0.4846 C   0  0  0  0  0  0  0  0  0  0  0  0
   -6.6728   -3.6656    1.5439 C   0  0  0  0  0  0  0  0  0  0  0  0
   -5.4507   -3.3354    2.1301 C   0  0  0  0  0  0  0  0  0  0  0  0
   -4.7071   -2.2361    1.6651 C   0  0  0  0  0  0  0  0  0  0  0  0
   -3.3543   -1.9614    2.2808 C   0  0  0  0  0  0  0  0  0  0  0  0
   -2.2640   -2.8813    1.7002 C   0  0  0  0  0  0  0  0  0  0  0  0
   -1.7552   -2.4281    0.3169 C   0  0  0  0  0  0  0  0  0  0  0  0
   -0.5704   -1.4306    0.3872 C   0  0  0  0  0  0  0  0  0  0  0  0
   -0.7614   -0.1112   -0.4307 C   0  0  0  0  0  0  0  0  0  0  0  0
    0.6248    0.6107   -0.4672 C   0  0  0  0  0  0  0  0  0  0  0  0
    1.5182   -0.0760   -1.4088 N   0  0  0  0  0  0  0  0  0  0  0  0
    2.9180   -0.3090   -1.1382 C   0  0  0  0  0  0  0  0  0  0  0  0
    3.6261   -0.8911   -2.0064 O   0  0  0  0  0  0  0  0  0  0  0  0
    3.5565    0.1234    0.1583 C   0  0  0  0  0  0  0  0  0  0  0  0
    4.9933   -0.1932    0.1816 N   0  0  0  0  0  0  0  0  0  0  0  0
    5.9574    0.8132   -0.2837 C   0  0  0  0  0  0  0  0  0  0  0  0
    6.8248    1.3163    0.8765 C   0  0  0  0  0  0  0  0  0  0  0  0
    8.0126    0.3927    1.1772 C   0  0  0  0  0  0  0  0  0  0  0  0
    7.5983   -0.9754    1.7368 C   0  0  0  0  0  0  0  0  0  0  0  0
    6.8899   -1.8547    0.6981 C   0  0  0  0  0  0  0  0  0  0  0  0
    5.4312   -1.5098    0.5823 C   0  0  0  0  0  0  0  0  0  0  0  0
    4.5796   -2.4026    0.8465 O   0  0  0  0  0  0  0  0  0  0  0  0
    0.9618   -0.4710   -2.7046 C   0  0  0  0  0  0  0  0  0  0  0  0
   -0.4959   -0.0203   -2.8165 C   0  0  0  0  0  0  0  0  0  0  0  0
   -1.2667   -0.4768   -1.7189 O   0  0  0  0  0  0  0  0  0  0  0  0
   -1.7340    0.8135    0.3098 C   0  0  0  0  0  0  0  0  0  0  0  0
   -1.5587    0.9456    1.5537 O   0  0  0  0  0  0  0  0  0  0  0  0
   -0.4938    5.3082    0.5968 H   0  0  0  0  0  0  0  0  0  0  0  0
   -0.2651    3.5158    0.7322 H   0  0  0  0  0  0  0  0  0  0  0  0
    0.7691    4.4732   -0.3837 H   0  0  0  0  0  0  0  0  0  0  0  0
   -1.0167    3.2378   -1.6506 H   0  0  0  0  0  0  0  0  0  0  0  0
   -1.1345    5.0114   -1.8242 H   0  0  0  0  0  0  0  0  0  0  0  0
   -3.3736    4.1424   -1.5137 H   0  0  0  0  0  0  0  0  0  0  0  0
   -2.9307    5.0957   -0.0773 H   0  0  0  0  0  0  0  0  0  0  0  0
   -2.5349    3.1007    1.2609 H   0  0  0  0  0  0  0  0  0  0  0  0
   -4.1420    2.9881    0.5249 H   0  0  0  0  0  0  0  0  0  0  0  0
   -4.2773    2.0479   -1.7388 H   0  0  0  0  0  0  0  0  0  0  0  0
   -2.9163    1.1699   -2.4030 H   0  0  0  0  0  0  0  0  0  0  0  0
   -5.3589    0.1073   -1.7161 H   0  0  0  0  0  0  0  0  0  0  0  0
   -3.8720   -0.8776   -1.8112 H   0  0  0  0  0  0  0  0  0  0  0  0
   -6.8596   -1.2347   -0.8018 H   0  0  0  0  0  0  0  0  0  0  0  0
   -8.1165   -3.1615    0.0343 H   0  0  0  0  0  0  0  0  0  0  0  0
   -7.2381   -4.5130    1.9098 H   0  0  0  0  0  0  0  0  0  0  0  0
   -5.0759   -3.9437    2.9440 H   0  0  0  0  0  0  0  0  0  0  0  0
   -3.0762   -0.8983    2.1669 H   0  0  0  0  0  0  0  0  0  0  0  0
   -3.4190   -2.1417    3.3764 H   0  0  0  0  0  0  0  0  0  0  0  0
   -2.6685   -3.9141    1.6141 H   0  0  0  0  0  0  0  0  0  0  0  0
   -1.4163   -2.9473    2.4161 H   0  0  0  0  0  0  0  0  0  0  0  0
   -2.5917   -2.0360   -0.2841 H   0  0  0  0  0  0  0  0  0  0  0  0
   -1.4077   -3.3336   -0.2278 H   0  0  0  0  0  0  0  0  0  0  0  0
   -0.3145   -1.1910    1.4425 H   0  0  0  0  0  0  0  0  0  0  0  0
    0.3246   -1.9646   -0.0033 H   0  0  0  0  0  0  0  0  0  0  0  0
    1.0489    0.6531    0.5564 H   0  0  0  0  0  0  0  0  0  0  0  0
    0.5095    1.6613   -0.8031 H   0  0  0  0  0  0  0  0  0  0  0  0
    3.0503   -0.3777    1.0107 H   0  0  0  0  0  0  0  0  0  0  0  0
    3.4051    1.2172    0.2897 H   0  0  0  0  0  0  0  0  0  0  0  0
    6.5821    0.3951   -1.1029 H   0  0  0  0  0  0  0  0  0  0  0  0
    5.4206    1.6846   -0.7194 H   0  0  0  0  0  0  0  0  0  0  0  0
    7.2335    2.3122    0.5998 H   0  0  0  0  0  0  0  0  0  0  0  0
    6.2041    1.4578    1.7884 H   0  0  0  0  0  0  0  0  0  0  0  0
    8.6518    0.8939    1.9363 H   0  0  0  0  0  0  0  0  0  0  0  0
    8.6351    0.2600    0.2647 H   0  0  0  0  0  0  0  0  0  0  0  0
    8.5239   -1.5010    2.0591 H   0  0  0  0  0  0  0  0  0  0  0  0
    6.9641   -0.8468    2.6422 H   0  0  0  0  0  0  0  0  0  0  0  0
    6.9846   -2.9154    1.0174 H   0  0  0  0  0  0  0  0  0  0  0  0
    7.3800   -1.7731   -0.2956 H   0  0  0  0  0  0  0  0  0  0  0  0
    1.5480   -0.0042   -3.5252 H   0  0  0  0  0  0  0  0  0  0  0  0
    1.0133   -1.5764   -2.8056 H   0  0  0  0  0  0  0  0  0  0  0  0
   -0.5528    1.0873   -2.8970 H   0  0  0  0  0  0  0  0  0  0  0  0
   -0.9283   -0.4383   -3.7498 H   0  0  0  0  0  0  0  0  0  0  0  0
  1  2  1  0
  2  3  1  0
  3  4  1  0
  4  5  1  0
  5  6  1  0
  6  7  1  0
  7  8  1  0
  8  9  1  0
  9 10  2  0
 10 11  1  0
 11 12  2  0
 12 13  1  0
 13 14  2  0
 14 15  1  0
 15 16  1  0
 16 17  1  0
 17 18  1  0
 18 19  1  0
 19 20  1  0
 20 21  1  0
 21 22  1  0
 22 23  2  0
 22 24  1  0
 24 25  1  0
 25 26  1  0
 26 27  1  0
 27 28  1  0
 28 29  1  0
 29 30  1  0
 30 31  1  0
 31 32  2  0
 21 33  1  0
 33 34  1  0
 34 35  1  0
 19 36  1  0
 36 37  2  0
 36  5  1  0
 14  9  1  0
 35 19  1  0
 31 25  1  0
  1 38  1  0
  1 39  1  0
  1 40  1  0
  2 41  1  0
  2 42  1  0
  3 43  1  0
  3 44  1  0
  4 45  1  0
  4 46  1  0
  6 47  1  0
  6 48  1  0
  7 49  1  0
  7 50  1  0
 10 51  1  0
 11 52  1  0
 12 53  1  0
 13 54  1  0
 15 55  1  0
 15 56  1  0
 16 57  1  0
 16 58  1  0
 17 59  1  0
 17 60  1  0
 18 61  1  0
 18 62  1  0
 20 63  1  0
 20 64  1  0
 24 65  1  0
 24 66  1  0
 26 67  1  0
 26 68  1  0
 27 69  1  0
 27 70  1  0
 28 71  1  0
 28 72  1  0
 29 73  1  0
 29 74  1  0
 30 75  1  0
 30 76  1  0
 33 77  1  0
 33 78  1  0
 34 79  1  0
 34 80  1  0
M  END
$$$$
