
     RDKit          3D

 63 66  0  0  0  0  0  0  0  0999 V2000
    8.3754   -1.8798   -0.2243 C   0  0  0  0  0  0  0  0  0  0  0  0
    7.5148   -0.3663    0.1507 S   0  0  0  0  0  6  0  0  0  0  0  0
    8.5125    0.6380    0.6570 O   0  0  0  0  0  0  0  0  0  0  0  0
    6.5063   -0.6371    1.2337 O   0  0  0  0  0  0  0  0  0  0  0  0
    6.7529    0.2621   -1.2982 N   0  0  0  0  0  0  0  0  0  0  0  0
    5.7747   -0.6738   -1.8896 C   0  0  0  0  0  0  0  0  0  0  0  0
    4.4345   -0.7180   -1.1429 C   0  0  0  0  0  0  0  0  0  0  0  0
    3.9372    0.6366   -0.8816 N   0  0  0  0  0  0  0  0  0  0  0  0
    2.6593    1.1024   -1.3725 C   0  0  0  0  0  0  0  0  0  0  0  0
    2.6213    2.1759   -2.0480 O   0  0  0  0  0  0  0  0  0  0  0  0
    1.3658    0.4076   -1.0727 C   0  0  0  0  0  0  0  0  0  0  0  0
    1.2849   -0.9115   -0.5650 C   0  0  0  0  0  0  0  0  0  0  0  0
    0.0610   -1.5657   -0.5113 C   0  0  0  0  0  0  0  0  0  0  0  0
   -1.1175   -0.9065   -0.8833 C   0  0  0  0  0  0  0  0  0  0  0  0
   -1.0873    0.4692   -1.1714 C   0  0  0  0  0  0  0  0  0  0  0  0
    0.1604    1.1032   -1.2867 C   0  0  0  0  0  0  0  0  0  0  0  0
   -2.3645    1.2820   -1.2184 C   0  0  0  0  0  0  0  0  0  0  0  0
   -2.9775    1.4728    0.1596 C   0  0  0  0  0  0  0  0  0  0  0  0
   -2.1637    1.7303    1.2781 C   0  0  0  0  0  0  0  0  0  0  0  0
   -2.7223    1.9015    2.5488 C   0  0  0  0  0  0  0  0  0  0  0  0
   -4.1056    1.8156    2.7156 C   0  0  0  0  0  0  0  0  0  0  0  0
   -4.9500    1.6043    1.6134 C   0  0  0  0  0  0  0  0  0  0  0  0
   -4.3770    1.4643    0.3296 C   0  0  0  0  0  0  0  0  0  0  0  0
   -6.4159    1.5411    1.8478 C   0  0  0  0  0  0  0  0  0  0  0  0
   -6.9275    2.4037    2.6142 O   0  0  0  0  0  0  0  0  0  0  0  0
   -7.2805    0.5072    1.3205 N   0  0  0  0  0  0  0  0  0  0  0  0
   -6.8659   -0.6344    0.5026 C   0  0  0  0  0  0  0  0  0  0  0  0
   -5.8883   -1.5463    1.2662 C   0  0  0  0  0  0  0  0  0  0  0  0
   -5.4487   -2.6565    0.5027 O   0  0  0  0  0  0  0  0  0  0  0  0
   -4.5101   -2.3016   -0.5000 C   0  0  0  0  0  0  0  0  0  0  0  0
   -3.0905   -2.0910    0.0414 C   0  0  0  0  0  0  0  0  0  0  0  0
   -2.3069   -1.6185   -1.0437 O   0  0  0  0  0  0  0  0  0  0  0  0
    4.8850    1.6222   -0.3256 C   0  0  0  0  0  0  0  0  0  0  0  0
    6.1989    1.6174   -1.1214 C   0  0  0  0  0  0  0  0  0  0  0  0
    9.1860   -2.0327    0.5269 H   0  0  0  0  0  0  0  0  0  0  0  0
    8.8187   -1.8120   -1.2368 H   0  0  0  0  0  0  0  0  0  0  0  0
    7.6643   -2.7369   -0.1852 H   0  0  0  0  0  0  0  0  0  0  0  0
    5.5885   -0.3528   -2.9432 H   0  0  0  0  0  0  0  0  0  0  0  0
    6.1984   -1.6977   -1.9503 H   0  0  0  0  0  0  0  0  0  0  0  0
    3.7215   -1.2708   -1.7953 H   0  0  0  0  0  0  0  0  0  0  0  0
    4.5373   -1.2695   -0.1823 H   0  0  0  0  0  0  0  0  0  0  0  0
    2.1528   -1.4609   -0.2550 H   0  0  0  0  0  0  0  0  0  0  0  0
    0.0197   -2.6116   -0.2150 H   0  0  0  0  0  0  0  0  0  0  0  0
    0.1840    2.1540   -1.5583 H   0  0  0  0  0  0  0  0  0  0  0  0
   -2.1773    2.2805   -1.6629 H   0  0  0  0  0  0  0  0  0  0  0  0
   -3.0902    0.7582   -1.8875 H   0  0  0  0  0  0  0  0  0  0  0  0
   -1.0892    1.8060    1.1876 H   0  0  0  0  0  0  0  0  0  0  0  0
   -2.0841    2.0776    3.4077 H   0  0  0  0  0  0  0  0  0  0  0  0
   -4.5208    1.9538    3.7128 H   0  0  0  0  0  0  0  0  0  0  0  0
   -5.0120    1.3728   -0.5382 H   0  0  0  0  0  0  0  0  0  0  0  0
   -8.3034    0.5910    1.5336 H   0  0  0  0  0  0  0  0  0  0  0  0
   -7.7554   -1.2289    0.2296 H   0  0  0  0  0  0  0  0  0  0  0  0
   -6.4628   -0.2599   -0.4431 H   0  0  0  0  0  0  0  0  0  0  0  0
   -6.4284   -1.9463    2.1486 H   0  0  0  0  0  0  0  0  0  0  0  0
   -5.0358   -0.9825    1.6813 H   0  0  0  0  0  0  0  0  0  0  0  0
   -4.4725   -3.1493   -1.2305 H   0  0  0  0  0  0  0  0  0  0  0  0
   -4.8232   -1.4146   -1.0817 H   0  0  0  0  0  0  0  0  0  0  0  0
   -3.0790   -1.3429    0.8581 H   0  0  0  0  0  0  0  0  0  0  0  0
   -2.6781   -3.0475    0.4347 H   0  0  0  0  0  0  0  0  0  0  0  0
    4.4651    2.6454   -0.3514 H   0  0  0  0  0  0  0  0  0  0  0  0
    5.0753    1.4003    0.7505 H   0  0  0  0  0  0  0  0  0  0  0  0
    6.9427    2.2691   -0.6116 H   0  0  0  0  0  0  0  0  0  0  0  0
    6.0126    2.0580   -2.1262 H   0  0  0  0  0  0  0  0  0  0  0  0
  1  2  1  0
  2  3  2  0
  2  4  2  0
  2  5  1  0
  5  6  1  0
  6  7  1  0
  7  8  1  0
  8  9  1  0
  9 10  2  0
  9 11  1  0
 11 12  2  0
 12 13  1  0
 13 14  2  0
 14 15  1  0
 15 16  2  0
 15 17  1  0
 17 18  1  0
 18 19  2  0
 19 20  1  0
 20 21  2  0
 21 22  1  0
 22 23  2  0
 22 24  1  0
 24 25  2  0
 24 26  1  0
 26 27  1  0
 27 28  1  0
 28 29  1  0
 29 30  1  0
 30 31  1  0
 31 32  1  0
  8 33  1  0
 33 34  1  0
 34  5  1  0
 16 11  1  0
 23 18  1  0
 32 14  1  0
  1 35  1  0
  1 36  1  0
  1 37  1  0
  6 38  1  0
  6 39  1  0
  7 40  1  0
  7 41  1  0
 12 42  1  0
 13 43  1  0
 16 44  1  0
 17 45  1  0
 17 46  1  0
 19 47  1  0
 20 48  1  0
 21 49  1  0
 23 50  1  0
 26 51  1  0
 27 52  1  0
 27 53  1  0
 28 54  1  0
 28 55  1  0
 30 56  1  0
 30 57  1  0
 31 58  1  0
 31 59  1  0
 33 60  1  0
 33 61  1  0
 34 62  1  0
 34 63  1  0
M  END
$$$$
