
     RDKit          3D

 78 81  0  0  0  0  0  0  0  0999 V2000
    9.9061    1.7875    0.2181 C   0  0  0  0  0  0  0  0  0  0  0  0
    8.9743    2.2349   -0.7449 O   0  0  0  0  0  0  0  0  0  0  0  0
    7.6815    1.7401   -0.4422 C   0  0  0  0  0  0  0  0  0  0  0  0
    7.4739    0.3390   -0.9925 C   0  0  0  0  0  0  0  0  0  0  0  0
    8.1217   -0.0207   -2.1911 C   0  0  0  0  0  0  0  0  0  0  0  0
    7.9981   -1.3088   -2.7129 C   0  0  0  0  0  0  0  0  0  0  0  0
    7.2252   -2.2573   -2.0511 C   0  0  0  0  0  0  0  0  0  0  0  0
    6.5400   -1.9115   -0.8864 C   0  0  0  0  0  0  0  0  0  0  0  0
    6.6059   -0.5998   -0.3687 C   0  0  0  0  0  0  0  0  0  0  0  0
    5.7997   -0.2387    0.8681 C   0  0  0  0  0  0  0  0  0  0  0  0
    4.5893   -1.0516    0.9930 N   0  0  0  0  0  0  0  0  0  0  0  0
    3.4987   -0.9483    0.0649 C   0  0  0  0  0  0  0  0  0  0  0  0
    3.5192   -0.0796   -0.8510 O   0  0  0  0  0  0  0  0  0  0  0  0
    2.3243   -1.8714    0.1756 C   0  0  0  0  0  0  0  0  0  0  0  0
    1.1075   -1.1199    0.6418 C   0  0  0  0  0  0  0  0  0  0  0  0
    0.9806   -0.7466    1.9889 C   0  0  0  0  0  0  0  0  0  0  0  0
   -0.1457   -0.0450    2.4257 C   0  0  0  0  0  0  0  0  0  0  0  0
   -1.1643    0.2985    1.5179 C   0  0  0  0  0  0  0  0  0  0  0  0
   -1.0259   -0.0470    0.1568 C   0  0  0  0  0  0  0  0  0  0  0  0
    0.1089   -0.7516   -0.2713 C   0  0  0  0  0  0  0  0  0  0  0  0
   -2.0861    0.3372   -0.8530 C   0  0  0  0  0  0  0  0  0  0  0  0
   -2.7960   -0.8401   -1.3973 N   0  0  0  0  0  0  0  0  0  0  0  0
   -3.5445   -0.5605   -2.6510 C   0  0  0  0  0  0  0  0  0  0  0  0
   -4.6582    0.4622   -2.5003 C   0  0  0  0  0  0  0  0  0  0  0  0
   -4.3675    1.8394   -2.4512 C   0  0  0  0  0  0  0  0  0  0  0  0
   -5.3967    2.7791   -2.3225 C   0  0  0  0  0  0  0  0  0  0  0  0
   -6.7281    2.3589   -2.2708 C   0  0  0  0  0  0  0  0  0  0  0  0
   -7.0336    1.0010   -2.3770 C   0  0  0  0  0  0  0  0  0  0  0  0
   -6.0068    0.0587   -2.5090 C   0  0  0  0  0  0  0  0  0  0  0  0
   -3.3872   -1.7506   -0.3726 C   0  0  0  0  0  0  0  0  0  0  0  0
   -4.8284   -2.1505   -0.5899 C   0  0  0  0  0  0  0  0  0  0  0  0
   -5.0908   -3.0139   -1.4705 O   0  0  0  0  0  0  0  0  0  0  0  0
   -5.9096   -1.6067    0.1911 N   0  0  0  0  0  0  0  0  0  0  0  0
   -5.7748   -1.1953    1.5892 C   0  0  0  0  0  0  0  0  0  0  0  0
   -5.4183    0.2921    1.6972 C   0  0  0  0  0  0  0  0  0  0  0  0
   -5.1487    0.6996    3.1636 C   0  0  0  0  0  0  0  0  0  0  0  0
   -4.1133    1.8339    3.3056 C   0  0  0  0  0  0  0  0  0  0  0  0
   -2.6653    1.3250    3.2590 C   0  0  0  0  0  0  0  0  0  0  0  0
   -2.3304    0.9629    1.9242 O   0  0  0  0  0  0  0  0  0  0  0  0
    9.8889    0.6787    0.3257 H   0  0  0  0  0  0  0  0  0  0  0  0
   10.9242    2.0755   -0.1156 H   0  0  0  0  0  0  0  0  0  0  0  0
    9.7206    2.2773    1.1997 H   0  0  0  0  0  0  0  0  0  0  0  0
    6.9375    2.4046   -0.9297 H   0  0  0  0  0  0  0  0  0  0  0  0
    7.4819    1.7984    0.6507 H   0  0  0  0  0  0  0  0  0  0  0  0
    8.7391    0.6928   -2.7222 H   0  0  0  0  0  0  0  0  0  0  0  0
    8.5148   -1.5744   -3.6266 H   0  0  0  0  0  0  0  0  0  0  0  0
    7.1471   -3.2611   -2.4467 H   0  0  0  0  0  0  0  0  0  0  0  0
    5.9418   -2.6714   -0.4014 H   0  0  0  0  0  0  0  0  0  0  0  0
    6.4399   -0.3920    1.7633 H   0  0  0  0  0  0  0  0  0  0  0  0
    5.4881    0.8267    0.8452 H   0  0  0  0  0  0  0  0  0  0  0  0
    4.5251   -1.7316    1.7846 H   0  0  0  0  0  0  0  0  0  0  0  0
    2.5473   -2.6943    0.8872 H   0  0  0  0  0  0  0  0  0  0  0  0
    2.1416   -2.3433   -0.8150 H   0  0  0  0  0  0  0  0  0  0  0  0
    1.7538   -1.0061    2.7019 H   0  0  0  0  0  0  0  0  0  0  0  0
   -0.2157    0.2265    3.4706 H   0  0  0  0  0  0  0  0  0  0  0  0
    0.2100   -1.0159   -1.3167 H   0  0  0  0  0  0  0  0  0  0  0  0
   -1.5691    0.8775   -1.6756 H   0  0  0  0  0  0  0  0  0  0  0  0
   -2.8148    1.0454   -0.4146 H   0  0  0  0  0  0  0  0  0  0  0  0
   -2.8299   -0.1861   -3.4163 H   0  0  0  0  0  0  0  0  0  0  0  0
   -3.9315   -1.5051   -3.0843 H   0  0  0  0  0  0  0  0  0  0  0  0
   -3.3489    2.1931   -2.5287 H   0  0  0  0  0  0  0  0  0  0  0  0
   -5.1617    3.8354   -2.2745 H   0  0  0  0  0  0  0  0  0  0  0  0
   -7.5245    3.0867   -2.1716 H   0  0  0  0  0  0  0  0  0  0  0  0
   -8.0674    0.6784   -2.3679 H   0  0  0  0  0  0  0  0  0  0  0  0
   -6.2724   -0.9823   -2.6301 H   0  0  0  0  0  0  0  0  0  0  0  0
   -3.2712   -1.3393    0.6486 H   0  0  0  0  0  0  0  0  0  0  0  0
   -2.7820   -2.6827   -0.3685 H   0  0  0  0  0  0  0  0  0  0  0  0
   -6.8814   -1.7792   -0.1559 H   0  0  0  0  0  0  0  0  0  0  0  0
   -5.0128   -1.8275    2.0941 H   0  0  0  0  0  0  0  0  0  0  0  0
   -6.7416   -1.3648    2.1127 H   0  0  0  0  0  0  0  0  0  0  0  0
   -4.5524    0.5095    1.0507 H   0  0  0  0  0  0  0  0  0  0  0  0
   -6.2621    0.8974    1.3000 H   0  0  0  0  0  0  0  0  0  0  0  0
   -6.1107    1.0424    3.6072 H   0  0  0  0  0  0  0  0  0  0  0  0
   -4.8184   -0.1725    3.7719 H   0  0  0  0  0  0  0  0  0  0  0  0
   -4.2706    2.3286    4.2903 H   0  0  0  0  0  0  0  0  0  0  0  0
   -4.2699    2.6056    2.5199 H   0  0  0  0  0  0  0  0  0  0  0  0
   -1.9816    2.1361    3.5943 H   0  0  0  0  0  0  0  0  0  0  0  0
   -2.5458    0.4553    3.9392 H   0  0  0  0  0  0  0  0  0  0  0  0
  1  2  1  0
  2  3  1  0
  3  4  1  0
  4  5  2  0
  5  6  1  0
  6  7  2  0
  7  8  1  0
  8  9  2  0
  9 10  1  0
 10 11  1  0
 11 12  1  0
 12 13  2  0
 12 14  1  0
 14 15  1  0
 15 16  2  0
 16 17  1  0
 17 18  2  0
 18 19  1  0
 19 20  2  0
 19 21  1  0
 21 22  1  0
 22 23  1  0
 23 24  1  0
 24 25  2  0
 25 26  1  0
 26 27  2  0
 27 28  1  0
 28 29  2  0
 22 30  1  0
 30 31  1  0
 31 32  2  0
 31 33  1  0
 33 34  1  0
 34 35  1  0
 35 36  1  0
 36 37  1  0
 37 38  1  0
 38 39  1  0
  9  4  1  0
 20 15  1  0
 29 24  1  0
 39 18  1  0
  1 40  1  0
  1 41  1  0
  1 42  1  0
  3 43  1  0
  3 44  1  0
  5 45  1  0
  6 46  1  0
  7 47  1  0
  8 48  1  0
 10 49  1  0
 10 50  1  0
 11 51  1  0
 14 52  1  0
 14 53  1  0
 16 54  1  0
 17 55  1  0
 20 56  1  0
 21 57  1  0
 21 58  1  0
 23 59  1  0
 23 60  1  0
 25 61  1  0
 26 62  1  0
 27 63  1  0
 28 64  1  0
 29 65  1  0
 30 66  1  0
 30 67  1  0
 33 68  1  0
 34 69  1  0
 34 70  1  0
 35 71  1  0
 35 72  1  0
 36 73  1  0
 36 74  1  0
 37 75  1  0
 37 76  1  0
 38 77  1  0
 38 78  1  0
M  END
$$$$
