
     RDKit          3D

 58 60  0  0  0  0  0  0  0  0999 V2000
   -5.7157    4.0442   -0.7147 C   0  0  0  0  0  0  0  0  0  0  0  0
   -4.6189    3.1713   -0.9743 O   0  0  0  0  0  0  0  0  0  0  0  0
   -4.4171    1.9379   -0.3351 C   0  0  0  0  0  0  0  0  0  0  0  0
   -5.3017    1.4412    0.6403 C   0  0  0  0  0  0  0  0  0  0  0  0
   -5.0740    0.2013    1.2455 C   0  0  0  0  0  0  0  0  0  0  0  0
   -5.9910   -0.2462    2.2093 O   0  0  0  0  0  0  0  0  0  0  0  0
   -5.9294   -1.5194    2.8475 C   0  0  0  0  0  0  0  0  0  0  0  0
   -3.9391   -0.5476    0.8805 C   0  0  0  0  0  0  0  0  0  0  0  0
   -3.0328   -0.0504   -0.0710 C   0  0  0  0  0  0  0  0  0  0  0  0
   -1.8184   -0.8265   -0.4172 C   0  0  0  0  0  0  0  0  0  0  0  0
   -1.8583   -2.0826   -0.3513 O   0  0  0  0  0  0  0  0  0  0  0  0
   -0.5913   -0.1689   -0.8063 N   0  0  0  0  0  0  0  0  0  0  0  0
    0.0234   -0.4987   -2.1094 C   0  0  0  0  0  0  0  0  0  0  0  0
    0.4915   -1.9653   -2.2228 C   0  0  0  0  0  0  0  0  0  0  0  0
    1.3772   -2.4445   -1.0605 C   0  0  0  0  0  0  0  0  0  0  0  0
    2.8482   -2.0177   -1.2060 C   0  0  0  0  0  0  0  0  0  0  0  0
    3.5331   -2.1173    0.0902 N   0  0  0  0  0  0  0  0  0  0  0  0
    3.8095   -3.4420    0.6504 C   0  0  0  0  0  0  0  0  0  0  0  0
    3.8143   -0.9582    0.8996 C   0  0  0  0  0  0  0  0  0  0  0  0
    3.7169   -1.0350    2.1548 O   0  0  0  0  0  0  0  0  0  0  0  0
    4.3754    0.2750    0.3201 C   0  0  0  0  0  0  0  0  0  0  0  0
    5.7588    0.4751    0.4493 C   0  0  0  0  0  0  0  0  0  0  0  0
    6.3720    1.5957   -0.1201 C   0  0  0  0  0  0  0  0  0  0  0  0
    8.1053    1.8222    0.0376 Cl  0  0  0  0  0  0  0  0  0  0  0  0
    5.6070    2.5263   -0.8272 C   0  0  0  0  0  0  0  0  0  0  0  0
    4.2290    2.3447   -0.9531 C   0  0  0  0  0  0  0  0  0  0  0  0
    3.5953    1.2387   -0.3685 C   0  0  0  0  0  0  0  0  0  0  0  0
    2.2112    1.1267   -0.5464 O   0  0  0  0  0  0  0  0  0  0  0  0
    1.2722    0.8786    0.4945 C   0  0  0  0  0  0  0  0  0  0  0  0
   -0.1498    1.0227   -0.0522 C   0  0  0  0  0  0  0  0  0  0  0  0
   -3.2906    1.1859   -0.6846 C   0  0  0  0  0  0  0  0  0  0  0  0
   -5.6283    4.9383   -1.3632 H   0  0  0  0  0  0  0  0  0  0  0  0
   -5.7005    4.3697    0.3476 H   0  0  0  0  0  0  0  0  0  0  0  0
   -6.6749    3.5326   -0.9455 H   0  0  0  0  0  0  0  0  0  0  0  0
   -6.1748    2.0076    0.9345 H   0  0  0  0  0  0  0  0  0  0  0  0
   -5.0020   -1.5986    3.4548 H   0  0  0  0  0  0  0  0  0  0  0  0
   -6.8063   -1.6338    3.5190 H   0  0  0  0  0  0  0  0  0  0  0  0
   -5.9590   -2.3287    2.0851 H   0  0  0  0  0  0  0  0  0  0  0  0
   -3.7387   -1.4995    1.3543 H   0  0  0  0  0  0  0  0  0  0  0  0
    0.8742    0.1738   -2.3305 H   0  0  0  0  0  0  0  0  0  0  0  0
   -0.7268   -0.3132   -2.9102 H   0  0  0  0  0  0  0  0  0  0  0  0
   -0.4013   -2.6232   -2.2888 H   0  0  0  0  0  0  0  0  0  0  0  0
    1.0364   -2.0986   -3.1830 H   0  0  0  0  0  0  0  0  0  0  0  0
    0.9594   -2.1032   -0.0929 H   0  0  0  0  0  0  0  0  0  0  0  0
    1.3426   -3.5558   -1.0333 H   0  0  0  0  0  0  0  0  0  0  0  0
    3.3516   -2.6803   -1.9404 H   0  0  0  0  0  0  0  0  0  0  0  0
    2.9237   -0.9977   -1.6199 H   0  0  0  0  0  0  0  0  0  0  0  0
    4.8775   -3.5045    0.9530 H   0  0  0  0  0  0  0  0  0  0  0  0
    3.6129   -4.2426   -0.0930 H   0  0  0  0  0  0  0  0  0  0  0  0
    3.1652   -3.6185    1.5362 H   0  0  0  0  0  0  0  0  0  0  0  0
    6.3664   -0.2502    0.9805 H   0  0  0  0  0  0  0  0  0  0  0  0
    6.0773    3.3913   -1.2796 H   0  0  0  0  0  0  0  0  0  0  0  0
    3.6442    3.0739   -1.5015 H   0  0  0  0  0  0  0  0  0  0  0  0
    1.3972   -0.1270    0.9344 H   0  0  0  0  0  0  0  0  0  0  0  0
    1.4251    1.6303    1.2999 H   0  0  0  0  0  0  0  0  0  0  0  0
   -0.8169    1.1941    0.8215 H   0  0  0  0  0  0  0  0  0  0  0  0
   -0.2193    1.9243   -0.6988 H   0  0  0  0  0  0  0  0  0  0  0  0
   -2.6172    1.5721   -1.4412 H   0  0  0  0  0  0  0  0  0  0  0  0
  1  2  1  0
  2  3  1  0
  3  4  2  0
  4  5  1  0
  5  6  1  0
  6  7  1  0
  5  8  2  0
  8  9  1  0
  9 10  1  0
 10 11  2  0
 10 12  1  0
 12 13  1  0
 13 14  1  0
 14 15  1  0
 15 16  1  0
 16 17  1  0
 17 18  1  0
 17 19  1  0
 19 20  2  0
 19 21  1  0
 21 22  2  0
 22 23  1  0
 23 24  1  0
 23 25  2  0
 25 26  1  0
 26 27  2  0
 27 28  1  0
 28 29  1  0
 29 30  1  0
  9 31  2  0
 31  3  1  0
 30 12  1  0
 27 21  1  0
  1 32  1  0
  1 33  1  0
  1 34  1  0
  4 35  1  0
  7 36  1  0
  7 37  1  0
  7 38  1  0
  8 39  1  0
 13 40  1  0
 13 41  1  0
 14 42  1  0
 14 43  1  0
 15 44  1  0
 15 45  1  0
 16 46  1  0
 16 47  1  0
 18 48  1  0
 18 49  1  0
 18 50  1  0
 22 51  1  0
 25 52  1  0
 26 53  1  0
 29 54  1  0
 29 55  1  0
 30 56  1  0
 30 57  1  0
 31 58  1  0
M  END
$$$$
