
     RDKit          3D

 73 75  0  0  0  0  0  0  0  0999 V2000
    4.5831    3.2748   -0.5573 C   0  0  0  0  0  0  0  0  0  0  0  0
    3.4619    3.6639    0.4129 C   0  0  0  0  0  0  0  0  0  0  0  0
    2.2154    4.1348   -0.3493 C   0  0  0  0  0  0  0  0  0  0  0  0
    3.1406    2.5561    1.4477 C   0  0  0  0  0  0  0  0  0  0  0  0
    2.6836    1.1911    0.8573 C   0  0  0  0  0  0  0  0  0  0  0  0
    3.8581    0.1941    0.7897 C   0  0  0  0  0  0  0  0  0  0  0  0
    3.4970   -0.9303   -0.0136 O   0  0  0  0  0  0  0  0  0  0  0  0
    4.3142   -2.0581   -0.1964 C   0  0  0  0  0  0  0  0  0  0  0  0
    5.1358   -2.5448    0.8383 C   0  0  0  0  0  0  0  0  0  0  0  0
    5.9588   -3.6531    0.6275 C   0  0  0  0  0  0  0  0  0  0  0  0
    5.9795   -4.2851   -0.6164 C   0  0  0  0  0  0  0  0  0  0  0  0
    7.0250   -5.6687   -0.8802 Cl  0  0  0  0  0  0  0  0  0  0  0  0
    5.1692   -3.8136   -1.6520 C   0  0  0  0  0  0  0  0  0  0  0  0
    4.3199   -2.7149   -1.4459 C   0  0  0  0  0  0  0  0  0  0  0  0
    3.5288   -2.1973   -2.5784 C   0  0  0  0  0  0  0  0  0  0  0  0
    4.1103   -1.9492   -3.6693 O   0  0  0  0  0  0  0  0  0  0  0  0
    2.1227   -1.9507   -2.4645 N   0  0  0  0  0  0  0  0  0  0  0  0
    1.2463   -2.8124   -1.6678 C   0  0  0  0  0  0  0  0  0  0  0  0
   -0.1596   -2.2090   -1.5555 C   0  0  0  0  0  0  0  0  0  0  0  0
   -0.1639   -0.9862   -0.6296 C   0  0  0  0  0  0  0  0  0  0  0  0
   -1.4694   -0.1866   -0.7482 C   0  0  0  0  0  0  0  0  0  0  0  0
   -1.6010    0.8204    0.3254 N   0  0  0  0  0  0  0  0  0  0  0  0
   -2.8695    1.0512    0.9886 C   0  0  0  0  0  0  0  0  0  0  0  0
   -2.9043    1.7706    2.0252 O   0  0  0  0  0  0  0  0  0  0  0  0
   -4.1518    0.4273    0.4868 C   0  0  0  0  0  0  0  0  0  0  0  0
   -5.4076    1.0869    1.0718 C   0  0  0  0  0  0  0  0  0  0  0  0
   -6.6090    0.4304    0.5588 N   0  0  0  0  0  0  0  0  0  0  0  0
   -7.5034   -0.3850    1.3596 C   0  0  0  0  0  0  0  0  0  0  0  0
   -8.6161   -0.8596    0.4039 C   0  0  0  0  0  0  0  0  0  0  0  0
   -8.4173   -0.1263   -0.9327 C   0  0  0  0  0  0  0  0  0  0  0  0
   -7.1454    0.5966   -0.7385 C   0  0  0  0  0  0  0  0  0  0  0  0
   -6.6023    1.3097   -1.6241 O   0  0  0  0  0  0  0  0  0  0  0  0
   -0.4683    1.7127    0.6316 C   0  0  0  0  0  0  0  0  0  0  0  0
    0.2982    1.1833    1.8145 C   0  0  0  0  0  0  0  0  0  0  0  0
   -0.2663    1.1623    2.9405 O   0  0  0  0  0  0  0  0  0  0  0  0
    1.6153    0.6219    1.6938 N   0  0  0  0  0  0  0  0  0  0  0  0
    4.8614    4.1497   -1.1835 H   0  0  0  0  0  0  0  0  0  0  0  0
    4.2623    2.4523   -1.2311 H   0  0  0  0  0  0  0  0  0  0  0  0
    5.4860    2.9590    0.0074 H   0  0  0  0  0  0  0  0  0  0  0  0
    3.8304    4.5385    0.9943 H   0  0  0  0  0  0  0  0  0  0  0  0
    2.4498    5.0634   -0.9123 H   0  0  0  0  0  0  0  0  0  0  0  0
    1.3903    4.3619    0.3585 H   0  0  0  0  0  0  0  0  0  0  0  0
    1.8722    3.3712   -1.0766 H   0  0  0  0  0  0  0  0  0  0  0  0
    4.0283    2.4094    2.1024 H   0  0  0  0  0  0  0  0  0  0  0  0
    2.3530    2.9565    2.1231 H   0  0  0  0  0  0  0  0  0  0  0  0
    2.3134    1.3195   -0.1771 H   0  0  0  0  0  0  0  0  0  0  0  0
    4.1234   -0.1226    1.8197 H   0  0  0  0  0  0  0  0  0  0  0  0
    4.7535    0.6694    0.3404 H   0  0  0  0  0  0  0  0  0  0  0  0
    5.1380   -2.0844    1.8145 H   0  0  0  0  0  0  0  0  0  0  0  0
    6.5830   -4.0184    1.4323 H   0  0  0  0  0  0  0  0  0  0  0  0
    5.1979   -4.3062   -2.6173 H   0  0  0  0  0  0  0  0  0  0  0  0
    1.6928   -1.3013   -3.1619 H   0  0  0  0  0  0  0  0  0  0  0  0
    1.6669   -2.9633   -0.6505 H   0  0  0  0  0  0  0  0  0  0  0  0
    1.1766   -3.8051   -2.1609 H   0  0  0  0  0  0  0  0  0  0  0  0
   -0.5262   -1.9317   -2.5684 H   0  0  0  0  0  0  0  0  0  0  0  0
   -0.8511   -2.9763   -1.1440 H   0  0  0  0  0  0  0  0  0  0  0  0
    0.6876   -0.3288   -0.8970 H   0  0  0  0  0  0  0  0  0  0  0  0
   -0.0329   -1.3319    0.4184 H   0  0  0  0  0  0  0  0  0  0  0  0
   -1.5044    0.3251   -1.7334 H   0  0  0  0  0  0  0  0  0  0  0  0
   -2.3057   -0.9130   -0.7109 H   0  0  0  0  0  0  0  0  0  0  0  0
   -4.1873    0.5193   -0.6196 H   0  0  0  0  0  0  0  0  0  0  0  0
   -4.1545   -0.6508    0.7572 H   0  0  0  0  0  0  0  0  0  0  0  0
   -5.3862    0.9996    2.1803 H   0  0  0  0  0  0  0  0  0  0  0  0
   -5.4351    2.1670    0.8095 H   0  0  0  0  0  0  0  0  0  0  0  0
   -7.9341    0.2283    2.1807 H   0  0  0  0  0  0  0  0  0  0  0  0
   -6.9509   -1.2503    1.7858 H   0  0  0  0  0  0  0  0  0  0  0  0
   -9.6185   -0.6347    0.8286 H   0  0  0  0  0  0  0  0  0  0  0  0
   -8.5344   -1.9574    0.2469 H   0  0  0  0  0  0  0  0  0  0  0  0
   -8.3336   -0.8436   -1.7771 H   0  0  0  0  0  0  0  0  0  0  0  0
   -9.2409    0.5965   -1.1149 H   0  0  0  0  0  0  0  0  0  0  0  0
    0.1762    1.8227   -0.2596 H   0  0  0  0  0  0  0  0  0  0  0  0
   -0.8336    2.7379    0.8583 H   0  0  0  0  0  0  0  0  0  0  0  0
    1.8781   -0.0847    2.4193 H   0  0  0  0  0  0  0  0  0  0  0  0
  1  2  1  0
  2  3  1  0
  2  4  1  0
  4  5  1  0
  5  6  1  0
  6  7  1  0
  7  8  1  0
  8  9  2  0
  9 10  1  0
 10 11  2  0
 11 12  1  0
 11 13  1  0
 13 14  2  0
 14 15  1  0
 15 16  2  0
 15 17  1  0
 17 18  1  0
 18 19  1  0
 19 20  1  0
 20 21  1  0
 21 22  1  0
 22 23  1  0
 23 24  2  0
 23 25  1  0
 25 26  1  0
 26 27  1  0
 27 28  1  0
 28 29  1  0
 29 30  1  0
 30 31  1  0
 31 32  2  0
 22 33  1  0
 33 34  1  0
 34 35  2  0
 34 36  1  0
 36  5  1  0
 14  8  1  0
 31 27  1  0
  1 37  1  0
  1 38  1  0
  1 39  1  0
  2 40  1  0
  3 41  1  0
  3 42  1  0
  3 43  1  0
  4 44  1  0
  4 45  1  0
  5 46  1  0
  6 47  1  0
  6 48  1  0
  9 49  1  0
 10 50  1  0
 13 51  1  0
 17 52  1  0
 18 53  1  0
 18 54  1  0
 19 55  1  0
 19 56  1  0
 20 57  1  0
 20 58  1  0
 21 59  1  0
 21 60  1  0
 25 61  1  0
 25 62  1  0
 26 63  1  0
 26 64  1  0
 28 65  1  0
 28 66  1  0
 29 67  1  0
 29 68  1  0
 30 69  1  0
 30 70  1  0
 33 71  1  0
 33 72  1  0
 36 73  1  0
M  END
$$$$
