
     RDKit          3D

 69 71  0  0  0  0  0  0  0  0999 V2000
   -4.7116    3.2630    1.5978 C   0  0  0  0  0  0  0  0  0  0  0  0
   -3.8364    3.8694    0.4953 C   0  0  0  0  0  0  0  0  0  0  0  0
   -4.4907    4.9976   -0.0267 O   0  0  0  0  0  0  0  0  0  0  0  0
   -3.4774    2.8815   -0.6507 C   0  0  0  0  0  0  0  0  0  0  0  0
   -2.5741    1.8117   -0.2014 N   0  0  0  0  0  0  0  0  0  0  0  0
   -1.6880    1.1508   -1.1199 C   0  0  0  0  0  0  0  0  0  0  0  0
   -1.8985    1.2273   -2.3641 O   0  0  0  0  0  0  0  0  0  0  0  0
   -0.4146    0.5256   -0.6096 C   0  0  0  0  0  0  0  0  0  0  0  0
    0.1973   -0.5077   -1.5872 C   0  0  0  0  0  0  0  0  0  0  0  0
    1.5167   -1.0989   -1.1264 C   0  0  0  0  0  0  0  0  0  0  0  0
    1.8064   -2.2816   -1.4594 O   0  0  0  0  0  0  0  0  0  0  0  0
    2.4951   -0.3049   -0.4326 N   0  0  0  0  0  0  0  0  0  0  0  0
    3.7424   -0.8678    0.0816 C   0  0  0  0  0  0  0  0  0  0  0  0
    4.7371   -1.1063   -1.0581 C   0  0  0  0  0  0  0  0  0  0  0  0
    6.0244   -1.4439   -0.5410 O   0  0  0  0  0  0  0  0  0  0  0  0
    6.9431   -0.5360    0.0130 C   0  0  0  0  0  0  0  0  0  0  0  0
    8.1261   -1.0454    0.5651 C   0  0  0  0  0  0  0  0  0  0  0  0
    9.0764   -0.1870    1.1255 C   0  0  0  0  0  0  0  0  0  0  0  0
    8.8560    1.1923    1.1326 C   0  0  0  0  0  0  0  0  0  0  0  0
    9.7819    2.0245    1.6701 F   0  0  0  0  0  0  0  0  0  0  0  0
    7.6816    1.7132    0.5843 C   0  0  0  0  0  0  0  0  0  0  0  0
    6.7255    0.8577    0.0281 C   0  0  0  0  0  0  0  0  0  0  0  0
   -0.7701   -1.5674   -1.9242 N   0  0  0  0  0  0  0  0  0  0  0  0
   -1.1810   -2.6547   -1.0707 C   0  0  0  0  0  0  0  0  0  0  0  0
   -1.6901   -3.6807   -1.5944 O   0  0  0  0  0  0  0  0  0  0  0  0
   -1.0198   -2.6266    0.3936 C   0  0  0  0  0  0  0  0  0  0  0  0
    0.0923   -3.2874    0.9457 C   0  0  0  0  0  0  0  0  0  0  0  0
    0.3437   -3.2361    2.3165 C   0  0  0  0  0  0  0  0  0  0  0  0
   -0.5273   -2.5482    3.1591 C   0  0  0  0  0  0  0  0  0  0  0  0
   -1.6649   -1.9323    2.6348 C   0  0  0  0  0  0  0  0  0  0  0  0
   -1.9472   -1.9882    1.2624 C   0  0  0  0  0  0  0  0  0  0  0  0
   -3.1472   -1.3860    0.8450 O   0  0  0  0  0  0  0  0  0  0  0  0
   -3.8980   -1.7258   -0.3204 C   0  0  0  0  0  0  0  0  0  0  0  0
   -5.3349   -1.2243   -0.1674 C   0  0  0  0  0  0  0  0  0  0  0  0
   -5.4072    0.3012   -0.0396 C   0  0  0  0  0  0  0  0  0  0  0  0
   -5.0757    0.9525   -1.3057 N   0  0  0  0  0  0  0  0  0  0  0  0
   -4.6928    2.3344   -1.3716 C   0  0  0  0  0  0  0  0  0  0  0  0
   -5.3476    3.1089   -2.1191 O   0  0  0  0  0  0  0  0  0  0  0  0
   -4.9450    4.0409    2.3530 H   0  0  0  0  0  0  0  0  0  0  0  0
   -5.6733    2.8973    1.1798 H   0  0  0  0  0  0  0  0  0  0  0  0
   -4.1791    2.4367    2.1144 H   0  0  0  0  0  0  0  0  0  0  0  0
   -2.8848    4.1928    0.9786 H   0  0  0  0  0  0  0  0  0  0  0  0
   -3.7974    5.5563   -0.4676 H   0  0  0  0  0  0  0  0  0  0  0  0
   -2.9157    3.4879   -1.3960 H   0  0  0  0  0  0  0  0  0  0  0  0
   -2.4155    1.6619    0.8207 H   0  0  0  0  0  0  0  0  0  0  0  0
   -0.5763    0.0749    0.3867 H   0  0  0  0  0  0  0  0  0  0  0  0
    0.2884    1.3706   -0.4698 H   0  0  0  0  0  0  0  0  0  0  0  0
    0.4376    0.0435   -2.5241 H   0  0  0  0  0  0  0  0  0  0  0  0
    2.3390    0.7145   -0.2808 H   0  0  0  0  0  0  0  0  0  0  0  0
    4.1802   -0.1589    0.8166 H   0  0  0  0  0  0  0  0  0  0  0  0
    3.5381   -1.8205    0.6172 H   0  0  0  0  0  0  0  0  0  0  0  0
    4.3809   -1.9575   -1.6744 H   0  0  0  0  0  0  0  0  0  0  0  0
    4.8043   -0.2218   -1.7274 H   0  0  0  0  0  0  0  0  0  0  0  0
    8.3090   -2.1124    0.5648 H   0  0  0  0  0  0  0  0  0  0  0  0
    9.9850   -0.5918    1.5514 H   0  0  0  0  0  0  0  0  0  0  0  0
    7.5092    2.7816    0.5883 H   0  0  0  0  0  0  0  0  0  0  0  0
    5.8273    1.2937   -0.3849 H   0  0  0  0  0  0  0  0  0  0  0  0
   -1.0767   -1.6170   -2.9219 H   0  0  0  0  0  0  0  0  0  0  0  0
    0.7780   -3.8329    0.3098 H   0  0  0  0  0  0  0  0  0  0  0  0
    1.2156   -3.7295    2.7265 H   0  0  0  0  0  0  0  0  0  0  0  0
   -0.3321   -2.5073    4.2238 H   0  0  0  0  0  0  0  0  0  0  0  0
   -2.3488   -1.4242    3.3039 H   0  0  0  0  0  0  0  0  0  0  0  0
   -3.9347   -2.8316   -0.4355 H   0  0  0  0  0  0  0  0  0  0  0  0
   -3.4385   -1.2678   -1.2219 H   0  0  0  0  0  0  0  0  0  0  0  0
   -5.9392   -1.5614   -1.0377 H   0  0  0  0  0  0  0  0  0  0  0  0
   -5.7780   -1.6800    0.7455 H   0  0  0  0  0  0  0  0  0  0  0  0
   -4.7262    0.6301    0.7670 H   0  0  0  0  0  0  0  0  0  0  0  0
   -6.4409    0.5892    0.2491 H   0  0  0  0  0  0  0  0  0  0  0  0
   -5.5416    0.5681   -2.1586 H   0  0  0  0  0  0  0  0  0  0  0  0
  1  2  1  0
  2  3  1  0
  2  4  1  0
  4  5  1  0
  5  6  1  0
  6  7  2  0
  6  8  1  0
  8  9  1  0
  9 10  1  0
 10 11  2  0
 10 12  1  0
 12 13  1  0
 13 14  1  0
 14 15  1  0
 15 16  1  0
 16 17  2  0
 17 18  1  0
 18 19  2  0
 19 20  1  0
 19 21  1  0
 21 22  2  0
  9 23  1  0
 23 24  1  0
 24 25  2  0
 24 26  1  0
 26 27  2  0
 27 28  1  0
 28 29  2  0
 29 30  1  0
 30 31  2  0
 31 32  1  0
 32 33  1  0
 33 34  1  0
 34 35  1  0
 35 36  1  0
 36 37  1  0
 37 38  2  0
 37  4  1  0
 22 16  1  0
 31 26  1  0
  1 39  1  0
  1 40  1  0
  1 41  1  0
  2 42  1  0
  3 43  1  0
  4 44  1  0
  5 45  1  0
  8 46  1  0
  8 47  1  0
  9 48  1  0
 12 49  1  0
 13 50  1  0
 13 51  1  0
 14 52  1  0
 14 53  1  0
 17 54  1  0
 18 55  1  0
 21 56  1  0
 22 57  1  0
 23 58  1  0
 27 59  1  0
 28 60  1  0
 29 61  1  0
 30 62  1  0
 33 63  1  0
 33 64  1  0
 34 65  1  0
 34 66  1  0
 35 67  1  0
 35 68  1  0
 36 69  1  0
M  END
$$$$
