
     RDKit          3D

 77 79  0  0  0  0  0  0  0  0999 V2000
   -4.9860   -3.5645   -1.2566 C   0  0  0  0  0  0  0  0  0  0  0  0
   -3.6979   -4.0500   -0.5816 C   0  0  0  0  0  0  0  0  0  0  0  0
   -4.0165   -4.9041    0.6528 C   0  0  0  0  0  0  0  0  0  0  0  0
   -2.6931   -2.9035   -0.2911 C   0  0  0  0  0  0  0  0  0  0  0  0
   -3.0980   -1.8880    0.8135 C   0  0  0  0  0  0  0  0  0  0  0  0
   -1.9462   -1.1080    1.2916 N   0  0  0  0  0  0  0  0  0  0  0  0
   -1.1245   -0.2660    0.4659 C   0  0  0  0  0  0  0  0  0  0  0  0
   -1.0255   -0.4899   -0.7704 O   0  0  0  0  0  0  0  0  0  0  0  0
   -0.4036    0.9000    1.0979 C   0  0  0  0  0  0  0  0  0  0  0  0
    0.6704    1.5692    0.2141 C   0  0  0  0  0  0  0  0  0  0  0  0
    1.8420    0.6402   -0.0116 C   0  0  0  0  0  0  0  0  0  0  0  0
    1.9204   -0.0474   -1.0665 O   0  0  0  0  0  0  0  0  0  0  0  0
    2.8515    0.5174    1.0004 N   0  0  0  0  0  0  0  0  0  0  0  0
    4.1098   -0.1977    0.7949 C   0  0  0  0  0  0  0  0  0  0  0  0
    3.8804   -1.7164    0.7522 C   0  0  0  0  0  0  0  0  0  0  0  0
    5.1934   -2.5056    0.8543 C   0  0  0  0  0  0  0  0  0  0  0  0
    6.1267   -2.1450   -0.2151 N   0  0  0  0  0  0  0  0  0  0  0  0
    5.9746   -2.5336   -1.6073 C   0  0  0  0  0  0  0  0  0  0  0  0
    7.1582   -1.8894   -2.3594 C   0  0  0  0  0  0  0  0  0  0  0  0
    7.8380   -0.9095   -1.3875 C   0  0  0  0  0  0  0  0  0  0  0  0
    7.1813   -1.2059   -0.0976 C   0  0  0  0  0  0  0  0  0  0  0  0
    7.5060   -0.6634    0.9937 O   0  0  0  0  0  0  0  0  0  0  0  0
    0.1061    2.0599   -1.0572 N   0  0  0  0  0  0  0  0  0  0  0  0
   -0.6469    3.2787   -1.1914 C   0  0  0  0  0  0  0  0  0  0  0  0
   -1.1460    3.5696   -2.3111 O   0  0  0  0  0  0  0  0  0  0  0  0
   -0.7933    4.2331   -0.0775 C   0  0  0  0  0  0  0  0  0  0  0  0
    0.3522    4.9674    0.2798 C   0  0  0  0  0  0  0  0  0  0  0  0
    0.3052    5.9109    1.3043 C   0  0  0  0  0  0  0  0  0  0  0  0
   -0.8949    6.1562    1.9707 C   0  0  0  0  0  0  0  0  0  0  0  0
   -2.0475    5.4498    1.6183 C   0  0  0  0  0  0  0  0  0  0  0  0
   -2.0227    4.4745    0.6075 C   0  0  0  0  0  0  0  0  0  0  0  0
   -3.2417    3.8034    0.3718 O   0  0  0  0  0  0  0  0  0  0  0  0
   -3.4811    2.7036   -0.5014 C   0  0  0  0  0  0  0  0  0  0  0  0
   -4.8633    2.1194   -0.2042 C   0  0  0  0  0  0  0  0  0  0  0  0
   -5.1620    0.8773   -1.0571 C   0  0  0  0  0  0  0  0  0  0  0  0
   -4.2035   -0.1961   -0.7846 N   0  0  0  0  0  0  0  0  0  0  0  0
   -4.2251   -0.9534    0.4365 C   0  0  0  0  0  0  0  0  0  0  0  0
   -5.1749   -0.7932    1.2525 O   0  0  0  0  0  0  0  0  0  0  0  0
   -4.7482   -2.8976   -2.1130 H   0  0  0  0  0  0  0  0  0  0  0  0
   -5.5535   -4.4370   -1.6463 H   0  0  0  0  0  0  0  0  0  0  0  0
   -5.6356   -3.0244   -0.5384 H   0  0  0  0  0  0  0  0  0  0  0  0
   -3.1931   -4.7228   -1.3098 H   0  0  0  0  0  0  0  0  0  0  0  0
   -4.6854   -4.3629    1.3540 H   0  0  0  0  0  0  0  0  0  0  0  0
   -4.5320   -5.8366    0.3373 H   0  0  0  0  0  0  0  0  0  0  0  0
   -3.0816   -5.1847    1.1825 H   0  0  0  0  0  0  0  0  0  0  0  0
   -1.7334   -3.3717    0.0196 H   0  0  0  0  0  0  0  0  0  0  0  0
   -2.4788   -2.3894   -1.2479 H   0  0  0  0  0  0  0  0  0  0  0  0
   -3.4472   -2.4811    1.6841 H   0  0  0  0  0  0  0  0  0  0  0  0
   -1.8300   -1.0183    2.3297 H   0  0  0  0  0  0  0  0  0  0  0  0
   -1.1581    1.6593    1.3933 H   0  0  0  0  0  0  0  0  0  0  0  0
    0.0763    0.5475    2.0398 H   0  0  0  0  0  0  0  0  0  0  0  0
    1.0711    2.4335    0.7824 H   0  0  0  0  0  0  0  0  0  0  0  0
    2.7261    1.0427    1.8963 H   0  0  0  0  0  0  0  0  0  0  0  0
    4.5817    0.1500   -0.1494 H   0  0  0  0  0  0  0  0  0  0  0  0
    4.7978    0.0417    1.6341 H   0  0  0  0  0  0  0  0  0  0  0  0
    3.2264   -2.0132    1.6046 H   0  0  0  0  0  0  0  0  0  0  0  0
    3.3555   -1.9944   -0.1876 H   0  0  0  0  0  0  0  0  0  0  0  0
    4.9690   -3.5922    0.7881 H   0  0  0  0  0  0  0  0  0  0  0  0
    5.6610   -2.3274    1.8492 H   0  0  0  0  0  0  0  0  0  0  0  0
    5.0138   -2.1420   -2.0048 H   0  0  0  0  0  0  0  0  0  0  0  0
    5.9984   -3.6421   -1.6993 H   0  0  0  0  0  0  0  0  0  0  0  0
    6.8058   -1.3576   -3.2705 H   0  0  0  0  0  0  0  0  0  0  0  0
    7.8825   -2.6780   -2.6643 H   0  0  0  0  0  0  0  0  0  0  0  0
    8.9332   -1.0944   -1.3219 H   0  0  0  0  0  0  0  0  0  0  0  0
    7.6295    0.1439   -1.6798 H   0  0  0  0  0  0  0  0  0  0  0  0
    0.1961    1.4722   -1.9185 H   0  0  0  0  0  0  0  0  0  0  0  0
    1.2915    4.8015   -0.2388 H   0  0  0  0  0  0  0  0  0  0  0  0
    1.1978    6.4634    1.5749 H   0  0  0  0  0  0  0  0  0  0  0  0
   -0.9314    6.8891    2.7656 H   0  0  0  0  0  0  0  0  0  0  0  0
   -2.9707    5.6476    2.1485 H   0  0  0  0  0  0  0  0  0  0  0  0
   -3.4557    3.0471   -1.5566 H   0  0  0  0  0  0  0  0  0  0  0  0
   -2.7232    1.9185   -0.3308 H   0  0  0  0  0  0  0  0  0  0  0  0
   -5.6343    2.8939   -0.4152 H   0  0  0  0  0  0  0  0  0  0  0  0
   -4.9301    1.8565    0.8739 H   0  0  0  0  0  0  0  0  0  0  0  0
   -5.1151    1.1527   -2.1357 H   0  0  0  0  0  0  0  0  0  0  0  0
   -6.1973    0.5231   -0.8488 H   0  0  0  0  0  0  0  0  0  0  0  0
   -3.5008   -0.4165   -1.5268 H   0  0  0  0  0  0  0  0  0  0  0  0
  1  2  1  0
  2  3  1  0
  2  4  1  0
  4  5  1  0
  5  6  1  0
  6  7  1  0
  7  8  2  0
  7  9  1  0
  9 10  1  0
 10 11  1  0
 11 12  2  0
 11 13  1  0
 13 14  1  0
 14 15  1  0
 15 16  1  0
 16 17  1  0
 17 18  1  0
 18 19  1  0
 19 20  1  0
 20 21  1  0
 21 22  2  0
 10 23  1  0
 23 24  1  0
 24 25  2  0
 24 26  1  0
 26 27  2  0
 27 28  1  0
 28 29  2  0
 29 30  1  0
 30 31  2  0
 31 32  1  0
 32 33  1  0
 33 34  1  0
 34 35  1  0
 35 36  1  0
 36 37  1  0
 37 38  2  0
 37  5  1  0
 21 17  1  0
 31 26  1  0
  1 39  1  0
  1 40  1  0
  1 41  1  0
  2 42  1  0
  3 43  1  0
  3 44  1  0
  3 45  1  0
  4 46  1  0
  4 47  1  0
  5 48  1  0
  6 49  1  0
  9 50  1  0
  9 51  1  0
 10 52  1  0
 13 53  1  0
 14 54  1  0
 14 55  1  0
 15 56  1  0
 15 57  1  0
 16 58  1  0
 16 59  1  0
 18 60  1  0
 18 61  1  0
 19 62  1  0
 19 63  1  0
 20 64  1  0
 20 65  1  0
 23 66  1  0
 27 67  1  0
 28 68  1  0
 29 69  1  0
 30 70  1  0
 33 71  1  0
 33 72  1  0
 34 73  1  0
 34 74  1  0
 35 75  1  0
 35 76  1  0
 36 77  1  0
M  END
$$$$
