
     RDKit          3D

 71 73  0  0  0  0  0  0  0  0999 V2000
   -1.3335    4.1959   -2.4406 C   0  0  0  0  0  0  0  0  0  0  0  0
   -1.9811    3.6017   -1.1831 C   0  0  0  0  0  0  0  0  0  0  0  0
   -3.1461    4.4904   -0.7236 C   0  0  0  0  0  0  0  0  0  0  0  0
   -2.4326    2.1480   -1.4614 C   0  0  0  0  0  0  0  0  0  0  0  0
   -2.9907    1.3992   -0.2268 C   0  0  0  0  0  0  0  0  0  0  0  0
   -3.2493   -0.0896   -0.5248 C   0  0  0  0  0  0  0  0  0  0  0  0
   -3.6011   -0.7746    0.6777 O   0  0  0  0  0  0  0  0  0  0  0  0
   -4.2352   -2.0273    0.7449 C   0  0  0  0  0  0  0  0  0  0  0  0
   -5.1361   -2.2230    1.8010 C   0  0  0  0  0  0  0  0  0  0  0  0
   -5.8561   -3.4128    1.9167 C   0  0  0  0  0  0  0  0  0  0  0  0
   -5.6767   -4.4336    0.9809 C   0  0  0  0  0  0  0  0  0  0  0  0
   -6.5785   -5.9305    1.1317 Cl  0  0  0  0  0  0  0  0  0  0  0  0
   -4.7617   -4.2702   -0.0617 C   0  0  0  0  0  0  0  0  0  0  0  0
   -4.0199   -3.0834   -0.1819 C   0  0  0  0  0  0  0  0  0  0  0  0
   -2.9875   -3.0340   -1.2323 C   0  0  0  0  0  0  0  0  0  0  0  0
   -3.3470   -2.9917   -2.4395 O   0  0  0  0  0  0  0  0  0  0  0  0
   -1.5856   -3.0817   -0.9180 N   0  0  0  0  0  0  0  0  0  0  0  0
   -1.0914   -3.2949    0.4439 C   0  0  0  0  0  0  0  0  0  0  0  0
    0.4381   -3.4819    0.4826 C   0  0  0  0  0  0  0  0  0  0  0  0
    1.2304   -2.2196    0.0915 C   0  0  0  0  0  0  0  0  0  0  0  0
    1.2338   -1.1525    1.2038 C   0  0  0  0  0  0  0  0  0  0  0  0
    1.3482    0.2016    0.6343 N   0  0  0  0  0  0  0  0  0  0  0  0
    2.5797    0.9564    0.6935 C   0  0  0  0  0  0  0  0  0  0  0  0
    2.5358    2.2175    0.6253 O   0  0  0  0  0  0  0  0  0  0  0  0
    3.9191    0.2827    0.8699 C   0  0  0  0  0  0  0  0  0  0  0  0
    5.0261    1.0179    0.1021 C   0  0  0  0  0  0  0  0  0  0  0  0
    6.3789    0.3207    0.2649 C   0  0  0  0  0  0  0  0  0  0  0  0
    7.4005    1.0348   -0.4924 N   0  0  0  0  0  0  0  0  0  0  0  0
    8.0931    2.1144   -0.0947 C   0  0  0  0  0  0  0  0  0  0  0  0
    8.8924    2.5689   -1.0807 N   0  0  0  0  0  0  0  0  0  0  0  0
    8.6324    1.7064   -2.0882 C   0  0  0  0  0  0  0  0  0  0  0  0
    7.7210    0.7739   -1.7467 N   0  0  0  0  0  0  0  0  0  0  0  0
    0.1356    0.8333    0.0855 C   0  0  0  0  0  0  0  0  0  0  0  0
   -0.7748    1.3155    1.1866 C   0  0  0  0  0  0  0  0  0  0  0  0
   -0.2765    1.5509    2.3207 O   0  0  0  0  0  0  0  0  0  0  0  0
   -2.1788    1.5849    0.9899 N   0  0  0  0  0  0  0  0  0  0  0  0
   -0.4547    3.5837   -2.7408 H   0  0  0  0  0  0  0  0  0  0  0  0
   -2.0625    4.2244   -3.2825 H   0  0  0  0  0  0  0  0  0  0  0  0
   -0.9768    5.2298   -2.2414 H   0  0  0  0  0  0  0  0  0  0  0  0
   -1.2087    3.6035   -0.3838 H   0  0  0  0  0  0  0  0  0  0  0  0
   -3.9730    4.4736   -1.4647 H   0  0  0  0  0  0  0  0  0  0  0  0
   -2.8023    5.5378   -0.5969 H   0  0  0  0  0  0  0  0  0  0  0  0
   -3.5326    4.1461    0.2586 H   0  0  0  0  0  0  0  0  0  0  0  0
   -3.2211    2.1610   -2.2470 H   0  0  0  0  0  0  0  0  0  0  0  0
   -1.5864    1.5762   -1.8919 H   0  0  0  0  0  0  0  0  0  0  0  0
   -3.9940    1.8332   -0.0175 H   0  0  0  0  0  0  0  0  0  0  0  0
   -2.3613   -0.5535   -0.9835 H   0  0  0  0  0  0  0  0  0  0  0  0
   -4.0871   -0.1698   -1.2539 H   0  0  0  0  0  0  0  0  0  0  0  0
   -5.2981   -1.4306    2.5220 H   0  0  0  0  0  0  0  0  0  0  0  0
   -6.5544   -3.5379    2.7350 H   0  0  0  0  0  0  0  0  0  0  0  0
   -4.6069   -5.0821   -0.7628 H   0  0  0  0  0  0  0  0  0  0  0  0
   -0.9149   -3.0460   -1.7192 H   0  0  0  0  0  0  0  0  0  0  0  0
   -1.5608   -4.2151    0.8541 H   0  0  0  0  0  0  0  0  0  0  0  0
   -1.4018   -2.4479    1.0869 H   0  0  0  0  0  0  0  0  0  0  0  0
    0.7421   -3.8035    1.5031 H   0  0  0  0  0  0  0  0  0  0  0  0
    0.7105   -4.3067   -0.2112 H   0  0  0  0  0  0  0  0  0  0  0  0
    0.8323   -1.8078   -0.8578 H   0  0  0  0  0  0  0  0  0  0  0  0
    2.2830   -2.5137   -0.1169 H   0  0  0  0  0  0  0  0  0  0  0  0
    2.0595   -1.3600    1.9190 H   0  0  0  0  0  0  0  0  0  0  0  0
    0.3076   -1.2048    1.8124 H   0  0  0  0  0  0  0  0  0  0  0  0
    3.8695   -0.7609    0.4939 H   0  0  0  0  0  0  0  0  0  0  0  0
    4.1660    0.2613    1.9534 H   0  0  0  0  0  0  0  0  0  0  0  0
    4.7603    1.0550   -0.9782 H   0  0  0  0  0  0  0  0  0  0  0  0
    5.1158    2.0624    0.4776 H   0  0  0  0  0  0  0  0  0  0  0  0
    6.6643    0.2926    1.3389 H   0  0  0  0  0  0  0  0  0  0  0  0
    6.3099   -0.7269   -0.1019 H   0  0  0  0  0  0  0  0  0  0  0  0
    8.0136    2.5701    0.8840 H   0  0  0  0  0  0  0  0  0  0  0  0
    9.0971    1.7639   -3.0641 H   0  0  0  0  0  0  0  0  0  0  0  0
   -0.3810    0.1004   -0.5530 H   0  0  0  0  0  0  0  0  0  0  0  0
    0.4050    1.6902   -0.5672 H   0  0  0  0  0  0  0  0  0  0  0  0
   -2.6832    1.9882    1.8125 H   0  0  0  0  0  0  0  0  0  0  0  0
  1  2  1  0
  2  3  1  0
  2  4  1  0
  4  5  1  0
  5  6  1  0
  6  7  1  0
  7  8  1  0
  8  9  2  0
  9 10  1  0
 10 11  2  0
 11 12  1  0
 11 13  1  0
 13 14  2  0
 14 15  1  0
 15 16  2  0
 15 17  1  0
 17 18  1  0
 18 19  1  0
 19 20  1  0
 20 21  1  0
 21 22  1  0
 22 23  1  0
 23 24  2  0
 23 25  1  0
 25 26  1  0
 26 27  1  0
 27 28  1  0
 28 29  1  0
 29 30  2  0
 30 31  1  0
 31 32  2  0
 22 33  1  0
 33 34  1  0
 34 35  2  0
 34 36  1  0
 36  5  1  0
 14  8  1  0
 32 28  1  0
  1 37  1  0
  1 38  1  0
  1 39  1  0
  2 40  1  0
  3 41  1  0
  3 42  1  0
  3 43  1  0
  4 44  1  0
  4 45  1  0
  5 46  1  0
  6 47  1  0
  6 48  1  0
  9 49  1  0
 10 50  1  0
 13 51  1  0
 17 52  1  0
 18 53  1  0
 18 54  1  0
 19 55  1  0
 19 56  1  0
 20 57  1  0
 20 58  1  0
 21 59  1  0
 21 60  1  0
 25 61  1  0
 25 62  1  0
 26 63  1  0
 26 64  1  0
 27 65  1  0
 27 66  1  0
 29 67  1  0
 31 68  1  0
 33 69  1  0
 33 70  1  0
 36 71  1  0
M  END
$$$$
