
     RDKit          3D

 68 70  0  0  0  0  0  0  0  0999 V2000
    6.6614    1.9598    0.7207 C   0  0  0  0  0  0  0  0  0  0  0  0
    5.9881    0.7539    1.0054 O   0  0  0  0  0  0  0  0  0  0  0  0
    4.6187    0.8950    0.6877 C   0  0  0  0  0  0  0  0  0  0  0  0
    3.9104   -0.4575    0.8773 C   0  0  0  0  0  0  0  0  0  0  0  0
    4.4687   -1.5242   -0.0751 C   0  0  0  0  0  0  0  0  0  0  0  0
    3.2591   -2.2168   -0.6938 C   0  0  0  0  0  0  0  0  0  0  0  0
    2.0832   -1.2761   -0.4869 C   0  0  0  0  0  0  0  0  0  0  0  0
    2.4894   -0.3532    0.5621 N   0  0  0  0  0  0  0  0  0  0  0  0
    1.5633    0.4256    1.3486 C   0  0  0  0  0  0  0  0  0  0  0  0
    1.9471    0.9336    2.4377 O   0  0  0  0  0  0  0  0  0  0  0  0
    0.1518    0.6964    0.8805 C   0  0  0  0  0  0  0  0  0  0  0  0
    0.0523    2.0768    0.2039 C   0  0  0  0  0  0  0  0  0  0  0  0
    0.7512    2.0964   -1.1320 C   0  0  0  0  0  0  0  0  0  0  0  0
    1.9454    2.4952   -1.1829 O   0  0  0  0  0  0  0  0  0  0  0  0
    0.1241    1.6232   -2.3375 N   0  0  0  0  0  0  0  0  0  0  0  0
   -1.2816    1.2301   -2.4398 C   0  0  0  0  0  0  0  0  0  0  0  0
   -2.1686    2.4581   -2.6706 C   0  0  0  0  0  0  0  0  0  0  0  0
   -3.6678    2.1148   -2.6188 C   0  0  0  0  0  0  0  0  0  0  0  0
   -4.1909    2.0165   -1.2078 C   0  0  0  0  0  0  0  0  0  0  0  0
   -4.1099    3.0298   -0.4614 O   0  0  0  0  0  0  0  0  0  0  0  0
   -4.8701    0.8377   -0.7296 N   0  0  0  0  0  0  0  0  0  0  0  0
   -6.0375    1.0061    0.1399 C   0  0  0  0  0  0  0  0  0  0  0  0
   -4.2670   -0.4937   -0.8715 C   0  0  0  0  0  0  0  0  0  0  0  0
   -3.3242   -0.7669    0.2976 C   0  0  0  0  0  0  0  0  0  0  0  0
   -2.5717   -1.9459    0.0302 O   0  0  0  0  0  0  0  0  0  0  0  0
   -1.5275   -2.4965    0.7989 C   0  0  0  0  0  0  0  0  0  0  0  0
   -1.0285   -3.7311    0.3581 C   0  0  0  0  0  0  0  0  0  0  0  0
    0.0185   -4.3667    1.0266 C   0  0  0  0  0  0  0  0  0  0  0  0
    0.5864   -3.7774    2.1532 C   0  0  0  0  0  0  0  0  0  0  0  0
    0.1073   -2.5526    2.6159 C   0  0  0  0  0  0  0  0  0  0  0  0
   -0.9443   -1.8966    1.9541 C   0  0  0  0  0  0  0  0  0  0  0  0
   -1.3534   -0.5905    2.4949 C   0  0  0  0  0  0  0  0  0  0  0  0
   -2.2037   -0.5533    3.4228 O   0  0  0  0  0  0  0  0  0  0  0  0
   -0.7675    0.6336    2.0238 N   0  0  0  0  0  0  0  0  0  0  0  0
    6.2390    2.8085    1.3042 H   0  0  0  0  0  0  0  0  0  0  0  0
    7.7255    1.8480    1.0140 H   0  0  0  0  0  0  0  0  0  0  0  0
    6.6349    2.1844   -0.3687 H   0  0  0  0  0  0  0  0  0  0  0  0
    4.1539    1.6484    1.3604 H   0  0  0  0  0  0  0  0  0  0  0  0
    4.4802    1.2278   -0.3677 H   0  0  0  0  0  0  0  0  0  0  0  0
    4.0278   -0.7986    1.9301 H   0  0  0  0  0  0  0  0  0  0  0  0
    5.0754   -1.0697   -0.8904 H   0  0  0  0  0  0  0  0  0  0  0  0
    5.1052   -2.2533    0.4728 H   0  0  0  0  0  0  0  0  0  0  0  0
    3.4206   -2.4316   -1.7720 H   0  0  0  0  0  0  0  0  0  0  0  0
    3.0684   -3.1748   -0.1600 H   0  0  0  0  0  0  0  0  0  0  0  0
    1.1943   -1.8629   -0.1788 H   0  0  0  0  0  0  0  0  0  0  0  0
    1.8628   -0.7094   -1.4166 H   0  0  0  0  0  0  0  0  0  0  0  0
   -0.1626   -0.0606    0.1371 H   0  0  0  0  0  0  0  0  0  0  0  0
    0.4936    2.8553    0.8650 H   0  0  0  0  0  0  0  0  0  0  0  0
   -1.0148    2.3484    0.0711 H   0  0  0  0  0  0  0  0  0  0  0  0
    0.7107    1.5529   -3.1996 H   0  0  0  0  0  0  0  0  0  0  0  0
   -1.4006    0.5353   -3.2997 H   0  0  0  0  0  0  0  0  0  0  0  0
   -1.5909    0.6792   -1.5361 H   0  0  0  0  0  0  0  0  0  0  0  0
   -1.9348    2.8671   -3.6777 H   0  0  0  0  0  0  0  0  0  0  0  0
   -1.9315    3.2557   -1.9344 H   0  0  0  0  0  0  0  0  0  0  0  0
   -3.8785    1.1928   -3.1989 H   0  0  0  0  0  0  0  0  0  0  0  0
   -4.2283    2.9312   -3.1233 H   0  0  0  0  0  0  0  0  0  0  0  0
   -5.7610    1.5994    1.0375 H   0  0  0  0  0  0  0  0  0  0  0  0
   -6.8420    1.5330   -0.4154 H   0  0  0  0  0  0  0  0  0  0  0  0
   -6.4326    0.0251    0.4816 H   0  0  0  0  0  0  0  0  0  0  0  0
   -3.7050   -0.5717   -1.8237 H   0  0  0  0  0  0  0  0  0  0  0  0
   -5.0580   -1.2741   -0.9027 H   0  0  0  0  0  0  0  0  0  0  0  0
   -2.6532    0.1036    0.3916 H   0  0  0  0  0  0  0  0  0  0  0  0
   -3.9106   -0.8970    1.2322 H   0  0  0  0  0  0  0  0  0  0  0  0
   -1.4549   -4.2007   -0.5195 H   0  0  0  0  0  0  0  0  0  0  0  0
    0.3914   -5.3167    0.6665 H   0  0  0  0  0  0  0  0  0  0  0  0
    1.4015   -4.2693    2.6681 H   0  0  0  0  0  0  0  0  0  0  0  0
    0.5686   -2.1049    3.4884 H   0  0  0  0  0  0  0  0  0  0  0  0
   -1.0065    1.5155    2.5324 H   0  0  0  0  0  0  0  0  0  0  0  0
  1  2  1  0
  2  3  1  0
  3  4  1  0
  4  5  1  0
  5  6  1  0
  6  7  1  0
  7  8  1  0
  8  9  1  0
  9 10  2  0
  9 11  1  0
 11 12  1  0
 12 13  1  0
 13 14  2  0
 13 15  1  0
 15 16  1  0
 16 17  1  0
 17 18  1  0
 18 19  1  0
 19 20  2  0
 19 21  1  0
 21 22  1  0
 21 23  1  0
 23 24  1  0
 24 25  1  0
 25 26  1  0
 26 27  2  0
 27 28  1  0
 28 29  2  0
 29 30  1  0
 30 31  2  0
 31 32  1  0
 32 33  2  0
 32 34  1  0
  8  4  1  0
 34 11  1  0
 31 26  1  0
  1 35  1  0
  1 36  1  0
  1 37  1  0
  3 38  1  0
  3 39  1  0
  4 40  1  0
  5 41  1  0
  5 42  1  0
  6 43  1  0
  6 44  1  0
  7 45  1  0
  7 46  1  0
 11 47  1  0
 12 48  1  0
 12 49  1  0
 15 50  1  0
 16 51  1  0
 16 52  1  0
 17 53  1  0
 17 54  1  0
 18 55  1  0
 18 56  1  0
 22 57  1  0
 22 58  1  0
 22 59  1  0
 23 60  1  0
 23 61  1  0
 24 62  1  0
 24 63  1  0
 27 64  1  0
 28 65  1  0
 29 66  1  0
 30 67  1  0
 34 68  1  0
M  END
$$$$
