
     RDKit          3D

 67 69  0  0  0  0  0  0  0  0999 V2000
    6.4097   -1.0517    2.0640 C   0  0  0  0  0  0  0  0  0  0  0  0
    5.9399   -1.1201    0.6340 C   0  0  0  0  0  0  0  0  0  0  0  0
    6.4603   -2.1241   -0.2027 C   0  0  0  0  0  0  0  0  0  0  0  0
    6.0720   -2.2068   -1.5397 C   0  0  0  0  0  0  0  0  0  0  0  0
    5.1591   -1.2919   -2.0586 C   0  0  0  0  0  0  0  0  0  0  0  0
    4.6232   -0.2942   -1.2415 C   0  0  0  0  0  0  0  0  0  0  0  0
    4.9778   -0.2076    0.1208 C   0  0  0  0  0  0  0  0  0  0  0  0
    4.4351    0.9216    0.9774 C   0  0  0  0  0  0  0  0  0  0  0  0
    3.1409    1.3993    0.4954 N   0  0  0  0  0  0  0  0  0  0  0  0
    1.9281    0.6554    0.6793 C   0  0  0  0  0  0  0  0  0  0  0  0
    1.8902   -0.2972    1.5016 O   0  0  0  0  0  0  0  0  0  0  0  0
    0.6746    1.1023   -0.0263 C   0  0  0  0  0  0  0  0  0  0  0  0
   -0.3427   -0.0362   -0.2274 C   0  0  0  0  0  0  0  0  0  0  0  0
    0.0992   -1.1521   -1.1367 C   0  0  0  0  0  0  0  0  0  0  0  0
    1.1589   -1.0361   -1.8112 O   0  0  0  0  0  0  0  0  0  0  0  0
   -0.7041   -2.3354   -1.2955 N   0  0  0  0  0  0  0  0  0  0  0  0
   -2.0277   -2.5144   -0.6697 C   0  0  0  0  0  0  0  0  0  0  0  0
   -2.4785   -4.0055   -0.7336 C   0  0  0  0  0  0  0  0  0  0  0  0
   -3.6519   -4.2778    0.2207 C   0  0  0  0  0  0  0  0  0  0  0  0
   -2.8301   -4.4876   -2.1512 C   0  0  0  0  0  0  0  0  0  0  0  0
   -3.0455   -1.5869   -1.3065 C   0  0  0  0  0  0  0  0  0  0  0  0
   -3.0285   -1.4156   -2.5541 O   0  0  0  0  0  0  0  0  0  0  0  0
   -4.0870   -0.9678   -0.5340 N   0  0  0  0  0  0  0  0  0  0  0  0
   -3.8167   -0.1157    0.6259 C   0  0  0  0  0  0  0  0  0  0  0  0
   -3.7835    1.3633    0.2120 C   0  0  0  0  0  0  0  0  0  0  0  0
   -2.7758    2.0628    0.9409 O   0  0  0  0  0  0  0  0  0  0  0  0
   -2.7152    3.4612    1.0091 C   0  0  0  0  0  0  0  0  0  0  0  0
   -3.8453    4.1935    1.4136 C   0  0  0  0  0  0  0  0  0  0  0  0
   -3.8057    5.5877    1.4621 C   0  0  0  0  0  0  0  0  0  0  0  0
   -2.6406    6.2664    1.1057 C   0  0  0  0  0  0  0  0  0  0  0  0
   -1.5070    5.5519    0.7083 C   0  0  0  0  0  0  0  0  0  0  0  0
   -1.5242    4.1466    0.6722 C   0  0  0  0  0  0  0  0  0  0  0  0
   -0.3204    3.4251    0.2034 C   0  0  0  0  0  0  0  0  0  0  0  0
    0.4132    3.9440   -0.6817 O   0  0  0  0  0  0  0  0  0  0  0  0
    0.0349    2.1540    0.7647 N   0  0  0  0  0  0  0  0  0  0  0  0
    5.5932   -1.3747    2.7417 H   0  0  0  0  0  0  0  0  0  0  0  0
    6.7183   -0.0152    2.3165 H   0  0  0  0  0  0  0  0  0  0  0  0
    7.2880   -1.7110    2.2382 H   0  0  0  0  0  0  0  0  0  0  0  0
    7.1799   -2.8400    0.1765 H   0  0  0  0  0  0  0  0  0  0  0  0
    6.4913   -2.9746   -2.1779 H   0  0  0  0  0  0  0  0  0  0  0  0
    4.8684   -1.3508   -3.0995 H   0  0  0  0  0  0  0  0  0  0  0  0
    3.9309    0.4109   -1.6832 H   0  0  0  0  0  0  0  0  0  0  0  0
    5.1636    1.7591    0.9516 H   0  0  0  0  0  0  0  0  0  0  0  0
    4.3189    0.6001    2.0355 H   0  0  0  0  0  0  0  0  0  0  0  0
    3.1060    2.3100   -0.0186 H   0  0  0  0  0  0  0  0  0  0  0  0
    0.9583    1.4956   -1.0261 H   0  0  0  0  0  0  0  0  0  0  0  0
   -0.5979   -0.4561    0.7658 H   0  0  0  0  0  0  0  0  0  0  0  0
   -1.2522    0.4056   -0.6774 H   0  0  0  0  0  0  0  0  0  0  0  0
   -0.2928   -3.1105   -1.8609 H   0  0  0  0  0  0  0  0  0  0  0  0
   -1.9232   -2.2733    0.4060 H   0  0  0  0  0  0  0  0  0  0  0  0
   -1.6264   -4.6258   -0.3742 H   0  0  0  0  0  0  0  0  0  0  0  0
   -4.5513   -3.6995   -0.0808 H   0  0  0  0  0  0  0  0  0  0  0  0
   -3.3757   -4.0009    1.2606 H   0  0  0  0  0  0  0  0  0  0  0  0
   -3.9113   -5.3592    0.2151 H   0  0  0  0  0  0  0  0  0  0  0  0
   -3.7595   -4.0063   -2.5188 H   0  0  0  0  0  0  0  0  0  0  0  0
   -2.9903   -5.5880   -2.1467 H   0  0  0  0  0  0  0  0  0  0  0  0
   -2.0100   -4.2726   -2.8639 H   0  0  0  0  0  0  0  0  0  0  0  0
   -5.0111   -0.8389   -1.0036 H   0  0  0  0  0  0  0  0  0  0  0  0
   -4.6204   -0.2648    1.3787 H   0  0  0  0  0  0  0  0  0  0  0  0
   -2.8699   -0.4008    1.1190 H   0  0  0  0  0  0  0  0  0  0  0  0
   -4.7881    1.8095    0.3838 H   0  0  0  0  0  0  0  0  0  0  0  0
   -3.5582    1.4619   -0.8711 H   0  0  0  0  0  0  0  0  0  0  0  0
   -4.7546    3.6845    1.7070 H   0  0  0  0  0  0  0  0  0  0  0  0
   -4.6834    6.1427    1.7690 H   0  0  0  0  0  0  0  0  0  0  0  0
   -2.6152    7.3491    1.1342 H   0  0  0  0  0  0  0  0  0  0  0  0
   -0.6145    6.0990    0.4319 H   0  0  0  0  0  0  0  0  0  0  0  0
   -0.2977    1.9244    1.7306 H   0  0  0  0  0  0  0  0  0  0  0  0
  1  2  1  0
  2  3  2  0
  3  4  1  0
  4  5  2  0
  5  6  1  0
  6  7  2  0
  7  8  1  0
  8  9  1  0
  9 10  1  0
 10 11  2  0
 10 12  1  0
 12 13  1  0
 13 14  1  0
 14 15  2  0
 14 16  1  0
 16 17  1  0
 17 18  1  0
 18 19  1  0
 18 20  1  0
 17 21  1  0
 21 22  2  0
 21 23  1  0
 23 24  1  0
 24 25  1  0
 25 26  1  0
 26 27  1  0
 27 28  2  0
 28 29  1  0
 29 30  2  0
 30 31  1  0
 31 32  2  0
 32 33  1  0
 33 34  2  0
 33 35  1  0
  7  2  1  0
 35 12  1  0
 32 27  1  0
  1 36  1  0
  1 37  1  0
  1 38  1  0
  3 39  1  0
  4 40  1  0
  5 41  1  0
  6 42  1  0
  8 43  1  0
  8 44  1  0
  9 45  1  0
 12 46  1  0
 13 47  1  0
 13 48  1  0
 16 49  1  0
 17 50  1  0
 18 51  1  0
 19 52  1  0
 19 53  1  0
 19 54  1  0
 20 55  1  0
 20 56  1  0
 20 57  1  0
 23 58  1  0
 24 59  1  0
 24 60  1  0
 25 61  1  0
 25 62  1  0
 28 63  1  0
 29 64  1  0
 30 65  1  0
 31 66  1  0
 35 67  1  0
M  END
$$$$
