
     RDKit          3D

 63 65  0  0  0  0  0  0  0  0999 V2000
   -3.5053    3.3170   -3.2382 C   0  0  0  0  0  0  0  0  0  0  0  0
   -3.1465    3.0801   -1.7644 C   0  0  0  0  0  0  0  0  0  0  0  0
   -2.3693    4.2897   -1.2229 C   0  0  0  0  0  0  0  0  0  0  0  0
   -2.3476    1.7603   -1.6212 C   0  0  0  0  0  0  0  0  0  0  0  0
   -2.2221    1.2599   -0.1581 C   0  0  0  0  0  0  0  0  0  0  0  0
   -1.9811   -0.2571   -0.0526 C   0  0  0  0  0  0  0  0  0  0  0  0
   -1.8478   -0.6222    1.3200 O   0  0  0  0  0  0  0  0  0  0  0  0
   -2.1495   -1.8752    1.8842 C   0  0  0  0  0  0  0  0  0  0  0  0
   -2.4668   -1.8862    3.2489 C   0  0  0  0  0  0  0  0  0  0  0  0
   -2.8332   -3.0693    3.8921 C   0  0  0  0  0  0  0  0  0  0  0  0
   -2.8804   -4.2666    3.1787 C   0  0  0  0  0  0  0  0  0  0  0  0
   -3.3414   -5.7530    3.9881 Cl  0  0  0  0  0  0  0  0  0  0  0  0
   -2.5412   -4.2842    1.8243 C   0  0  0  0  0  0  0  0  0  0  0  0
   -2.1573   -3.1039    1.1675 C   0  0  0  0  0  0  0  0  0  0  0  0
   -1.6975   -3.2242   -0.2256 C   0  0  0  0  0  0  0  0  0  0  0  0
   -2.5453   -3.4316   -1.1340 O   0  0  0  0  0  0  0  0  0  0  0  0
   -0.3056   -3.1539   -0.5632 N   0  0  0  0  0  0  0  0  0  0  0  0
    0.7535   -3.1810    0.4483 C   0  0  0  0  0  0  0  0  0  0  0  0
    2.1169   -2.8045   -0.1513 C   0  0  0  0  0  0  0  0  0  0  0  0
    2.1553   -1.3798   -0.7309 C   0  0  0  0  0  0  0  0  0  0  0  0
    2.1073   -0.2941    0.3566 C   0  0  0  0  0  0  0  0  0  0  0  0
    2.1866    1.0452   -0.2462 N   0  0  0  0  0  0  0  0  0  0  0  0
    3.3941    1.8450   -0.1954 C   0  0  0  0  0  0  0  0  0  0  0  0
    3.3056    3.0999   -0.2844 O   0  0  0  0  0  0  0  0  0  0  0  0
    4.7449    1.2581   -0.0491 C   0  0  0  0  0  0  0  0  0  0  0  0
    5.8993    1.9689    0.2304 C   0  0  0  0  0  0  0  0  0  0  0  0
    6.8984    1.0204    0.2304 C   0  0  0  0  0  0  0  0  0  0  0  0
    6.3537   -0.1773   -0.0433 N   0  0  0  0  0  0  0  0  0  0  0  0
    5.0502   -0.0429   -0.2197 N   0  0  0  0  0  0  0  0  0  0  0  0
    0.9356    1.6472   -0.7349 C   0  0  0  0  0  0  0  0  0  0  0  0
    0.1562    2.2493    0.4071 C   0  0  0  0  0  0  0  0  0  0  0  0
    0.7700    3.0221    1.1918 O   0  0  0  0  0  0  0  0  0  0  0  0
   -1.2503    2.0256    0.6411 N   0  0  0  0  0  0  0  0  0  0  0  0
   -4.1182    2.4747   -3.6256 H   0  0  0  0  0  0  0  0  0  0  0  0
   -4.1023    4.2481   -3.3464 H   0  0  0  0  0  0  0  0  0  0  0  0
   -2.5855    3.4059   -3.8559 H   0  0  0  0  0  0  0  0  0  0  0  0
   -4.1012    2.9938   -1.2000 H   0  0  0  0  0  0  0  0  0  0  0  0
   -2.2922    4.2425   -0.1184 H   0  0  0  0  0  0  0  0  0  0  0  0
   -2.9016    5.2337   -1.4681 H   0  0  0  0  0  0  0  0  0  0  0  0
   -1.3493    4.3318   -1.6625 H   0  0  0  0  0  0  0  0  0  0  0  0
   -2.8848    0.9749   -2.1980 H   0  0  0  0  0  0  0  0  0  0  0  0
   -1.3640    1.8807   -2.1106 H   0  0  0  0  0  0  0  0  0  0  0  0
   -3.2212    1.4121    0.3107 H   0  0  0  0  0  0  0  0  0  0  0  0
   -2.8642   -0.7730   -0.4888 H   0  0  0  0  0  0  0  0  0  0  0  0
   -1.0815   -0.5703   -0.6097 H   0  0  0  0  0  0  0  0  0  0  0  0
   -2.4491   -0.9616    3.8123 H   0  0  0  0  0  0  0  0  0  0  0  0
   -3.0853   -3.0516    4.9446 H   0  0  0  0  0  0  0  0  0  0  0  0
   -2.5505   -5.2261    1.2877 H   0  0  0  0  0  0  0  0  0  0  0  0
   -0.0504   -3.1867   -1.5766 H   0  0  0  0  0  0  0  0  0  0  0  0
    0.8164   -4.2060    0.8724 H   0  0  0  0  0  0  0  0  0  0  0  0
    0.5115   -2.4935    1.2829 H   0  0  0  0  0  0  0  0  0  0  0  0
    2.9011   -2.9087    0.6296 H   0  0  0  0  0  0  0  0  0  0  0  0
    2.3616   -3.5270   -0.9604 H   0  0  0  0  0  0  0  0  0  0  0  0
    1.3178   -1.2394   -1.4446 H   0  0  0  0  0  0  0  0  0  0  0  0
    3.0895   -1.2688   -1.3185 H   0  0  0  0  0  0  0  0  0  0  0  0
    1.1559   -0.3743    0.9224 H   0  0  0  0  0  0  0  0  0  0  0  0
    2.9161   -0.4432    1.1020 H   0  0  0  0  0  0  0  0  0  0  0  0
    6.0017    3.0313    0.4083 H   0  0  0  0  0  0  0  0  0  0  0  0
    7.9509    1.1922    0.4125 H   0  0  0  0  0  0  0  0  0  0  0  0
    6.8663   -1.0836   -0.1160 H   0  0  0  0  0  0  0  0  0  0  0  0
    0.3619    0.8800   -1.2732 H   0  0  0  0  0  0  0  0  0  0  0  0
    1.1525    2.4426   -1.4800 H   0  0  0  0  0  0  0  0  0  0  0  0
   -1.6411    2.4881    1.4941 H   0  0  0  0  0  0  0  0  0  0  0  0
  1  2  1  0
  2  3  1  0
  2  4  1  0
  4  5  1  0
  5  6  1  0
  6  7  1  0
  7  8  1  0
  8  9  2  0
  9 10  1  0
 10 11  2  0
 11 12  1  0
 11 13  1  0
 13 14  2  0
 14 15  1  0
 15 16  2  0
 15 17  1  0
 17 18  1  0
 18 19  1  0
 19 20  1  0
 20 21  1  0
 21 22  1  0
 22 23  1  0
 23 24  2  0
 23 25  1  0
 25 26  1  0
 26 27  2  0
 27 28  1  0
 28 29  1  0
 22 30  1  0
 30 31  1  0
 31 32  2  0
 31 33  1  0
 33  5  1  0
 14  8  1  0
 29 25  2  0
  1 34  1  0
  1 35  1  0
  1 36  1  0
  2 37  1  0
  3 38  1  0
  3 39  1  0
  3 40  1  0
  4 41  1  0
  4 42  1  0
  5 43  1  0
  6 44  1  0
  6 45  1  0
  9 46  1  0
 10 47  1  0
 13 48  1  0
 17 49  1  0
 18 50  1  0
 18 51  1  0
 19 52  1  0
 19 53  1  0
 20 54  1  0
 20 55  1  0
 21 56  1  0
 21 57  1  0
 26 58  1  0
 27 59  1  0
 28 60  1  0
 30 61  1  0
 30 62  1  0
 33 63  1  0
M  END
$$$$
