
     RDKit          3D

 73 76  0  0  0  0  0  0  0  0999 V2000
    1.2916    0.6801    3.4904 O   0  0  0  0  0  0  0  0  0  0  0  0
    0.5462    0.3917    2.5083 C   0  0  0  0  0  0  0  0  0  0  0  0
    1.1457    0.3176    1.1339 C   0  0  0  0  0  0  0  0  0  0  0  0
    2.1090    1.4070    0.9034 N   0  0  0  0  0  0  0  0  0  0  0  0
    3.4938    1.1334    0.6027 C   0  0  0  0  0  0  0  0  0  0  0  0
    4.3869    1.8100    1.1824 O   0  0  0  0  0  0  0  0  0  0  0  0
    3.9304    0.0883   -0.4052 C   0  0  0  0  0  0  0  0  0  0  0  0
    2.9283   -0.1144   -1.5612 C   0  0  0  0  0  0  0  0  0  0  0  0
    3.4963   -1.0547   -2.6474 C   0  0  0  0  0  0  0  0  0  0  0  0
    4.4549   -2.1397   -2.0975 C   0  0  0  0  0  0  0  0  0  0  0  0
    5.7662   -1.6919   -2.1833 F   0  0  0  0  0  0  0  0  0  0  0  0
    4.3448   -3.2932   -2.8599 F   0  0  0  0  0  0  0  0  0  0  0  0
    4.1388   -2.4737   -0.6329 C   0  0  0  0  0  0  0  0  0  0  0  0
    4.3190   -1.2483    0.2849 C   0  0  0  0  0  0  0  0  0  0  0  0
    1.6741    2.8088    1.0391 C   0  0  0  0  0  0  0  0  0  0  0  0
    1.7453    3.5527   -0.3063 C   0  0  0  0  0  0  0  0  0  0  0  0
    0.5983    3.1664   -1.2668 C   0  0  0  0  0  0  0  0  0  0  0  0
   -0.5673    4.1655   -1.2543 C   0  0  0  0  0  0  0  0  0  0  0  0
   -1.1799    4.2598    0.0753 N   0  0  0  0  0  0  0  0  0  0  0  0
   -2.4199    3.6273    0.4510 C   0  0  0  0  0  0  0  0  0  0  0  0
   -2.8932    3.8289    1.6073 O   0  0  0  0  0  0  0  0  0  0  0  0
   -3.1710    2.7886   -0.5009 C   0  0  0  0  0  0  0  0  0  0  0  0
   -3.8967    3.4144   -1.5265 C   0  0  0  0  0  0  0  0  0  0  0  0
   -4.4327    2.6623   -2.5702 C   0  0  0  0  0  0  0  0  0  0  0  0
   -5.2921    3.4647   -3.8738 Cl  0  0  0  0  0  0  0  0  0  0  0  0
   -4.2634    1.2741   -2.5843 C   0  0  0  0  0  0  0  0  0  0  0  0
   -3.5721    0.6351   -1.5468 C   0  0  0  0  0  0  0  0  0  0  0  0
   -3.0378    1.3848   -0.4787 C   0  0  0  0  0  0  0  0  0  0  0  0
   -2.3737    0.7750    0.6050 O   0  0  0  0  0  0  0  0  0  0  0  0
   -2.1027   -0.6244    0.7038 C   0  0  0  0  0  0  0  0  0  0  0  0
   -1.6183   -0.9847    2.1246 C   0  0  0  0  0  0  0  0  0  0  0  0
   -0.8436   -2.3194    2.1692 C   0  0  0  0  0  0  0  0  0  0  0  0
   -1.6896   -3.4844    1.7329 C   0  0  0  0  0  0  0  0  0  0  0  0
   -1.5660   -3.9990    0.4317 C   0  0  0  0  0  0  0  0  0  0  0  0
   -2.3512   -5.0809    0.0271 C   0  0  0  0  0  0  0  0  0  0  0  0
   -3.2681   -5.6504    0.9168 C   0  0  0  0  0  0  0  0  0  0  0  0
   -3.4055   -5.1341    2.2095 C   0  0  0  0  0  0  0  0  0  0  0  0
   -2.6209   -4.0539    2.6178 C   0  0  0  0  0  0  0  0  0  0  0  0
   -0.8425    0.1013    2.7532 N   0  0  0  0  0  0  0  0  0  0  0  0
    0.3585    0.3909    0.3627 H   0  0  0  0  0  0  0  0  0  0  0  0
    1.6321   -0.6728    1.0436 H   0  0  0  0  0  0  0  0  0  0  0  0
    4.8530    0.4832   -0.8828 H   0  0  0  0  0  0  0  0  0  0  0  0
    1.9863   -0.5629   -1.1945 H   0  0  0  0  0  0  0  0  0  0  0  0
    2.6818    0.8673   -2.0183 H   0  0  0  0  0  0  0  0  0  0  0  0
    2.6438   -1.5375   -3.1758 H   0  0  0  0  0  0  0  0  0  0  0  0
    4.0345   -0.4531   -3.4061 H   0  0  0  0  0  0  0  0  0  0  0  0
    3.0908   -2.8404   -0.5632 H   0  0  0  0  0  0  0  0  0  0  0  0
    4.8013   -3.2912   -0.2872 H   0  0  0  0  0  0  0  0  0  0  0  0
    5.3813   -1.1853    0.6064 H   0  0  0  0  0  0  0  0  0  0  0  0
    3.7328   -1.4190    1.2123 H   0  0  0  0  0  0  0  0  0  0  0  0
    2.3245    3.3275    1.7801 H   0  0  0  0  0  0  0  0  0  0  0  0
    0.6356    2.8557    1.4297 H   0  0  0  0  0  0  0  0  0  0  0  0
    2.7215    3.3348   -0.7935 H   0  0  0  0  0  0  0  0  0  0  0  0
    1.7313    4.6470   -0.1141 H   0  0  0  0  0  0  0  0  0  0  0  0
    0.2106    2.1482   -1.0530 H   0  0  0  0  0  0  0  0  0  0  0  0
    1.0015    3.1409   -2.3041 H   0  0  0  0  0  0  0  0  0  0  0  0
   -1.3115    3.8563   -2.0197 H   0  0  0  0  0  0  0  0  0  0  0  0
   -0.2002    5.1688   -1.5623 H   0  0  0  0  0  0  0  0  0  0  0  0
   -0.6741    4.8109    0.8046 H   0  0  0  0  0  0  0  0  0  0  0  0
   -3.9930    4.4943   -1.5466 H   0  0  0  0  0  0  0  0  0  0  0  0
   -4.6701    0.6894   -3.3924 H   0  0  0  0  0  0  0  0  0  0  0  0
   -3.4483   -0.4356   -1.5964 H   0  0  0  0  0  0  0  0  0  0  0  0
   -3.0346   -1.2023    0.5016 H   0  0  0  0  0  0  0  0  0  0  0  0
   -1.3522   -0.9141   -0.0626 H   0  0  0  0  0  0  0  0  0  0  0  0
   -2.5400   -1.1160    2.7377 H   0  0  0  0  0  0  0  0  0  0  0  0
   -0.4953   -2.5040    3.2081 H   0  0  0  0  0  0  0  0  0  0  0  0
    0.0631   -2.2623    1.5324 H   0  0  0  0  0  0  0  0  0  0  0  0
   -0.8651   -3.5599   -0.2677 H   0  0  0  0  0  0  0  0  0  0  0  0
   -2.2563   -5.4700   -0.9779 H   0  0  0  0  0  0  0  0  0  0  0  0
   -3.8849   -6.4795    0.5999 H   0  0  0  0  0  0  0  0  0  0  0  0
   -4.1263   -5.5644    2.8906 H   0  0  0  0  0  0  0  0  0  0  0  0
   -2.7428   -3.6593    3.6178 H   0  0  0  0  0  0  0  0  0  0  0  0
   -1.2509    0.5239    3.6164 H   0  0  0  0  0  0  0  0  0  0  0  0
  1  2  2  0
  2  3  1  0
  3  4  1  0
  4  5  1  0
  5  6  2  0
  5  7  1  0
  7  8  1  0
  8  9  1  0
  9 10  1  0
 10 11  1  0
 10 12  1  0
 10 13  1  0
 13 14  1  0
  4 15  1  0
 15 16  1  0
 16 17  1  0
 17 18  1  0
 18 19  1  0
 19 20  1  0
 20 21  2  0
 20 22  1  0
 22 23  2  0
 23 24  1  0
 24 25  1  0
 24 26  2  0
 26 27  1  0
 27 28  2  0
 28 29  1  0
 29 30  1  0
 30 31  1  0
 31 32  1  0
 32 33  1  0
 33 34  2  0
 34 35  1  0
 35 36  2  0
 36 37  1  0
 37 38  2  0
 31 39  1  0
 39  2  1  0
 14  7  1  0
 28 22  1  0
 38 33  1  0
  3 40  1  0
  3 41  1  0
  7 42  1  0
  8 43  1  0
  8 44  1  0
  9 45  1  0
  9 46  1  0
 13 47  1  0
 13 48  1  0
 14 49  1  0
 14 50  1  0
 15 51  1  0
 15 52  1  0
 16 53  1  0
 16 54  1  0
 17 55  1  0
 17 56  1  0
 18 57  1  0
 18 58  1  0
 19 59  1  0
 23 60  1  0
 26 61  1  0
 27 62  1  0
 30 63  1  0
 30 64  1  0
 31 65  1  0
 32 66  1  0
 32 67  1  0
 34 68  1  0
 35 69  1  0
 36 70  1  0
 37 71  1  0
 38 72  1  0
 39 73  1  0
M  END
$$$$
