
     RDKit          3D

 63 66  0  0  0  0  0  0  0  0999 V2000
    8.0180    1.6642    1.8291 C   0  0  0  0  0  0  0  0  0  0  0  0
    6.9416    2.1801    1.0764 O   0  0  0  0  0  0  0  0  0  0  0  0
    6.9950    1.6967   -0.2522 C   0  0  0  0  0  0  0  0  0  0  0  0
    6.3489    0.3457   -0.3641 C   0  0  0  0  0  0  0  0  0  0  0  0
    6.7518   -0.6018   -1.2403 N   0  0  0  0  0  0  0  0  0  0  0  0
    6.0262   -1.7198   -1.1770 N   0  0  0  0  0  0  0  0  0  0  0  0
    5.0271   -1.6644   -0.2668 C   0  0  0  0  0  0  0  0  0  0  0  0
    4.2581   -2.8206    0.0946 N   0  0  0  0  0  0  0  0  0  0  0  0
    3.0175   -2.8079    0.8236 C   0  0  0  0  0  0  0  0  0  0  0  0
    2.6033   -3.8832    1.3366 O   0  0  0  0  0  0  0  0  0  0  0  0
    2.0843   -1.6227    0.8101 C   0  0  0  0  0  0  0  0  0  0  0  0
    1.7547   -1.2356   -0.5781 N   0  0  0  0  0  0  0  0  0  0  0  0
    0.9290   -2.2129   -1.3010 C   0  0  0  0  0  0  0  0  0  0  0  0
   -0.5330   -2.1228   -0.8829 C   0  0  0  0  0  0  0  0  0  0  0  0
   -1.0895   -0.8424   -1.0993 O   0  0  0  0  0  0  0  0  0  0  0  0
   -0.3504    0.2534   -0.5549 C   0  0  0  0  0  0  0  0  0  0  0  0
   -0.7653    1.4982   -1.4027 C   0  0  0  0  0  0  0  0  0  0  0  0
   -2.2564    1.7019   -1.5204 C   0  0  0  0  0  0  0  0  0  0  0  0
   -2.9386    2.4580   -0.6466 C   0  0  0  0  0  0  0  0  0  0  0  0
   -4.4141    2.7280   -0.8160 C   0  0  0  0  0  0  0  0  0  0  0  0
   -5.2390    1.4652   -0.9548 C   0  0  0  0  0  0  0  0  0  0  0  0
   -6.1829    1.3681   -1.9930 C   0  0  0  0  0  0  0  0  0  0  0  0
   -6.9971    0.2393   -2.1079 C   0  0  0  0  0  0  0  0  0  0  0  0
   -6.8944   -0.7980   -1.1770 C   0  0  0  0  0  0  0  0  0  0  0  0
   -5.9777   -0.7063   -0.1266 C   0  0  0  0  0  0  0  0  0  0  0  0
   -5.1399    0.4207   -0.0093 C   0  0  0  0  0  0  0  0  0  0  0  0
   -4.1886    0.5361    1.0165 O   0  0  0  0  0  0  0  0  0  0  0  0
   -3.8165   -0.5115    1.9047 C   0  0  0  0  0  0  0  0  0  0  0  0
   -2.5069   -0.1430    2.5970 C   0  0  0  0  0  0  0  0  0  0  0  0
   -1.3784   -0.4702    1.7257 N   0  0  0  0  0  0  0  0  0  0  0  0
   -0.7241    0.5119    0.9094 C   0  0  0  0  0  0  0  0  0  0  0  0
   -0.4252    1.6227    1.4280 O   0  0  0  0  0  0  0  0  0  0  0  0
    1.2123    0.1263   -0.7153 C   0  0  0  0  0  0  0  0  0  0  0  0
    5.0336   -0.1829    0.5449 S   0  0  0  0  0  0  0  0  0  0  0  0
    7.9138    2.0056    2.8804 H   0  0  0  0  0  0  0  0  0  0  0  0
    8.9888    2.0448    1.4466 H   0  0  0  0  0  0  0  0  0  0  0  0
    8.0140    0.5509    1.8345 H   0  0  0  0  0  0  0  0  0  0  0  0
    8.0310    1.6695   -0.6569 H   0  0  0  0  0  0  0  0  0  0  0  0
    6.4226    2.3967   -0.8975 H   0  0  0  0  0  0  0  0  0  0  0  0
    4.6578   -3.7530   -0.1589 H   0  0  0  0  0  0  0  0  0  0  0  0
    2.5550   -0.7836    1.3590 H   0  0  0  0  0  0  0  0  0  0  0  0
    1.1748   -1.8809    1.3774 H   0  0  0  0  0  0  0  0  0  0  0  0
    1.2975   -3.2473   -1.1365 H   0  0  0  0  0  0  0  0  0  0  0  0
    1.0066   -2.0082   -2.3931 H   0  0  0  0  0  0  0  0  0  0  0  0
   -0.6776   -2.4659    0.1541 H   0  0  0  0  0  0  0  0  0  0  0  0
   -1.1027   -2.8421   -1.5064 H   0  0  0  0  0  0  0  0  0  0  0  0
   -0.3965    1.3601   -2.4464 H   0  0  0  0  0  0  0  0  0  0  0  0
   -0.2773    2.4301   -1.0304 H   0  0  0  0  0  0  0  0  0  0  0  0
   -2.7742    1.2616   -2.3728 H   0  0  0  0  0  0  0  0  0  0  0  0
   -2.4242    2.9191    0.1940 H   0  0  0  0  0  0  0  0  0  0  0  0
   -4.5426    3.3910   -1.6968 H   0  0  0  0  0  0  0  0  0  0  0  0
   -4.7814    3.2871    0.0681 H   0  0  0  0  0  0  0  0  0  0  0  0
   -6.2879    2.1661   -2.7177 H   0  0  0  0  0  0  0  0  0  0  0  0
   -7.7117    0.1707   -2.9170 H   0  0  0  0  0  0  0  0  0  0  0  0
   -7.5372   -1.6682   -1.2600 H   0  0  0  0  0  0  0  0  0  0  0  0
   -5.9304   -1.5175    0.5878 H   0  0  0  0  0  0  0  0  0  0  0  0
   -4.6177   -0.6578    2.6610 H   0  0  0  0  0  0  0  0  0  0  0  0
   -3.6669   -1.4630    1.3442 H   0  0  0  0  0  0  0  0  0  0  0  0
   -2.4215   -0.7370    3.5342 H   0  0  0  0  0  0  0  0  0  0  0  0
   -2.5001    0.9295    2.8851 H   0  0  0  0  0  0  0  0  0  0  0  0
   -0.8484   -1.3295    1.9793 H   0  0  0  0  0  0  0  0  0  0  0  0
    1.7318    0.8289   -0.0267 H   0  0  0  0  0  0  0  0  0  0  0  0
    1.5214    0.4719   -1.7275 H   0  0  0  0  0  0  0  0  0  0  0  0
  1  2  1  0
  2  3  1  0
  3  4  1  0
  4  5  2  0
  5  6  1  0
  6  7  2  0
  7  8  1  0
  8  9  1  0
  9 10  2  0
  9 11  1  0
 11 12  1  0
 12 13  1  0
 13 14  1  0
 14 15  1  0
 15 16  1  0
 16 17  1  0
 17 18  1  0
 18 19  2  0
 19 20  1  0
 20 21  1  0
 21 22  2  0
 22 23  1  0
 23 24  2  0
 24 25  1  0
 25 26  2  0
 26 27  1  0
 27 28  1  0
 28 29  1  0
 29 30  1  0
 30 31  1  0
 31 32  2  0
 16 33  1  0
  7 34  1  0
 34  4  1  0
 33 12  1  0
 31 16  1  0
 26 21  1  0
  1 35  1  0
  1 36  1  0
  1 37  1  0
  3 38  1  0
  3 39  1  0
  8 40  1  0
 11 41  1  0
 11 42  1  0
 13 43  1  0
 13 44  1  0
 14 45  1  0
 14 46  1  0
 17 47  1  0
 17 48  1  0
 18 49  1  0
 19 50  1  0
 20 51  1  0
 20 52  1  0
 22 53  1  0
 23 54  1  0
 24 55  1  0
 25 56  1  0
 28 57  1  0
 28 58  1  0
 29 59  1  0
 29 60  1  0
 30 61  1  0
 33 62  1  0
 33 63  1  0
M  END
$$$$
