
     RDKit          3D

 84 87  0  0  0  0  0  0  0  0999 V2000
   -3.1625    0.1473   -2.3525 C   0  0  0  0  0  0  0  0  0  0  0  0
   -2.7912    0.9884   -1.1250 C   0  0  0  0  0  0  0  0  0  0  0  0
   -2.2045    2.3503   -1.5531 C   0  0  0  0  0  0  0  0  0  0  0  0
   -3.9472    1.0878   -0.1807 N   0  0  0  0  0  0  0  0  0  0  0  0
   -4.9750    2.0700   -0.6074 C   0  0  0  0  0  0  0  0  0  0  0  0
   -6.3018    1.8019    0.0604 C   0  0  0  0  0  0  0  0  0  0  0  0
   -6.6518    2.5390    1.0214 O   0  0  0  0  0  0  0  0  0  0  0  0
   -7.1715    0.7281   -0.3368 N   0  0  0  0  0  0  0  0  0  0  0  0
   -7.0464   -0.0137   -1.5909 C   0  0  0  0  0  0  0  0  0  0  0  0
   -7.5548   -1.4588   -1.4427 C   0  0  0  0  0  0  0  0  0  0  0  0
   -6.5606   -2.3645   -0.6974 C   0  0  0  0  0  0  0  0  0  0  0  0
   -6.7199   -2.3041    0.8347 C   0  0  0  0  0  0  0  0  0  0  0  0
   -5.3790   -2.4676    1.5461 C   0  0  0  0  0  0  0  0  0  0  0  0
   -4.5906   -1.2966    1.3404 O   0  0  0  0  0  0  0  0  0  0  0  0
   -3.2995   -1.0995    1.8529 C   0  0  0  0  0  0  0  0  0  0  0  0
   -2.5592   -2.1523    2.4211 C   0  0  0  0  0  0  0  0  0  0  0  0
   -1.2824   -1.9243    2.9350 C   0  0  0  0  0  0  0  0  0  0  0  0
   -0.7177   -0.6430    2.8966 C   0  0  0  0  0  0  0  0  0  0  0  0
    0.6280   -0.3926    3.5390 C   0  0  0  0  0  0  0  0  0  0  0  0
    1.6491    0.2920    2.6103 C   0  0  0  0  0  0  0  0  0  0  0  0
    2.0448   -0.5231    1.3993 C   0  0  0  0  0  0  0  0  0  0  0  0
    1.4788   -1.6302    1.1890 O   0  0  0  0  0  0  0  0  0  0  0  0
    3.0564   -0.0580    0.4727 N   0  0  0  0  0  0  0  0  0  0  0  0
    3.4373   -0.9278   -0.6542 C   0  0  0  0  0  0  0  0  0  0  0  0
    4.3358   -0.2070   -1.6736 C   0  0  0  0  0  0  0  0  0  0  0  0
    5.5323    0.5367   -1.0239 C   0  0  0  0  0  0  0  0  0  0  0  0
    6.7634   -0.3546   -0.9418 C   0  0  0  0  0  0  0  0  0  0  0  0
    6.6030   -1.6139   -0.4476 N   0  0  0  0  0  0  0  0  0  0  0  0
    7.6444   -2.4699   -0.3120 C   0  0  0  0  0  0  0  0  0  0  0  0
    8.8909   -2.0787   -0.6646 N   0  0  0  0  0  0  0  0  0  0  0  0
    9.1206   -0.8339   -1.1495 C   0  0  0  0  0  0  0  0  0  0  0  0
    8.0664    0.0808   -1.2955 C   0  0  0  0  0  0  0  0  0  0  0  0
    8.3985    1.7040   -1.9318 S   0  0  0  0  0  6  0  0  0  0  0  0
   10.1418    2.0098   -2.1403 C   0  0  0  0  0  0  0  0  0  0  0  0
    7.8623    2.7368   -0.9810 O   0  0  0  0  0  0  0  0  0  0  0  0
    7.7355    1.8575   -3.2720 O   0  0  0  0  0  0  0  0  0  0  0  0
    5.2011    1.1176    0.3743 C   0  0  0  0  0  0  0  0  0  0  0  0
    3.6961    1.2624    0.6001 C   0  0  0  0  0  0  0  0  0  0  0  0
   -1.4555    0.4121    2.3354 C   0  0  0  0  0  0  0  0  0  0  0  0
   -2.7332    0.1896    1.7944 C   0  0  0  0  0  0  0  0  0  0  0  0
   -3.5093    1.3514    1.2119 C   0  0  0  0  0  0  0  0  0  0  0  0
   -3.6088   -0.8167   -2.0270 H   0  0  0  0  0  0  0  0  0  0  0  0
   -2.2492   -0.0782   -2.9458 H   0  0  0  0  0  0  0  0  0  0  0  0
   -3.8798    0.6816   -3.0107 H   0  0  0  0  0  0  0  0  0  0  0  0
   -1.9601    0.4292   -0.6394 H   0  0  0  0  0  0  0  0  0  0  0  0
   -2.9219    2.9255   -2.1741 H   0  0  0  0  0  0  0  0  0  0  0  0
   -1.9208    2.9578   -0.6684 H   0  0  0  0  0  0  0  0  0  0  0  0
   -1.2863    2.1856   -2.1587 H   0  0  0  0  0  0  0  0  0  0  0  0
   -4.6450    3.1047   -0.3611 H   0  0  0  0  0  0  0  0  0  0  0  0
   -5.1281    2.0479   -1.7055 H   0  0  0  0  0  0  0  0  0  0  0  0
   -8.0751    0.6444    0.1829 H   0  0  0  0  0  0  0  0  0  0  0  0
   -7.6551    0.5008   -2.3633 H   0  0  0  0  0  0  0  0  0  0  0  0
   -5.9992   -0.0297   -1.9493 H   0  0  0  0  0  0  0  0  0  0  0  0
   -7.6848   -1.8731   -2.4669 H   0  0  0  0  0  0  0  0  0  0  0  0
   -8.5571   -1.4813   -0.9562 H   0  0  0  0  0  0  0  0  0  0  0  0
   -6.7297   -3.4168   -1.0152 H   0  0  0  0  0  0  0  0  0  0  0  0
   -5.5243   -2.1126   -1.0127 H   0  0  0  0  0  0  0  0  0  0  0  0
   -7.4032   -3.1200    1.1567 H   0  0  0  0  0  0  0  0  0  0  0  0
   -7.1790   -1.3516    1.1661 H   0  0  0  0  0  0  0  0  0  0  0  0
   -5.5557   -2.6057    2.6363 H   0  0  0  0  0  0  0  0  0  0  0  0
   -4.8550   -3.3639    1.1468 H   0  0  0  0  0  0  0  0  0  0  0  0
   -2.9620   -3.1542    2.4754 H   0  0  0  0  0  0  0  0  0  0  0  0
   -0.7390   -2.7503    3.3741 H   0  0  0  0  0  0  0  0  0  0  0  0
    1.0717   -1.3401    3.9189 H   0  0  0  0  0  0  0  0  0  0  0  0
    0.4662    0.2555    4.4278 H   0  0  0  0  0  0  0  0  0  0  0  0
    2.5614    0.4754    3.2175 H   0  0  0  0  0  0  0  0  0  0  0  0
    1.2617    1.2771    2.2765 H   0  0  0  0  0  0  0  0  0  0  0  0
    3.9606   -1.8237   -0.2615 H   0  0  0  0  0  0  0  0  0  0  0  0
    2.5232   -1.2699   -1.1853 H   0  0  0  0  0  0  0  0  0  0  0  0
    3.7089    0.5353   -2.2162 H   0  0  0  0  0  0  0  0  0  0  0  0
    4.6923   -0.9325   -2.4382 H   0  0  0  0  0  0  0  0  0  0  0  0
    5.7297    1.3933   -1.6997 H   0  0  0  0  0  0  0  0  0  0  0  0
    7.4785   -3.4649    0.0784 H   0  0  0  0  0  0  0  0  0  0  0  0
   10.1300   -0.5679   -1.4203 H   0  0  0  0  0  0  0  0  0  0  0  0
   10.2936    3.0537   -2.4858 H   0  0  0  0  0  0  0  0  0  0  0  0
   10.6630    1.8715   -1.1707 H   0  0  0  0  0  0  0  0  0  0  0  0
   10.5588    1.3123   -2.8969 H   0  0  0  0  0  0  0  0  0  0  0  0
    5.6018    0.4635    1.1802 H   0  0  0  0  0  0  0  0  0  0  0  0
    5.6871    2.1111    0.4902 H   0  0  0  0  0  0  0  0  0  0  0  0
    3.2620    1.9576   -0.1507 H   0  0  0  0  0  0  0  0  0  0  0  0
    3.5442    1.7118    1.6009 H   0  0  0  0  0  0  0  0  0  0  0  0
   -1.0425    1.4118    2.3325 H   0  0  0  0  0  0  0  0  0  0  0  0
   -4.3878    1.5051    1.8767 H   0  0  0  0  0  0  0  0  0  0  0  0
   -2.9181    2.2913    1.2630 H   0  0  0  0  0  0  0  0  0  0  0  0
  1  2  1  0
  2  3  1  0
  2  4  1  0
  4  5  1  0
  5  6  1  0
  6  7  2  0
  6  8  1  0
  8  9  1  0
  9 10  1  0
 10 11  1  0
 11 12  1  0
 12 13  1  0
 13 14  1  0
 14 15  1  0
 15 16  2  0
 16 17  1  0
 17 18  2  0
 18 19  1  0
 19 20  1  0
 20 21  1  0
 21 22  2  0
 21 23  1  0
 23 24  1  0
 24 25  1  0
 25 26  1  0
 26 27  1  0
 27 28  2  0
 28 29  1  0
 29 30  2  0
 30 31  1  0
 31 32  2  0
 32 33  1  0
 33 34  1  0
 33 35  2  0
 33 36  2  0
 26 37  1  0
 37 38  1  0
 18 39  1  0
 39 40  2  0
 40 41  1  0
 41  4  1  0
 40 15  1  0
 38 23  1  0
 32 27  1  0
  1 42  1  0
  1 43  1  0
  1 44  1  0
  2 45  1  0
  3 46  1  0
  3 47  1  0
  3 48  1  0
  5 49  1  0
  5 50  1  0
  8 51  1  0
  9 52  1  0
  9 53  1  0
 10 54  1  0
 10 55  1  0
 11 56  1  0
 11 57  1  0
 12 58  1  0
 12 59  1  0
 13 60  1  0
 13 61  1  0
 16 62  1  0
 17 63  1  0
 19 64  1  0
 19 65  1  0
 20 66  1  0
 20 67  1  0
 24 68  1  0
 24 69  1  0
 25 70  1  0
 25 71  1  0
 26 72  1  0
 29 73  1  0
 31 74  1  0
 34 75  1  0
 34 76  1  0
 34 77  1  0
 37 78  1  0
 37 79  1  0
 38 80  1  0
 38 81  1  0
 39 82  1  0
 41 83  1  0
 41 84  1  0
M  END
$$$$
