
     RDKit          3D

 78 83  0  0  0  0  0  0  0  0999 V2000
   -3.2250    1.4059    1.2262 O   0  0  0  0  0  0  0  0  0  0  0  0
   -2.2870    1.0200    0.4770 C   0  0  0  0  0  0  0  0  0  0  0  0
   -0.9393    1.0321    0.9933 N   0  0  0  0  0  0  0  0  0  0  0  0
    0.2657    0.6411    0.2469 C   0  0  0  0  0  0  0  0  0  0  0  0
    0.8219    1.9062   -0.4210 C   0  0  0  0  0  0  0  0  0  0  0  0
    2.1205    1.6150   -1.1542 C   0  0  0  0  0  0  0  0  0  0  0  0
    3.1063    1.0690   -0.2178 N   0  0  0  0  0  0  0  0  0  0  0  0
    4.4899    1.4673   -0.3537 C   0  0  0  0  0  0  0  0  0  0  0  0
    4.7572    2.6723   -0.6381 O   0  0  0  0  0  0  0  0  0  0  0  0
    5.6082    0.4976   -0.2236 C   0  0  0  0  0  0  0  0  0  0  0  0
    5.4550   -0.8499   -0.1236 N   0  0  0  0  0  0  0  0  0  0  0  0
    6.6555   -1.4111   -0.0608 N   0  0  0  0  0  0  0  0  0  0  0  0
    7.5799   -0.4420   -0.1266 C   0  0  0  0  0  0  0  0  0  0  0  0
    8.9642   -0.5750   -0.0965 C   0  0  0  0  0  0  0  0  0  0  0  0
    9.7374    0.5991   -0.1877 C   0  0  0  0  0  0  0  0  0  0  0  0
    9.1129    1.8621   -0.3082 C   0  0  0  0  0  0  0  0  0  0  0  0
    7.7082    1.9598   -0.3345 C   0  0  0  0  0  0  0  0  0  0  0  0
    6.9678    0.7778   -0.2353 C   0  0  0  0  0  0  0  0  0  0  0  0
    2.7229   -0.1272    0.5480 C   0  0  0  0  0  0  0  0  0  0  0  0
    1.3160   -0.0091    1.2044 C   0  0  0  0  0  0  0  0  0  0  0  0
    0.9011   -1.4365    1.6730 C   0  0  0  0  0  0  0  0  0  0  0  0
   -0.5027   -1.5385    2.2104 C   0  0  0  0  0  0  0  0  0  0  0  0
   -1.4827   -2.1078    1.4865 C   0  0  0  0  0  0  0  0  0  0  0  0
   -2.9051   -2.1615    1.9876 C   0  0  0  0  0  0  0  0  0  0  0  0
   -3.9703   -2.5547    0.9086 C   0  0  0  0  0  0  0  0  0  0  0  0
   -5.3206   -2.8241    1.6670 C   0  0  0  0  0  0  0  0  0  0  0  0
   -5.4336   -4.2970    2.0975 C   0  0  0  0  0  0  0  0  0  0  0  0
   -5.4428   -5.2180    1.0120 O   0  0  0  0  0  0  0  0  0  0  0  0
   -4.7754   -4.7456   -0.1476 C   0  0  0  0  0  0  0  0  0  0  0  0
   -3.5556   -3.8646    0.1655 C   0  0  0  0  0  0  0  0  0  0  0  0
   -4.1205   -1.3995   -0.0949 C   0  0  0  0  0  0  0  0  0  0  0  0
   -5.2645   -0.9104   -0.3382 O   0  0  0  0  0  0  0  0  0  0  0  0
   -2.9990   -0.9038   -0.8411 N   0  0  0  0  0  0  0  0  0  0  0  0
   -2.6213    0.5105   -0.9096 C   0  0  0  0  0  0  0  0  0  0  0  0
   -3.6987    1.3665   -1.6152 C   0  0  0  0  0  0  0  0  0  0  0  0
   -3.2311    2.7904   -1.8200 C   0  0  0  0  0  0  0  0  0  0  0  0
   -2.2363    3.0807   -2.7729 C   0  0  0  0  0  0  0  0  0  0  0  0
   -1.7798    4.3925   -2.9408 C   0  0  0  0  0  0  0  0  0  0  0  0
   -2.3158    5.4290   -2.1656 C   0  0  0  0  0  0  0  0  0  0  0  0
   -3.3017    5.1482   -1.2147 C   0  0  0  0  0  0  0  0  0  0  0  0
   -3.7541    3.8342   -1.0340 C   0  0  0  0  0  0  0  0  0  0  0  0
   -0.8099    1.4971    1.9245 H   0  0  0  0  0  0  0  0  0  0  0  0
    0.0212   -0.1098   -0.5328 H   0  0  0  0  0  0  0  0  0  0  0  0
    0.0787    2.3125   -1.1389 H   0  0  0  0  0  0  0  0  0  0  0  0
    1.0090    2.6950    0.3445 H   0  0  0  0  0  0  0  0  0  0  0  0
    2.4712    2.5633   -1.6199 H   0  0  0  0  0  0  0  0  0  0  0  0
    1.9423    0.8803   -1.9693 H   0  0  0  0  0  0  0  0  0  0  0  0
    6.8283   -2.4406    0.0272 H   0  0  0  0  0  0  0  0  0  0  0  0
    9.4321   -1.5458   -0.0065 H   0  0  0  0  0  0  0  0  0  0  0  0
   10.8174    0.5256   -0.1652 H   0  0  0  0  0  0  0  0  0  0  0  0
    9.7175    2.7593   -0.3846 H   0  0  0  0  0  0  0  0  0  0  0  0
    7.2331    2.9234   -0.4259 H   0  0  0  0  0  0  0  0  0  0  0  0
    3.4508   -0.2926    1.3706 H   0  0  0  0  0  0  0  0  0  0  0  0
    2.7638   -1.0060   -0.1350 H   0  0  0  0  0  0  0  0  0  0  0  0
    1.4245    0.6417    2.1071 H   0  0  0  0  0  0  0  0  0  0  0  0
    1.0274   -2.1534    0.8265 H   0  0  0  0  0  0  0  0  0  0  0  0
    1.5935   -1.7647    2.4800 H   0  0  0  0  0  0  0  0  0  0  0  0
   -0.7264   -1.0842    3.1725 H   0  0  0  0  0  0  0  0  0  0  0  0
   -1.2407   -2.5455    0.5278 H   0  0  0  0  0  0  0  0  0  0  0  0
   -3.1787   -1.1711    2.4203 H   0  0  0  0  0  0  0  0  0  0  0  0
   -2.9274   -2.8887    2.8259 H   0  0  0  0  0  0  0  0  0  0  0  0
   -6.2048   -2.6219    1.0307 H   0  0  0  0  0  0  0  0  0  0  0  0
   -5.4212   -2.1674    2.5577 H   0  0  0  0  0  0  0  0  0  0  0  0
   -4.6071   -4.5549    2.7919 H   0  0  0  0  0  0  0  0  0  0  0  0
   -6.3770   -4.4311    2.6658 H   0  0  0  0  0  0  0  0  0  0  0  0
   -4.4285   -5.6248   -0.7303 H   0  0  0  0  0  0  0  0  0  0  0  0
   -5.4889   -4.1865   -0.7870 H   0  0  0  0  0  0  0  0  0  0  0  0
   -3.0179   -3.6626   -0.7777 H   0  0  0  0  0  0  0  0  0  0  0  0
   -2.8597   -4.4680    0.7893 H   0  0  0  0  0  0  0  0  0  0  0  0
   -2.3308   -1.5827   -1.2659 H   0  0  0  0  0  0  0  0  0  0  0  0
   -1.7251    0.5847   -1.5530 H   0  0  0  0  0  0  0  0  0  0  0  0
   -4.6470    1.3680   -1.0304 H   0  0  0  0  0  0  0  0  0  0  0  0
   -3.9242    0.9180   -2.6094 H   0  0  0  0  0  0  0  0  0  0  0  0
   -1.8180    2.2926   -3.3874 H   0  0  0  0  0  0  0  0  0  0  0  0
   -1.0117    4.6072   -3.6724 H   0  0  0  0  0  0  0  0  0  0  0  0
   -1.9695    6.4472   -2.2947 H   0  0  0  0  0  0  0  0  0  0  0  0
   -3.7133    5.9504   -0.6121 H   0  0  0  0  0  0  0  0  0  0  0  0
   -4.5100    3.6352   -0.2916 H   0  0  0  0  0  0  0  0  0  0  0  0
  1  2  2  0
  2  3  1  0
  3  4  1  0
  4  5  1  0
  5  6  1  0
  6  7  1  0
  7  8  1  0
  8  9  2  0
  8 10  1  0
 10 11  2  0
 11 12  1  0
 12 13  1  0
 13 14  2  0
 14 15  1  0
 15 16  2  0
 16 17  1  0
 17 18  2  0
  7 19  1  0
 19 20  1  0
 20 21  1  0
 21 22  1  0
 22 23  2  0
 23 24  1  0
 24 25  1  0
 25 26  1  0
 26 27  1  0
 27 28  1  0
 28 29  1  0
 29 30  1  0
 25 31  1  0
 31 32  2  0
 31 33  1  0
 33 34  1  0
 34 35  1  0
 35 36  1  0
 36 37  2  0
 37 38  1  0
 38 39  2  0
 39 40  1  0
 40 41  2  0
 34  2  1  0
 41 36  1  0
 20  4  1  0
 30 25  1  0
 18 10  1  0
 18 13  1  0
  3 42  1  0
  4 43  1  0
  5 44  1  0
  5 45  1  0
  6 46  1  0
  6 47  1  0
 12 48  1  0
 14 49  1  0
 15 50  1  0
 16 51  1  0
 17 52  1  0
 19 53  1  0
 19 54  1  0
 20 55  1  0
 21 56  1  0
 21 57  1  0
 22 58  1  0
 23 59  1  0
 24 60  1  0
 24 61  1  0
 26 62  1  0
 26 63  1  0
 27 64  1  0
 27 65  1  0
 29 66  1  0
 29 67  1  0
 30 68  1  0
 30 69  1  0
 33 70  1  0
 34 71  1  0
 35 72  1  0
 35 73  1  0
 37 74  1  0
 38 75  1  0
 39 76  1  0
 40 77  1  0
 41 78  1  0
M  END
$$$$
