
     RDKit          3D

 72 75  0  0  0  0  0  0  0  0999 V2000
    8.2357   -1.0269    1.3426 C   0  0  0  0  0  0  0  0  0  0  0  0
    7.6478    0.0525    0.4223 C   0  0  0  0  0  0  0  0  0  0  0  0
    8.3376    0.0251   -0.9544 C   0  0  0  0  0  0  0  0  0  0  0  0
    6.1659   -0.0705    0.3584 N   0  0  0  0  0  0  0  0  0  0  0  0
    5.5147    1.2106    0.0067 C   0  0  0  0  0  0  0  0  0  0  0  0
    3.9923    1.1069    0.1716 C   0  0  0  0  0  0  0  0  0  0  0  0
    3.4816   -0.0832   -0.5207 N   0  0  0  0  0  0  0  0  0  0  0  0
    2.2232   -0.0743   -1.2228 C   0  0  0  0  0  0  0  0  0  0  0  0
    2.0343   -0.8898   -2.1665 O   0  0  0  0  0  0  0  0  0  0  0  0
    1.1206    0.8915   -0.8794 C   0  0  0  0  0  0  0  0  0  0  0  0
   -0.1683    0.1666   -0.9132 N   0  0  0  0  0  0  0  0  0  0  0  0
   -0.6751   -0.2004    0.4280 C   0  0  0  0  0  0  0  0  0  0  0  0
   -1.6708   -1.3637    0.3414 C   0  0  0  0  0  0  0  0  0  0  0  0
   -2.0816   -1.9000    1.7313 C   0  0  0  0  0  0  0  0  0  0  0  0
   -3.5793   -1.7032    2.0190 C   0  0  0  0  0  0  0  0  0  0  0  0
   -3.9073   -0.2634    2.4593 C   0  0  0  0  0  0  0  0  0  0  0  0
   -5.3277    0.1433    2.0653 C   0  0  0  0  0  0  0  0  0  0  0  0
   -5.3470    0.5132    0.6871 O   0  0  0  0  0  0  0  0  0  0  0  0
   -5.9137   -0.2414   -0.3458 C   0  0  0  0  0  0  0  0  0  0  0  0
   -7.1342   -0.9179   -0.1558 C   0  0  0  0  0  0  0  0  0  0  0  0
   -7.6722   -1.7138   -1.1706 C   0  0  0  0  0  0  0  0  0  0  0  0
   -6.9982   -1.8467   -2.3815 C   0  0  0  0  0  0  0  0  0  0  0  0
   -5.8032   -1.1523   -2.5958 C   0  0  0  0  0  0  0  0  0  0  0  0
   -5.2583   -0.3329   -1.5978 C   0  0  0  0  0  0  0  0  0  0  0  0
   -4.0272    0.2887   -1.8830 O   0  0  0  0  0  0  0  0  0  0  0  0
   -3.5277    1.4759   -1.3259 C   0  0  0  0  0  0  0  0  0  0  0  0
   -4.3794    2.4310   -0.8601 N   0  0  0  0  0  0  0  0  0  0  0  0
   -3.9348    3.6028   -0.3368 C   0  0  0  0  0  0  0  0  0  0  0  0
   -2.5674    3.8696   -0.2853 C   0  0  0  0  0  0  0  0  0  0  0  0
   -1.6665    2.9249   -0.7810 C   0  0  0  0  0  0  0  0  0  0  0  0
   -2.1339    1.7075   -1.3008 C   0  0  0  0  0  0  0  0  0  0  0  0
   -1.1593    0.6997   -1.8834 C   0  0  0  0  0  0  0  0  0  0  0  0
    4.1857   -1.3558   -0.3105 C   0  0  0  0  0  0  0  0  0  0  0  0
    5.6827   -1.1558   -0.5205 C   0  0  0  0  0  0  0  0  0  0  0  0
    9.3253   -0.8596    1.4757 H   0  0  0  0  0  0  0  0  0  0  0  0
    7.7584   -0.9696    2.3430 H   0  0  0  0  0  0  0  0  0  0  0  0
    8.0922   -2.0448    0.9322 H   0  0  0  0  0  0  0  0  0  0  0  0
    7.9121    1.0239    0.9014 H   0  0  0  0  0  0  0  0  0  0  0  0
    8.2729   -0.9810   -1.4156 H   0  0  0  0  0  0  0  0  0  0  0  0
    9.4145    0.2707   -0.8373 H   0  0  0  0  0  0  0  0  0  0  0  0
    7.8860    0.7730   -1.6384 H   0  0  0  0  0  0  0  0  0  0  0  0
    5.8716    2.0213    0.6797 H   0  0  0  0  0  0  0  0  0  0  0  0
    5.7500    1.4966   -1.0421 H   0  0  0  0  0  0  0  0  0  0  0  0
    3.7374    1.0366    1.2500 H   0  0  0  0  0  0  0  0  0  0  0  0
    3.5357    2.0303   -0.2433 H   0  0  0  0  0  0  0  0  0  0  0  0
    1.2902    1.3488    0.1208 H   0  0  0  0  0  0  0  0  0  0  0  0
    1.1609    1.7242   -1.6187 H   0  0  0  0  0  0  0  0  0  0  0  0
   -1.1253    0.6780    0.9332 H   0  0  0  0  0  0  0  0  0  0  0  0
    0.1756   -0.5409    1.0606 H   0  0  0  0  0  0  0  0  0  0  0  0
   -1.1931   -2.1844   -0.2355 H   0  0  0  0  0  0  0  0  0  0  0  0
   -2.5609   -1.0433   -0.2318 H   0  0  0  0  0  0  0  0  0  0  0  0
   -1.4798   -1.4462    2.5488 H   0  0  0  0  0  0  0  0  0  0  0  0
   -1.8755   -2.9909    1.7539 H   0  0  0  0  0  0  0  0  0  0  0  0
   -3.8834   -2.3940    2.8364 H   0  0  0  0  0  0  0  0  0  0  0  0
   -4.1667   -2.0042    1.1223 H   0  0  0  0  0  0  0  0  0  0  0  0
   -3.1968    0.4683    2.0192 H   0  0  0  0  0  0  0  0  0  0  0  0
   -3.8079   -0.1933    3.5668 H   0  0  0  0  0  0  0  0  0  0  0  0
   -5.6226    1.0296    2.6647 H   0  0  0  0  0  0  0  0  0  0  0  0
   -6.0404   -0.6720    2.3032 H   0  0  0  0  0  0  0  0  0  0  0  0
   -7.6854   -0.8199    0.7695 H   0  0  0  0  0  0  0  0  0  0  0  0
   -8.6081   -2.2368   -1.0111 H   0  0  0  0  0  0  0  0  0  0  0  0
   -7.4070   -2.4760   -3.1628 H   0  0  0  0  0  0  0  0  0  0  0  0
   -5.2889   -1.2634   -3.5421 H   0  0  0  0  0  0  0  0  0  0  0  0
   -4.6470    4.3302    0.0302 H   0  0  0  0  0  0  0  0  0  0  0  0
   -2.2097    4.8078    0.1207 H   0  0  0  0  0  0  0  0  0  0  0  0
   -0.6075    3.1483   -0.7654 H   0  0  0  0  0  0  0  0  0  0  0  0
   -1.6968   -0.1673   -2.3220 H   0  0  0  0  0  0  0  0  0  0  0  0
   -0.6507    1.1648   -2.7580 H   0  0  0  0  0  0  0  0  0  0  0  0
    4.0001   -1.7145    0.7269 H   0  0  0  0  0  0  0  0  0  0  0  0
    3.8262   -2.1392   -1.0136 H   0  0  0  0  0  0  0  0  0  0  0  0
    5.8636   -0.9136   -1.5924 H   0  0  0  0  0  0  0  0  0  0  0  0
    6.1917   -2.1152   -0.2914 H   0  0  0  0  0  0  0  0  0  0  0  0
  1  2  1  0
  2  3  1  0
  2  4  1  0
  4  5  1  0
  5  6  1  0
  6  7  1  0
  7  8  1  0
  8  9  2  0
  8 10  1  0
 10 11  1  0
 11 12  1  0
 12 13  1  0
 13 14  1  0
 14 15  1  0
 15 16  1  0
 16 17  1  0
 17 18  1  0
 18 19  1  0
 19 20  2  0
 20 21  1  0
 21 22  2  0
 22 23  1  0
 23 24  2  0
 24 25  1  0
 25 26  1  0
 26 27  2  0
 27 28  1  0
 28 29  2  0
 29 30  1  0
 30 31  2  0
 31 32  1  0
  7 33  1  0
 33 34  1  0
 34  4  1  0
 32 11  1  0
 24 19  1  0
 31 26  1  0
  1 35  1  0
  1 36  1  0
  1 37  1  0
  2 38  1  0
  3 39  1  0
  3 40  1  0
  3 41  1  0
  5 42  1  0
  5 43  1  0
  6 44  1  0
  6 45  1  0
 10 46  1  0
 10 47  1  0
 12 48  1  0
 12 49  1  0
 13 50  1  0
 13 51  1  0
 14 52  1  0
 14 53  1  0
 15 54  1  0
 15 55  1  0
 16 56  1  0
 16 57  1  0
 17 58  1  0
 17 59  1  0
 20 60  1  0
 21 61  1  0
 22 62  1  0
 23 63  1  0
 28 64  1  0
 29 65  1  0
 30 66  1  0
 32 67  1  0
 32 68  1  0
 33 69  1  0
 33 70  1  0
 34 71  1  0
 34 72  1  0
M  END
$$$$
