
     RDKit          3D

 74 77  0  0  0  0  0  0  0  0999 V2000
   10.3726   -0.0825   -0.8949 C   0  0  0  0  0  0  0  0  0  0  0  0
    8.8985    0.1432   -1.1901 C   0  0  0  0  0  0  0  0  0  0  0  0
    8.1549    0.0840    0.0247 O   0  0  0  0  0  0  0  0  0  0  0  0
    6.7686    0.2810    0.1148 C   0  0  0  0  0  0  0  0  0  0  0  0
    5.9694    0.5517   -1.0130 C   0  0  0  0  0  0  0  0  0  0  0  0
    4.5938    0.7576   -0.8693 C   0  0  0  0  0  0  0  0  0  0  0  0
    3.9972    0.7039    0.4006 C   0  0  0  0  0  0  0  0  0  0  0  0
    2.5144    0.9241    0.5570 C   0  0  0  0  0  0  0  0  0  0  0  0
    1.7563   -0.3811    0.5857 C   0  0  0  0  0  0  0  0  0  0  0  0
    2.1713   -1.3351   -0.1316 O   0  0  0  0  0  0  0  0  0  0  0  0
    0.5444   -0.5543    1.3625 N   0  0  0  0  0  0  0  0  0  0  0  0
    0.0400   -1.9207    1.5903 C   0  0  0  0  0  0  0  0  0  0  0  0
   -0.7214   -2.4431    0.3536 C   0  0  0  0  0  0  0  0  0  0  0  0
   -2.1742   -2.8547    0.6502 C   0  0  0  0  0  0  0  0  0  0  0  0
   -3.0335   -1.6823    1.1896 C   0  0  0  0  0  0  0  0  0  0  0  0
   -4.5197   -1.6420    0.7043 C   0  0  0  0  0  0  0  0  0  0  0  0
   -5.1856   -3.0279    0.9508 C   0  0  0  0  0  0  0  0  0  0  0  0
   -6.5537   -3.0069    0.6296 O   0  0  0  0  0  0  0  0  0  0  0  0
   -4.5740   -1.2673   -0.8182 C   0  0  0  0  0  0  0  0  0  0  0  0
   -4.8437    0.2233   -1.1027 C   0  0  0  0  0  0  0  0  0  0  0  0
   -4.3130    1.0858   -0.0378 N   0  0  0  0  0  0  0  0  0  0  0  0
   -4.7129    0.8427    1.3533 C   0  0  0  0  0  0  0  0  0  0  0  0
   -5.2892   -0.5714    1.5366 C   0  0  0  0  0  0  0  0  0  0  0  0
   -3.6556    2.3226   -0.3693 C   0  0  0  0  0  0  0  0  0  0  0  0
   -3.9281    3.3739    0.2727 O   0  0  0  0  0  0  0  0  0  0  0  0
   -2.6686    2.3853   -1.4611 C   0  0  0  0  0  0  0  0  0  0  0  0
   -2.9468    3.1651   -2.5936 C   0  0  0  0  0  0  0  0  0  0  0  0
   -2.0724    3.1618   -3.6835 C   0  0  0  0  0  0  0  0  0  0  0  0
   -0.9158    2.3801   -3.6497 C   0  0  0  0  0  0  0  0  0  0  0  0
   -0.6181    1.6188   -2.5165 C   0  0  0  0  0  0  0  0  0  0  0  0
   -1.4740    1.6363   -1.4092 C   0  0  0  0  0  0  0  0  0  0  0  0
   -1.1062    0.9251   -0.2653 O   0  0  0  0  0  0  0  0  0  0  0  0
   -0.6778    1.5887    0.9226 C   0  0  0  0  0  0  0  0  0  0  0  0
   -0.1760    0.5831    1.9689 C   0  0  0  0  0  0  0  0  0  0  0  0
    4.7905    0.4098    1.5206 C   0  0  0  0  0  0  0  0  0  0  0  0
    6.1660    0.2046    1.3762 C   0  0  0  0  0  0  0  0  0  0  0  0
   10.7500    0.7128   -0.2170 H   0  0  0  0  0  0  0  0  0  0  0  0
   10.9523   -0.0540   -1.8423 H   0  0  0  0  0  0  0  0  0  0  0  0
   10.5158   -1.0721   -0.4118 H   0  0  0  0  0  0  0  0  0  0  0  0
    8.7731    1.1422   -1.6617 H   0  0  0  0  0  0  0  0  0  0  0  0
    8.5409   -0.6448   -1.8879 H   0  0  0  0  0  0  0  0  0  0  0  0
    6.4011    0.6065   -2.0033 H   0  0  0  0  0  0  0  0  0  0  0  0
    3.9946    0.9628   -1.7486 H   0  0  0  0  0  0  0  0  0  0  0  0
    2.3460    1.4983    1.4903 H   0  0  0  0  0  0  0  0  0  0  0  0
    2.1341    1.5388   -0.2869 H   0  0  0  0  0  0  0  0  0  0  0  0
    0.8950   -2.5968    1.8150 H   0  0  0  0  0  0  0  0  0  0  0  0
   -0.5957   -1.9583    2.5011 H   0  0  0  0  0  0  0  0  0  0  0  0
   -0.1855   -3.3309   -0.0484 H   0  0  0  0  0  0  0  0  0  0  0  0
   -0.7228   -1.6873   -0.4619 H   0  0  0  0  0  0  0  0  0  0  0  0
   -2.5922   -3.2568   -0.2949 H   0  0  0  0  0  0  0  0  0  0  0  0
   -2.1802   -3.6874    1.3875 H   0  0  0  0  0  0  0  0  0  0  0  0
   -3.0086   -1.7217    2.3013 H   0  0  0  0  0  0  0  0  0  0  0  0
   -2.5556   -0.7297    0.9007 H   0  0  0  0  0  0  0  0  0  0  0  0
   -4.7109   -3.8046    0.3172 H   0  0  0  0  0  0  0  0  0  0  0  0
   -5.0337   -3.3425    2.0107 H   0  0  0  0  0  0  0  0  0  0  0  0
   -7.0528   -2.8762    1.4780 H   0  0  0  0  0  0  0  0  0  0  0  0
   -3.6261   -1.5406   -1.3277 H   0  0  0  0  0  0  0  0  0  0  0  0
   -5.3677   -1.8477   -1.3360 H   0  0  0  0  0  0  0  0  0  0  0  0
   -4.4120    0.4875   -2.0931 H   0  0  0  0  0  0  0  0  0  0  0  0
   -5.9412    0.3889   -1.1744 H   0  0  0  0  0  0  0  0  0  0  0  0
   -5.4719    1.5934    1.6621 H   0  0  0  0  0  0  0  0  0  0  0  0
   -3.8281    0.9632    2.0159 H   0  0  0  0  0  0  0  0  0  0  0  0
   -6.3553   -0.5438    1.2204 H   0  0  0  0  0  0  0  0  0  0  0  0
   -5.2763   -0.8332    2.6178 H   0  0  0  0  0  0  0  0  0  0  0  0
   -3.8551    3.7519   -2.6450 H   0  0  0  0  0  0  0  0  0  0  0  0
   -2.2986    3.7555   -4.5598 H   0  0  0  0  0  0  0  0  0  0  0  0
   -0.2438    2.3725   -4.4980 H   0  0  0  0  0  0  0  0  0  0  0  0
    0.2928    1.0347   -2.4856 H   0  0  0  0  0  0  0  0  0  0  0  0
    0.1280    2.3099    0.6748 H   0  0  0  0  0  0  0  0  0  0  0  0
   -1.5173    2.1716    1.3561 H   0  0  0  0  0  0  0  0  0  0  0  0
    0.4763    1.0962    2.7063 H   0  0  0  0  0  0  0  0  0  0  0  0
   -1.0577    0.2258    2.5427 H   0  0  0  0  0  0  0  0  0  0  0  0
    4.3438    0.3450    2.5057 H   0  0  0  0  0  0  0  0  0  0  0  0
    6.7682   -0.0126    2.2495 H   0  0  0  0  0  0  0  0  0  0  0  0
  1  2  1  0
  2  3  1  0
  3  4  1  0
  4  5  2  0
  5  6  1  0
  6  7  2  0
  7  8  1  0
  8  9  1  0
  9 10  2  0
  9 11  1  0
 11 12  1  0
 12 13  1  0
 13 14  1  0
 14 15  1  0
 15 16  1  0
 16 17  1  0
 17 18  1  0
 16 19  1  0
 19 20  1  0
 20 21  1  0
 21 22  1  0
 22 23  1  0
 21 24  1  0
 24 25  2  0
 24 26  1  0
 26 27  2  0
 27 28  1  0
 28 29  2  0
 29 30  1  0
 30 31  2  0
 31 32  1  0
 32 33  1  0
 33 34  1  0
  7 35  1  0
 35 36  2  0
 36  4  1  0
 34 11  1  0
 23 16  1  0
 31 26  1  0
  1 37  1  0
  1 38  1  0
  1 39  1  0
  2 40  1  0
  2 41  1  0
  5 42  1  0
  6 43  1  0
  8 44  1  0
  8 45  1  0
 12 46  1  0
 12 47  1  0
 13 48  1  0
 13 49  1  0
 14 50  1  0
 14 51  1  0
 15 52  1  0
 15 53  1  0
 17 54  1  0
 17 55  1  0
 18 56  1  0
 19 57  1  0
 19 58  1  0
 20 59  1  0
 20 60  1  0
 22 61  1  0
 22 62  1  0
 23 63  1  0
 23 64  1  0
 27 65  1  0
 28 66  1  0
 29 67  1  0
 30 68  1  0
 33 69  1  0
 33 70  1  0
 34 71  1  0
 34 72  1  0
 35 73  1  0
 36 74  1  0
M  END
$$$$
