
     RDKit          3D

 65 68  0  0  0  0  0  0  0  0999 V2000
    9.0099   -0.0172   -1.7883 C   0  0  0  0  0  0  0  0  0  0  0  0
    7.9875    0.8363   -1.1068 C   0  0  0  0  0  0  0  0  0  0  0  0
    6.6710    0.4934   -1.0869 N   0  0  0  0  0  0  0  0  0  0  0  0
    5.9273    1.3996   -0.4129 C   0  0  0  0  0  0  0  0  0  0  0  0
    4.5132    1.2861   -0.2071 N   0  0  0  0  0  0  0  0  0  0  0  0
    3.7016    0.2616   -0.8019 C   0  0  0  0  0  0  0  0  0  0  0  0
    4.1794   -0.5044   -1.6824 O   0  0  0  0  0  0  0  0  0  0  0  0
    2.2496    0.1522   -0.4361 C   0  0  0  0  0  0  0  0  0  0  0  0
    1.8222   -1.2620   -0.4496 N   0  0  0  0  0  0  0  0  0  0  0  0
    2.2320   -1.9977    0.7698 C   0  0  0  0  0  0  0  0  0  0  0  0
    1.0477   -2.3338    1.6858 C   0  0  0  0  0  0  0  0  0  0  0  0
    0.1089   -1.2760    1.7024 O   0  0  0  0  0  0  0  0  0  0  0  0
   -0.5505   -1.1102    0.4463 C   0  0  0  0  0  0  0  0  0  0  0  0
   -0.9981    0.3865    0.3736 C   0  0  0  0  0  0  0  0  0  0  0  0
   -2.1356    0.7835    1.3553 C   0  0  0  0  0  0  0  0  0  0  0  0
   -3.4136    1.1869    0.5954 C   0  0  0  0  0  0  0  0  0  0  0  0
   -4.6845    1.1891    1.4635 C   0  0  0  0  0  0  0  0  0  0  0  0
   -5.8958    0.9815    0.5819 C   0  0  0  0  0  0  0  0  0  0  0  0
   -6.4314    2.1186   -0.0543 C   0  0  0  0  0  0  0  0  0  0  0  0
   -7.5280    2.0121   -0.9084 C   0  0  0  0  0  0  0  0  0  0  0  0
   -8.1085    0.7694   -1.1456 C   0  0  0  0  0  0  0  0  0  0  0  0
   -7.5887   -0.3718   -0.5358 C   0  0  0  0  0  0  0  0  0  0  0  0
   -6.4748   -0.2966    0.3121 C   0  0  0  0  0  0  0  0  0  0  0  0
   -6.0567   -1.5095    0.8907 O   0  0  0  0  0  0  0  0  0  0  0  0
   -4.7308   -2.0445    0.9222 C   0  0  0  0  0  0  0  0  0  0  0  0
   -4.1578   -2.3295   -0.4829 C   0  0  0  0  0  0  0  0  0  0  0  0
   -2.7836   -1.8331   -0.6244 N   0  0  0  0  0  0  0  0  0  0  0  0
   -1.7701   -2.0281    0.3766 C   0  0  0  0  0  0  0  0  0  0  0  0
   -1.8938   -2.9722    1.2055 O   0  0  0  0  0  0  0  0  0  0  0  0
    0.3904   -1.4373   -0.7677 C   0  0  0  0  0  0  0  0  0  0  0  0
    6.8645    2.6571    0.1942 S   0  0  0  0  0  0  0  0  0  0  0  0
    8.2884    2.0322   -0.4513 C   0  0  0  0  0  0  0  0  0  0  0  0
    9.6455    2.6317   -0.2694 C   0  0  0  0  0  0  0  0  0  0  0  0
    9.4437    0.5338   -2.6495 H   0  0  0  0  0  0  0  0  0  0  0  0
    8.5454   -0.9560   -2.1587 H   0  0  0  0  0  0  0  0  0  0  0  0
    9.8189   -0.2792   -1.0731 H   0  0  0  0  0  0  0  0  0  0  0  0
    4.0529    1.9921    0.4111 H   0  0  0  0  0  0  0  0  0  0  0  0
    1.6799    0.7505   -1.1804 H   0  0  0  0  0  0  0  0  0  0  0  0
    2.0842    0.6023    0.5675 H   0  0  0  0  0  0  0  0  0  0  0  0
    2.9933   -1.4329    1.3550 H   0  0  0  0  0  0  0  0  0  0  0  0
    2.7211   -2.9459    0.4617 H   0  0  0  0  0  0  0  0  0  0  0  0
    1.4207   -2.4953    2.7191 H   0  0  0  0  0  0  0  0  0  0  0  0
    0.5781   -3.2891    1.3636 H   0  0  0  0  0  0  0  0  0  0  0  0
   -0.1293    1.0300    0.6124 H   0  0  0  0  0  0  0  0  0  0  0  0
   -1.2748    0.6559   -0.6693 H   0  0  0  0  0  0  0  0  0  0  0  0
   -1.8100    1.6532    1.9668 H   0  0  0  0  0  0  0  0  0  0  0  0
   -2.3372   -0.0359    2.0748 H   0  0  0  0  0  0  0  0  0  0  0  0
   -3.5683    0.5090   -0.2652 H   0  0  0  0  0  0  0  0  0  0  0  0
   -3.2706    2.2018    0.1618 H   0  0  0  0  0  0  0  0  0  0  0  0
   -4.6654    0.4504    2.2869 H   0  0  0  0  0  0  0  0  0  0  0  0
   -4.7569    2.1728    1.9779 H   0  0  0  0  0  0  0  0  0  0  0  0
   -5.9937    3.0958    0.1110 H   0  0  0  0  0  0  0  0  0  0  0  0
   -7.9281    2.8956   -1.3877 H   0  0  0  0  0  0  0  0  0  0  0  0
   -8.9616    0.6888   -1.8058 H   0  0  0  0  0  0  0  0  0  0  0  0
   -8.0522   -1.3312   -0.7305 H   0  0  0  0  0  0  0  0  0  0  0  0
   -4.7732   -3.0052    1.4776 H   0  0  0  0  0  0  0  0  0  0  0  0
   -4.0656   -1.4101    1.5159 H   0  0  0  0  0  0  0  0  0  0  0  0
   -4.1680   -3.4246   -0.6727 H   0  0  0  0  0  0  0  0  0  0  0  0
   -4.7935   -1.8544   -1.2612 H   0  0  0  0  0  0  0  0  0  0  0  0
   -2.5597   -1.2428   -1.4568 H   0  0  0  0  0  0  0  0  0  0  0  0
    0.1152   -0.8541   -1.6744 H   0  0  0  0  0  0  0  0  0  0  0  0
    0.2527   -2.4998   -1.0721 H   0  0  0  0  0  0  0  0  0  0  0  0
   10.1818    2.6575   -1.2412 H   0  0  0  0  0  0  0  0  0  0  0  0
   10.2253    2.0234    0.4558 H   0  0  0  0  0  0  0  0  0  0  0  0
    9.5584    3.6693    0.1160 H   0  0  0  0  0  0  0  0  0  0  0  0
  1  2  1  0
  2  3  1  0
  3  4  2  0
  4  5  1  0
  5  6  1  0
  6  7  2  0
  6  8  1  0
  8  9  1  0
  9 10  1  0
 10 11  1  0
 11 12  1  0
 12 13  1  0
 13 14  1  0
 14 15  1  0
 15 16  1  0
 16 17  1  0
 17 18  1  0
 18 19  2  0
 19 20  1  0
 20 21  2  0
 21 22  1  0
 22 23  2  0
 23 24  1  0
 24 25  1  0
 25 26  1  0
 26 27  1  0
 27 28  1  0
 28 29  2  0
 13 30  1  0
  4 31  1  0
 31 32  1  0
 32 33  1  0
 32  2  2  0
 30  9  1  0
 28 13  1  0
 23 18  1  0
  1 34  1  0
  1 35  1  0
  1 36  1  0
  5 37  1  0
  8 38  1  0
  8 39  1  0
 10 40  1  0
 10 41  1  0
 11 42  1  0
 11 43  1  0
 14 44  1  0
 14 45  1  0
 15 46  1  0
 15 47  1  0
 16 48  1  0
 16 49  1  0
 17 50  1  0
 17 51  1  0
 19 52  1  0
 20 53  1  0
 21 54  1  0
 22 55  1  0
 25 56  1  0
 25 57  1  0
 26 58  1  0
 26 59  1  0
 27 60  1  0
 30 61  1  0
 30 62  1  0
 33 63  1  0
 33 64  1  0
 33 65  1  0
M  END
$$$$
