
     RDKit          3D

 78 81  0  0  0  0  0  0  0  0999 V2000
    7.3711   -2.4214    0.4633 C   0  0  0  0  0  0  0  0  0  0  0  0
    6.9582   -1.0787    0.5781 O   0  0  0  0  0  0  0  0  0  0  0  0
    5.8020   -0.8752   -0.2074 C   0  0  0  0  0  0  0  0  0  0  0  0
    5.3278    0.5782   -0.0531 C   0  0  0  0  0  0  0  0  0  0  0  0
    6.3021    1.5617   -0.7086 C   0  0  0  0  0  0  0  0  0  0  0  0
    5.7102    1.8760   -2.0793 C   0  0  0  0  0  0  0  0  0  0  0  0
    4.2209    1.5786   -1.9641 C   0  0  0  0  0  0  0  0  0  0  0  0
    4.0676    0.7752   -0.7622 N   0  0  0  0  0  0  0  0  0  0  0  0
    2.7944    0.2203   -0.3808 C   0  0  0  0  0  0  0  0  0  0  0  0
    1.9969   -0.1339   -1.2886 O   0  0  0  0  0  0  0  0  0  0  0  0
    2.3786    0.1131    1.0789 C   0  0  0  0  0  0  0  0  0  0  0  0
    2.3684   -1.3545    1.6305 C   0  0  0  0  0  0  0  0  0  0  0  0
    1.8358   -2.4833    0.7435 C   0  0  0  0  0  0  0  0  0  0  0  0
    2.6027   -2.9534   -0.1389 O   0  0  0  0  0  0  0  0  0  0  0  0
    0.5291   -3.0992    0.9201 N   0  0  0  0  0  0  0  0  0  0  0  0
   -0.7009   -2.2860    0.9733 C   0  0  0  0  0  0  0  0  0  0  0  0
   -0.7479   -1.6610    2.3994 C   0  0  0  0  0  0  0  0  0  0  0  0
   -0.6341   -1.3824   -0.2765 C   0  0  0  0  0  0  0  0  0  0  0  0
   -2.0015   -3.0531    0.8275 C   0  0  0  0  0  0  0  0  0  0  0  0
   -1.9909   -4.2541    0.4458 O   0  0  0  0  0  0  0  0  0  0  0  0
   -3.2680   -2.4377    1.1899 N   0  0  0  0  0  0  0  0  0  0  0  0
   -3.8072   -1.1258    0.7241 C   0  0  0  0  0  0  0  0  0  0  0  0
   -5.3562   -1.1880    0.8052 C   0  0  0  0  0  0  0  0  0  0  0  0
   -6.0334   -0.0991    0.0075 C   0  0  0  0  0  0  0  0  0  0  0  0
   -6.6114    1.0079    0.6522 C   0  0  0  0  0  0  0  0  0  0  0  0
   -7.2058    2.0282   -0.0966 C   0  0  0  0  0  0  0  0  0  0  0  0
   -7.2319    1.9503   -1.4913 C   0  0  0  0  0  0  0  0  0  0  0  0
   -6.6680    0.8489   -2.1403 C   0  0  0  0  0  0  0  0  0  0  0  0
   -6.0736   -0.1743   -1.3960 C   0  0  0  0  0  0  0  0  0  0  0  0
   -3.2846    0.1120    1.5551 C   0  0  0  0  0  0  0  0  0  0  0  0
   -2.0078    0.6638    1.1473 O   0  0  0  0  0  0  0  0  0  0  0  0
   -1.7753    1.5247    0.0484 C   0  0  0  0  0  0  0  0  0  0  0  0
   -2.8253    1.8002   -0.8536 C   0  0  0  0  0  0  0  0  0  0  0  0
   -2.6267    2.5991   -1.9756 C   0  0  0  0  0  0  0  0  0  0  0  0
   -1.3776    3.1504   -2.2255 C   0  0  0  0  0  0  0  0  0  0  0  0
   -0.3240    2.9188   -1.3455 C   0  0  0  0  0  0  0  0  0  0  0  0
   -0.4858    2.1169   -0.1959 C   0  0  0  0  0  0  0  0  0  0  0  0
    0.7158    2.0332    0.7038 C   0  0  0  0  0  0  0  0  0  0  0  0
    1.4353    3.0602    0.8398 O   0  0  0  0  0  0  0  0  0  0  0  0
    1.1232    0.8370    1.3850 N   0  0  0  0  0  0  0  0  0  0  0  0
    8.2861   -2.5633    1.0741 H   0  0  0  0  0  0  0  0  0  0  0  0
    7.6264   -2.6771   -0.5891 H   0  0  0  0  0  0  0  0  0  0  0  0
    6.5949   -3.1159    0.8549 H   0  0  0  0  0  0  0  0  0  0  0  0
    4.9860   -1.5522    0.1254 H   0  0  0  0  0  0  0  0  0  0  0  0
    6.0128   -1.0778   -1.2834 H   0  0  0  0  0  0  0  0  0  0  0  0
    5.2276    0.8313    1.0230 H   0  0  0  0  0  0  0  0  0  0  0  0
    6.3369    2.4974   -0.1076 H   0  0  0  0  0  0  0  0  0  0  0  0
    7.3365    1.1625   -0.7973 H   0  0  0  0  0  0  0  0  0  0  0  0
    5.8932    2.9346   -2.3666 H   0  0  0  0  0  0  0  0  0  0  0  0
    6.1670    1.2059   -2.8411 H   0  0  0  0  0  0  0  0  0  0  0  0
    3.8657    1.0190   -2.8564 H   0  0  0  0  0  0  0  0  0  0  0  0
    3.6427    2.5218   -1.8553 H   0  0  0  0  0  0  0  0  0  0  0  0
    3.1534    0.6397    1.6710 H   0  0  0  0  0  0  0  0  0  0  0  0
    1.8901   -1.3712    2.6250 H   0  0  0  0  0  0  0  0  0  0  0  0
    3.4225   -1.6188    1.8624 H   0  0  0  0  0  0  0  0  0  0  0  0
    0.4568   -4.1202    0.7113 H   0  0  0  0  0  0  0  0  0  0  0  0
   -0.0707   -2.2029    3.0917 H   0  0  0  0  0  0  0  0  0  0  0  0
   -0.4976   -0.6084    2.4225 H   0  0  0  0  0  0  0  0  0  0  0  0
   -1.7173   -1.7627    2.9223 H   0  0  0  0  0  0  0  0  0  0  0  0
   -1.5816   -1.0230   -0.6730 H   0  0  0  0  0  0  0  0  0  0  0  0
   -0.0070   -0.5243   -0.1099 H   0  0  0  0  0  0  0  0  0  0  0  0
   -0.1992   -1.9478   -1.1294 H   0  0  0  0  0  0  0  0  0  0  0  0
   -3.9366   -3.0902    1.6602 H   0  0  0  0  0  0  0  0  0  0  0  0
   -3.5935   -1.0016   -0.3510 H   0  0  0  0  0  0  0  0  0  0  0  0
   -5.7072   -2.1636    0.4012 H   0  0  0  0  0  0  0  0  0  0  0  0
   -5.6784   -1.1539    1.8697 H   0  0  0  0  0  0  0  0  0  0  0  0
   -6.5932    1.0862    1.7319 H   0  0  0  0  0  0  0  0  0  0  0  0
   -7.6437    2.8815    0.4050 H   0  0  0  0  0  0  0  0  0  0  0  0
   -7.6892    2.7431   -2.0689 H   0  0  0  0  0  0  0  0  0  0  0  0
   -6.6887    0.7894   -3.2207 H   0  0  0  0  0  0  0  0  0  0  0  0
   -5.6341   -1.0189   -1.9119 H   0  0  0  0  0  0  0  0  0  0  0  0
   -3.2258   -0.1745    2.6233 H   0  0  0  0  0  0  0  0  0  0  0  0
   -4.0243    0.9375    1.5467 H   0  0  0  0  0  0  0  0  0  0  0  0
   -3.8100    1.3927   -0.7044 H   0  0  0  0  0  0  0  0  0  0  0  0
   -3.4469    2.7878   -2.6565 H   0  0  0  0  0  0  0  0  0  0  0  0
   -1.2255    3.7681   -3.1014 H   0  0  0  0  0  0  0  0  0  0  0  0
    0.6344    3.3727   -1.5695 H   0  0  0  0  0  0  0  0  0  0  0  0
    0.9354    0.9032    2.4101 H   0  0  0  0  0  0  0  0  0  0  0  0
  1  2  1  0
  2  3  1  0
  3  4  1  0
  4  5  1  0
  5  6  1  0
  6  7  1  0
  7  8  1  0
  8  9  1  0
  9 10  2  0
  9 11  1  0
 11 12  1  0
 12 13  1  0
 13 14  2  0
 13 15  1  0
 15 16  1  0
 16 17  1  0
 16 18  1  0
 16 19  1  0
 19 20  2  0
 19 21  1  0
 21 22  1  0
 22 23  1  0
 23 24  1  0
 24 25  2  0
 25 26  1  0
 26 27  2  0
 27 28  1  0
 28 29  2  0
 22 30  1  0
 30 31  1  0
 31 32  1  0
 32 33  2  0
 33 34  1  0
 34 35  2  0
 35 36  1  0
 36 37  2  0
 37 38  1  0
 38 39  2  0
 38 40  1  0
  8  4  1  0
 40 11  1  0
 29 24  1  0
 37 32  1  0
  1 41  1  0
  1 42  1  0
  1 43  1  0
  3 44  1  0
  3 45  1  0
  4 46  1  0
  5 47  1  0
  5 48  1  0
  6 49  1  0
  6 50  1  0
  7 51  1  0
  7 52  1  0
 11 53  1  0
 12 54  1  0
 12 55  1  0
 15 56  1  0
 17 57  1  0
 17 58  1  0
 17 59  1  0
 18 60  1  0
 18 61  1  0
 18 62  1  0
 21 63  1  0
 22 64  1  0
 23 65  1  0
 23 66  1  0
 25 67  1  0
 26 68  1  0
 27 69  1  0
 28 70  1  0
 29 71  1  0
 30 72  1  0
 30 73  1  0
 33 74  1  0
 34 75  1  0
 35 76  1  0
 36 77  1  0
 40 78  1  0
M  END
$$$$
