
     RDKit          3D

 81 84  0  0  0  0  0  0  0  0999 V2000
   -5.9851   -0.8094   -1.6449 C   0  0  0  0  0  0  0  0  0  0  0  0
   -5.5150    0.6579   -1.6227 C   0  0  0  0  0  0  0  0  0  0  0  0
   -4.0376    0.7947   -1.1955 C   0  0  0  0  0  0  0  0  0  0  0  0
   -3.9294    0.7310    0.2687 N   0  0  0  0  0  0  0  0  0  0  0  0
   -2.9723   -0.1181    0.9317 C   0  0  0  0  0  0  0  0  0  0  0  0
   -3.2516   -0.5998    2.0632 O   0  0  0  0  0  0  0  0  0  0  0  0
   -1.6256   -0.4336    0.3134 C   0  0  0  0  0  0  0  0  0  0  0  0
   -1.5629   -1.9353   -0.0521 C   0  0  0  0  0  0  0  0  0  0  0  0
   -0.7187   -2.2006   -1.2716 C   0  0  0  0  0  0  0  0  0  0  0  0
   -1.1905   -2.8607   -2.2388 O   0  0  0  0  0  0  0  0  0  0  0  0
    0.6253   -1.7271   -1.3291 N   0  0  0  0  0  0  0  0  0  0  0  0
    1.7919   -2.6132   -1.4672 C   0  0  0  0  0  0  0  0  0  0  0  0
    2.0119   -3.5220   -0.2069 C   0  0  0  0  0  0  0  0  0  0  0  0
    1.0380   -4.7178   -0.1784 C   0  0  0  0  0  0  0  0  0  0  0  0
    3.4450   -4.0935   -0.1351 C   0  0  0  0  0  0  0  0  0  0  0  0
    3.0183   -1.7749   -1.8059 C   0  0  0  0  0  0  0  0  0  0  0  0
    3.7564   -2.1623   -2.7557 O   0  0  0  0  0  0  0  0  0  0  0  0
    3.3994   -0.5780   -1.0952 N   0  0  0  0  0  0  0  0  0  0  0  0
    2.8742   -0.1297    0.2040 C   0  0  0  0  0  0  0  0  0  0  0  0
    3.8724   -0.4254    1.3448 C   0  0  0  0  0  0  0  0  0  0  0  0
    5.2507    0.1473    1.1228 C   0  0  0  0  0  0  0  0  0  0  0  0
    5.5754    1.4228    1.6111 C   0  0  0  0  0  0  0  0  0  0  0  0
    6.8660    1.9331    1.4444 C   0  0  0  0  0  0  0  0  0  0  0  0
    7.8377    1.1809    0.7822 C   0  0  0  0  0  0  0  0  0  0  0  0
    7.5188   -0.0829    0.2835 C   0  0  0  0  0  0  0  0  0  0  0  0
    6.2297   -0.5980    0.4460 C   0  0  0  0  0  0  0  0  0  0  0  0
    2.4950    1.3564    0.1278 C   0  0  0  0  0  0  0  0  0  0  0  0
    1.4015    1.5281   -0.7768 O   0  0  0  0  0  0  0  0  0  0  0  0
    0.3332    2.4111   -0.5642 C   0  0  0  0  0  0  0  0  0  0  0  0
    0.0233    3.3302   -1.5747 C   0  0  0  0  0  0  0  0  0  0  0  0
   -1.0094    4.2547   -1.3987 C   0  0  0  0  0  0  0  0  0  0  0  0
   -1.7533    4.2641   -0.2163 C   0  0  0  0  0  0  0  0  0  0  0  0
   -1.4806    3.3298    0.7868 C   0  0  0  0  0  0  0  0  0  0  0  0
   -0.4560    2.3815    0.6127 C   0  0  0  0  0  0  0  0  0  0  0  0
   -0.3108    1.3039    1.6106 C   0  0  0  0  0  0  0  0  0  0  0  0
    0.0083    1.5972    2.7946 O   0  0  0  0  0  0  0  0  0  0  0  0
   -0.5625   -0.0690    1.2641 N   0  0  0  0  0  0  0  0  0  0  0  0
   -4.8689    1.5536    1.0284 C   0  0  0  0  0  0  0  0  0  0  0  0
   -6.2840    1.2489    0.5367 C   0  0  0  0  0  0  0  0  0  0  0  0
   -7.3067    2.1149    1.2728 C   0  0  0  0  0  0  0  0  0  0  0  0
   -6.3874    1.4894   -0.8632 O   0  0  0  0  0  0  0  0  0  0  0  0
   -5.7271   -1.3368   -0.7006 H   0  0  0  0  0  0  0  0  0  0  0  0
   -7.0850   -0.8465   -1.7970 H   0  0  0  0  0  0  0  0  0  0  0  0
   -5.4930   -1.3584   -2.4813 H   0  0  0  0  0  0  0  0  0  0  0  0
   -5.5712    1.0153   -2.6747 H   0  0  0  0  0  0  0  0  0  0  0  0
   -3.6255    1.7707   -1.5462 H   0  0  0  0  0  0  0  0  0  0  0  0
   -3.4461   -0.0126   -1.6874 H   0  0  0  0  0  0  0  0  0  0  0  0
   -1.4877    0.1690   -0.6102 H   0  0  0  0  0  0  0  0  0  0  0  0
   -2.5953   -2.3211   -0.2545 H   0  0  0  0  0  0  0  0  0  0  0  0
   -1.1628   -2.5210    0.8107 H   0  0  0  0  0  0  0  0  0  0  0  0
    0.7241   -0.7203   -1.5990 H   0  0  0  0  0  0  0  0  0  0  0  0
    1.6056   -3.2841   -2.3353 H   0  0  0  0  0  0  0  0  0  0  0  0
    1.8279   -2.9262    0.7135 H   0  0  0  0  0  0  0  0  0  0  0  0
    1.1999   -5.3813   -1.0663 H   0  0  0  0  0  0  0  0  0  0  0  0
    1.1997   -5.3292    0.7343 H   0  0  0  0  0  0  0  0  0  0  0  0
   -0.0205   -4.3991   -0.1720 H   0  0  0  0  0  0  0  0  0  0  0  0
    3.5563   -4.7487    0.7588 H   0  0  0  0  0  0  0  0  0  0  0  0
    3.6728   -4.6862   -1.0507 H   0  0  0  0  0  0  0  0  0  0  0  0
    4.2002   -3.2836   -0.0473 H   0  0  0  0  0  0  0  0  0  0  0  0
    4.1932   -0.0286   -1.4999 H   0  0  0  0  0  0  0  0  0  0  0  0
    1.9547   -0.6744    0.4650 H   0  0  0  0  0  0  0  0  0  0  0  0
    3.9536   -1.5271    1.4713 H   0  0  0  0  0  0  0  0  0  0  0  0
    3.4568   -0.0323    2.3006 H   0  0  0  0  0  0  0  0  0  0  0  0
    4.8372    2.0131    2.1410 H   0  0  0  0  0  0  0  0  0  0  0  0
    7.1155    2.9086    1.8420 H   0  0  0  0  0  0  0  0  0  0  0  0
    8.8377    1.5759    0.6597 H   0  0  0  0  0  0  0  0  0  0  0  0
    8.2708   -0.6683   -0.2255 H   0  0  0  0  0  0  0  0  0  0  0  0
    6.0012   -1.5811    0.0571 H   0  0  0  0  0  0  0  0  0  0  0  0
    2.2422    1.7451    1.1358 H   0  0  0  0  0  0  0  0  0  0  0  0
    3.3597    1.9465   -0.2420 H   0  0  0  0  0  0  0  0  0  0  0  0
    0.5970    3.3361   -2.4951 H   0  0  0  0  0  0  0  0  0  0  0  0
   -1.2392    4.9665   -2.1816 H   0  0  0  0  0  0  0  0  0  0  0  0
   -2.5606    4.9767   -0.0940 H   0  0  0  0  0  0  0  0  0  0  0  0
   -2.1016    3.3135    1.6800 H   0  0  0  0  0  0  0  0  0  0  0  0
   -0.2032   -0.7970    1.9271 H   0  0  0  0  0  0  0  0  0  0  0  0
   -4.6181    2.6335    0.8925 H   0  0  0  0  0  0  0  0  0  0  0  0
   -4.8021    1.3284    2.1151 H   0  0  0  0  0  0  0  0  0  0  0  0
   -6.5245    0.1859    0.7694 H   0  0  0  0  0  0  0  0  0  0  0  0
   -7.1229    3.1956    1.0728 H   0  0  0  0  0  0  0  0  0  0  0  0
   -7.2552    1.9309    2.3755 H   0  0  0  0  0  0  0  0  0  0  0  0
   -8.3283    1.8719    0.9109 H   0  0  0  0  0  0  0  0  0  0  0  0
  1  2  1  0
  2  3  1  0
  3  4  1  0
  4  5  1  0
  5  6  2  0
  5  7  1  0
  7  8  1  0
  8  9  1  0
  9 10  2  0
  9 11  1  0
 11 12  1  0
 12 13  1  0
 13 14  1  0
 13 15  1  0
 12 16  1  0
 16 17  2  0
 16 18  1  0
 18 19  1  0
 19 20  1  0
 20 21  1  0
 21 22  2  0
 22 23  1  0
 23 24  2  0
 24 25  1  0
 25 26  2  0
 19 27  1  0
 27 28  1  0
 28 29  1  0
 29 30  2  0
 30 31  1  0
 31 32  2  0
 32 33  1  0
 33 34  2  0
 34 35  1  0
 35 36  2  0
 35 37  1  0
  4 38  1  0
 38 39  1  0
 39 40  1  0
 39 41  1  0
 41  2  1  0
 37  7  1  0
 26 21  1  0
 34 29  1  0
  1 42  1  0
  1 43  1  0
  1 44  1  0
  2 45  1  0
  3 46  1  0
  3 47  1  0
  7 48  1  0
  8 49  1  0
  8 50  1  0
 11 51  1  0
 12 52  1  0
 13 53  1  0
 14 54  1  0
 14 55  1  0
 14 56  1  0
 15 57  1  0
 15 58  1  0
 15 59  1  0
 18 60  1  0
 19 61  1  0
 20 62  1  0
 20 63  1  0
 22 64  1  0
 23 65  1  0
 24 66  1  0
 25 67  1  0
 26 68  1  0
 27 69  1  0
 27 70  1  0
 30 71  1  0
 31 72  1  0
 32 73  1  0
 33 74  1  0
 37 75  1  0
 38 76  1  0
 38 77  1  0
 39 78  1  0
 40 79  1  0
 40 80  1  0
 40 81  1  0
M  END
$$$$
