
     RDKit          3D

 79 81  0  0  0  0  0  0  0  0999 V2000
   -5.4491   -0.7075    1.1199 C   0  0  0  0  0  0  0  0  0  0  0  0
   -4.6704   -1.2153   -0.1010 C   0  0  0  0  0  0  0  0  0  0  0  0
   -5.5944   -1.2826   -1.3260 C   0  0  0  0  0  0  0  0  0  0  0  0
   -3.3624   -0.3954   -0.3239 C   0  0  0  0  0  0  0  0  0  0  0  0
   -2.4432   -1.0334   -1.3577 C   0  0  0  0  0  0  0  0  0  0  0  0
   -1.9588   -0.3338   -2.2895 O   0  0  0  0  0  0  0  0  0  0  0  0
   -2.0767   -2.4257   -1.2807 N   0  0  0  0  0  0  0  0  0  0  0  0
   -2.1639   -3.2251   -2.5057 C   0  0  0  0  0  0  0  0  0  0  0  0
   -1.6417   -3.0542   -0.0209 C   0  0  0  0  0  0  0  0  0  0  0  0
   -0.1933   -3.5855   -0.1024 C   0  0  0  0  0  0  0  0  0  0  0  0
    0.8867   -2.5341    0.2122 C   0  0  0  0  0  0  0  0  0  0  0  0
    0.9319   -1.4040   -0.8201 C   0  0  0  0  0  0  0  0  0  0  0  0
    2.1594   -0.6110   -0.6740 N   0  0  0  0  0  0  0  0  0  0  0  0
    3.2914   -0.8866   -1.5253 C   0  0  0  0  0  0  0  0  0  0  0  0
    3.1062   -1.1743   -2.7382 O   0  0  0  0  0  0  0  0  0  0  0  0
    4.6962   -0.8184   -1.0052 C   0  0  0  0  0  0  0  0  0  0  0  0
    5.1512    0.5308   -1.0278 O   0  0  0  0  0  0  0  0  0  0  0  0
    6.4004    0.9563   -0.5521 C   0  0  0  0  0  0  0  0  0  0  0  0
    7.3890    0.0509   -0.1157 C   0  0  0  0  0  0  0  0  0  0  0  0
    8.6197    0.5243    0.3505 C   0  0  0  0  0  0  0  0  0  0  0  0
    8.8708    1.8985    0.3966 C   0  0  0  0  0  0  0  0  0  0  0  0
    7.8951    2.8025   -0.0333 C   0  0  0  0  0  0  0  0  0  0  0  0
    6.6664    2.3324   -0.5088 C   0  0  0  0  0  0  0  0  0  0  0  0
    5.7304    3.2164   -0.9326 F   0  0  0  0  0  0  0  0  0  0  0  0
    2.2256    0.4238    0.3703 C   0  0  0  0  0  0  0  0  0  0  0  0
    2.1467    1.8385   -0.2313 C   0  0  0  0  0  0  0  0  0  0  0  0
    0.8197    2.1564   -0.9509 C   0  0  0  0  0  0  0  0  0  0  0  0
   -0.3293    2.4970    0.0045 C   0  0  0  0  0  0  0  0  0  0  0  0
   -0.7384    1.3394    0.7252 O   0  0  0  0  0  0  0  0  0  0  0  0
   -1.5588    1.4159    1.8528 C   0  0  0  0  0  0  0  0  0  0  0  0
   -1.0110    1.0972    3.1014 C   0  0  0  0  0  0  0  0  0  0  0  0
   -1.7861    1.1921    4.2590 C   0  0  0  0  0  0  0  0  0  0  0  0
   -3.1180    1.6065    4.1772 C   0  0  0  0  0  0  0  0  0  0  0  0
   -4.0899    1.7330    5.6326 Cl  0  0  0  0  0  0  0  0  0  0  0  0
   -3.6812    1.9057    2.9329 C   0  0  0  0  0  0  0  0  0  0  0  0
   -2.9183    1.7870    1.7593 C   0  0  0  0  0  0  0  0  0  0  0  0
   -3.5728    2.0397    0.4589 C   0  0  0  0  0  0  0  0  0  0  0  0
   -4.1301    3.1603    0.2917 O   0  0  0  0  0  0  0  0  0  0  0  0
   -3.6291    1.0451   -0.5965 N   0  0  0  0  0  0  0  0  0  0  0  0
   -4.1096    1.5018   -1.9101 C   0  0  0  0  0  0  0  0  0  0  0  0
   -6.3204   -1.3683    1.3195 H   0  0  0  0  0  0  0  0  0  0  0  0
   -4.8003   -0.7201    2.0208 H   0  0  0  0  0  0  0  0  0  0  0  0
   -5.8180    0.3263    0.9542 H   0  0  0  0  0  0  0  0  0  0  0  0
   -4.3775   -2.2625    0.1334 H   0  0  0  0  0  0  0  0  0  0  0  0
   -6.3844   -2.0457   -1.1588 H   0  0  0  0  0  0  0  0  0  0  0  0
   -6.1000   -0.3113   -1.5007 H   0  0  0  0  0  0  0  0  0  0  0  0
   -5.0284   -1.5786   -2.2327 H   0  0  0  0  0  0  0  0  0  0  0  0
   -2.8026   -0.4772    0.6210 H   0  0  0  0  0  0  0  0  0  0  0  0
   -3.1636   -3.0957   -2.9699 H   0  0  0  0  0  0  0  0  0  0  0  0
   -2.0223   -4.3058   -2.2908 H   0  0  0  0  0  0  0  0  0  0  0  0
   -1.3849   -2.8976   -3.2259 H   0  0  0  0  0  0  0  0  0  0  0  0
   -1.7197   -2.3583    0.8379 H   0  0  0  0  0  0  0  0  0  0  0  0
   -2.3234   -3.9043    0.1979 H   0  0  0  0  0  0  0  0  0  0  0  0
    0.0116   -4.0507   -1.0898 H   0  0  0  0  0  0  0  0  0  0  0  0
   -0.0881   -4.3968    0.6500 H   0  0  0  0  0  0  0  0  0  0  0  0
    1.8729   -3.0485    0.2245 H   0  0  0  0  0  0  0  0  0  0  0  0
    0.7173   -2.1114    1.2263 H   0  0  0  0  0  0  0  0  0  0  0  0
    0.0584   -0.7459   -0.6627 H   0  0  0  0  0  0  0  0  0  0  0  0
    0.8566   -1.8241   -1.8493 H   0  0  0  0  0  0  0  0  0  0  0  0
    4.7272   -1.2162    0.0330 H   0  0  0  0  0  0  0  0  0  0  0  0
    5.3545   -1.4463   -1.6433 H   0  0  0  0  0  0  0  0  0  0  0  0
    7.2202   -1.0184   -0.1430 H   0  0  0  0  0  0  0  0  0  0  0  0
    9.3821   -0.1765    0.6746 H   0  0  0  0  0  0  0  0  0  0  0  0
    9.8235    2.2614    0.7612 H   0  0  0  0  0  0  0  0  0  0  0  0
    8.0943    3.8659   -0.0020 H   0  0  0  0  0  0  0  0  0  0  0  0
    1.4185    0.2800    1.1156 H   0  0  0  0  0  0  0  0  0  0  0  0
    3.1707    0.3248    0.9433 H   0  0  0  0  0  0  0  0  0  0  0  0
    2.3197    2.5828    0.5745 H   0  0  0  0  0  0  0  0  0  0  0  0
    2.9746    1.9619   -0.9598 H   0  0  0  0  0  0  0  0  0  0  0  0
    0.5243    1.3314   -1.6313 H   0  0  0  0  0  0  0  0  0  0  0  0
    0.9906    3.0471   -1.5929 H   0  0  0  0  0  0  0  0  0  0  0  0
   -0.0041    3.2920    0.7106 H   0  0  0  0  0  0  0  0  0  0  0  0
   -1.1847    2.8872   -0.5874 H   0  0  0  0  0  0  0  0  0  0  0  0
    0.0251    0.7922    3.1759 H   0  0  0  0  0  0  0  0  0  0  0  0
   -1.3482    0.9513    5.2190 H   0  0  0  0  0  0  0  0  0  0  0  0
   -4.7227    2.2017    2.8756 H   0  0  0  0  0  0  0  0  0  0  0  0
   -4.1874    0.6733   -2.6416 H   0  0  0  0  0  0  0  0  0  0  0  0
   -5.1168    1.9603   -1.8092 H   0  0  0  0  0  0  0  0  0  0  0  0
   -3.4046    2.2558   -2.3190 H   0  0  0  0  0  0  0  0  0  0  0  0
  1  2  1  0
  2  3  1  0
  2  4  1  0
  4  5  1  0
  5  6  2  0
  5  7  1  0
  7  8  1  0
  7  9  1  0
  9 10  1  0
 10 11  1  0
 11 12  1  0
 12 13  1  0
 13 14  1  0
 14 15  2  0
 14 16  1  0
 16 17  1  0
 17 18  1  0
 18 19  2  0
 19 20  1  0
 20 21  2  0
 21 22  1  0
 22 23  2  0
 23 24  1  0
 13 25  1  0
 25 26  1  0
 26 27  1  0
 27 28  1  0
 28 29  1  0
 29 30  1  0
 30 31  2  0
 31 32  1  0
 32 33  2  0
 33 34  1  0
 33 35  1  0
 35 36  2  0
 36 37  1  0
 37 38  2  0
 37 39  1  0
 39 40  1  0
 39  4  1  0
 23 18  1  0
 36 30  1  0
  1 41  1  0
  1 42  1  0
  1 43  1  0
  2 44  1  0
  3 45  1  0
  3 46  1  0
  3 47  1  0
  4 48  1  0
  8 49  1  0
  8 50  1  0
  8 51  1  0
  9 52  1  0
  9 53  1  0
 10 54  1  0
 10 55  1  0
 11 56  1  0
 11 57  1  0
 12 58  1  0
 12 59  1  0
 16 60  1  0
 16 61  1  0
 19 62  1  0
 20 63  1  0
 21 64  1  0
 22 65  1  0
 25 66  1  0
 25 67  1  0
 26 68  1  0
 26 69  1  0
 27 70  1  0
 27 71  1  0
 28 72  1  0
 28 73  1  0
 31 74  1  0
 32 75  1  0
 35 76  1  0
 40 77  1  0
 40 78  1  0
 40 79  1  0
M  END
$$$$
