
     RDKit          3D

 68 71  0  0  0  0  0  0  0  0999 V2000
    3.3145   -2.8436    1.2757 C   0  0  0  0  0  0  0  0  0  0  0  0
    3.5425   -1.4385    1.2197 O   0  0  0  0  0  0  0  0  0  0  0  0
    4.7820   -0.8397    0.9303 C   0  0  0  0  0  0  0  0  0  0  0  0
    5.9416   -1.6060    0.6944 C   0  0  0  0  0  0  0  0  0  0  0  0
    7.1536   -0.9813    0.3864 C   0  0  0  0  0  0  0  0  0  0  0  0
    7.2327    0.4164    0.3169 C   0  0  0  0  0  0  0  0  0  0  0  0
    8.5226    1.0804   -0.0725 C   0  0  0  0  0  0  0  0  0  0  0  0
    6.0798    1.1848    0.5377 C   0  0  0  0  0  0  0  0  0  0  0  0
    4.8592    0.5683    0.8630 C   0  0  0  0  0  0  0  0  0  0  0  0
    3.6262    1.4177    1.0695 C   0  0  0  0  0  0  0  0  0  0  0  0
    2.7457    1.4119   -0.1545 C   0  0  0  0  0  0  0  0  0  0  0  0
    3.2838    1.3807   -1.3000 O   0  0  0  0  0  0  0  0  0  0  0  0
    1.3087    1.4979   -0.0431 N   0  0  0  0  0  0  0  0  0  0  0  0
    0.6631    1.9377    1.1976 C   0  0  0  0  0  0  0  0  0  0  0  0
   -0.7671    2.3954    0.9037 C   0  0  0  0  0  0  0  0  0  0  0  0
   -1.5608    1.4013    0.2638 O   0  0  0  0  0  0  0  0  0  0  0  0
   -0.9070    0.6394   -0.7577 C   0  0  0  0  0  0  0  0  0  0  0  0
   -0.6620   -0.8051   -0.1989 C   0  0  0  0  0  0  0  0  0  0  0  0
   -1.8517   -1.4338    0.5784 C   0  0  0  0  0  0  0  0  0  0  0  0
   -2.5332   -2.6273   -0.1293 C   0  0  0  0  0  0  0  0  0  0  0  0
   -3.8048   -2.2629   -0.9161 C   0  0  0  0  0  0  0  0  0  0  0  0
   -4.9059   -1.7350   -0.0215 C   0  0  0  0  0  0  0  0  0  0  0  0
   -5.6487   -2.6321    0.7652 C   0  0  0  0  0  0  0  0  0  0  0  0
   -6.6361   -2.1612    1.6336 C   0  0  0  0  0  0  0  0  0  0  0  0
   -6.8840   -0.7912    1.7333 C   0  0  0  0  0  0  0  0  0  0  0  0
   -6.1503    0.1129    0.9615 C   0  0  0  0  0  0  0  0  0  0  0  0
   -5.1606   -0.3494    0.0744 C   0  0  0  0  0  0  0  0  0  0  0  0
   -4.4035    0.5282   -0.7145 O   0  0  0  0  0  0  0  0  0  0  0  0
   -4.3923    1.9489   -0.5937 C   0  0  0  0  0  0  0  0  0  0  0  0
   -3.3780    2.5775   -1.5689 C   0  0  0  0  0  0  0  0  0  0  0  0
   -2.7179    1.5825   -2.4194 N   0  0  0  0  0  0  0  0  0  0  0  0
   -1.7767    0.5644   -2.0145 C   0  0  0  0  0  0  0  0  0  0  0  0
   -1.5702   -0.3827   -2.8214 O   0  0  0  0  0  0  0  0  0  0  0  0
    0.4593    1.2374   -1.2088 C   0  0  0  0  0  0  0  0  0  0  0  0
    3.5507   -3.3079    0.2948 H   0  0  0  0  0  0  0  0  0  0  0  0
    2.2428   -3.0297    1.5042 H   0  0  0  0  0  0  0  0  0  0  0  0
    3.9360   -3.2992    2.0746 H   0  0  0  0  0  0  0  0  0  0  0  0
    5.9133   -2.6867    0.7328 H   0  0  0  0  0  0  0  0  0  0  0  0
    8.0300   -1.5896    0.1927 H   0  0  0  0  0  0  0  0  0  0  0  0
    8.5750    2.1154    0.3320 H   0  0  0  0  0  0  0  0  0  0  0  0
    8.5947    1.1201   -1.1797 H   0  0  0  0  0  0  0  0  0  0  0  0
    9.3905    0.5114    0.3272 H   0  0  0  0  0  0  0  0  0  0  0  0
    6.1306    2.2644    0.4511 H   0  0  0  0  0  0  0  0  0  0  0  0
    3.0731    1.0260    1.9480 H   0  0  0  0  0  0  0  0  0  0  0  0
    3.9039    2.4691    1.3010 H   0  0  0  0  0  0  0  0  0  0  0  0
    0.6429    1.1007    1.9311 H   0  0  0  0  0  0  0  0  0  0  0  0
    1.2253    2.7924    1.6405 H   0  0  0  0  0  0  0  0  0  0  0  0
   -0.7355    3.3158    0.2809 H   0  0  0  0  0  0  0  0  0  0  0  0
   -1.2563    2.6667    1.8637 H   0  0  0  0  0  0  0  0  0  0  0  0
    0.1909   -0.7682    0.5108 H   0  0  0  0  0  0  0  0  0  0  0  0
   -0.3029   -1.4828   -1.0027 H   0  0  0  0  0  0  0  0  0  0  0  0
   -1.4440   -1.8256    1.5378 H   0  0  0  0  0  0  0  0  0  0  0  0
   -2.5972   -0.6766    0.8890 H   0  0  0  0  0  0  0  0  0  0  0  0
   -1.8201   -3.1437   -0.8062 H   0  0  0  0  0  0  0  0  0  0  0  0
   -2.8168   -3.3776    0.6422 H   0  0  0  0  0  0  0  0  0  0  0  0
   -3.5651   -1.5463   -1.7241 H   0  0  0  0  0  0  0  0  0  0  0  0
   -4.1737   -3.1790   -1.4267 H   0  0  0  0  0  0  0  0  0  0  0  0
   -5.4608   -3.6965    0.7072 H   0  0  0  0  0  0  0  0  0  0  0  0
   -7.2012   -2.8598    2.2385 H   0  0  0  0  0  0  0  0  0  0  0  0
   -7.6395   -0.4276    2.4162 H   0  0  0  0  0  0  0  0  0  0  0  0
   -6.3606    1.1681    1.0622 H   0  0  0  0  0  0  0  0  0  0  0  0
   -4.1215    2.2323    0.4468 H   0  0  0  0  0  0  0  0  0  0  0  0
   -5.4099    2.3457   -0.8099 H   0  0  0  0  0  0  0  0  0  0  0  0
   -3.9256    3.2900   -2.2238 H   0  0  0  0  0  0  0  0  0  0  0  0
   -2.6269    3.1906   -1.0383 H   0  0  0  0  0  0  0  0  0  0  0  0
   -3.0096    1.5740   -3.4227 H   0  0  0  0  0  0  0  0  0  0  0  0
    0.9627    0.5263   -1.9019 H   0  0  0  0  0  0  0  0  0  0  0  0
    0.3002    2.1937   -1.7542 H   0  0  0  0  0  0  0  0  0  0  0  0
  1  2  1  0
  2  3  1  0
  3  4  2  0
  4  5  1  0
  5  6  2  0
  6  7  1  0
  6  8  1  0
  8  9  2  0
  9 10  1  0
 10 11  1  0
 11 12  2  0
 11 13  1  0
 13 14  1  0
 14 15  1  0
 15 16  1  0
 16 17  1  0
 17 18  1  0
 18 19  1  0
 19 20  1  0
 20 21  1  0
 21 22  1  0
 22 23  2  0
 23 24  1  0
 24 25  2  0
 25 26  1  0
 26 27  2  0
 27 28  1  0
 28 29  1  0
 29 30  1  0
 30 31  1  0
 31 32  1  0
 32 33  2  0
 17 34  1  0
  9  3  1  0
 34 13  1  0
 32 17  1  0
 27 22  1  0
  1 35  1  0
  1 36  1  0
  1 37  1  0
  4 38  1  0
  5 39  1  0
  7 40  1  0
  7 41  1  0
  7 42  1  0
  8 43  1  0
 10 44  1  0
 10 45  1  0
 14 46  1  0
 14 47  1  0
 15 48  1  0
 15 49  1  0
 18 50  1  0
 18 51  1  0
 19 52  1  0
 19 53  1  0
 20 54  1  0
 20 55  1  0
 21 56  1  0
 21 57  1  0
 23 58  1  0
 24 59  1  0
 25 60  1  0
 26 61  1  0
 29 62  1  0
 29 63  1  0
 30 64  1  0
 30 65  1  0
 31 66  1  0
 34 67  1  0
 34 68  1  0
M  END
$$$$
