
     RDKit          3D

 64 68  0  0  0  0  0  0  0  0999 V2000
    4.4475   -0.3084    2.9816 C   0  0  0  0  0  0  0  0  0  0  0  0
    4.7668   -0.3383    1.5182 C   0  0  0  0  0  0  0  0  0  0  0  0
    3.9486    0.0566    0.4516 C   0  0  0  0  0  0  0  0  0  0  0  0
    2.5714    0.5950    0.5444 C   0  0  0  0  0  0  0  0  0  0  0  0
    2.1274    0.9456    1.6717 O   0  0  0  0  0  0  0  0  0  0  0  0
    1.7353    0.7434   -0.6245 N   0  0  0  0  0  0  0  0  0  0  0  0
    1.9352   -0.0767   -1.8251 C   0  0  0  0  0  0  0  0  0  0  0  0
    0.6665   -0.0620   -2.6825 C   0  0  0  0  0  0  0  0  0  0  0  0
   -0.4652   -0.2534   -1.8558 O   0  0  0  0  0  0  0  0  0  0  0  0
   -0.7269    0.8394   -0.9638 C   0  0  0  0  0  0  0  0  0  0  0  0
   -1.2974    0.1826    0.3368 C   0  0  0  0  0  0  0  0  0  0  0  0
   -1.6990    1.0515    1.5574 C   0  0  0  0  0  0  0  0  0  0  0  0
   -2.9464    1.9545    1.4285 C   0  0  0  0  0  0  0  0  0  0  0  0
   -4.1614    1.3580    0.6813 C   0  0  0  0  0  0  0  0  0  0  0  0
   -4.5787   -0.0474    1.0687 C   0  0  0  0  0  0  0  0  0  0  0  0
   -4.6038   -0.3527    2.4476 C   0  0  0  0  0  0  0  0  0  0  0  0
   -4.9750   -1.6126    2.9061 C   0  0  0  0  0  0  0  0  0  0  0  0
   -5.3722   -2.5931    2.0037 C   0  0  0  0  0  0  0  0  0  0  0  0
   -5.4211   -2.3039    0.6434 C   0  0  0  0  0  0  0  0  0  0  0  0
   -5.0540   -1.0445    0.1413 C   0  0  0  0  0  0  0  0  0  0  0  0
   -5.2533   -0.9153   -1.2568 O   0  0  0  0  0  0  0  0  0  0  0  0
   -4.8663    0.0905   -2.1969 C   0  0  0  0  0  0  0  0  0  0  0  0
   -3.3724   -0.0294   -2.5693 C   0  0  0  0  0  0  0  0  0  0  0  0
   -2.7201    1.2856   -2.5917 N   0  0  0  0  0  0  0  0  0  0  0  0
   -1.7441    1.7582   -1.6383 C   0  0  0  0  0  0  0  0  0  0  0  0
   -1.7079    2.9958   -1.3978 O   0  0  0  0  0  0  0  0  0  0  0  0
    0.5797    1.6441   -0.6191 C   0  0  0  0  0  0  0  0  0  0  0  0
    4.5966   -0.0945   -0.6905 O   0  0  0  0  0  0  0  0  0  0  0  0
    5.7920   -0.5584   -0.4211 C   0  0  0  0  0  0  0  0  0  0  0  0
    6.8067   -0.8629   -1.3257 C   0  0  0  0  0  0  0  0  0  0  0  0
    8.0245   -1.3432   -0.8101 C   0  0  0  0  0  0  0  0  0  0  0  0
    8.1980   -1.5064    0.5820 C   0  0  0  0  0  0  0  0  0  0  0  0
    7.1541   -1.1932    1.4719 C   0  0  0  0  0  0  0  0  0  0  0  0
    5.9560   -0.7213    0.9300 C   0  0  0  0  0  0  0  0  0  0  0  0
    5.2047   -0.8737    3.5649 H   0  0  0  0  0  0  0  0  0  0  0  0
    3.4556   -0.7773    3.1583 H   0  0  0  0  0  0  0  0  0  0  0  0
    4.4338    0.7445    3.3352 H   0  0  0  0  0  0  0  0  0  0  0  0
    2.1462   -1.1258   -1.5241 H   0  0  0  0  0  0  0  0  0  0  0  0
    2.7868    0.3159   -2.4211 H   0  0  0  0  0  0  0  0  0  0  0  0
    0.7168   -0.8903   -3.4195 H   0  0  0  0  0  0  0  0  0  0  0  0
    0.5798    0.8862   -3.2599 H   0  0  0  0  0  0  0  0  0  0  0  0
   -2.1411   -0.4839    0.0955 H   0  0  0  0  0  0  0  0  0  0  0  0
   -0.5119   -0.5156    0.7042 H   0  0  0  0  0  0  0  0  0  0  0  0
   -1.8935    0.3467    2.3956 H   0  0  0  0  0  0  0  0  0  0  0  0
   -0.8487    1.6676    1.9088 H   0  0  0  0  0  0  0  0  0  0  0  0
   -3.2642    2.2646    2.4469 H   0  0  0  0  0  0  0  0  0  0  0  0
   -2.6485    2.8992    0.9275 H   0  0  0  0  0  0  0  0  0  0  0  0
   -3.8694    1.3931   -0.3505 H   0  0  0  0  0  0  0  0  0  0  0  0
   -5.0348    2.0346    0.7987 H   0  0  0  0  0  0  0  0  0  0  0  0
   -4.3284    0.3869    3.1874 H   0  0  0  0  0  0  0  0  0  0  0  0
   -4.9646   -1.8260    3.9678 H   0  0  0  0  0  0  0  0  0  0  0  0
   -5.6589   -3.5736    2.3604 H   0  0  0  0  0  0  0  0  0  0  0  0
   -5.7677   -3.0707   -0.0383 H   0  0  0  0  0  0  0  0  0  0  0  0
   -5.2046    1.1003   -1.8888 H   0  0  0  0  0  0  0  0  0  0  0  0
   -5.4503   -0.0960   -3.1247 H   0  0  0  0  0  0  0  0  0  0  0  0
   -2.8666   -0.7359   -1.8925 H   0  0  0  0  0  0  0  0  0  0  0  0
   -3.2844   -0.4785   -3.5853 H   0  0  0  0  0  0  0  0  0  0  0  0
   -3.1275    1.9922   -3.2439 H   0  0  0  0  0  0  0  0  0  0  0  0
    0.7643    2.4153   -1.3992 H   0  0  0  0  0  0  0  0  0  0  0  0
    0.5054    2.2180    0.3235 H   0  0  0  0  0  0  0  0  0  0  0  0
    6.6669   -0.7308   -2.3911 H   0  0  0  0  0  0  0  0  0  0  0  0
    8.8347   -1.5843   -1.4859 H   0  0  0  0  0  0  0  0  0  0  0  0
    9.1430   -1.8696    0.9652 H   0  0  0  0  0  0  0  0  0  0  0  0
    7.2857   -1.3163    2.5386 H   0  0  0  0  0  0  0  0  0  0  0  0
  1  2  1  0
  2  3  2  0
  3  4  1  0
  4  5  2  0
  4  6  1  0
  6  7  1  0
  7  8  1  0
  8  9  1  0
  9 10  1  0
 10 11  1  0
 11 12  1  0
 12 13  1  0
 13 14  1  0
 14 15  1  0
 15 16  2  0
 16 17  1  0
 17 18  2  0
 18 19  1  0
 19 20  2  0
 20 21  1  0
 21 22  1  0
 22 23  1  0
 23 24  1  0
 24 25  1  0
 25 26  2  0
 10 27  1  0
  3 28  1  0
 28 29  1  0
 29 30  2  0
 30 31  1  0
 31 32  2  0
 32 33  1  0
 33 34  2  0
 34  2  1  0
 27  6  1  0
 34 29  1  0
 25 10  1  0
 20 15  1  0
  1 35  1  0
  1 36  1  0
  1 37  1  0
  7 38  1  0
  7 39  1  0
  8 40  1  0
  8 41  1  0
 11 42  1  0
 11 43  1  0
 12 44  1  0
 12 45  1  0
 13 46  1  0
 13 47  1  0
 14 48  1  0
 14 49  1  0
 16 50  1  0
 17 51  1  0
 18 52  1  0
 19 53  1  0
 22 54  1  0
 22 55  1  0
 23 56  1  0
 23 57  1  0
 24 58  1  0
 27 59  1  0
 27 60  1  0
 30 61  1  0
 31 62  1  0
 32 63  1  0
 33 64  1  0
M  END
$$$$
