
     RDKit          3D

 75 77  0  0  0  0  0  0  0  0999 V2000
   -5.2137    3.9247   -0.1124 C   0  0  0  0  0  0  0  0  0  0  0  0
   -4.4514    2.9383   -1.0066 C   0  0  0  0  0  0  0  0  0  0  0  0
   -4.6002    3.3483   -2.4797 C   0  0  0  0  0  0  0  0  0  0  0  0
   -2.9688    2.8677   -0.5622 C   0  0  0  0  0  0  0  0  0  0  0  0
   -2.1158    1.8133   -1.3111 C   0  0  0  0  0  0  0  0  0  0  0  0
   -2.6370    0.3707   -1.1770 C   0  0  0  0  0  0  0  0  0  0  0  0
   -2.9258    0.0559    0.1839 O   0  0  0  0  0  0  0  0  0  0  0  0
   -3.8253   -0.9365    0.6061 C   0  0  0  0  0  0  0  0  0  0  0  0
   -4.5581   -0.6784    1.7716 C   0  0  0  0  0  0  0  0  0  0  0  0
   -5.5175   -1.5843    2.2279 C   0  0  0  0  0  0  0  0  0  0  0  0
   -5.7475   -2.7708    1.5295 C   0  0  0  0  0  0  0  0  0  0  0  0
   -6.9446   -3.9115    2.1106 Cl  0  0  0  0  0  0  0  0  0  0  0  0
   -5.0035   -3.0603    0.3828 C   0  0  0  0  0  0  0  0  0  0  0  0
   -4.0309   -2.1616   -0.0812 C   0  0  0  0  0  0  0  0  0  0  0  0
   -3.1836   -2.5826   -1.2086 C   0  0  0  0  0  0  0  0  0  0  0  0
   -3.6739   -2.6114   -2.3698 O   0  0  0  0  0  0  0  0  0  0  0  0
   -1.8154   -2.9667   -1.0104 N   0  0  0  0  0  0  0  0  0  0  0  0
   -1.3267   -3.4701    0.2752 C   0  0  0  0  0  0  0  0  0  0  0  0
    0.2086   -3.4720    0.3319 C   0  0  0  0  0  0  0  0  0  0  0  0
    0.8285   -2.0664    0.2584 C   0  0  0  0  0  0  0  0  0  0  0  0
    0.4920   -1.2074    1.4858 C   0  0  0  0  0  0  0  0  0  0  0  0
    1.3404   -0.0070    1.5312 N   0  0  0  0  0  0  0  0  0  0  0  0
    2.4206    0.0414    2.4779 C   0  0  0  0  0  0  0  0  0  0  0  0
    2.1742   -0.0951    3.7064 O   0  0  0  0  0  0  0  0  0  0  0  0
    3.8151    0.2275    2.0379 C   0  0  0  0  0  0  0  0  0  0  0  0
    4.3052    0.0541    0.7597 C   0  0  0  0  0  0  0  0  0  0  0  0
    5.6649    0.2984    0.8771 C   0  0  0  0  0  0  0  0  0  0  0  0
    6.6863    0.1953   -0.2421 C   0  0  0  0  0  0  0  0  0  0  0  0
    6.7694   -1.2676   -0.7164 C   0  0  0  0  0  0  0  0  0  0  0  0
    6.2583    1.0977   -1.4165 C   0  0  0  0  0  0  0  0  0  0  0  0
    8.0781    0.6436    0.2500 C   0  0  0  0  0  0  0  0  0  0  0  0
    5.9610    0.5856    2.1634 N   0  0  0  0  0  0  0  0  0  0  0  0
    4.8353    0.5412    2.8569 N   0  0  0  0  0  0  0  0  0  0  0  0
    1.2186    1.0516    0.5147 C   0  0  0  0  0  0  0  0  0  0  0  0
   -0.1952    1.5368    0.3822 C   0  0  0  0  0  0  0  0  0  0  0  0
   -0.9048    1.6802    1.4129 O   0  0  0  0  0  0  0  0  0  0  0  0
   -0.7038    1.8914   -0.9136 N   0  0  0  0  0  0  0  0  0  0  0  0
   -6.2855    3.9607   -0.4027 H   0  0  0  0  0  0  0  0  0  0  0  0
   -5.1573    3.6007    0.9495 H   0  0  0  0  0  0  0  0  0  0  0  0
   -4.7832    4.9460   -0.1997 H   0  0  0  0  0  0  0  0  0  0  0  0
   -4.9246    1.9424   -0.8681 H   0  0  0  0  0  0  0  0  0  0  0  0
   -4.0382    4.2837   -2.6876 H   0  0  0  0  0  0  0  0  0  0  0  0
   -4.2341    2.5442   -3.1495 H   0  0  0  0  0  0  0  0  0  0  0  0
   -5.6701    3.5132   -2.7276 H   0  0  0  0  0  0  0  0  0  0  0  0
   -2.9491    2.6550    0.5262 H   0  0  0  0  0  0  0  0  0  0  0  0
   -2.4986    3.8655   -0.7045 H   0  0  0  0  0  0  0  0  0  0  0  0
   -2.1506    2.0617   -2.3937 H   0  0  0  0  0  0  0  0  0  0  0  0
   -1.8654   -0.3230   -1.5698 H   0  0  0  0  0  0  0  0  0  0  0  0
   -3.5553    0.2574   -1.7934 H   0  0  0  0  0  0  0  0  0  0  0  0
   -4.3987    0.2466    2.3134 H   0  0  0  0  0  0  0  0  0  0  0  0
   -6.0856   -1.3610    3.1214 H   0  0  0  0  0  0  0  0  0  0  0  0
   -5.1628   -4.0011   -0.1314 H   0  0  0  0  0  0  0  0  0  0  0  0
   -1.2228   -3.1027   -1.8607 H   0  0  0  0  0  0  0  0  0  0  0  0
   -1.7320   -2.8700    1.1143 H   0  0  0  0  0  0  0  0  0  0  0  0
   -1.6904   -4.5109    0.4080 H   0  0  0  0  0  0  0  0  0  0  0  0
    0.5991   -4.0808   -0.5116 H   0  0  0  0  0  0  0  0  0  0  0  0
    0.5355   -3.9694    1.2710 H   0  0  0  0  0  0  0  0  0  0  0  0
    1.9329   -2.1817    0.1970 H   0  0  0  0  0  0  0  0  0  0  0  0
    0.4882   -1.5510   -0.6654 H   0  0  0  0  0  0  0  0  0  0  0  0
   -0.5766   -0.9096    1.4520 H   0  0  0  0  0  0  0  0  0  0  0  0
    0.6314   -1.8095    2.4124 H   0  0  0  0  0  0  0  0  0  0  0  0
    3.7629   -0.2447   -0.1267 H   0  0  0  0  0  0  0  0  0  0  0  0
    5.7885   -1.6139   -1.1078 H   0  0  0  0  0  0  0  0  0  0  0  0
    7.0638   -1.9334    0.1242 H   0  0  0  0  0  0  0  0  0  0  0  0
    7.5220   -1.3744   -1.5270 H   0  0  0  0  0  0  0  0  0  0  0  0
    7.0109    1.0601   -2.2348 H   0  0  0  0  0  0  0  0  0  0  0  0
    6.1576    2.1527   -1.0798 H   0  0  0  0  0  0  0  0  0  0  0  0
    5.2818    0.7710   -1.8351 H   0  0  0  0  0  0  0  0  0  0  0  0
    8.8259    0.5752   -0.5700 H   0  0  0  0  0  0  0  0  0  0  0  0
    8.0472    1.6967    0.6063 H   0  0  0  0  0  0  0  0  0  0  0  0
    8.4260   -0.0007    1.0868 H   0  0  0  0  0  0  0  0  0  0  0  0
    4.7742    0.7195    3.8840 H   0  0  0  0  0  0  0  0  0  0  0  0
    1.5736    0.6632   -0.4627 H   0  0  0  0  0  0  0  0  0  0  0  0
    1.8537    1.9238    0.7833 H   0  0  0  0  0  0  0  0  0  0  0  0
   -0.0072    2.0844   -1.6692 H   0  0  0  0  0  0  0  0  0  0  0  0
  1  2  1  0
  2  3  1  0
  2  4  1  0
  4  5  1  0
  5  6  1  0
  6  7  1  0
  7  8  1  0
  8  9  2  0
  9 10  1  0
 10 11  2  0
 11 12  1  0
 11 13  1  0
 13 14  2  0
 14 15  1  0
 15 16  2  0
 15 17  1  0
 17 18  1  0
 18 19  1  0
 19 20  1  0
 20 21  1  0
 21 22  1  0
 22 23  1  0
 23 24  2  0
 23 25  1  0
 25 26  2  0
 26 27  1  0
 27 28  1  0
 28 29  1  0
 28 30  1  0
 28 31  1  0
 27 32  2  0
 32 33  1  0
 22 34  1  0
 34 35  1  0
 35 36  2  0
 35 37  1  0
 37  5  1  0
 14  8  1  0
 33 25  1  0
  1 38  1  0
  1 39  1  0
  1 40  1  0
  2 41  1  0
  3 42  1  0
  3 43  1  0
  3 44  1  0
  4 45  1  0
  4 46  1  0
  5 47  1  0
  6 48  1  0
  6 49  1  0
  9 50  1  0
 10 51  1  0
 13 52  1  0
 17 53  1  0
 18 54  1  0
 18 55  1  0
 19 56  1  0
 19 57  1  0
 20 58  1  0
 20 59  1  0
 21 60  1  0
 21 61  1  0
 26 62  1  0
 29 63  1  0
 29 64  1  0
 29 65  1  0
 30 66  1  0
 30 67  1  0
 30 68  1  0
 31 69  1  0
 31 70  1  0
 31 71  1  0
 33 72  1  0
 34 73  1  0
 34 74  1  0
 37 75  1  0
M  END
$$$$
