
     RDKit          3D

 61 64  0  0  0  0  0  0  0  0999 V2000
   -4.3401    0.2593   -1.7793 O   0  0  0  0  0  0  0  0  0  0  0  0
   -3.7426    0.0976   -0.6798 C   0  0  0  0  0  0  0  0  0  0  0  0
   -4.3213    0.7213    0.5662 C   0  0  0  0  0  0  0  0  0  0  0  0
   -5.8308    0.6188    0.5815 C   0  0  0  0  0  0  0  0  0  0  0  0
   -6.4403   -0.5490    1.0839 C   0  0  0  0  0  0  0  0  0  0  0  0
   -5.6859   -1.5665    1.5727 F   0  0  0  0  0  0  0  0  0  0  0  0
   -7.8321   -0.6784    1.0787 C   0  0  0  0  0  0  0  0  0  0  0  0
   -8.6303    0.3440    0.5648 C   0  0  0  0  0  0  0  0  0  0  0  0
   -8.0403    1.4987    0.0491 C   0  0  0  0  0  0  0  0  0  0  0  0
   -6.6473    1.6428    0.0467 C   0  0  0  0  0  0  0  0  0  0  0  0
   -5.9673    3.1107   -0.6501 Cl  0  0  0  0  0  0  0  0  0  0  0  0
   -2.5000   -0.6344   -0.6517 N   0  0  0  0  0  0  0  0  0  0  0  0
   -2.3195   -1.7916   -1.5260 C   0  0  0  0  0  0  0  0  0  0  0  0
   -0.8595   -1.8825   -1.9655 C   0  0  0  0  0  0  0  0  0  0  0  0
    0.0290   -1.8259   -0.8627 O   0  0  0  0  0  0  0  0  0  0  0  0
   -0.0848   -0.6266   -0.0966 C   0  0  0  0  0  0  0  0  0  0  0  0
    0.3228    0.6437   -0.9181 C   0  0  0  0  0  0  0  0  0  0  0  0
    1.7073    0.5340   -1.5959 C   0  0  0  0  0  0  0  0  0  0  0  0
    2.7675    1.4089   -0.9056 C   0  0  0  0  0  0  0  0  0  0  0  0
    4.1811    1.1452   -1.4713 C   0  0  0  0  0  0  0  0  0  0  0  0
    5.2052    0.9310   -0.3786 C   0  0  0  0  0  0  0  0  0  0  0  0
    6.2868    1.8183   -0.2451 C   0  0  0  0  0  0  0  0  0  0  0  0
    7.2709    1.5921    0.7190 C   0  0  0  0  0  0  0  0  0  0  0  0
    7.1884    0.4771    1.5543 C   0  0  0  0  0  0  0  0  0  0  0  0
    6.1166   -0.4103    1.4372 C   0  0  0  0  0  0  0  0  0  0  0  0
    5.1113   -0.1878    0.4771 C   0  0  0  0  0  0  0  0  0  0  0  0
    4.0025   -1.0389    0.3495 O   0  0  0  0  0  0  0  0  0  0  0  0
    3.7682   -2.2101    1.1221 C   0  0  0  0  0  0  0  0  0  0  0  0
    2.3734   -2.7501    0.8084 C   0  0  0  0  0  0  0  0  0  0  0  0
    1.3520   -2.0106    1.5531 N   0  0  0  0  0  0  0  0  0  0  0  0
    0.8209   -0.7472    1.1220 C   0  0  0  0  0  0  0  0  0  0  0  0
    0.9771    0.2548    1.8725 O   0  0  0  0  0  0  0  0  0  0  0  0
   -1.5328   -0.4684    0.4357 C   0  0  0  0  0  0  0  0  0  0  0  0
   -3.9225    0.2142    1.4698 H   0  0  0  0  0  0  0  0  0  0  0  0
   -3.9884    1.7774    0.6333 H   0  0  0  0  0  0  0  0  0  0  0  0
   -8.2931   -1.5767    1.4691 H   0  0  0  0  0  0  0  0  0  0  0  0
   -9.7078    0.2389    0.5598 H   0  0  0  0  0  0  0  0  0  0  0  0
   -8.6684    2.2825   -0.3548 H   0  0  0  0  0  0  0  0  0  0  0  0
   -2.5983   -2.7132   -0.9705 H   0  0  0  0  0  0  0  0  0  0  0  0
   -2.9605   -1.7195   -2.4311 H   0  0  0  0  0  0  0  0  0  0  0  0
   -0.6230   -1.1072   -2.7228 H   0  0  0  0  0  0  0  0  0  0  0  0
   -0.7133   -2.8589   -2.4738 H   0  0  0  0  0  0  0  0  0  0  0  0
   -0.4385    0.8500   -1.6999 H   0  0  0  0  0  0  0  0  0  0  0  0
    0.2829    1.5443   -0.2651 H   0  0  0  0  0  0  0  0  0  0  0  0
    2.0468   -0.5231   -1.6139 H   0  0  0  0  0  0  0  0  0  0  0  0
    1.6201    0.8624   -2.6551 H   0  0  0  0  0  0  0  0  0  0  0  0
    2.7370    1.2276    0.1895 H   0  0  0  0  0  0  0  0  0  0  0  0
    2.5087    2.4807   -1.0555 H   0  0  0  0  0  0  0  0  0  0  0  0
    4.4718    1.9997   -2.1215 H   0  0  0  0  0  0  0  0  0  0  0  0
    4.1961    0.2470   -2.1266 H   0  0  0  0  0  0  0  0  0  0  0  0
    6.3756    2.6810   -0.8942 H   0  0  0  0  0  0  0  0  0  0  0  0
    8.1046    2.2778    0.8117 H   0  0  0  0  0  0  0  0  0  0  0  0
    7.9572    0.2995    2.2945 H   0  0  0  0  0  0  0  0  0  0  0  0
    6.0813   -1.2677    2.0949 H   0  0  0  0  0  0  0  0  0  0  0  0
    4.5292   -2.9754    0.8592 H   0  0  0  0  0  0  0  0  0  0  0  0
    3.8438   -1.9817    2.2073 H   0  0  0  0  0  0  0  0  0  0  0  0
    2.1950   -2.7072   -0.2848 H   0  0  0  0  0  0  0  0  0  0  0  0
    2.3255   -3.8183    1.1107 H   0  0  0  0  0  0  0  0  0  0  0  0
    1.3164   -2.1972    2.5811 H   0  0  0  0  0  0  0  0  0  0  0  0
   -1.6416    0.5321    0.9095 H   0  0  0  0  0  0  0  0  0  0  0  0
   -1.7423   -1.2388    1.2109 H   0  0  0  0  0  0  0  0  0  0  0  0
  1  2  2  0
  2  3  1  0
  3  4  1  0
  4  5  2  0
  5  6  1  0
  5  7  1  0
  7  8  2  0
  8  9  1  0
  9 10  2  0
 10 11  1  0
  2 12  1  0
 12 13  1  0
 13 14  1  0
 14 15  1  0
 15 16  1  0
 16 17  1  0
 17 18  1  0
 18 19  1  0
 19 20  1  0
 20 21  1  0
 21 22  2  0
 22 23  1  0
 23 24  2  0
 24 25  1  0
 25 26  2  0
 26 27  1  0
 27 28  1  0
 28 29  1  0
 29 30  1  0
 30 31  1  0
 31 32  2  0
 16 33  1  0
 10  4  1  0
 33 12  1  0
 31 16  1  0
 26 21  1  0
  3 34  1  0
  3 35  1  0
  7 36  1  0
  8 37  1  0
  9 38  1  0
 13 39  1  0
 13 40  1  0
 14 41  1  0
 14 42  1  0
 17 43  1  0
 17 44  1  0
 18 45  1  0
 18 46  1  0
 19 47  1  0
 19 48  1  0
 20 49  1  0
 20 50  1  0
 22 51  1  0
 23 52  1  0
 24 53  1  0
 25 54  1  0
 28 55  1  0
 28 56  1  0
 29 57  1  0
 29 58  1  0
 30 59  1  0
 33 60  1  0
 33 61  1  0
M  END
$$$$
