
     RDKit          3D

 75 78  0  0  0  0  0  0  0  0999 V2000
    1.6653   -4.6360    1.1142 C   0  0  0  0  0  0  0  0  0  0  0  0
    1.9705   -3.1419    1.3540 C   0  0  0  0  0  0  0  0  0  0  0  0
    2.9151   -3.0478    2.5755 C   0  0  0  0  0  0  0  0  0  0  0  0
    0.7357   -2.3961    1.6623 N   0  0  0  0  0  0  0  0  0  0  0  0
   -0.4383   -2.3397    0.8309 C   0  0  0  0  0  0  0  0  0  0  0  0
   -0.5838   -3.1362   -0.1370 O   0  0  0  0  0  0  0  0  0  0  0  0
   -1.5294   -1.3540    1.1648 C   0  0  0  0  0  0  0  0  0  0  0  0
   -2.4614   -1.0270   -0.0269 C   0  0  0  0  0  0  0  0  0  0  0  0
   -3.4723    0.0183    0.3652 C   0  0  0  0  0  0  0  0  0  0  0  0
   -3.1600    1.2406    0.3363 O   0  0  0  0  0  0  0  0  0  0  0  0
   -4.7722   -0.3885    0.8219 N   0  0  0  0  0  0  0  0  0  0  0  0
   -5.8122    0.5648    1.2074 C   0  0  0  0  0  0  0  0  0  0  0  0
   -6.3872    1.2687   -0.0293 C   0  0  0  0  0  0  0  0  0  0  0  0
   -7.6593    1.9914    0.3167 C   0  0  0  0  0  0  0  0  0  0  0  0
   -8.9115    1.3901    0.1205 C   0  0  0  0  0  0  0  0  0  0  0  0
  -10.0381    2.0583    0.4847 N   0  0  0  0  0  0  0  0  0  0  0  0
   -9.9770    3.2962    1.0431 C   0  0  0  0  0  0  0  0  0  0  0  0
   -8.7323    3.8909    1.2565 C   0  0  0  0  0  0  0  0  0  0  0  0
   -7.6041    3.2254    0.8919 N   0  0  0  0  0  0  0  0  0  0  0  0
   -1.7446   -0.6225   -1.2455 N   0  0  0  0  0  0  0  0  0  0  0  0
   -0.5010    0.1027   -1.2707 C   0  0  0  0  0  0  0  0  0  0  0  0
   -0.3007    1.0050   -0.4075 O   0  0  0  0  0  0  0  0  0  0  0  0
    0.5377   -0.1837   -2.3069 C   0  0  0  0  0  0  0  0  0  0  0  0
    0.2314   -0.9949   -3.4227 C   0  0  0  0  0  0  0  0  0  0  0  0
    1.1684   -1.2084   -4.4360 C   0  0  0  0  0  0  0  0  0  0  0  0
    2.4244   -0.6133   -4.3622 C   0  0  0  0  0  0  0  0  0  0  0  0
    2.7622    0.1670   -3.2566 C   0  0  0  0  0  0  0  0  0  0  0  0
    1.8495    0.3519   -2.2102 C   0  0  0  0  0  0  0  0  0  0  0  0
    2.2768    1.0737   -1.0898 O   0  0  0  0  0  0  0  0  0  0  0  0
    2.6041    0.4420    0.1504 C   0  0  0  0  0  0  0  0  0  0  0  0
    3.9659   -0.3181    0.0549 C   0  0  0  0  0  0  0  0  0  0  0  0
    4.9732    0.2242    1.0969 C   0  0  0  0  0  0  0  0  0  0  0  0
    5.4305    1.6292    0.7859 C   0  0  0  0  0  0  0  0  0  0  0  0
    6.3224    1.8624   -0.2788 C   0  0  0  0  0  0  0  0  0  0  0  0
    6.7780    3.1606   -0.5485 C   0  0  0  0  0  0  0  0  0  0  0  0
    6.3501    4.2295    0.2432 C   0  0  0  0  0  0  0  0  0  0  0  0
    5.4661    4.0085    1.3040 C   0  0  0  0  0  0  0  0  0  0  0  0
    5.0081    2.7111    1.5781 C   0  0  0  0  0  0  0  0  0  0  0  0
    3.8437   -1.7726    0.2497 N   0  0  0  0  0  0  0  0  0  0  0  0
    2.6319   -2.5307    0.1281 C   0  0  0  0  0  0  0  0  0  0  0  0
    2.1069   -2.6640   -1.0106 O   0  0  0  0  0  0  0  0  0  0  0  0
    2.6007   -5.2313    1.1075 H   0  0  0  0  0  0  0  0  0  0  0  0
    1.1678   -4.8118    0.1394 H   0  0  0  0  0  0  0  0  0  0  0  0
    1.0048   -5.0283    1.9173 H   0  0  0  0  0  0  0  0  0  0  0  0
    3.8934   -3.5416    2.3694 H   0  0  0  0  0  0  0  0  0  0  0  0
    3.1141   -1.9820    2.8316 H   0  0  0  0  0  0  0  0  0  0  0  0
    2.4550   -3.5349    3.4677 H   0  0  0  0  0  0  0  0  0  0  0  0
    0.7420   -1.7570    2.4889 H   0  0  0  0  0  0  0  0  0  0  0  0
   -2.1379   -1.7882    1.9920 H   0  0  0  0  0  0  0  0  0  0  0  0
   -1.0712   -0.4209    1.5569 H   0  0  0  0  0  0  0  0  0  0  0  0
   -3.0146   -1.9597   -0.2719 H   0  0  0  0  0  0  0  0  0  0  0  0
   -4.9792   -1.4097    0.9143 H   0  0  0  0  0  0  0  0  0  0  0  0
   -6.6256    0.0053    1.7255 H   0  0  0  0  0  0  0  0  0  0  0  0
   -5.3974    1.3077    1.9267 H   0  0  0  0  0  0  0  0  0  0  0  0
   -6.5805    0.5226   -0.8333 H   0  0  0  0  0  0  0  0  0  0  0  0
   -5.6487    2.0010   -0.4207 H   0  0  0  0  0  0  0  0  0  0  0  0
   -8.9932    0.3993   -0.3097 H   0  0  0  0  0  0  0  0  0  0  0  0
  -10.8883    3.8066    1.3275 H   0  0  0  0  0  0  0  0  0  0  0  0
   -8.6628    4.8696    1.7134 H   0  0  0  0  0  0  0  0  0  0  0  0
   -2.2392   -0.8044   -2.1488 H   0  0  0  0  0  0  0  0  0  0  0  0
   -0.7315   -1.4705   -3.5316 H   0  0  0  0  0  0  0  0  0  0  0  0
    0.9126   -1.8228   -5.2892 H   0  0  0  0  0  0  0  0  0  0  0  0
    3.1441   -0.7648   -5.1576 H   0  0  0  0  0  0  0  0  0  0  0  0
    3.7469    0.6099   -3.1906 H   0  0  0  0  0  0  0  0  0  0  0  0
    1.7716   -0.2117    0.4746 H   0  0  0  0  0  0  0  0  0  0  0  0
    2.6466    1.2398    0.9208 H   0  0  0  0  0  0  0  0  0  0  0  0
    4.4110   -0.1603   -0.9522 H   0  0  0  0  0  0  0  0  0  0  0  0
    4.5217    0.1656    2.1134 H   0  0  0  0  0  0  0  0  0  0  0  0
    5.8743   -0.4271    1.1280 H   0  0  0  0  0  0  0  0  0  0  0  0
    6.6687    1.0409   -0.8948 H   0  0  0  0  0  0  0  0  0  0  0  0
    7.4633    3.3365   -1.3719 H   0  0  0  0  0  0  0  0  0  0  0  0
    6.7124    5.2314    0.0335 H   0  0  0  0  0  0  0  0  0  0  0  0
    5.1334    4.8379    1.9140 H   0  0  0  0  0  0  0  0  0  0  0  0
    4.3292    2.5532    2.4075 H   0  0  0  0  0  0  0  0  0  0  0  0
    4.7241   -2.3373    0.3018 H   0  0  0  0  0  0  0  0  0  0  0  0
  1  2  1  0
  2  3  1  0
  2  4  1  0
  4  5  1  0
  5  6  2  0
  5  7  1  0
  7  8  1  0
  8  9  1  0
  9 10  2  0
  9 11  1  0
 11 12  1  0
 12 13  1  0
 13 14  1  0
 14 15  2  0
 15 16  1  0
 16 17  2  0
 17 18  1  0
 18 19  2  0
  8 20  1  0
 20 21  1  0
 21 22  2  0
 21 23  1  0
 23 24  2  0
 24 25  1  0
 25 26  2  0
 26 27  1  0
 27 28  2  0
 28 29  1  0
 29 30  1  0
 30 31  1  0
 31 32  1  0
 32 33  1  0
 33 34  2  0
 34 35  1  0
 35 36  2  0
 36 37  1  0
 37 38  2  0
 31 39  1  0
 39 40  1  0
 40 41  2  0
 40  2  1  0
 19 14  1  0
 28 23  1  0
 38 33  1  0
  1 42  1  0
  1 43  1  0
  1 44  1  0
  3 45  1  0
  3 46  1  0
  3 47  1  0
  4 48  1  0
  7 49  1  0
  7 50  1  0
  8 51  1  0
 11 52  1  0
 12 53  1  0
 12 54  1  0
 13 55  1  0
 13 56  1  0
 15 57  1  0
 17 58  1  0
 18 59  1  0
 20 60  1  0
 24 61  1  0
 25 62  1  0
 26 63  1  0
 27 64  1  0
 30 65  1  0
 30 66  1  0
 31 67  1  0
 32 68  1  0
 32 69  1  0
 34 70  1  0
 35 71  1  0
 36 72  1  0
 37 73  1  0
 38 74  1  0
 39 75  1  0
M  END
$$$$
