
     RDKit          3D

 92 97  0  0  0  0  0  0  0  0999 V2000
   -4.7095   -0.8981    0.9974 C   0  0  0  0  0  0  0  0  0  0  0  0
   -4.1214    0.4524    1.0570 N   0  0  0  0  0  0  0  0  0  0  0  0
   -3.8354    0.9790    2.3792 C   0  0  0  0  0  0  0  0  0  0  0  0
   -4.3538    0.4190    3.3827 O   0  0  0  0  0  0  0  0  0  0  0  0
   -2.8386    2.0913    2.6334 C   0  0  0  0  0  0  0  0  0  0  0  0
   -3.1740    3.5720    2.4585 C   0  0  0  0  0  0  0  0  0  0  0  0
   -3.2285    2.9574    3.8410 C   0  0  0  0  0  0  0  0  0  0  0  0
   -1.4351    1.6874    2.7306 N   0  0  0  0  0  0  0  0  0  0  0  0
   -0.4453    2.0368    1.7479 C   0  0  0  0  0  0  0  0  0  0  0  0
   -0.4717    3.1676    1.1842 O   0  0  0  0  0  0  0  0  0  0  0  0
    0.6114    1.0459    1.3643 C   0  0  0  0  0  0  0  0  0  0  0  0
    0.4065    0.6020   -0.0994 C   0  0  0  0  0  0  0  0  0  0  0  0
    0.7251   -0.8809   -0.3676 C   0  0  0  0  0  0  0  0  0  0  0  0
    2.1632   -1.2291   -0.0637 C   0  0  0  0  0  0  0  0  0  0  0  0
    2.4461   -2.0289    0.8742 O   0  0  0  0  0  0  0  0  0  0  0  0
    3.2066   -0.6825   -0.8824 N   0  0  0  0  0  0  0  0  0  0  0  0
    4.5784   -1.1907   -0.8899 C   0  0  0  0  0  0  0  0  0  0  0  0
    5.5501   -0.3623    0.0070 C   0  0  0  0  0  0  0  0  0  0  0  0
    6.9734   -0.9395   -0.2312 C   0  0  0  0  0  0  0  0  0  0  0  0
    7.6139   -0.7521   -1.4798 C   0  0  0  0  0  0  0  0  0  0  0  0
    8.8803   -1.2850   -1.7336 C   0  0  0  0  0  0  0  0  0  0  0  0
    9.5253   -2.0475   -0.7676 C   0  0  0  0  0  0  0  0  0  0  0  0
    8.8992   -2.2994    0.4509 C   0  0  0  0  0  0  0  0  0  0  0  0
    9.5152   -3.0697    1.3792 F   0  0  0  0  0  0  0  0  0  0  0  0
    7.6305   -1.7718    0.7087 C   0  0  0  0  0  0  0  0  0  0  0  0
    5.0951   -0.4593    1.4914 C   0  0  0  0  0  0  0  0  0  0  0  0
    5.9752    0.4072    2.4255 C   0  0  0  0  0  0  0  0  0  0  0  0
    6.7808    1.3385    1.7170 O   0  0  0  0  0  0  0  0  0  0  0  0
    5.9811    2.0622    0.8062 C   0  0  0  0  0  0  0  0  0  0  0  0
    5.5057    1.1622   -0.3550 C   0  0  0  0  0  0  0  0  0  0  0  0
   -0.2050   -1.7558    0.3610 N   0  0  0  0  0  0  0  0  0  0  0  0
   -1.0273   -2.7404   -0.2896 C   0  0  0  0  0  0  0  0  0  0  0  0
   -1.3995   -3.7554    0.3565 O   0  0  0  0  0  0  0  0  0  0  0  0
   -1.4326   -2.5960   -1.6971 C   0  0  0  0  0  0  0  0  0  0  0  0
   -1.0538   -3.5884   -2.6185 C   0  0  0  0  0  0  0  0  0  0  0  0
   -1.4126   -3.4706   -3.9623 C   0  0  0  0  0  0  0  0  0  0  0  0
   -2.1535   -2.3656   -4.3948 C   0  0  0  0  0  0  0  0  0  0  0  0
   -2.5538   -1.3885   -3.4838 C   0  0  0  0  0  0  0  0  0  0  0  0
   -2.2009   -1.4903   -2.1215 C   0  0  0  0  0  0  0  0  0  0  0  0
   -2.6066   -0.5240   -1.1794 O   0  0  0  0  0  0  0  0  0  0  0  0
   -3.6055    0.4565   -1.4333 C   0  0  0  0  0  0  0  0  0  0  0  0
   -3.9251    1.2796   -0.1599 C   0  0  0  0  0  0  0  0  0  0  0  0
   -5.1349    2.2194   -0.4023 C   0  0  0  0  0  0  0  0  0  0  0  0
   -6.4470    1.4937   -0.5896 C   0  0  0  0  0  0  0  0  0  0  0  0
   -7.2332    1.1477    0.5239 C   0  0  0  0  0  0  0  0  0  0  0  0
   -8.4521    0.4791    0.3497 C   0  0  0  0  0  0  0  0  0  0  0  0
   -8.8896    0.1439   -0.9300 C   0  0  0  0  0  0  0  0  0  0  0  0
   -8.1264    0.4990   -2.0466 C   0  0  0  0  0  0  0  0  0  0  0  0
   -6.9122    1.1741   -1.8796 C   0  0  0  0  0  0  0  0  0  0  0  0
   -5.5848   -0.9751    1.6803 H   0  0  0  0  0  0  0  0  0  0  0  0
   -5.0700   -1.1634   -0.0170 H   0  0  0  0  0  0  0  0  0  0  0  0
   -3.9503   -1.6463    1.3121 H   0  0  0  0  0  0  0  0  0  0  0  0
   -2.3287    4.2854    2.3681 H   0  0  0  0  0  0  0  0  0  0  0  0
   -4.1894    3.8419    2.1098 H   0  0  0  0  0  0  0  0  0  0  0  0
   -4.2723    2.8726    4.2207 H   0  0  0  0  0  0  0  0  0  0  0  0
   -2.3983    3.3032    4.4948 H   0  0  0  0  0  0  0  0  0  0  0  0
   -1.1907    0.9754    3.4557 H   0  0  0  0  0  0  0  0  0  0  0  0
    0.5782    0.1858    2.0686 H   0  0  0  0  0  0  0  0  0  0  0  0
    1.6161    1.5171    1.4732 H   0  0  0  0  0  0  0  0  0  0  0  0
   -0.6433    0.7822   -0.4104 H   0  0  0  0  0  0  0  0  0  0  0  0
    1.0327    1.2408   -0.7599 H   0  0  0  0  0  0  0  0  0  0  0  0
    0.6027   -1.0341   -1.4615 H   0  0  0  0  0  0  0  0  0  0  0  0
    2.9351   -0.0271   -1.6540 H   0  0  0  0  0  0  0  0  0  0  0  0
    4.9340   -1.1666   -1.9399 H   0  0  0  0  0  0  0  0  0  0  0  0
    4.5856   -2.2616   -0.5821 H   0  0  0  0  0  0  0  0  0  0  0  0
    7.1323   -0.2185   -2.2871 H   0  0  0  0  0  0  0  0  0  0  0  0
    9.3556   -1.1163   -2.6909 H   0  0  0  0  0  0  0  0  0  0  0  0
   10.5085   -2.4607   -0.9672 H   0  0  0  0  0  0  0  0  0  0  0  0
    7.1705   -2.0486    1.6406 H   0  0  0  0  0  0  0  0  0  0  0  0
    4.0638   -0.0579    1.5747 H   0  0  0  0  0  0  0  0  0  0  0  0
    5.0442   -1.5106    1.8401 H   0  0  0  0  0  0  0  0  0  0  0  0
    5.3464    0.9352    3.1800 H   0  0  0  0  0  0  0  0  0  0  0  0
    6.6540   -0.2561    3.0052 H   0  0  0  0  0  0  0  0  0  0  0  0
    5.1002    2.5252    1.3178 H   0  0  0  0  0  0  0  0  0  0  0  0
    6.5897    2.9010    0.3953 H   0  0  0  0  0  0  0  0  0  0  0  0
    6.0955    1.4017   -1.2615 H   0  0  0  0  0  0  0  0  0  0  0  0
    4.4715    1.4780   -0.6005 H   0  0  0  0  0  0  0  0  0  0  0  0
   -0.1348   -1.8160    1.4013 H   0  0  0  0  0  0  0  0  0  0  0  0
   -0.4690   -4.4395   -2.3002 H   0  0  0  0  0  0  0  0  0  0  0  0
   -1.1220   -4.2368   -4.6692 H   0  0  0  0  0  0  0  0  0  0  0  0
   -2.4263   -2.2816   -5.4383 H   0  0  0  0  0  0  0  0  0  0  0  0
   -3.1479   -0.5575   -3.8478 H   0  0  0  0  0  0  0  0  0  0  0  0
   -3.2529    1.1529   -2.2232 H   0  0  0  0  0  0  0  0  0  0  0  0
   -4.5133   -0.0454   -1.8196 H   0  0  0  0  0  0  0  0  0  0  0  0
   -3.0369    1.9293   -0.0009 H   0  0  0  0  0  0  0  0  0  0  0  0
   -5.2460    2.9217    0.4442 H   0  0  0  0  0  0  0  0  0  0  0  0
   -4.9245    2.8499   -1.2965 H   0  0  0  0  0  0  0  0  0  0  0  0
   -6.9077    1.3988    1.5255 H   0  0  0  0  0  0  0  0  0  0  0  0
   -9.0500    0.2192    1.2117 H   0  0  0  0  0  0  0  0  0  0  0  0
   -9.8286   -0.3835   -1.0621 H   0  0  0  0  0  0  0  0  0  0  0  0
   -8.4709    0.2469   -3.0397 H   0  0  0  0  0  0  0  0  0  0  0  0
   -6.3363    1.4360   -2.7578 H   0  0  0  0  0  0  0  0  0  0  0  0
  1  2  1  0
  2  3  1  0
  3  4  2  0
  3  5  1  0
  5  6  1  0
  6  7  1  0
  5  8  1  0
  8  9  1  0
  9 10  2  0
  9 11  1  0
 11 12  1  0
 12 13  1  0
 13 14  1  0
 14 15  2  0
 14 16  1  0
 16 17  1  0
 17 18  1  0
 18 19  1  0
 19 20  2  0
 20 21  1  0
 21 22  2  0
 22 23  1  0
 23 24  1  0
 23 25  2  0
 18 26  1  0
 26 27  1  0
 27 28  1  0
 28 29  1  0
 29 30  1  0
 13 31  1  0
 31 32  1  0
 32 33  2  0
 32 34  1  0
 34 35  2  0
 35 36  1  0
 36 37  2  0
 37 38  1  0
 38 39  2  0
 39 40  1  0
 40 41  1  0
 41 42  1  0
 42 43  1  0
 43 44  1  0
 44 45  2  0
 45 46  1  0
 46 47  2  0
 47 48  1  0
 48 49  2  0
 42  2  1  0
 49 44  1  0
  7  5  1  0
 30 18  1  0
 39 34  1  0
 25 19  1  0
  1 50  1  0
  1 51  1  0
  1 52  1  0
  6 53  1  0
  6 54  1  0
  7 55  1  0
  7 56  1  0
  8 57  1  0
 11 58  1  0
 11 59  1  0
 12 60  1  0
 12 61  1  0
 13 62  1  0
 16 63  1  0
 17 64  1  0
 17 65  1  0
 20 66  1  0
 21 67  1  0
 22 68  1  0
 25 69  1  0
 26 70  1  0
 26 71  1  0
 27 72  1  0
 27 73  1  0
 29 74  1  0
 29 75  1  0
 30 76  1  0
 30 77  1  0
 31 78  1  0
 35 79  1  0
 36 80  1  0
 37 81  1  0
 38 82  1  0
 41 83  1  0
 41 84  1  0
 42 85  1  0
 43 86  1  0
 43 87  1  0
 45 88  1  0
 46 89  1  0
 47 90  1  0
 48 91  1  0
 49 92  1  0
M  END
$$$$
