
     RDKit          3D

 68 72  0  0  0  0  0  0  0  0999 V2000
    3.8715   -1.3007    1.2957 O   0  0  0  0  0  0  0  0  0  0  0  0
    3.0244   -1.7661    0.4868 C   0  0  0  0  0  0  0  0  0  0  0  0
    1.8285   -2.4983    1.0229 C   0  0  0  0  0  0  0  0  0  0  0  0
    0.5704   -1.9141    0.5145 N   0  0  0  0  0  0  0  0  0  0  0  0
   -0.5870   -2.8061    0.7756 C   0  0  0  0  0  0  0  0  0  0  0  0
   -1.6796   -2.1315    1.6160 C   0  0  0  0  0  0  0  0  0  0  0  0
   -2.1123   -0.9078    1.0482 O   0  0  0  0  0  0  0  0  0  0  0  0
   -1.0639   -0.0277    0.6546 C   0  0  0  0  0  0  0  0  0  0  0  0
   -1.1361    0.1304   -0.8972 C   0  0  0  0  0  0  0  0  0  0  0  0
   -2.4561    0.7308   -1.4491 C   0  0  0  0  0  0  0  0  0  0  0  0
   -3.4551   -0.3092   -2.0133 C   0  0  0  0  0  0  0  0  0  0  0  0
   -4.5736   -0.7277   -1.0437 C   0  0  0  0  0  0  0  0  0  0  0  0
   -5.5114    0.4105   -0.7107 C   0  0  0  0  0  0  0  0  0  0  0  0
   -6.5223    0.7537   -1.6251 C   0  0  0  0  0  0  0  0  0  0  0  0
   -7.4087    1.7944   -1.3442 C   0  0  0  0  0  0  0  0  0  0  0  0
   -7.2947    2.5061   -0.1506 C   0  0  0  0  0  0  0  0  0  0  0  0
   -6.2904    2.1844    0.7647 C   0  0  0  0  0  0  0  0  0  0  0  0
   -5.3836    1.1396    0.4929 C   0  0  0  0  0  0  0  0  0  0  0  0
   -4.3485    0.8114    1.3845 O   0  0  0  0  0  0  0  0  0  0  0  0
   -4.1086    1.4694    2.6255 C   0  0  0  0  0  0  0  0  0  0  0  0
   -2.8636    0.8910    3.2992 C   0  0  0  0  0  0  0  0  0  0  0  0
   -1.6348    1.4391    2.7205 N   0  0  0  0  0  0  0  0  0  0  0  0
   -1.2422    1.3230    1.3421 C   0  0  0  0  0  0  0  0  0  0  0  0
   -0.8576    2.3685    0.7491 O   0  0  0  0  0  0  0  0  0  0  0  0
    0.3582   -0.5448    1.0315 C   0  0  0  0  0  0  0  0  0  0  0  0
    3.1913   -1.6074   -0.9319 N   0  0  0  0  0  0  0  0  0  0  0  0
    4.3315   -1.0045   -1.5617 C   0  0  0  0  0  0  0  0  0  0  0  0
    4.3836   -0.7636   -2.8904 N   0  0  0  0  0  0  0  0  0  0  0  0
    5.5356   -0.2226   -3.2851 N   0  0  0  0  0  0  0  0  0  0  0  0
    6.4137   -0.0255   -2.2761 C   0  0  0  0  0  0  0  0  0  0  0  0
    7.7948    0.5362   -2.4895 C   0  0  0  0  0  0  0  0  0  0  0  0
    8.9108   -0.3940   -2.0190 C   0  0  0  0  0  0  0  0  0  0  0  0
    9.3239    0.6337   -0.9729 C   0  0  0  0  0  0  0  0  0  0  0  0
    8.2203    1.5703   -1.4479 C   0  0  0  0  0  0  0  0  0  0  0  0
    5.7697   -0.5505   -0.8043 S   0  0  0  0  0  0  0  0  0  0  0  0
    1.9219   -3.5531    0.6823 H   0  0  0  0  0  0  0  0  0  0  0  0
    1.8375   -2.5008    2.1367 H   0  0  0  0  0  0  0  0  0  0  0  0
   -1.0269   -3.0985   -0.2016 H   0  0  0  0  0  0  0  0  0  0  0  0
   -0.2929   -3.7494    1.2901 H   0  0  0  0  0  0  0  0  0  0  0  0
   -2.5527   -2.8144    1.6793 H   0  0  0  0  0  0  0  0  0  0  0  0
   -1.3194   -1.9675    2.6549 H   0  0  0  0  0  0  0  0  0  0  0  0
   -0.9331   -0.8459   -1.3850 H   0  0  0  0  0  0  0  0  0  0  0  0
   -0.3021    0.7922   -1.2236 H   0  0  0  0  0  0  0  0  0  0  0  0
   -2.9384    1.4040   -0.7158 H   0  0  0  0  0  0  0  0  0  0  0  0
   -2.1761    1.3926   -2.2987 H   0  0  0  0  0  0  0  0  0  0  0  0
   -3.9352    0.1193   -2.9217 H   0  0  0  0  0  0  0  0  0  0  0  0
   -2.9206   -1.2202   -2.3582 H   0  0  0  0  0  0  0  0  0  0  0  0
   -4.1602   -1.1868   -0.1290 H   0  0  0  0  0  0  0  0  0  0  0  0
   -5.1612   -1.5376   -1.5293 H   0  0  0  0  0  0  0  0  0  0  0  0
   -6.6255    0.2101   -2.5563 H   0  0  0  0  0  0  0  0  0  0  0  0
   -8.1867    2.0478   -2.0526 H   0  0  0  0  0  0  0  0  0  0  0  0
   -7.9851    3.3112    0.0660 H   0  0  0  0  0  0  0  0  0  0  0  0
   -6.2262    2.7572    1.6797 H   0  0  0  0  0  0  0  0  0  0  0  0
   -3.9664    2.5601    2.4590 H   0  0  0  0  0  0  0  0  0  0  0  0
   -4.9848    1.3157    3.2926 H   0  0  0  0  0  0  0  0  0  0  0  0
   -2.8985    1.1689    4.3756 H   0  0  0  0  0  0  0  0  0  0  0  0
   -2.8686   -0.2147    3.2658 H   0  0  0  0  0  0  0  0  0  0  0  0
   -1.1265    2.1502    3.2933 H   0  0  0  0  0  0  0  0  0  0  0  0
    1.1242    0.1395    0.6035 H   0  0  0  0  0  0  0  0  0  0  0  0
    0.4861   -0.5241    2.1387 H   0  0  0  0  0  0  0  0  0  0  0  0
    2.4226   -1.9423   -1.5558 H   0  0  0  0  0  0  0  0  0  0  0  0
    7.9560    0.8972   -3.5302 H   0  0  0  0  0  0  0  0  0  0  0  0
    8.5576   -1.3461   -1.5638 H   0  0  0  0  0  0  0  0  0  0  0  0
    9.6928   -0.5398   -2.7964 H   0  0  0  0  0  0  0  0  0  0  0  0
   10.3415    1.0440   -1.1533 H   0  0  0  0  0  0  0  0  0  0  0  0
    9.1571    0.2716    0.0653 H   0  0  0  0  0  0  0  0  0  0  0  0
    7.4651    1.7746   -0.6577 H   0  0  0  0  0  0  0  0  0  0  0  0
    8.6271    2.4946   -1.9141 H   0  0  0  0  0  0  0  0  0  0  0  0
  1  2  2  0
  2  3  1  0
  3  4  1  0
  4  5  1  0
  5  6  1  0
  6  7  1  0
  7  8  1  0
  8  9  1  0
  9 10  1  0
 10 11  1  0
 11 12  1  0
 12 13  1  0
 13 14  2  0
 14 15  1  0
 15 16  2  0
 16 17  1  0
 17 18  2  0
 18 19  1  0
 19 20  1  0
 20 21  1  0
 21 22  1  0
 22 23  1  0
 23 24  2  0
  8 25  1  0
  2 26  1  0
 26 27  1  0
 27 28  2  0
 28 29  1  0
 29 30  2  0
 30 31  1  0
 31 32  1  0
 32 33  1  0
 33 34  1  0
 30 35  1  0
 25  4  1  0
 35 27  1  0
 23  8  1  0
 34 31  1  0
 18 13  1  0
  3 36  1  0
  3 37  1  0
  5 38  1  0
  5 39  1  0
  6 40  1  0
  6 41  1  0
  9 42  1  0
  9 43  1  0
 10 44  1  0
 10 45  1  0
 11 46  1  0
 11 47  1  0
 12 48  1  0
 12 49  1  0
 14 50  1  0
 15 51  1  0
 16 52  1  0
 17 53  1  0
 20 54  1  0
 20 55  1  0
 21 56  1  0
 21 57  1  0
 22 58  1  0
 25 59  1  0
 25 60  1  0
 26 61  1  0
 31 62  1  0
 32 63  1  0
 32 64  1  0
 33 65  1  0
 33 66  1  0
 34 67  1  0
 34 68  1  0
M  END
$$$$
