
     RDKit          3D

 66 69  0  0  0  0  0  0  0  0999 V2000
   -1.5814    2.4000   -2.1945 C   0  0  0  0  0  0  0  0  0  0  0  0
   -0.8422    2.6863   -0.8914 C   0  0  0  0  0  0  0  0  0  0  0  0
   -0.8003    1.4927   -0.0396 N   0  0  0  0  0  0  0  0  0  0  0  0
   -1.9962    0.9444    0.5969 C   0  0  0  0  0  0  0  0  0  0  0  0
   -2.9592    1.9281    1.2313 C   0  0  0  0  0  0  0  0  0  0  0  0
   -3.9650    1.1549    1.8960 O   0  0  0  0  0  0  0  0  0  0  0  0
   -4.9671    0.4681    1.1925 C   0  0  0  0  0  0  0  0  0  0  0  0
   -6.0959    1.1907    0.7815 C   0  0  0  0  0  0  0  0  0  0  0  0
   -7.1392    0.5568    0.1058 C   0  0  0  0  0  0  0  0  0  0  0  0
   -7.0676   -0.8089   -0.1663 C   0  0  0  0  0  0  0  0  0  0  0  0
   -5.9488   -1.5445    0.2282 C   0  0  0  0  0  0  0  0  0  0  0  0
   -4.8804   -0.9261    0.9039 C   0  0  0  0  0  0  0  0  0  0  0  0
   -3.6703   -1.7809    1.2503 C   0  0  0  0  0  0  0  0  0  0  0  0
   -2.8925   -2.2388   -0.0224 C   0  0  0  0  0  0  0  0  0  0  0  0
   -1.3412   -2.1195    0.0735 C   0  0  0  0  0  0  0  0  0  0  0  0
   -0.7069   -1.3565   -1.1316 C   0  0  0  0  0  0  0  0  0  0  0  0
    0.6102   -0.5639   -0.8415 C   0  0  0  0  0  0  0  0  0  0  0  0
    1.6265   -1.5105   -0.1063 C   0  0  0  0  0  0  0  0  0  0  0  0
    3.0064   -1.0912   -0.3829 N   0  0  0  0  0  0  0  0  0  0  0  0
    3.9814   -1.0106    0.6821 C   0  0  0  0  0  0  0  0  0  0  0  0
    3.7106   -1.4924    1.8157 O   0  0  0  0  0  0  0  0  0  0  0  0
    5.2935   -0.3514    0.4912 C   0  0  0  0  0  0  0  0  0  0  0  0
    6.0783   -0.7352   -0.5544 N   0  0  0  0  0  0  0  0  0  0  0  0
    7.2971   -0.1849   -0.7904 C   0  0  0  0  0  0  0  0  0  0  0  0
    7.7903    0.8041    0.0575 C   0  0  0  0  0  0  0  0  0  0  0  0
    7.0205    1.2192    1.1438 C   0  0  0  0  0  0  0  0  0  0  0  0
    5.7566    0.6541    1.3739 C   0  0  0  0  0  0  0  0  0  0  0  0
    4.9374    1.1244    2.5457 C   0  0  0  0  0  0  0  0  0  0  0  0
    3.3638   -0.7973   -1.7750 C   0  0  0  0  0  0  0  0  0  0  0  0
    2.1216   -0.8569   -2.6640 C   0  0  0  0  0  0  0  0  0  0  0  0
    1.0881   -0.0752   -2.0991 O   0  0  0  0  0  0  0  0  0  0  0  0
    0.4008    0.6974    0.0142 C   0  0  0  0  0  0  0  0  0  0  0  0
    1.3652    1.1390    0.6959 O   0  0  0  0  0  0  0  0  0  0  0  0
   -2.6383    2.1266   -1.9887 H   0  0  0  0  0  0  0  0  0  0  0  0
   -1.5695    3.3071   -2.8348 H   0  0  0  0  0  0  0  0  0  0  0  0
   -1.0887    1.5701   -2.7421 H   0  0  0  0  0  0  0  0  0  0  0  0
   -1.3405    3.5203   -0.3531 H   0  0  0  0  0  0  0  0  0  0  0  0
    0.1917    3.0230   -1.1302 H   0  0  0  0  0  0  0  0  0  0  0  0
   -2.5761    0.3917   -0.1568 H   0  0  0  0  0  0  0  0  0  0  0  0
   -1.6634    0.3052    1.4332 H   0  0  0  0  0  0  0  0  0  0  0  0
   -2.4225    2.5510    1.9784 H   0  0  0  0  0  0  0  0  0  0  0  0
   -3.4252    2.5877    0.4666 H   0  0  0  0  0  0  0  0  0  0  0  0
   -6.1657    2.2500    0.9958 H   0  0  0  0  0  0  0  0  0  0  0  0
   -8.0072    1.1248   -0.2038 H   0  0  0  0  0  0  0  0  0  0  0  0
   -7.8791   -1.2986   -0.6884 H   0  0  0  0  0  0  0  0  0  0  0  0
   -5.9091   -2.6019   -0.0028 H   0  0  0  0  0  0  0  0  0  0  0  0
   -4.0295   -2.6874    1.7854 H   0  0  0  0  0  0  0  0  0  0  0  0
   -3.0300   -1.2678    1.9897 H   0  0  0  0  0  0  0  0  0  0  0  0
   -3.2715   -1.6965   -0.9149 H   0  0  0  0  0  0  0  0  0  0  0  0
   -3.1490   -3.3026   -0.2197 H   0  0  0  0  0  0  0  0  0  0  0  0
   -0.9161   -3.1469    0.0900 H   0  0  0  0  0  0  0  0  0  0  0  0
   -1.0193   -1.6857    1.0368 H   0  0  0  0  0  0  0  0  0  0  0  0
   -0.4888   -2.1167   -1.9138 H   0  0  0  0  0  0  0  0  0  0  0  0
   -1.4230   -0.6747   -1.6292 H   0  0  0  0  0  0  0  0  0  0  0  0
    1.5138   -2.5583   -0.4608 H   0  0  0  0  0  0  0  0  0  0  0  0
    1.4136   -1.5226    0.9850 H   0  0  0  0  0  0  0  0  0  0  0  0
    7.8831   -0.5174   -1.6378 H   0  0  0  0  0  0  0  0  0  0  0  0
    8.7614    1.2455   -0.1249 H   0  0  0  0  0  0  0  0  0  0  0  0
    7.4078    1.9893    1.7991 H   0  0  0  0  0  0  0  0  0  0  0  0
    5.3276    2.0807    2.9544 H   0  0  0  0  0  0  0  0  0  0  0  0
    3.8860    1.2971    2.2349 H   0  0  0  0  0  0  0  0  0  0  0  0
    4.9654    0.3592    3.3489 H   0  0  0  0  0  0  0  0  0  0  0  0
    3.7959    0.2251   -1.8388 H   0  0  0  0  0  0  0  0  0  0  0  0
    4.1082   -1.5377   -2.1387 H   0  0  0  0  0  0  0  0  0  0  0  0
    1.7893   -1.9088   -2.8157 H   0  0  0  0  0  0  0  0  0  0  0  0
    2.3745   -0.4460   -3.6643 H   0  0  0  0  0  0  0  0  0  0  0  0
  1  2  1  0
  2  3  1  0
  3  4  1  0
  4  5  1  0
  5  6  1  0
  6  7  1  0
  7  8  2  0
  8  9  1  0
  9 10  2  0
 10 11  1  0
 11 12  2  0
 12 13  1  0
 13 14  1  0
 14 15  1  0
 15 16  1  0
 16 17  1  0
 17 18  1  0
 18 19  1  0
 19 20  1  0
 20 21  2  0
 20 22  1  0
 22 23  2  0
 23 24  1  0
 24 25  2  0
 25 26  1  0
 26 27  2  0
 27 28  1  0
 19 29  1  0
 29 30  1  0
 30 31  1  0
 17 32  1  0
 32 33  2  0
 32  3  1  0
 12  7  1  0
 31 17  1  0
 27 22  1  0
  1 34  1  0
  1 35  1  0
  1 36  1  0
  2 37  1  0
  2 38  1  0
  4 39  1  0
  4 40  1  0
  5 41  1  0
  5 42  1  0
  8 43  1  0
  9 44  1  0
 10 45  1  0
 11 46  1  0
 13 47  1  0
 13 48  1  0
 14 49  1  0
 14 50  1  0
 15 51  1  0
 15 52  1  0
 16 53  1  0
 16 54  1  0
 18 55  1  0
 18 56  1  0
 24 57  1  0
 25 58  1  0
 26 59  1  0
 28 60  1  0
 28 61  1  0
 28 62  1  0
 29 63  1  0
 29 64  1  0
 30 65  1  0
 30 66  1  0
M  END
$$$$
