
     RDKit          3D

 71 73  0  0  0  0  0  0  0  0999 V2000
   -2.6662    4.0706    2.1859 C   0  0  0  0  0  0  0  0  0  0  0  0
   -2.8902    3.3040    0.8707 C   0  0  0  0  0  0  0  0  0  0  0  0
   -1.8944    3.7971   -0.1908 C   0  0  0  0  0  0  0  0  0  0  0  0
   -2.8259    1.7560    1.0229 C   0  0  0  0  0  0  0  0  0  0  0  0
   -1.5868    1.3226    1.6886 N   0  0  0  0  0  0  0  0  0  0  0  0
   -0.3609    1.0008    1.0074 C   0  0  0  0  0  0  0  0  0  0  0  0
    0.7297    1.3562    1.5296 O   0  0  0  0  0  0  0  0  0  0  0  0
   -0.3171    0.1890   -0.2684 C   0  0  0  0  0  0  0  0  0  0  0  0
    0.1446   -1.2659   -0.0449 C   0  0  0  0  0  0  0  0  0  0  0  0
    1.5754   -1.3242    0.4310 C   0  0  0  0  0  0  0  0  0  0  0  0
    1.8334   -1.5734    1.6410 O   0  0  0  0  0  0  0  0  0  0  0  0
    2.6420   -1.0587   -0.4914 N   0  0  0  0  0  0  0  0  0  0  0  0
    4.0403   -0.9758   -0.0757 C   0  0  0  0  0  0  0  0  0  0  0  0
    4.2980    0.3322    0.6778 C   0  0  0  0  0  0  0  0  0  0  0  0
    5.6795    0.4545    1.0175 O   0  0  0  0  0  0  0  0  0  0  0  0
    6.7104    0.8058    0.1301 C   0  0  0  0  0  0  0  0  0  0  0  0
    6.4730    1.1752   -1.2098 C   0  0  0  0  0  0  0  0  0  0  0  0
    7.5409    1.5153   -2.0463 C   0  0  0  0  0  0  0  0  0  0  0  0
    8.8506    1.4944   -1.5577 C   0  0  0  0  0  0  0  0  0  0  0  0
   10.1875    1.9220   -2.6096 Cl  0  0  0  0  0  0  0  0  0  0  0  0
    9.0923    1.1338   -0.2290 C   0  0  0  0  0  0  0  0  0  0  0  0
    8.0268    0.7923    0.6093 C   0  0  0  0  0  0  0  0  0  0  0  0
   -0.7482   -1.9599    0.8954 N   0  0  0  0  0  0  0  0  0  0  0  0
   -1.6402   -3.0265    0.5288 C   0  0  0  0  0  0  0  0  0  0  0  0
   -2.2574   -3.6518    1.4316 O   0  0  0  0  0  0  0  0  0  0  0  0
   -1.8398   -3.4264   -0.8733 C   0  0  0  0  0  0  0  0  0  0  0  0
   -1.0619   -4.4958   -1.3471 C   0  0  0  0  0  0  0  0  0  0  0  0
   -1.1341   -4.8918   -2.6824 C   0  0  0  0  0  0  0  0  0  0  0  0
   -1.9818   -4.2231   -3.5627 C   0  0  0  0  0  0  0  0  0  0  0  0
   -2.7677   -3.1639   -3.1069 C   0  0  0  0  0  0  0  0  0  0  0  0
   -2.7267   -2.7562   -1.7657 C   0  0  0  0  0  0  0  0  0  0  0  0
   -3.5826   -1.6941   -1.4150 O   0  0  0  0  0  0  0  0  0  0  0  0
   -3.9561   -1.2901   -0.1015 C   0  0  0  0  0  0  0  0  0  0  0  0
   -4.9609   -0.1404   -0.1873 C   0  0  0  0  0  0  0  0  0  0  0  0
   -5.1180    0.5105    1.1253 N   0  0  0  0  0  0  0  0  0  0  0  0
   -6.3945    0.3920    1.8390 C   0  0  0  0  0  0  0  0  0  0  0  0
   -4.0320    1.2164    1.7786 C   0  0  0  0  0  0  0  0  0  0  0  0
   -4.0904    1.4030    3.0254 O   0  0  0  0  0  0  0  0  0  0  0  0
   -2.7633    5.1627    2.0063 H   0  0  0  0  0  0  0  0  0  0  0  0
   -1.6525    3.8777    2.5952 H   0  0  0  0  0  0  0  0  0  0  0  0
   -3.4268    3.7963    2.9432 H   0  0  0  0  0  0  0  0  0  0  0  0
   -3.9075    3.5656    0.5010 H   0  0  0  0  0  0  0  0  0  0  0  0
   -2.0350    4.8844   -0.3705 H   0  0  0  0  0  0  0  0  0  0  0  0
   -2.0588    3.2691   -1.1544 H   0  0  0  0  0  0  0  0  0  0  0  0
   -0.8476    3.6280    0.1382 H   0  0  0  0  0  0  0  0  0  0  0  0
   -2.8484    1.3552    0.0020 H   0  0  0  0  0  0  0  0  0  0  0  0
   -1.5052    1.5035    2.7150 H   0  0  0  0  0  0  0  0  0  0  0  0
    0.3784    0.6888   -0.9773 H   0  0  0  0  0  0  0  0  0  0  0  0
   -1.2949    0.1597   -0.7798 H   0  0  0  0  0  0  0  0  0  0  0  0
    0.1198   -1.7714   -1.0331 H   0  0  0  0  0  0  0  0  0  0  0  0
    2.4181   -0.9445   -1.5058 H   0  0  0  0  0  0  0  0  0  0  0  0
    4.2968   -1.8450    0.5679 H   0  0  0  0  0  0  0  0  0  0  0  0
    4.6871   -1.0218   -0.9766 H   0  0  0  0  0  0  0  0  0  0  0  0
    3.9587    1.2100    0.0872 H   0  0  0  0  0  0  0  0  0  0  0  0
    3.7131    0.3267    1.6211 H   0  0  0  0  0  0  0  0  0  0  0  0
    5.4726    1.2043   -1.6173 H   0  0  0  0  0  0  0  0  0  0  0  0
    7.3486    1.7961   -3.0741 H   0  0  0  0  0  0  0  0  0  0  0  0
   10.1042    1.1170    0.1553 H   0  0  0  0  0  0  0  0  0  0  0  0
    8.2244    0.5134    1.6367 H   0  0  0  0  0  0  0  0  0  0  0  0
   -0.7559   -1.6507    1.8942 H   0  0  0  0  0  0  0  0  0  0  0  0
   -0.3809   -5.0139   -0.6820 H   0  0  0  0  0  0  0  0  0  0  0  0
   -0.5247   -5.7130   -3.0371 H   0  0  0  0  0  0  0  0  0  0  0  0
   -2.0318   -4.5261   -4.6005 H   0  0  0  0  0  0  0  0  0  0  0  0
   -3.4264   -2.6581   -3.8018 H   0  0  0  0  0  0  0  0  0  0  0  0
   -3.0676   -0.9400    0.4478 H   0  0  0  0  0  0  0  0  0  0  0  0
   -4.4155   -2.1433    0.4425 H   0  0  0  0  0  0  0  0  0  0  0  0
   -4.6515    0.6063   -0.9481 H   0  0  0  0  0  0  0  0  0  0  0  0
   -5.9264   -0.5532   -0.5509 H   0  0  0  0  0  0  0  0  0  0  0  0
   -6.7917    1.4045    2.0634 H   0  0  0  0  0  0  0  0  0  0  0  0
   -6.2434   -0.1609    2.7903 H   0  0  0  0  0  0  0  0  0  0  0  0
   -7.1564   -0.1530    1.2431 H   0  0  0  0  0  0  0  0  0  0  0  0
  1  2  1  0
  2  3  1  0
  2  4  1  0
  4  5  1  0
  5  6  1  0
  6  7  2  0
  6  8  1  0
  8  9  1  0
  9 10  1  0
 10 11  2  0
 10 12  1  0
 12 13  1  0
 13 14  1  0
 14 15  1  0
 15 16  1  0
 16 17  2  0
 17 18  1  0
 18 19  2  0
 19 20  1  0
 19 21  1  0
 21 22  2  0
  9 23  1  0
 23 24  1  0
 24 25  2  0
 24 26  1  0
 26 27  2  0
 27 28  1  0
 28 29  2  0
 29 30  1  0
 30 31  2  0
 31 32  1  0
 32 33  1  0
 33 34  1  0
 34 35  1  0
 35 36  1  0
 35 37  1  0
 37 38  2  0
 37  4  1  0
 22 16  1  0
 31 26  1  0
  1 39  1  0
  1 40  1  0
  1 41  1  0
  2 42  1  0
  3 43  1  0
  3 44  1  0
  3 45  1  0
  4 46  1  0
  5 47  1  0
  8 48  1  0
  8 49  1  0
  9 50  1  0
 12 51  1  0
 13 52  1  0
 13 53  1  0
 14 54  1  0
 14 55  1  0
 17 56  1  0
 18 57  1  0
 21 58  1  0
 22 59  1  0
 23 60  1  0
 27 61  1  0
 28 62  1  0
 29 63  1  0
 30 64  1  0
 33 65  1  0
 33 66  1  0
 34 67  1  0
 34 68  1  0
 36 69  1  0
 36 70  1  0
 36 71  1  0
M  END
$$$$
