
     RDKit          3D

 71 74  0  0  0  0  0  0  0  0999 V2000
   -6.2315   -0.7016   -1.1685 C   0  0  0  0  0  0  0  0  0  0  0  0
   -4.7565   -0.2785   -1.1787 C   0  0  0  0  0  0  0  0  0  0  0  0
   -4.4784    0.5938   -2.4218 C   0  0  0  0  0  0  0  0  0  0  0  0
   -3.8349   -1.5259   -1.1097 C   0  0  0  0  0  0  0  0  0  0  0  0
   -2.4667   -1.2647   -0.4403 C   0  0  0  0  0  0  0  0  0  0  0  0
   -1.7512   -2.6162   -0.2223 C   0  0  0  0  0  0  0  0  0  0  0  0
   -0.5797   -2.4809    0.5947 O   0  0  0  0  0  0  0  0  0  0  0  0
   -0.5507   -2.6728    1.9865 C   0  0  0  0  0  0  0  0  0  0  0  0
   -1.6640   -2.3947    2.7905 C   0  0  0  0  0  0  0  0  0  0  0  0
   -1.5875   -2.5387    4.1812 C   0  0  0  0  0  0  0  0  0  0  0  0
   -0.4000   -2.9652    4.7827 C   0  0  0  0  0  0  0  0  0  0  0  0
   -0.3171   -3.1754    6.5284 Cl  0  0  0  0  0  0  0  0  0  0  0  0
    0.7099   -3.2670    3.9943 C   0  0  0  0  0  0  0  0  0  0  0  0
    0.6372   -3.1326    2.5953 C   0  0  0  0  0  0  0  0  0  0  0  0
    1.7400   -3.6749    1.7774 C   0  0  0  0  0  0  0  0  0  0  0  0
    1.6015   -4.8334    1.2895 O   0  0  0  0  0  0  0  0  0  0  0  0
    2.9657   -2.9593    1.5449 N   0  0  0  0  0  0  0  0  0  0  0  0
    3.1855   -1.5506    1.8568 C   0  0  0  0  0  0  0  0  0  0  0  0
    3.2844   -0.7548    0.5423 C   0  0  0  0  0  0  0  0  0  0  0  0
    2.6327    0.6386    0.6143 C   0  0  0  0  0  0  0  0  0  0  0  0
    1.1468    0.5608    0.2221 C   0  0  0  0  0  0  0  0  0  0  0  0
    0.3587    1.8084    0.2998 N   0  0  0  0  0  0  0  0  0  0  0  0
    0.9287    3.1426    0.4416 C   0  0  0  0  0  0  0  0  0  0  0  0
    0.3414    3.9770    1.1806 O   0  0  0  0  0  0  0  0  0  0  0  0
    2.1736    3.5566   -0.2546 C   0  0  0  0  0  0  0  0  0  0  0  0
    3.2720    3.8421    0.5137 N   0  0  0  0  0  0  0  0  0  0  0  0
    4.5338    3.8200    0.0059 C   0  0  0  0  0  0  0  0  0  0  0  0
    4.7464    3.4205   -1.3114 C   0  0  0  0  0  0  0  0  0  0  0  0
    3.6464    3.1535   -2.1420 C   0  0  0  0  0  0  0  0  0  0  0  0
    3.8260    2.6681   -3.4451 C   0  0  0  0  0  0  0  0  0  0  0  0
    2.7119    2.4169   -4.2634 C   0  0  0  0  0  0  0  0  0  0  0  0
    1.4288    2.7256   -3.8124 C   0  0  0  0  0  0  0  0  0  0  0  0
    1.2507    3.1849   -2.5125 C   0  0  0  0  0  0  0  0  0  0  0  0
    2.3441    3.3091   -1.6330 C   0  0  0  0  0  0  0  0  0  0  0  0
   -1.1103    1.6364    0.2061 C   0  0  0  0  0  0  0  0  0  0  0  0
   -1.4614    1.0081   -1.1218 C   0  0  0  0  0  0  0  0  0  0  0  0
   -1.3965    1.7185   -2.1599 O   0  0  0  0  0  0  0  0  0  0  0  0
   -1.6281   -0.4107   -1.2874 N   0  0  0  0  0  0  0  0  0  0  0  0
   -6.8849    0.2007   -1.1349 H   0  0  0  0  0  0  0  0  0  0  0  0
   -6.4745   -1.3024   -2.0710 H   0  0  0  0  0  0  0  0  0  0  0  0
   -6.4550   -1.3124   -0.2662 H   0  0  0  0  0  0  0  0  0  0  0  0
   -4.6040    0.3406   -0.2681 H   0  0  0  0  0  0  0  0  0  0  0  0
   -3.9620    1.5288   -2.1183 H   0  0  0  0  0  0  0  0  0  0  0  0
   -5.4159    0.9163   -2.9228 H   0  0  0  0  0  0  0  0  0  0  0  0
   -3.8535    0.0698   -3.1785 H   0  0  0  0  0  0  0  0  0  0  0  0
   -3.6981   -1.9736   -2.1083 H   0  0  0  0  0  0  0  0  0  0  0  0
   -4.3396   -2.2987   -0.4989 H   0  0  0  0  0  0  0  0  0  0  0  0
   -2.6442   -0.7759    0.5422 H   0  0  0  0  0  0  0  0  0  0  0  0
   -2.4348   -3.3665    0.2403 H   0  0  0  0  0  0  0  0  0  0  0  0
   -1.4319   -3.0294   -1.2015 H   0  0  0  0  0  0  0  0  0  0  0  0
   -2.5882   -2.0697    2.3596 H   0  0  0  0  0  0  0  0  0  0  0  0
   -2.4581   -2.3095    4.7883 H   0  0  0  0  0  0  0  0  0  0  0  0
    1.6100   -3.6644    4.4659 H   0  0  0  0  0  0  0  0  0  0  0  0
    3.7097   -3.4382    0.9824 H   0  0  0  0  0  0  0  0  0  0  0  0
    4.1596   -1.4610    2.3839 H   0  0  0  0  0  0  0  0  0  0  0  0
    2.3825   -1.1715    2.5328 H   0  0  0  0  0  0  0  0  0  0  0  0
    2.8312   -1.3291   -0.2980 H   0  0  0  0  0  0  0  0  0  0  0  0
    4.3575   -0.6280    0.2796 H   0  0  0  0  0  0  0  0  0  0  0  0
    3.1646    1.2528   -0.1265 H   0  0  0  0  0  0  0  0  0  0  0  0
    2.7540    1.0866    1.6270 H   0  0  0  0  0  0  0  0  0  0  0  0
    1.0606    0.1697   -0.8178 H   0  0  0  0  0  0  0  0  0  0  0  0
    0.6651   -0.1653    0.9264 H   0  0  0  0  0  0  0  0  0  0  0  0
    5.3790    4.0394    0.6513 H   0  0  0  0  0  0  0  0  0  0  0  0
    5.7495    3.3226   -1.7045 H   0  0  0  0  0  0  0  0  0  0  0  0
    4.8290    2.5003   -3.8414 H   0  0  0  0  0  0  0  0  0  0  0  0
    2.8306    1.9572   -5.2386 H   0  0  0  0  0  0  0  0  0  0  0  0
    0.5794    2.6316   -4.4781 H   0  0  0  0  0  0  0  0  0  0  0  0
    0.2581    3.4797   -2.1952 H   0  0  0  0  0  0  0  0  0  0  0  0
   -1.6440    2.6143    0.2856 H   0  0  0  0  0  0  0  0  0  0  0  0
   -1.4535    1.0205    1.0653 H   0  0  0  0  0  0  0  0  0  0  0  0
   -1.2295   -0.8192   -2.1599 H   0  0  0  0  0  0  0  0  0  0  0  0
  1  2  1  0
  2  3  1  0
  2  4  1  0
  4  5  1  0
  5  6  1  0
  6  7  1  0
  7  8  1  0
  8  9  2  0
  9 10  1  0
 10 11  2  0
 11 12  1  0
 11 13  1  0
 13 14  2  0
 14 15  1  0
 15 16  2  0
 15 17  1  0
 17 18  1  0
 18 19  1  0
 19 20  1  0
 20 21  1  0
 21 22  1  0
 22 23  1  0
 23 24  2  0
 23 25  1  0
 25 26  2  0
 26 27  1  0
 27 28  2  0
 28 29  1  0
 29 30  2  0
 30 31  1  0
 31 32  2  0
 32 33  1  0
 33 34  2  0
 22 35  1  0
 35 36  1  0
 36 37  2  0
 36 38  1  0
 38  5  1  0
 14  8  1  0
 34 25  1  0
 34 29  1  0
  1 39  1  0
  1 40  1  0
  1 41  1  0
  2 42  1  0
  3 43  1  0
  3 44  1  0
  3 45  1  0
  4 46  1  0
  4 47  1  0
  5 48  1  0
  6 49  1  0
  6 50  1  0
  9 51  1  0
 10 52  1  0
 13 53  1  0
 17 54  1  0
 18 55  1  0
 18 56  1  0
 19 57  1  0
 19 58  1  0
 20 59  1  0
 20 60  1  0
 21 61  1  0
 21 62  1  0
 27 63  1  0
 28 64  1  0
 30 65  1  0
 31 66  1  0
 32 67  1  0
 33 68  1  0
 35 69  1  0
 35 70  1  0
 38 71  1  0
M  END
$$$$
