
     RDKit          3D

 78 81  0  0  0  0  0  0  0  0999 V2000
   -6.7583   -3.2677    0.8378 C   0  0  0  0  0  0  0  0  0  0  0  0
   -5.9684   -2.1841    1.2752 O   0  0  0  0  0  0  0  0  0  0  0  0
   -4.6153   -2.3739    0.9090 C   0  0  0  0  0  0  0  0  0  0  0  0
   -3.9780   -1.0295    0.4528 C   0  0  0  0  0  0  0  0  0  0  0  0
   -2.4915   -1.2660    0.0119 C   0  0  0  0  0  0  0  0  0  0  0  0
   -1.6307   -2.0593    1.0158 C   0  0  0  0  0  0  0  0  0  0  0  0
   -0.1184   -1.9246    0.7348 C   0  0  0  0  0  0  0  0  0  0  0  0
    0.5716   -0.8404    1.5903 C   0  0  0  0  0  0  0  0  0  0  0  0
    0.9460    0.3414    0.7923 N   0  0  0  0  0  0  0  0  0  0  0  0
    2.2462    0.4374    0.1612 C   0  0  0  0  0  0  0  0  0  0  0  0
    2.7112    1.5694   -0.1498 O   0  0  0  0  0  0  0  0  0  0  0  0
    3.1011   -0.7753   -0.0907 C   0  0  0  0  0  0  0  0  0  0  0  0
    3.8488   -1.1229    1.1186 N   0  0  0  0  0  0  0  0  0  0  0  0
    4.8863   -2.4874    0.8276 S   0  0  0  0  0  6  0  0  0  0  0  0
    4.8304   -3.4014    2.0187 O   0  0  0  0  0  0  0  0  0  0  0  0
    4.4506   -3.2648   -0.3861 O   0  0  0  0  0  0  0  0  0  0  0  0
    6.5370   -1.9190    0.6041 C   0  0  0  0  0  0  0  0  0  0  0  0
    6.9747   -1.5063   -0.6613 C   0  0  0  0  0  0  0  0  0  0  0  0
    8.2709   -1.0047   -0.8288 C   0  0  0  0  0  0  0  0  0  0  0  0
    9.1329   -0.8931    0.2736 C   0  0  0  0  0  0  0  0  0  0  0  0
   10.5270   -0.3694    0.0919 C   0  0  0  0  0  0  0  0  0  0  0  0
    8.6984   -1.3254    1.5361 C   0  0  0  0  0  0  0  0  0  0  0  0
    7.4049   -1.8280    1.7010 C   0  0  0  0  0  0  0  0  0  0  0  0
    0.0657    1.5202    0.8256 C   0  0  0  0  0  0  0  0  0  0  0  0
   -0.3017    1.9965   -0.5846 C   0  0  0  0  0  0  0  0  0  0  0  0
   -1.5764    2.6306   -0.5367 O   0  0  0  0  0  0  0  0  0  0  0  0
   -2.1752    3.3514   -1.5827 C   0  0  0  0  0  0  0  0  0  0  0  0
   -1.4700    3.7158   -2.7448 C   0  0  0  0  0  0  0  0  0  0  0  0
   -2.0827    4.5086   -3.7208 C   0  0  0  0  0  0  0  0  0  0  0  0
   -3.3965    4.9460   -3.5467 C   0  0  0  0  0  0  0  0  0  0  0  0
   -4.1179    4.5618   -2.4134 C   0  0  0  0  0  0  0  0  0  0  0  0
   -3.5218    3.7418   -1.4427 C   0  0  0  0  0  0  0  0  0  0  0  0
   -4.3276    3.2304   -0.3166 C   0  0  0  0  0  0  0  0  0  0  0  0
   -4.9828    4.0410    0.3935 O   0  0  0  0  0  0  0  0  0  0  0  0
   -4.4100    1.8138   -0.0604 N   0  0  0  0  0  0  0  0  0  0  0  0
   -4.7823    1.3229    1.2736 C   0  0  0  0  0  0  0  0  0  0  0  0
   -4.0266    0.0273    1.6167 C   0  0  0  0  0  0  0  0  0  0  0  0
   -4.3880    0.8866   -1.2021 C   0  0  0  0  0  0  0  0  0  0  0  0
   -4.7823   -0.5320   -0.7857 C   0  0  0  0  0  0  0  0  0  0  0  0
   -6.3136   -4.2422    1.1427 H   0  0  0  0  0  0  0  0  0  0  0  0
   -6.8860   -3.2253   -0.2645 H   0  0  0  0  0  0  0  0  0  0  0  0
   -7.7586   -3.2009    1.3088 H   0  0  0  0  0  0  0  0  0  0  0  0
   -4.4728   -3.1154    0.0853 H   0  0  0  0  0  0  0  0  0  0  0  0
   -4.0863   -2.7675    1.8020 H   0  0  0  0  0  0  0  0  0  0  0  0
   -2.4726   -1.8218   -0.9525 H   0  0  0  0  0  0  0  0  0  0  0  0
   -2.0106   -0.2848   -0.1783 H   0  0  0  0  0  0  0  0  0  0  0  0
   -1.8980   -3.1341    0.9184 H   0  0  0  0  0  0  0  0  0  0  0  0
   -1.8669   -1.7682    2.0605 H   0  0  0  0  0  0  0  0  0  0  0  0
    0.0647   -1.7552   -0.3489 H   0  0  0  0  0  0  0  0  0  0  0  0
    0.3581   -2.8998    0.9765 H   0  0  0  0  0  0  0  0  0  0  0  0
   -0.0612   -0.5337    2.4491 H   0  0  0  0  0  0  0  0  0  0  0  0
    1.4703   -1.2708    2.0744 H   0  0  0  0  0  0  0  0  0  0  0  0
    2.4526   -1.6226   -0.3896 H   0  0  0  0  0  0  0  0  0  0  0  0
    3.7998   -0.5675   -0.9301 H   0  0  0  0  0  0  0  0  0  0  0  0
    4.4681   -0.3169    1.3621 H   0  0  0  0  0  0  0  0  0  0  0  0
    6.3127   -1.5647   -1.5161 H   0  0  0  0  0  0  0  0  0  0  0  0
    8.5962   -0.6937   -1.8147 H   0  0  0  0  0  0  0  0  0  0  0  0
   10.9147    0.0671    1.0382 H   0  0  0  0  0  0  0  0  0  0  0  0
   10.5471    0.4234   -0.6865 H   0  0  0  0  0  0  0  0  0  0  0  0
   11.1942   -1.1983   -0.2219 H   0  0  0  0  0  0  0  0  0  0  0  0
    9.3568   -1.2625    2.3940 H   0  0  0  0  0  0  0  0  0  0  0  0
    7.0790   -2.1362    2.6843 H   0  0  0  0  0  0  0  0  0  0  0  0
    0.5672    2.3460    1.3780 H   0  0  0  0  0  0  0  0  0  0  0  0
   -0.8696    1.2868    1.3774 H   0  0  0  0  0  0  0  0  0  0  0  0
    0.4685    2.7185   -0.9263 H   0  0  0  0  0  0  0  0  0  0  0  0
   -0.3481    1.1407   -1.2921 H   0  0  0  0  0  0  0  0  0  0  0  0
   -0.4480    3.4002   -2.9033 H   0  0  0  0  0  0  0  0  0  0  0  0
   -1.5310    4.7912   -4.6094 H   0  0  0  0  0  0  0  0  0  0  0  0
   -3.8619    5.5693   -4.3005 H   0  0  0  0  0  0  0  0  0  0  0  0
   -5.1491    4.8762   -2.3113 H   0  0  0  0  0  0  0  0  0  0  0  0
   -4.5480    2.0856    2.0493 H   0  0  0  0  0  0  0  0  0  0  0  0
   -5.8782    1.1342    1.2991 H   0  0  0  0  0  0  0  0  0  0  0  0
   -4.4965   -0.4042    2.5266 H   0  0  0  0  0  0  0  0  0  0  0  0
   -3.0010    0.3165    1.9319 H   0  0  0  0  0  0  0  0  0  0  0  0
   -3.3771    0.8688   -1.6569 H   0  0  0  0  0  0  0  0  0  0  0  0
   -5.1021    1.2385   -1.9773 H   0  0  0  0  0  0  0  0  0  0  0  0
   -5.8721   -0.5233   -0.5610 H   0  0  0  0  0  0  0  0  0  0  0  0
   -4.6418   -1.2212   -1.6482 H   0  0  0  0  0  0  0  0  0  0  0  0
  1  2  1  0
  2  3  1  0
  3  4  1  0
  4  5  1  0
  5  6  1  0
  6  7  1  0
  7  8  1  0
  8  9  1  0
  9 10  1  0
 10 11  2  0
 10 12  1  0
 12 13  1  0
 13 14  1  0
 14 15  2  0
 14 16  2  0
 14 17  1  0
 17 18  2  0
 18 19  1  0
 19 20  2  0
 20 21  1  0
 20 22  1  0
 22 23  2  0
  9 24  1  0
 24 25  1  0
 25 26  1  0
 26 27  1  0
 27 28  2  0
 28 29  1  0
 29 30  2  0
 30 31  1  0
 31 32  2  0
 32 33  1  0
 33 34  2  0
 33 35  1  0
 35 36  1  0
 36 37  1  0
 35 38  1  0
 38 39  1  0
 37  4  1  0
 39  4  1  0
 23 17  1  0
 32 27  1  0
  1 40  1  0
  1 41  1  0
  1 42  1  0
  3 43  1  0
  3 44  1  0
  5 45  1  0
  5 46  1  0
  6 47  1  0
  6 48  1  0
  7 49  1  0
  7 50  1  0
  8 51  1  0
  8 52  1  0
 12 53  1  0
 12 54  1  0
 13 55  1  0
 18 56  1  0
 19 57  1  0
 21 58  1  0
 21 59  1  0
 21 60  1  0
 22 61  1  0
 23 62  1  0
 24 63  1  0
 24 64  1  0
 25 65  1  0
 25 66  1  0
 28 67  1  0
 29 68  1  0
 30 69  1  0
 31 70  1  0
 36 71  1  0
 36 72  1  0
 37 73  1  0
 37 74  1  0
 38 75  1  0
 38 76  1  0
 39 77  1  0
 39 78  1  0
M  END
$$$$
