
     RDKit          3D

 59 61  0  0  0  0  0  0  0  0999 V2000
   -3.0343   -0.6161    1.0047 C   0  0  0  0  0  0  0  0  0  0  0  0
   -3.7157   -0.6541   -0.2933 N   0  0  0  0  0  0  0  0  0  0  0  0
   -5.1856   -0.5917   -0.3504 C   0  0  0  0  0  0  0  0  0  0  0  0
   -5.6795    0.7903   -0.8247 C   0  0  0  0  0  0  0  0  0  0  0  0
   -7.0608    0.7463   -1.0846 O   0  0  0  0  0  0  0  0  0  0  0  0
   -5.3569    1.8987    0.1944 C   0  0  0  0  0  0  0  0  0  0  0  0
   -5.8915    3.1227   -0.2269 O   0  0  0  0  0  0  0  0  0  0  0  0
   -2.9468   -0.7711   -1.5094 C   0  0  0  0  0  0  0  0  0  0  0  0
   -3.5140   -0.6683   -2.6299 O   0  0  0  0  0  0  0  0  0  0  0  0
   -1.4956   -1.0145   -1.4857 C   0  0  0  0  0  0  0  0  0  0  0  0
   -0.9994   -2.2792   -1.1551 C   0  0  0  0  0  0  0  0  0  0  0  0
    0.3715   -2.5361   -1.2154 C   0  0  0  0  0  0  0  0  0  0  0  0
    1.2724   -1.5262   -1.6048 C   0  0  0  0  0  0  0  0  0  0  0  0
    0.7714   -0.2431   -1.9235 C   0  0  0  0  0  0  0  0  0  0  0  0
   -0.6107    0.0000   -1.8632 C   0  0  0  0  0  0  0  0  0  0  0  0
    1.6977    0.8854   -2.3228 C   0  0  0  0  0  0  0  0  0  0  0  0
    2.0004    1.8331   -1.1819 C   0  0  0  0  0  0  0  0  0  0  0  0
    2.2080    3.1957   -1.4499 C   0  0  0  0  0  0  0  0  0  0  0  0
    2.5907    4.0677   -0.4273 C   0  0  0  0  0  0  0  0  0  0  0  0
    2.7952    3.5856    0.8697 C   0  0  0  0  0  0  0  0  0  0  0  0
    2.6201    2.2216    1.1579 C   0  0  0  0  0  0  0  0  0  0  0  0
    2.2007    1.3598    0.1300 C   0  0  0  0  0  0  0  0  0  0  0  0
    2.8384    1.7181    2.5383 C   0  0  0  0  0  0  0  0  0  0  0  0
    2.6263    2.4946    3.5096 O   0  0  0  0  0  0  0  0  0  0  0  0
    3.2558    0.3677    2.8144 N   0  0  0  0  0  0  0  0  0  0  0  0
    4.1780   -0.3866    1.9616 C   0  0  0  0  0  0  0  0  0  0  0  0
    3.5766   -1.7480    1.6092 C   0  0  0  0  0  0  0  0  0  0  0  0
    4.2928   -2.3035    0.5238 O   0  0  0  0  0  0  0  0  0  0  0  0
    3.5648   -3.3578   -0.0847 C   0  0  0  0  0  0  0  0  0  0  0  0
    3.3111   -3.0216   -1.5543 C   0  0  0  0  0  0  0  0  0  0  0  0
    2.6580   -1.7584   -1.6989 O   0  0  0  0  0  0  0  0  0  0  0  0
   -2.2653    0.1841    1.0023 H   0  0  0  0  0  0  0  0  0  0  0  0
   -3.7444   -0.4042    1.8316 H   0  0  0  0  0  0  0  0  0  0  0  0
   -2.5465   -1.5925    1.2037 H   0  0  0  0  0  0  0  0  0  0  0  0
   -5.6272   -0.8201    0.6431 H   0  0  0  0  0  0  0  0  0  0  0  0
   -5.5567   -1.3791   -1.0408 H   0  0  0  0  0  0  0  0  0  0  0  0
   -5.1704    1.0491   -1.7771 H   0  0  0  0  0  0  0  0  0  0  0  0
   -7.5220    0.5506   -0.2279 H   0  0  0  0  0  0  0  0  0  0  0  0
   -4.2584    1.9916    0.3244 H   0  0  0  0  0  0  0  0  0  0  0  0
   -5.7986    1.6458    1.1811 H   0  0  0  0  0  0  0  0  0  0  0  0
   -5.3167    3.4398   -0.9700 H   0  0  0  0  0  0  0  0  0  0  0  0
   -1.6771   -3.0751   -0.8725 H   0  0  0  0  0  0  0  0  0  0  0  0
    0.7148   -3.5305   -0.9697 H   0  0  0  0  0  0  0  0  0  0  0  0
   -0.9987    0.9797   -2.1186 H   0  0  0  0  0  0  0  0  0  0  0  0
    2.6574    0.4910   -2.7158 H   0  0  0  0  0  0  0  0  0  0  0  0
    1.2290    1.4421   -3.1635 H   0  0  0  0  0  0  0  0  0  0  0  0
    2.0792    3.5823   -2.4523 H   0  0  0  0  0  0  0  0  0  0  0  0
    2.7422    5.1177   -0.6424 H   0  0  0  0  0  0  0  0  0  0  0  0
    3.1063    4.2759    1.6435 H   0  0  0  0  0  0  0  0  0  0  0  0
    2.0222    0.3216    0.3503 H   0  0  0  0  0  0  0  0  0  0  0  0
    3.0702   -0.0145    3.7717 H   0  0  0  0  0  0  0  0  0  0  0  0
    4.4140    0.1752    1.0326 H   0  0  0  0  0  0  0  0  0  0  0  0
    5.1374   -0.5339    2.5041 H   0  0  0  0  0  0  0  0  0  0  0  0
    3.6518   -2.4205    2.4913 H   0  0  0  0  0  0  0  0  0  0  0  0
    2.4993   -1.6072    1.3639 H   0  0  0  0  0  0  0  0  0  0  0  0
    4.1893   -4.2747   -0.0462 H   0  0  0  0  0  0  0  0  0  0  0  0
    2.6057   -3.6196    0.4180 H   0  0  0  0  0  0  0  0  0  0  0  0
    2.7323   -3.8279   -2.0584 H   0  0  0  0  0  0  0  0  0  0  0  0
    4.2915   -2.9582   -2.0701 H   0  0  0  0  0  0  0  0  0  0  0  0
  1  2  1  0
  2  3  1  0
  3  4  1  0
  4  5  1  0
  4  6  1  0
  6  7  1  0
  2  8  1  0
  8  9  2  0
  8 10  1  0
 10 11  2  0
 11 12  1  0
 12 13  2  0
 13 14  1  0
 14 15  2  0
 14 16  1  0
 16 17  1  0
 17 18  2  0
 18 19  1  0
 19 20  2  0
 20 21  1  0
 21 22  2  0
 21 23  1  0
 23 24  2  0
 23 25  1  0
 25 26  1  0
 26 27  1  0
 27 28  1  0
 28 29  1  0
 29 30  1  0
 30 31  1  0
 15 10  1  0
 22 17  1  0
 31 13  1  0
  1 32  1  0
  1 33  1  0
  1 34  1  0
  3 35  1  0
  3 36  1  0
  4 37  1  0
  5 38  1  0
  6 39  1  0
  6 40  1  0
  7 41  1  0
 11 42  1  0
 12 43  1  0
 15 44  1  0
 16 45  1  0
 16 46  1  0
 18 47  1  0
 19 48  1  0
 20 49  1  0
 22 50  1  0
 25 51  1  0
 26 52  1  0
 26 53  1  0
 27 54  1  0
 27 55  1  0
 29 56  1  0
 29 57  1  0
 30 58  1  0
 30 59  1  0
M  END
$$$$
