
     RDKit          3D

 63 66  0  0  0  0  0  0  0  0999 V2000
    7.5641    0.8241   -3.8331 C   0  0  0  0  0  0  0  0  0  0  0  0
    6.9357    0.2726   -2.6419 N   0  0  0  0  0  0  0  0  0  0  0  0
    7.4873   -0.6209   -1.7979 C   0  0  0  0  0  0  0  0  0  0  0  0
    6.5912   -0.8816   -0.7794 C   0  0  0  0  0  0  0  0  0  0  0  0
    5.5028   -0.0784   -1.0789 C   0  0  0  0  0  0  0  0  0  0  0  0
    4.2613   -0.0122   -0.3734 N   0  0  0  0  0  0  0  0  0  0  0  0
    3.9883   -0.6348    0.8905 C   0  0  0  0  0  0  0  0  0  0  0  0
    4.9242   -0.9315    1.6798 O   0  0  0  0  0  0  0  0  0  0  0  0
    2.5652   -0.8406    1.3063 C   0  0  0  0  0  0  0  0  0  0  0  0
    1.9667    0.4716    1.6421 N   0  0  0  0  0  0  0  0  0  0  0  0
    2.0698    0.8378    3.0734 C   0  0  0  0  0  0  0  0  0  0  0  0
    0.7221    1.2485    3.6766 C   0  0  0  0  0  0  0  0  0  0  0  0
   -0.2729    0.3067    3.3402 O   0  0  0  0  0  0  0  0  0  0  0  0
   -0.5836    0.3024    1.9499 C   0  0  0  0  0  0  0  0  0  0  0  0
   -1.7580    1.3142    1.7058 C   0  0  0  0  0  0  0  0  0  0  0  0
   -2.2195    1.4080    0.2315 C   0  0  0  0  0  0  0  0  0  0  0  0
   -3.5486    2.1791    0.0683 C   0  0  0  0  0  0  0  0  0  0  0  0
   -4.7846    1.2680   -0.0302 C   0  0  0  0  0  0  0  0  0  0  0  0
   -4.8028    0.5113   -1.3367 C   0  0  0  0  0  0  0  0  0  0  0  0
   -5.1699    1.1829   -2.5173 C   0  0  0  0  0  0  0  0  0  0  0  0
   -5.0612    0.5461   -3.7534 C   0  0  0  0  0  0  0  0  0  0  0  0
   -4.5734   -0.7624   -3.8235 C   0  0  0  0  0  0  0  0  0  0  0  0
   -4.2426   -1.4561   -2.6565 C   0  0  0  0  0  0  0  0  0  0  0  0
   -4.3798   -0.8330   -1.4064 C   0  0  0  0  0  0  0  0  0  0  0  0
   -4.0969   -1.5047   -0.2141 O   0  0  0  0  0  0  0  0  0  0  0  0
   -3.2887   -2.6714   -0.1053 C   0  0  0  0  0  0  0  0  0  0  0  0
   -2.8774   -2.8519    1.3509 C   0  0  0  0  0  0  0  0  0  0  0  0
   -2.3658   -1.5884    1.8875 N   0  0  0  0  0  0  0  0  0  0  0  0
   -1.0166   -1.1312    1.6311 C   0  0  0  0  0  0  0  0  0  0  0  0
   -0.1385   -1.9859    1.3090 O   0  0  0  0  0  0  0  0  0  0  0  0
    0.6387    0.7161    1.0363 C   0  0  0  0  0  0  0  0  0  0  0  0
    5.7327    0.6172   -2.2143 N   0  0  0  0  0  0  0  0  0  0  0  0
    8.0712    0.0122   -4.3991 H   0  0  0  0  0  0  0  0  0  0  0  0
    8.3076    1.5918   -3.5370 H   0  0  0  0  0  0  0  0  0  0  0  0
    6.8020    1.2960   -4.4860 H   0  0  0  0  0  0  0  0  0  0  0  0
    8.4658   -1.0653   -1.9248 H   0  0  0  0  0  0  0  0  0  0  0  0
    6.7174   -1.5760    0.0395 H   0  0  0  0  0  0  0  0  0  0  0  0
    3.4760    0.4962   -0.8426 H   0  0  0  0  0  0  0  0  0  0  0  0
    2.0616   -1.3183    0.4388 H   0  0  0  0  0  0  0  0  0  0  0  0
    2.4926   -1.5680    2.1483 H   0  0  0  0  0  0  0  0  0  0  0  0
    2.7706    1.6957    3.1688 H   0  0  0  0  0  0  0  0  0  0  0  0
    2.5023    0.0162    3.6880 H   0  0  0  0  0  0  0  0  0  0  0  0
    0.8181    1.2798    4.7841 H   0  0  0  0  0  0  0  0  0  0  0  0
    0.4414    2.2746    3.3511 H   0  0  0  0  0  0  0  0  0  0  0  0
   -2.6215    1.0928    2.3664 H   0  0  0  0  0  0  0  0  0  0  0  0
   -1.4260    2.3287    2.0179 H   0  0  0  0  0  0  0  0  0  0  0  0
   -2.2904    0.4006   -0.2156 H   0  0  0  0  0  0  0  0  0  0  0  0
   -1.4416    1.9476   -0.3484 H   0  0  0  0  0  0  0  0  0  0  0  0
   -3.6867    2.8889    0.9122 H   0  0  0  0  0  0  0  0  0  0  0  0
   -3.4957    2.8040   -0.8551 H   0  0  0  0  0  0  0  0  0  0  0  0
   -5.6912    1.9024    0.0289 H   0  0  0  0  0  0  0  0  0  0  0  0
   -4.8154    0.5842    0.8483 H   0  0  0  0  0  0  0  0  0  0  0  0
   -5.5061    2.2116   -2.4837 H   0  0  0  0  0  0  0  0  0  0  0  0
   -5.3321    1.0757   -4.6550 H   0  0  0  0  0  0  0  0  0  0  0  0
   -4.4510   -1.2429   -4.7818 H   0  0  0  0  0  0  0  0  0  0  0  0
   -3.8960   -2.4771   -2.7332 H   0  0  0  0  0  0  0  0  0  0  0  0
   -2.3707   -2.5472   -0.7273 H   0  0  0  0  0  0  0  0  0  0  0  0
   -3.8568   -3.5601   -0.4519 H   0  0  0  0  0  0  0  0  0  0  0  0
   -2.1331   -3.6693    1.4624 H   0  0  0  0  0  0  0  0  0  0  0  0
   -3.7776   -3.1457    1.9322 H   0  0  0  0  0  0  0  0  0  0  0  0
   -3.0572   -1.0134    2.4470 H   0  0  0  0  0  0  0  0  0  0  0  0
    0.5549    0.2535    0.0248 H   0  0  0  0  0  0  0  0  0  0  0  0
    0.5986    1.8089    0.8378 H   0  0  0  0  0  0  0  0  0  0  0  0
  1  2  1  0
  2  3  1  0
  3  4  2  0
  4  5  1  0
  5  6  1  0
  6  7  1  0
  7  8  2  0
  7  9  1  0
  9 10  1  0
 10 11  1  0
 11 12  1  0
 12 13  1  0
 13 14  1  0
 14 15  1  0
 15 16  1  0
 16 17  1  0
 17 18  1  0
 18 19  1  0
 19 20  2  0
 20 21  1  0
 21 22  2  0
 22 23  1  0
 23 24  2  0
 24 25  1  0
 25 26  1  0
 26 27  1  0
 27 28  1  0
 28 29  1  0
 29 30  2  0
 14 31  1  0
  5 32  2  0
 32  2  1  0
 31 10  1  0
 29 14  1  0
 24 19  1  0
  1 33  1  0
  1 34  1  0
  1 35  1  0
  3 36  1  0
  4 37  1  0
  6 38  1  0
  9 39  1  0
  9 40  1  0
 11 41  1  0
 11 42  1  0
 12 43  1  0
 12 44  1  0
 15 45  1  0
 15 46  1  0
 16 47  1  0
 16 48  1  0
 17 49  1  0
 17 50  1  0
 18 51  1  0
 18 52  1  0
 20 53  1  0
 21 54  1  0
 22 55  1  0
 23 56  1  0
 26 57  1  0
 26 58  1  0
 27 59  1  0
 27 60  1  0
 28 61  1  0
 31 62  1  0
 31 63  1  0
M  END
$$$$
