
     RDKit          3D

 71 75  0  0  0  0  0  0  0  0999 V2000
   -5.6472   -4.0677    1.6774 C   0  0  0  0  0  0  0  0  0  0  0  0
   -4.6106   -3.1123    1.6973 O   0  0  0  0  0  0  0  0  0  0  0  0
   -4.3116   -2.7128    0.3720 C   0  0  0  0  0  0  0  0  0  0  0  0
   -3.1359   -1.6896    0.3585 C   0  0  0  0  0  0  0  0  0  0  0  0
   -1.8542   -2.4147    0.9689 C   0  0  0  0  0  0  0  0  0  0  0  0
   -0.5249   -2.4330    0.1842 C   0  0  0  0  0  0  0  0  0  0  0  0
    0.2116   -1.0855    0.2301 C   0  0  0  0  0  0  0  0  0  0  0  0
    1.5255   -1.1182   -0.5728 C   0  0  0  0  0  0  0  0  0  0  0  0
    1.7409    0.1287   -1.3388 N   0  0  0  0  0  0  0  0  0  0  0  0
    2.9341    0.9198   -1.1565 C   0  0  0  0  0  0  0  0  0  0  0  0
    2.8922    2.1627   -1.3601 O   0  0  0  0  0  0  0  0  0  0  0  0
    4.2203    0.3206   -0.7371 C   0  0  0  0  0  0  0  0  0  0  0  0
    5.2225    1.0021   -0.0500 C   0  0  0  0  0  0  0  0  0  0  0  0
    6.2112    0.0673    0.1592 C   0  0  0  0  0  0  0  0  0  0  0  0
    7.4293    0.1722    0.8261 C   0  0  0  0  0  0  0  0  0  0  0  0
    8.2284   -0.9847    0.9103 C   0  0  0  0  0  0  0  0  0  0  0  0
    7.7978   -2.2020    0.3328 C   0  0  0  0  0  0  0  0  0  0  0  0
    6.5626   -2.2735   -0.3371 C   0  0  0  0  0  0  0  0  0  0  0  0
    5.7937   -1.1106   -0.4087 C   0  0  0  0  0  0  0  0  0  0  0  0
    4.5865   -0.9634   -0.9776 N   0  0  0  0  0  0  0  0  0  0  0  0
    0.7832    0.4848   -2.4057 C   0  0  0  0  0  0  0  0  0  0  0  0
    0.0430    1.8072   -2.1305 C   0  0  0  0  0  0  0  0  0  0  0  0
   -0.1409    2.0170   -0.7374 O   0  0  0  0  0  0  0  0  0  0  0  0
   -0.6660    3.2066   -0.2264 C   0  0  0  0  0  0  0  0  0  0  0  0
    0.2087    4.1263    0.3600 C   0  0  0  0  0  0  0  0  0  0  0  0
   -0.2679    5.3415    0.8632 C   0  0  0  0  0  0  0  0  0  0  0  0
   -1.6267    5.6418    0.7878 C   0  0  0  0  0  0  0  0  0  0  0  0
   -2.5101    4.7311    0.2009 C   0  0  0  0  0  0  0  0  0  0  0  0
   -2.0458    3.5008   -0.2982 C   0  0  0  0  0  0  0  0  0  0  0  0
   -3.0173    2.5480   -0.8758 C   0  0  0  0  0  0  0  0  0  0  0  0
   -3.9065    2.9823   -1.6548 O   0  0  0  0  0  0  0  0  0  0  0  0
   -3.0405    1.1637   -0.4779 N   0  0  0  0  0  0  0  0  0  0  0  0
   -3.6009    0.1666   -1.4023 C   0  0  0  0  0  0  0  0  0  0  0  0
   -2.9755   -1.2071   -1.1373 C   0  0  0  0  0  0  0  0  0  0  0  0
   -2.8701    0.8272    0.9449 C   0  0  0  0  0  0  0  0  0  0  0  0
   -3.5630   -0.4967    1.2860 C   0  0  0  0  0  0  0  0  0  0  0  0
   -5.3303   -4.9942    1.1437 H   0  0  0  0  0  0  0  0  0  0  0  0
   -5.8868   -4.3551    2.7280 H   0  0  0  0  0  0  0  0  0  0  0  0
   -6.5752   -3.6472    1.2217 H   0  0  0  0  0  0  0  0  0  0  0  0
   -5.2111   -2.2462   -0.0959 H   0  0  0  0  0  0  0  0  0  0  0  0
   -4.0229   -3.5981   -0.2458 H   0  0  0  0  0  0  0  0  0  0  0  0
   -2.0923   -3.4834    1.1578 H   0  0  0  0  0  0  0  0  0  0  0  0
   -1.6277   -2.0251    1.9836 H   0  0  0  0  0  0  0  0  0  0  0  0
    0.1429   -3.1875    0.6605 H   0  0  0  0  0  0  0  0  0  0  0  0
   -0.6883   -2.7861   -0.8563 H   0  0  0  0  0  0  0  0  0  0  0  0
    0.4337   -0.8246    1.2890 H   0  0  0  0  0  0  0  0  0  0  0  0
   -0.4468   -0.2998   -0.1545 H   0  0  0  0  0  0  0  0  0  0  0  0
    2.3421   -1.2822    0.1684 H   0  0  0  0  0  0  0  0  0  0  0  0
    1.5499   -1.9808   -1.2809 H   0  0  0  0  0  0  0  0  0  0  0  0
    5.2163    2.0379    0.2760 H   0  0  0  0  0  0  0  0  0  0  0  0
    7.7495    1.1060    1.2730 H   0  0  0  0  0  0  0  0  0  0  0  0
    9.1741   -0.9459    1.4307 H   0  0  0  0  0  0  0  0  0  0  0  0
    8.4159   -3.0859    0.4209 H   0  0  0  0  0  0  0  0  0  0  0  0
    6.2153   -3.2069   -0.7711 H   0  0  0  0  0  0  0  0  0  0  0  0
    4.0524   -1.6886   -1.5094 H   0  0  0  0  0  0  0  0  0  0  0  0
    1.3233    0.5618   -3.3761 H   0  0  0  0  0  0  0  0  0  0  0  0
    0.0328   -0.3248   -2.5341 H   0  0  0  0  0  0  0  0  0  0  0  0
   -0.9443    1.7846   -2.6425 H   0  0  0  0  0  0  0  0  0  0  0  0
    0.6235    2.6531   -2.5562 H   0  0  0  0  0  0  0  0  0  0  0  0
    1.2655    3.9037    0.4116 H   0  0  0  0  0  0  0  0  0  0  0  0
    0.4165    6.0464    1.3197 H   0  0  0  0  0  0  0  0  0  0  0  0
   -1.9993    6.5808    1.1823 H   0  0  0  0  0  0  0  0  0  0  0  0
   -3.5626    4.9734    0.1646 H   0  0  0  0  0  0  0  0  0  0  0  0
   -4.7032    0.1155   -1.2763 H   0  0  0  0  0  0  0  0  0  0  0  0
   -3.3910    0.4602   -2.4533 H   0  0  0  0  0  0  0  0  0  0  0  0
   -3.4237   -1.9364   -1.8476 H   0  0  0  0  0  0  0  0  0  0  0  0
   -1.9352   -1.1234   -1.4700 H   0  0  0  0  0  0  0  0  0  0  0  0
   -1.7948    0.7792    1.2092 H   0  0  0  0  0  0  0  0  0  0  0  0
   -3.3281    1.6243    1.5752 H   0  0  0  0  0  0  0  0  0  0  0  0
   -4.6586   -0.3162    1.1872 H   0  0  0  0  0  0  0  0  0  0  0  0
   -3.4073   -0.7348    2.3580 H   0  0  0  0  0  0  0  0  0  0  0  0
  1  2  1  0
  2  3  1  0
  3  4  1  0
  4  5  1  0
  5  6  1  0
  6  7  1  0
  7  8  1  0
  8  9  1  0
  9 10  1  0
 10 11  2  0
 10 12  1  0
 12 13  2  0
 13 14  1  0
 14 15  2  0
 15 16  1  0
 16 17  2  0
 17 18  1  0
 18 19  2  0
 19 20  1  0
  9 21  1  0
 21 22  1  0
 22 23  1  0
 23 24  1  0
 24 25  2  0
 25 26  1  0
 26 27  2  0
 27 28  1  0
 28 29  2  0
 29 30  1  0
 30 31  2  0
 30 32  1  0
 32 33  1  0
 33 34  1  0
 32 35  1  0
 35 36  1  0
 34  4  1  0
 36  4  1  0
 20 12  1  0
 29 24  1  0
 19 14  1  0
  1 37  1  0
  1 38  1  0
  1 39  1  0
  3 40  1  0
  3 41  1  0
  5 42  1  0
  5 43  1  0
  6 44  1  0
  6 45  1  0
  7 46  1  0
  7 47  1  0
  8 48  1  0
  8 49  1  0
 13 50  1  0
 15 51  1  0
 16 52  1  0
 17 53  1  0
 18 54  1  0
 20 55  1  0
 21 56  1  0
 21 57  1  0
 22 58  1  0
 22 59  1  0
 25 60  1  0
 26 61  1  0
 27 62  1  0
 28 63  1  0
 33 64  1  0
 33 65  1  0
 34 66  1  0
 34 67  1  0
 35 68  1  0
 35 69  1  0
 36 70  1  0
 36 71  1  0
M  END
$$$$
