
     RDKit          3D

 74 77  0  0  0  0  0  0  0  0999 V2000
   -0.3394   -4.4425   -2.6020 C   0  0  0  0  0  0  0  0  0  0  0  0
   -0.3945   -3.0565   -2.1276 N   0  0  0  0  0  0  0  0  0  0  0  0
   -1.6877   -2.4683   -1.7392 C   0  0  0  0  0  0  0  0  0  0  0  0
   -1.8373   -2.3630   -0.2474 C   0  0  0  0  0  0  0  0  0  0  0  0
   -1.0043   -2.9242    0.5148 O   0  0  0  0  0  0  0  0  0  0  0  0
   -3.0147   -1.7597    0.3129 N   0  0  0  0  0  0  0  0  0  0  0  0
   -4.2041   -2.6064    0.4424 C   0  0  0  0  0  0  0  0  0  0  0  0
   -3.0312   -0.3644    0.8077 C   0  0  0  0  0  0  0  0  0  0  0  0
   -3.1058    0.6437   -0.3607 C   0  0  0  0  0  0  0  0  0  0  0  0
   -4.4184    0.5370   -1.1007 C   0  0  0  0  0  0  0  0  0  0  0  0
   -4.4706    0.0235   -2.4088 C   0  0  0  0  0  0  0  0  0  0  0  0
   -5.6958   -0.1038   -3.0686 C   0  0  0  0  0  0  0  0  0  0  0  0
   -6.8751    0.2939   -2.4399 C   0  0  0  0  0  0  0  0  0  0  0  0
   -6.8326    0.8242   -1.1491 C   0  0  0  0  0  0  0  0  0  0  0  0
   -5.6104    0.9487   -0.4811 C   0  0  0  0  0  0  0  0  0  0  0  0
   -1.8809   -0.0690    1.8107 C   0  0  0  0  0  0  0  0  0  0  0  0
   -0.8994    0.8240    1.2702 O   0  0  0  0  0  0  0  0  0  0  0  0
   -0.0013    1.5763    2.0564 C   0  0  0  0  0  0  0  0  0  0  0  0
    0.1664    1.3299    3.4373 C   0  0  0  0  0  0  0  0  0  0  0  0
    1.0726    2.0838    4.1883 C   0  0  0  0  0  0  0  0  0  0  0  0
    1.8070    3.1026    3.5829 C   0  0  0  0  0  0  0  0  0  0  0  0
    1.6431    3.3683    2.2209 C   0  0  0  0  0  0  0  0  0  0  0  0
    0.7540    2.6028    1.4517 C   0  0  0  0  0  0  0  0  0  0  0  0
    0.6928    2.8322    0.0005 C   0  0  0  0  0  0  0  0  0  0  0  0
    0.0940    3.8539   -0.4365 O   0  0  0  0  0  0  0  0  0  0  0  0
    1.3503    1.9483   -0.9225 N   0  0  0  0  0  0  0  0  0  0  0  0
    2.3042    0.9202   -0.4922 C   0  0  0  0  0  0  0  0  0  0  0  0
    3.6868    1.5086   -0.4070 C   0  0  0  0  0  0  0  0  0  0  0  0
    4.2773    1.8845   -1.4587 O   0  0  0  0  0  0  0  0  0  0  0  0
    4.3139    1.6775    0.8700 N   0  0  0  0  0  0  0  0  0  0  0  0
    5.7292    2.0113    1.0117 C   0  0  0  0  0  0  0  0  0  0  0  0
    6.6611    0.8432    0.6285 C   0  0  0  0  0  0  0  0  0  0  0  0
    6.0993   -0.5729    0.5144 C   0  0  0  0  0  0  0  0  0  0  0  0
    6.8631   -0.1640    1.7602 C   0  0  0  0  0  0  0  0  0  0  0  0
    2.2670   -0.2893   -1.4411 C   0  0  0  0  0  0  0  0  0  0  0  0
    0.8718   -0.9325   -1.4383 C   0  0  0  0  0  0  0  0  0  0  0  0
    0.8150   -2.2674   -2.1383 C   0  0  0  0  0  0  0  0  0  0  0  0
    1.8362   -2.6972   -2.7437 O   0  0  0  0  0  0  0  0  0  0  0  0
    0.4255   -5.0094   -2.0263 H   0  0  0  0  0  0  0  0  0  0  0  0
   -0.0702   -4.4588   -3.6783 H   0  0  0  0  0  0  0  0  0  0  0  0
   -1.3163   -4.9573   -2.4773 H   0  0  0  0  0  0  0  0  0  0  0  0
   -1.7887   -1.4709   -2.2046 H   0  0  0  0  0  0  0  0  0  0  0  0
   -2.5300   -3.0776   -2.1306 H   0  0  0  0  0  0  0  0  0  0  0  0
   -5.0724   -2.0454    0.8484 H   0  0  0  0  0  0  0  0  0  0  0  0
   -4.4922   -3.0062   -0.5504 H   0  0  0  0  0  0  0  0  0  0  0  0
   -3.9865   -3.4514    1.1257 H   0  0  0  0  0  0  0  0  0  0  0  0
   -3.9631   -0.2166    1.4023 H   0  0  0  0  0  0  0  0  0  0  0  0
   -2.2474    0.4981   -1.0494 H   0  0  0  0  0  0  0  0  0  0  0  0
   -3.0278    1.6783    0.0407 H   0  0  0  0  0  0  0  0  0  0  0  0
   -3.5718   -0.2704   -2.9287 H   0  0  0  0  0  0  0  0  0  0  0  0
   -5.7296   -0.5074   -4.0716 H   0  0  0  0  0  0  0  0  0  0  0  0
   -7.8233    0.1933   -2.9519 H   0  0  0  0  0  0  0  0  0  0  0  0
   -7.7507    1.1297   -0.6615 H   0  0  0  0  0  0  0  0  0  0  0  0
   -5.5929    1.3622    0.5195 H   0  0  0  0  0  0  0  0  0  0  0  0
   -1.3877   -1.0050    2.1613 H   0  0  0  0  0  0  0  0  0  0  0  0
   -2.3376    0.4050    2.7133 H   0  0  0  0  0  0  0  0  0  0  0  0
   -0.3708    0.5361    3.9353 H   0  0  0  0  0  0  0  0  0  0  0  0
    1.2170    1.8683    5.2393 H   0  0  0  0  0  0  0  0  0  0  0  0
    2.5219    3.6695    4.1631 H   0  0  0  0  0  0  0  0  0  0  0  0
    2.2366    4.1468    1.7576 H   0  0  0  0  0  0  0  0  0  0  0  0
    1.2870    2.1726   -1.9420 H   0  0  0  0  0  0  0  0  0  0  0  0
    2.0238    0.5422    0.5134 H   0  0  0  0  0  0  0  0  0  0  0  0
    3.7948    1.4032    1.7362 H   0  0  0  0  0  0  0  0  0  0  0  0
    5.9295    2.3267    2.0573 H   0  0  0  0  0  0  0  0  0  0  0  0
    5.9623    2.8862    0.3705 H   0  0  0  0  0  0  0  0  0  0  0  0
    7.6010    1.0622    0.0769 H   0  0  0  0  0  0  0  0  0  0  0  0
    5.0192   -0.7366    0.7089 H   0  0  0  0  0  0  0  0  0  0  0  0
    6.6799   -1.2475   -0.1508 H   0  0  0  0  0  0  0  0  0  0  0  0
    7.8826   -0.6034    1.8245 H   0  0  0  0  0  0  0  0  0  0  0  0
    6.2173   -0.0442    2.6573 H   0  0  0  0  0  0  0  0  0  0  0  0
    3.0161   -1.0348   -1.0942 H   0  0  0  0  0  0  0  0  0  0  0  0
    2.5324    0.0235   -2.4747 H   0  0  0  0  0  0  0  0  0  0  0  0
    0.1575   -0.2378   -1.9261 H   0  0  0  0  0  0  0  0  0  0  0  0
    0.5533   -1.0805   -0.3841 H   0  0  0  0  0  0  0  0  0  0  0  0
  1  2  1  0
  2  3  1  0
  3  4  1  0
  4  5  2  0
  4  6  1  0
  6  7  1  0
  6  8  1  0
  8  9  1  0
  9 10  1  0
 10 11  2  0
 11 12  1  0
 12 13  2  0
 13 14  1  0
 14 15  2  0
  8 16  1  0
 16 17  1  0
 17 18  1  0
 18 19  2  0
 19 20  1  0
 20 21  2  0
 21 22  1  0
 22 23  2  0
 23 24  1  0
 24 25  2  0
 24 26  1  0
 26 27  1  0
 27 28  1  0
 28 29  2  0
 28 30  1  0
 30 31  1  0
 31 32  1  0
 32 33  1  0
 33 34  1  0
 27 35  1  0
 35 36  1  0
 36 37  1  0
 37 38  2  0
 37  2  1  0
 15 10  1  0
 23 18  1  0
 34 32  1  0
  1 39  1  0
  1 40  1  0
  1 41  1  0
  3 42  1  0
  3 43  1  0
  7 44  1  0
  7 45  1  0
  7 46  1  0
  8 47  1  0
  9 48  1  0
  9 49  1  0
 11 50  1  0
 12 51  1  0
 13 52  1  0
 14 53  1  0
 15 54  1  0
 16 55  1  0
 16 56  1  0
 19 57  1  0
 20 58  1  0
 21 59  1  0
 22 60  1  0
 26 61  1  0
 27 62  1  0
 30 63  1  0
 31 64  1  0
 31 65  1  0
 32 66  1  0
 33 67  1  0
 33 68  1  0
 34 69  1  0
 34 70  1  0
 35 71  1  0
 35 72  1  0
 36 73  1  0
 36 74  1  0
M  END
$$$$
