
     RDKit          3D

 91 94  0  0  0  0  0  0  0  0999 V2000
   11.7734   -1.9794    0.5495 C   0  0  0  0  0  0  0  0  0  0  0  0
   10.3175   -2.2465    0.9010 C   0  0  0  0  0  0  0  0  0  0  0  0
    9.5032   -1.1905    0.3952 O   0  0  0  0  0  0  0  0  0  0  0  0
    8.1070   -1.1250    0.5378 C   0  0  0  0  0  0  0  0  0  0  0  0
    7.3760   -2.1020    1.2407 C   0  0  0  0  0  0  0  0  0  0  0  0
    5.9900   -1.9939    1.3708 C   0  0  0  0  0  0  0  0  0  0  0  0
    5.2998   -0.9134    0.7970 C   0  0  0  0  0  0  0  0  0  0  0  0
    3.7902   -0.8336    0.9079 C   0  0  0  0  0  0  0  0  0  0  0  0
    3.2680    0.5665    1.3034 C   0  0  0  0  0  0  0  0  0  0  0  0
    2.6515    1.3194    0.1158 C   0  0  0  0  0  0  0  0  0  0  0  0
    1.3234    0.8046   -0.2148 N   0  0  0  0  0  0  0  0  0  0  0  0
    0.5539    1.4132   -1.2648 C   0  0  0  0  0  0  0  0  0  0  0  0
    1.0975    2.2532   -2.0352 O   0  0  0  0  0  0  0  0  0  0  0  0
   -0.9126    1.1093   -1.4460 C   0  0  0  0  0  0  0  0  0  0  0  0
   -1.8019    2.1251   -0.6961 C   0  0  0  0  0  0  0  0  0  0  0  0
   -1.8462    1.9460    0.7980 C   0  0  0  0  0  0  0  0  0  0  0  0
   -0.7752    1.9184    1.4632 O   0  0  0  0  0  0  0  0  0  0  0  0
   -3.1055    1.8742    1.4881 N   0  0  0  0  0  0  0  0  0  0  0  0
   -3.7481    3.1406    1.8751 C   0  0  0  0  0  0  0  0  0  0  0  0
   -4.4969    3.7375    0.7161 C   0  0  0  0  0  0  0  0  0  0  0  0
   -5.8188    3.3453    0.4463 C   0  0  0  0  0  0  0  0  0  0  0  0
   -6.4855    3.8529   -0.6719 C   0  0  0  0  0  0  0  0  0  0  0  0
   -5.8401    4.7532   -1.5250 C   0  0  0  0  0  0  0  0  0  0  0  0
   -4.5271    5.1537   -1.2553 C   0  0  0  0  0  0  0  0  0  0  0  0
   -3.8602    4.6572   -0.1347 C   0  0  0  0  0  0  0  0  0  0  0  0
   -3.4142    0.6236    2.1966 C   0  0  0  0  0  0  0  0  0  0  0  0
   -4.8915    0.3487    2.2717 C   0  0  0  0  0  0  0  0  0  0  0  0
   -5.5094    0.6702    3.3235 O   0  0  0  0  0  0  0  0  0  0  0  0
   -5.5999   -0.3285    1.2097 N   0  0  0  0  0  0  0  0  0  0  0  0
   -6.7653   -1.1566    1.5537 C   0  0  0  0  0  0  0  0  0  0  0  0
   -6.3229   -2.4673    2.1961 C   0  0  0  0  0  0  0  0  0  0  0  0
   -5.3456   -0.0065   -0.2041 C   0  0  0  0  0  0  0  0  0  0  0  0
   -4.9398   -1.2428   -1.0075 C   0  0  0  0  0  0  0  0  0  0  0  0
   -3.6092   -1.6351   -0.6779 O   0  0  0  0  0  0  0  0  0  0  0  0
   -2.9945   -2.7677   -1.2330 C   0  0  0  0  0  0  0  0  0  0  0  0
   -3.6507   -4.0136   -1.1873 C   0  0  0  0  0  0  0  0  0  0  0  0
   -3.0665   -5.1420   -1.7639 C   0  0  0  0  0  0  0  0  0  0  0  0
   -1.8181   -5.0448   -2.3753 C   0  0  0  0  0  0  0  0  0  0  0  0
   -1.1493   -3.8183   -2.4183 C   0  0  0  0  0  0  0  0  0  0  0  0
   -1.7229   -2.6636   -1.8521 C   0  0  0  0  0  0  0  0  0  0  0  0
   -1.0231   -1.3599   -2.0107 C   0  0  0  0  0  0  0  0  0  0  0  0
   -0.2218   -1.2054   -2.9750 O   0  0  0  0  0  0  0  0  0  0  0  0
   -1.2304   -0.2789   -1.0861 N   0  0  0  0  0  0  0  0  0  0  0  0
    6.0283    0.0415    0.0696 C   0  0  0  0  0  0  0  0  0  0  0  0
    7.4299   -0.0451   -0.0448 C   0  0  0  0  0  0  0  0  0  0  0  0
    8.1812    0.9207   -0.7338 O   0  0  0  0  0  0  0  0  0  0  0  0
    7.6379    2.0922   -1.3362 C   0  0  0  0  0  0  0  0  0  0  0  0
   11.8953   -1.9168   -0.5531 H   0  0  0  0  0  0  0  0  0  0  0  0
   12.4146   -2.8029    0.9308 H   0  0  0  0  0  0  0  0  0  0  0  0
   12.1044   -1.0216    1.0060 H   0  0  0  0  0  0  0  0  0  0  0  0
   10.2209   -2.3073    2.0052 H   0  0  0  0  0  0  0  0  0  0  0  0
   10.0041   -3.2109    0.4519 H   0  0  0  0  0  0  0  0  0  0  0  0
    7.8751   -2.9488    1.6919 H   0  0  0  0  0  0  0  0  0  0  0  0
    5.4539   -2.7666    1.9101 H   0  0  0  0  0  0  0  0  0  0  0  0
    3.4420   -1.5523    1.6885 H   0  0  0  0  0  0  0  0  0  0  0  0
    3.3453   -1.1819   -0.0517 H   0  0  0  0  0  0  0  0  0  0  0  0
    2.5001    0.4672    2.1041 H   0  0  0  0  0  0  0  0  0  0  0  0
    4.0879    1.1791    1.7385 H   0  0  0  0  0  0  0  0  0  0  0  0
    3.3077    1.2383   -0.7793 H   0  0  0  0  0  0  0  0  0  0  0  0
    2.5648    2.3967    0.3845 H   0  0  0  0  0  0  0  0  0  0  0  0
    0.9015    0.0390    0.3540 H   0  0  0  0  0  0  0  0  0  0  0  0
   -1.1418    1.2420   -2.5285 H   0  0  0  0  0  0  0  0  0  0  0  0
   -1.4523    3.1556   -0.9197 H   0  0  0  0  0  0  0  0  0  0  0  0
   -2.8295    2.0413   -1.1016 H   0  0  0  0  0  0  0  0  0  0  0  0
   -4.4461    2.9912    2.7256 H   0  0  0  0  0  0  0  0  0  0  0  0
   -2.9772    3.8555    2.2418 H   0  0  0  0  0  0  0  0  0  0  0  0
   -6.3275    2.6410    1.0952 H   0  0  0  0  0  0  0  0  0  0  0  0
   -7.5010    3.5409   -0.8845 H   0  0  0  0  0  0  0  0  0  0  0  0
   -6.3525    5.1389   -2.3969 H   0  0  0  0  0  0  0  0  0  0  0  0
   -4.0267    5.8487   -1.9160 H   0  0  0  0  0  0  0  0  0  0  0  0
   -2.8427    4.9701    0.0600 H   0  0  0  0  0  0  0  0  0  0  0  0
   -2.9248   -0.2396    1.6949 H   0  0  0  0  0  0  0  0  0  0  0  0
   -3.0012    0.6759    3.2245 H   0  0  0  0  0  0  0  0  0  0  0  0
   -7.3718   -1.3834    0.6524 H   0  0  0  0  0  0  0  0  0  0  0  0
   -7.4319   -0.6079    2.2490 H   0  0  0  0  0  0  0  0  0  0  0  0
   -7.2126   -3.0851    2.4419 H   0  0  0  0  0  0  0  0  0  0  0  0
   -5.7590   -2.2668    3.1319 H   0  0  0  0  0  0  0  0  0  0  0  0
   -5.6710   -3.0314    1.4982 H   0  0  0  0  0  0  0  0  0  0  0  0
   -4.5552    0.7572   -0.3036 H   0  0  0  0  0  0  0  0  0  0  0  0
   -6.2713    0.4276   -0.6449 H   0  0  0  0  0  0  0  0  0  0  0  0
   -4.9782   -0.9873   -2.0894 H   0  0  0  0  0  0  0  0  0  0  0  0
   -5.6560   -2.0686   -0.8210 H   0  0  0  0  0  0  0  0  0  0  0  0
   -4.6127   -4.1090   -0.7104 H   0  0  0  0  0  0  0  0  0  0  0  0
   -3.5821   -6.0963   -1.7296 H   0  0  0  0  0  0  0  0  0  0  0  0
   -1.3635   -5.9213   -2.8178 H   0  0  0  0  0  0  0  0  0  0  0  0
   -0.1831   -3.7737   -2.9025 H   0  0  0  0  0  0  0  0  0  0  0  0
   -1.5040   -0.5109   -0.1084 H   0  0  0  0  0  0  0  0  0  0  0  0
    5.5087    0.8564   -0.4000 H   0  0  0  0  0  0  0  0  0  0  0  0
    8.4610    2.6856   -1.7814 H   0  0  0  0  0  0  0  0  0  0  0  0
    7.1323    2.7178   -0.5724 H   0  0  0  0  0  0  0  0  0  0  0  0
    6.9200    1.8181   -2.1386 H   0  0  0  0  0  0  0  0  0  0  0  0
  1  2  1  0
  2  3  1  0
  3  4  1  0
  4  5  2  0
  5  6  1  0
  6  7  2  0
  7  8  1  0
  8  9  1  0
  9 10  1  0
 10 11  1  0
 11 12  1  0
 12 13  2  0
 12 14  1  0
 14 15  1  0
 15 16  1  0
 16 17  2  0
 16 18  1  0
 18 19  1  0
 19 20  1  0
 20 21  2  0
 21 22  1  0
 22 23  2  0
 23 24  1  0
 24 25  2  0
 18 26  1  0
 26 27  1  0
 27 28  2  0
 27 29  1  0
 29 30  1  0
 30 31  1  0
 29 32  1  0
 32 33  1  0
 33 34  1  0
 34 35  1  0
 35 36  2  0
 36 37  1  0
 37 38  2  0
 38 39  1  0
 39 40  2  0
 40 41  1  0
 41 42  2  0
 41 43  1  0
  7 44  1  0
 44 45  2  0
 45 46  1  0
 46 47  1  0
 45  4  1  0
 43 14  1  0
 25 20  1  0
 40 35  1  0
  1 48  1  0
  1 49  1  0
  1 50  1  0
  2 51  1  0
  2 52  1  0
  5 53  1  0
  6 54  1  0
  8 55  1  0
  8 56  1  0
  9 57  1  0
  9 58  1  0
 10 59  1  0
 10 60  1  0
 11 61  1  0
 14 62  1  0
 15 63  1  0
 15 64  1  0
 19 65  1  0
 19 66  1  0
 21 67  1  0
 22 68  1  0
 23 69  1  0
 24 70  1  0
 25 71  1  0
 26 72  1  0
 26 73  1  0
 30 74  1  0
 30 75  1  0
 31 76  1  0
 31 77  1  0
 31 78  1  0
 32 79  1  0
 32 80  1  0
 33 81  1  0
 33 82  1  0
 36 83  1  0
 37 84  1  0
 38 85  1  0
 39 86  1  0
 43 87  1  0
 44 88  1  0
 47 89  1  0
 47 90  1  0
 47 91  1  0
M  END
$$$$
