
     RDKit          3D

 61 64  0  0  0  0  0  0  0  0999 V2000
    3.9441   -0.3424    2.7337 O   0  0  0  0  0  0  0  0  0  0  0  0
    3.5586   -0.6404    1.5683 C   0  0  0  0  0  0  0  0  0  0  0  0
    4.5496   -0.6659    0.4358 C   0  0  0  0  0  0  0  0  0  0  0  0
    5.6794    0.3503    0.6250 C   0  0  0  0  0  0  0  0  0  0  0  0
    6.5341    0.3857   -0.5578 N   0  0  0  0  0  0  0  0  0  0  0  0
    7.6898   -0.2700   -0.7380 C   0  0  0  0  0  0  0  0  0  0  0  0
    8.1484    0.0282   -2.0017 C   0  0  0  0  0  0  0  0  0  0  0  0
    7.2784    0.8556   -2.6185 N   0  0  0  0  0  0  0  0  0  0  0  0
    6.2999    1.0482   -1.7067 C   0  0  0  0  0  0  0  0  0  0  0  0
    2.1746   -0.9587    1.3372 N   0  0  0  0  0  0  0  0  0  0  0  0
    1.7959   -2.0932    0.4920 C   0  0  0  0  0  0  0  0  0  0  0  0
    0.4957   -1.7732   -0.2513 C   0  0  0  0  0  0  0  0  0  0  0  0
   -0.5113   -1.2843    0.6225 O   0  0  0  0  0  0  0  0  0  0  0  0
   -0.1268   -0.0762    1.2812 C   0  0  0  0  0  0  0  0  0  0  0  0
   -1.2879    0.3661    2.2264 C   0  0  0  0  0  0  0  0  0  0  0  0
   -2.6933    0.1098    1.6232 C   0  0  0  0  0  0  0  0  0  0  0  0
   -3.7864    1.1127    2.0795 C   0  0  0  0  0  0  0  0  0  0  0  0
   -4.6291    1.6766    0.9116 C   0  0  0  0  0  0  0  0  0  0  0  0
   -5.1535    0.6041   -0.0231 C   0  0  0  0  0  0  0  0  0  0  0  0
   -6.2256   -0.2076    0.3822 C   0  0  0  0  0  0  0  0  0  0  0  0
   -6.6317   -1.2863   -0.4086 C   0  0  0  0  0  0  0  0  0  0  0  0
   -5.9871   -1.5553   -1.6222 C   0  0  0  0  0  0  0  0  0  0  0  0
   -4.9335   -0.7497   -2.0452 C   0  0  0  0  0  0  0  0  0  0  0  0
   -4.4987    0.3250   -1.2468 C   0  0  0  0  0  0  0  0  0  0  0  0
   -3.3836    1.0927   -1.6131 O   0  0  0  0  0  0  0  0  0  0  0  0
   -2.2353    0.5372   -2.2648 C   0  0  0  0  0  0  0  0  0  0  0  0
   -1.0116    1.4000   -1.9521 C   0  0  0  0  0  0  0  0  0  0  0  0
   -0.9083    1.6127   -0.5092 N   0  0  0  0  0  0  0  0  0  0  0  0
    0.1499    1.0495    0.2704 C   0  0  0  0  0  0  0  0  0  0  0  0
    1.3161    1.5168    0.1317 O   0  0  0  0  0  0  0  0  0  0  0  0
    1.1278   -0.3497    2.1574 C   0  0  0  0  0  0  0  0  0  0  0  0
    4.0218   -0.4247   -0.5107 H   0  0  0  0  0  0  0  0  0  0  0  0
    4.9787   -1.6850    0.3536 H   0  0  0  0  0  0  0  0  0  0  0  0
    6.2904    0.0729    1.5112 H   0  0  0  0  0  0  0  0  0  0  0  0
    5.2578    1.3635    0.7971 H   0  0  0  0  0  0  0  0  0  0  0  0
    8.1676   -0.9105   -0.0085 H   0  0  0  0  0  0  0  0  0  0  0  0
    9.0618   -0.3403   -2.4470 H   0  0  0  0  0  0  0  0  0  0  0  0
    5.4285    1.6671   -1.8794 H   0  0  0  0  0  0  0  0  0  0  0  0
    2.5884   -2.3208   -0.2528 H   0  0  0  0  0  0  0  0  0  0  0  0
    1.6488   -2.9947    1.1312 H   0  0  0  0  0  0  0  0  0  0  0  0
    0.6805   -1.0609   -1.0861 H   0  0  0  0  0  0  0  0  0  0  0  0
    0.1292   -2.7123   -0.7160 H   0  0  0  0  0  0  0  0  0  0  0  0
   -1.2422   -0.2057    3.1846 H   0  0  0  0  0  0  0  0  0  0  0  0
   -1.1508    1.4388    2.4941 H   0  0  0  0  0  0  0  0  0  0  0  0
   -2.6097    0.0985    0.5274 H   0  0  0  0  0  0  0  0  0  0  0  0
   -3.0263   -0.9213    1.8981 H   0  0  0  0  0  0  0  0  0  0  0  0
   -4.4685    0.5937    2.7990 H   0  0  0  0  0  0  0  0  0  0  0  0
   -3.3436    1.9732    2.6316 H   0  0  0  0  0  0  0  0  0  0  0  0
   -5.4874    2.2406    1.3355 H   0  0  0  0  0  0  0  0  0  0  0  0
   -4.0164    2.4181    0.3530 H   0  0  0  0  0  0  0  0  0  0  0  0
   -6.7143   -0.0321    1.3368 H   0  0  0  0  0  0  0  0  0  0  0  0
   -7.4327   -1.9254   -0.0667 H   0  0  0  0  0  0  0  0  0  0  0  0
   -6.2853   -2.3984   -2.2270 H   0  0  0  0  0  0  0  0  0  0  0  0
   -4.4375   -0.9757   -2.9796 H   0  0  0  0  0  0  0  0  0  0  0  0
   -2.4068    0.4944   -3.3623 H   0  0  0  0  0  0  0  0  0  0  0  0
   -2.0437   -0.4946   -1.8923 H   0  0  0  0  0  0  0  0  0  0  0  0
   -1.1247    2.3805   -2.4494 H   0  0  0  0  0  0  0  0  0  0  0  0
   -0.0932    0.9133   -2.3460 H   0  0  0  0  0  0  0  0  0  0  0  0
   -1.4819    2.3808   -0.0783 H   0  0  0  0  0  0  0  0  0  0  0  0
    1.4914    0.5997    2.6102 H   0  0  0  0  0  0  0  0  0  0  0  0
    0.8818   -1.0508    2.9844 H   0  0  0  0  0  0  0  0  0  0  0  0
  1  2  2  0
  2  3  1  0
  3  4  1  0
  4  5  1  0
  5  6  1  0
  6  7  2  0
  7  8  1  0
  8  9  2  0
  2 10  1  0
 10 11  1  0
 11 12  1  0
 12 13  1  0
 13 14  1  0
 14 15  1  0
 15 16  1  0
 16 17  1  0
 17 18  1  0
 18 19  1  0
 19 20  2  0
 20 21  1  0
 21 22  2  0
 22 23  1  0
 23 24  2  0
 24 25  1  0
 25 26  1  0
 26 27  1  0
 27 28  1  0
 28 29  1  0
 29 30  2  0
 14 31  1  0
  9  5  1  0
 31 10  1  0
 29 14  1  0
 24 19  1  0
  3 32  1  0
  3 33  1  0
  4 34  1  0
  4 35  1  0
  6 36  1  0
  7 37  1  0
  9 38  1  0
 11 39  1  0
 11 40  1  0
 12 41  1  0
 12 42  1  0
 15 43  1  0
 15 44  1  0
 16 45  1  0
 16 46  1  0
 17 47  1  0
 17 48  1  0
 18 49  1  0
 18 50  1  0
 20 51  1  0
 21 52  1  0
 22 53  1  0
 23 54  1  0
 26 55  1  0
 26 56  1  0
 27 57  1  0
 27 58  1  0
 28 59  1  0
 31 60  1  0
 31 61  1  0
M  END
$$$$
