
     RDKit          3D

 87 90  0  0  0  0  0  0  0  0999 V2000
    7.0651   -3.4463   -0.6204 C   0  0  0  0  0  0  0  0  0  0  0  0
    7.3042   -1.9619   -0.6183 C   0  0  0  0  0  0  0  0  0  0  0  0
    8.4152   -1.4261   -1.2886 C   0  0  0  0  0  0  0  0  0  0  0  0
    8.6332   -0.0465   -1.3003 C   0  0  0  0  0  0  0  0  0  0  0  0
    7.7528    0.8210   -0.6367 C   0  0  0  0  0  0  0  0  0  0  0  0
    8.0423    2.3094   -0.6102 C   0  0  0  0  0  0  0  0  0  0  0  0
    8.5068    2.7471    0.7823 C   0  0  0  0  0  0  0  0  0  0  0  0
    6.8387    3.1370   -1.0794 C   0  0  0  0  0  0  0  0  0  0  0  0
    6.6445    0.2816    0.0434 C   0  0  0  0  0  0  0  0  0  0  0  0
    6.4100   -1.1030    0.0477 C   0  0  0  0  0  0  0  0  0  0  0  0
    5.3090   -1.6649    0.7137 O   0  0  0  0  0  0  0  0  0  0  0  0
    4.0922   -0.9908    1.0262 C   0  0  0  0  0  0  0  0  0  0  0  0
    3.3163   -0.6569   -0.2537 C   0  0  0  0  0  0  0  0  0  0  0  0
    1.9374   -0.2970    0.0645 N   0  0  0  0  0  0  0  0  0  0  0  0
    0.8873   -0.3929   -0.9085 C   0  0  0  0  0  0  0  0  0  0  0  0
    1.1569   -0.7050   -2.1018 O   0  0  0  0  0  0  0  0  0  0  0  0
   -0.5446   -0.2114   -0.4713 C   0  0  0  0  0  0  0  0  0  0  0  0
   -1.0202   -1.4368    0.3386 C   0  0  0  0  0  0  0  0  0  0  0  0
   -2.0444   -1.0322    1.3704 C   0  0  0  0  0  0  0  0  0  0  0  0
   -1.6300   -0.5579    2.4610 O   0  0  0  0  0  0  0  0  0  0  0  0
   -3.4600   -1.0811    1.1323 N   0  0  0  0  0  0  0  0  0  0  0  0
   -4.1286   -2.1670    0.4045 C   0  0  0  0  0  0  0  0  0  0  0  0
   -4.2339   -3.4243    1.3169 C   0  0  0  0  0  0  0  0  0  0  0  0
   -4.6087   -4.6899    0.5289 C   0  0  0  0  0  0  0  0  0  0  0  0
   -5.1988   -3.2213    2.4965 C   0  0  0  0  0  0  0  0  0  0  0  0
   -5.4697   -1.7179   -0.1431 C   0  0  0  0  0  0  0  0  0  0  0  0
   -6.0877   -2.4586   -0.9519 O   0  0  0  0  0  0  0  0  0  0  0  0
   -5.9993   -0.4175    0.1456 N   0  0  0  0  0  0  0  0  0  0  0  0
   -6.8706   -0.1606    1.2799 C   0  0  0  0  0  0  0  0  0  0  0  0
   -7.7424    1.0201    0.8715 C   0  0  0  0  0  0  0  0  0  0  0  0
   -7.0321    1.6755   -0.3094 C   0  0  0  0  0  0  0  0  0  0  0  0
   -6.1236    0.5908   -0.8912 C   0  0  0  0  0  0  0  0  0  0  0  0
   -4.7445    1.1221   -1.2971 C   0  0  0  0  0  0  0  0  0  0  0  0
   -4.0725    1.6705   -0.1632 O   0  0  0  0  0  0  0  0  0  0  0  0
   -2.9744    2.5422   -0.2179 C   0  0  0  0  0  0  0  0  0  0  0  0
   -2.9307    3.5756    0.7258 C   0  0  0  0  0  0  0  0  0  0  0  0
   -1.9108    4.5299    0.6922 C   0  0  0  0  0  0  0  0  0  0  0  0
   -0.9112    4.4508   -0.2772 C   0  0  0  0  0  0  0  0  0  0  0  0
   -0.9155    3.3990   -1.1998 C   0  0  0  0  0  0  0  0  0  0  0  0
   -1.9297    2.4306   -1.1684 C   0  0  0  0  0  0  0  0  0  0  0  0
   -1.8274    1.2952   -2.0906 C   0  0  0  0  0  0  0  0  0  0  0  0
   -2.1500    1.4604   -3.2935 O   0  0  0  0  0  0  0  0  0  0  0  0
   -1.4110   -0.0044   -1.6396 N   0  0  0  0  0  0  0  0  0  0  0  0
    6.0693   -3.6617   -1.0588 H   0  0  0  0  0  0  0  0  0  0  0  0
    7.1007   -3.8291    0.4209 H   0  0  0  0  0  0  0  0  0  0  0  0
    7.8307   -3.9840   -1.2187 H   0  0  0  0  0  0  0  0  0  0  0  0
    9.1159   -2.0757   -1.8044 H   0  0  0  0  0  0  0  0  0  0  0  0
    9.5042    0.3421   -1.8189 H   0  0  0  0  0  0  0  0  0  0  0  0
    8.8715    2.5309   -1.3160 H   0  0  0  0  0  0  0  0  0  0  0  0
    8.8552    3.8007    0.7447 H   0  0  0  0  0  0  0  0  0  0  0  0
    9.3538    2.1105    1.1215 H   0  0  0  0  0  0  0  0  0  0  0  0
    7.6768    2.6711    1.5163 H   0  0  0  0  0  0  0  0  0  0  0  0
    6.4778    2.7713   -2.0651 H   0  0  0  0  0  0  0  0  0  0  0  0
    7.1367    4.1996   -1.1913 H   0  0  0  0  0  0  0  0  0  0  0  0
    6.0064    3.0843   -0.3473 H   0  0  0  0  0  0  0  0  0  0  0  0
    5.9876    0.9416    0.5874 H   0  0  0  0  0  0  0  0  0  0  0  0
    3.4788   -1.6789    1.6483 H   0  0  0  0  0  0  0  0  0  0  0  0
    4.2822   -0.0781    1.6306 H   0  0  0  0  0  0  0  0  0  0  0  0
    3.8058    0.1832   -0.7875 H   0  0  0  0  0  0  0  0  0  0  0  0
    3.3230   -1.5486   -0.9174 H   0  0  0  0  0  0  0  0  0  0  0  0
    1.6862   -0.0315    1.0446 H   0  0  0  0  0  0  0  0  0  0  0  0
   -0.5629    0.6821    0.1890 H   0  0  0  0  0  0  0  0  0  0  0  0
   -1.3817   -2.2374   -0.3350 H   0  0  0  0  0  0  0  0  0  0  0  0
   -0.1603   -1.8821    0.8864 H   0  0  0  0  0  0  0  0  0  0  0  0
   -4.0382   -0.5174    1.7945 H   0  0  0  0  0  0  0  0  0  0  0  0
   -3.5225   -2.4303   -0.4851 H   0  0  0  0  0  0  0  0  0  0  0  0
   -3.2252   -3.6125    1.7486 H   0  0  0  0  0  0  0  0  0  0  0  0
   -5.6673   -4.6628    0.1901 H   0  0  0  0  0  0  0  0  0  0  0  0
   -4.4832   -5.5894    1.1672 H   0  0  0  0  0  0  0  0  0  0  0  0
   -3.9442   -4.8054   -0.3545 H   0  0  0  0  0  0  0  0  0  0  0  0
   -4.8957   -2.3403    3.0961 H   0  0  0  0  0  0  0  0  0  0  0  0
   -5.1790   -4.1113    3.1647 H   0  0  0  0  0  0  0  0  0  0  0  0
   -6.2372   -3.0746    2.1333 H   0  0  0  0  0  0  0  0  0  0  0  0
   -7.4987   -1.0515    1.5009 H   0  0  0  0  0  0  0  0  0  0  0  0
   -6.2587    0.1035    2.1699 H   0  0  0  0  0  0  0  0  0  0  0  0
   -8.7351    0.6469    0.5403 H   0  0  0  0  0  0  0  0  0  0  0  0
   -7.8734    1.7422    1.7068 H   0  0  0  0  0  0  0  0  0  0  0  0
   -7.7611    2.0362   -1.0675 H   0  0  0  0  0  0  0  0  0  0  0  0
   -6.4435    2.5458    0.0591 H   0  0  0  0  0  0  0  0  0  0  0  0
   -6.6211    0.1409   -1.7761 H   0  0  0  0  0  0  0  0  0  0  0  0
   -4.8721    1.9021   -2.0800 H   0  0  0  0  0  0  0  0  0  0  0  0
   -4.1612    0.2751   -1.7119 H   0  0  0  0  0  0  0  0  0  0  0  0
   -3.7102    3.6587    1.4732 H   0  0  0  0  0  0  0  0  0  0  0  0
   -1.8935    5.3304    1.4214 H   0  0  0  0  0  0  0  0  0  0  0  0
   -0.1244    5.1894   -0.3102 H   0  0  0  0  0  0  0  0  0  0  0  0
   -0.1093    3.3298   -1.9209 H   0  0  0  0  0  0  0  0  0  0  0  0
   -1.5424   -0.8024   -2.2989 H   0  0  0  0  0  0  0  0  0  0  0  0
  1  2  1  0
  2  3  2  0
  3  4  1  0
  4  5  2  0
  5  6  1  0
  6  7  1  0
  6  8  1  0
  5  9  1  0
  9 10  2  0
 10 11  1  0
 11 12  1  0
 12 13  1  0
 13 14  1  0
 14 15  1  0
 15 16  2  0
 15 17  1  0
 17 18  1  0
 18 19  1  0
 19 20  2  0
 19 21  1  0
 21 22  1  0
 22 23  1  0
 23 24  1  0
 23 25  1  0
 22 26  1  0
 26 27  2  0
 26 28  1  0
 28 29  1  0
 29 30  1  0
 30 31  1  0
 31 32  1  0
 32 33  1  0
 33 34  1  0
 34 35  1  0
 35 36  2  0
 36 37  1  0
 37 38  2  0
 38 39  1  0
 39 40  2  0
 40 41  1  0
 41 42  2  0
 41 43  1  0
 10  2  1  0
 43 17  1  0
 32 28  1  0
 40 35  1  0
  1 44  1  0
  1 45  1  0
  1 46  1  0
  3 47  1  0
  4 48  1  0
  6 49  1  0
  7 50  1  0
  7 51  1  0
  7 52  1  0
  8 53  1  0
  8 54  1  0
  8 55  1  0
  9 56  1  0
 12 57  1  0
 12 58  1  0
 13 59  1  0
 13 60  1  0
 14 61  1  0
 17 62  1  0
 18 63  1  0
 18 64  1  0
 21 65  1  0
 22 66  1  0
 23 67  1  0
 24 68  1  0
 24 69  1  0
 24 70  1  0
 25 71  1  0
 25 72  1  0
 25 73  1  0
 29 74  1  0
 29 75  1  0
 30 76  1  0
 30 77  1  0
 31 78  1  0
 31 79  1  0
 32 80  1  0
 33 81  1  0
 33 82  1  0
 36 83  1  0
 37 84  1  0
 38 85  1  0
 39 86  1  0
 43 87  1  0
M  END
$$$$
