
     RDKit          3D

 67 70  0  0  0  0  0  0  0  0999 V2000
    4.9582    1.5542    1.9713 O   0  0  0  0  0  0  0  0  0  0  0  0
    3.9984    1.7544    1.1756 C   0  0  0  0  0  0  0  0  0  0  0  0
    2.6519    2.1225    1.7211 C   0  0  0  0  0  0  0  0  0  0  0  0
    1.6613    1.0921    1.3594 N   0  0  0  0  0  0  0  0  0  0  0  0
    1.8334   -0.1471    2.1518 C   0  0  0  0  0  0  0  0  0  0  0  0
    0.5213   -0.9511    2.2512 C   0  0  0  0  0  0  0  0  0  0  0  0
   -0.2699   -0.7905    1.0857 O   0  0  0  0  0  0  0  0  0  0  0  0
   -0.6829    0.5611    0.8559 C   0  0  0  0  0  0  0  0  0  0  0  0
   -0.6804    0.8091   -0.6966 C   0  0  0  0  0  0  0  0  0  0  0  0
   -0.9796   -0.4064   -1.6037 C   0  0  0  0  0  0  0  0  0  0  0  0
   -2.3661   -1.0401   -1.4334 C   0  0  0  0  0  0  0  0  0  0  0  0
   -3.5184   -0.1091   -1.8487 C   0  0  0  0  0  0  0  0  0  0  0  0
   -4.8588   -0.7761   -1.6343 C   0  0  0  0  0  0  0  0  0  0  0  0
   -5.6247   -1.1923   -2.7356 C   0  0  0  0  0  0  0  0  0  0  0  0
   -6.8522   -1.8303   -2.5403 C   0  0  0  0  0  0  0  0  0  0  0  0
   -7.3199   -2.0705   -1.2461 C   0  0  0  0  0  0  0  0  0  0  0  0
   -6.5629   -1.6709   -0.1423 C   0  0  0  0  0  0  0  0  0  0  0  0
   -5.3277   -1.0287   -0.3284 C   0  0  0  0  0  0  0  0  0  0  0  0
   -4.5383   -0.6322    0.7564 O   0  0  0  0  0  0  0  0  0  0  0  0
   -4.4759   -1.3055    2.0115 C   0  0  0  0  0  0  0  0  0  0  0  0
   -3.0357   -1.2734    2.5270 C   0  0  0  0  0  0  0  0  0  0  0  0
   -2.5401    0.1007    2.6027 N   0  0  0  0  0  0  0  0  0  0  0  0
   -2.0681    0.8133    1.4478 C   0  0  0  0  0  0  0  0  0  0  0  0
   -2.7379    1.8040    1.0474 O   0  0  0  0  0  0  0  0  0  0  0  0
    0.2888    1.5982    1.4975 C   0  0  0  0  0  0  0  0  0  0  0  0
    4.2036    1.6921   -0.2413 N   0  0  0  0  0  0  0  0  0  0  0  0
    5.4879    1.3956   -0.7926 C   0  0  0  0  0  0  0  0  0  0  0  0
    6.4297    2.4304   -0.8885 C   0  0  0  0  0  0  0  0  0  0  0  0
    7.7344    2.1633   -1.3098 C   0  0  0  0  0  0  0  0  0  0  0  0
    8.1116    0.8590   -1.6282 C   0  0  0  0  0  0  0  0  0  0  0  0
    7.1802   -0.1791   -1.5427 C   0  0  0  0  0  0  0  0  0  0  0  0
    5.8575    0.0746   -1.1493 C   0  0  0  0  0  0  0  0  0  0  0  0
    4.9752   -1.0172   -1.1109 O   0  0  0  0  0  0  0  0  0  0  0  0
    3.5961   -0.9761   -1.4722 C   0  0  0  0  0  0  0  0  0  0  0  0
    3.1195   -2.2711   -1.5600 F   0  0  0  0  0  0  0  0  0  0  0  0
    3.4451   -0.3590   -2.7026 F   0  0  0  0  0  0  0  0  0  0  0  0
    2.3796    3.1034    1.2657 H   0  0  0  0  0  0  0  0  0  0  0  0
    2.6932    2.2713    2.8262 H   0  0  0  0  0  0  0  0  0  0  0  0
    2.6010   -0.7786    1.6578 H   0  0  0  0  0  0  0  0  0  0  0  0
    2.1869    0.0687    3.1844 H   0  0  0  0  0  0  0  0  0  0  0  0
    0.7543   -2.0287    2.3834 H   0  0  0  0  0  0  0  0  0  0  0  0
   -0.0475   -0.6315    3.1516 H   0  0  0  0  0  0  0  0  0  0  0  0
   -1.3394    1.6588   -0.9728 H   0  0  0  0  0  0  0  0  0  0  0  0
    0.3381    1.1397   -0.9991 H   0  0  0  0  0  0  0  0  0  0  0  0
   -0.8644   -0.0876   -2.6634 H   0  0  0  0  0  0  0  0  0  0  0  0
   -0.2097   -1.1892   -1.4284 H   0  0  0  0  0  0  0  0  0  0  0  0
   -2.4784   -1.3725   -0.3884 H   0  0  0  0  0  0  0  0  0  0  0  0
   -2.4091   -1.9516   -2.0666 H   0  0  0  0  0  0  0  0  0  0  0  0
   -3.3922    0.1776   -2.9158 H   0  0  0  0  0  0  0  0  0  0  0  0
   -3.4945    0.8277   -1.2577 H   0  0  0  0  0  0  0  0  0  0  0  0
   -5.2716   -1.0234   -3.7450 H   0  0  0  0  0  0  0  0  0  0  0  0
   -7.4406   -2.1377   -3.3952 H   0  0  0  0  0  0  0  0  0  0  0  0
   -8.2728   -2.5635   -1.0982 H   0  0  0  0  0  0  0  0  0  0  0  0
   -6.9438   -1.8524    0.8546 H   0  0  0  0  0  0  0  0  0  0  0  0
   -4.7813   -2.3697    1.9013 H   0  0  0  0  0  0  0  0  0  0  0  0
   -5.1586   -0.8091    2.7358 H   0  0  0  0  0  0  0  0  0  0  0  0
   -3.0007   -1.7265    3.5412 H   0  0  0  0  0  0  0  0  0  0  0  0
   -2.3889   -1.8899    1.8685 H   0  0  0  0  0  0  0  0  0  0  0  0
   -2.9353    0.6852    3.3724 H   0  0  0  0  0  0  0  0  0  0  0  0
    0.1740    2.5854    0.9894 H   0  0  0  0  0  0  0  0  0  0  0  0
    0.0527    1.7636    2.5771 H   0  0  0  0  0  0  0  0  0  0  0  0
    3.4132    1.9061   -0.8923 H   0  0  0  0  0  0  0  0  0  0  0  0
    6.1545    3.4432   -0.6135 H   0  0  0  0  0  0  0  0  0  0  0  0
    8.4574    2.9668   -1.3723 H   0  0  0  0  0  0  0  0  0  0  0  0
    9.1263    0.6511   -1.9403 H   0  0  0  0  0  0  0  0  0  0  0  0
    7.4838   -1.1884   -1.7943 H   0  0  0  0  0  0  0  0  0  0  0  0
    2.9992   -0.4461   -0.7074 H   0  0  0  0  0  0  0  0  0  0  0  0
  1  2  2  0
  2  3  1  0
  3  4  1  0
  4  5  1  0
  5  6  1  0
  6  7  1  0
  7  8  1  0
  8  9  1  0
  9 10  1  0
 10 11  1  0
 11 12  1  0
 12 13  1  0
 13 14  2  0
 14 15  1  0
 15 16  2  0
 16 17  1  0
 17 18  2  0
 18 19  1  0
 19 20  1  0
 20 21  1  0
 21 22  1  0
 22 23  1  0
 23 24  2  0
  8 25  1  0
  2 26  1  0
 26 27  1  0
 27 28  2  0
 28 29  1  0
 29 30  2  0
 30 31  1  0
 31 32  2  0
 32 33  1  0
 33 34  1  0
 34 35  1  0
 34 36  1  0
 25  4  1  0
 32 27  1  0
 23  8  1  0
 18 13  1  0
  3 37  1  0
  3 38  1  0
  5 39  1  0
  5 40  1  0
  6 41  1  0
  6 42  1  0
  9 43  1  0
  9 44  1  0
 10 45  1  0
 10 46  1  0
 11 47  1  0
 11 48  1  0
 12 49  1  0
 12 50  1  0
 14 51  1  0
 15 52  1  0
 16 53  1  0
 17 54  1  0
 20 55  1  0
 20 56  1  0
 21 57  1  0
 21 58  1  0
 22 59  1  0
 25 60  1  0
 25 61  1  0
 26 62  1  0
 28 63  1  0
 29 64  1  0
 30 65  1  0
 31 66  1  0
 34 67  1  0
M  END
$$$$
