
     RDKit          3D

 72 75  0  0  0  0  0  0  0  0999 V2000
   -4.7118    1.7949   -1.5000 C   0  0  0  0  0  0  0  0  0  0  0  0
   -3.3989    1.5363   -0.9116 N   0  0  0  0  0  0  0  0  0  0  0  0
   -3.0953    1.9115    0.4757 C   0  0  0  0  0  0  0  0  0  0  0  0
   -2.1805    3.1379    0.5441 C   0  0  0  0  0  0  0  0  0  0  0  0
   -0.8230    2.7678    0.2858 O   0  0  0  0  0  0  0  0  0  0  0  0
    0.3031    3.5222    0.6633 C   0  0  0  0  0  0  0  0  0  0  0  0
    0.3089    4.3128    1.8314 C   0  0  0  0  0  0  0  0  0  0  0  0
    1.4431    5.0429    2.1898 C   0  0  0  0  0  0  0  0  0  0  0  0
    2.5838    5.0007    1.3892 C   0  0  0  0  0  0  0  0  0  0  0  0
    2.5958    4.2255    0.2300 C   0  0  0  0  0  0  0  0  0  0  0  0
    1.4697    3.4710   -0.1330 C   0  0  0  0  0  0  0  0  0  0  0  0
    1.5199    2.6776   -1.3778 C   0  0  0  0  0  0  0  0  0  0  0  0
    1.8902    3.2416   -2.4436 O   0  0  0  0  0  0  0  0  0  0  0  0
    1.1697    1.2856   -1.4088 N   0  0  0  0  0  0  0  0  0  0  0  0
    1.3444    0.3869   -0.2607 C   0  0  0  0  0  0  0  0  0  0  0  0
    2.6747   -0.3202   -0.3567 C   0  0  0  0  0  0  0  0  0  0  0  0
    3.1168   -0.6682   -1.4836 O   0  0  0  0  0  0  0  0  0  0  0  0
    3.4787   -0.5502    0.8103 N   0  0  0  0  0  0  0  0  0  0  0  0
    4.8769   -0.1648    0.8661 C   0  0  0  0  0  0  0  0  0  0  0  0
    5.3402   -0.4940    2.2794 C   0  0  0  0  0  0  0  0  0  0  0  0
    4.0678   -0.6924    3.1010 C   0  0  0  0  0  0  0  0  0  0  0  0
    2.9726   -1.0378    2.0862 C   0  0  0  0  0  0  0  0  0  0  0  0
    2.7107   -2.5533    2.0090 C   0  0  0  0  0  0  0  0  0  0  0  0
    3.8802   -3.2405    1.6441 O   0  0  0  0  0  0  0  0  0  0  0  0
    0.1535   -0.5831   -0.1466 C   0  0  0  0  0  0  0  0  0  0  0  0
   -0.0698   -1.4087   -1.3887 C   0  0  0  0  0  0  0  0  0  0  0  0
    0.7506   -2.3270   -1.6561 O   0  0  0  0  0  0  0  0  0  0  0  0
   -1.1522   -1.1582   -2.3076 N   0  0  0  0  0  0  0  0  0  0  0  0
   -2.4773   -0.6151   -1.9631 C   0  0  0  0  0  0  0  0  0  0  0  0
   -3.1375   -1.4150   -0.8139 C   0  0  0  0  0  0  0  0  0  0  0  0
   -3.2302   -2.8839   -1.1496 C   0  0  0  0  0  0  0  0  0  0  0  0
   -2.3124   -3.7990   -0.6047 C   0  0  0  0  0  0  0  0  0  0  0  0
   -2.3640   -5.1472   -0.9702 C   0  0  0  0  0  0  0  0  0  0  0  0
   -3.3298   -5.5915   -1.8779 C   0  0  0  0  0  0  0  0  0  0  0  0
   -4.2540   -4.6920   -2.4141 C   0  0  0  0  0  0  0  0  0  0  0  0
   -4.2035   -3.3420   -2.0549 C   0  0  0  0  0  0  0  0  0  0  0  0
   -2.4091    0.8740   -1.7088 C   0  0  0  0  0  0  0  0  0  0  0  0
   -1.5610    1.5708   -2.3304 O   0  0  0  0  0  0  0  0  0  0  0  0
   -4.5954    2.4222   -2.4111 H   0  0  0  0  0  0  0  0  0  0  0  0
   -5.2002    0.8368   -1.7805 H   0  0  0  0  0  0  0  0  0  0  0  0
   -5.3738    2.3353   -0.7924 H   0  0  0  0  0  0  0  0  0  0  0  0
   -2.6273    1.0582    1.0106 H   0  0  0  0  0  0  0  0  0  0  0  0
   -4.0334    2.1422    1.0246 H   0  0  0  0  0  0  0  0  0  0  0  0
   -2.5007    3.8958   -0.2039 H   0  0  0  0  0  0  0  0  0  0  0  0
   -2.2980    3.5826    1.5519 H   0  0  0  0  0  0  0  0  0  0  0  0
   -0.5392    4.3473    2.4961 H   0  0  0  0  0  0  0  0  0  0  0  0
    1.4419    5.6351    3.0946 H   0  0  0  0  0  0  0  0  0  0  0  0
    3.4627    5.5652    1.6701 H   0  0  0  0  0  0  0  0  0  0  0  0
    3.4917    4.2024   -0.3786 H   0  0  0  0  0  0  0  0  0  0  0  0
    1.0527    0.8548   -2.3545 H   0  0  0  0  0  0  0  0  0  0  0  0
    1.3559    0.9804    0.6755 H   0  0  0  0  0  0  0  0  0  0  0  0
    5.4652   -0.7299    0.1122 H   0  0  0  0  0  0  0  0  0  0  0  0
    4.9682    0.9261    0.6742 H   0  0  0  0  0  0  0  0  0  0  0  0
    5.9276   -1.4373    2.2705 H   0  0  0  0  0  0  0  0  0  0  0  0
    5.9686    0.3215    2.6996 H   0  0  0  0  0  0  0  0  0  0  0  0
    3.8143    0.2671    3.6045 H   0  0  0  0  0  0  0  0  0  0  0  0
    4.2026   -1.4817    3.8758 H   0  0  0  0  0  0  0  0  0  0  0  0
    2.0349   -0.5133    2.3681 H   0  0  0  0  0  0  0  0  0  0  0  0
    2.3557   -2.9215    2.9978 H   0  0  0  0  0  0  0  0  0  0  0  0
    1.9162   -2.7517    1.2566 H   0  0  0  0  0  0  0  0  0  0  0  0
    3.6117   -4.1789    1.4607 H   0  0  0  0  0  0  0  0  0  0  0  0
   -0.7381    0.0186    0.0903 H   0  0  0  0  0  0  0  0  0  0  0  0
    0.2942   -1.2631    0.7173 H   0  0  0  0  0  0  0  0  0  0  0  0
   -1.0350   -1.5209   -3.2801 H   0  0  0  0  0  0  0  0  0  0  0  0
   -3.1334   -0.7301   -2.8567 H   0  0  0  0  0  0  0  0  0  0  0  0
   -2.5825   -1.2754    0.1370 H   0  0  0  0  0  0  0  0  0  0  0  0
   -4.1641   -1.0331   -0.6325 H   0  0  0  0  0  0  0  0  0  0  0  0
   -1.5555   -3.4655    0.0929 H   0  0  0  0  0  0  0  0  0  0  0  0
   -1.6471   -5.8463   -0.5606 H   0  0  0  0  0  0  0  0  0  0  0  0
   -3.3624   -6.6328   -2.1674 H   0  0  0  0  0  0  0  0  0  0  0  0
   -5.0032   -5.0359   -3.1168 H   0  0  0  0  0  0  0  0  0  0  0  0
   -4.9158   -2.6495   -2.4887 H   0  0  0  0  0  0  0  0  0  0  0  0
  1  2  1  0
  2  3  1  0
  3  4  1  0
  4  5  1  0
  5  6  1  0
  6  7  2  0
  7  8  1  0
  8  9  2  0
  9 10  1  0
 10 11  2  0
 11 12  1  0
 12 13  2  0
 12 14  1  0
 14 15  1  0
 15 16  1  0
 16 17  2  0
 16 18  1  0
 18 19  1  0
 19 20  1  0
 20 21  1  0
 21 22  1  0
 22 23  1  0
 23 24  1  0
 15 25  1  0
 25 26  1  0
 26 27  2  0
 26 28  1  0
 28 29  1  0
 29 30  1  0
 30 31  1  0
 31 32  2  0
 32 33  1  0
 33 34  2  0
 34 35  1  0
 35 36  2  0
 29 37  1  0
 37 38  2  0
 37  2  1  0
 11  6  1  0
 22 18  1  0
 36 31  1  0
  1 39  1  0
  1 40  1  0
  1 41  1  0
  3 42  1  0
  3 43  1  0
  4 44  1  0
  4 45  1  0
  7 46  1  0
  8 47  1  0
  9 48  1  0
 10 49  1  0
 14 50  1  0
 15 51  1  0
 19 52  1  0
 19 53  1  0
 20 54  1  0
 20 55  1  0
 21 56  1  0
 21 57  1  0
 22 58  1  0
 23 59  1  0
 23 60  1  0
 24 61  1  0
 25 62  1  0
 25 63  1  0
 28 64  1  0
 29 65  1  0
 30 66  1  0
 30 67  1  0
 32 68  1  0
 33 69  1  0
 34 70  1  0
 35 71  1  0
 36 72  1  0
M  END
$$$$
