
     RDKit          3D

 59 61  0  0  0  0  0  0  0  0999 V2000
   -6.2116   -1.9231    0.6398 C   0  0  0  0  0  0  0  0  0  0  0  0
   -5.3919   -1.8650   -0.6388 C   0  0  0  0  0  0  0  0  0  0  0  0
   -4.0061   -1.8225   -0.3109 O   0  0  0  0  0  0  0  0  0  0  0  0
   -2.9663   -1.7402   -1.2501 C   0  0  0  0  0  0  0  0  0  0  0  0
   -3.2111   -1.7232   -2.6344 C   0  0  0  0  0  0  0  0  0  0  0  0
   -2.1498   -1.6523   -3.5343 C   0  0  0  0  0  0  0  0  0  0  0  0
   -0.8376   -1.5953   -3.0683 C   0  0  0  0  0  0  0  0  0  0  0  0
   -0.5642   -1.5810   -1.6893 C   0  0  0  0  0  0  0  0  0  0  0  0
   -1.6463   -1.6658   -0.7752 C   0  0  0  0  0  0  0  0  0  0  0  0
   -1.4448   -1.7120    0.6107 O   0  0  0  0  0  0  0  0  0  0  0  0
   -1.0042   -0.5840    1.3601 C   0  0  0  0  0  0  0  0  0  0  0  0
   -2.0928    0.4988    1.4125 C   0  0  0  0  0  0  0  0  0  0  0  0
   -1.5835    1.8493    1.9543 C   0  0  0  0  0  0  0  0  0  0  0  0
   -0.3449    2.4265    1.2363 C   0  0  0  0  0  0  0  0  0  0  0  0
   -0.4915    2.4945   -0.2897 C   0  0  0  0  0  0  0  0  0  0  0  0
    0.7642    2.9436   -0.8907 N   0  0  0  0  0  0  0  0  0  0  0  0
    1.5874    2.1646   -1.7784 C   0  0  0  0  0  0  0  0  0  0  0  0
    2.6596    2.6712   -2.2051 O   0  0  0  0  0  0  0  0  0  0  0  0
    1.2265    0.7646   -2.2256 C   0  0  0  0  0  0  0  0  0  0  0  0
    1.5205   -0.2496   -1.1898 N   0  0  0  0  0  0  0  0  0  0  0  0
    2.8182   -0.2012   -0.5549 C   0  0  0  0  0  0  0  0  0  0  0  0
    3.8196    0.1959   -1.2130 O   0  0  0  0  0  0  0  0  0  0  0  0
    3.0170   -0.7103    0.8485 C   0  0  0  0  0  0  0  0  0  0  0  0
    4.1166    0.0374    1.5571 C   0  0  0  0  0  0  0  0  0  0  0  0
    5.3970   -0.5211    1.6848 C   0  0  0  0  0  0  0  0  0  0  0  0
    6.4114    0.1969    2.3210 C   0  0  0  0  0  0  0  0  0  0  0  0
    6.1390    1.4734    2.8163 C   0  0  0  0  0  0  0  0  0  0  0  0
    4.8975    2.0082    2.6739 N   0  0  0  0  0  0  0  0  0  0  0  0
    3.8921    1.3281    2.0603 C   0  0  0  0  0  0  0  0  0  0  0  0
    0.8850   -1.5868   -1.2390 C   0  0  0  0  0  0  0  0  0  0  0  0
   -6.0087   -1.0250    1.2610 H   0  0  0  0  0  0  0  0  0  0  0  0
   -5.9477   -2.8336    1.2185 H   0  0  0  0  0  0  0  0  0  0  0  0
   -7.2932   -1.9538    0.3912 H   0  0  0  0  0  0  0  0  0  0  0  0
   -5.6723   -0.9526   -1.2087 H   0  0  0  0  0  0  0  0  0  0  0  0
   -5.6068   -2.7674   -1.2512 H   0  0  0  0  0  0  0  0  0  0  0  0
   -4.2181   -1.7728   -3.0253 H   0  0  0  0  0  0  0  0  0  0  0  0
   -2.3444   -1.6502   -4.5989 H   0  0  0  0  0  0  0  0  0  0  0  0
   -0.0275   -1.5591   -3.7866 H   0  0  0  0  0  0  0  0  0  0  0  0
   -0.0853   -0.1943    0.8994 H   0  0  0  0  0  0  0  0  0  0  0  0
   -0.7584   -0.9094    2.3928 H   0  0  0  0  0  0  0  0  0  0  0  0
   -2.5386    0.6531    0.4081 H   0  0  0  0  0  0  0  0  0  0  0  0
   -2.9164    0.1402    2.0671 H   0  0  0  0  0  0  0  0  0  0  0  0
   -1.3406    1.7331    3.0328 H   0  0  0  0  0  0  0  0  0  0  0  0
   -2.4118    2.5873    1.8832 H   0  0  0  0  0  0  0  0  0  0  0  0
   -0.1667    3.4537    1.6224 H   0  0  0  0  0  0  0  0  0  0  0  0
    0.5541    1.8336    1.5020 H   0  0  0  0  0  0  0  0  0  0  0  0
   -0.7832    1.5107   -0.6923 H   0  0  0  0  0  0  0  0  0  0  0  0
   -1.2957    3.2153   -0.5506 H   0  0  0  0  0  0  0  0  0  0  0  0
    1.0953    3.9036   -0.6420 H   0  0  0  0  0  0  0  0  0  0  0  0
    1.7972    0.5113   -3.1457 H   0  0  0  0  0  0  0  0  0  0  0  0
    0.1603    0.7643   -2.5161 H   0  0  0  0  0  0  0  0  0  0  0  0
    2.0813   -0.5968    1.4310 H   0  0  0  0  0  0  0  0  0  0  0  0
    3.2502   -1.7959    0.8060 H   0  0  0  0  0  0  0  0  0  0  0  0
    5.6094   -1.5079    1.2927 H   0  0  0  0  0  0  0  0  0  0  0  0
    7.3999   -0.2306    2.4268 H   0  0  0  0  0  0  0  0  0  0  0  0
    6.9160    2.0413    3.3102 H   0  0  0  0  0  0  0  0  0  0  0  0
    2.9214    1.7941    1.9614 H   0  0  0  0  0  0  0  0  0  0  0  0
    1.4728   -2.2304   -1.9300 H   0  0  0  0  0  0  0  0  0  0  0  0
    0.9522   -2.0813   -0.2473 H   0  0  0  0  0  0  0  0  0  0  0  0
  1  2  1  0
  2  3  1  0
  3  4  1  0
  4  5  2  0
  5  6  1  0
  6  7  2  0
  7  8  1  0
  8  9  2  0
  9 10  1  0
 10 11  1  0
 11 12  1  0
 12 13  1  0
 13 14  1  0
 14 15  1  0
 15 16  1  0
 16 17  1  0
 17 18  2  0
 17 19  1  0
 19 20  1  0
 20 21  1  0
 21 22  2  0
 21 23  1  0
 23 24  1  0
 24 25  2  0
 25 26  1  0
 26 27  2  0
 27 28  1  0
 28 29  2  0
 20 30  1  0
  9  4  1  0
 29 24  1  0
 30  8  1  0
  1 31  1  0
  1 32  1  0
  1 33  1  0
  2 34  1  0
  2 35  1  0
  5 36  1  0
  6 37  1  0
  7 38  1  0
 11 39  1  0
 11 40  1  0
 12 41  1  0
 12 42  1  0
 13 43  1  0
 13 44  1  0
 14 45  1  0
 14 46  1  0
 15 47  1  0
 15 48  1  0
 16 49  1  0
 19 50  1  0
 19 51  1  0
 23 52  1  0
 23 53  1  0
 25 54  1  0
 26 55  1  0
 27 56  1  0
 29 57  1  0
 30 58  1  0
 30 59  1  0
M  END
$$$$
