
     RDKit          3D

 58 61  0  0  0  0  0  0  0  0999 V2000
    6.3438   -0.9107    3.1670 C   0  0  0  0  0  0  0  0  0  0  0  0
    5.5947   -0.0053    2.3046 N   0  0  0  0  0  0  0  0  0  0  0  0
    4.8721   -0.3632    1.2271 C   0  0  0  0  0  0  0  0  0  0  0  0
    4.2636    0.7746    0.7238 C   0  0  0  0  0  0  0  0  0  0  0  0
    3.4051    0.9407   -0.4711 C   0  0  0  0  0  0  0  0  0  0  0  0
    3.4301    2.0652   -1.0432 O   0  0  0  0  0  0  0  0  0  0  0  0
    2.5098   -0.0895   -0.9639 N   0  0  0  0  0  0  0  0  0  0  0  0
    2.3127   -1.3632   -0.2614 C   0  0  0  0  0  0  0  0  0  0  0  0
    1.0230   -2.0398   -0.7338 C   0  0  0  0  0  0  0  0  0  0  0  0
   -0.0305   -1.0975   -0.7810 O   0  0  0  0  0  0  0  0  0  0  0  0
    0.1545   -0.0926   -1.7787 C   0  0  0  0  0  0  0  0  0  0  0  0
   -0.4682    1.2277   -1.2396 C   0  0  0  0  0  0  0  0  0  0  0  0
   -0.0141    1.6102    0.1906 C   0  0  0  0  0  0  0  0  0  0  0  0
   -1.1949    1.9301    1.1218 C   0  0  0  0  0  0  0  0  0  0  0  0
   -1.9926    0.6699    1.5356 C   0  0  0  0  0  0  0  0  0  0  0  0
   -3.4253    0.7265    1.0561 C   0  0  0  0  0  0  0  0  0  0  0  0
   -4.3336    1.5518    1.7421 C   0  0  0  0  0  0  0  0  0  0  0  0
   -5.6615    1.6457    1.3271 C   0  0  0  0  0  0  0  0  0  0  0  0
   -6.0981    0.9223    0.2183 C   0  0  0  0  0  0  0  0  0  0  0  0
   -5.2088    0.1021   -0.4788 C   0  0  0  0  0  0  0  0  0  0  0  0
   -3.8635   -0.0090   -0.0700 C   0  0  0  0  0  0  0  0  0  0  0  0
   -2.9534   -0.8354   -0.7544 O   0  0  0  0  0  0  0  0  0  0  0  0
   -3.2875   -1.6415   -1.8834 C   0  0  0  0  0  0  0  0  0  0  0  0
   -2.0805   -2.4718   -2.3269 C   0  0  0  0  0  0  0  0  0  0  0  0
   -1.2216   -1.7466   -3.2706 N   0  0  0  0  0  0  0  0  0  0  0  0
   -0.5926   -0.4688   -3.0551 C   0  0  0  0  0  0  0  0  0  0  0  0
   -0.5833    0.3521   -4.0134 O   0  0  0  0  0  0  0  0  0  0  0  0
    1.6608    0.1557   -2.1381 C   0  0  0  0  0  0  0  0  0  0  0  0
    4.6884    1.7983    1.5545 C   0  0  0  0  0  0  0  0  0  0  0  0
    5.4855    1.2960    2.5176 N   0  0  0  0  0  0  0  0  0  0  0  0
    5.6492   -1.4092    3.8696 H   0  0  0  0  0  0  0  0  0  0  0  0
    7.1026   -0.3465    3.7484 H   0  0  0  0  0  0  0  0  0  0  0  0
    6.8613   -1.6775    2.5559 H   0  0  0  0  0  0  0  0  0  0  0  0
    4.8314   -1.3682    0.8354 H   0  0  0  0  0  0  0  0  0  0  0  0
    2.2270   -1.1811    0.8314 H   0  0  0  0  0  0  0  0  0  0  0  0
    3.1634   -2.0428   -0.4693 H   0  0  0  0  0  0  0  0  0  0  0  0
    1.1661   -2.5234   -1.7265 H   0  0  0  0  0  0  0  0  0  0  0  0
    0.7506   -2.8416   -0.0154 H   0  0  0  0  0  0  0  0  0  0  0  0
   -0.2227    2.0705   -1.9247 H   0  0  0  0  0  0  0  0  0  0  0  0
   -1.5738    1.1539   -1.2804 H   0  0  0  0  0  0  0  0  0  0  0  0
    0.6334    2.5120    0.1261 H   0  0  0  0  0  0  0  0  0  0  0  0
    0.6046    0.8218    0.6652 H   0  0  0  0  0  0  0  0  0  0  0  0
   -0.7855    2.4052    2.0412 H   0  0  0  0  0  0  0  0  0  0  0  0
   -1.8482    2.6937    0.6417 H   0  0  0  0  0  0  0  0  0  0  0  0
   -1.4986   -0.2609    1.1880 H   0  0  0  0  0  0  0  0  0  0  0  0
   -1.9968    0.5943    2.6463 H   0  0  0  0  0  0  0  0  0  0  0  0
   -4.0096    2.1245    2.6022 H   0  0  0  0  0  0  0  0  0  0  0  0
   -6.3529    2.2831    1.8643 H   0  0  0  0  0  0  0  0  0  0  0  0
   -7.1293    0.9981   -0.1029 H   0  0  0  0  0  0  0  0  0  0  0  0
   -5.5802   -0.4422   -1.3359 H   0  0  0  0  0  0  0  0  0  0  0  0
   -4.1005   -2.3404   -1.5937 H   0  0  0  0  0  0  0  0  0  0  0  0
   -3.6403   -1.0009   -2.7195 H   0  0  0  0  0  0  0  0  0  0  0  0
   -2.4686   -3.3780   -2.8419 H   0  0  0  0  0  0  0  0  0  0  0  0
   -1.5097   -2.8487   -1.4572 H   0  0  0  0  0  0  0  0  0  0  0  0
   -1.2252   -2.0973   -4.2561 H   0  0  0  0  0  0  0  0  0  0  0  0
    1.8097    1.1706   -2.5638 H   0  0  0  0  0  0  0  0  0  0  0  0
    1.9813   -0.5490   -2.9376 H   0  0  0  0  0  0  0  0  0  0  0  0
    4.4270    2.8460    1.4674 H   0  0  0  0  0  0  0  0  0  0  0  0
  1  2  1  0
  2  3  1  0
  3  4  2  0
  4  5  1  0
  5  6  2  0
  5  7  1  0
  7  8  1  0
  8  9  1  0
  9 10  1  0
 10 11  1  0
 11 12  1  0
 12 13  1  0
 13 14  1  0
 14 15  1  0
 15 16  1  0
 16 17  2  0
 17 18  1  0
 18 19  2  0
 19 20  1  0
 20 21  2  0
 21 22  1  0
 22 23  1  0
 23 24  1  0
 24 25  1  0
 25 26  1  0
 26 27  2  0
 11 28  1  0
  4 29  1  0
 29 30  2  0
 30  2  1  0
 28  7  1  0
 26 11  1  0
 21 16  1  0
  1 31  1  0
  1 32  1  0
  1 33  1  0
  3 34  1  0
  8 35  1  0
  8 36  1  0
  9 37  1  0
  9 38  1  0
 12 39  1  0
 12 40  1  0
 13 41  1  0
 13 42  1  0
 14 43  1  0
 14 44  1  0
 15 45  1  0
 15 46  1  0
 17 47  1  0
 18 48  1  0
 19 49  1  0
 20 50  1  0
 23 51  1  0
 23 52  1  0
 24 53  1  0
 24 54  1  0
 25 55  1  0
 28 56  1  0
 28 57  1  0
 29 58  1  0
M  END
$$$$
