
     RDKit          3D

 77 79  0  0  0  0  0  0  0  0999 V2000
   -2.9005   -2.9692    0.1690 C   0  0  0  0  0  0  0  0  0  0  0  0
   -3.2364   -1.6600   -0.5749 C   0  0  0  0  0  0  0  0  0  0  0  0
   -3.9812   -1.9296   -1.8872 C   0  0  0  0  0  0  0  0  0  0  0  0
   -3.9470   -0.6268    0.2470 N   0  0  0  0  0  0  0  0  0  0  0  0
   -5.0074   -1.1463    1.1597 C   0  0  0  0  0  0  0  0  0  0  0  0
   -6.1775   -1.7769    0.4434 C   0  0  0  0  0  0  0  0  0  0  0  0
   -6.2435   -3.0313    0.3527 O   0  0  0  0  0  0  0  0  0  0  0  0
   -7.2154   -0.9868   -0.1487 N   0  0  0  0  0  0  0  0  0  0  0  0
   -8.0689   -0.1003    0.6406 C   0  0  0  0  0  0  0  0  0  0  0  0
   -8.3390    1.2222   -0.0979 C   0  0  0  0  0  0  0  0  0  0  0  0
   -7.1502    2.1971   -0.0335 C   0  0  0  0  0  0  0  0  0  0  0  0
   -6.0774    1.8830   -1.0877 C   0  0  0  0  0  0  0  0  0  0  0  0
   -4.7276    2.5070   -0.7407 C   0  0  0  0  0  0  0  0  0  0  0  0
   -3.7052    1.7480   -1.3736 O   0  0  0  0  0  0  0  0  0  0  0  0
   -2.3897    1.7430   -0.9163 C   0  0  0  0  0  0  0  0  0  0  0  0
   -1.4383    2.4838   -1.6238 C   0  0  0  0  0  0  0  0  0  0  0  0
   -0.1072    2.5047   -1.2119 C   0  0  0  0  0  0  0  0  0  0  0  0
    0.2943    1.7758   -0.0857 C   0  0  0  0  0  0  0  0  0  0  0  0
    1.7398    1.7754    0.3346 C   0  0  0  0  0  0  0  0  0  0  0  0
    2.5494    0.8044   -0.5307 C   0  0  0  0  0  0  0  0  0  0  0  0
    3.9817    0.7419   -0.0832 C   0  0  0  0  0  0  0  0  0  0  0  0
    4.6596    1.8039   -0.0228 O   0  0  0  0  0  0  0  0  0  0  0  0
    4.5849   -0.5220    0.2386 N   0  0  0  0  0  0  0  0  0  0  0  0
    5.9935   -0.6425    0.6338 C   0  0  0  0  0  0  0  0  0  0  0  0
    6.2082   -1.9732    1.3804 C   0  0  0  0  0  0  0  0  0  0  0  0
    7.4412   -1.9689    2.0459 O   0  0  0  0  0  0  0  0  0  0  0  0
    6.8851   -0.5296   -0.6236 C   0  0  0  0  0  0  0  0  0  0  0  0
    8.3519   -0.4392   -0.2884 C   0  0  0  0  0  0  0  0  0  0  0  0
    9.1976   -1.5430   -0.4923 C   0  0  0  0  0  0  0  0  0  0  0  0
   10.5539   -1.4606   -0.1621 C   0  0  0  0  0  0  0  0  0  0  0  0
   11.0738   -0.2790    0.3755 C   0  0  0  0  0  0  0  0  0  0  0  0
   10.2383    0.8224    0.5827 C   0  0  0  0  0  0  0  0  0  0  0  0
    8.8820    0.7453    0.2514 C   0  0  0  0  0  0  0  0  0  0  0  0
   -0.6513    1.0116    0.6141 C   0  0  0  0  0  0  0  0  0  0  0  0
   -2.0002    0.9831    0.2122 C   0  0  0  0  0  0  0  0  0  0  0  0
   -2.9891    0.1810    1.0470 C   0  0  0  0  0  0  0  0  0  0  0  0
   -3.8055   -3.5757    0.3704 H   0  0  0  0  0  0  0  0  0  0  0  0
   -2.2172   -3.5882   -0.4521 H   0  0  0  0  0  0  0  0  0  0  0  0
   -2.3831   -2.7494    1.1268 H   0  0  0  0  0  0  0  0  0  0  0  0
   -2.2533   -1.2602   -0.9067 H   0  0  0  0  0  0  0  0  0  0  0  0
   -4.2272   -0.9684   -2.3854 H   0  0  0  0  0  0  0  0  0  0  0  0
   -3.3404   -2.5236   -2.5711 H   0  0  0  0  0  0  0  0  0  0  0  0
   -4.9144   -2.4972   -1.7316 H   0  0  0  0  0  0  0  0  0  0  0  0
   -5.4133   -0.3111    1.7678 H   0  0  0  0  0  0  0  0  0  0  0  0
   -4.5832   -1.8660    1.8933 H   0  0  0  0  0  0  0  0  0  0  0  0
   -7.5935   -1.3103   -1.0690 H   0  0  0  0  0  0  0  0  0  0  0  0
   -9.0385   -0.6155    0.8115 H   0  0  0  0  0  0  0  0  0  0  0  0
   -7.6334    0.0993    1.6419 H   0  0  0  0  0  0  0  0  0  0  0  0
   -8.6314    1.0278   -1.1546 H   0  0  0  0  0  0  0  0  0  0  0  0
   -9.2079    1.7112    0.3955 H   0  0  0  0  0  0  0  0  0  0  0  0
   -7.5230    3.2296   -0.2175 H   0  0  0  0  0  0  0  0  0  0  0  0
   -6.7240    2.1839    0.9937 H   0  0  0  0  0  0  0  0  0  0  0  0
   -6.4092    2.2447   -2.0853 H   0  0  0  0  0  0  0  0  0  0  0  0
   -5.9309    0.7908   -1.1741 H   0  0  0  0  0  0  0  0  0  0  0  0
   -4.5657    2.5120    0.3580 H   0  0  0  0  0  0  0  0  0  0  0  0
   -4.6879    3.5580   -1.0985 H   0  0  0  0  0  0  0  0  0  0  0  0
   -1.7364    3.0505   -2.4966 H   0  0  0  0  0  0  0  0  0  0  0  0
    0.6128    3.0867   -1.7744 H   0  0  0  0  0  0  0  0  0  0  0  0
    2.1504    2.8042    0.2334 H   0  0  0  0  0  0  0  0  0  0  0  0
    1.8296    1.4864    1.4053 H   0  0  0  0  0  0  0  0  0  0  0  0
    2.5251    1.1332   -1.5918 H   0  0  0  0  0  0  0  0  0  0  0  0
    2.0874   -0.2059   -0.4762 H   0  0  0  0  0  0  0  0  0  0  0  0
    3.9975   -1.3862    0.1748 H   0  0  0  0  0  0  0  0  0  0  0  0
    6.2342    0.1859    1.3381 H   0  0  0  0  0  0  0  0  0  0  0  0
    5.3978   -2.1030    2.1335 H   0  0  0  0  0  0  0  0  0  0  0  0
    6.1614   -2.8231    0.6623 H   0  0  0  0  0  0  0  0  0  0  0  0
    7.5430   -2.8732    2.4453 H   0  0  0  0  0  0  0  0  0  0  0  0
    6.6068    0.3809   -1.1961 H   0  0  0  0  0  0  0  0  0  0  0  0
    6.6895   -1.3922   -1.2987 H   0  0  0  0  0  0  0  0  0  0  0  0
    8.8052   -2.4674   -0.8991 H   0  0  0  0  0  0  0  0  0  0  0  0
   11.2014   -2.3132   -0.3210 H   0  0  0  0  0  0  0  0  0  0  0  0
   12.1238   -0.2171    0.6324 H   0  0  0  0  0  0  0  0  0  0  0  0
   10.6420    1.7359    1.0023 H   0  0  0  0  0  0  0  0  0  0  0  0
    8.2436    1.6046    0.4182 H   0  0  0  0  0  0  0  0  0  0  0  0
   -0.3341    0.4407    1.4787 H   0  0  0  0  0  0  0  0  0  0  0  0
   -2.4469   -0.4830    1.7554 H   0  0  0  0  0  0  0  0  0  0  0  0
   -3.5335    0.9150    1.6785 H   0  0  0  0  0  0  0  0  0  0  0  0
  1  2  1  0
  2  3  1  0
  2  4  1  0
  4  5  1  0
  5  6  1  0
  6  7  2  0
  6  8  1  0
  8  9  1  0
  9 10  1  0
 10 11  1  0
 11 12  1  0
 12 13  1  0
 13 14  1  0
 14 15  1  0
 15 16  2  0
 16 17  1  0
 17 18  2  0
 18 19  1  0
 19 20  1  0
 20 21  1  0
 21 22  2  0
 21 23  1  0
 23 24  1  0
 24 25  1  0
 25 26  1  0
 24 27  1  0
 27 28  1  0
 28 29  2  0
 29 30  1  0
 30 31  2  0
 31 32  1  0
 32 33  2  0
 18 34  1  0
 34 35  2  0
 35 36  1  0
 36  4  1  0
 35 15  1  0
 33 28  1  0
  1 37  1  0
  1 38  1  0
  1 39  1  0
  2 40  1  0
  3 41  1  0
  3 42  1  0
  3 43  1  0
  5 44  1  0
  5 45  1  0
  8 46  1  0
  9 47  1  0
  9 48  1  0
 10 49  1  0
 10 50  1  0
 11 51  1  0
 11 52  1  0
 12 53  1  0
 12 54  1  0
 13 55  1  0
 13 56  1  0
 16 57  1  0
 17 58  1  0
 19 59  1  0
 19 60  1  0
 20 61  1  0
 20 62  1  0
 23 63  1  0
 24 64  1  0
 25 65  1  0
 25 66  1  0
 26 67  1  0
 27 68  1  0
 27 69  1  0
 29 70  1  0
 30 71  1  0
 31 72  1  0
 32 73  1  0
 33 74  1  0
 34 75  1  0
 36 76  1  0
 36 77  1  0
M  END
$$$$
