
     RDKit          3D

 79 83  0  0  0  0  0  0  0  0999 V2000
    0.1921    5.7472    1.2837 C   0  0  0  0  0  0  0  0  0  0  0  0
   -0.0891    4.3806    1.9027 C   0  0  0  0  0  0  0  0  0  0  0  0
   -0.6918    3.4192    0.8726 C   0  0  0  0  0  0  0  0  0  0  0  0
   -0.9679    2.0465    1.5040 C   0  0  0  0  0  0  0  0  0  0  0  0
   -1.5228    1.0995    0.5248 N   0  0  0  0  0  0  0  0  0  0  0  0
   -2.9381    1.2191    0.1381 C   0  0  0  0  0  0  0  0  0  0  0  0
   -3.8241    0.2132    0.8823 C   0  0  0  0  0  0  0  0  0  0  0  0
   -3.9788   -0.9740    0.1025 O   0  0  0  0  0  0  0  0  0  0  0  0
   -5.1555   -1.7308   -0.0507 C   0  0  0  0  0  0  0  0  0  0  0  0
   -6.4413   -1.1620    0.0658 C   0  0  0  0  0  0  0  0  0  0  0  0
   -7.5823   -1.9442   -0.1329 C   0  0  0  0  0  0  0  0  0  0  0  0
   -7.4591   -3.2944   -0.4564 C   0  0  0  0  0  0  0  0  0  0  0  0
   -6.1947   -3.8696   -0.5874 C   0  0  0  0  0  0  0  0  0  0  0  0
   -5.0389   -3.0997   -0.3804 C   0  0  0  0  0  0  0  0  0  0  0  0
   -3.6813   -3.7380   -0.5300 C   0  0  0  0  0  0  0  0  0  0  0  0
   -3.0682   -3.4629   -1.9195 C   0  0  0  0  0  0  0  0  0  0  0  0
   -1.5708   -3.0939   -1.8510 C   0  0  0  0  0  0  0  0  0  0  0  0
   -1.3129   -1.5693   -1.6876 C   0  0  0  0  0  0  0  0  0  0  0  0
   -0.5925   -1.1625   -0.3714 C   0  0  0  0  0  0  0  0  0  0  0  0
    0.8776   -1.6782   -0.4201 C   0  0  0  0  0  0  0  0  0  0  0  0
    1.4927   -1.5554    0.9002 N   0  0  0  0  0  0  0  0  0  0  0  0
    2.8790   -1.2017    1.0623 C   0  0  0  0  0  0  0  0  0  0  0  0
    3.5657   -1.7723    1.9530 O   0  0  0  0  0  0  0  0  0  0  0  0
    3.5310   -0.1856    0.1615 C   0  0  0  0  0  0  0  0  0  0  0  0
    4.6053    0.6284    0.8906 C   0  0  0  0  0  0  0  0  0  0  0  0
    5.1811    1.6226   -0.0130 N   0  0  0  0  0  0  0  0  0  0  0  0
    4.7769    2.9065   -0.1757 C   0  0  0  0  0  0  0  0  0  0  0  0
    5.4632    3.5656   -1.1457 N   0  0  0  0  0  0  0  0  0  0  0  0
    6.3200    2.6307   -1.6002 C   0  0  0  0  0  0  0  0  0  0  0  0
    7.2602    2.7634   -2.6193 C   0  0  0  0  0  0  0  0  0  0  0  0
    8.0398    1.6371   -2.9413 C   0  0  0  0  0  0  0  0  0  0  0  0
    7.8592    0.4183   -2.2474 C   0  0  0  0  0  0  0  0  0  0  0  0
    6.8986    0.3161   -1.2242 C   0  0  0  0  0  0  0  0  0  0  0  0
    6.1497    1.4562   -0.9270 C   0  0  0  0  0  0  0  0  0  0  0  0
    0.7442   -2.1436    2.0044 C   0  0  0  0  0  0  0  0  0  0  0  0
   -0.6805   -1.5994    1.9806 C   0  0  0  0  0  0  0  0  0  0  0  0
   -1.3076   -1.7467    0.7151 O   0  0  0  0  0  0  0  0  0  0  0  0
   -0.6041    0.3653   -0.3069 C   0  0  0  0  0  0  0  0  0  0  0  0
    0.1822    1.0123   -1.0520 O   0  0  0  0  0  0  0  0  0  0  0  0
    0.6328    6.4202    2.0492 H   0  0  0  0  0  0  0  0  0  0  0  0
   -0.7499    6.2022    0.9095 H   0  0  0  0  0  0  0  0  0  0  0  0
    0.9130    5.6479    0.4430 H   0  0  0  0  0  0  0  0  0  0  0  0
    0.8631    3.9616    2.2950 H   0  0  0  0  0  0  0  0  0  0  0  0
   -0.7933    4.5089    2.7532 H   0  0  0  0  0  0  0  0  0  0  0  0
   -1.6369    3.8514    0.4799 H   0  0  0  0  0  0  0  0  0  0  0  0
    0.0205    3.3077    0.0276 H   0  0  0  0  0  0  0  0  0  0  0  0
   -1.6800    2.1582    2.3505 H   0  0  0  0  0  0  0  0  0  0  0  0
   -0.0169    1.6447    1.9189 H   0  0  0  0  0  0  0  0  0  0  0  0
   -3.3056    2.2410    0.3805 H   0  0  0  0  0  0  0  0  0  0  0  0
   -3.0562    1.1089   -0.9625 H   0  0  0  0  0  0  0  0  0  0  0  0
   -3.3773   -0.0503    1.8651 H   0  0  0  0  0  0  0  0  0  0  0  0
   -4.7958    0.6983    1.0963 H   0  0  0  0  0  0  0  0  0  0  0  0
   -6.5826   -0.1117    0.2645 H   0  0  0  0  0  0  0  0  0  0  0  0
   -8.5649   -1.4985   -0.0466 H   0  0  0  0  0  0  0  0  0  0  0  0
   -8.3446   -3.8959   -0.6110 H   0  0  0  0  0  0  0  0  0  0  0  0
   -6.1168   -4.9175   -0.8489 H   0  0  0  0  0  0  0  0  0  0  0  0
   -3.0306   -3.3799    0.2907 H   0  0  0  0  0  0  0  0  0  0  0  0
   -3.7570   -4.8374   -0.3774 H   0  0  0  0  0  0  0  0  0  0  0  0
   -3.6306   -2.6787   -2.4732 H   0  0  0  0  0  0  0  0  0  0  0  0
   -3.1712   -4.3901   -2.5256 H   0  0  0  0  0  0  0  0  0  0  0  0
   -1.0796   -3.6912   -1.0546 H   0  0  0  0  0  0  0  0  0  0  0  0
   -1.0997   -3.4177   -2.8053 H   0  0  0  0  0  0  0  0  0  0  0  0
   -2.2686   -1.0129   -1.7715 H   0  0  0  0  0  0  0  0  0  0  0  0
   -0.7035   -1.2228   -2.5526 H   0  0  0  0  0  0  0  0  0  0  0  0
    0.9148   -2.7474   -0.7111 H   0  0  0  0  0  0  0  0  0  0  0  0
    1.4585   -1.1378   -1.1970 H   0  0  0  0  0  0  0  0  0  0  0  0
    2.7623    0.5228   -0.2174 H   0  0  0  0  0  0  0  0  0  0  0  0
    3.9859   -0.7145   -0.7037 H   0  0  0  0  0  0  0  0  0  0  0  0
    4.1548    1.1414    1.7701 H   0  0  0  0  0  0  0  0  0  0  0  0
    5.4097   -0.0426    1.2664 H   0  0  0  0  0  0  0  0  0  0  0  0
    3.9789    3.3604    0.3981 H   0  0  0  0  0  0  0  0  0  0  0  0
    7.3862    3.6999   -3.1478 H   0  0  0  0  0  0  0  0  0  0  0  0
    8.7828    1.7028   -3.7249 H   0  0  0  0  0  0  0  0  0  0  0  0
    8.4644   -0.4414   -2.5043 H   0  0  0  0  0  0  0  0  0  0  0  0
    6.7509   -0.6147   -0.6942 H   0  0  0  0  0  0  0  0  0  0  0  0
    0.7292   -3.2492    1.8973 H   0  0  0  0  0  0  0  0  0  0  0  0
    1.2073   -1.8831    2.9811 H   0  0  0  0  0  0  0  0  0  0  0  0
   -1.2797   -2.1619    2.7270 H   0  0  0  0  0  0  0  0  0  0  0  0
   -0.6899   -0.5451    2.3133 H   0  0  0  0  0  0  0  0  0  0  0  0
  1  2  1  0
  2  3  1  0
  3  4  1  0
  4  5  1  0
  5  6  1  0
  6  7  1  0
  7  8  1  0
  8  9  1  0
  9 10  2  0
 10 11  1  0
 11 12  2  0
 12 13  1  0
 13 14  2  0
 14 15  1  0
 15 16  1  0
 16 17  1  0
 17 18  1  0
 18 19  1  0
 19 20  1  0
 20 21  1  0
 21 22  1  0
 22 23  2  0
 22 24  1  0
 24 25  1  0
 25 26  1  0
 26 27  1  0
 27 28  2  0
 28 29  1  0
 29 30  2  0
 30 31  1  0
 31 32  2  0
 32 33  1  0
 33 34  2  0
 21 35  1  0
 35 36  1  0
 36 37  1  0
 19 38  1  0
 38 39  2  0
 38  5  1  0
 14  9  1  0
 37 19  1  0
 34 26  1  0
 34 29  1  0
  1 40  1  0
  1 41  1  0
  1 42  1  0
  2 43  1  0
  2 44  1  0
  3 45  1  0
  3 46  1  0
  4 47  1  0
  4 48  1  0
  6 49  1  0
  6 50  1  0
  7 51  1  0
  7 52  1  0
 10 53  1  0
 11 54  1  0
 12 55  1  0
 13 56  1  0
 15 57  1  0
 15 58  1  0
 16 59  1  0
 16 60  1  0
 17 61  1  0
 17 62  1  0
 18 63  1  0
 18 64  1  0
 20 65  1  0
 20 66  1  0
 24 67  1  0
 24 68  1  0
 25 69  1  0
 25 70  1  0
 27 71  1  0
 30 72  1  0
 31 73  1  0
 32 74  1  0
 33 75  1  0
 35 76  1  0
 35 77  1  0
 36 78  1  0
 36 79  1  0
M  END
$$$$
