
     RDKit          3D

 71 74  0  0  0  0  0  0  0  0999 V2000
    6.3952    3.0495   -0.5953 C   0  0  0  0  0  0  0  0  0  0  0  0
    5.9301    1.7457   -0.9282 O   0  0  0  0  0  0  0  0  0  0  0  0
    6.4480    0.5530   -0.3964 C   0  0  0  0  0  0  0  0  0  0  0  0
    7.5635    0.5471    0.4660 C   0  0  0  0  0  0  0  0  0  0  0  0
    8.0545   -0.6556    0.9800 C   0  0  0  0  0  0  0  0  0  0  0  0
    7.4383   -1.8627    0.6461 C   0  0  0  0  0  0  0  0  0  0  0  0
    6.3347   -1.8717   -0.2091 C   0  0  0  0  0  0  0  0  0  0  0  0
    5.8344   -0.6709   -0.7392 C   0  0  0  0  0  0  0  0  0  0  0  0
    4.6237   -0.6941   -1.6363 C   0  0  0  0  0  0  0  0  0  0  0  0
    3.4582   -0.1828   -0.9213 N   0  0  0  0  0  0  0  0  0  0  0  0
    2.7930   -0.9320    0.1031 C   0  0  0  0  0  0  0  0  0  0  0  0
    3.1070   -2.1338    0.3195 O   0  0  0  0  0  0  0  0  0  0  0  0
    1.7273   -0.2819    0.9356 C   0  0  0  0  0  0  0  0  0  0  0  0
    0.5950    0.1771    0.1019 N   0  0  0  0  0  0  0  0  0  0  0  0
   -0.1110   -0.9218   -0.6134 C   0  0  0  0  0  0  0  0  0  0  0  0
   -0.5987   -2.0722    0.3034 C   0  0  0  0  0  0  0  0  0  0  0  0
   -1.6329   -3.0240   -0.3494 C   0  0  0  0  0  0  0  0  0  0  0  0
   -3.1117   -2.5047   -0.5553 C   0  0  0  0  0  0  0  0  0  0  0  0
   -3.3323   -2.1508   -2.0455 C   0  0  0  0  0  0  0  0  0  0  0  0
   -4.0975   -3.6388   -0.1895 C   0  0  0  0  0  0  0  0  0  0  0  0
   -3.4295   -1.2645    0.3160 C   0  0  0  0  0  0  0  0  0  0  0  0
   -4.7845   -0.8405    0.1722 O   0  0  0  0  0  0  0  0  0  0  0  0
   -5.3457    0.3154    0.7500 C   0  0  0  0  0  0  0  0  0  0  0  0
   -6.7445    0.3713    0.8251 C   0  0  0  0  0  0  0  0  0  0  0  0
   -7.3884    1.4763    1.3877 C   0  0  0  0  0  0  0  0  0  0  0  0
   -6.6416    2.5478    1.8761 C   0  0  0  0  0  0  0  0  0  0  0  0
   -5.2481    2.5203    1.7969 C   0  0  0  0  0  0  0  0  0  0  0  0
   -4.5884    1.4193    1.2322 C   0  0  0  0  0  0  0  0  0  0  0  0
   -3.1947    1.4496    1.1486 O   0  0  0  0  0  0  0  0  0  0  0  0
   -2.5123    2.1440    0.1395 C   0  0  0  0  0  0  0  0  0  0  0  0
   -3.1948    2.9781   -0.6950 N   0  0  0  0  0  0  0  0  0  0  0  0
   -2.5804    3.6595   -1.6964 C   0  0  0  0  0  0  0  0  0  0  0  0
   -1.2067    3.5232   -1.8935 C   0  0  0  0  0  0  0  0  0  0  0  0
   -0.4777    2.6755   -1.0597 C   0  0  0  0  0  0  0  0  0  0  0  0
   -1.1236    1.9588   -0.0392 C   0  0  0  0  0  0  0  0  0  0  0  0
   -0.3159    1.0607    0.8720 C   0  0  0  0  0  0  0  0  0  0  0  0
    7.4700    3.1535   -0.8511 H   0  0  0  0  0  0  0  0  0  0  0  0
    6.2383    3.2423    0.4864 H   0  0  0  0  0  0  0  0  0  0  0  0
    5.8204    3.7979   -1.1774 H   0  0  0  0  0  0  0  0  0  0  0  0
    8.0599    1.4678    0.7440 H   0  0  0  0  0  0  0  0  0  0  0  0
    8.9134   -0.6523    1.6404 H   0  0  0  0  0  0  0  0  0  0  0  0
    7.8204   -2.7929    1.0492 H   0  0  0  0  0  0  0  0  0  0  0  0
    5.8684   -2.8173   -0.4565 H   0  0  0  0  0  0  0  0  0  0  0  0
    4.8187   -0.0591   -2.5264 H   0  0  0  0  0  0  0  0  0  0  0  0
    4.4144   -1.7186   -2.0134 H   0  0  0  0  0  0  0  0  0  0  0  0
    3.1063    0.7738   -1.1577 H   0  0  0  0  0  0  0  0  0  0  0  0
    2.2086    0.5889    1.4313 H   0  0  0  0  0  0  0  0  0  0  0  0
    1.3823   -0.9624    1.7429 H   0  0  0  0  0  0  0  0  0  0  0  0
    0.5698   -1.3522   -1.3787 H   0  0  0  0  0  0  0  0  0  0  0  0
   -0.9412   -0.4931   -1.2007 H   0  0  0  0  0  0  0  0  0  0  0  0
    0.2884   -2.6913    0.5594 H   0  0  0  0  0  0  0  0  0  0  0  0
   -0.9818   -1.7030    1.2716 H   0  0  0  0  0  0  0  0  0  0  0  0
   -1.2124   -3.3948   -1.3105 H   0  0  0  0  0  0  0  0  0  0  0  0
   -1.6559   -3.9205    0.3108 H   0  0  0  0  0  0  0  0  0  0  0  0
   -2.6471   -1.3461   -2.3793 H   0  0  0  0  0  0  0  0  0  0  0  0
   -4.3731   -1.8049   -2.2220 H   0  0  0  0  0  0  0  0  0  0  0  0
   -3.1570   -3.0387   -2.6911 H   0  0  0  0  0  0  0  0  0  0  0  0
   -4.0174   -3.8929    0.8911 H   0  0  0  0  0  0  0  0  0  0  0  0
   -5.1487   -3.3429   -0.3967 H   0  0  0  0  0  0  0  0  0  0  0  0
   -3.8770   -4.5553   -0.7812 H   0  0  0  0  0  0  0  0  0  0  0  0
   -3.2337   -1.4744    1.3896 H   0  0  0  0  0  0  0  0  0  0  0  0
   -2.7762   -0.4629   -0.0362 H   0  0  0  0  0  0  0  0  0  0  0  0
   -7.3378   -0.4535    0.4508 H   0  0  0  0  0  0  0  0  0  0  0  0
   -8.4689    1.5008    1.4435 H   0  0  0  0  0  0  0  0  0  0  0  0
   -7.1425    3.4042    2.3105 H   0  0  0  0  0  0  0  0  0  0  0  0
   -4.6765    3.3615    2.1696 H   0  0  0  0  0  0  0  0  0  0  0  0
   -3.1589    4.3115   -2.3375 H   0  0  0  0  0  0  0  0  0  0  0  0
   -0.7100    4.0718   -2.6850 H   0  0  0  0  0  0  0  0  0  0  0  0
    0.5903    2.5749   -1.2099 H   0  0  0  0  0  0  0  0  0  0  0  0
    0.2704    1.7406    1.5290 H   0  0  0  0  0  0  0  0  0  0  0  0
   -0.9660    0.4701    1.5474 H   0  0  0  0  0  0  0  0  0  0  0  0
  1  2  1  0
  2  3  1  0
  3  4  2  0
  4  5  1  0
  5  6  2  0
  6  7  1  0
  7  8  2  0
  8  9  1  0
  9 10  1  0
 10 11  1  0
 11 12  2  0
 11 13  1  0
 13 14  1  0
 14 15  1  0
 15 16  1  0
 16 17  1  0
 17 18  1  0
 18 19  1  0
 18 20  1  0
 18 21  1  0
 21 22  1  0
 22 23  1  0
 23 24  2  0
 24 25  1  0
 25 26  2  0
 26 27  1  0
 27 28  2  0
 28 29  1  0
 29 30  1  0
 30 31  2  0
 31 32  1  0
 32 33  2  0
 33 34  1  0
 34 35  2  0
 35 36  1  0
  8  3  1  0
 36 14  1  0
 28 23  1  0
 35 30  1  0
  1 37  1  0
  1 38  1  0
  1 39  1  0
  4 40  1  0
  5 41  1  0
  6 42  1  0
  7 43  1  0
  9 44  1  0
  9 45  1  0
 10 46  1  0
 13 47  1  0
 13 48  1  0
 15 49  1  0
 15 50  1  0
 16 51  1  0
 16 52  1  0
 17 53  1  0
 17 54  1  0
 19 55  1  0
 19 56  1  0
 19 57  1  0
 20 58  1  0
 20 59  1  0
 20 60  1  0
 21 61  1  0
 21 62  1  0
 24 63  1  0
 25 64  1  0
 26 65  1  0
 27 66  1  0
 32 67  1  0
 33 68  1  0
 34 69  1  0
 36 70  1  0
 36 71  1  0
M  END
$$$$
