
     RDKit          3D

 74 77  0  0  0  0  0  0  0  0999 V2000
   -4.5719   -5.0953   -0.0260 C   0  0  0  0  0  0  0  0  0  0  0  0
   -4.8421   -3.6113    0.2331 C   0  0  0  0  0  0  0  0  0  0  0  0
   -4.0485   -2.6924   -0.7315 C   0  0  0  0  0  0  0  0  0  0  0  0
   -4.6904   -2.6576   -2.1340 C   0  0  0  0  0  0  0  0  0  0  0  0
   -3.8067   -1.2505   -0.1712 C   0  0  0  0  0  0  0  0  0  0  0  0
   -2.9243   -1.3180    1.0004 N   0  0  0  0  0  0  0  0  0  0  0  0
   -1.4889   -1.1999    0.9642 C   0  0  0  0  0  0  0  0  0  0  0  0
   -0.8786   -0.9654    2.0393 O   0  0  0  0  0  0  0  0  0  0  0  0
   -0.6680   -1.4278   -0.2852 C   0  0  0  0  0  0  0  0  0  0  0  0
    0.1676   -0.1886   -0.6818 C   0  0  0  0  0  0  0  0  0  0  0  0
    1.3691   -0.6160   -1.4993 C   0  0  0  0  0  0  0  0  0  0  0  0
    1.2320   -0.7174   -2.7507 O   0  0  0  0  0  0  0  0  0  0  0  0
    2.6375   -0.9735   -0.8900 N   0  0  0  0  0  0  0  0  0  0  0  0
    3.8407   -1.0596   -1.7294 C   0  0  0  0  0  0  0  0  0  0  0  0
    4.5255    0.3124   -1.8065 C   0  0  0  0  0  0  0  0  0  0  0  0
    5.3657    0.5951   -0.5772 C   0  0  0  0  0  0  0  0  0  0  0  0
    6.7504    0.7967   -0.7359 C   0  0  0  0  0  0  0  0  0  0  0  0
    7.5558    1.1009    0.3616 C   0  0  0  0  0  0  0  0  0  0  0  0
    6.9936    1.2104    1.6328 C   0  0  0  0  0  0  0  0  0  0  0  0
    5.6249    1.0086    1.8142 C   0  0  0  0  0  0  0  0  0  0  0  0
    4.7939    0.6916    0.7230 C   0  0  0  0  0  0  0  0  0  0  0  0
    3.3116    0.4898    0.9715 C   0  0  0  0  0  0  0  0  0  0  0  0
    2.8453   -0.9142    0.5624 C   0  0  0  0  0  0  0  0  0  0  0  0
   -0.6469    0.7439   -1.4717 N   0  0  0  0  0  0  0  0  0  0  0  0
   -0.5704    2.1772   -1.3607 C   0  0  0  0  0  0  0  0  0  0  0  0
   -1.0619    2.8942   -2.2698 O   0  0  0  0  0  0  0  0  0  0  0  0
    0.0603    2.8368   -0.2058 C   0  0  0  0  0  0  0  0  0  0  0  0
    1.2718    3.5127   -0.4329 C   0  0  0  0  0  0  0  0  0  0  0  0
    1.9699    4.0983    0.6265 C   0  0  0  0  0  0  0  0  0  0  0  0
    1.4729    4.0103    1.9237 C   0  0  0  0  0  0  0  0  0  0  0  0
    0.2605    3.3589    2.1640 C   0  0  0  0  0  0  0  0  0  0  0  0
   -0.4763    2.7927    1.1134 C   0  0  0  0  0  0  0  0  0  0  0  0
   -1.7150    2.2247    1.4584 O   0  0  0  0  0  0  0  0  0  0  0  0
   -2.8324    2.0156    0.5955 C   0  0  0  0  0  0  0  0  0  0  0  0
   -4.0227    1.5317    1.4157 C   0  0  0  0  0  0  0  0  0  0  0  0
   -5.0457    0.9267    0.5594 N   0  0  0  0  0  0  0  0  0  0  0  0
   -5.0762   -0.4598    0.1547 C   0  0  0  0  0  0  0  0  0  0  0  0
   -6.2053   -0.9865   -0.0278 O   0  0  0  0  0  0  0  0  0  0  0  0
   -4.9010   -5.3820   -1.0471 H   0  0  0  0  0  0  0  0  0  0  0  0
   -3.4903   -5.3221    0.0855 H   0  0  0  0  0  0  0  0  0  0  0  0
   -5.1421   -5.7076    0.7043 H   0  0  0  0  0  0  0  0  0  0  0  0
   -5.9337   -3.4351    0.1379 H   0  0  0  0  0  0  0  0  0  0  0  0
   -4.5581   -3.4020    1.2850 H   0  0  0  0  0  0  0  0  0  0  0  0
   -3.0407   -3.1466   -0.8663 H   0  0  0  0  0  0  0  0  0  0  0  0
   -4.6095   -3.6564   -2.6194 H   0  0  0  0  0  0  0  0  0  0  0  0
   -5.7660   -2.3726   -2.0867 H   0  0  0  0  0  0  0  0  0  0  0  0
   -4.1576   -1.9318   -2.7886 H   0  0  0  0  0  0  0  0  0  0  0  0
   -3.2952   -0.6771   -0.9708 H   0  0  0  0  0  0  0  0  0  0  0  0
   -3.3662   -1.4549    1.9390 H   0  0  0  0  0  0  0  0  0  0  0  0
    0.0072   -2.2818   -0.0645 H   0  0  0  0  0  0  0  0  0  0  0  0
   -1.2863   -1.7519   -1.1435 H   0  0  0  0  0  0  0  0  0  0  0  0
    0.5139    0.3203    0.2359 H   0  0  0  0  0  0  0  0  0  0  0  0
    4.5435   -1.8235   -1.3250 H   0  0  0  0  0  0  0  0  0  0  0  0
    3.5798   -1.4043   -2.7553 H   0  0  0  0  0  0  0  0  0  0  0  0
    3.7674    1.1214   -1.9307 H   0  0  0  0  0  0  0  0  0  0  0  0
    5.1561    0.3310   -2.7231 H   0  0  0  0  0  0  0  0  0  0  0  0
    7.2093    0.7263   -1.7153 H   0  0  0  0  0  0  0  0  0  0  0  0
    8.6187    1.2551    0.2259 H   0  0  0  0  0  0  0  0  0  0  0  0
    7.6208    1.4469    2.4827 H   0  0  0  0  0  0  0  0  0  0  0  0
    5.2093    1.1038    2.8105 H   0  0  0  0  0  0  0  0  0  0  0  0
    3.0700    0.6352    2.0481 H   0  0  0  0  0  0  0  0  0  0  0  0
    2.7435    1.2632    0.4116 H   0  0  0  0  0  0  0  0  0  0  0  0
    1.9170   -1.1864    1.1062 H   0  0  0  0  0  0  0  0  0  0  0  0
    3.6005   -1.6717    0.8690 H   0  0  0  0  0  0  0  0  0  0  0  0
   -1.1913    0.3612   -2.2787 H   0  0  0  0  0  0  0  0  0  0  0  0
    1.6931    3.5667   -1.4310 H   0  0  0  0  0  0  0  0  0  0  0  0
    2.9032    4.6119    0.4380 H   0  0  0  0  0  0  0  0  0  0  0  0
    2.0231    4.4528    2.7440 H   0  0  0  0  0  0  0  0  0  0  0  0
   -0.1284    3.3147    3.1738 H   0  0  0  0  0  0  0  0  0  0  0  0
   -2.5979    1.2447   -0.1432 H   0  0  0  0  0  0  0  0  0  0  0  0
   -3.0927    2.9608    0.0728 H   0  0  0  0  0  0  0  0  0  0  0  0
   -3.7064    0.8185    2.2037 H   0  0  0  0  0  0  0  0  0  0  0  0
   -4.4575    2.4093    1.9420 H   0  0  0  0  0  0  0  0  0  0  0  0
   -5.9325    1.4684    0.4466 H   0  0  0  0  0  0  0  0  0  0  0  0
  1  2  1  0
  2  3  1  0
  3  4  1  0
  3  5  1  0
  5  6  1  0
  6  7  1  0
  7  8  2  0
  7  9  1  0
  9 10  1  0
 10 11  1  0
 11 12  2  0
 11 13  1  0
 13 14  1  0
 14 15  1  0
 15 16  1  0
 16 17  2  0
 17 18  1  0
 18 19  2  0
 19 20  1  0
 20 21  2  0
 21 22  1  0
 22 23  1  0
 10 24  1  0
 24 25  1  0
 25 26  2  0
 25 27  1  0
 27 28  2  0
 28 29  1  0
 29 30  2  0
 30 31  1  0
 31 32  2  0
 32 33  1  0
 33 34  1  0
 34 35  1  0
 35 36  1  0
 36 37  1  0
 37 38  2  0
 37  5  1  0
 23 13  1  0
 32 27  1  0
 21 16  1  0
  1 39  1  0
  1 40  1  0
  1 41  1  0
  2 42  1  0
  2 43  1  0
  3 44  1  0
  4 45  1  0
  4 46  1  0
  4 47  1  0
  5 48  1  0
  6 49  1  0
  9 50  1  0
  9 51  1  0
 10 52  1  0
 14 53  1  0
 14 54  1  0
 15 55  1  0
 15 56  1  0
 17 57  1  0
 18 58  1  0
 19 59  1  0
 20 60  1  0
 22 61  1  0
 22 62  1  0
 23 63  1  0
 23 64  1  0
 24 65  1  0
 28 66  1  0
 29 67  1  0
 30 68  1  0
 31 69  1  0
 34 70  1  0
 34 71  1  0
 35 72  1  0
 35 73  1  0
 36 74  1  0
M  END
$$$$
