
     RDKit          3D

 72 75  0  0  0  0  0  0  0  0999 V2000
   -7.0267    2.2471    1.0590 C   0  0  0  0  0  0  0  0  0  0  0  0
   -6.9699    1.2116   -0.0752 C   0  0  0  0  0  0  0  0  0  0  0  0
   -8.0937    0.1666    0.0607 C   0  0  0  0  0  0  0  0  0  0  0  0
   -5.6133    0.6102   -0.1904 N   0  0  0  0  0  0  0  0  0  0  0  0
   -5.1933   -0.2077    0.9769 C   0  0  0  0  0  0  0  0  0  0  0  0
   -3.8817    0.3306    1.5506 C   0  0  0  0  0  0  0  0  0  0  0  0
   -3.2274   -0.7132    2.2417 O   0  0  0  0  0  0  0  0  0  0  0  0
   -2.2102   -0.2126    3.0848 C   0  0  0  0  0  0  0  0  0  0  0  0
   -0.9632    0.2340    2.3119 C   0  0  0  0  0  0  0  0  0  0  0  0
   -0.6882   -0.6625    1.2343 O   0  0  0  0  0  0  0  0  0  0  0  0
    0.4863   -0.6466    0.4598 C   0  0  0  0  0  0  0  0  0  0  0  0
    1.6370    0.0556    0.8693 C   0  0  0  0  0  0  0  0  0  0  0  0
    2.8105   -0.0023    0.1171 C   0  0  0  0  0  0  0  0  0  0  0  0
    2.8677   -0.7651   -1.0565 C   0  0  0  0  0  0  0  0  0  0  0  0
    4.1235   -0.8572   -1.8384 C   0  0  0  0  0  0  0  0  0  0  0  0
    4.0629   -1.0322   -3.0868 O   0  0  0  0  0  0  0  0  0  0  0  0
    5.4126   -0.7533   -1.2008 N   0  0  0  0  0  0  0  0  0  0  0  0
    6.5047   -0.0686   -1.9059 C   0  0  0  0  0  0  0  0  0  0  0  0
    7.7034    0.1911   -0.9797 C   0  0  0  0  0  0  0  0  0  0  0  0
    7.2126    0.5736    0.4273 C   0  0  0  0  0  0  0  0  0  0  0  0
    8.3896    1.0064    1.3190 C   0  0  0  0  0  0  0  0  0  0  0  0
    7.9178    1.5405    2.5288 O   0  0  0  0  0  0  0  0  0  0  0  0
    6.4123   -0.5896    1.0697 C   0  0  0  0  0  0  0  0  0  0  0  0
    5.7016   -1.4879    0.0396 C   0  0  0  0  0  0  0  0  0  0  0  0
    1.7082   -1.4175   -1.5024 C   0  0  0  0  0  0  0  0  0  0  0  0
    0.5188   -1.3652   -0.7551 C   0  0  0  0  0  0  0  0  0  0  0  0
   -0.7350   -1.9994   -1.3118 C   0  0  0  0  0  0  0  0  0  0  0  0
   -1.7057   -0.9565   -1.8181 C   0  0  0  0  0  0  0  0  0  0  0  0
   -1.2791    0.0695   -2.6790 C   0  0  0  0  0  0  0  0  0  0  0  0
   -2.1777    1.0473   -3.1083 C   0  0  0  0  0  0  0  0  0  0  0  0
   -3.5134    0.9990   -2.7080 C   0  0  0  0  0  0  0  0  0  0  0  0
   -3.9719   -0.0519   -1.9011 C   0  0  0  0  0  0  0  0  0  0  0  0
   -3.0629   -1.0309   -1.4648 C   0  0  0  0  0  0  0  0  0  0  0  0
   -5.4182   -0.1015   -1.4786 C   0  0  0  0  0  0  0  0  0  0  0  0
   -6.1844    2.9634    0.9603 H   0  0  0  0  0  0  0  0  0  0  0  0
   -6.9766    1.7704    2.0597 H   0  0  0  0  0  0  0  0  0  0  0  0
   -7.9763    2.8215    1.0003 H   0  0  0  0  0  0  0  0  0  0  0  0
   -7.1777    1.7897   -1.0049 H   0  0  0  0  0  0  0  0  0  0  0  0
   -9.0813    0.6742    0.0196 H   0  0  0  0  0  0  0  0  0  0  0  0
   -8.0336   -0.3842    1.0198 H   0  0  0  0  0  0  0  0  0  0  0  0
   -8.0542   -0.5597   -0.7773 H   0  0  0  0  0  0  0  0  0  0  0  0
   -5.0717   -1.2800    0.7090 H   0  0  0  0  0  0  0  0  0  0  0  0
   -5.9418   -0.2071    1.7932 H   0  0  0  0  0  0  0  0  0  0  0  0
   -3.2312    0.6904    0.7268 H   0  0  0  0  0  0  0  0  0  0  0  0
   -4.1267    1.1921    2.2127 H   0  0  0  0  0  0  0  0  0  0  0  0
   -2.5758    0.6082    3.7434 H   0  0  0  0  0  0  0  0  0  0  0  0
   -1.9130   -1.0384    3.7647 H   0  0  0  0  0  0  0  0  0  0  0  0
   -0.1185    0.2518    3.0319 H   0  0  0  0  0  0  0  0  0  0  0  0
   -1.1139    1.2584    1.9077 H   0  0  0  0  0  0  0  0  0  0  0  0
    1.6461    0.6469    1.7748 H   0  0  0  0  0  0  0  0  0  0  0  0
    3.6760    0.5545    0.4541 H   0  0  0  0  0  0  0  0  0  0  0  0
    6.1333    0.9092   -2.2858 H   0  0  0  0  0  0  0  0  0  0  0  0
    6.8298   -0.6764   -2.7785 H   0  0  0  0  0  0  0  0  0  0  0  0
    8.3396   -0.7198   -0.9163 H   0  0  0  0  0  0  0  0  0  0  0  0
    8.3221    1.0078   -1.4135 H   0  0  0  0  0  0  0  0  0  0  0  0
    6.5320    1.4494    0.3193 H   0  0  0  0  0  0  0  0  0  0  0  0
    8.9706    1.7990    0.8003 H   0  0  0  0  0  0  0  0  0  0  0  0
    9.0838    0.1503    1.4998 H   0  0  0  0  0  0  0  0  0  0  0  0
    7.8569    0.7893    3.1768 H   0  0  0  0  0  0  0  0  0  0  0  0
    7.0840   -1.2352    1.6784 H   0  0  0  0  0  0  0  0  0  0  0  0
    5.6563   -0.1618    1.7645 H   0  0  0  0  0  0  0  0  0  0  0  0
    6.3623   -2.3471   -0.2102 H   0  0  0  0  0  0  0  0  0  0  0  0
    4.7799   -1.9153    0.4904 H   0  0  0  0  0  0  0  0  0  0  0  0
    1.7330   -1.9719   -2.4332 H   0  0  0  0  0  0  0  0  0  0  0  0
   -0.4920   -2.6916   -2.1464 H   0  0  0  0  0  0  0  0  0  0  0  0
   -1.2027   -2.6188   -0.5154 H   0  0  0  0  0  0  0  0  0  0  0  0
   -0.2467    0.1280   -3.0040 H   0  0  0  0  0  0  0  0  0  0  0  0
   -1.8349    1.8508   -3.7466 H   0  0  0  0  0  0  0  0  0  0  0  0
   -4.1919    1.7763   -3.0378 H   0  0  0  0  0  0  0  0  0  0  0  0
   -3.4064   -1.8419   -0.8369 H   0  0  0  0  0  0  0  0  0  0  0  0
   -5.7672   -1.1571   -1.4170 H   0  0  0  0  0  0  0  0  0  0  0  0
   -6.0255    0.3634   -2.2885 H   0  0  0  0  0  0  0  0  0  0  0  0
  1  2  1  0
  2  3  1  0
  2  4  1  0
  4  5  1  0
  5  6  1  0
  6  7  1  0
  7  8  1  0
  8  9  1  0
  9 10  1  0
 10 11  1  0
 11 12  2  0
 12 13  1  0
 13 14  2  0
 14 15  1  0
 15 16  2  0
 15 17  1  0
 17 18  1  0
 18 19  1  0
 19 20  1  0
 20 21  1  0
 21 22  1  0
 20 23  1  0
 23 24  1  0
 14 25  1  0
 25 26  2  0
 26 27  1  0
 27 28  1  0
 28 29  1  0
 29 30  2  0
 30 31  1  0
 31 32  2  0
 32 33  1  0
 32 34  1  0
 34  4  1  0
 26 11  1  0
 33 28  2  0
 24 17  1  0
  1 35  1  0
  1 36  1  0
  1 37  1  0
  2 38  1  0
  3 39  1  0
  3 40  1  0
  3 41  1  0
  5 42  1  0
  5 43  1  0
  6 44  1  0
  6 45  1  0
  8 46  1  0
  8 47  1  0
  9 48  1  0
  9 49  1  0
 12 50  1  0
 13 51  1  0
 18 52  1  0
 18 53  1  0
 19 54  1  0
 19 55  1  0
 20 56  1  0
 21 57  1  0
 21 58  1  0
 22 59  1  0
 23 60  1  0
 23 61  1  0
 24 62  1  0
 24 63  1  0
 25 64  1  0
 27 65  1  0
 27 66  1  0
 29 67  1  0
 30 68  1  0
 31 69  1  0
 33 70  1  0
 34 71  1  0
 34 72  1  0
M  END
$$$$
