
     RDKit          3D

 80 82  0  0  0  0  0  0  0  0999 V2000
   -8.0049   -0.5936   -0.3456 C   0  0  0  0  0  0  0  0  0  0  0  0
   -6.8621    0.2913    0.1447 C   0  0  0  0  0  0  0  0  0  0  0  0
   -5.5054   -0.3954   -0.0541 C   0  0  0  0  0  0  0  0  0  0  0  0
   -4.3565    0.5149    0.3920 C   0  0  0  0  0  0  0  0  0  0  0  0
   -3.0628   -0.1693    0.2207 N   0  0  0  0  0  0  0  0  0  0  0  0
   -2.1541    0.3386   -0.8197 C   0  0  0  0  0  0  0  0  0  0  0  0
   -1.2890    1.4702   -0.2782 C   0  0  0  0  0  0  0  0  0  0  0  0
   -0.3043    1.7990   -1.2568 O   0  0  0  0  0  0  0  0  0  0  0  0
    0.6864    2.7957   -1.1832 C   0  0  0  0  0  0  0  0  0  0  0  0
    1.2824    3.1631   -2.3976 C   0  0  0  0  0  0  0  0  0  0  0  0
    2.2729    4.1455   -2.4469 C   0  0  0  0  0  0  0  0  0  0  0  0
    2.6886    4.7764   -1.2765 C   0  0  0  0  0  0  0  0  0  0  0  0
    2.1251    4.4150   -0.0529 C   0  0  0  0  0  0  0  0  0  0  0  0
    1.1348    3.4203    0.0152 C   0  0  0  0  0  0  0  0  0  0  0  0
    0.6836    3.0218    1.3590 C   0  0  0  0  0  0  0  0  0  0  0  0
   -0.0908    3.7850    1.9956 O   0  0  0  0  0  0  0  0  0  0  0  0
    1.1535    1.8141    1.9795 N   0  0  0  0  0  0  0  0  0  0  0  0
    1.9358    0.7966    1.2622 C   0  0  0  0  0  0  0  0  0  0  0  0
    3.3668    1.2387    1.1445 C   0  0  0  0  0  0  0  0  0  0  0  0
    3.9255    1.8200    2.1168 O   0  0  0  0  0  0  0  0  0  0  0  0
    4.0968    0.9869   -0.0641 N   0  0  0  0  0  0  0  0  0  0  0  0
    5.4641    1.4796   -0.2667 C   0  0  0  0  0  0  0  0  0  0  0  0
    5.8729    1.3551   -1.7492 C   0  0  0  0  0  0  0  0  0  0  0  0
    6.3823   -0.0562   -2.0570 C   0  0  0  0  0  0  0  0  0  0  0  0
    7.4761   -0.4875   -1.0531 C   0  0  0  0  0  0  0  0  0  0  0  0
    7.6732    0.4566   -0.0132 O   0  0  0  0  0  0  0  0  0  0  0  0
    6.4483    0.7074    0.6466 C   0  0  0  0  0  0  0  0  0  0  0  0
    1.8501   -0.5674    1.9652 C   0  0  0  0  0  0  0  0  0  0  0  0
    0.4281   -1.0527    2.0529 C   0  0  0  0  0  0  0  0  0  0  0  0
   -0.1734   -0.9930    3.1588 O   0  0  0  0  0  0  0  0  0  0  0  0
   -0.2462   -1.5639    0.8893 N   0  0  0  0  0  0  0  0  0  0  0  0
   -1.5684   -2.1955    0.9823 C   0  0  0  0  0  0  0  0  0  0  0  0
   -1.8377   -3.1355   -0.2197 C   0  0  0  0  0  0  0  0  0  0  0  0
   -3.1909   -3.8869   -0.1565 C   0  0  0  0  0  0  0  0  0  0  0  0
   -3.4296   -4.6443   -1.4706 C   0  0  0  0  0  0  0  0  0  0  0  0
   -3.2565   -4.8626    1.0293 C   0  0  0  0  0  0  0  0  0  0  0  0
   -2.6594   -1.1604    1.2063 C   0  0  0  0  0  0  0  0  0  0  0  0
   -3.2589   -1.1934    2.3167 O   0  0  0  0  0  0  0  0  0  0  0  0
   -8.0054   -1.5626    0.1987 H   0  0  0  0  0  0  0  0  0  0  0  0
   -8.9752   -0.0856   -0.1619 H   0  0  0  0  0  0  0  0  0  0  0  0
   -7.9034   -0.7826   -1.4359 H   0  0  0  0  0  0  0  0  0  0  0  0
   -6.8849    1.2521   -0.4160 H   0  0  0  0  0  0  0  0  0  0  0  0
   -7.0140    0.5097    1.2256 H   0  0  0  0  0  0  0  0  0  0  0  0
   -5.3680   -0.6461   -1.1294 H   0  0  0  0  0  0  0  0  0  0  0  0
   -5.4867   -1.3379    0.5365 H   0  0  0  0  0  0  0  0  0  0  0  0
   -4.4898    0.8139    1.4554 H   0  0  0  0  0  0  0  0  0  0  0  0
   -4.3882    1.4541   -0.2063 H   0  0  0  0  0  0  0  0  0  0  0  0
   -1.5011   -0.4570   -1.2133 H   0  0  0  0  0  0  0  0  0  0  0  0
   -2.7376    0.7146   -1.6872 H   0  0  0  0  0  0  0  0  0  0  0  0
   -0.8219    1.1001    0.6449 H   0  0  0  0  0  0  0  0  0  0  0  0
   -1.9145    2.3603   -0.0524 H   0  0  0  0  0  0  0  0  0  0  0  0
    0.9670    2.6851   -3.3163 H   0  0  0  0  0  0  0  0  0  0  0  0
    2.7166    4.4185   -3.3944 H   0  0  0  0  0  0  0  0  0  0  0  0
    3.4592    5.5368   -1.3159 H   0  0  0  0  0  0  0  0  0  0  0  0
    2.4820    4.8947    0.8514 H   0  0  0  0  0  0  0  0  0  0  0  0
    0.8828    1.6440    2.9762 H   0  0  0  0  0  0  0  0  0  0  0  0
    1.5221    0.6593    0.2424 H   0  0  0  0  0  0  0  0  0  0  0  0
    3.6136    0.4727   -0.8349 H   0  0  0  0  0  0  0  0  0  0  0  0
    5.4930    2.5624   -0.0083 H   0  0  0  0  0  0  0  0  0  0  0  0
    5.0206    1.6069   -2.4172 H   0  0  0  0  0  0  0  0  0  0  0  0
    6.6867    2.0823   -1.9685 H   0  0  0  0  0  0  0  0  0  0  0  0
    6.7821   -0.0871   -3.0933 H   0  0  0  0  0  0  0  0  0  0  0  0
    5.5306   -0.7699   -2.0003 H   0  0  0  0  0  0  0  0  0  0  0  0
    8.4377   -0.5973   -1.5978 H   0  0  0  0  0  0  0  0  0  0  0  0
    7.2365   -1.4877   -0.6256 H   0  0  0  0  0  0  0  0  0  0  0  0
    6.6594    1.3215    1.5471 H   0  0  0  0  0  0  0  0  0  0  0  0
    6.0001   -0.2444    1.0167 H   0  0  0  0  0  0  0  0  0  0  0  0
    2.2846   -0.4938    2.9867 H   0  0  0  0  0  0  0  0  0  0  0  0
    2.4464   -1.3171    1.4000 H   0  0  0  0  0  0  0  0  0  0  0  0
    0.2707   -1.5791   -0.0197 H   0  0  0  0  0  0  0  0  0  0  0  0
   -1.5387   -2.8547    1.8773 H   0  0  0  0  0  0  0  0  0  0  0  0
   -1.0146   -3.8818   -0.2703 H   0  0  0  0  0  0  0  0  0  0  0  0
   -1.7939   -2.5697   -1.1692 H   0  0  0  0  0  0  0  0  0  0  0  0
   -4.0146   -3.1498   -0.0480 H   0  0  0  0  0  0  0  0  0  0  0  0
   -3.4252   -3.9358   -2.3267 H   0  0  0  0  0  0  0  0  0  0  0  0
   -4.4208   -5.1472   -1.4507 H   0  0  0  0  0  0  0  0  0  0  0  0
   -2.6393   -5.4121   -1.6302 H   0  0  0  0  0  0  0  0  0  0  0  0
   -4.1821   -5.4734    0.9783 H   0  0  0  0  0  0  0  0  0  0  0  0
   -3.2904   -4.3075    1.9893 H   0  0  0  0  0  0  0  0  0  0  0  0
   -2.3776   -5.5432    1.0283 H   0  0  0  0  0  0  0  0  0  0  0  0
  1  2  1  0
  2  3  1  0
  3  4  1  0
  4  5  1  0
  5  6  1  0
  6  7  1  0
  7  8  1  0
  8  9  1  0
  9 10  2  0
 10 11  1  0
 11 12  2  0
 12 13  1  0
 13 14  2  0
 14 15  1  0
 15 16  2  0
 15 17  1  0
 17 18  1  0
 18 19  1  0
 19 20  2  0
 19 21  1  0
 21 22  1  0
 22 23  1  0
 23 24  1  0
 24 25  1  0
 25 26  1  0
 26 27  1  0
 18 28  1  0
 28 29  1  0
 29 30  2  0
 29 31  1  0
 31 32  1  0
 32 33  1  0
 33 34  1  0
 34 35  1  0
 34 36  1  0
 32 37  1  0
 37 38  2  0
 37  5  1  0
 14  9  1  0
 27 22  1  0
  1 39  1  0
  1 40  1  0
  1 41  1  0
  2 42  1  0
  2 43  1  0
  3 44  1  0
  3 45  1  0
  4 46  1  0
  4 47  1  0
  6 48  1  0
  6 49  1  0
  7 50  1  0
  7 51  1  0
 10 52  1  0
 11 53  1  0
 12 54  1  0
 13 55  1  0
 17 56  1  0
 18 57  1  0
 21 58  1  0
 22 59  1  0
 23 60  1  0
 23 61  1  0
 24 62  1  0
 24 63  1  0
 25 64  1  0
 25 65  1  0
 27 66  1  0
 27 67  1  0
 28 68  1  0
 28 69  1  0
 31 70  1  0
 32 71  1  0
 33 72  1  0
 33 73  1  0
 34 74  1  0
 35 75  1  0
 35 76  1  0
 35 77  1  0
 36 78  1  0
 36 79  1  0
 36 80  1  0
M  END
$$$$
