
     RDKit          3D

 79 83  0  0  0  0  0  0  0  0999 V2000
   -0.3612    0.8832    2.4912 O   0  0  0  0  0  0  0  0  0  0  0  0
   -0.8641    0.8260    1.3345 C   0  0  0  0  0  0  0  0  0  0  0  0
    0.0647    0.9063    0.1413 C   0  0  0  0  0  0  0  0  0  0  0  0
    1.2897   -0.0355    0.2824 C   0  0  0  0  0  0  0  0  0  0  0  0
    2.5201    0.5010   -0.4170 C   0  0  0  0  0  0  0  0  0  0  0  0
    3.0881   -0.1702   -1.3239 O   0  0  0  0  0  0  0  0  0  0  0  0
    3.0936    1.7460    0.0128 N   0  0  0  0  0  0  0  0  0  0  0  0
    4.3739    2.2340   -0.4881 C   0  0  0  0  0  0  0  0  0  0  0  0
    5.5216    1.4947    0.1898 C   0  0  0  0  0  0  0  0  0  0  0  0
    6.7614    2.0705   -0.2163 O   0  0  0  0  0  0  0  0  0  0  0  0
    8.0124    1.6824    0.2841 C   0  0  0  0  0  0  0  0  0  0  0  0
    8.1639    0.6195    1.1986 C   0  0  0  0  0  0  0  0  0  0  0  0
    9.4329    0.2779    1.6763 C   0  0  0  0  0  0  0  0  0  0  0  0
   10.5580    0.9905    1.2503 C   0  0  0  0  0  0  0  0  0  0  0  0
   11.7879    0.6582    1.7148 F   0  0  0  0  0  0  0  0  0  0  0  0
   10.4147    2.0434    0.3427 C   0  0  0  0  0  0  0  0  0  0  0  0
    9.1475    2.3847   -0.1418 C   0  0  0  0  0  0  0  0  0  0  0  0
    0.9510   -1.3926   -0.1655 N   0  0  0  0  0  0  0  0  0  0  0  0
    0.5084   -1.7224   -1.4951 C   0  0  0  0  0  0  0  0  0  0  0  0
    0.6969   -0.9228   -2.4529 O   0  0  0  0  0  0  0  0  0  0  0  0
   -0.1633   -3.0075   -1.7509 C   0  0  0  0  0  0  0  0  0  0  0  0
    0.2105   -3.7739   -2.8653 C   0  0  0  0  0  0  0  0  0  0  0  0
   -0.4006   -5.0048   -3.1110 C   0  0  0  0  0  0  0  0  0  0  0  0
   -1.3898   -5.4791   -2.2485 C   0  0  0  0  0  0  0  0  0  0  0  0
   -1.7844   -4.7143   -1.1481 C   0  0  0  0  0  0  0  0  0  0  0  0
   -1.1950   -3.4578   -0.9025 C   0  0  0  0  0  0  0  0  0  0  0  0
   -1.6151   -2.6248    0.1529 O   0  0  0  0  0  0  0  0  0  0  0  0
   -2.8497   -2.7394    0.8626 C   0  0  0  0  0  0  0  0  0  0  0  0
   -4.0548   -2.4001   -0.0567 C   0  0  0  0  0  0  0  0  0  0  0  0
   -5.0723   -3.5487   -0.1278 C   0  0  0  0  0  0  0  0  0  0  0  0
   -6.1635   -3.1893    0.8684 C   0  0  0  0  0  0  0  0  0  0  0  0
   -6.1170   -1.6752    0.9884 C   0  0  0  0  0  0  0  0  0  0  0  0
   -4.8151   -1.2712    0.4774 N   0  0  0  0  0  0  0  0  0  0  0  0
   -4.4692    0.1254    0.3384 C   0  0  0  0  0  0  0  0  0  0  0  0
   -5.3437    0.9916    0.6215 O   0  0  0  0  0  0  0  0  0  0  0  0
   -3.0665    0.5923   -0.0168 C   0  0  0  0  0  0  0  0  0  0  0  0
   -3.0948    1.8547   -0.9255 C   0  0  0  0  0  0  0  0  0  0  0  0
   -3.4925    3.1351   -0.2206 C   0  0  0  0  0  0  0  0  0  0  0  0
   -2.5616    3.8325    0.5703 C   0  0  0  0  0  0  0  0  0  0  0  0
   -2.9189    5.0292    1.1940 C   0  0  0  0  0  0  0  0  0  0  0  0
   -4.2021    5.5511    1.0211 C   0  0  0  0  0  0  0  0  0  0  0  0
   -5.1288    4.8793    0.2224 C   0  0  0  0  0  0  0  0  0  0  0  0
   -4.7772    3.6781   -0.3995 C   0  0  0  0  0  0  0  0  0  0  0  0
   -2.3017    0.8211    1.2191 N   0  0  0  0  0  0  0  0  0  0  0  0
    0.3924    1.9634    0.0654 H   0  0  0  0  0  0  0  0  0  0  0  0
   -0.4619    0.6766   -0.8003 H   0  0  0  0  0  0  0  0  0  0  0  0
    1.5808   -0.0967    1.3550 H   0  0  0  0  0  0  0  0  0  0  0  0
    2.6032    2.3096    0.7423 H   0  0  0  0  0  0  0  0  0  0  0  0
    4.4612    3.3182   -0.2637 H   0  0  0  0  0  0  0  0  0  0  0  0
    4.4287    2.1054   -1.5903 H   0  0  0  0  0  0  0  0  0  0  0  0
    5.4131    1.5856    1.2935 H   0  0  0  0  0  0  0  0  0  0  0  0
    5.4972    0.4204   -0.0962 H   0  0  0  0  0  0  0  0  0  0  0  0
    7.3091    0.0523    1.5438 H   0  0  0  0  0  0  0  0  0  0  0  0
    9.5425   -0.5401    2.3776 H   0  0  0  0  0  0  0  0  0  0  0  0
   11.2856    2.5950    0.0139 H   0  0  0  0  0  0  0  0  0  0  0  0
    9.0455    3.2010   -0.8477 H   0  0  0  0  0  0  0  0  0  0  0  0
    0.9999   -2.1627    0.5419 H   0  0  0  0  0  0  0  0  0  0  0  0
    0.9903   -3.4280   -3.5315 H   0  0  0  0  0  0  0  0  0  0  0  0
   -0.0972   -5.5971   -3.9651 H   0  0  0  0  0  0  0  0  0  0  0  0
   -1.8525   -6.4404   -2.4330 H   0  0  0  0  0  0  0  0  0  0  0  0
   -2.5363   -5.1155   -0.4898 H   0  0  0  0  0  0  0  0  0  0  0  0
   -2.9262   -3.7453    1.3257 H   0  0  0  0  0  0  0  0  0  0  0  0
   -2.8137   -2.0277    1.7149 H   0  0  0  0  0  0  0  0  0  0  0  0
   -3.7130   -2.1674   -1.0886 H   0  0  0  0  0  0  0  0  0  0  0  0
   -4.6523   -4.5484    0.1012 H   0  0  0  0  0  0  0  0  0  0  0  0
   -5.5120   -3.5870   -1.1469 H   0  0  0  0  0  0  0  0  0  0  0  0
   -7.1597   -3.5464    0.5276 H   0  0  0  0  0  0  0  0  0  0  0  0
   -5.9272   -3.6440    1.8547 H   0  0  0  0  0  0  0  0  0  0  0  0
   -6.9233   -1.2199    0.3712 H   0  0  0  0  0  0  0  0  0  0  0  0
   -6.2256   -1.3614    2.0493 H   0  0  0  0  0  0  0  0  0  0  0  0
   -2.5761   -0.2139   -0.5989 H   0  0  0  0  0  0  0  0  0  0  0  0
   -2.1022    2.0187   -1.3860 H   0  0  0  0  0  0  0  0  0  0  0  0
   -3.7817    1.6628   -1.7801 H   0  0  0  0  0  0  0  0  0  0  0  0
   -1.5544    3.4581    0.6899 H   0  0  0  0  0  0  0  0  0  0  0  0
   -2.1956    5.5581    1.8025 H   0  0  0  0  0  0  0  0  0  0  0  0
   -4.4750    6.4845    1.4952 H   0  0  0  0  0  0  0  0  0  0  0  0
   -6.1196    5.2914    0.0815 H   0  0  0  0  0  0  0  0  0  0  0  0
   -5.5045    3.1759   -1.0267 H   0  0  0  0  0  0  0  0  0  0  0  0
   -2.8341    0.8859    2.1161 H   0  0  0  0  0  0  0  0  0  0  0  0
  1  2  2  0
  2  3  1  0
  3  4  1  0
  4  5  1  0
  5  6  2  0
  5  7  1  0
  7  8  1  0
  8  9  1  0
  9 10  1  0
 10 11  1  0
 11 12  2  0
 12 13  1  0
 13 14  2  0
 14 15  1  0
 14 16  1  0
 16 17  2  0
  4 18  1  0
 18 19  1  0
 19 20  2  0
 19 21  1  0
 21 22  2  0
 22 23  1  0
 23 24  2  0
 24 25  1  0
 25 26  2  0
 26 27  1  0
 27 28  1  0
 28 29  1  0
 29 30  1  0
 30 31  1  0
 31 32  1  0
 32 33  1  0
 33 34  1  0
 34 35  2  0
 34 36  1  0
 36 37  1  0
 37 38  1  0
 38 39  2  0
 39 40  1  0
 40 41  2  0
 41 42  1  0
 42 43  2  0
 36 44  1  0
 44  2  1  0
 17 11  1  0
 26 21  1  0
 33 29  1  0
 43 38  1  0
  3 45  1  0
  3 46  1  0
  4 47  1  0
  7 48  1  0
  8 49  1  0
  8 50  1  0
  9 51  1  0
  9 52  1  0
 12 53  1  0
 13 54  1  0
 16 55  1  0
 17 56  1  0
 18 57  1  0
 22 58  1  0
 23 59  1  0
 24 60  1  0
 25 61  1  0
 28 62  1  0
 28 63  1  0
 29 64  1  0
 30 65  1  0
 30 66  1  0
 31 67  1  0
 31 68  1  0
 32 69  1  0
 32 70  1  0
 36 71  1  0
 37 72  1  0
 37 73  1  0
 39 74  1  0
 40 75  1  0
 41 76  1  0
 42 77  1  0
 43 78  1  0
 44 79  1  0
M  END
$$$$
