
     RDKit          3D

 65 68  0  0  0  0  0  0  0  0999 V2000
   -2.4443    2.6677   -1.9110 C   0  0  0  0  0  0  0  0  0  0  0  0
   -2.2725    1.9848   -0.6220 N   0  0  0  0  0  0  0  0  0  0  0  0
   -1.3474    2.5574    0.3715 C   0  0  0  0  0  0  0  0  0  0  0  0
    0.0030    1.8214    0.4336 C   0  0  0  0  0  0  0  0  0  0  0  0
    0.7797    1.7986   -0.8995 C   0  0  0  0  0  0  0  0  0  0  0  0
    0.5263    0.5447   -1.7573 C   0  0  0  0  0  0  0  0  0  0  0  0
    0.8634   -0.7062   -1.0313 N   0  0  0  0  0  0  0  0  0  0  0  0
    2.5562   -1.1337   -1.2258 S   0  0  0  0  0  6  0  0  0  0  0  0
    2.8027   -2.5502   -0.7861 O   0  0  0  0  0  0  0  0  0  0  0  0
    2.9621   -1.0048   -2.6685 O   0  0  0  0  0  0  0  0  0  0  0  0
    3.5483   -0.0880   -0.2170 C   0  0  0  0  0  0  0  0  0  0  0  0
    4.6328    0.6153   -0.7573 C   0  0  0  0  0  0  0  0  0  0  0  0
    5.3992    1.4517    0.0573 C   0  0  0  0  0  0  0  0  0  0  0  0
    5.0882    1.5910    1.4129 C   0  0  0  0  0  0  0  0  0  0  0  0
    4.0006    0.8875    1.9662 C   0  0  0  0  0  0  0  0  0  0  0  0
    3.6414    0.9942    3.3182 O   0  0  0  0  0  0  0  0  0  0  0  0
    4.3277    1.7902    4.2802 C   0  0  0  0  0  0  0  0  0  0  0  0
    3.6466    1.7352    5.4808 F   0  0  0  0  0  0  0  0  0  0  0  0
    5.6090    1.3035    4.4683 F   0  0  0  0  0  0  0  0  0  0  0  0
    3.2396    0.0497    1.1427 C   0  0  0  0  0  0  0  0  0  0  0  0
   -0.0203   -1.8660   -1.3344 C   0  0  0  0  0  0  0  0  0  0  0  0
   -0.0629   -2.2456   -2.8440 C   0  0  0  0  0  0  0  0  0  0  0  0
   -1.3707   -2.9552   -3.2497 C   0  0  0  0  0  0  0  0  0  0  0  0
   -1.9305   -3.8122   -2.1080 C   0  0  0  0  0  0  0  0  0  0  0  0
   -2.2643   -2.9706   -0.8566 C   0  0  0  0  0  0  0  0  0  0  0  0
   -1.4378   -1.6688   -0.7536 C   0  0  0  0  0  0  0  0  0  0  0  0
   -1.3219   -1.2696    0.6132 O   0  0  0  0  0  0  0  0  0  0  0  0
   -2.3415   -0.7539    1.4289 C   0  0  0  0  0  0  0  0  0  0  0  0
   -2.4285   -1.2684    2.7295 C   0  0  0  0  0  0  0  0  0  0  0  0
   -3.3982   -0.8052    3.6198 C   0  0  0  0  0  0  0  0  0  0  0  0
   -4.2890    0.1909    3.2243 C   0  0  0  0  0  0  0  0  0  0  0  0
   -4.2057    0.7319    1.9409 C   0  0  0  0  0  0  0  0  0  0  0  0
   -3.2293    0.2831    1.0364 C   0  0  0  0  0  0  0  0  0  0  0  0
   -3.1964    0.9217   -0.2904 C   0  0  0  0  0  0  0  0  0  0  0  0
   -4.0561    0.5540   -1.1376 O   0  0  0  0  0  0  0  0  0  0  0  0
   -2.3586    1.9371   -2.7425 H   0  0  0  0  0  0  0  0  0  0  0  0
   -1.6776    3.4554   -2.0661 H   0  0  0  0  0  0  0  0  0  0  0  0
   -3.4470    3.1432   -1.9510 H   0  0  0  0  0  0  0  0  0  0  0  0
   -1.8173    2.5487    1.3782 H   0  0  0  0  0  0  0  0  0  0  0  0
   -1.1532    3.6291    0.1458 H   0  0  0  0  0  0  0  0  0  0  0  0
    0.6283    2.3631    1.1766 H   0  0  0  0  0  0  0  0  0  0  0  0
   -0.1201    0.8068    0.8458 H   0  0  0  0  0  0  0  0  0  0  0  0
    1.8630    1.8726   -0.6837 H   0  0  0  0  0  0  0  0  0  0  0  0
    0.5389    2.7033   -1.4969 H   0  0  0  0  0  0  0  0  0  0  0  0
   -0.5295    0.5592   -2.0773 H   0  0  0  0  0  0  0  0  0  0  0  0
    1.1140    0.6377   -2.6950 H   0  0  0  0  0  0  0  0  0  0  0  0
    4.8846    0.5212   -1.8055 H   0  0  0  0  0  0  0  0  0  0  0  0
    6.2355    1.9953   -0.3631 H   0  0  0  0  0  0  0  0  0  0  0  0
    5.6970    2.2476    2.0182 H   0  0  0  0  0  0  0  0  0  0  0  0
    4.3690    2.8476    3.9439 H   0  0  0  0  0  0  0  0  0  0  0  0
    2.3984   -0.4891    1.5621 H   0  0  0  0  0  0  0  0  0  0  0  0
    0.3777   -2.7509   -0.7889 H   0  0  0  0  0  0  0  0  0  0  0  0
    0.0574   -1.3573   -3.4964 H   0  0  0  0  0  0  0  0  0  0  0  0
    0.7936   -2.9207   -3.0616 H   0  0  0  0  0  0  0  0  0  0  0  0
   -1.1833   -3.5955   -4.1384 H   0  0  0  0  0  0  0  0  0  0  0  0
   -2.1314   -2.1964   -3.5384 H   0  0  0  0  0  0  0  0  0  0  0  0
   -2.8454   -4.3401   -2.4546 H   0  0  0  0  0  0  0  0  0  0  0  0
   -1.1789   -4.5882   -1.8429 H   0  0  0  0  0  0  0  0  0  0  0  0
   -2.0905   -3.5973    0.0463 H   0  0  0  0  0  0  0  0  0  0  0  0
   -3.3443   -2.7043   -0.8679 H   0  0  0  0  0  0  0  0  0  0  0  0
   -1.9486   -0.9050   -1.3567 H   0  0  0  0  0  0  0  0  0  0  0  0
   -1.7423   -2.0428    3.0488 H   0  0  0  0  0  0  0  0  0  0  0  0
   -3.4584   -1.2196    4.6180 H   0  0  0  0  0  0  0  0  0  0  0  0
   -5.0418    0.5492    3.9147 H   0  0  0  0  0  0  0  0  0  0  0  0
   -4.8988    1.5140    1.6544 H   0  0  0  0  0  0  0  0  0  0  0  0
  1  2  1  0
  2  3  1  0
  3  4  1  0
  4  5  1  0
  5  6  1  0
  6  7  1  0
  7  8  1  0
  8  9  2  0
  8 10  2  0
  8 11  1  0
 11 12  2  0
 12 13  1  0
 13 14  2  0
 14 15  1  0
 15 16  1  0
 16 17  1  0
 17 18  1  0
 17 19  1  0
 15 20  2  0
  7 21  1  0
 21 22  1  0
 22 23  1  0
 23 24  1  0
 24 25  1  0
 25 26  1  0
 26 27  1  0
 27 28  1  0
 28 29  2  0
 29 30  1  0
 30 31  2  0
 31 32  1  0
 32 33  2  0
 33 34  1  0
 34 35  2  0
 34  2  1  0
 20 11  1  0
 26 21  1  0
 33 28  1  0
  1 36  1  0
  1 37  1  0
  1 38  1  0
  3 39  1  0
  3 40  1  0
  4 41  1  0
  4 42  1  0
  5 43  1  0
  5 44  1  0
  6 45  1  0
  6 46  1  0
 12 47  1  0
 13 48  1  0
 14 49  1  0
 17 50  1  0
 20 51  1  0
 21 52  1  0
 22 53  1  0
 22 54  1  0
 23 55  1  0
 23 56  1  0
 24 57  1  0
 24 58  1  0
 25 59  1  0
 25 60  1  0
 26 61  1  0
 29 62  1  0
 30 63  1  0
 31 64  1  0
 32 65  1  0
M  END
$$$$
