
     RDKit          3D

 72 75  0  0  0  0  0  0  0  0999 V2000
   -3.7971    0.3703    2.6983 O   0  0  0  0  0  0  0  0  0  0  0  0
   -4.0215   -0.3975    1.7234 C   0  0  0  0  0  0  0  0  0  0  0  0
   -3.4877   -0.0257    0.3606 C   0  0  0  0  0  0  0  0  0  0  0  0
   -2.3566    0.9246    0.4729 N   0  0  0  0  0  0  0  0  0  0  0  0
   -2.1934    1.7644   -0.7323 C   0  0  0  0  0  0  0  0  0  0  0  0
   -3.3005    2.7820   -0.8274 C   0  0  0  0  0  0  0  0  0  0  0  0
   -3.4501    3.7529    0.1768 C   0  0  0  0  0  0  0  0  0  0  0  0
   -4.4755    4.6998    0.0946 C   0  0  0  0  0  0  0  0  0  0  0  0
   -5.3555    4.6864   -0.9909 C   0  0  0  0  0  0  0  0  0  0  0  0
   -5.2121    3.7250   -1.9952 C   0  0  0  0  0  0  0  0  0  0  0  0
   -4.1895    2.7738   -1.9153 C   0  0  0  0  0  0  0  0  0  0  0  0
   -1.0977    0.2944    0.9618 C   0  0  0  0  0  0  0  0  0  0  0  0
   -0.1031   -0.1154   -0.1189 C   0  0  0  0  0  0  0  0  0  0  0  0
    0.9406    0.7647   -0.4579 C   0  0  0  0  0  0  0  0  0  0  0  0
    1.8969    0.4145   -1.4216 C   0  0  0  0  0  0  0  0  0  0  0  0
    2.9938    1.3847   -1.7875 C   0  0  0  0  0  0  0  0  0  0  0  0
    4.0562    1.5104   -0.6803 C   0  0  0  0  0  0  0  0  0  0  0  0
    5.0316    0.3544   -0.6220 C   0  0  0  0  0  0  0  0  0  0  0  0
    4.7692   -0.7116   -1.2435 O   0  0  0  0  0  0  0  0  0  0  0  0
    6.2515    0.4427    0.1502 N   0  0  0  0  0  0  0  0  0  0  0  0
    7.3690   -0.4555   -0.1730 C   0  0  0  0  0  0  0  0  0  0  0  0
    8.2837   -0.6339    1.0411 C   0  0  0  0  0  0  0  0  0  0  0  0
    8.6629    0.6201    1.5715 O   0  0  0  0  0  0  0  0  0  0  0  0
    7.5245    1.2729    2.0953 C   0  0  0  0  0  0  0  0  0  0  0  0
    6.5329    1.6228    0.9815 C   0  0  0  0  0  0  0  0  0  0  0  0
    1.8210   -0.8410   -2.0363 C   0  0  0  0  0  0  0  0  0  0  0  0
    0.8055   -1.7343   -1.6943 C   0  0  0  0  0  0  0  0  0  0  0  0
   -0.1708   -1.3784   -0.7447 C   0  0  0  0  0  0  0  0  0  0  0  0
   -1.2169   -2.2442   -0.4025 O   0  0  0  0  0  0  0  0  0  0  0  0
   -1.4694   -3.5265   -0.9725 C   0  0  0  0  0  0  0  0  0  0  0  0
   -2.9283   -3.9070   -0.7223 C   0  0  0  0  0  0  0  0  0  0  0  0
   -3.2741   -3.9435    0.7776 C   0  0  0  0  0  0  0  0  0  0  0  0
   -4.7902   -3.8673    1.0239 C   0  0  0  0  0  0  0  0  0  0  0  0
   -5.3537   -2.4420    0.8926 C   0  0  0  0  0  0  0  0  0  0  0  0
   -4.8210   -1.5723    1.9442 N   0  0  0  0  0  0  0  0  0  0  0  0
   -3.1819   -0.9222   -0.2031 H   0  0  0  0  0  0  0  0  0  0  0  0
   -4.3341    0.4294   -0.1960 H   0  0  0  0  0  0  0  0  0  0  0  0
   -2.1469    1.1269   -1.6444 H   0  0  0  0  0  0  0  0  0  0  0  0
   -1.2461    2.3407   -0.6759 H   0  0  0  0  0  0  0  0  0  0  0  0
   -2.7722    3.7750    1.0207 H   0  0  0  0  0  0  0  0  0  0  0  0
   -4.5873    5.4450    0.8716 H   0  0  0  0  0  0  0  0  0  0  0  0
   -6.1476    5.4215   -1.0541 H   0  0  0  0  0  0  0  0  0  0  0  0
   -5.8935    3.7174   -2.8366 H   0  0  0  0  0  0  0  0  0  0  0  0
   -4.0917    2.0345   -2.7008 H   0  0  0  0  0  0  0  0  0  0  0  0
   -0.6053    1.0172    1.6477 H   0  0  0  0  0  0  0  0  0  0  0  0
   -1.3166   -0.5857    1.6057 H   0  0  0  0  0  0  0  0  0  0  0  0
    1.0093    1.7303    0.0292 H   0  0  0  0  0  0  0  0  0  0  0  0
    3.4775    1.1012   -2.7484 H   0  0  0  0  0  0  0  0  0  0  0  0
    2.5336    2.3838   -1.9514 H   0  0  0  0  0  0  0  0  0  0  0  0
    4.6325    2.4403   -0.8750 H   0  0  0  0  0  0  0  0  0  0  0  0
    3.5608    1.6235    0.3073 H   0  0  0  0  0  0  0  0  0  0  0  0
    6.9991   -1.4579   -0.4780 H   0  0  0  0  0  0  0  0  0  0  0  0
    7.9511   -0.0226   -1.0143 H   0  0  0  0  0  0  0  0  0  0  0  0
    9.2001   -1.1726    0.7200 H   0  0  0  0  0  0  0  0  0  0  0  0
    7.7888   -1.2670    1.8128 H   0  0  0  0  0  0  0  0  0  0  0  0
    7.0290    0.6542    2.8783 H   0  0  0  0  0  0  0  0  0  0  0  0
    7.8522    2.2131    2.5868 H   0  0  0  0  0  0  0  0  0  0  0  0
    5.6040    1.9984    1.4610 H   0  0  0  0  0  0  0  0  0  0  0  0
    6.9583    2.4273    0.3429 H   0  0  0  0  0  0  0  0  0  0  0  0
    2.5503   -1.1320   -2.7825 H   0  0  0  0  0  0  0  0  0  0  0  0
    0.7932   -2.7019   -2.1758 H   0  0  0  0  0  0  0  0  0  0  0  0
   -0.7853   -4.2787   -0.5240 H   0  0  0  0  0  0  0  0  0  0  0  0
   -1.3176   -3.4983   -2.0729 H   0  0  0  0  0  0  0  0  0  0  0  0
   -3.1281   -4.9050   -1.1687 H   0  0  0  0  0  0  0  0  0  0  0  0
   -3.5666   -3.1728   -1.2560 H   0  0  0  0  0  0  0  0  0  0  0  0
   -2.7708   -3.1228    1.3317 H   0  0  0  0  0  0  0  0  0  0  0  0
   -2.8908   -4.8981    1.1995 H   0  0  0  0  0  0  0  0  0  0  0  0
   -5.0062   -4.2405    2.0486 H   0  0  0  0  0  0  0  0  0  0  0  0
   -5.3197   -4.5398    0.3140 H   0  0  0  0  0  0  0  0  0  0  0  0
   -5.1697   -2.0304   -0.1183 H   0  0  0  0  0  0  0  0  0  0  0  0
   -6.4574   -2.4922    1.0090 H   0  0  0  0  0  0  0  0  0  0  0  0
   -5.0791   -1.8039    2.9300 H   0  0  0  0  0  0  0  0  0  0  0  0
  1  2  2  0
  2  3  1  0
  3  4  1  0
  4  5  1  0
  5  6  1  0
  6  7  2  0
  7  8  1  0
  8  9  2  0
  9 10  1  0
 10 11  2  0
  4 12  1  0
 12 13  1  0
 13 14  2  0
 14 15  1  0
 15 16  1  0
 16 17  1  0
 17 18  1  0
 18 19  2  0
 18 20  1  0
 20 21  1  0
 21 22  1  0
 22 23  1  0
 23 24  1  0
 24 25  1  0
 15 26  2  0
 26 27  1  0
 27 28  2  0
 28 29  1  0
 29 30  1  0
 30 31  1  0
 31 32  1  0
 32 33  1  0
 33 34  1  0
 34 35  1  0
 35  2  1  0
 11  6  1  0
 28 13  1  0
 25 20  1  0
  3 36  1  0
  3 37  1  0
  5 38  1  0
  5 39  1  0
  7 40  1  0
  8 41  1  0
  9 42  1  0
 10 43  1  0
 11 44  1  0
 12 45  1  0
 12 46  1  0
 14 47  1  0
 16 48  1  0
 16 49  1  0
 17 50  1  0
 17 51  1  0
 21 52  1  0
 21 53  1  0
 22 54  1  0
 22 55  1  0
 24 56  1  0
 24 57  1  0
 25 58  1  0
 25 59  1  0
 26 60  1  0
 27 61  1  0
 30 62  1  0
 30 63  1  0
 31 64  1  0
 31 65  1  0
 32 66  1  0
 32 67  1  0
 33 68  1  0
 33 69  1  0
 34 70  1  0
 34 71  1  0
 35 72  1  0
M  END
$$$$
