
     RDKit          3D

 68 71  0  0  0  0  0  0  0  0999 V2000
    6.6208    1.0632    1.9694 C   0  0  0  0  0  0  0  0  0  0  0  0
    5.9899    0.2157    0.8622 C   0  0  0  0  0  0  0  0  0  0  0  0
    4.4444    0.3979    0.8212 C   0  0  0  0  0  0  0  0  0  0  0  0
    3.9223    0.1996   -0.5383 N   0  0  0  0  0  0  0  0  0  0  0  0
    2.6212   -0.3805   -0.7793 C   0  0  0  0  0  0  0  0  0  0  0  0
    2.3164   -0.7521   -1.9460 O   0  0  0  0  0  0  0  0  0  0  0  0
    1.6418   -0.6258    0.3418 C   0  0  0  0  0  0  0  0  0  0  0  0
    0.2510   -0.6950   -0.1608 N   0  0  0  0  0  0  0  0  0  0  0  0
   -0.2884    0.6175   -0.5966 C   0  0  0  0  0  0  0  0  0  0  0  0
   -0.3599    1.6803    0.5352 C   0  0  0  0  0  0  0  0  0  0  0  0
   -1.5455    2.6554    0.3858 C   0  0  0  0  0  0  0  0  0  0  0  0
   -2.9177    2.0089    0.6671 C   0  0  0  0  0  0  0  0  0  0  0  0
   -3.1944    1.7757    2.1658 C   0  0  0  0  0  0  0  0  0  0  0  0
   -3.9923    0.4937    2.4639 C   0  0  0  0  0  0  0  0  0  0  0  0
   -5.2583    0.4691    1.8005 O   0  0  0  0  0  0  0  0  0  0  0  0
   -5.5833   -0.0091    0.5139 C   0  0  0  0  0  0  0  0  0  0  0  0
   -6.8340    0.3855    0.0173 C   0  0  0  0  0  0  0  0  0  0  0  0
   -7.2614   -0.0006   -1.2508 C   0  0  0  0  0  0  0  0  0  0  0  0
   -6.4288   -0.7660   -2.0629 C   0  0  0  0  0  0  0  0  0  0  0  0
   -5.1849   -1.1837   -1.5904 C   0  0  0  0  0  0  0  0  0  0  0  0
   -4.7588   -0.8543   -0.2847 C   0  0  0  0  0  0  0  0  0  0  0  0
   -3.5177   -1.3018    0.1984 O   0  0  0  0  0  0  0  0  0  0  0  0
   -2.7882   -2.4143   -0.2480 C   0  0  0  0  0  0  0  0  0  0  0  0
   -3.4138   -3.4446   -0.8841 N   0  0  0  0  0  0  0  0  0  0  0  0
   -2.7424   -4.5477   -1.3087 C   0  0  0  0  0  0  0  0  0  0  0  0
   -1.3687   -4.6534   -1.0979 C   0  0  0  0  0  0  0  0  0  0  0  0
   -0.6986   -3.6221   -0.4392 C   0  0  0  0  0  0  0  0  0  0  0  0
   -1.4020   -2.4941    0.0068 C   0  0  0  0  0  0  0  0  0  0  0  0
   -0.6626   -1.4162    0.7575 C   0  0  0  0  0  0  0  0  0  0  0  0
    4.6760    0.7422   -1.6746 C   0  0  0  0  0  0  0  0  0  0  0  0
    5.9896    1.3719   -1.1931 C   0  0  0  0  0  0  0  0  0  0  0  0
    6.8830    1.7324   -2.3783 C   0  0  0  0  0  0  0  0  0  0  0  0
    6.6695    0.4478   -0.3684 O   0  0  0  0  0  0  0  0  0  0  0  0
    6.1549    0.8225    2.9493 H   0  0  0  0  0  0  0  0  0  0  0  0
    6.4824    2.1454    1.7601 H   0  0  0  0  0  0  0  0  0  0  0  0
    7.7094    0.8508    2.0327 H   0  0  0  0  0  0  0  0  0  0  0  0
    6.1794   -0.8484    1.1270 H   0  0  0  0  0  0  0  0  0  0  0  0
    4.1606    1.4197    1.1574 H   0  0  0  0  0  0  0  0  0  0  0  0
    3.9949   -0.3290    1.5306 H   0  0  0  0  0  0  0  0  0  0  0  0
    1.9356   -1.5972    0.7965 H   0  0  0  0  0  0  0  0  0  0  0  0
    1.7353    0.1551    1.1250 H   0  0  0  0  0  0  0  0  0  0  0  0
   -1.2776    0.4487   -1.0675 H   0  0  0  0  0  0  0  0  0  0  0  0
    0.3393    1.0229   -1.4190 H   0  0  0  0  0  0  0  0  0  0  0  0
   -0.3847    1.2173    1.5410 H   0  0  0  0  0  0  0  0  0  0  0  0
    0.5768    2.2780    0.5028 H   0  0  0  0  0  0  0  0  0  0  0  0
   -1.4002    3.5142    1.0787 H   0  0  0  0  0  0  0  0  0  0  0  0
   -1.5415    3.0673   -0.6483 H   0  0  0  0  0  0  0  0  0  0  0  0
   -3.7109    2.6767    0.2662 H   0  0  0  0  0  0  0  0  0  0  0  0
   -2.9945    1.0738    0.0988 H   0  0  0  0  0  0  0  0  0  0  0  0
   -3.7564    2.6480    2.5658 H   0  0  0  0  0  0  0  0  0  0  0  0
   -2.2467    1.7206    2.7419 H   0  0  0  0  0  0  0  0  0  0  0  0
   -3.4014   -0.4205    2.2987 H   0  0  0  0  0  0  0  0  0  0  0  0
   -4.1999    0.4942    3.5553 H   0  0  0  0  0  0  0  0  0  0  0  0
   -7.4823    1.0058    0.6247 H   0  0  0  0  0  0  0  0  0  0  0  0
   -8.2293    0.3169   -1.6162 H   0  0  0  0  0  0  0  0  0  0  0  0
   -6.7518   -1.0402   -3.0573 H   0  0  0  0  0  0  0  0  0  0  0  0
   -4.5478   -1.7379   -2.2660 H   0  0  0  0  0  0  0  0  0  0  0  0
   -3.2778   -5.3427   -1.8108 H   0  0  0  0  0  0  0  0  0  0  0  0
   -0.8298   -5.5331   -1.4290 H   0  0  0  0  0  0  0  0  0  0  0  0
    0.3670   -3.7110   -0.2571 H   0  0  0  0  0  0  0  0  0  0  0  0
   -1.3779   -0.7331    1.2504 H   0  0  0  0  0  0  0  0  0  0  0  0
   -0.1155   -1.9002    1.5967 H   0  0  0  0  0  0  0  0  0  0  0  0
    4.8986   -0.0839   -2.3856 H   0  0  0  0  0  0  0  0  0  0  0  0
    4.0642    1.5106   -2.1957 H   0  0  0  0  0  0  0  0  0  0  0  0
    5.7748    2.3151   -0.6367 H   0  0  0  0  0  0  0  0  0  0  0  0
    7.1487    0.8211   -2.9570 H   0  0  0  0  0  0  0  0  0  0  0  0
    7.8188    2.2071   -2.0129 H   0  0  0  0  0  0  0  0  0  0  0  0
    6.3610    2.4501   -3.0472 H   0  0  0  0  0  0  0  0  0  0  0  0
  1  2  1  0
  2  3  1  0
  3  4  1  0
  4  5  1  0
  5  6  2  0
  5  7  1  0
  7  8  1  0
  8  9  1  0
  9 10  1  0
 10 11  1  0
 11 12  1  0
 12 13  1  0
 13 14  1  0
 14 15  1  0
 15 16  1  0
 16 17  2  0
 17 18  1  0
 18 19  2  0
 19 20  1  0
 20 21  2  0
 21 22  1  0
 22 23  1  0
 23 24  2  0
 24 25  1  0
 25 26  2  0
 26 27  1  0
 27 28  2  0
 28 29  1  0
  4 30  1  0
 30 31  1  0
 31 32  1  0
 31 33  1  0
 33  2  1  0
 29  8  1  0
 21 16  1  0
 28 23  1  0
  1 34  1  0
  1 35  1  0
  1 36  1  0
  2 37  1  0
  3 38  1  0
  3 39  1  0
  7 40  1  0
  7 41  1  0
  9 42  1  0
  9 43  1  0
 10 44  1  0
 10 45  1  0
 11 46  1  0
 11 47  1  0
 12 48  1  0
 12 49  1  0
 13 50  1  0
 13 51  1  0
 14 52  1  0
 14 53  1  0
 17 54  1  0
 18 55  1  0
 19 56  1  0
 20 57  1  0
 25 58  1  0
 26 59  1  0
 27 60  1  0
 29 61  1  0
 29 62  1  0
 30 63  1  0
 30 64  1  0
 31 65  1  0
 32 66  1  0
 32 67  1  0
 32 68  1  0
M  END
$$$$
