
     RDKit          3D

 79 82  0  0  0  0  0  0  0  0999 V2000
    8.8610    1.2861   -0.3946 C   0  0  0  0  0  0  0  0  0  0  0  0
    8.0585    0.1311   -0.1960 O   0  0  0  0  0  0  0  0  0  0  0  0
    6.6724    0.0740   -0.4205 C   0  0  0  0  0  0  0  0  0  0  0  0
    5.9478    1.1811   -0.8959 C   0  0  0  0  0  0  0  0  0  0  0  0
    4.5658    1.0956   -1.1037 C   0  0  0  0  0  0  0  0  0  0  0  0
    3.8363    2.2846   -1.6845 C   0  0  0  0  0  0  0  0  0  0  0  0
    2.4277    2.3230   -1.2948 N   0  0  0  0  0  0  0  0  0  0  0  0
    1.9967    2.5617    0.0538 C   0  0  0  0  0  0  0  0  0  0  0  0
    2.8400    2.6571    0.9854 O   0  0  0  0  0  0  0  0  0  0  0  0
    0.5398    2.7514    0.3531 C   0  0  0  0  0  0  0  0  0  0  0  0
   -0.2560    1.6966   -0.3050 N   0  0  0  0  0  0  0  0  0  0  0  0
   -1.5444    2.1746   -0.8603 C   0  0  0  0  0  0  0  0  0  0  0  0
   -2.5206    2.8076    0.1702 C   0  0  0  0  0  0  0  0  0  0  0  0
   -3.5500    1.8099    0.7417 C   0  0  0  0  0  0  0  0  0  0  0  0
   -4.9233    1.6774   -0.0047 C   0  0  0  0  0  0  0  0  0  0  0  0
   -5.8141    2.8985    0.3041 C   0  0  0  0  0  0  0  0  0  0  0  0
   -4.7584    1.5526   -1.5342 C   0  0  0  0  0  0  0  0  0  0  0  0
   -5.6360    0.4009    0.5155 C   0  0  0  0  0  0  0  0  0  0  0  0
   -4.7888   -0.7303    0.3053 O   0  0  0  0  0  0  0  0  0  0  0  0
   -4.7339   -1.8251    1.1685 C   0  0  0  0  0  0  0  0  0  0  0  0
   -5.9028   -2.4822    1.5809 C   0  0  0  0  0  0  0  0  0  0  0  0
   -5.8164   -3.6002    2.4147 C   0  0  0  0  0  0  0  0  0  0  0  0
   -4.5670   -4.0579    2.8477 C   0  0  0  0  0  0  0  0  0  0  0  0
   -3.4017   -3.3856    2.4642 C   0  0  0  0  0  0  0  0  0  0  0  0
   -3.4808   -2.2690    1.6244 C   0  0  0  0  0  0  0  0  0  0  0  0
   -2.3210   -1.5662    1.2820 O   0  0  0  0  0  0  0  0  0  0  0  0
   -1.7147   -1.6698    0.0269 C   0  0  0  0  0  0  0  0  0  0  0  0
   -2.0577   -2.6950   -0.8035 N   0  0  0  0  0  0  0  0  0  0  0  0
   -1.4744   -2.8656   -2.0174 C   0  0  0  0  0  0  0  0  0  0  0  0
   -0.4905   -1.9765   -2.4532 C   0  0  0  0  0  0  0  0  0  0  0  0
   -0.1284   -0.9065   -1.6371 C   0  0  0  0  0  0  0  0  0  0  0  0
   -0.7413   -0.7276   -0.3842 C   0  0  0  0  0  0  0  0  0  0  0  0
   -0.3286    0.4451    0.4834 C   0  0  0  0  0  0  0  0  0  0  0  0
    3.9125   -0.1256   -0.8734 C   0  0  0  0  0  0  0  0  0  0  0  0
    4.6211   -1.2420   -0.3892 C   0  0  0  0  0  0  0  0  0  0  0  0
    3.9914   -2.4763   -0.1755 O   0  0  0  0  0  0  0  0  0  0  0  0
    2.6020   -2.7249   -0.3639 C   0  0  0  0  0  0  0  0  0  0  0  0
    6.0062   -1.1289   -0.1494 C   0  0  0  0  0  0  0  0  0  0  0  0
    6.7656   -2.2061    0.3272 O   0  0  0  0  0  0  0  0  0  0  0  0
    6.4123   -2.9768    1.4743 C   0  0  0  0  0  0  0  0  0  0  0  0
    9.9118    1.0472   -0.1259 H   0  0  0  0  0  0  0  0  0  0  0  0
    8.8272    1.5973   -1.4599 H   0  0  0  0  0  0  0  0  0  0  0  0
    8.5051    2.1129    0.2575 H   0  0  0  0  0  0  0  0  0  0  0  0
    6.4556    2.1091   -1.1193 H   0  0  0  0  0  0  0  0  0  0  0  0
    3.9114    2.2318   -2.7933 H   0  0  0  0  0  0  0  0  0  0  0  0
    4.3214    3.2300   -1.3575 H   0  0  0  0  0  0  0  0  0  0  0  0
    1.7064    2.2596   -2.0485 H   0  0  0  0  0  0  0  0  0  0  0  0
    0.2622    3.7589   -0.0259 H   0  0  0  0  0  0  0  0  0  0  0  0
    0.3656    2.7486    1.4506 H   0  0  0  0  0  0  0  0  0  0  0  0
   -1.3186    2.9365   -1.6347 H   0  0  0  0  0  0  0  0  0  0  0  0
   -2.0330    1.3526   -1.4112 H   0  0  0  0  0  0  0  0  0  0  0  0
   -1.9515    3.2507    1.0127 H   0  0  0  0  0  0  0  0  0  0  0  0
   -3.0511    3.6581   -0.3074 H   0  0  0  0  0  0  0  0  0  0  0  0
   -3.7496    2.0900    1.7989 H   0  0  0  0  0  0  0  0  0  0  0  0
   -3.0693    0.8232    0.7997 H   0  0  0  0  0  0  0  0  0  0  0  0
   -5.9564    3.0137    1.4003 H   0  0  0  0  0  0  0  0  0  0  0  0
   -5.3624    3.8329   -0.0886 H   0  0  0  0  0  0  0  0  0  0  0  0
   -6.8160    2.7828   -0.1607 H   0  0  0  0  0  0  0  0  0  0  0  0
   -4.1594    0.6559   -1.8023 H   0  0  0  0  0  0  0  0  0  0  0  0
   -4.2721    2.4529   -1.9625 H   0  0  0  0  0  0  0  0  0  0  0  0
   -5.7521    1.4518   -2.0201 H   0  0  0  0  0  0  0  0  0  0  0  0
   -5.8500    0.5159    1.6037 H   0  0  0  0  0  0  0  0  0  0  0  0
   -6.6043    0.2391   -0.0132 H   0  0  0  0  0  0  0  0  0  0  0  0
   -6.8703   -2.1392    1.2395 H   0  0  0  0  0  0  0  0  0  0  0  0
   -6.7162   -4.1159    2.7187 H   0  0  0  0  0  0  0  0  0  0  0  0
   -4.5057   -4.9260    3.4906 H   0  0  0  0  0  0  0  0  0  0  0  0
   -2.4360   -3.7346    2.8128 H   0  0  0  0  0  0  0  0  0  0  0  0
   -1.7709   -3.6978   -2.6441 H   0  0  0  0  0  0  0  0  0  0  0  0
   -0.0204   -2.1057   -3.4196 H   0  0  0  0  0  0  0  0  0  0  0  0
    0.6241   -0.2109   -1.9851 H   0  0  0  0  0  0  0  0  0  0  0  0
   -0.9840    0.5769    1.3688 H   0  0  0  0  0  0  0  0  0  0  0  0
    0.6810    0.2033    0.8870 H   0  0  0  0  0  0  0  0  0  0  0  0
    2.8558   -0.2040   -1.0873 H   0  0  0  0  0  0  0  0  0  0  0  0
    2.3799   -3.7793   -0.0987 H   0  0  0  0  0  0  0  0  0  0  0  0
    2.0023   -2.0657    0.2981 H   0  0  0  0  0  0  0  0  0  0  0  0
    2.3289   -2.5599   -1.4266 H   0  0  0  0  0  0  0  0  0  0  0  0
    5.5530   -3.6460    1.2608 H   0  0  0  0  0  0  0  0  0  0  0  0
    6.1737   -2.3045    2.3292 H   0  0  0  0  0  0  0  0  0  0  0  0
    7.2776   -3.6129    1.7549 H   0  0  0  0  0  0  0  0  0  0  0  0
  1  2  1  0
  2  3  1  0
  3  4  2  0
  4  5  1  0
  5  6  1  0
  6  7  1  0
  7  8  1  0
  8  9  2  0
  8 10  1  0
 10 11  1  0
 11 12  1  0
 12 13  1  0
 13 14  1  0
 14 15  1  0
 15 16  1  0
 15 17  1  0
 15 18  1  0
 18 19  1  0
 19 20  1  0
 20 21  2  0
 21 22  1  0
 22 23  2  0
 23 24  1  0
 24 25  2  0
 25 26  1  0
 26 27  1  0
 27 28  2  0
 28 29  1  0
 29 30  2  0
 30 31  1  0
 31 32  2  0
 32 33  1  0
  5 34  2  0
 34 35  1  0
 35 36  1  0
 36 37  1  0
 35 38  2  0
 38 39  1  0
 39 40  1  0
 38  3  1  0
 33 11  1  0
 25 20  1  0
 32 27  1  0
  1 41  1  0
  1 42  1  0
  1 43  1  0
  4 44  1  0
  6 45  1  0
  6 46  1  0
  7 47  1  0
 10 48  1  0
 10 49  1  0
 12 50  1  0
 12 51  1  0
 13 52  1  0
 13 53  1  0
 14 54  1  0
 14 55  1  0
 16 56  1  0
 16 57  1  0
 16 58  1  0
 17 59  1  0
 17 60  1  0
 17 61  1  0
 18 62  1  0
 18 63  1  0
 21 64  1  0
 22 65  1  0
 23 66  1  0
 24 67  1  0
 29 68  1  0
 30 69  1  0
 31 70  1  0
 33 71  1  0
 33 72  1  0
 34 73  1  0
 37 74  1  0
 37 75  1  0
 37 76  1  0
 40 77  1  0
 40 78  1  0
 40 79  1  0
M  END
$$$$
