
     RDKit          3D

 79 83  0  0  0  0  0  0  0  0999 V2000
    3.7986   -3.1353   -1.5849 C   0  0  0  0  0  0  0  0  0  0  0  0
    4.5235   -1.8303   -1.5034 C   0  0  0  0  0  0  0  0  0  0  0  0
    5.8463   -1.7066   -1.7320 N   0  0  0  0  0  0  0  0  0  0  0  0
    6.1879   -0.4468   -1.4979 N   0  0  0  0  0  0  0  0  0  0  0  0
    7.5746    0.0157   -1.5505 C   0  0  0  0  0  0  0  0  0  0  0  0
    8.2576   -0.2519   -0.2368 C   0  0  0  0  0  0  0  0  0  0  0  0
    8.6885   -1.5508    0.0802 C   0  0  0  0  0  0  0  0  0  0  0  0
    9.2998   -1.8098    1.3111 C   0  0  0  0  0  0  0  0  0  0  0  0
    9.4804   -0.7769    2.2347 C   0  0  0  0  0  0  0  0  0  0  0  0
    9.0472    0.5169    1.9300 C   0  0  0  0  0  0  0  0  0  0  0  0
    8.4337    0.7800    0.7007 C   0  0  0  0  0  0  0  0  0  0  0  0
    5.0987    0.2561   -1.1055 C   0  0  0  0  0  0  0  0  0  0  0  0
    5.1016    1.6815   -0.6387 C   0  0  0  0  0  0  0  0  0  0  0  0
    4.0127   -0.5983   -1.1208 C   0  0  0  0  0  0  0  0  0  0  0  0
    2.6829   -0.2942   -0.6766 N   0  0  0  0  0  0  0  0  0  0  0  0
    1.5058   -0.7609   -1.3492 C   0  0  0  0  0  0  0  0  0  0  0  0
    1.5898   -1.2987   -2.4863 O   0  0  0  0  0  0  0  0  0  0  0  0
    0.1522   -0.5574   -0.7352 C   0  0  0  0  0  0  0  0  0  0  0  0
   -0.6916    0.3022   -1.5968 N   0  0  0  0  0  0  0  0  0  0  0  0
   -0.2158    1.6915   -1.6754 C   0  0  0  0  0  0  0  0  0  0  0  0
   -0.3679    2.4186   -0.3300 C   0  0  0  0  0  0  0  0  0  0  0  0
   -1.3717    1.8750    0.5184 O   0  0  0  0  0  0  0  0  0  0  0  0
   -2.5171    1.3801   -0.1725 C   0  0  0  0  0  0  0  0  0  0  0  0
   -3.4652    0.7797    0.8871 C   0  0  0  0  0  0  0  0  0  0  0  0
   -2.8239   -0.0266    2.0211 C   0  0  0  0  0  0  0  0  0  0  0  0
   -3.8230   -1.0257    2.6511 C   0  0  0  0  0  0  0  0  0  0  0  0
   -5.2384   -0.4519    2.9506 C   0  0  0  0  0  0  0  0  0  0  0  0
   -6.2816   -0.9515    1.9625 C   0  0  0  0  0  0  0  0  0  0  0  0
   -6.7379   -2.2746    2.0961 C   0  0  0  0  0  0  0  0  0  0  0  0
   -7.6520   -2.8098    1.1877 C   0  0  0  0  0  0  0  0  0  0  0  0
   -8.1169   -2.0357    0.1263 C   0  0  0  0  0  0  0  0  0  0  0  0
   -7.6757   -0.7213   -0.0285 C   0  0  0  0  0  0  0  0  0  0  0  0
   -6.7642   -0.1577    0.8879 C   0  0  0  0  0  0  0  0  0  0  0  0
   -6.3228    1.1711    0.7510 O   0  0  0  0  0  0  0  0  0  0  0  0
   -6.4269    1.9786   -0.4273 C   0  0  0  0  0  0  0  0  0  0  0  0
   -5.5309    1.4624   -1.5793 C   0  0  0  0  0  0  0  0  0  0  0  0
   -4.3542    2.3182   -1.7919 N   0  0  0  0  0  0  0  0  0  0  0  0
   -3.2904    2.5297   -0.8428 C   0  0  0  0  0  0  0  0  0  0  0  0
   -3.0154    3.7185   -0.5266 O   0  0  0  0  0  0  0  0  0  0  0  0
   -2.1162    0.2671   -1.2094 C   0  0  0  0  0  0  0  0  0  0  0  0
    4.5110   -3.9712   -1.4194 H   0  0  0  0  0  0  0  0  0  0  0  0
    3.0097   -3.1876   -0.8062 H   0  0  0  0  0  0  0  0  0  0  0  0
    3.3449   -3.2503   -2.5906 H   0  0  0  0  0  0  0  0  0  0  0  0
    7.6202    1.0933   -1.8126 H   0  0  0  0  0  0  0  0  0  0  0  0
    8.1110   -0.5225   -2.3621 H   0  0  0  0  0  0  0  0  0  0  0  0
    8.5522   -2.3609   -0.6261 H   0  0  0  0  0  0  0  0  0  0  0  0
    9.6315   -2.8128    1.5494 H   0  0  0  0  0  0  0  0  0  0  0  0
    9.9533   -0.9794    3.1877 H   0  0  0  0  0  0  0  0  0  0  0  0
    9.1862    1.3160    2.6476 H   0  0  0  0  0  0  0  0  0  0  0  0
    8.1020    1.7878    0.4787 H   0  0  0  0  0  0  0  0  0  0  0  0
    5.7307    2.3058   -1.3039 H   0  0  0  0  0  0  0  0  0  0  0  0
    4.0752    2.1016   -0.6567 H   0  0  0  0  0  0  0  0  0  0  0  0
    5.4928    1.7295    0.3985 H   0  0  0  0  0  0  0  0  0  0  0  0
    2.5687    0.3943    0.0997 H   0  0  0  0  0  0  0  0  0  0  0  0
   -0.3045   -1.5657   -0.6371 H   0  0  0  0  0  0  0  0  0  0  0  0
    0.2448   -0.1438    0.2910 H   0  0  0  0  0  0  0  0  0  0  0  0
   -0.8080    2.2301   -2.4483 H   0  0  0  0  0  0  0  0  0  0  0  0
    0.8414    1.7310   -2.0165 H   0  0  0  0  0  0  0  0  0  0  0  0
   -0.5445    3.5018   -0.4978 H   0  0  0  0  0  0  0  0  0  0  0  0
    0.5996    2.3475    0.2107 H   0  0  0  0  0  0  0  0  0  0  0  0
   -4.0205    1.6125    1.3706 H   0  0  0  0  0  0  0  0  0  0  0  0
   -4.1638    0.0998    0.3737 H   0  0  0  0  0  0  0  0  0  0  0  0
   -1.9516   -0.5983    1.6381 H   0  0  0  0  0  0  0  0  0  0  0  0
   -2.4529    0.6718    2.8039 H   0  0  0  0  0  0  0  0  0  0  0  0
   -3.3769   -1.3911    3.6011 H   0  0  0  0  0  0  0  0  0  0  0  0
   -3.8988   -1.9159    1.9869 H   0  0  0  0  0  0  0  0  0  0  0  0
   -5.2341    0.6560    3.0138 H   0  0  0  0  0  0  0  0  0  0  0  0
   -5.5427   -0.7887    3.9665 H   0  0  0  0  0  0  0  0  0  0  0  0
   -6.3758   -2.8984    2.9048 H   0  0  0  0  0  0  0  0  0  0  0  0
   -7.9974   -3.8286    1.3037 H   0  0  0  0  0  0  0  0  0  0  0  0
   -8.8214   -2.4547   -0.5795 H   0  0  0  0  0  0  0  0  0  0  0  0
   -8.0562   -0.1489   -0.8627 H   0  0  0  0  0  0  0  0  0  0  0  0
   -6.1323    3.0157   -0.1608 H   0  0  0  0  0  0  0  0  0  0  0  0
   -7.4870    2.0396   -0.7529 H   0  0  0  0  0  0  0  0  0  0  0  0
   -6.1408    1.4826   -2.5092 H   0  0  0  0  0  0  0  0  0  0  0  0
   -5.2325    0.4046   -1.4580 H   0  0  0  0  0  0  0  0  0  0  0  0
   -4.4161    3.0057   -2.5776 H   0  0  0  0  0  0  0  0  0  0  0  0
   -2.3821   -0.7465   -0.8345 H   0  0  0  0  0  0  0  0  0  0  0  0
   -2.7178    0.3680   -2.1375 H   0  0  0  0  0  0  0  0  0  0  0  0
  1  2  1  0
  2  3  2  0
  3  4  1  0
  4  5  1  0
  5  6  1  0
  6  7  2  0
  7  8  1  0
  8  9  2  0
  9 10  1  0
 10 11  2  0
  4 12  1  0
 12 13  1  0
 12 14  2  0
 14 15  1  0
 15 16  1  0
 16 17  2  0
 16 18  1  0
 18 19  1  0
 19 20  1  0
 20 21  1  0
 21 22  1  0
 22 23  1  0
 23 24  1  0
 24 25  1  0
 25 26  1  0
 26 27  1  0
 27 28  1  0
 28 29  2  0
 29 30  1  0
 30 31  2  0
 31 32  1  0
 32 33  2  0
 33 34  1  0
 34 35  1  0
 35 36  1  0
 36 37  1  0
 37 38  1  0
 38 39  2  0
 23 40  1  0
 14  2  1  0
 40 19  1  0
 11  6  1  0
 38 23  1  0
 33 28  1  0
  1 41  1  0
  1 42  1  0
  1 43  1  0
  5 44  1  0
  5 45  1  0
  7 46  1  0
  8 47  1  0
  9 48  1  0
 10 49  1  0
 11 50  1  0
 13 51  1  0
 13 52  1  0
 13 53  1  0
 15 54  1  0
 18 55  1  0
 18 56  1  0
 20 57  1  0
 20 58  1  0
 21 59  1  0
 21 60  1  0
 24 61  1  0
 24 62  1  0
 25 63  1  0
 25 64  1  0
 26 65  1  0
 26 66  1  0
 27 67  1  0
 27 68  1  0
 29 69  1  0
 30 70  1  0
 31 71  1  0
 32 72  1  0
 35 73  1  0
 35 74  1  0
 36 75  1  0
 36 76  1  0
 37 77  1  0
 40 78  1  0
 40 79  1  0
M  END
$$$$
