
     RDKit          3D

 67 70  0  0  0  0  0  0  0  0999 V2000
   -4.2383   -4.1126    1.8767 C   0  0  0  0  0  0  0  0  0  0  0  0
   -3.9251   -3.1273    0.9192 O   0  0  0  0  0  0  0  0  0  0  0  0
   -3.6513   -1.8993    1.5695 C   0  0  0  0  0  0  0  0  0  0  0  0
   -2.9988   -0.8987    0.5732 C   0  0  0  0  0  0  0  0  0  0  0  0
   -1.7243   -1.5259   -0.0888 C   0  0  0  0  0  0  0  0  0  0  0  0
   -0.7378   -2.2264    0.8783 C   0  0  0  0  0  0  0  0  0  0  0  0
    0.7094   -2.1763    0.3495 C   0  0  0  0  0  0  0  0  0  0  0  0
    1.4935   -0.9723    0.9102 C   0  0  0  0  0  0  0  0  0  0  0  0
    2.4841   -0.4830   -0.0602 N   0  0  0  0  0  0  0  0  0  0  0  0
    3.5560   -1.3483   -0.4584 C   0  0  0  0  0  0  0  0  0  0  0  0
    3.3390   -2.2300   -1.3304 O   0  0  0  0  0  0  0  0  0  0  0  0
    4.8985   -1.2117    0.1495 C   0  0  0  0  0  0  0  0  0  0  0  0
    5.3094   -0.1780    0.9723 C   0  0  0  0  0  0  0  0  0  0  0  0
    6.6113   -0.4935    1.3037 C   0  0  0  0  0  0  0  0  0  0  0  0
    6.9602   -1.6585    0.7209 N   0  0  0  0  0  0  0  0  0  0  0  0
    5.9212   -2.0891    0.0240 N   0  0  0  0  0  0  0  0  0  0  0  0
    5.9215   -3.3577   -0.7023 C   0  0  0  0  0  0  0  0  0  0  0  0
    2.4630    0.9125   -0.5199 C   0  0  0  0  0  0  0  0  0  0  0  0
    1.1714    1.2327   -1.2728 C   0  0  0  0  0  0  0  0  0  0  0  0
    1.2425    2.5589   -1.7985 O   0  0  0  0  0  0  0  0  0  0  0  0
    0.3483    3.5917   -1.4712 C   0  0  0  0  0  0  0  0  0  0  0  0
    0.8887    4.8530   -1.1867 C   0  0  0  0  0  0  0  0  0  0  0  0
    0.0618    5.9139   -0.8088 C   0  0  0  0  0  0  0  0  0  0  0  0
   -1.3182    5.7287   -0.7263 C   0  0  0  0  0  0  0  0  0  0  0  0
   -1.8773    4.4868   -1.0362 C   0  0  0  0  0  0  0  0  0  0  0  0
   -1.0583    3.4115   -1.4192 C   0  0  0  0  0  0  0  0  0  0  0  0
   -1.6950    2.1500   -1.8449 C   0  0  0  0  0  0  0  0  0  0  0  0
   -1.4203    1.7007   -2.9901 O   0  0  0  0  0  0  0  0  0  0  0  0
   -2.5933    1.4142   -0.9800 N   0  0  0  0  0  0  0  0  0  0  0  0
   -2.6908    1.7008    0.4629 C   0  0  0  0  0  0  0  0  0  0  0  0
   -2.6174    0.4178    1.3234 C   0  0  0  0  0  0  0  0  0  0  0  0
   -3.4898    0.4133   -1.5757 C   0  0  0  0  0  0  0  0  0  0  0  0
   -4.0474   -0.5563   -0.5223 C   0  0  0  0  0  0  0  0  0  0  0  0
   -4.5517   -5.0369    1.3484 H   0  0  0  0  0  0  0  0  0  0  0  0
   -3.3413   -4.3657    2.4850 H   0  0  0  0  0  0  0  0  0  0  0  0
   -5.0791   -3.7961    2.5325 H   0  0  0  0  0  0  0  0  0  0  0  0
   -2.9781   -2.0389    2.4476 H   0  0  0  0  0  0  0  0  0  0  0  0
   -4.6023   -1.4674    1.9572 H   0  0  0  0  0  0  0  0  0  0  0  0
   -1.1809   -0.7309   -0.6417 H   0  0  0  0  0  0  0  0  0  0  0  0
   -2.0331   -2.2741   -0.8547 H   0  0  0  0  0  0  0  0  0  0  0  0
   -0.7715   -1.7896    1.8976 H   0  0  0  0  0  0  0  0  0  0  0  0
   -1.0449   -3.2913    0.9814 H   0  0  0  0  0  0  0  0  0  0  0  0
    0.7004   -2.1569   -0.7624 H   0  0  0  0  0  0  0  0  0  0  0  0
    1.2364   -3.1079    0.6478 H   0  0  0  0  0  0  0  0  0  0  0  0
    2.0165   -1.2773    1.8417 H   0  0  0  0  0  0  0  0  0  0  0  0
    0.7988   -0.1516    1.1916 H   0  0  0  0  0  0  0  0  0  0  0  0
    4.7443    0.6865    1.2957 H   0  0  0  0  0  0  0  0  0  0  0  0
    7.2635    0.0859    1.9435 H   0  0  0  0  0  0  0  0  0  0  0  0
    6.8743   -3.9047   -0.5304 H   0  0  0  0  0  0  0  0  0  0  0  0
    5.8179   -3.1646   -1.7934 H   0  0  0  0  0  0  0  0  0  0  0  0
    5.0815   -3.9923   -0.3430 H   0  0  0  0  0  0  0  0  0  0  0  0
    2.5560    1.5905    0.3569 H   0  0  0  0  0  0  0  0  0  0  0  0
    3.3249    1.1088   -1.1973 H   0  0  0  0  0  0  0  0  0  0  0  0
    1.0406    0.5166   -2.1117 H   0  0  0  0  0  0  0  0  0  0  0  0
    0.3171    1.1331   -0.5748 H   0  0  0  0  0  0  0  0  0  0  0  0
    1.9606    5.0039   -1.2312 H   0  0  0  0  0  0  0  0  0  0  0  0
    0.4936    6.8795   -0.5763 H   0  0  0  0  0  0  0  0  0  0  0  0
   -1.9572    6.5519   -0.4353 H   0  0  0  0  0  0  0  0  0  0  0  0
   -2.9525    4.3685   -0.9973 H   0  0  0  0  0  0  0  0  0  0  0  0
   -3.6567    2.2181    0.6517 H   0  0  0  0  0  0  0  0  0  0  0  0
   -1.8840    2.3839    0.7988 H   0  0  0  0  0  0  0  0  0  0  0  0
   -1.5967    0.3363    1.7534 H   0  0  0  0  0  0  0  0  0  0  0  0
   -3.2953    0.5692    2.1912 H   0  0  0  0  0  0  0  0  0  0  0  0
   -4.3260    0.9275   -2.0962 H   0  0  0  0  0  0  0  0  0  0  0  0
   -2.9353   -0.1879   -2.3298 H   0  0  0  0  0  0  0  0  0  0  0  0
   -4.3962   -1.4782   -1.0388 H   0  0  0  0  0  0  0  0  0  0  0  0
   -4.9402   -0.0899   -0.0485 H   0  0  0  0  0  0  0  0  0  0  0  0
  1  2  1  0
  2  3  1  0
  3  4  1  0
  4  5  1  0
  5  6  1  0
  6  7  1  0
  7  8  1  0
  8  9  1  0
  9 10  1  0
 10 11  2  0
 10 12  1  0
 12 13  2  0
 13 14  1  0
 14 15  2  0
 15 16  1  0
 16 17  1  0
  9 18  1  0
 18 19  1  0
 19 20  1  0
 20 21  1  0
 21 22  2  0
 22 23  1  0
 23 24  2  0
 24 25  1  0
 25 26  2  0
 26 27  1  0
 27 28  2  0
 27 29  1  0
 29 30  1  0
 30 31  1  0
 29 32  1  0
 32 33  1  0
 31  4  1  0
 33  4  1  0
 16 12  1  0
 26 21  1  0
  1 34  1  0
  1 35  1  0
  1 36  1  0
  3 37  1  0
  3 38  1  0
  5 39  1  0
  5 40  1  0
  6 41  1  0
  6 42  1  0
  7 43  1  0
  7 44  1  0
  8 45  1  0
  8 46  1  0
 13 47  1  0
 14 48  1  0
 17 49  1  0
 17 50  1  0
 17 51  1  0
 18 52  1  0
 18 53  1  0
 19 54  1  0
 19 55  1  0
 22 56  1  0
 23 57  1  0
 24 58  1  0
 25 59  1  0
 30 60  1  0
 30 61  1  0
 31 62  1  0
 31 63  1  0
 32 64  1  0
 32 65  1  0
 33 66  1  0
 33 67  1  0
M  END
$$$$
