
     RDKit          3D

 67 68  0  0  0  0  0  0  0  0999 V2000
   -5.6008    1.5736   -0.6602 C   0  0  0  0  0  0  0  0  0  0  0  0
   -4.7845    1.2930    0.4564 O   0  0  0  0  0  0  0  0  0  0  0  0
   -3.8655    0.2483    0.1659 C   0  0  0  0  0  0  0  0  0  0  0  0
   -2.4516    0.7324    0.5372 C   0  0  0  0  0  0  0  0  0  0  0  0
   -1.9723    1.7775   -0.3804 N   0  0  0  0  0  0  0  0  0  0  0  0
   -2.4828    3.1242   -0.2660 C   0  0  0  0  0  0  0  0  0  0  0  0
   -2.4520    4.0724   -1.4268 C   0  0  0  0  0  0  0  0  0  0  0  0
   -2.9725    3.5203    0.8268 O   0  0  0  0  0  0  0  0  0  0  0  0
   -0.8940    1.4598   -1.3319 C   0  0  0  0  0  0  0  0  0  0  0  0
    0.4550    2.0229   -0.8526 C   0  0  0  0  0  0  0  0  0  0  0  0
    1.0414    1.2572    0.3450 C   0  0  0  0  0  0  0  0  0  0  0  0
    1.4761   -0.1018   -0.0592 N   0  0  0  0  0  0  0  0  0  0  0  0
    2.8696   -0.1460   -0.5752 C   0  0  0  0  0  0  0  0  0  0  0  0
    3.9492    0.2477    0.4097 C   0  0  0  0  0  0  0  0  0  0  0  0
    3.7139    0.3031    1.6467 O   0  0  0  0  0  0  0  0  0  0  0  0
    5.2674    0.5255   -0.0865 N   0  0  0  0  0  0  0  0  0  0  0  0
    6.3590    0.9491    0.7434 C   0  0  0  0  0  0  0  0  0  0  0  0
    6.2997    1.1295    2.0739 N   0  0  0  0  0  0  0  0  0  0  0  0
    7.5019    1.4986    2.4220 O   0  0  0  0  0  0  0  0  0  0  0  0
    8.3416    1.5732    1.4252 N   0  0  0  0  0  0  0  0  0  0  0  0
    7.6372    1.2348    0.3318 C   0  0  0  0  0  0  0  0  0  0  0  0
    8.1991    1.1358   -1.0479 C   0  0  0  0  0  0  0  0  0  0  0  0
    1.1437   -1.1501    0.9362 C   0  0  0  0  0  0  0  0  0  0  0  0
    1.2830   -2.5632    0.3421 C   0  0  0  0  0  0  0  0  0  0  0  0
    0.4036   -3.6102    1.0575 C   0  0  0  0  0  0  0  0  0  0  0  0
   -0.9367   -3.8396    0.3469 C   0  0  0  0  0  0  0  0  0  0  0  0
   -1.8094   -2.7486    0.5692 O   0  0  0  0  0  0  0  0  0  0  0  0
   -2.8004   -2.6833   -0.4436 C   0  0  0  0  0  0  0  0  0  0  0  0
   -4.1812   -2.3427    0.1521 C   0  0  0  0  0  0  0  0  0  0  0  0
   -4.6521   -3.4281    0.9123 O   0  0  0  0  0  0  0  0  0  0  0  0
   -4.2270   -1.0329    0.9924 C   0  0  0  0  0  0  0  0  0  0  0  0
   -5.4938   -0.9016    1.5933 O   0  0  0  0  0  0  0  0  0  0  0  0
   -6.1665    0.6724   -0.9832 H   0  0  0  0  0  0  0  0  0  0  0  0
   -6.3358    2.3535   -0.3751 H   0  0  0  0  0  0  0  0  0  0  0  0
   -4.9938    1.9701   -1.5037 H   0  0  0  0  0  0  0  0  0  0  0  0
   -3.8353   -0.0122   -0.9209 H   0  0  0  0  0  0  0  0  0  0  0  0
   -2.4314    1.1067    1.5844 H   0  0  0  0  0  0  0  0  0  0  0  0
   -1.7689   -0.1343    0.5008 H   0  0  0  0  0  0  0  0  0  0  0  0
   -3.0181    4.9971   -1.1880 H   0  0  0  0  0  0  0  0  0  0  0  0
   -2.9209    3.5937   -2.3114 H   0  0  0  0  0  0  0  0  0  0  0  0
   -1.4066    4.3520   -1.6671 H   0  0  0  0  0  0  0  0  0  0  0  0
   -0.8092    0.3618   -1.4862 H   0  0  0  0  0  0  0  0  0  0  0  0
   -1.1373    1.8824   -2.3293 H   0  0  0  0  0  0  0  0  0  0  0  0
    1.1731    1.9975   -1.6993 H   0  0  0  0  0  0  0  0  0  0  0  0
    0.3347    3.0901   -0.5686 H   0  0  0  0  0  0  0  0  0  0  0  0
    1.8866    1.8491    0.7552 H   0  0  0  0  0  0  0  0  0  0  0  0
    0.2809    1.2257    1.1543 H   0  0  0  0  0  0  0  0  0  0  0  0
    2.9458    0.5277   -1.4543 H   0  0  0  0  0  0  0  0  0  0  0  0
    3.1061   -1.1548   -0.9693 H   0  0  0  0  0  0  0  0  0  0  0  0
    5.4395    0.4178   -1.1116 H   0  0  0  0  0  0  0  0  0  0  0  0
    7.5356    1.6628   -1.7655 H   0  0  0  0  0  0  0  0  0  0  0  0
    9.2065    1.6022   -1.0849 H   0  0  0  0  0  0  0  0  0  0  0  0
    8.2811    0.0679   -1.3389 H   0  0  0  0  0  0  0  0  0  0  0  0
    1.7659   -1.0642    1.8491 H   0  0  0  0  0  0  0  0  0  0  0  0
    0.0962   -1.0219    1.2692 H   0  0  0  0  0  0  0  0  0  0  0  0
    2.3454   -2.8759    0.4424 H   0  0  0  0  0  0  0  0  0  0  0  0
    1.0506   -2.5433   -0.7457 H   0  0  0  0  0  0  0  0  0  0  0  0
    0.9504   -4.5788    1.0567 H   0  0  0  0  0  0  0  0  0  0  0  0
    0.2349   -3.3350    2.1214 H   0  0  0  0  0  0  0  0  0  0  0  0
   -0.7307   -4.0172   -0.7360 H   0  0  0  0  0  0  0  0  0  0  0  0
   -1.4040   -4.7591    0.7632 H   0  0  0  0  0  0  0  0  0  0  0  0
   -2.5023   -1.9108   -1.1830 H   0  0  0  0  0  0  0  0  0  0  0  0
   -2.9283   -3.6388   -1.0085 H   0  0  0  0  0  0  0  0  0  0  0  0
   -4.8806   -2.2186   -0.7040 H   0  0  0  0  0  0  0  0  0  0  0  0
   -4.0492   -3.5304    1.6943 H   0  0  0  0  0  0  0  0  0  0  0  0
   -3.5057   -1.1505    1.8315 H   0  0  0  0  0  0  0  0  0  0  0  0
   -6.1732   -0.9150    0.8693 H   0  0  0  0  0  0  0  0  0  0  0  0
  1  2  1  0
  2  3  1  0
  3  4  1  0
  4  5  1  0
  5  6  1  0
  6  7  1  0
  6  8  2  0
  5  9  1  0
  9 10  1  0
 10 11  1  0
 11 12  1  0
 12 13  1  0
 13 14  1  0
 14 15  2  0
 14 16  1  0
 16 17  1  0
 17 18  2  0
 18 19  1  0
 19 20  1  0
 20 21  2  0
 21 22  1  0
 12 23  1  0
 23 24  1  0
 24 25  1  0
 25 26  1  0
 26 27  1  0
 27 28  1  0
 28 29  1  0
 29 30  1  0
 29 31  1  0
 31 32  1  0
 31  3  1  0
 21 17  1  0
  1 33  1  0
  1 34  1  0
  1 35  1  0
  3 36  1  0
  4 37  1  0
  4 38  1  0
  7 39  1  0
  7 40  1  0
  7 41  1  0
  9 42  1  0
  9 43  1  0
 10 44  1  0
 10 45  1  0
 11 46  1  0
 11 47  1  0
 13 48  1  0
 13 49  1  0
 16 50  1  0
 22 51  1  0
 22 52  1  0
 22 53  1  0
 23 54  1  0
 23 55  1  0
 24 56  1  0
 24 57  1  0
 25 58  1  0
 25 59  1  0
 26 60  1  0
 26 61  1  0
 28 62  1  0
 28 63  1  0
 29 64  1  0
 30 65  1  0
 31 66  1  0
 32 67  1  0
M  END
$$$$
