
     RDKit          3D

 81 84  0  0  0  0  0  0  0  0999 V2000
   -0.5158   -1.8071   -0.8632 C   0  0  0  0  0  0  0  0  0  0  0  0
   -1.1700   -1.1981    0.2307 O   0  0  0  0  0  0  0  0  0  0  0  0
   -2.5568   -1.1884    0.0177 C   0  0  0  0  0  0  0  0  0  0  0  0
   -3.3917   -0.7214    1.2765 C   0  0  0  0  0  0  0  0  0  0  0  0
   -2.7572   -1.3814    2.5564 C   0  0  0  0  0  0  0  0  0  0  0  0
   -1.6739   -0.5569    3.3518 C   0  0  0  0  0  0  0  0  0  0  0  0
   -0.2277   -0.4387    2.7753 C   0  0  0  0  0  0  0  0  0  0  0  0
    0.1545    0.9398    2.1282 C   0  0  0  0  0  0  0  0  0  0  0  0
    0.8069    0.8136    0.7974 N   0  0  0  0  0  0  0  0  0  0  0  0
    2.0979    0.1464    0.7663 C   0  0  0  0  0  0  0  0  0  0  0  0
    2.6226   -0.2366    1.8491 O   0  0  0  0  0  0  0  0  0  0  0  0
    2.8786   -0.0266   -0.5235 C   0  0  0  0  0  0  0  0  0  0  0  0
    4.0858   -0.9881   -0.4107 C   0  0  0  0  0  0  0  0  0  0  0  0
    3.6356   -2.4419   -0.2009 C   0  0  0  0  0  0  0  0  0  0  0  0
    4.8632   -3.3375    0.0247 C   0  0  0  0  0  0  0  0  0  0  0  0
    5.9502   -3.1182   -0.9589 N   0  0  0  0  0  0  0  0  0  0  0  0
    7.5004   -2.7927   -0.2126 S   0  0  0  0  0  6  0  0  0  0  0  0
    7.5032   -1.3084    0.7763 C   0  0  0  0  0  0  0  0  0  0  0  0
    7.8603   -3.9501    0.6761 O   0  0  0  0  0  0  0  0  0  0  0  0
    8.5555   -2.6645   -1.2752 O   0  0  0  0  0  0  0  0  0  0  0  0
    5.6380   -2.2156   -2.0853 C   0  0  0  0  0  0  0  0  0  0  0  0
    4.9883   -0.8815   -1.6635 C   0  0  0  0  0  0  0  0  0  0  0  0
    0.4380    1.6936   -0.3536 C   0  0  0  0  0  0  0  0  0  0  0  0
   -1.0583    2.0306   -0.4603 C   0  0  0  0  0  0  0  0  0  0  0  0
   -1.4447    2.3732   -1.7925 O   0  0  0  0  0  0  0  0  0  0  0  0
   -2.5746    3.1654   -2.0515 C   0  0  0  0  0  0  0  0  0  0  0  0
   -2.3570    4.5182   -2.3467 C   0  0  0  0  0  0  0  0  0  0  0  0
   -3.4292    5.3865   -2.5499 C   0  0  0  0  0  0  0  0  0  0  0  0
   -4.7373    4.9109   -2.4692 C   0  0  0  0  0  0  0  0  0  0  0  0
   -4.9770    3.5618   -2.2043 C   0  0  0  0  0  0  0  0  0  0  0  0
   -3.9110    2.6696   -2.0039 C   0  0  0  0  0  0  0  0  0  0  0  0
   -4.2554    1.2450   -1.7780 C   0  0  0  0  0  0  0  0  0  0  0  0
   -4.0939    0.4348   -2.7297 O   0  0  0  0  0  0  0  0  0  0  0  0
   -4.8427    0.7965   -0.5252 N   0  0  0  0  0  0  0  0  0  0  0  0
   -4.6095    1.5560    0.6945 C   0  0  0  0  0  0  0  0  0  0  0  0
   -3.5856    0.8172    1.5675 C   0  0  0  0  0  0  0  0  0  0  0  0
   -5.3987   -0.5645   -0.3276 C   0  0  0  0  0  0  0  0  0  0  0  0
   -4.8420   -1.2255    0.9835 C   0  0  0  0  0  0  0  0  0  0  0  0
   -0.5924   -1.1696   -1.7714 H   0  0  0  0  0  0  0  0  0  0  0  0
    0.5542   -1.9263   -0.6091 H   0  0  0  0  0  0  0  0  0  0  0  0
   -0.9024   -2.8304   -1.0684 H   0  0  0  0  0  0  0  0  0  0  0  0
   -2.7752   -0.5898   -0.8763 H   0  0  0  0  0  0  0  0  0  0  0  0
   -2.8810   -2.2297   -0.2253 H   0  0  0  0  0  0  0  0  0  0  0  0
   -2.3452   -2.3859    2.3147 H   0  0  0  0  0  0  0  0  0  0  0  0
   -3.5846   -1.5730    3.2757 H   0  0  0  0  0  0  0  0  0  0  0  0
   -2.0446    0.4412    3.6573 H   0  0  0  0  0  0  0  0  0  0  0  0
   -1.5710   -1.0938    4.3218 H   0  0  0  0  0  0  0  0  0  0  0  0
    0.4584   -0.5550    3.6432 H   0  0  0  0  0  0  0  0  0  0  0  0
    0.0425   -1.3136    2.1574 H   0  0  0  0  0  0  0  0  0  0  0  0
   -0.6837    1.6439    2.1079 H   0  0  0  0  0  0  0  0  0  0  0  0
    0.8703    1.4521    2.8097 H   0  0  0  0  0  0  0  0  0  0  0  0
    3.2455    0.9780   -0.8284 H   0  0  0  0  0  0  0  0  0  0  0  0
    2.2095   -0.4078   -1.3234 H   0  0  0  0  0  0  0  0  0  0  0  0
    4.6924   -0.6772    0.4675 H   0  0  0  0  0  0  0  0  0  0  0  0
    2.9665   -2.5261    0.6815 H   0  0  0  0  0  0  0  0  0  0  0  0
    3.0655   -2.7974   -1.0887 H   0  0  0  0  0  0  0  0  0  0  0  0
    4.5407   -4.3979   -0.0436 H   0  0  0  0  0  0  0  0  0  0  0  0
    5.2202   -3.1847    1.0673 H   0  0  0  0  0  0  0  0  0  0  0  0
    7.3579   -0.4177    0.1353 H   0  0  0  0  0  0  0  0  0  0  0  0
    8.4842   -1.2152    1.2878 H   0  0  0  0  0  0  0  0  0  0  0  0
    6.7081   -1.3581    1.5462 H   0  0  0  0  0  0  0  0  0  0  0  0
    4.9358   -2.7484   -2.7630 H   0  0  0  0  0  0  0  0  0  0  0  0
    6.5438   -2.0113   -2.6947 H   0  0  0  0  0  0  0  0  0  0  0  0
    5.7771   -0.1220   -1.4858 H   0  0  0  0  0  0  0  0  0  0  0  0
    4.4025   -0.5116   -2.5346 H   0  0  0  0  0  0  0  0  0  0  0  0
    0.7124    1.2048   -1.3115 H   0  0  0  0  0  0  0  0  0  0  0  0
    1.0155    2.6419   -0.2856 H   0  0  0  0  0  0  0  0  0  0  0  0
   -1.3043    2.8635    0.2356 H   0  0  0  0  0  0  0  0  0  0  0  0
   -1.6172    1.1447   -0.2050 H   0  0  0  0  0  0  0  0  0  0  0  0
   -1.3449    4.9018   -2.3917 H   0  0  0  0  0  0  0  0  0  0  0  0
   -3.2450    6.4315   -2.7623 H   0  0  0  0  0  0  0  0  0  0  0  0
   -5.5683    5.5870   -2.6226 H   0  0  0  0  0  0  0  0  0  0  0  0
   -6.0000    3.2080   -2.1623 H   0  0  0  0  0  0  0  0  0  0  0  0
   -4.2623    2.5915    0.4988 H   0  0  0  0  0  0  0  0  0  0  0  0
   -5.5741    1.6515    1.2412 H   0  0  0  0  0  0  0  0  0  0  0  0
   -3.9713    0.9254    2.6063 H   0  0  0  0  0  0  0  0  0  0  0  0
   -2.6565    1.3746    1.5768 H   0  0  0  0  0  0  0  0  0  0  0  0
   -6.5056   -0.5005   -0.2674 H   0  0  0  0  0  0  0  0  0  0  0  0
   -5.1554   -1.2164   -1.1932 H   0  0  0  0  0  0  0  0  0  0  0  0
   -4.8756   -2.3341    0.8923 H   0  0  0  0  0  0  0  0  0  0  0  0
   -5.5113   -0.9631    1.8340 H   0  0  0  0  0  0  0  0  0  0  0  0
  1  2  1  0
  2  3  1  0
  3  4  1  0
  4  5  1  0
  5  6  1  0
  6  7  1  0
  7  8  1  0
  8  9  1  0
  9 10  1  0
 10 11  2  0
 10 12  1  0
 12 13  1  0
 13 14  1  0
 14 15  1  0
 15 16  1  0
 16 17  1  0
 17 18  1  0
 17 19  2  0
 17 20  2  0
 16 21  1  0
 21 22  1  0
  9 23  1  0
 23 24  1  0
 24 25  1  0
 25 26  1  0
 26 27  2  0
 27 28  1  0
 28 29  2  0
 29 30  1  0
 30 31  2  0
 31 32  1  0
 32 33  2  0
 32 34  1  0
 34 35  1  0
 35 36  1  0
 34 37  1  0
 37 38  1  0
 36  4  1  0
 38  4  1  0
 22 13  1  0
 31 26  1  0
  1 39  1  0
  1 40  1  0
  1 41  1  0
  3 42  1  0
  3 43  1  0
  5 44  1  0
  5 45  1  0
  6 46  1  0
  6 47  1  0
  7 48  1  0
  7 49  1  0
  8 50  1  0
  8 51  1  0
 12 52  1  0
 12 53  1  0
 13 54  1  0
 14 55  1  0
 14 56  1  0
 15 57  1  0
 15 58  1  0
 18 59  1  0
 18 60  1  0
 18 61  1  0
 21 62  1  0
 21 63  1  0
 22 64  1  0
 22 65  1  0
 23 66  1  0
 23 67  1  0
 24 68  1  0
 24 69  1  0
 27 70  1  0
 28 71  1  0
 29 72  1  0
 30 73  1  0
 35 74  1  0
 35 75  1  0
 36 76  1  0
 36 77  1  0
 37 78  1  0
 37 79  1  0
 38 80  1  0
 38 81  1  0
M  END
$$$$
