
     RDKit          3D

 90 94  0  0  0  0  0  0  0  0999 V2000
   -5.7785   -0.9867    1.5688 C   0  0  0  0  0  0  0  0  0  0  0  0
   -5.1057   -0.5598    0.3362 N   0  0  0  0  0  0  0  0  0  0  0  0
   -5.2301   -1.3940   -0.8733 C   0  0  0  0  0  0  0  0  0  0  0  0
   -3.9736   -2.2337   -1.0987 C   0  0  0  0  0  0  0  0  0  0  0  0
   -3.6072   -2.8901    0.1130 O   0  0  0  0  0  0  0  0  0  0  0  0
   -2.6531   -3.9132    0.2647 C   0  0  0  0  0  0  0  0  0  0  0  0
   -2.7377   -4.6714    1.4410 C   0  0  0  0  0  0  0  0  0  0  0  0
   -1.8652   -5.7357    1.6762 C   0  0  0  0  0  0  0  0  0  0  0  0
   -0.8890   -6.0562    0.7356 C   0  0  0  0  0  0  0  0  0  0  0  0
   -0.7713   -5.3029   -0.4339 C   0  0  0  0  0  0  0  0  0  0  0  0
   -1.6326   -4.2212   -0.6778 C   0  0  0  0  0  0  0  0  0  0  0  0
   -1.3669   -3.4083   -1.8750 C   0  0  0  0  0  0  0  0  0  0  0  0
   -1.7653   -3.8266   -2.9924 O   0  0  0  0  0  0  0  0  0  0  0  0
   -0.6478   -2.1651   -1.8027 N   0  0  0  0  0  0  0  0  0  0  0  0
   -0.0720   -1.6087   -0.5680 C   0  0  0  0  0  0  0  0  0  0  0  0
    1.4167   -1.4088   -0.7125 C   0  0  0  0  0  0  0  0  0  0  0  0
    1.9600   -1.4765   -1.8491 O   0  0  0  0  0  0  0  0  0  0  0  0
    2.2146   -1.1668    0.4564 N   0  0  0  0  0  0  0  0  0  0  0  0
    3.6739   -1.2620    0.4589 C   0  0  0  0  0  0  0  0  0  0  0  0
    4.3119   -0.0502   -0.2411 C   0  0  0  0  0  0  0  0  0  0  0  0
    5.8451   -0.0104   -0.0220 C   0  0  0  0  0  0  0  0  0  0  0  0
    6.5829    0.8620   -1.0265 C   0  0  0  0  0  0  0  0  0  0  0  0
    6.0165    2.0348   -1.5691 C   0  0  0  0  0  0  0  0  0  0  0  0
    6.7479    2.8260   -2.4613 C   0  0  0  0  0  0  0  0  0  0  0  0
    8.0534    2.4712   -2.8081 C   0  0  0  0  0  0  0  0  0  0  0  0
    8.6321    1.3252   -2.2603 C   0  0  0  0  0  0  0  0  0  0  0  0
    7.9062    0.5291   -1.3705 C   0  0  0  0  0  0  0  0  0  0  0  0
    6.1945    0.4067    1.3968 C   0  0  0  0  0  0  0  0  0  0  0  0
    5.9204    1.7090    1.8596 C   0  0  0  0  0  0  0  0  0  0  0  0
    6.2334    2.0760    3.1714 C   0  0  0  0  0  0  0  0  0  0  0  0
    6.8174    1.1503    4.0370 C   0  0  0  0  0  0  0  0  0  0  0  0
    7.0923   -0.1445    3.5912 C   0  0  0  0  0  0  0  0  0  0  0  0
    6.7843   -0.5168    2.2791 C   0  0  0  0  0  0  0  0  0  0  0  0
   -0.7920   -0.3077   -0.1486 C   0  0  0  0  0  0  0  0  0  0  0  0
   -0.8582    0.7560   -1.2567 C   0  0  0  0  0  0  0  0  0  0  0  0
   -1.3962    2.0573   -0.7219 C   0  0  0  0  0  0  0  0  0  0  0  0
   -0.5681    2.9302   -0.3475 O   0  0  0  0  0  0  0  0  0  0  0  0
   -2.8053    2.3360   -0.5795 N   0  0  0  0  0  0  0  0  0  0  0  0
   -3.9072    1.4049   -0.8756 C   0  0  0  0  0  0  0  0  0  0  0  0
   -5.1013    2.1724   -1.4932 C   0  0  0  0  0  0  0  0  0  0  0  0
   -5.7825    3.1286   -0.5403 C   0  0  0  0  0  0  0  0  0  0  0  0
   -5.4122    4.4846   -0.5021 C   0  0  0  0  0  0  0  0  0  0  0  0
   -6.0444    5.3638    0.3823 C   0  0  0  0  0  0  0  0  0  0  0  0
   -7.0490    4.8989    1.2350 C   0  0  0  0  0  0  0  0  0  0  0  0
   -7.4286    3.5547    1.1989 C   0  0  0  0  0  0  0  0  0  0  0  0
   -6.8043    2.6730    0.3119 C   0  0  0  0  0  0  0  0  0  0  0  0
   -4.3113    0.6510    0.3778 C   0  0  0  0  0  0  0  0  0  0  0  0
   -3.9998    1.1416    1.4987 O   0  0  0  0  0  0  0  0  0  0  0  0
   -5.0273   -1.1644    2.3656 H   0  0  0  0  0  0  0  0  0  0  0  0
   -6.4854   -0.1991    1.9023 H   0  0  0  0  0  0  0  0  0  0  0  0
   -6.3470   -1.9279    1.4270 H   0  0  0  0  0  0  0  0  0  0  0  0
   -6.0978   -2.0843   -0.7854 H   0  0  0  0  0  0  0  0  0  0  0  0
   -5.4324   -0.7730   -1.7685 H   0  0  0  0  0  0  0  0  0  0  0  0
   -4.1842   -2.9896   -1.8876 H   0  0  0  0  0  0  0  0  0  0  0  0
   -3.1623   -1.5665   -1.4372 H   0  0  0  0  0  0  0  0  0  0  0  0
   -3.5012   -4.4417    2.1732 H   0  0  0  0  0  0  0  0  0  0  0  0
   -1.9520   -6.3149    2.5862 H   0  0  0  0  0  0  0  0  0  0  0  0
   -0.2149   -6.8832    0.9175 H   0  0  0  0  0  0  0  0  0  0  0  0
    0.0111   -5.5486   -1.1405 H   0  0  0  0  0  0  0  0  0  0  0  0
   -0.5095   -1.6422   -2.6968 H   0  0  0  0  0  0  0  0  0  0  0  0
   -0.2023   -2.3270    0.2684 H   0  0  0  0  0  0  0  0  0  0  0  0
    1.7312   -1.0609    1.3779 H   0  0  0  0  0  0  0  0  0  0  0  0
    4.0219   -1.3060    1.5145 H   0  0  0  0  0  0  0  0  0  0  0  0
    3.9899   -2.2042   -0.0416 H   0  0  0  0  0  0  0  0  0  0  0  0
    4.1029   -0.1191   -1.3306 H   0  0  0  0  0  0  0  0  0  0  0  0
    3.8389    0.8829    0.1384 H   0  0  0  0  0  0  0  0  0  0  0  0
    6.2071   -1.0516   -0.1920 H   0  0  0  0  0  0  0  0  0  0  0  0
    5.0137    2.3448   -1.3079 H   0  0  0  0  0  0  0  0  0  0  0  0
    6.3059    3.7206   -2.8792 H   0  0  0  0  0  0  0  0  0  0  0  0
    8.6192    3.0862   -3.4968 H   0  0  0  0  0  0  0  0  0  0  0  0
    9.6476    1.0552   -2.5204 H   0  0  0  0  0  0  0  0  0  0  0  0
    8.3806   -0.3477   -0.9454 H   0  0  0  0  0  0  0  0  0  0  0  0
    5.4650    2.4415    1.2072 H   0  0  0  0  0  0  0  0  0  0  0  0
    6.0198    3.0790    3.5194 H   0  0  0  0  0  0  0  0  0  0  0  0
    7.0558    1.4351    5.0543 H   0  0  0  0  0  0  0  0  0  0  0  0
    7.5420   -0.8619    4.2641 H   0  0  0  0  0  0  0  0  0  0  0  0
    7.0007   -1.5275    1.9559 H   0  0  0  0  0  0  0  0  0  0  0  0
   -0.2799    0.1192    0.7419 H   0  0  0  0  0  0  0  0  0  0  0  0
   -1.8199   -0.5616    0.1747 H   0  0  0  0  0  0  0  0  0  0  0  0
    0.1659    0.9323   -1.6519 H   0  0  0  0  0  0  0  0  0  0  0  0
   -1.4696    0.4062   -2.1112 H   0  0  0  0  0  0  0  0  0  0  0  0
   -3.0425    3.2243   -0.0845 H   0  0  0  0  0  0  0  0  0  0  0  0
   -3.5782    0.6826   -1.6426 H   0  0  0  0  0  0  0  0  0  0  0  0
   -5.8571    1.4542   -1.8744 H   0  0  0  0  0  0  0  0  0  0  0  0
   -4.7420    2.7302   -2.3858 H   0  0  0  0  0  0  0  0  0  0  0  0
   -4.6351    4.8601   -1.1563 H   0  0  0  0  0  0  0  0  0  0  0  0
   -5.7572    6.4065    0.4052 H   0  0  0  0  0  0  0  0  0  0  0  0
   -7.5376    5.5814    1.9191 H   0  0  0  0  0  0  0  0  0  0  0  0
   -8.2125    3.1978    1.8545 H   0  0  0  0  0  0  0  0  0  0  0  0
   -7.1181    1.6370    0.2867 H   0  0  0  0  0  0  0  0  0  0  0  0
  1  2  1  0
  2  3  1  0
  3  4  1  0
  4  5  1  0
  5  6  1  0
  6  7  2  0
  7  8  1  0
  8  9  2  0
  9 10  1  0
 10 11  2  0
 11 12  1  0
 12 13  2  0
 12 14  1  0
 14 15  1  0
 15 16  1  0
 16 17  2  0
 16 18  1  0
 18 19  1  0
 19 20  1  0
 20 21  1  0
 21 22  1  0
 22 23  2  0
 23 24  1  0
 24 25  2  0
 25 26  1  0
 26 27  2  0
 21 28  1  0
 28 29  2  0
 29 30  1  0
 30 31  2  0
 31 32  1  0
 32 33  2  0
 15 34  1  0
 34 35  1  0
 35 36  1  0
 36 37  2  0
 36 38  1  0
 38 39  1  0
 39 40  1  0
 40 41  1  0
 41 42  2  0
 42 43  1  0
 43 44  2  0
 44 45  1  0
 45 46  2  0
 39 47  1  0
 47 48  2  0
 47  2  1  0
 11  6  1  0
 27 22  1  0
 33 28  1  0
 46 41  1  0
  1 49  1  0
  1 50  1  0
  1 51  1  0
  3 52  1  0
  3 53  1  0
  4 54  1  0
  4 55  1  0
  7 56  1  0
  8 57  1  0
  9 58  1  0
 10 59  1  0
 14 60  1  0
 15 61  1  0
 18 62  1  0
 19 63  1  0
 19 64  1  0
 20 65  1  0
 20 66  1  0
 21 67  1  0
 23 68  1  0
 24 69  1  0
 25 70  1  0
 26 71  1  0
 27 72  1  0
 29 73  1  0
 30 74  1  0
 31 75  1  0
 32 76  1  0
 33 77  1  0
 34 78  1  0
 34 79  1  0
 35 80  1  0
 35 81  1  0
 38 82  1  0
 39 83  1  0
 40 84  1  0
 40 85  1  0
 42 86  1  0
 43 87  1  0
 44 88  1  0
 45 89  1  0
 46 90  1  0
M  END
$$$$
