
     RDKit          3D

 70 74  0  0  0  0  0  0  0  0999 V2000
   -3.1175   -3.5235    1.2920 O   0  0  0  0  0  0  0  0  0  0  0  0
   -3.3961   -2.7444    0.3387 C   0  0  0  0  0  0  0  0  0  0  0  0
   -4.8279   -2.5482    0.0131 C   0  0  0  0  0  0  0  0  0  0  0  0
   -5.8882   -2.9875    0.7880 C   0  0  0  0  0  0  0  0  0  0  0  0
   -7.0124   -2.6023    0.0900 C   0  0  0  0  0  0  0  0  0  0  0  0
   -6.6253   -1.9800   -1.0367 N   0  0  0  0  0  0  0  0  0  0  0  0
   -5.3043   -1.9460   -1.0948 N   0  0  0  0  0  0  0  0  0  0  0  0
   -2.3161   -2.0908   -0.3776 N   0  0  0  0  0  0  0  0  0  0  0  0
   -0.9282   -2.5056   -0.1131 C   0  0  0  0  0  0  0  0  0  0  0  0
   -0.3464   -1.6760    1.0392 C   0  0  0  0  0  0  0  0  0  0  0  0
    1.1963   -1.7364    1.1014 C   0  0  0  0  0  0  0  0  0  0  0  0
    1.7982   -0.3952    1.5928 C   0  0  0  0  0  0  0  0  0  0  0  0
    2.3959    0.5593    0.4891 C   0  0  0  0  0  0  0  0  0  0  0  0
    3.8919    0.2047    0.2703 C   0  0  0  0  0  0  0  0  0  0  0  0
    4.0423   -1.1670   -0.0902 O   0  0  0  0  0  0  0  0  0  0  0  0
    5.2719   -1.7905   -0.3432 C   0  0  0  0  0  0  0  0  0  0  0  0
    5.2810   -3.1523   -0.6626 C   0  0  0  0  0  0  0  0  0  0  0  0
    6.4875   -3.8052   -0.9215 C   0  0  0  0  0  0  0  0  0  0  0  0
    7.6811   -3.0847   -0.8590 C   0  0  0  0  0  0  0  0  0  0  0  0
    7.6613   -1.7614   -0.5470 N   0  0  0  0  0  0  0  0  0  0  0  0
    6.4987   -1.1034   -0.2900 C   0  0  0  0  0  0  0  0  0  0  0  0
    2.3401    2.0233    1.0399 C   0  0  0  0  0  0  0  0  0  0  0  0
    0.9900    2.7048    0.7650 C   0  0  0  0  0  0  0  0  0  0  0  0
    0.6715    2.6802   -0.6698 N   0  0  0  0  0  0  0  0  0  0  0  0
    1.4423    1.8177   -1.5699 C   0  0  0  0  0  0  0  0  0  0  0  0
    1.6450    0.4604   -0.8929 C   0  0  0  0  0  0  0  0  0  0  0  0
   -0.3765    3.5172   -1.1861 C   0  0  0  0  0  0  0  0  0  0  0  0
   -0.2539    4.0549   -2.3196 O   0  0  0  0  0  0  0  0  0  0  0  0
   -1.5946    3.7662   -0.3965 C   0  0  0  0  0  0  0  0  0  0  0  0
   -1.8790    5.0693    0.0364 C   0  0  0  0  0  0  0  0  0  0  0  0
   -3.0105    5.3207    0.8159 C   0  0  0  0  0  0  0  0  0  0  0  0
   -3.8687    4.2756    1.1591 C   0  0  0  0  0  0  0  0  0  0  0  0
   -3.6044    2.9757    0.7202 C   0  0  0  0  0  0  0  0  0  0  0  0
   -2.4718    2.7089   -0.0759 C   0  0  0  0  0  0  0  0  0  0  0  0
   -2.2066    1.4239   -0.5804 O   0  0  0  0  0  0  0  0  0  0  0  0
   -3.0609    0.2918   -0.4095 C   0  0  0  0  0  0  0  0  0  0  0  0
   -2.5262   -0.9005   -1.2242 C   0  0  0  0  0  0  0  0  0  0  0  0
   -5.8493   -3.5160    1.7319 H   0  0  0  0  0  0  0  0  0  0  0  0
   -8.0415   -2.7686    0.3804 H   0  0  0  0  0  0  0  0  0  0  0  0
   -7.2566   -1.5766   -1.7649 H   0  0  0  0  0  0  0  0  0  0  0  0
   -0.8785   -3.5878    0.1371 H   0  0  0  0  0  0  0  0  0  0  0  0
   -0.3218   -2.3712   -1.0349 H   0  0  0  0  0  0  0  0  0  0  0  0
   -0.7696   -2.0354    2.0030 H   0  0  0  0  0  0  0  0  0  0  0  0
   -0.6865   -0.6251    0.9232 H   0  0  0  0  0  0  0  0  0  0  0  0
    1.6363   -2.0271    0.1248 H   0  0  0  0  0  0  0  0  0  0  0  0
    1.4802   -2.5436    1.8122 H   0  0  0  0  0  0  0  0  0  0  0  0
    2.5948   -0.6299    2.3329 H   0  0  0  0  0  0  0  0  0  0  0  0
    1.0343    0.1421    2.1957 H   0  0  0  0  0  0  0  0  0  0  0  0
    4.3146    0.8425   -0.5370 H   0  0  0  0  0  0  0  0  0  0  0  0
    4.4659    0.3992    1.2036 H   0  0  0  0  0  0  0  0  0  0  0  0
    4.3511   -3.7042   -0.7099 H   0  0  0  0  0  0  0  0  0  0  0  0
    6.4968   -4.8587   -1.1699 H   0  0  0  0  0  0  0  0  0  0  0  0
    8.6238   -3.5775   -1.0585 H   0  0  0  0  0  0  0  0  0  0  0  0
    6.5386   -0.0512   -0.0464 H   0  0  0  0  0  0  0  0  0  0  0  0
    2.5507    2.0452    2.1322 H   0  0  0  0  0  0  0  0  0  0  0  0
    3.1280    2.6477    0.5616 H   0  0  0  0  0  0  0  0  0  0  0  0
    1.0512    3.7588    1.1135 H   0  0  0  0  0  0  0  0  0  0  0  0
    0.1816    2.1975    1.3332 H   0  0  0  0  0  0  0  0  0  0  0  0
    0.8962    1.6635   -2.5270 H   0  0  0  0  0  0  0  0  0  0  0  0
    2.4221    2.2878   -1.7994 H   0  0  0  0  0  0  0  0  0  0  0  0
    2.1714   -0.2188   -1.5980 H   0  0  0  0  0  0  0  0  0  0  0  0
    0.6311    0.0441   -0.7651 H   0  0  0  0  0  0  0  0  0  0  0  0
   -1.2132    5.8869   -0.2145 H   0  0  0  0  0  0  0  0  0  0  0  0
   -3.2196    6.3263    1.1573 H   0  0  0  0  0  0  0  0  0  0  0  0
   -4.7430    4.4718    1.7666 H   0  0  0  0  0  0  0  0  0  0  0  0
   -4.2922    2.1885    0.9980 H   0  0  0  0  0  0  0  0  0  0  0  0
   -4.0829    0.5424   -0.7671 H   0  0  0  0  0  0  0  0  0  0  0  0
   -3.1189    0.0422    0.6721 H   0  0  0  0  0  0  0  0  0  0  0  0
   -3.2018   -1.1452   -2.0683 H   0  0  0  0  0  0  0  0  0  0  0  0
   -1.5729   -0.6033   -1.7138 H   0  0  0  0  0  0  0  0  0  0  0  0
  1  2  2  0
  2  3  1  0
  3  4  1  0
  4  5  2  0
  5  6  1  0
  6  7  1  0
  2  8  1  0
  8  9  1  0
  9 10  1  0
 10 11  1  0
 11 12  1  0
 12 13  1  0
 13 14  1  0
 14 15  1  0
 15 16  1  0
 16 17  2  0
 17 18  1  0
 18 19  2  0
 19 20  1  0
 20 21  2  0
 13 22  1  0
 22 23  1  0
 23 24  1  0
 24 25  1  0
 25 26  1  0
 24 27  1  0
 27 28  2  0
 27 29  1  0
 29 30  2  0
 30 31  1  0
 31 32  2  0
 32 33  1  0
 33 34  2  0
 34 35  1  0
 35 36  1  0
 36 37  1  0
  7  3  2  0
 37  8  1  0
 26 13  1  0
 34 29  1  0
 21 16  1  0
  4 38  1  0
  5 39  1  0
  6 40  1  0
  9 41  1  0
  9 42  1  0
 10 43  1  0
 10 44  1  0
 11 45  1  0
 11 46  1  0
 12 47  1  0
 12 48  1  0
 14 49  1  0
 14 50  1  0
 17 51  1  0
 18 52  1  0
 19 53  1  0
 21 54  1  0
 22 55  1  0
 22 56  1  0
 23 57  1  0
 23 58  1  0
 25 59  1  0
 25 60  1  0
 26 61  1  0
 26 62  1  0
 30 63  1  0
 31 64  1  0
 32 65  1  0
 33 66  1  0
 36 67  1  0
 36 68  1  0
 37 69  1  0
 37 70  1  0
M  END
$$$$
