
     RDKit          3D

 83 86  0  0  0  0  0  0  0  0999 V2000
   -2.9061    2.5177   -0.2007 C   0  0  0  0  0  0  0  0  0  0  0  0
   -3.2844    1.9542   -1.5758 C   0  0  0  0  0  0  0  0  0  0  0  0
   -2.0734    1.9975   -2.5276 C   0  0  0  0  0  0  0  0  0  0  0  0
   -3.9371    0.6112   -1.4678 N   0  0  0  0  0  0  0  0  0  0  0  0
   -4.8953    0.3766   -2.5729 C   0  0  0  0  0  0  0  0  0  0  0  0
   -6.2101    1.0212   -2.2491 C   0  0  0  0  0  0  0  0  0  0  0  0
   -6.5515    2.0825   -2.8398 O   0  0  0  0  0  0  0  0  0  0  0  0
   -7.0573    0.4455   -1.2489 N   0  0  0  0  0  0  0  0  0  0  0  0
   -8.0771    1.2207   -0.5411 C   0  0  0  0  0  0  0  0  0  0  0  0
   -7.9975    0.9530    0.9664 C   0  0  0  0  0  0  0  0  0  0  0  0
   -6.6304    1.3668    1.5574 C   0  0  0  0  0  0  0  0  0  0  0  0
   -6.1130    0.3878    2.6235 C   0  0  0  0  0  0  0  0  0  0  0  0
   -5.6643   -0.9612    2.0386 C   0  0  0  0  0  0  0  0  0  0  0  0
   -4.6753   -0.7895    1.0243 O   0  0  0  0  0  0  0  0  0  0  0  0
   -3.2925   -0.6509    1.2356 C   0  0  0  0  0  0  0  0  0  0  0  0
   -2.7309   -0.6170    2.5254 C   0  0  0  0  0  0  0  0  0  0  0  0
   -1.3468   -0.5559    2.6924 C   0  0  0  0  0  0  0  0  0  0  0  0
   -0.4969   -0.5306    1.5789 C   0  0  0  0  0  0  0  0  0  0  0  0
    0.9965   -0.5435    1.7674 C   0  0  0  0  0  0  0  0  0  0  0  0
    1.4828   -1.9580    2.0958 C   0  0  0  0  0  0  0  0  0  0  0  0
    2.9612   -1.9593    2.3650 C   0  0  0  0  0  0  0  0  0  0  0  0
    3.3625   -1.7134    3.5331 O   0  0  0  0  0  0  0  0  0  0  0  0
    3.9230   -2.1823    1.3152 N   0  0  0  0  0  0  0  0  0  0  0  0
    3.5869   -2.5864   -0.0377 C   0  0  0  0  0  0  0  0  0  0  0  0
    4.9002   -2.5973   -0.8178 C   0  0  0  0  0  0  0  0  0  0  0  0
    6.0219   -2.4842    0.2339 C   0  0  0  0  0  0  0  0  0  0  0  0
    7.1550   -1.5633   -0.1672 C   0  0  0  0  0  0  0  0  0  0  0  0
    8.4453   -1.7828    0.3204 C   0  0  0  0  0  0  0  0  0  0  0  0
    9.4415   -0.8587    0.0104 C   0  0  0  0  0  0  0  0  0  0  0  0
    9.1456    0.2339   -0.7388 N   0  0  0  0  0  0  0  0  0  0  0  0
    7.8869    0.4490   -1.2025 C   0  0  0  0  0  0  0  0  0  0  0  0
    7.5804    1.6167   -1.9904 N   0  0  0  0  0  0  0  0  0  0  0  0
    6.2487    1.7548   -2.5876 C   0  0  0  0  0  0  0  0  0  0  0  0
    8.5606    2.6858   -2.2076 C   0  0  0  0  0  0  0  0  0  0  0  0
    6.9073   -0.4466   -0.9023 N   0  0  0  0  0  0  0  0  0  0  0  0
    5.3491   -2.0090    1.5220 C   0  0  0  0  0  0  0  0  0  0  0  0
   -1.0504   -0.5378    0.2923 C   0  0  0  0  0  0  0  0  0  0  0  0
   -2.4437   -0.5669    0.1129 C   0  0  0  0  0  0  0  0  0  0  0  0
   -3.0179   -0.5418   -1.2821 C   0  0  0  0  0  0  0  0  0  0  0  0
   -1.9684    2.0665    0.1804 H   0  0  0  0  0  0  0  0  0  0  0  0
   -2.7380    3.6153   -0.2781 H   0  0  0  0  0  0  0  0  0  0  0  0
   -3.7170    2.3414    0.5335 H   0  0  0  0  0  0  0  0  0  0  0  0
   -4.0256    2.6799   -1.9814 H   0  0  0  0  0  0  0  0  0  0  0  0
   -1.1853    1.5218   -2.0660 H   0  0  0  0  0  0  0  0  0  0  0  0
   -2.2969    1.4870   -3.4833 H   0  0  0  0  0  0  0  0  0  0  0  0
   -1.8145    3.0544   -2.7539 H   0  0  0  0  0  0  0  0  0  0  0  0
   -5.0963   -0.7030   -2.7280 H   0  0  0  0  0  0  0  0  0  0  0  0
   -4.5027    0.7668   -3.5370 H   0  0  0  0  0  0  0  0  0  0  0  0
   -6.8769   -0.5418   -0.9577 H   0  0  0  0  0  0  0  0  0  0  0  0
   -9.0800    0.9206   -0.9131 H   0  0  0  0  0  0  0  0  0  0  0  0
   -7.9475    2.3112   -0.7229 H   0  0  0  0  0  0  0  0  0  0  0  0
   -8.2221   -0.1178    1.1460 H   0  0  0  0  0  0  0  0  0  0  0  0
   -8.8005    1.5270    1.4763 H   0  0  0  0  0  0  0  0  0  0  0  0
   -6.7380    2.3716    2.0226 H   0  0  0  0  0  0  0  0  0  0  0  0
   -5.8608    1.4772    0.7670 H   0  0  0  0  0  0  0  0  0  0  0  0
   -5.2512    0.8606    3.1430 H   0  0  0  0  0  0  0  0  0  0  0  0
   -6.9065    0.2155    3.3839 H   0  0  0  0  0  0  0  0  0  0  0  0
   -5.2938   -1.6310    2.8410 H   0  0  0  0  0  0  0  0  0  0  0  0
   -6.5307   -1.4831    1.5912 H   0  0  0  0  0  0  0  0  0  0  0  0
   -3.3487   -0.6448    3.4109 H   0  0  0  0  0  0  0  0  0  0  0  0
   -0.9351   -0.5445    3.6939 H   0  0  0  0  0  0  0  0  0  0  0  0
    1.2671    0.1495    2.5923 H   0  0  0  0  0  0  0  0  0  0  0  0
    1.5084   -0.1782    0.8490 H   0  0  0  0  0  0  0  0  0  0  0  0
    1.2364   -2.6494    1.2629 H   0  0  0  0  0  0  0  0  0  0  0  0
    0.9575   -2.3357    2.9984 H   0  0  0  0  0  0  0  0  0  0  0  0
    3.1398   -3.6035   -0.0230 H   0  0  0  0  0  0  0  0  0  0  0  0
    2.8733   -1.8657   -0.4906 H   0  0  0  0  0  0  0  0  0  0  0  0
    4.9011   -1.7509   -1.5416 H   0  0  0  0  0  0  0  0  0  0  0  0
    5.0048   -3.5425   -1.3988 H   0  0  0  0  0  0  0  0  0  0  0  0
    6.4244   -3.5108    0.4061 H   0  0  0  0  0  0  0  0  0  0  0  0
    8.6714   -2.6422    0.9400 H   0  0  0  0  0  0  0  0  0  0  0  0
   10.4505   -1.0085    0.3697 H   0  0  0  0  0  0  0  0  0  0  0  0
    6.1672    2.6979   -3.1719 H   0  0  0  0  0  0  0  0  0  0  0  0
    5.4747    1.7689   -1.7892 H   0  0  0  0  0  0  0  0  0  0  0  0
    6.0565    0.9011   -3.2723 H   0  0  0  0  0  0  0  0  0  0  0  0
    9.5276    2.4741   -1.7097 H   0  0  0  0  0  0  0  0  0  0  0  0
    8.1645    3.6391   -1.7997 H   0  0  0  0  0  0  0  0  0  0  0  0
    8.7470    2.8055   -3.2960 H   0  0  0  0  0  0  0  0  0  0  0  0
    5.6903   -2.6248    2.3820 H   0  0  0  0  0  0  0  0  0  0  0  0
    5.5578   -0.9372    1.7335 H   0  0  0  0  0  0  0  0  0  0  0  0
   -0.3967   -0.5132   -0.5703 H   0  0  0  0  0  0  0  0  0  0  0  0
   -2.2261   -0.5576   -2.0619 H   0  0  0  0  0  0  0  0  0  0  0  0
   -3.5645   -1.5051   -1.3977 H   0  0  0  0  0  0  0  0  0  0  0  0
  1  2  1  0
  2  3  1  0
  2  4  1  0
  4  5  1  0
  5  6  1  0
  6  7  2  0
  6  8  1  0
  8  9  1  0
  9 10  1  0
 10 11  1  0
 11 12  1  0
 12 13  1  0
 13 14  1  0
 14 15  1  0
 15 16  2  0
 16 17  1  0
 17 18  2  0
 18 19  1  0
 19 20  1  0
 20 21  1  0
 21 22  2  0
 21 23  1  0
 23 24  1  0
 24 25  1  0
 25 26  1  0
 26 27  1  0
 27 28  2  0
 28 29  1  0
 29 30  2  0
 30 31  1  0
 31 32  1  0
 32 33  1  0
 32 34  1  0
 31 35  2  0
 26 36  1  0
 18 37  1  0
 37 38  2  0
 38 39  1  0
 39  4  1  0
 38 15  1  0
 36 23  1  0
 35 27  1  0
  1 40  1  0
  1 41  1  0
  1 42  1  0
  2 43  1  0
  3 44  1  0
  3 45  1  0
  3 46  1  0
  5 47  1  0
  5 48  1  0
  8 49  1  0
  9 50  1  0
  9 51  1  0
 10 52  1  0
 10 53  1  0
 11 54  1  0
 11 55  1  0
 12 56  1  0
 12 57  1  0
 13 58  1  0
 13 59  1  0
 16 60  1  0
 17 61  1  0
 19 62  1  0
 19 63  1  0
 20 64  1  0
 20 65  1  0
 24 66  1  0
 24 67  1  0
 25 68  1  0
 25 69  1  0
 26 70  1  0
 28 71  1  0
 29 72  1  0
 33 73  1  0
 33 74  1  0
 33 75  1  0
 34 76  1  0
 34 77  1  0
 34 78  1  0
 36 79  1  0
 36 80  1  0
 37 81  1  0
 39 82  1  0
 39 83  1  0
M  END
$$$$
