
     RDKit          3D

 76 79  0  0  0  0  0  0  0  0999 V2000
   -5.7528    4.2064    1.6133 C   0  0  0  0  0  0  0  0  0  0  0  0
   -4.7870    3.5237    0.8454 O   0  0  0  0  0  0  0  0  0  0  0  0
   -4.5169    2.2667    1.4349 C   0  0  0  0  0  0  0  0  0  0  0  0
   -3.5118    1.4609    0.5618 C   0  0  0  0  0  0  0  0  0  0  0  0
   -2.1482    2.2286    0.5965 C   0  0  0  0  0  0  0  0  0  0  0  0
   -1.0698    1.6926   -0.3642 C   0  0  0  0  0  0  0  0  0  0  0  0
    0.3489    2.0241    0.1383 C   0  0  0  0  0  0  0  0  0  0  0  0
    1.4442    1.5668   -0.8383 C   0  0  0  0  0  0  0  0  0  0  0  0
    1.7778    0.1489   -0.6416 N   0  0  0  0  0  0  0  0  0  0  0  0
    2.9169   -0.2277    0.1503 C   0  0  0  0  0  0  0  0  0  0  0  0
    2.7770   -1.0540    1.0961 O   0  0  0  0  0  0  0  0  0  0  0  0
    4.2952    0.3010   -0.1768 C   0  0  0  0  0  0  0  0  0  0  0  0
    4.7780    1.2402    0.9525 C   0  0  0  0  0  0  0  0  0  0  0  0
    5.9327    2.1580    0.5013 C   0  0  0  0  0  0  0  0  0  0  0  0
    7.3450    1.5584    0.6573 C   0  0  0  0  0  0  0  0  0  0  0  0
    7.4701    0.0438    0.4189 C   0  0  0  0  0  0  0  0  0  0  0  0
    6.6780   -0.4716   -0.7917 C   0  0  0  0  0  0  0  0  0  0  0  0
    5.2484   -0.8878   -0.4162 C   0  0  0  0  0  0  0  0  0  0  0  0
    0.9879   -0.8968   -1.3069 C   0  0  0  0  0  0  0  0  0  0  0  0
    0.2794   -1.7979   -0.2913 C   0  0  0  0  0  0  0  0  0  0  0  0
   -0.9196   -2.3082   -0.8715 O   0  0  0  0  0  0  0  0  0  0  0  0
   -1.6837   -3.3727   -0.3595 C   0  0  0  0  0  0  0  0  0  0  0  0
   -1.1489   -4.3434    0.5093 C   0  0  0  0  0  0  0  0  0  0  0  0
   -1.9131   -5.4528    0.8829 C   0  0  0  0  0  0  0  0  0  0  0  0
   -3.2109   -5.6034    0.3995 C   0  0  0  0  0  0  0  0  0  0  0  0
   -3.7685   -4.6259   -0.4264 C   0  0  0  0  0  0  0  0  0  0  0  0
   -3.0171   -3.4949   -0.7817 C   0  0  0  0  0  0  0  0  0  0  0  0
   -3.6566   -2.3918   -1.5104 C   0  0  0  0  0  0  0  0  0  0  0  0
   -3.9900   -2.5575   -2.7113 O   0  0  0  0  0  0  0  0  0  0  0  0
   -3.8435   -1.1099   -0.8829 N   0  0  0  0  0  0  0  0  0  0  0  0
   -3.7333    0.1120   -1.6894 C   0  0  0  0  0  0  0  0  0  0  0  0
   -4.1004    1.3792   -0.8914 C   0  0  0  0  0  0  0  0  0  0  0  0
   -4.2026   -1.0199    0.5409 C   0  0  0  0  0  0  0  0  0  0  0  0
   -3.3429    0.0474    1.2184 C   0  0  0  0  0  0  0  0  0  0  0  0
   -5.3866    4.3800    2.6525 H   0  0  0  0  0  0  0  0  0  0  0  0
   -5.9358    5.2000    1.1519 H   0  0  0  0  0  0  0  0  0  0  0  0
   -6.7207    3.6573    1.6272 H   0  0  0  0  0  0  0  0  0  0  0  0
   -4.0838    2.4071    2.4560 H   0  0  0  0  0  0  0  0  0  0  0  0
   -5.4576    1.6711    1.5359 H   0  0  0  0  0  0  0  0  0  0  0  0
   -1.7626    2.1907    1.6455 H   0  0  0  0  0  0  0  0  0  0  0  0
   -2.3067    3.3083    0.3629 H   0  0  0  0  0  0  0  0  0  0  0  0
   -1.1641    0.5974   -0.4651 H   0  0  0  0  0  0  0  0  0  0  0  0
   -1.2187    2.1479   -1.3743 H   0  0  0  0  0  0  0  0  0  0  0  0
    0.4266    3.1288    0.2649 H   0  0  0  0  0  0  0  0  0  0  0  0
    0.5164    1.5499    1.1361 H   0  0  0  0  0  0  0  0  0  0  0  0
    2.3433    2.1944   -0.6651 H   0  0  0  0  0  0  0  0  0  0  0  0
    1.1303    1.7493   -1.8911 H   0  0  0  0  0  0  0  0  0  0  0  0
    4.2243    0.8696   -1.1311 H   0  0  0  0  0  0  0  0  0  0  0  0
    5.0594    0.6612    1.8575 H   0  0  0  0  0  0  0  0  0  0  0  0
    3.9288    1.8943    1.2501 H   0  0  0  0  0  0  0  0  0  0  0  0
    5.7864    2.4744   -0.5566 H   0  0  0  0  0  0  0  0  0  0  0  0
    5.8897    3.0924    1.1094 H   0  0  0  0  0  0  0  0  0  0  0  0
    8.0305    2.0908   -0.0375 H   0  0  0  0  0  0  0  0  0  0  0  0
    7.7093    1.7709    1.6815 H   0  0  0  0  0  0  0  0  0  0  0  0
    8.5439   -0.1812    0.2546 H   0  0  0  0  0  0  0  0  0  0  0  0
    7.1882   -0.5099    1.3401 H   0  0  0  0  0  0  0  0  0  0  0  0
    6.6714    0.2719   -1.6155 H   0  0  0  0  0  0  0  0  0  0  0  0
    7.1963   -1.3736   -1.1784 H   0  0  0  0  0  0  0  0  0  0  0  0
    5.2754   -1.5488    0.4754 H   0  0  0  0  0  0  0  0  0  0  0  0
    4.8335   -1.4931   -1.2500 H   0  0  0  0  0  0  0  0  0  0  0  0
    1.6605   -1.5195   -1.9327 H   0  0  0  0  0  0  0  0  0  0  0  0
    0.2466   -0.4406   -1.9944 H   0  0  0  0  0  0  0  0  0  0  0  0
    0.9751   -2.6217   -0.0224 H   0  0  0  0  0  0  0  0  0  0  0  0
    0.0157   -1.2334    0.6308 H   0  0  0  0  0  0  0  0  0  0  0  0
   -0.1441   -4.2658    0.8887 H   0  0  0  0  0  0  0  0  0  0  0  0
   -1.4886   -6.2039    1.5365 H   0  0  0  0  0  0  0  0  0  0  0  0
   -3.7938   -6.4683    0.6824 H   0  0  0  0  0  0  0  0  0  0  0  0
   -4.7910   -4.7340   -0.7639 H   0  0  0  0  0  0  0  0  0  0  0  0
   -4.4261    0.0416   -2.5571 H   0  0  0  0  0  0  0  0  0  0  0  0
   -2.7041    0.1999   -2.0969 H   0  0  0  0  0  0  0  0  0  0  0  0
   -3.8086    2.2806   -1.4756 H   0  0  0  0  0  0  0  0  0  0  0  0
   -5.2113    1.3930   -0.8403 H   0  0  0  0  0  0  0  0  0  0  0  0
   -4.0434   -1.9823    1.0684 H   0  0  0  0  0  0  0  0  0  0  0  0
   -5.2785   -0.7637    0.6343 H   0  0  0  0  0  0  0  0  0  0  0  0
   -2.2865   -0.2985    1.1900 H   0  0  0  0  0  0  0  0  0  0  0  0
   -3.6010    0.0726    2.3049 H   0  0  0  0  0  0  0  0  0  0  0  0
  1  2  1  0
  2  3  1  0
  3  4  1  0
  4  5  1  0
  5  6  1  0
  6  7  1  0
  7  8  1  0
  8  9  1  0
  9 10  1  0
 10 11  2  0
 10 12  1  0
 12 13  1  0
 13 14  1  0
 14 15  1  0
 15 16  1  0
 16 17  1  0
 17 18  1  0
  9 19  1  0
 19 20  1  0
 20 21  1  0
 21 22  1  0
 22 23  2  0
 23 24  1  0
 24 25  2  0
 25 26  1  0
 26 27  2  0
 27 28  1  0
 28 29  2  0
 28 30  1  0
 30 31  1  0
 31 32  1  0
 30 33  1  0
 33 34  1  0
 32  4  1  0
 34  4  1  0
 18 12  1  0
 27 22  1  0
  1 35  1  0
  1 36  1  0
  1 37  1  0
  3 38  1  0
  3 39  1  0
  5 40  1  0
  5 41  1  0
  6 42  1  0
  6 43  1  0
  7 44  1  0
  7 45  1  0
  8 46  1  0
  8 47  1  0
 12 48  1  0
 13 49  1  0
 13 50  1  0
 14 51  1  0
 14 52  1  0
 15 53  1  0
 15 54  1  0
 16 55  1  0
 16 56  1  0
 17 57  1  0
 17 58  1  0
 18 59  1  0
 18 60  1  0
 19 61  1  0
 19 62  1  0
 20 63  1  0
 20 64  1  0
 23 65  1  0
 24 66  1  0
 25 67  1  0
 26 68  1  0
 31 69  1  0
 31 70  1  0
 32 71  1  0
 32 72  1  0
 33 73  1  0
 33 74  1  0
 34 75  1  0
 34 76  1  0
M  END
$$$$
