
     RDKit          3D

 85 88  0  0  0  0  0  0  0  0999 V2000
   12.2292   -0.3382   -1.0775 C   0  0  0  0  0  0  0  0  0  0  0  0
   11.2015   -0.9777   -1.8292 O   0  0  0  0  0  0  0  0  0  0  0  0
    9.8418   -0.6405   -1.7570 C   0  0  0  0  0  0  0  0  0  0  0  0
    8.9405   -1.3266   -2.5786 C   0  0  0  0  0  0  0  0  0  0  0  0
    7.5754   -1.0281   -2.5391 C   0  0  0  0  0  0  0  0  0  0  0  0
    7.0839   -0.0458   -1.6710 C   0  0  0  0  0  0  0  0  0  0  0  0
    5.7001    0.1999   -1.6633 O   0  0  0  0  0  0  0  0  0  0  0  0
    5.0099    1.0340   -0.7296 C   0  0  0  0  0  0  0  0  0  0  0  0
    4.9265    0.3502    0.6397 C   0  0  0  0  0  0  0  0  0  0  0  0
    4.2966    1.2559    1.7037 C   0  0  0  0  0  0  0  0  0  0  0  0
    2.9062    1.5828    1.3877 N   0  0  0  0  0  0  0  0  0  0  0  0
    1.8370    0.6350    1.5404 C   0  0  0  0  0  0  0  0  0  0  0  0
    2.0966   -0.5782    1.7669 O   0  0  0  0  0  0  0  0  0  0  0  0
    0.3968    1.0803    1.5335 C   0  0  0  0  0  0  0  0  0  0  0  0
   -0.0151    1.5942    2.9424 C   0  0  0  0  0  0  0  0  0  0  0  0
   -1.0821    0.7299    3.5441 C   0  0  0  0  0  0  0  0  0  0  0  0
   -0.8274    0.0271    4.5600 O   0  0  0  0  0  0  0  0  0  0  0  0
   -2.3806    0.6971    2.9408 N   0  0  0  0  0  0  0  0  0  0  0  0
   -3.2891   -0.4502    3.0336 C   0  0  0  0  0  0  0  0  0  0  0  0
   -2.5933   -1.7343    2.5616 C   0  0  0  0  0  0  0  0  0  0  0  0
   -4.5626   -0.1520    2.2617 C   0  0  0  0  0  0  0  0  0  0  0  0
   -5.4061    0.6195    2.7885 O   0  0  0  0  0  0  0  0  0  0  0  0
   -4.7916   -0.6312    0.9179 N   0  0  0  0  0  0  0  0  0  0  0  0
   -5.2324   -2.0200    0.7395 C   0  0  0  0  0  0  0  0  0  0  0  0
   -4.8840    0.2990   -0.2314 C   0  0  0  0  0  0  0  0  0  0  0  0
   -6.2218    1.0729   -0.2348 C   0  0  0  0  0  0  0  0  0  0  0  0
   -7.4053    0.1544   -0.3967 C   0  0  0  0  0  0  0  0  0  0  0  0
   -8.1671   -0.2340    0.7169 C   0  0  0  0  0  0  0  0  0  0  0  0
   -9.2360   -1.1232    0.5626 C   0  0  0  0  0  0  0  0  0  0  0  0
   -9.5516   -1.6307   -0.7005 C   0  0  0  0  0  0  0  0  0  0  0  0
   -8.7981   -1.2482   -1.8129 C   0  0  0  0  0  0  0  0  0  0  0  0
   -7.7280   -0.3603   -1.6633 C   0  0  0  0  0  0  0  0  0  0  0  0
   -3.6995    1.2840   -0.2836 C   0  0  0  0  0  0  0  0  0  0  0  0
   -2.4478    0.6519   -0.0164 O   0  0  0  0  0  0  0  0  0  0  0  0
   -1.6815    0.0042   -0.9900 C   0  0  0  0  0  0  0  0  0  0  0  0
   -2.1126   -1.2132   -1.5398 C   0  0  0  0  0  0  0  0  0  0  0  0
   -1.3488   -1.8568   -2.5162 C   0  0  0  0  0  0  0  0  0  0  0  0
   -0.1475   -1.2922   -2.9487 C   0  0  0  0  0  0  0  0  0  0  0  0
    0.2986   -0.0876   -2.3980 C   0  0  0  0  0  0  0  0  0  0  0  0
   -0.4510    0.5588   -1.4015 C   0  0  0  0  0  0  0  0  0  0  0  0
    0.0179    1.8615   -0.8834 C   0  0  0  0  0  0  0  0  0  0  0  0
    0.2711    2.7805   -1.7058 O   0  0  0  0  0  0  0  0  0  0  0  0
    0.1804    2.1235    0.5201 N   0  0  0  0  0  0  0  0  0  0  0  0
    7.9891    0.6536   -0.8493 C   0  0  0  0  0  0  0  0  0  0  0  0
    9.3554    0.3575   -0.8910 C   0  0  0  0  0  0  0  0  0  0  0  0
   13.2029   -0.8006   -1.3312 H   0  0  0  0  0  0  0  0  0  0  0  0
   12.0479   -0.4675    0.0111 H   0  0  0  0  0  0  0  0  0  0  0  0
   12.2769    0.7425   -1.3306 H   0  0  0  0  0  0  0  0  0  0  0  0
    9.2996   -2.0969   -3.2501 H   0  0  0  0  0  0  0  0  0  0  0  0
    6.8919   -1.5699   -3.1808 H   0  0  0  0  0  0  0  0  0  0  0  0
    5.5037    2.0259   -0.6603 H   0  0  0  0  0  0  0  0  0  0  0  0
    3.9799    1.2006   -1.1124 H   0  0  0  0  0  0  0  0  0  0  0  0
    5.9462    0.0775    0.9826 H   0  0  0  0  0  0  0  0  0  0  0  0
    4.3486   -0.5921    0.5431 H   0  0  0  0  0  0  0  0  0  0  0  0
    4.3408    0.7521    2.6931 H   0  0  0  0  0  0  0  0  0  0  0  0
    4.8886    2.1947    1.7835 H   0  0  0  0  0  0  0  0  0  0  0  0
    2.6777    2.5803    1.1813 H   0  0  0  0  0  0  0  0  0  0  0  0
   -0.2151    0.1906    1.2691 H   0  0  0  0  0  0  0  0  0  0  0  0
    0.8558    1.6382    3.6331 H   0  0  0  0  0  0  0  0  0  0  0  0
   -0.4137    2.6289    2.8880 H   0  0  0  0  0  0  0  0  0  0  0  0
   -2.6637    1.5352    2.3873 H   0  0  0  0  0  0  0  0  0  0  0  0
   -3.5590   -0.5934    4.1023 H   0  0  0  0  0  0  0  0  0  0  0  0
   -3.2580   -2.6084    2.7173 H   0  0  0  0  0  0  0  0  0  0  0  0
   -1.6746   -1.9295    3.1522 H   0  0  0  0  0  0  0  0  0  0  0  0
   -2.3013   -1.6551    1.4949 H   0  0  0  0  0  0  0  0  0  0  0  0
   -4.3602   -2.7029    0.7178 H   0  0  0  0  0  0  0  0  0  0  0  0
   -5.7748   -2.1493   -0.2217 H   0  0  0  0  0  0  0  0  0  0  0  0
   -5.9239   -2.3163    1.5593 H   0  0  0  0  0  0  0  0  0  0  0  0
   -4.8413   -0.2812   -1.1795 H   0  0  0  0  0  0  0  0  0  0  0  0
   -6.2220    1.7977   -1.0788 H   0  0  0  0  0  0  0  0  0  0  0  0
   -6.3241    1.6812    0.6879 H   0  0  0  0  0  0  0  0  0  0  0  0
   -7.9317    0.1451    1.7029 H   0  0  0  0  0  0  0  0  0  0  0  0
   -9.8188   -1.4213    1.4229 H   0  0  0  0  0  0  0  0  0  0  0  0
  -10.3778   -2.3217   -0.8165 H   0  0  0  0  0  0  0  0  0  0  0  0
   -9.0380   -1.6457   -2.7898 H   0  0  0  0  0  0  0  0  0  0  0  0
   -7.1461   -0.0781   -2.5316 H   0  0  0  0  0  0  0  0  0  0  0  0
   -3.6617    1.7866   -1.2761 H   0  0  0  0  0  0  0  0  0  0  0  0
   -3.8515    2.0806    0.4741 H   0  0  0  0  0  0  0  0  0  0  0  0
   -3.0264   -1.6776   -1.2001 H   0  0  0  0  0  0  0  0  0  0  0  0
   -1.6901   -2.7916   -2.9400 H   0  0  0  0  0  0  0  0  0  0  0  0
    0.4390   -1.7884   -3.7117 H   0  0  0  0  0  0  0  0  0  0  0  0
    1.2336    0.3391   -2.7425 H   0  0  0  0  0  0  0  0  0  0  0  0
    0.3707    3.1164    0.7885 H   0  0  0  0  0  0  0  0  0  0  0  0
    7.6532    1.4272   -0.1751 H   0  0  0  0  0  0  0  0  0  0  0  0
   10.0230    0.9083   -0.2417 H   0  0  0  0  0  0  0  0  0  0  0  0
  1  2  1  0
  2  3  1  0
  3  4  2  0
  4  5  1  0
  5  6  2  0
  6  7  1  0
  7  8  1  0
  8  9  1  0
  9 10  1  0
 10 11  1  0
 11 12  1  0
 12 13  2  0
 12 14  1  0
 14 15  1  0
 15 16  1  0
 16 17  2  0
 16 18  1  0
 18 19  1  0
 19 20  1  0
 19 21  1  0
 21 22  2  0
 21 23  1  0
 23 24  1  0
 23 25  1  0
 25 26  1  0
 26 27  1  0
 27 28  2  0
 28 29  1  0
 29 30  2  0
 30 31  1  0
 31 32  2  0
 25 33  1  0
 33 34  1  0
 34 35  1  0
 35 36  2  0
 36 37  1  0
 37 38  2  0
 38 39  1  0
 39 40  2  0
 40 41  1  0
 41 42  2  0
 41 43  1  0
  6 44  1  0
 44 45  2  0
 45  3  1  0
 43 14  1  0
 32 27  1  0
 40 35  1  0
  1 46  1  0
  1 47  1  0
  1 48  1  0
  4 49  1  0
  5 50  1  0
  8 51  1  0
  8 52  1  0
  9 53  1  0
  9 54  1  0
 10 55  1  0
 10 56  1  0
 11 57  1  0
 14 58  1  0
 15 59  1  0
 15 60  1  0
 18 61  1  0
 19 62  1  0
 20 63  1  0
 20 64  1  0
 20 65  1  0
 24 66  1  0
 24 67  1  0
 24 68  1  0
 25 69  1  0
 26 70  1  0
 26 71  1  0
 28 72  1  0
 29 73  1  0
 30 74  1  0
 31 75  1  0
 32 76  1  0
 33 77  1  0
 33 78  1  0
 36 79  1  0
 37 80  1  0
 38 81  1  0
 39 82  1  0
 43 83  1  0
 44 84  1  0
 45 85  1  0
M  END
$$$$
