
     RDKit          3D

103106  0  0  0  0  0  0  0  0999 V2000
   10.2076    4.5207    1.8764 C   0  0  0  0  0  0  0  0  0  0  0  0
   10.7774    3.5331    0.8648 C   0  0  0  0  0  0  0  0  0  0  0  0
   10.3702    2.2011    1.1766 O   0  0  0  0  0  0  0  0  0  0  0  0
    9.0935    1.6582    0.9492 C   0  0  0  0  0  0  0  0  0  0  0  0
    8.0888    2.3544    0.2482 C   0  0  0  0  0  0  0  0  0  0  0  0
    6.8393    1.7683    0.0346 C   0  0  0  0  0  0  0  0  0  0  0  0
    6.5685    0.4829    0.5217 C   0  0  0  0  0  0  0  0  0  0  0  0
    5.2467   -0.1803    0.2366 C   0  0  0  0  0  0  0  0  0  0  0  0
    5.3127   -0.9585   -1.0842 C   0  0  0  0  0  0  0  0  0  0  0  0
    4.0950   -1.8644   -1.2845 C   0  0  0  0  0  0  0  0  0  0  0  0
    2.8749   -1.0761   -1.4527 N   0  0  0  0  0  0  0  0  0  0  0  0
    1.8584   -0.9973   -0.4421 C   0  0  0  0  0  0  0  0  0  0  0  0
    2.1063   -1.4045    0.7233 O   0  0  0  0  0  0  0  0  0  0  0  0
    0.4726   -0.5185   -0.8168 C   0  0  0  0  0  0  0  0  0  0  0  0
   -0.3397   -1.6624   -1.4513 C   0  0  0  0  0  0  0  0  0  0  0  0
   -1.6189   -1.1501   -2.1368 C   0  0  0  0  0  0  0  0  0  0  0  0
   -2.3811   -2.2499   -2.8420 C   0  0  0  0  0  0  0  0  0  0  0  0
   -1.7591   -3.2682   -3.2547 O   0  0  0  0  0  0  0  0  0  0  0  0
   -3.7771   -2.1235   -3.1660 N   0  0  0  0  0  0  0  0  0  0  0  0
   -4.7086   -1.2169   -2.4818 C   0  0  0  0  0  0  0  0  0  0  0  0
   -5.9357   -0.9608   -3.3833 C   0  0  0  0  0  0  0  0  0  0  0  0
   -6.8678    0.1633   -2.8436 C   0  0  0  0  0  0  0  0  0  0  0  0
   -7.1943    1.1836   -3.9401 C   0  0  0  0  0  0  0  0  0  0  0  0
   -8.1666   -0.4174   -2.2715 C   0  0  0  0  0  0  0  0  0  0  0  0
   -5.1292   -1.8425   -1.1642 C   0  0  0  0  0  0  0  0  0  0  0  0
   -5.2585   -3.0995   -1.1228 O   0  0  0  0  0  0  0  0  0  0  0  0
   -5.4858   -1.0624    0.0036 N   0  0  0  0  0  0  0  0  0  0  0  0
   -6.4124   -1.6785    0.9669 C   0  0  0  0  0  0  0  0  0  0  0  0
   -4.6352    0.0656    0.4487 C   0  0  0  0  0  0  0  0  0  0  0  0
   -5.4892    1.2183    1.0249 C   0  0  0  0  0  0  0  0  0  0  0  0
   -4.7383    2.5252    1.0244 C   0  0  0  0  0  0  0  0  0  0  0  0
   -4.1121    2.9896    2.1930 C   0  0  0  0  0  0  0  0  0  0  0  0
   -3.3871    4.1859    2.1747 C   0  0  0  0  0  0  0  0  0  0  0  0
   -3.2817    4.9244    0.9920 C   0  0  0  0  0  0  0  0  0  0  0  0
   -3.8965    4.4650   -0.1762 C   0  0  0  0  0  0  0  0  0  0  0  0
   -4.6226    3.2693   -0.1622 C   0  0  0  0  0  0  0  0  0  0  0  0
   -3.5804   -0.4259    1.4528 C   0  0  0  0  0  0  0  0  0  0  0  0
   -2.8674   -1.5227    0.8873 O   0  0  0  0  0  0  0  0  0  0  0  0
   -1.9238   -2.2616    1.6014 C   0  0  0  0  0  0  0  0  0  0  0  0
   -2.2158   -3.5963    1.9062 C   0  0  0  0  0  0  0  0  0  0  0  0
   -1.3279   -4.3591    2.6675 C   0  0  0  0  0  0  0  0  0  0  0  0
   -0.1405   -3.7907    3.1311 C   0  0  0  0  0  0  0  0  0  0  0  0
    0.1728   -2.4673    2.8113 C   0  0  0  0  0  0  0  0  0  0  0  0
   -0.6929   -1.7036    2.0095 C   0  0  0  0  0  0  0  0  0  0  0  0
   -0.3130   -0.3221    1.6579 C   0  0  0  0  0  0  0  0  0  0  0  0
   -0.0692    0.4899    2.5897 O   0  0  0  0  0  0  0  0  0  0  0  0
   -0.2402    0.1406    0.2966 N   0  0  0  0  0  0  0  0  0  0  0  0
    7.5680   -0.2159    1.2143 C   0  0  0  0  0  0  0  0  0  0  0  0
    8.8303    0.3680    1.4346 C   0  0  0  0  0  0  0  0  0  0  0  0
    9.8494   -0.3026    2.1297 O   0  0  0  0  0  0  0  0  0  0  0  0
    9.7218   -1.6055    2.6903 C   0  0  0  0  0  0  0  0  0  0  0  0
   10.5394    4.2456    2.8991 H   0  0  0  0  0  0  0  0  0  0  0  0
    9.0992    4.5200    1.8454 H   0  0  0  0  0  0  0  0  0  0  0  0
   10.5698    5.5439    1.6452 H   0  0  0  0  0  0  0  0  0  0  0  0
   11.8851    3.5785    0.9175 H   0  0  0  0  0  0  0  0  0  0  0  0
   10.4871    3.8074   -0.1707 H   0  0  0  0  0  0  0  0  0  0  0  0
    8.2620    3.3457   -0.1455 H   0  0  0  0  0  0  0  0  0  0  0  0
    6.0825    2.3159   -0.5152 H   0  0  0  0  0  0  0  0  0  0  0  0
    4.4416    0.5840    0.1821 H   0  0  0  0  0  0  0  0  0  0  0  0
    4.9915   -0.8703    1.0707 H   0  0  0  0  0  0  0  0  0  0  0  0
    6.2210   -1.6001   -1.0897 H   0  0  0  0  0  0  0  0  0  0  0  0
    5.3912   -0.2473   -1.9351 H   0  0  0  0  0  0  0  0  0  0  0  0
    4.2497   -2.4746   -2.1998 H   0  0  0  0  0  0  0  0  0  0  0  0
    4.0020   -2.5758   -0.4350 H   0  0  0  0  0  0  0  0  0  0  0  0
    2.7244   -0.5881   -2.3651 H   0  0  0  0  0  0  0  0  0  0  0  0
    0.6180    0.2488   -1.6097 H   0  0  0  0  0  0  0  0  0  0  0  0
   -0.5879   -2.4330   -0.6960 H   0  0  0  0  0  0  0  0  0  0  0  0
    0.2949   -2.1530   -2.2228 H   0  0  0  0  0  0  0  0  0  0  0  0
   -1.3533   -0.3801   -2.8927 H   0  0  0  0  0  0  0  0  0  0  0  0
   -2.2526   -0.6707   -1.3722 H   0  0  0  0  0  0  0  0  0  0  0  0
   -4.1810   -2.8548   -3.7961 H   0  0  0  0  0  0  0  0  0  0  0  0
   -4.2099   -0.2400   -2.3614 H   0  0  0  0  0  0  0  0  0  0  0  0
   -6.4990   -1.9101   -3.5297 H   0  0  0  0  0  0  0  0  0  0  0  0
   -5.5524   -0.6811   -4.3909 H   0  0  0  0  0  0  0  0  0  0  0  0
   -6.3585    0.7224   -2.0284 H   0  0  0  0  0  0  0  0  0  0  0  0
   -7.7008    0.6887   -4.7960 H   0  0  0  0  0  0  0  0  0  0  0  0
   -6.2591    1.6636   -4.3019 H   0  0  0  0  0  0  0  0  0  0  0  0
   -7.8581    1.9808   -3.5417 H   0  0  0  0  0  0  0  0  0  0  0  0
   -7.9414   -1.1608   -1.4805 H   0  0  0  0  0  0  0  0  0  0  0  0
   -8.7584   -0.9175   -3.0698 H   0  0  0  0  0  0  0  0  0  0  0  0
   -8.7819    0.3908   -1.8208 H   0  0  0  0  0  0  0  0  0  0  0  0
   -5.8433   -2.2569    1.7243 H   0  0  0  0  0  0  0  0  0  0  0  0
   -7.1172   -2.3675    0.4551 H   0  0  0  0  0  0  0  0  0  0  0  0
   -7.0327   -0.9126    1.4735 H   0  0  0  0  0  0  0  0  0  0  0  0
   -4.0815    0.4848   -0.4072 H   0  0  0  0  0  0  0  0  0  0  0  0
   -6.4086    1.3400    0.4115 H   0  0  0  0  0  0  0  0  0  0  0  0
   -5.8242    0.9752    2.0561 H   0  0  0  0  0  0  0  0  0  0  0  0
   -4.1785    2.4233    3.1139 H   0  0  0  0  0  0  0  0  0  0  0  0
   -2.9022    4.5365    3.0763 H   0  0  0  0  0  0  0  0  0  0  0  0
   -2.7179    5.8489    0.9803 H   0  0  0  0  0  0  0  0  0  0  0  0
   -3.8060    5.0318   -1.0943 H   0  0  0  0  0  0  0  0  0  0  0  0
   -5.0869    2.9195   -1.0765 H   0  0  0  0  0  0  0  0  0  0  0  0
   -2.8807    0.4013    1.6885 H   0  0  0  0  0  0  0  0  0  0  0  0
   -4.0702   -0.7494    2.3967 H   0  0  0  0  0  0  0  0  0  0  0  0
   -3.1443   -4.0365    1.5674 H   0  0  0  0  0  0  0  0  0  0  0  0
   -1.5668   -5.3865    2.9085 H   0  0  0  0  0  0  0  0  0  0  0  0
    0.5403   -4.3767    3.7351 H   0  0  0  0  0  0  0  0  0  0  0  0
    1.1032   -2.0450    3.1717 H   0  0  0  0  0  0  0  0  0  0  0  0
   -0.4837    1.1469    0.1492 H   0  0  0  0  0  0  0  0  0  0  0  0
    7.3562   -1.2148    1.5716 H   0  0  0  0  0  0  0  0  0  0  0  0
   10.6778   -1.8852    3.1787 H   0  0  0  0  0  0  0  0  0  0  0  0
    9.5003   -2.3442    1.8914 H   0  0  0  0  0  0  0  0  0  0  0  0
    8.9165   -1.6144    3.4559 H   0  0  0  0  0  0  0  0  0  0  0  0
  1  2  1  0
  2  3  1  0
  3  4  1  0
  4  5  2  0
  5  6  1  0
  6  7  2  0
  7  8  1  0
  8  9  1  0
  9 10  1  0
 10 11  1  0
 11 12  1  0
 12 13  2  0
 12 14  1  0
 14 15  1  0
 15 16  1  0
 16 17  1  0
 17 18  2  0
 17 19  1  0
 19 20  1  0
 20 21  1  0
 21 22  1  0
 22 23  1  0
 22 24  1  0
 20 25  1  0
 25 26  2  0
 25 27  1  0
 27 28  1  0
 27 29  1  0
 29 30  1  0
 30 31  1  0
 31 32  2  0
 32 33  1  0
 33 34  2  0
 34 35  1  0
 35 36  2  0
 29 37  1  0
 37 38  1  0
 38 39  1  0
 39 40  2  0
 40 41  1  0
 41 42  2  0
 42 43  1  0
 43 44  2  0
 44 45  1  0
 45 46  2  0
 45 47  1  0
  7 48  1  0
 48 49  2  0
 49 50  1  0
 50 51  1  0
 49  4  1  0
 47 14  1  0
 36 31  1  0
 44 39  1  0
  1 52  1  0
  1 53  1  0
  1 54  1  0
  2 55  1  0
  2 56  1  0
  5 57  1  0
  6 58  1  0
  8 59  1  0
  8 60  1  0
  9 61  1  0
  9 62  1  0
 10 63  1  0
 10 64  1  0
 11 65  1  0
 14 66  1  0
 15 67  1  0
 15 68  1  0
 16 69  1  0
 16 70  1  0
 19 71  1  0
 20 72  1  0
 21 73  1  0
 21 74  1  0
 22 75  1  0
 23 76  1  0
 23 77  1  0
 23 78  1  0
 24 79  1  0
 24 80  1  0
 24 81  1  0
 28 82  1  0
 28 83  1  0
 28 84  1  0
 29 85  1  0
 30 86  1  0
 30 87  1  0
 32 88  1  0
 33 89  1  0
 34 90  1  0
 35 91  1  0
 36 92  1  0
 37 93  1  0
 37 94  1  0
 40 95  1  0
 41 96  1  0
 42 97  1  0
 43 98  1  0
 47 99  1  0
 48100  1  0
 51101  1  0
 51102  1  0
 51103  1  0
M  END
$$$$
