
     RDKit          3D

 62 63  0  0  0  0  0  0  0  0999 V2000
   -3.8958    0.4855   -2.7388 C   0  0  0  0  0  0  0  0  0  0  0  0
   -4.1626    0.0103   -1.4357 O   0  0  0  0  0  0  0  0  0  0  0  0
   -2.9601   -0.2679   -0.7282 C   0  0  0  0  0  0  0  0  0  0  0  0
   -2.7731   -1.8024   -0.7695 C   0  0  0  0  0  0  0  0  0  0  0  0
   -1.7198   -2.3112    0.1341 N   0  0  0  0  0  0  0  0  0  0  0  0
   -2.0788   -2.6660    1.4901 C   0  0  0  0  0  0  0  0  0  0  0  0
   -1.1194   -2.4844    2.6217 C   0  0  0  0  0  0  0  0  0  0  0  0
   -3.2181   -3.1448    1.7348 O   0  0  0  0  0  0  0  0  0  0  0  0
   -0.5161   -2.9323   -0.4531 C   0  0  0  0  0  0  0  0  0  0  0  0
    0.4955   -1.9000   -0.9607 C   0  0  0  0  0  0  0  0  0  0  0  0
    1.1175   -1.1085    0.1969 C   0  0  0  0  0  0  0  0  0  0  0  0
    2.3277   -0.3746   -0.2219 N   0  0  0  0  0  0  0  0  0  0  0  0
    3.4949   -0.4257    0.6304 C   0  0  0  0  0  0  0  0  0  0  0  0
    3.3362   -0.5599    1.8788 O   0  0  0  0  0  0  0  0  0  0  0  0
    4.8753   -0.3359    0.0871 C   0  0  0  0  0  0  0  0  0  0  0  0
    5.1601   -0.6701   -1.2440 C   0  0  0  0  0  0  0  0  0  0  0  0
    6.4611   -0.5493   -1.7219 C   0  0  0  0  0  0  0  0  0  0  0  0
    7.4427   -0.1222   -0.8884 N   0  0  0  0  0  0  0  0  0  0  0  0
    7.1944    0.1538    0.3908 N   0  0  0  0  0  0  0  0  0  0  0  0
    5.9415    0.0549    0.9082 C   0  0  0  0  0  0  0  0  0  0  0  0
    2.2643    0.6186   -1.3135 C   0  0  0  0  0  0  0  0  0  0  0  0
    1.1421    1.6545   -1.1094 C   0  0  0  0  0  0  0  0  0  0  0  0
    1.3320    2.4638    0.1847 C   0  0  0  0  0  0  0  0  0  0  0  0
    0.0697    3.2185    0.5770 C   0  0  0  0  0  0  0  0  0  0  0  0
   -0.9641    2.2955    0.8878 O   0  0  0  0  0  0  0  0  0  0  0  0
   -2.1730    2.6766    0.2782 C   0  0  0  0  0  0  0  0  0  0  0  0
   -3.3415    1.8200    0.7883 C   0  0  0  0  0  0  0  0  0  0  0  0
   -4.4917    2.1520    0.0632 O   0  0  0  0  0  0  0  0  0  0  0  0
   -3.0917    0.2884    0.7197 C   0  0  0  0  0  0  0  0  0  0  0  0
   -4.1504   -0.3716    1.3772 O   0  0  0  0  0  0  0  0  0  0  0  0
   -3.2832   -0.2448   -3.3092 H   0  0  0  0  0  0  0  0  0  0  0  0
   -4.8534    0.6087   -3.2853 H   0  0  0  0  0  0  0  0  0  0  0  0
   -3.3947    1.4834   -2.6958 H   0  0  0  0  0  0  0  0  0  0  0  0
   -2.0568    0.2026   -1.1844 H   0  0  0  0  0  0  0  0  0  0  0  0
   -2.5368   -2.0786   -1.8200 H   0  0  0  0  0  0  0  0  0  0  0  0
   -3.7407   -2.3016   -0.5423 H   0  0  0  0  0  0  0  0  0  0  0  0
   -0.5156   -1.5724    2.4631 H   0  0  0  0  0  0  0  0  0  0  0  0
   -0.4540   -3.3673    2.7130 H   0  0  0  0  0  0  0  0  0  0  0  0
   -1.6793   -2.3668    3.5765 H   0  0  0  0  0  0  0  0  0  0  0  0
   -0.8217   -3.5860   -1.3011 H   0  0  0  0  0  0  0  0  0  0  0  0
   -0.0215   -3.6097    0.2787 H   0  0  0  0  0  0  0  0  0  0  0  0
    0.0038   -1.2200   -1.6788 H   0  0  0  0  0  0  0  0  0  0  0  0
    1.2918   -2.4591   -1.4849 H   0  0  0  0  0  0  0  0  0  0  0  0
    0.3781   -0.3929    0.6185 H   0  0  0  0  0  0  0  0  0  0  0  0
    1.3738   -1.8327    0.9998 H   0  0  0  0  0  0  0  0  0  0  0  0
    4.3931   -1.0555   -1.9035 H   0  0  0  0  0  0  0  0  0  0  0  0
    6.6887   -0.7963   -2.7489 H   0  0  0  0  0  0  0  0  0  0  0  0
    5.7773    0.2760    1.9531 H   0  0  0  0  0  0  0  0  0  0  0  0
    2.1011    0.0948   -2.2796 H   0  0  0  0  0  0  0  0  0  0  0  0
    3.2211    1.1778   -1.3925 H   0  0  0  0  0  0  0  0  0  0  0  0
    0.1626    1.1377   -1.1135 H   0  0  0  0  0  0  0  0  0  0  0  0
    1.1350    2.3548   -1.9732 H   0  0  0  0  0  0  0  0  0  0  0  0
    1.6106    1.7936    1.0257 H   0  0  0  0  0  0  0  0  0  0  0  0
    2.1639    3.1852    0.0455 H   0  0  0  0  0  0  0  0  0  0  0  0
    0.2983    3.7875    1.4944 H   0  0  0  0  0  0  0  0  0  0  0  0
   -0.1786    3.9510   -0.2274 H   0  0  0  0  0  0  0  0  0  0  0  0
   -2.0834    2.5740   -0.8238 H   0  0  0  0  0  0  0  0  0  0  0  0
   -2.4164    3.7379    0.5116 H   0  0  0  0  0  0  0  0  0  0  0  0
   -3.4924    2.0748    1.8598 H   0  0  0  0  0  0  0  0  0  0  0  0
   -4.9818    2.8438    0.5735 H   0  0  0  0  0  0  0  0  0  0  0  0
   -2.1380    0.0797    1.2544 H   0  0  0  0  0  0  0  0  0  0  0  0
   -3.9497   -0.3452    2.3535 H   0  0  0  0  0  0  0  0  0  0  0  0
  1  2  1  0
  2  3  1  0
  3  4  1  0
  4  5  1  0
  5  6  1  0
  6  7  1  0
  6  8  2  0
  5  9  1  0
  9 10  1  0
 10 11  1  0
 11 12  1  0
 12 13  1  0
 13 14  2  0
 13 15  1  0
 15 16  2  0
 16 17  1  0
 17 18  2  0
 18 19  1  0
 19 20  2  0
 12 21  1  0
 21 22  1  0
 22 23  1  0
 23 24  1  0
 24 25  1  0
 25 26  1  0
 26 27  1  0
 27 28  1  0
 27 29  1  0
 29 30  1  0
 29  3  1  0
 20 15  1  0
  1 31  1  0
  1 32  1  0
  1 33  1  0
  3 34  1  0
  4 35  1  0
  4 36  1  0
  7 37  1  0
  7 38  1  0
  7 39  1  0
  9 40  1  0
  9 41  1  0
 10 42  1  0
 10 43  1  0
 11 44  1  0
 11 45  1  0
 16 46  1  0
 17 47  1  0
 20 48  1  0
 21 49  1  0
 21 50  1  0
 22 51  1  0
 22 52  1  0
 23 53  1  0
 23 54  1  0
 24 55  1  0
 24 56  1  0
 26 57  1  0
 26 58  1  0
 27 59  1  0
 28 60  1  0
 29 61  1  0
 30 62  1  0
M  END
$$$$
