
     RDKit          3D

 66 68  0  0  0  0  0  0  0  0999 V2000
   -5.1643    3.8696   -0.7658 C   0  0  0  0  0  0  0  0  0  0  0  0
   -3.7161    3.3736   -0.8832 C   0  0  0  0  0  0  0  0  0  0  0  0
   -2.7497    4.5584   -0.7395 C   0  0  0  0  0  0  0  0  0  0  0  0
   -3.4532    2.2648    0.1651 C   0  0  0  0  0  0  0  0  0  0  0  0
   -2.0943    1.5406   -0.0146 C   0  0  0  0  0  0  0  0  0  0  0  0
   -2.1178    0.1713    0.6841 C   0  0  0  0  0  0  0  0  0  0  0  0
   -2.9375   -0.7275   -0.0614 O   0  0  0  0  0  0  0  0  0  0  0  0
   -2.8012   -2.1259   -0.1334 C   0  0  0  0  0  0  0  0  0  0  0  0
   -3.2562   -2.7339   -1.3112 C   0  0  0  0  0  0  0  0  0  0  0  0
   -3.1574   -4.1135   -1.4929 C   0  0  0  0  0  0  0  0  0  0  0  0
   -2.6219   -4.9139   -0.4844 C   0  0  0  0  0  0  0  0  0  0  0  0
   -2.5179   -6.6510   -0.7050 Cl  0  0  0  0  0  0  0  0  0  0  0  0
   -2.1841   -4.3327    0.7073 C   0  0  0  0  0  0  0  0  0  0  0  0
   -2.2496   -2.9406    0.8954 C   0  0  0  0  0  0  0  0  0  0  0  0
   -1.8776   -2.4058    2.2179 C   0  0  0  0  0  0  0  0  0  0  0  0
   -2.7746   -1.8715    2.9230 O   0  0  0  0  0  0  0  0  0  0  0  0
   -0.5410   -2.4929    2.7428 N   0  0  0  0  0  0  0  0  0  0  0  0
    0.5758   -3.2208    2.1304 C   0  0  0  0  0  0  0  0  0  0  0  0
    1.7826   -2.2925    1.9360 C   0  0  0  0  0  0  0  0  0  0  0  0
    1.7038   -1.5037    0.6134 C   0  0  0  0  0  0  0  0  0  0  0  0
    2.1522   -0.0488    0.7930 C   0  0  0  0  0  0  0  0  0  0  0  0
    2.1104    0.6700   -0.4922 N   0  0  0  0  0  0  0  0  0  0  0  0
    3.1573    0.4386   -1.4567 C   0  0  0  0  0  0  0  0  0  0  0  0
    2.8586    0.2277   -2.6641 O   0  0  0  0  0  0  0  0  0  0  0  0
    4.5812    0.4314   -1.0558 C   0  0  0  0  0  0  0  0  0  0  0  0
    5.4602   -0.5395   -1.5728 C   0  0  0  0  0  0  0  0  0  0  0  0
    5.0115   -1.4991   -2.4218 F   0  0  0  0  0  0  0  0  0  0  0  0
    6.8069   -0.5409   -1.1952 C   0  0  0  0  0  0  0  0  0  0  0  0
    7.2900    0.4274   -0.3119 C   0  0  0  0  0  0  0  0  0  0  0  0
    6.4284    1.4020    0.1965 C   0  0  0  0  0  0  0  0  0  0  0  0
    5.0791    1.4080   -0.1709 C   0  0  0  0  0  0  0  0  0  0  0  0
    4.2687    2.3839    0.3136 F   0  0  0  0  0  0  0  0  0  0  0  0
    0.8511    1.2881   -0.9377 C   0  0  0  0  0  0  0  0  0  0  0  0
    0.3617    2.3072    0.0608 C   0  0  0  0  0  0  0  0  0  0  0  0
    1.1751    3.1732    0.4809 O   0  0  0  0  0  0  0  0  0  0  0  0
   -0.9964    2.3459    0.5356 N   0  0  0  0  0  0  0  0  0  0  0  0
   -5.3740    4.6393   -1.5392 H   0  0  0  0  0  0  0  0  0  0  0  0
   -5.3475    4.3101    0.2379 H   0  0  0  0  0  0  0  0  0  0  0  0
   -5.8731    3.0289   -0.9232 H   0  0  0  0  0  0  0  0  0  0  0  0
   -3.5923    2.9434   -1.9021 H   0  0  0  0  0  0  0  0  0  0  0  0
   -3.0505    5.3881   -1.4149 H   0  0  0  0  0  0  0  0  0  0  0  0
   -2.7423    4.9366    0.3055 H   0  0  0  0  0  0  0  0  0  0  0  0
   -1.7224    4.2598   -1.0322 H   0  0  0  0  0  0  0  0  0  0  0  0
   -4.2666    1.5126    0.0639 H   0  0  0  0  0  0  0  0  0  0  0  0
   -3.5351    2.6814    1.1934 H   0  0  0  0  0  0  0  0  0  0  0  0
   -1.9352    1.3848   -1.1037 H   0  0  0  0  0  0  0  0  0  0  0  0
   -1.0882   -0.2253    0.7491 H   0  0  0  0  0  0  0  0  0  0  0  0
   -2.5154    0.2898    1.7128 H   0  0  0  0  0  0  0  0  0  0  0  0
   -3.6815   -2.1259   -2.1003 H   0  0  0  0  0  0  0  0  0  0  0  0
   -3.5064   -4.5601   -2.4155 H   0  0  0  0  0  0  0  0  0  0  0  0
   -1.8056   -4.9709    1.4972 H   0  0  0  0  0  0  0  0  0  0  0  0
   -0.3701   -2.0649    3.6809 H   0  0  0  0  0  0  0  0  0  0  0  0
    0.3012   -3.6807    1.1611 H   0  0  0  0  0  0  0  0  0  0  0  0
    0.8654   -4.0471    2.8141 H   0  0  0  0  0  0  0  0  0  0  0  0
    2.7086   -2.9080    1.9232 H   0  0  0  0  0  0  0  0  0  0  0  0
    1.8679   -1.6139    2.8139 H   0  0  0  0  0  0  0  0  0  0  0  0
    0.6728   -1.5154    0.2056 H   0  0  0  0  0  0  0  0  0  0  0  0
    2.3523   -1.9990   -0.1422 H   0  0  0  0  0  0  0  0  0  0  0  0
    3.1778   -0.0271    1.2175 H   0  0  0  0  0  0  0  0  0  0  0  0
    1.4888    0.4460    1.5345 H   0  0  0  0  0  0  0  0  0  0  0  0
    7.4769   -1.2973   -1.5839 H   0  0  0  0  0  0  0  0  0  0  0  0
    8.3332    0.4238   -0.0236 H   0  0  0  0  0  0  0  0  0  0  0  0
    6.8086    2.1568    0.8725 H   0  0  0  0  0  0  0  0  0  0  0  0
    1.0000    1.8213   -1.9009 H   0  0  0  0  0  0  0  0  0  0  0  0
    0.1133    0.4855   -1.1223 H   0  0  0  0  0  0  0  0  0  0  0  0
   -1.2045    3.0004    1.3242 H   0  0  0  0  0  0  0  0  0  0  0  0
  1  2  1  0
  2  3  1  0
  2  4  1  0
  4  5  1  0
  5  6  1  0
  6  7  1  0
  7  8  1  0
  8  9  2  0
  9 10  1  0
 10 11  2  0
 11 12  1  0
 11 13  1  0
 13 14  2  0
 14 15  1  0
 15 16  2  0
 15 17  1  0
 17 18  1  0
 18 19  1  0
 19 20  1  0
 20 21  1  0
 21 22  1  0
 22 23  1  0
 23 24  2  0
 23 25  1  0
 25 26  2  0
 26 27  1  0
 26 28  1  0
 28 29  2  0
 29 30  1  0
 30 31  2  0
 31 32  1  0
 22 33  1  0
 33 34  1  0
 34 35  2  0
 34 36  1  0
 36  5  1  0
 14  8  1  0
 31 25  1  0
  1 37  1  0
  1 38  1  0
  1 39  1  0
  2 40  1  0
  3 41  1  0
  3 42  1  0
  3 43  1  0
  4 44  1  0
  4 45  1  0
  5 46  1  0
  6 47  1  0
  6 48  1  0
  9 49  1  0
 10 50  1  0
 13 51  1  0
 17 52  1  0
 18 53  1  0
 18 54  1  0
 19 55  1  0
 19 56  1  0
 20 57  1  0
 20 58  1  0
 21 59  1  0
 21 60  1  0
 28 61  1  0
 29 62  1  0
 30 63  1  0
 33 64  1  0
 33 65  1  0
 36 66  1  0
M  END
$$$$
