
     RDKit          3D

 60 63  0  0  0  0  0  0  0  0999 V2000
   -2.6612    3.2043    1.7186 C   0  0  0  0  0  0  0  0  0  0  0  0
   -2.8377    2.3651    0.5222 N   0  0  0  0  0  0  0  0  0  0  0  0
   -2.4816    2.9126   -0.8034 C   0  0  0  0  0  0  0  0  0  0  0  0
   -0.9767    3.1847   -0.9593 C   0  0  0  0  0  0  0  0  0  0  0  0
   -0.1204    1.9078   -0.9890 C   0  0  0  0  0  0  0  0  0  0  0  0
    0.4680    1.5613    0.3864 C   0  0  0  0  0  0  0  0  0  0  0  0
    1.1969    0.2844    0.3372 N   0  0  0  0  0  0  0  0  0  0  0  0
    2.3143    0.1375   -0.5658 C   0  0  0  0  0  0  0  0  0  0  0  0
    2.3636   -0.8490   -1.3538 O   0  0  0  0  0  0  0  0  0  0  0  0
    3.4154    1.1584   -0.5941 C   0  0  0  0  0  0  0  0  0  0  0  0
    4.7478    0.4933   -0.4993 C   0  0  0  0  0  0  0  0  0  0  0  0
    5.5416    0.1004   -1.5686 C   0  0  0  0  0  0  0  0  0  0  0  0
    6.6940   -0.5865   -1.1698 C   0  0  0  0  0  0  0  0  0  0  0  0
    6.8048   -0.7431    0.2076 C   0  0  0  0  0  0  0  0  0  0  0  0
    5.4642   -0.0319    0.9296 S   0  0  0  0  0  0  0  0  0  0  0  0
    0.6519   -0.8728    1.0779 C   0  0  0  0  0  0  0  0  0  0  0  0
    1.7465   -1.8529    1.5409 C   0  0  0  0  0  0  0  0  0  0  0  0
    1.1654   -2.9536    2.4509 C   0  0  0  0  0  0  0  0  0  0  0  0
   -0.3208   -3.2599    2.1777 C   0  0  0  0  0  0  0  0  0  0  0  0
   -0.6811   -3.0487    0.7038 C   0  0  0  0  0  0  0  0  0  0  0  0
   -0.4366   -1.5878    0.2414 C   0  0  0  0  0  0  0  0  0  0  0  0
   -1.6370   -0.8228    0.3443 O   0  0  0  0  0  0  0  0  0  0  0  0
   -2.6880   -0.8058   -0.5855 C   0  0  0  0  0  0  0  0  0  0  0  0
   -2.7613   -1.7149   -1.6576 C   0  0  0  0  0  0  0  0  0  0  0  0
   -3.8389   -1.6729   -2.5455 C   0  0  0  0  0  0  0  0  0  0  0  0
   -4.8505   -0.7244   -2.3759 C   0  0  0  0  0  0  0  0  0  0  0  0
   -4.7819    0.1911   -1.3243 C   0  0  0  0  0  0  0  0  0  0  0  0
   -3.6960    0.1628   -0.4364 C   0  0  0  0  0  0  0  0  0  0  0  0
   -3.6183    1.1548    0.6494 C   0  0  0  0  0  0  0  0  0  0  0  0
   -4.2509    0.9240    1.7115 O   0  0  0  0  0  0  0  0  0  0  0  0
   -2.0874    4.1194    1.5006 H   0  0  0  0  0  0  0  0  0  0  0  0
   -2.1275    2.6335    2.4956 H   0  0  0  0  0  0  0  0  0  0  0  0
   -3.6473    3.5162    2.1057 H   0  0  0  0  0  0  0  0  0  0  0  0
   -3.0331    3.8685   -0.9565 H   0  0  0  0  0  0  0  0  0  0  0  0
   -2.8041    2.2410   -1.6265 H   0  0  0  0  0  0  0  0  0  0  0  0
   -0.6055    3.8925   -0.1915 H   0  0  0  0  0  0  0  0  0  0  0  0
   -0.8444    3.7014   -1.9305 H   0  0  0  0  0  0  0  0  0  0  0  0
    0.7206    2.0690   -1.6961 H   0  0  0  0  0  0  0  0  0  0  0  0
   -0.7049    1.0530   -1.3829 H   0  0  0  0  0  0  0  0  0  0  0  0
    1.1439    2.3728    0.7283 H   0  0  0  0  0  0  0  0  0  0  0  0
   -0.3576    1.5042    1.1256 H   0  0  0  0  0  0  0  0  0  0  0  0
    3.3480    1.7474   -1.5269 H   0  0  0  0  0  0  0  0  0  0  0  0
    3.3181    1.8541    0.2606 H   0  0  0  0  0  0  0  0  0  0  0  0
    5.2895    0.2904   -2.6057 H   0  0  0  0  0  0  0  0  0  0  0  0
    7.4260   -0.9729   -1.8686 H   0  0  0  0  0  0  0  0  0  0  0  0
    7.6115   -1.2483    0.7255 H   0  0  0  0  0  0  0  0  0  0  0  0
    0.1788   -0.4946    2.0135 H   0  0  0  0  0  0  0  0  0  0  0  0
    2.5398   -1.2986    2.0859 H   0  0  0  0  0  0  0  0  0  0  0  0
    2.2145   -2.3424    0.6621 H   0  0  0  0  0  0  0  0  0  0  0  0
    1.2788   -2.6491    3.5101 H   0  0  0  0  0  0  0  0  0  0  0  0
    1.7569   -3.8807    2.3107 H   0  0  0  0  0  0  0  0  0  0  0  0
   -0.9587   -2.5970    2.8003 H   0  0  0  0  0  0  0  0  0  0  0  0
   -0.5453   -4.3098    2.4709 H   0  0  0  0  0  0  0  0  0  0  0  0
   -1.7413   -3.3355    0.5459 H   0  0  0  0  0  0  0  0  0  0  0  0
   -0.0630   -3.7355    0.0842 H   0  0  0  0  0  0  0  0  0  0  0  0
   -0.1027   -1.6049   -0.8193 H   0  0  0  0  0  0  0  0  0  0  0  0
   -1.9974   -2.4647   -1.8103 H   0  0  0  0  0  0  0  0  0  0  0  0
   -3.8919   -2.3791   -3.3638 H   0  0  0  0  0  0  0  0  0  0  0  0
   -5.6847   -0.6977   -3.0641 H   0  0  0  0  0  0  0  0  0  0  0  0
   -5.5652    0.9318   -1.2085 H   0  0  0  0  0  0  0  0  0  0  0  0
  1  2  1  0
  2  3  1  0
  3  4  1  0
  4  5  1  0
  5  6  1  0
  6  7  1  0
  7  8  1  0
  8  9  2  0
  8 10  1  0
 10 11  1  0
 11 12  2  0
 12 13  1  0
 13 14  2  0
 14 15  1  0
  7 16  1  0
 16 17  1  0
 17 18  1  0
 18 19  1  0
 19 20  1  0
 20 21  1  0
 21 22  1  0
 22 23  1  0
 23 24  2  0
 24 25  1  0
 25 26  2  0
 26 27  1  0
 27 28  2  0
 28 29  1  0
 29 30  2  0
 29  2  1  0
 15 11  1  0
 21 16  1  0
 28 23  1  0
  1 31  1  0
  1 32  1  0
  1 33  1  0
  3 34  1  0
  3 35  1  0
  4 36  1  0
  4 37  1  0
  5 38  1  0
  5 39  1  0
  6 40  1  0
  6 41  1  0
 10 42  1  0
 10 43  1  0
 12 44  1  0
 13 45  1  0
 14 46  1  0
 16 47  1  0
 17 48  1  0
 17 49  1  0
 18 50  1  0
 18 51  1  0
 19 52  1  0
 19 53  1  0
 20 54  1  0
 20 55  1  0
 21 56  1  0
 24 57  1  0
 25 58  1  0
 26 59  1  0
 27 60  1  0
M  END
$$$$
