
     RDKit          3D

 69 71  0  0  0  0  0  0  0  0999 V2000
    8.4479    3.3539    1.3598 C   0  0  0  0  0  0  0  0  0  0  0  0
    7.4597    2.2319    1.3893 C   0  0  0  0  0  0  0  0  0  0  0  0
    7.2934    1.4029    0.2734 C   0  0  0  0  0  0  0  0  0  0  0  0
    6.3871    0.3429    0.3352 C   0  0  0  0  0  0  0  0  0  0  0  0
    5.6456    0.1178    1.5071 C   0  0  0  0  0  0  0  0  0  0  0  0
    4.7221   -0.9785    1.6209 N   0  0  0  0  0  0  0  0  0  0  0  0
    3.9219   -1.4754    0.5369 C   0  0  0  0  0  0  0  0  0  0  0  0
    3.8325   -0.8220   -0.5380 O   0  0  0  0  0  0  0  0  0  0  0  0
    3.1437   -2.7522    0.7287 C   0  0  0  0  0  0  0  0  0  0  0  0
    2.4280   -3.2568   -0.5369 C   0  0  0  0  0  0  0  0  0  0  0  0
    1.2472   -2.3936   -0.9102 C   0  0  0  0  0  0  0  0  0  0  0  0
    1.2897   -1.5864   -2.0535 C   0  0  0  0  0  0  0  0  0  0  0  0
    0.2021   -0.7808   -2.3899 C   0  0  0  0  0  0  0  0  0  0  0  0
   -0.9552   -0.7645   -1.5871 C   0  0  0  0  0  0  0  0  0  0  0  0
   -1.0114   -1.5883   -0.4407 C   0  0  0  0  0  0  0  0  0  0  0  0
    0.0899   -2.4006   -0.1186 C   0  0  0  0  0  0  0  0  0  0  0  0
   -2.2586   -1.6743    0.4187 C   0  0  0  0  0  0  0  0  0  0  0  0
   -2.8249   -0.3465    0.7697 N   0  0  0  0  0  0  0  0  0  0  0  0
   -1.8675    0.4883    1.5592 C   0  0  0  0  0  0  0  0  0  0  0  0
   -1.8061    0.1362    3.0593 C   0  0  0  0  0  0  0  0  0  0  0  0
   -2.1638    1.9792    1.3619 C   0  0  0  0  0  0  0  0  0  0  0  0
   -4.1455   -0.4976    1.4348 C   0  0  0  0  0  0  0  0  0  0  0  0
   -5.1947   -1.0336    0.4930 C   0  0  0  0  0  0  0  0  0  0  0  0
   -5.5351   -2.2431    0.5965 O   0  0  0  0  0  0  0  0  0  0  0  0
   -5.8097   -0.2285   -0.5243 N   0  0  0  0  0  0  0  0  0  0  0  0
   -5.6252    1.2176   -0.6574 C   0  0  0  0  0  0  0  0  0  0  0  0
   -5.7566    1.6464   -2.1279 C   0  0  0  0  0  0  0  0  0  0  0  0
   -4.6264    1.0802   -3.0048 C   0  0  0  0  0  0  0  0  0  0  0  0
   -3.3180    1.8807   -2.8561 C   0  0  0  0  0  0  0  0  0  0  0  0
   -2.0811    0.9937   -2.9752 C   0  0  0  0  0  0  0  0  0  0  0  0
   -2.0476    0.0629   -1.8934 O   0  0  0  0  0  0  0  0  0  0  0  0
    5.8691    0.9530    2.6103 C   0  0  0  0  0  0  0  0  0  0  0  0
    6.7576    1.9789    2.5270 N   0  0  0  0  0  0  0  0  0  0  0  0
    9.4764    2.9450    1.4496 H   0  0  0  0  0  0  0  0  0  0  0  0
    8.2632    4.0544    2.2020 H   0  0  0  0  0  0  0  0  0  0  0  0
    8.3600    3.9176    0.4062 H   0  0  0  0  0  0  0  0  0  0  0  0
    7.8668    1.5704   -0.6303 H   0  0  0  0  0  0  0  0  0  0  0  0
    6.2902   -0.3129   -0.5196 H   0  0  0  0  0  0  0  0  0  0  0  0
    4.5593   -1.3861    2.5697 H   0  0  0  0  0  0  0  0  0  0  0  0
    2.4083   -2.6086    1.5494 H   0  0  0  0  0  0  0  0  0  0  0  0
    3.8560   -3.5378    1.0600 H   0  0  0  0  0  0  0  0  0  0  0  0
    2.0615   -4.2896   -0.3490 H   0  0  0  0  0  0  0  0  0  0  0  0
    3.1555   -3.3271   -1.3756 H   0  0  0  0  0  0  0  0  0  0  0  0
    2.1686   -1.5766   -2.6861 H   0  0  0  0  0  0  0  0  0  0  0  0
    0.2732   -0.1730   -3.2812 H   0  0  0  0  0  0  0  0  0  0  0  0
    0.0493   -3.0444    0.7522 H   0  0  0  0  0  0  0  0  0  0  0  0
   -2.9921   -2.2575   -0.1756 H   0  0  0  0  0  0  0  0  0  0  0  0
   -2.0628   -2.2611    1.3430 H   0  0  0  0  0  0  0  0  0  0  0  0
   -0.8360    0.3522    1.1685 H   0  0  0  0  0  0  0  0  0  0  0  0
   -1.6220   -0.9479    3.2028 H   0  0  0  0  0  0  0  0  0  0  0  0
   -0.9687    0.6873    3.5383 H   0  0  0  0  0  0  0  0  0  0  0  0
   -2.7432    0.4211    3.5825 H   0  0  0  0  0  0  0  0  0  0  0  0
   -3.1350    2.2676    1.8131 H   0  0  0  0  0  0  0  0  0  0  0  0
   -1.3662    2.5912    1.8357 H   0  0  0  0  0  0  0  0  0  0  0  0
   -2.1819    2.2183    0.2786 H   0  0  0  0  0  0  0  0  0  0  0  0
   -4.0644   -1.1858    2.3063 H   0  0  0  0  0  0  0  0  0  0  0  0
   -4.5089    0.4719    1.8315 H   0  0  0  0  0  0  0  0  0  0  0  0
   -6.5612   -0.6782   -1.0952 H   0  0  0  0  0  0  0  0  0  0  0  0
   -4.6369    1.5294   -0.2677 H   0  0  0  0  0  0  0  0  0  0  0  0
   -6.4074    1.7330   -0.0597 H   0  0  0  0  0  0  0  0  0  0  0  0
   -5.7637    2.7569   -2.1912 H   0  0  0  0  0  0  0  0  0  0  0  0
   -6.7343    1.2920   -2.5211 H   0  0  0  0  0  0  0  0  0  0  0  0
   -4.9447    1.1226   -4.0690 H   0  0  0  0  0  0  0  0  0  0  0  0
   -4.4748    0.0052   -2.7661 H   0  0  0  0  0  0  0  0  0  0  0  0
   -3.2798    2.6614   -3.6464 H   0  0  0  0  0  0  0  0  0  0  0  0
   -3.2711    2.4099   -1.8824 H   0  0  0  0  0  0  0  0  0  0  0  0
   -2.0895    0.4508   -3.9455 H   0  0  0  0  0  0  0  0  0  0  0  0
   -1.1837    1.6494   -2.9305 H   0  0  0  0  0  0  0  0  0  0  0  0
    5.3303    0.7921    3.5352 H   0  0  0  0  0  0  0  0  0  0  0  0
  1  2  1  0
  2  3  2  0
  3  4  1  0
  4  5  2  0
  5  6  1  0
  6  7  1  0
  7  8  2  0
  7  9  1  0
  9 10  1  0
 10 11  1  0
 11 12  2  0
 12 13  1  0
 13 14  2  0
 14 15  1  0
 15 16  2  0
 15 17  1  0
 17 18  1  0
 18 19  1  0
 19 20  1  0
 19 21  1  0
 18 22  1  0
 22 23  1  0
 23 24  2  0
 23 25  1  0
 25 26  1  0
 26 27  1  0
 27 28  1  0
 28 29  1  0
 29 30  1  0
 30 31  1  0
  5 32  1  0
 32 33  2  0
 33  2  1  0
 16 11  1  0
 31 14  1  0
  1 34  1  0
  1 35  1  0
  1 36  1  0
  3 37  1  0
  4 38  1  0
  6 39  1  0
  9 40  1  0
  9 41  1  0
 10 42  1  0
 10 43  1  0
 12 44  1  0
 13 45  1  0
 16 46  1  0
 17 47  1  0
 17 48  1  0
 19 49  1  0
 20 50  1  0
 20 51  1  0
 20 52  1  0
 21 53  1  0
 21 54  1  0
 21 55  1  0
 22 56  1  0
 22 57  1  0
 25 58  1  0
 26 59  1  0
 26 60  1  0
 27 61  1  0
 27 62  1  0
 28 63  1  0
 28 64  1  0
 29 65  1  0
 29 66  1  0
 30 67  1  0
 30 68  1  0
 32 69  1  0
M  END
$$$$
