
     RDKit          3D

 73 75  0  0  0  0  0  0  0  0999 V2000
   -6.2576   -3.2527   -1.5278 C   0  0  0  0  0  0  0  0  0  0  0  0
   -4.8235   -2.7884   -1.2325 C   0  0  0  0  0  0  0  0  0  0  0  0
   -3.8891   -4.0066   -1.1724 C   0  0  0  0  0  0  0  0  0  0  0  0
   -4.7962   -1.9563    0.0744 C   0  0  0  0  0  0  0  0  0  0  0  0
   -3.4600   -1.2138    0.3198 C   0  0  0  0  0  0  0  0  0  0  0  0
   -2.4420   -2.1410    0.8363 N   0  0  0  0  0  0  0  0  0  0  0  0
   -1.0551   -2.1715    0.4483 C   0  0  0  0  0  0  0  0  0  0  0  0
   -0.3795   -3.2030    0.7140 O   0  0  0  0  0  0  0  0  0  0  0  0
   -0.3709   -1.0292   -0.2663 C   0  0  0  0  0  0  0  0  0  0  0  0
    0.7544   -0.3660    0.5520 C   0  0  0  0  0  0  0  0  0  0  0  0
    1.9287   -1.2863    0.7603 C   0  0  0  0  0  0  0  0  0  0  0  0
    2.0563   -1.9236    1.8407 O   0  0  0  0  0  0  0  0  0  0  0  0
    2.8890   -1.4489   -0.2881 N   0  0  0  0  0  0  0  0  0  0  0  0
    4.1242   -2.2103   -0.0923 C   0  0  0  0  0  0  0  0  0  0  0  0
    5.0570   -2.0958   -1.3079 C   0  0  0  0  0  0  0  0  0  0  0  0
    5.5305   -0.6763   -1.5122 C   0  0  0  0  0  0  0  0  0  0  0  0
    4.9602    0.1313   -2.5121 C   0  0  0  0  0  0  0  0  0  0  0  0
    5.3849    1.4539   -2.6801 C   0  0  0  0  0  0  0  0  0  0  0  0
    6.3798    1.9824   -1.8526 C   0  0  0  0  0  0  0  0  0  0  0  0
    6.7883    3.2673   -2.0198 F   0  0  0  0  0  0  0  0  0  0  0  0
    6.9492    1.1879   -0.8527 C   0  0  0  0  0  0  0  0  0  0  0  0
    6.5259   -0.1360   -0.6808 C   0  0  0  0  0  0  0  0  0  0  0  0
    0.2480    0.1369    1.8355 N   0  0  0  0  0  0  0  0  0  0  0  0
    0.6975    1.3622    2.4411 C   0  0  0  0  0  0  0  0  0  0  0  0
    0.6502    1.4750    3.6952 O   0  0  0  0  0  0  0  0  0  0  0  0
    1.2129    2.4983    1.6459 C   0  0  0  0  0  0  0  0  0  0  0  0
    2.4335    3.0791    2.0331 C   0  0  0  0  0  0  0  0  0  0  0  0
    3.0110    4.0970    1.2711 C   0  0  0  0  0  0  0  0  0  0  0  0
    2.3778    4.5446    0.1124 C   0  0  0  0  0  0  0  0  0  0  0  0
    1.1553    3.9929   -0.2747 C   0  0  0  0  0  0  0  0  0  0  0  0
    0.5452    2.9968    0.4957 C   0  0  0  0  0  0  0  0  0  0  0  0
   -0.6981    2.5152    0.0645 O   0  0  0  0  0  0  0  0  0  0  0  0
   -1.8681    2.4937    0.8795 C   0  0  0  0  0  0  0  0  0  0  0  0
   -3.0569    1.9833    0.0558 C   0  0  0  0  0  0  0  0  0  0  0  0
   -3.9926    1.2385    0.9090 N   0  0  0  0  0  0  0  0  0  0  0  0
   -5.0284    1.9734    1.6367 C   0  0  0  0  0  0  0  0  0  0  0  0
   -3.6880   -0.1074    1.3253 C   0  0  0  0  0  0  0  0  0  0  0  0
   -3.7334   -0.3978    2.5527 O   0  0  0  0  0  0  0  0  0  0  0  0
   -6.6347   -3.9078   -0.7123 H   0  0  0  0  0  0  0  0  0  0  0  0
   -6.2901   -3.8153   -2.4860 H   0  0  0  0  0  0  0  0  0  0  0  0
   -6.9336   -2.3766   -1.6250 H   0  0  0  0  0  0  0  0  0  0  0  0
   -4.5042   -2.1417   -2.0800 H   0  0  0  0  0  0  0  0  0  0  0  0
   -2.8290   -3.6858   -1.1847 H   0  0  0  0  0  0  0  0  0  0  0  0
   -4.0858   -4.6091   -0.2593 H   0  0  0  0  0  0  0  0  0  0  0  0
   -4.0359   -4.6533   -2.0638 H   0  0  0  0  0  0  0  0  0  0  0  0
   -5.0459   -2.6028    0.9443 H   0  0  0  0  0  0  0  0  0  0  0  0
   -5.6036   -1.1929    0.0007 H   0  0  0  0  0  0  0  0  0  0  0  0
   -3.1465   -0.7962   -0.6539 H   0  0  0  0  0  0  0  0  0  0  0  0
   -2.7455   -2.8495    1.5444 H   0  0  0  0  0  0  0  0  0  0  0  0
    0.0433   -1.4117   -1.2236 H   0  0  0  0  0  0  0  0  0  0  0  0
   -1.0847   -0.2358   -0.5353 H   0  0  0  0  0  0  0  0  0  0  0  0
    1.1217    0.4808   -0.0622 H   0  0  0  0  0  0  0  0  0  0  0  0
    2.7050   -0.9817   -1.2035 H   0  0  0  0  0  0  0  0  0  0  0  0
    4.6500   -1.8396    0.8144 H   0  0  0  0  0  0  0  0  0  0  0  0
    3.8665   -3.2804    0.0633 H   0  0  0  0  0  0  0  0  0  0  0  0
    5.9380   -2.7557   -1.1503 H   0  0  0  0  0  0  0  0  0  0  0  0
    4.5309   -2.4712   -2.2155 H   0  0  0  0  0  0  0  0  0  0  0  0
    4.1852   -0.2632   -3.1591 H   0  0  0  0  0  0  0  0  0  0  0  0
    4.9418    2.0694   -3.4525 H   0  0  0  0  0  0  0  0  0  0  0  0
    7.7167    1.5981   -0.2058 H   0  0  0  0  0  0  0  0  0  0  0  0
    6.9696   -0.7386    0.1013 H   0  0  0  0  0  0  0  0  0  0  0  0
   -0.2656   -0.5320    2.4531 H   0  0  0  0  0  0  0  0  0  0  0  0
    2.9552    2.7246    2.9138 H   0  0  0  0  0  0  0  0  0  0  0  0
    3.9575    4.5297    1.5733 H   0  0  0  0  0  0  0  0  0  0  0  0
    2.8315    5.3254   -0.4845 H   0  0  0  0  0  0  0  0  0  0  0  0
    0.6666    4.3579   -1.1688 H   0  0  0  0  0  0  0  0  0  0  0  0
   -2.0892    3.5205    1.2469 H   0  0  0  0  0  0  0  0  0  0  0  0
   -1.7156    1.8445    1.7624 H   0  0  0  0  0  0  0  0  0  0  0  0
   -3.5689    2.8489   -0.4190 H   0  0  0  0  0  0  0  0  0  0  0  0
   -2.7119    1.3506   -0.7843 H   0  0  0  0  0  0  0  0  0  0  0  0
   -5.2961    2.9148    1.1128 H   0  0  0  0  0  0  0  0  0  0  0  0
   -5.9463    1.3525    1.7141 H   0  0  0  0  0  0  0  0  0  0  0  0
   -4.6671    2.2240    2.6576 H   0  0  0  0  0  0  0  0  0  0  0  0
  1  2  1  0
  2  3  1  0
  2  4  1  0
  4  5  1  0
  5  6  1  0
  6  7  1  0
  7  8  2  0
  7  9  1  0
  9 10  1  0
 10 11  1  0
 11 12  2  0
 11 13  1  0
 13 14  1  0
 14 15  1  0
 15 16  1  0
 16 17  2  0
 17 18  1  0
 18 19  2  0
 19 20  1  0
 19 21  1  0
 21 22  2  0
 10 23  1  0
 23 24  1  0
 24 25  2  0
 24 26  1  0
 26 27  2  0
 27 28  1  0
 28 29  2  0
 29 30  1  0
 30 31  2  0
 31 32  1  0
 32 33  1  0
 33 34  1  0
 34 35  1  0
 35 36  1  0
 35 37  1  0
 37 38  2  0
 37  5  1  0
 22 16  1  0
 31 26  1  0
  1 39  1  0
  1 40  1  0
  1 41  1  0
  2 42  1  0
  3 43  1  0
  3 44  1  0
  3 45  1  0
  4 46  1  0
  4 47  1  0
  5 48  1  0
  6 49  1  0
  9 50  1  0
  9 51  1  0
 10 52  1  0
 13 53  1  0
 14 54  1  0
 14 55  1  0
 15 56  1  0
 15 57  1  0
 17 58  1  0
 18 59  1  0
 21 60  1  0
 22 61  1  0
 23 62  1  0
 27 63  1  0
 28 64  1  0
 29 65  1  0
 30 66  1  0
 33 67  1  0
 33 68  1  0
 34 69  1  0
 34 70  1  0
 36 71  1  0
 36 72  1  0
 36 73  1  0
M  END
$$$$
