
     RDKit          3D

 82 86  0  0  0  0  0  0  0  0999 V2000
    9.4860   -0.0217   -1.7195 C   0  0  0  0  0  0  0  0  0  0  0  0
    8.8800   -0.1495   -0.3579 C   0  0  0  0  0  0  0  0  0  0  0  0
    7.5618   -0.4455   -0.1855 N   0  0  0  0  0  0  0  0  0  0  0  0
    7.2253   -0.5224    1.1209 C   0  0  0  0  0  0  0  0  0  0  0  0
    5.9104   -0.8395    1.5975 N   0  0  0  0  0  0  0  0  0  0  0  0
    4.7744   -0.9869    0.7352 C   0  0  0  0  0  0  0  0  0  0  0  0
    4.8290   -0.6188   -0.4739 O   0  0  0  0  0  0  0  0  0  0  0  0
    3.4969   -1.5608    1.2704 C   0  0  0  0  0  0  0  0  0  0  0  0
    3.0201   -0.7791    2.4307 N   0  0  0  0  0  0  0  0  0  0  0  0
    2.0553   -1.5130    3.2731 C   0  0  0  0  0  0  0  0  0  0  0  0
    0.6640   -1.5643    2.6392 C   0  0  0  0  0  0  0  0  0  0  0  0
    0.1434   -0.1293    2.4409 C   0  0  0  0  0  0  0  0  0  0  0  0
   -1.2437   -0.0443    1.9346 N   0  0  0  0  0  0  0  0  0  0  0  0
   -1.9427   -1.0174    1.1318 C   0  0  0  0  0  0  0  0  0  0  0  0
   -1.3589   -2.0524    0.7134 O   0  0  0  0  0  0  0  0  0  0  0  0
   -3.3631   -0.7743    0.6882 C   0  0  0  0  0  0  0  0  0  0  0  0
   -4.2714   -0.3653    1.8620 C   0  0  0  0  0  0  0  0  0  0  0  0
   -5.7150   -0.3743    1.4431 C   0  0  0  0  0  0  0  0  0  0  0  0
   -6.3182    0.7970    0.9474 C   0  0  0  0  0  0  0  0  0  0  0  0
   -7.6445    0.7743    0.5004 C   0  0  0  0  0  0  0  0  0  0  0  0
   -8.3781   -0.4168    0.5419 C   0  0  0  0  0  0  0  0  0  0  0  0
   -7.7831   -1.5857    1.0284 C   0  0  0  0  0  0  0  0  0  0  0  0
   -6.4567   -1.5675    1.4784 C   0  0  0  0  0  0  0  0  0  0  0  0
   -3.3716    0.2516   -0.3596 N   0  0  0  0  0  0  0  0  0  0  0  0
   -3.3175   -0.0796   -1.7564 C   0  0  0  0  0  0  0  0  0  0  0  0
   -3.6456   -1.2413   -2.1273 O   0  0  0  0  0  0  0  0  0  0  0  0
   -2.9655    0.9834   -2.8028 C   0  0  0  0  0  0  0  0  0  0  0  0
   -1.7537    1.8455   -2.3301 C   0  0  0  0  0  0  0  0  0  0  0  0
   -0.6141    1.0193   -1.7746 C   0  0  0  0  0  0  0  0  0  0  0  0
   -0.1002    1.2908   -0.5654 C   0  0  0  0  0  0  0  0  0  0  0  0
    0.9950    0.4556    0.0509 C   0  0  0  0  0  0  0  0  0  0  0  0
    1.1219    0.7150    1.5817 C   0  0  0  0  0  0  0  0  0  0  0  0
    2.5757    0.5978    2.1114 C   0  0  0  0  0  0  0  0  0  0  0  0
   -4.1904    1.9125   -2.9822 C   0  0  0  0  0  0  0  0  0  0  0  0
   -5.3868    1.1900   -3.6510 C   0  0  0  0  0  0  0  0  0  0  0  0
   -5.0357   -0.0259   -4.2928 O   0  0  0  0  0  0  0  0  0  0  0  0
   -3.8725    0.1536   -5.0758 C   0  0  0  0  0  0  0  0  0  0  0  0
   -2.6275    0.3254   -4.1810 C   0  0  0  0  0  0  0  0  0  0  0  0
    8.5443   -0.2259    2.1230 S   0  0  0  0  0  0  0  0  0  0  0  0
    9.5983    0.0177    0.8287 C   0  0  0  0  0  0  0  0  0  0  0  0
   11.0689    0.2675    0.9541 C   0  0  0  0  0  0  0  0  0  0  0  0
   10.3187   -0.7547   -1.8286 H   0  0  0  0  0  0  0  0  0  0  0  0
    9.8796    1.0053   -1.8608 H   0  0  0  0  0  0  0  0  0  0  0  0
    8.7183   -0.2191   -2.4942 H   0  0  0  0  0  0  0  0  0  0  0  0
    5.7848   -0.9833    2.6269 H   0  0  0  0  0  0  0  0  0  0  0  0
    2.7302   -1.6169    0.4724 H   0  0  0  0  0  0  0  0  0  0  0  0
    3.7243   -2.6078    1.5773 H   0  0  0  0  0  0  0  0  0  0  0  0
    2.4142   -2.5455    3.4628 H   0  0  0  0  0  0  0  0  0  0  0  0
    1.9957   -1.0252    4.2678 H   0  0  0  0  0  0  0  0  0  0  0  0
    0.7577   -2.1066    1.6822 H   0  0  0  0  0  0  0  0  0  0  0  0
   -0.0272   -2.1293    3.3019 H   0  0  0  0  0  0  0  0  0  0  0  0
    0.1286    0.3341    3.4575 H   0  0  0  0  0  0  0  0  0  0  0  0
   -1.6943    0.8846    2.0531 H   0  0  0  0  0  0  0  0  0  0  0  0
   -3.7640   -1.7322    0.2865 H   0  0  0  0  0  0  0  0  0  0  0  0
   -4.1292   -1.0798    2.7021 H   0  0  0  0  0  0  0  0  0  0  0  0
   -3.9948    0.6422    2.2407 H   0  0  0  0  0  0  0  0  0  0  0  0
   -5.7544    1.7216    0.8910 H   0  0  0  0  0  0  0  0  0  0  0  0
   -8.1015    1.6766    0.1192 H   0  0  0  0  0  0  0  0  0  0  0  0
   -9.4042   -0.4309    0.2027 H   0  0  0  0  0  0  0  0  0  0  0  0
   -8.3475   -2.5069    1.0493 H   0  0  0  0  0  0  0  0  0  0  0  0
   -6.0023   -2.4820    1.8331 H   0  0  0  0  0  0  0  0  0  0  0  0
   -3.3042    1.2513   -0.0674 H   0  0  0  0  0  0  0  0  0  0  0  0
   -1.3583    2.4556   -3.1701 H   0  0  0  0  0  0  0  0  0  0  0  0
   -2.0976    2.5839   -1.5720 H   0  0  0  0  0  0  0  0  0  0  0  0
   -0.2093    0.2006   -2.3625 H   0  0  0  0  0  0  0  0  0  0  0  0
   -0.5187    2.1136    0.0110 H   0  0  0  0  0  0  0  0  0  0  0  0
    0.7811   -0.6152   -0.1423 H   0  0  0  0  0  0  0  0  0  0  0  0
    1.9411    0.7090   -0.4682 H   0  0  0  0  0  0  0  0  0  0  0  0
    0.8609    1.7820    1.7583 H   0  0  0  0  0  0  0  0  0  0  0  0
    2.6483    1.1928    3.0505 H   0  0  0  0  0  0  0  0  0  0  0  0
    3.2823    1.0921    1.4101 H   0  0  0  0  0  0  0  0  0  0  0  0
   -4.5145    2.3401   -2.0041 H   0  0  0  0  0  0  0  0  0  0  0  0
   -3.9044    2.7719   -3.6290 H   0  0  0  0  0  0  0  0  0  0  0  0
   -5.8797    1.8694   -4.3846 H   0  0  0  0  0  0  0  0  0  0  0  0
   -6.1391    0.9569   -2.8643 H   0  0  0  0  0  0  0  0  0  0  0  0
   -3.7394   -0.7362   -5.7232 H   0  0  0  0  0  0  0  0  0  0  0  0
   -3.9820    1.0272   -5.7623 H   0  0  0  0  0  0  0  0  0  0  0  0
   -2.1270   -0.6609   -4.0371 H   0  0  0  0  0  0  0  0  0  0  0  0
   -1.8992    0.9423   -4.7502 H   0  0  0  0  0  0  0  0  0  0  0  0
   11.6195   -0.6769    0.7657 H   0  0  0  0  0  0  0  0  0  0  0  0
   11.3922    1.0268    0.2152 H   0  0  0  0  0  0  0  0  0  0  0  0
   11.3209    0.6339    1.9734 H   0  0  0  0  0  0  0  0  0  0  0  0
  1  2  1  0
  2  3  1  0
  3  4  2  0
  4  5  1  0
  5  6  1  0
  6  7  2  0
  6  8  1  0
  8  9  1  0
  9 10  1  0
 10 11  1  0
 11 12  1  0
 12 13  1  0
 13 14  1  0
 14 15  2  0
 14 16  1  0
 16 17  1  0
 17 18  1  0
 18 19  2  0
 19 20  1  0
 20 21  2  0
 21 22  1  0
 22 23  2  0
 16 24  1  0
 24 25  1  0
 25 26  2  0
 25 27  1  0
 27 28  1  0
 28 29  1  0
 29 30  2  0
 30 31  1  0
 31 32  1  0
 32 33  1  0
 27 34  1  0
 34 35  1  0
 35 36  1  0
 36 37  1  0
 37 38  1  0
  4 39  1  0
 39 40  1  0
 40 41  1  0
 40  2  2  0
 33  9  1  0
 32 12  1  0
 23 18  1  0
 38 27  1  0
  1 42  1  0
  1 43  1  0
  1 44  1  0
  5 45  1  0
  8 46  1  0
  8 47  1  0
 10 48  1  0
 10 49  1  0
 11 50  1  0
 11 51  1  0
 12 52  1  0
 13 53  1  0
 16 54  1  0
 17 55  1  0
 17 56  1  0
 19 57  1  0
 20 58  1  0
 21 59  1  0
 22 60  1  0
 23 61  1  0
 24 62  1  0
 28 63  1  0
 28 64  1  0
 29 65  1  0
 30 66  1  0
 31 67  1  0
 31 68  1  0
 32 69  1  0
 33 70  1  0
 33 71  1  0
 34 72  1  0
 34 73  1  0
 35 74  1  0
 35 75  1  0
 37 76  1  0
 37 77  1  0
 38 78  1  0
 38 79  1  0
 41 80  1  0
 41 81  1  0
 41 82  1  0
M  END
$$$$
