
     RDKit          3D

 74 78  0  0  0  0  0  0  0  0999 V2000
   -4.2222    3.6786    3.5229 C   0  0  0  0  0  0  0  0  0  0  0  0
   -4.1454    2.5364    2.6995 O   0  0  0  0  0  0  0  0  0  0  0  0
   -2.7889    2.1675    2.5331 C   0  0  0  0  0  0  0  0  0  0  0  0
   -2.6677    0.8309    1.7443 C   0  0  0  0  0  0  0  0  0  0  0  0
   -1.1566    0.4112    1.6831 C   0  0  0  0  0  0  0  0  0  0  0  0
   -0.2206    1.3427    0.8835 C   0  0  0  0  0  0  0  0  0  0  0  0
    1.2152    0.7569    0.8122 C   0  0  0  0  0  0  0  0  0  0  0  0
    1.8268    0.7667   -0.6047 C   0  0  0  0  0  0  0  0  0  0  0  0
    2.1829   -0.5991   -1.0355 N   0  0  0  0  0  0  0  0  0  0  0  0
    3.2437   -1.3356   -0.3981 C   0  0  0  0  0  0  0  0  0  0  0  0
    2.9868   -2.4660    0.0999 O   0  0  0  0  0  0  0  0  0  0  0  0
    4.6527   -0.7853   -0.2714 C   0  0  0  0  0  0  0  0  0  0  0  0
    5.0712    0.1450   -1.4419 C   0  0  0  0  0  0  0  0  0  0  0  0
    5.4698    1.4033   -0.7717 C   0  0  0  0  0  0  0  0  0  0  0  0
    5.8392    2.5925   -1.4042 C   0  0  0  0  0  0  0  0  0  0  0  0
    6.0829    3.7257   -0.6171 C   0  0  0  0  0  0  0  0  0  0  0  0
    5.9617    3.6565    0.7824 C   0  0  0  0  0  0  0  0  0  0  0  0
    5.5848    2.4532    1.3976 C   0  0  0  0  0  0  0  0  0  0  0  0
    5.3357    1.3367    0.5915 C   0  0  0  0  0  0  0  0  0  0  0  0
    4.8546    0.0059    1.0442 C   0  0  0  0  0  0  0  0  0  0  0  0
    1.4290   -1.2410   -2.1163 C   0  0  0  0  0  0  0  0  0  0  0  0
    0.1066   -1.8118   -1.6148 C   0  0  0  0  0  0  0  0  0  0  0  0
   -0.6825   -2.1722   -2.7510 O   0  0  0  0  0  0  0  0  0  0  0  0
   -1.9276   -2.8306   -2.7679 C   0  0  0  0  0  0  0  0  0  0  0  0
   -2.3670   -3.2707   -4.0268 C   0  0  0  0  0  0  0  0  0  0  0  0
   -3.5829   -3.9404   -4.1793 C   0  0  0  0  0  0  0  0  0  0  0  0
   -4.3997   -4.1588   -3.0737 C   0  0  0  0  0  0  0  0  0  0  0  0
   -3.9953   -3.7193   -1.8145 C   0  0  0  0  0  0  0  0  0  0  0  0
   -2.7648   -3.0602   -1.6378 C   0  0  0  0  0  0  0  0  0  0  0  0
   -2.4489   -2.6304   -0.2674 C   0  0  0  0  0  0  0  0  0  0  0  0
   -1.6794   -3.3407    0.4375 O   0  0  0  0  0  0  0  0  0  0  0  0
   -3.1116   -1.4895    0.3127 N   0  0  0  0  0  0  0  0  0  0  0  0
   -3.6610   -1.5803    1.6752 C   0  0  0  0  0  0  0  0  0  0  0  0
   -3.4509   -0.2836    2.4994 C   0  0  0  0  0  0  0  0  0  0  0  0
   -3.3307   -0.2856   -0.5035 C   0  0  0  0  0  0  0  0  0  0  0  0
   -3.3312    1.0004    0.3453 C   0  0  0  0  0  0  0  0  0  0  0  0
   -3.8153    3.4668    4.5376 H   0  0  0  0  0  0  0  0  0  0  0  0
   -5.2918    3.9615    3.6367 H   0  0  0  0  0  0  0  0  0  0  0  0
   -3.6880    4.5450    3.0572 H   0  0  0  0  0  0  0  0  0  0  0  0
   -2.2609    2.9707    1.9693 H   0  0  0  0  0  0  0  0  0  0  0  0
   -2.2937    2.0356    3.5251 H   0  0  0  0  0  0  0  0  0  0  0  0
   -0.7637    0.3466    2.7226 H   0  0  0  0  0  0  0  0  0  0  0  0
   -1.0571   -0.6063    1.2638 H   0  0  0  0  0  0  0  0  0  0  0  0
   -0.6414    1.5240   -0.1307 H   0  0  0  0  0  0  0  0  0  0  0  0
   -0.1567    2.3290    1.3992 H   0  0  0  0  0  0  0  0  0  0  0  0
    1.8710    1.3572    1.4856 H   0  0  0  0  0  0  0  0  0  0  0  0
    1.2440   -0.2818    1.2274 H   0  0  0  0  0  0  0  0  0  0  0  0
    2.7286    1.4162   -0.6105 H   0  0  0  0  0  0  0  0  0  0  0  0
    1.1386    1.2300   -1.3477 H   0  0  0  0  0  0  0  0  0  0  0  0
    5.3548   -1.6511   -0.2758 H   0  0  0  0  0  0  0  0  0  0  0  0
    5.9394   -0.2742   -1.9936 H   0  0  0  0  0  0  0  0  0  0  0  0
    4.2506    0.3562   -2.1593 H   0  0  0  0  0  0  0  0  0  0  0  0
    5.9200    2.6490   -2.4822 H   0  0  0  0  0  0  0  0  0  0  0  0
    6.3451    4.6593   -1.0855 H   0  0  0  0  0  0  0  0  0  0  0  0
    6.1402    4.5388    1.3878 H   0  0  0  0  0  0  0  0  0  0  0  0
    5.4659    2.4030    2.4724 H   0  0  0  0  0  0  0  0  0  0  0  0
    3.9084    0.1094    1.6256 H   0  0  0  0  0  0  0  0  0  0  0  0
    5.6322   -0.4942    1.6768 H   0  0  0  0  0  0  0  0  0  0  0  0
    2.0308   -2.0589   -2.5673 H   0  0  0  0  0  0  0  0  0  0  0  0
    1.2336   -0.4967   -2.9186 H   0  0  0  0  0  0  0  0  0  0  0  0
    0.3177   -2.7099   -0.9960 H   0  0  0  0  0  0  0  0  0  0  0  0
   -0.4182   -1.0429   -1.0115 H   0  0  0  0  0  0  0  0  0  0  0  0
   -1.7549   -3.0929   -4.9003 H   0  0  0  0  0  0  0  0  0  0  0  0
   -3.8934   -4.2880   -5.1547 H   0  0  0  0  0  0  0  0  0  0  0  0
   -5.3419   -4.6872   -3.1847 H   0  0  0  0  0  0  0  0  0  0  0  0
   -4.6390   -3.9051   -0.9652 H   0  0  0  0  0  0  0  0  0  0  0  0
   -4.7487   -1.8023    1.6048 H   0  0  0  0  0  0  0  0  0  0  0  0
   -3.2002   -2.4318    2.2240 H   0  0  0  0  0  0  0  0  0  0  0  0
   -2.9343   -0.5325    3.4549 H   0  0  0  0  0  0  0  0  0  0  0  0
   -4.4535    0.0961    2.7982 H   0  0  0  0  0  0  0  0  0  0  0  0
   -2.5256   -0.1989   -1.2623 H   0  0  0  0  0  0  0  0  0  0  0  0
   -4.2918   -0.3788   -1.0539 H   0  0  0  0  0  0  0  0  0  0  0  0
   -2.8655    1.8323   -0.2244 H   0  0  0  0  0  0  0  0  0  0  0  0
   -4.3937    1.2975    0.4886 H   0  0  0  0  0  0  0  0  0  0  0  0
  1  2  1  0
  2  3  1  0
  3  4  1  0
  4  5  1  0
  5  6  1  0
  6  7  1  0
  7  8  1  0
  8  9  1  0
  9 10  1  0
 10 11  2  0
 10 12  1  0
 12 13  1  0
 13 14  1  0
 14 15  2  0
 15 16  1  0
 16 17  2  0
 17 18  1  0
 18 19  2  0
 19 20  1  0
  9 21  1  0
 21 22  1  0
 22 23  1  0
 23 24  1  0
 24 25  2  0
 25 26  1  0
 26 27  2  0
 27 28  1  0
 28 29  2  0
 29 30  1  0
 30 31  2  0
 30 32  1  0
 32 33  1  0
 33 34  1  0
 32 35  1  0
 35 36  1  0
 34  4  1  0
 36  4  1  0
 20 12  1  0
 29 24  1  0
 19 14  1  0
  1 37  1  0
  1 38  1  0
  1 39  1  0
  3 40  1  0
  3 41  1  0
  5 42  1  0
  5 43  1  0
  6 44  1  0
  6 45  1  0
  7 46  1  0
  7 47  1  0
  8 48  1  0
  8 49  1  0
 12 50  1  0
 13 51  1  0
 13 52  1  0
 15 53  1  0
 16 54  1  0
 17 55  1  0
 18 56  1  0
 20 57  1  0
 20 58  1  0
 21 59  1  0
 21 60  1  0
 22 61  1  0
 22 62  1  0
 25 63  1  0
 26 64  1  0
 27 65  1  0
 28 66  1  0
 33 67  1  0
 33 68  1  0
 34 69  1  0
 34 70  1  0
 35 71  1  0
 35 72  1  0
 36 73  1  0
 36 74  1  0
M  END
$$$$
