
     RDKit          3D

 67 70  0  0  0  0  0  0  0  0999 V2000
    3.7214    1.6830   -4.6378 C   0  0  0  0  0  0  0  0  0  0  0  0
    4.5364    1.5006   -3.4875 O   0  0  0  0  0  0  0  0  0  0  0  0
    4.1877    0.6328   -2.4485 C   0  0  0  0  0  0  0  0  0  0  0  0
    4.9773    0.5868   -1.2972 C   0  0  0  0  0  0  0  0  0  0  0  0
    4.6023   -0.2458   -0.2406 C   0  0  0  0  0  0  0  0  0  0  0  0
    3.4368   -1.0223   -0.3366 C   0  0  0  0  0  0  0  0  0  0  0  0
    2.9747   -1.8096    0.8233 C   0  0  0  0  0  0  0  0  0  0  0  0
    3.8270   -2.4210    1.5239 O   0  0  0  0  0  0  0  0  0  0  0  0
    1.5836   -1.8541    1.2078 N   0  0  0  0  0  0  0  0  0  0  0  0
    1.0282   -3.2229    1.3357 C   0  0  0  0  0  0  0  0  0  0  0  0
   -0.4737   -3.3668    0.9929 C   0  0  0  0  0  0  0  0  0  0  0  0
   -0.7834   -3.2750   -0.5204 C   0  0  0  0  0  0  0  0  0  0  0  0
   -2.1066   -2.5481   -0.9182 C   0  0  0  0  0  0  0  0  0  0  0  0
   -2.1460   -0.9841   -0.7393 C   0  0  0  0  0  0  0  0  0  0  0  0
   -2.4921   -0.6278    0.7459 C   0  0  0  0  0  0  0  0  0  0  0  0
   -3.6031   -1.3579    1.2054 O   0  0  0  0  0  0  0  0  0  0  0  0
   -3.2494   -0.3422   -1.6333 C   0  0  0  0  0  0  0  0  0  0  0  0
   -3.2736    1.2111   -1.5026 C   0  0  0  0  0  0  0  0  0  0  0  0
   -1.9607    1.7251   -1.0764 N   0  0  0  0  0  0  0  0  0  0  0  0
   -0.7752    1.0814   -1.6156 C   0  0  0  0  0  0  0  0  0  0  0  0
   -0.7729   -0.4026   -1.2217 C   0  0  0  0  0  0  0  0  0  0  0  0
   -1.8420    2.9175   -0.2866 C   0  0  0  0  0  0  0  0  0  0  0  0
   -1.9503    4.0337   -0.8593 O   0  0  0  0  0  0  0  0  0  0  0  0
   -1.7177    2.8708    1.2000 C   0  0  0  0  0  0  0  0  0  0  0  0
   -2.5364    3.7420    1.9429 C   0  0  0  0  0  0  0  0  0  0  0  0
   -2.4951    3.7516    3.3375 C   0  0  0  0  0  0  0  0  0  0  0  0
   -1.6373    2.8915    4.0173 C   0  0  0  0  0  0  0  0  0  0  0  0
   -0.8026    2.0299    3.3060 C   0  0  0  0  0  0  0  0  0  0  0  0
   -0.8095    2.0197    1.8968 C   0  0  0  0  0  0  0  0  0  0  0  0
    0.0722    1.1862    1.1868 O   0  0  0  0  0  0  0  0  0  0  0  0
    1.3022    0.6414    1.6904 C   0  0  0  0  0  0  0  0  0  0  0  0
    1.1679   -0.8246    2.1940 C   0  0  0  0  0  0  0  0  0  0  0  0
    2.6995   -0.9780   -1.5256 C   0  0  0  0  0  0  0  0  0  0  0  0
    3.0812   -0.1577   -2.5395 N   0  0  0  0  0  0  0  0  0  0  0  0
    2.7139    2.0403   -4.3350 H   0  0  0  0  0  0  0  0  0  0  0  0
    3.6304    0.7253   -5.1942 H   0  0  0  0  0  0  0  0  0  0  0  0
    4.1898    2.4405   -5.2999 H   0  0  0  0  0  0  0  0  0  0  0  0
    5.8579    1.2113   -1.2106 H   0  0  0  0  0  0  0  0  0  0  0  0
    5.1950   -0.2510    0.6669 H   0  0  0  0  0  0  0  0  0  0  0  0
    1.1883   -3.5735    2.3788 H   0  0  0  0  0  0  0  0  0  0  0  0
    1.5864   -3.9265    0.6758 H   0  0  0  0  0  0  0  0  0  0  0  0
   -1.0819   -2.7127    1.6197 H   0  0  0  0  0  0  0  0  0  0  0  0
   -0.7819   -4.3829    1.3219 H   0  0  0  0  0  0  0  0  0  0  0  0
   -0.8607   -4.3146   -0.9069 H   0  0  0  0  0  0  0  0  0  0  0  0
    0.0786   -2.8618   -1.0688 H   0  0  0  0  0  0  0  0  0  0  0  0
   -2.9579   -3.0401   -0.4019 H   0  0  0  0  0  0  0  0  0  0  0  0
   -2.2611   -2.7668   -1.9985 H   0  0  0  0  0  0  0  0  0  0  0  0
   -2.7607    0.4307    0.8732 H   0  0  0  0  0  0  0  0  0  0  0  0
   -1.6230   -0.7347    1.4044 H   0  0  0  0  0  0  0  0  0  0  0  0
   -3.2948   -1.9350    1.9531 H   0  0  0  0  0  0  0  0  0  0  0  0
   -4.2496   -0.7538   -1.3753 H   0  0  0  0  0  0  0  0  0  0  0  0
   -3.0554   -0.6029   -2.6979 H   0  0  0  0  0  0  0  0  0  0  0  0
   -4.0499    1.5060   -0.7629 H   0  0  0  0  0  0  0  0  0  0  0  0
   -3.5505    1.6665   -2.4778 H   0  0  0  0  0  0  0  0  0  0  0  0
    0.1562    1.5807   -1.2670 H   0  0  0  0  0  0  0  0  0  0  0  0
   -0.7940    1.1765   -2.7243 H   0  0  0  0  0  0  0  0  0  0  0  0
   -0.4500   -0.9499   -2.1355 H   0  0  0  0  0  0  0  0  0  0  0  0
   -0.0030   -0.5866   -0.4554 H   0  0  0  0  0  0  0  0  0  0  0  0
   -3.2281    4.4074    1.4404 H   0  0  0  0  0  0  0  0  0  0  0  0
   -3.1383    4.4227    3.8920 H   0  0  0  0  0  0  0  0  0  0  0  0
   -1.6174    2.8900    5.0998 H   0  0  0  0  0  0  0  0  0  0  0  0
   -0.1576    1.3654    3.8636 H   0  0  0  0  0  0  0  0  0  0  0  0
    2.0495    0.7206    0.8849 H   0  0  0  0  0  0  0  0  0  0  0  0
    1.6994    1.2849    2.5053 H   0  0  0  0  0  0  0  0  0  0  0  0
    1.8204   -0.9311    3.0898 H   0  0  0  0  0  0  0  0  0  0  0  0
    0.1481   -1.0119    2.5746 H   0  0  0  0  0  0  0  0  0  0  0  0
    1.8309   -1.5976   -1.6519 H   0  0  0  0  0  0  0  0  0  0  0  0
  1  2  1  0
  2  3  1  0
  3  4  2  0
  4  5  1  0
  5  6  2  0
  6  7  1  0
  7  8  2  0
  7  9  1  0
  9 10  1  0
 10 11  1  0
 11 12  1  0
 12 13  1  0
 13 14  1  0
 14 15  1  0
 15 16  1  0
 14 17  1  0
 17 18  1  0
 18 19  1  0
 19 20  1  0
 20 21  1  0
 19 22  1  0
 22 23  2  0
 22 24  1  0
 24 25  2  0
 25 26  1  0
 26 27  2  0
 27 28  1  0
 28 29  2  0
 29 30  1  0
 30 31  1  0
 31 32  1  0
  6 33  1  0
 33 34  2  0
 34  3  1  0
 32  9  1  0
 21 14  1  0
 29 24  1  0
  1 35  1  0
  1 36  1  0
  1 37  1  0
  4 38  1  0
  5 39  1  0
 10 40  1  0
 10 41  1  0
 11 42  1  0
 11 43  1  0
 12 44  1  0
 12 45  1  0
 13 46  1  0
 13 47  1  0
 15 48  1  0
 15 49  1  0
 16 50  1  0
 17 51  1  0
 17 52  1  0
 18 53  1  0
 18 54  1  0
 20 55  1  0
 20 56  1  0
 21 57  1  0
 21 58  1  0
 25 59  1  0
 26 60  1  0
 27 61  1  0
 28 62  1  0
 31 63  1  0
 31 64  1  0
 32 65  1  0
 32 66  1  0
 33 67  1  0
M  END
$$$$
