
     RDKit          3D

 93 95  0  0  0  0  0  0  0  0999 V2000
    7.2241    1.9318   -3.4405 C   0  0  0  0  0  0  0  0  0  0  0  0
    7.6782    1.4050   -2.1966 O   0  0  0  0  0  0  0  0  0  0  0  0
    6.8453    0.8282   -1.2240 C   0  0  0  0  0  0  0  0  0  0  0  0
    5.4469    0.7565   -1.3842 C   0  0  0  0  0  0  0  0  0  0  0  0
    4.6521    0.1749   -0.3942 C   0  0  0  0  0  0  0  0  0  0  0  0
    5.2362   -0.3406    0.7699 C   0  0  0  0  0  0  0  0  0  0  0  0
    4.3857   -1.0306    1.8024 C   0  0  0  0  0  0  0  0  0  0  0  0
    4.2694   -2.5272    1.4826 C   0  0  0  0  0  0  0  0  0  0  0  0
    3.4433   -3.2805    2.5334 C   0  0  0  0  0  0  0  0  0  0  0  0
    2.0788   -2.7606    2.6073 N   0  0  0  0  0  0  0  0  0  0  0  0
    1.1273   -2.9371    1.5474 C   0  0  0  0  0  0  0  0  0  0  0  0
    1.3628   -3.7676    0.6261 O   0  0  0  0  0  0  0  0  0  0  0  0
   -0.1508   -2.1314    1.5528 C   0  0  0  0  0  0  0  0  0  0  0  0
    0.1513   -0.6223    1.4561 C   0  0  0  0  0  0  0  0  0  0  0  0
   -1.1168    0.2326    1.5991 C   0  0  0  0  0  0  0  0  0  0  0  0
   -0.8634    1.6603    1.1824 C   0  0  0  0  0  0  0  0  0  0  0  0
    0.2207    2.2145    1.5116 O   0  0  0  0  0  0  0  0  0  0  0  0
   -1.8237    2.4161    0.4241 N   0  0  0  0  0  0  0  0  0  0  0  0
   -3.2773    2.2498    0.5382 C   0  0  0  0  0  0  0  0  0  0  0  0
   -3.8112    3.2363    1.6081 C   0  0  0  0  0  0  0  0  0  0  0  0
   -5.2402    2.9621    2.1443 C   0  0  0  0  0  0  0  0  0  0  0  0
   -6.3358    3.2058    1.1004 C   0  0  0  0  0  0  0  0  0  0  0  0
   -5.3861    1.5694    2.7735 C   0  0  0  0  0  0  0  0  0  0  0  0
   -3.8973    2.4895   -0.8264 C   0  0  0  0  0  0  0  0  0  0  0  0
   -3.9533    3.6750   -1.2556 O   0  0  0  0  0  0  0  0  0  0  0  0
   -4.3422    1.4309   -1.7028 N   0  0  0  0  0  0  0  0  0  0  0  0
   -4.3948   -0.0086   -1.3957 C   0  0  0  0  0  0  0  0  0  0  0  0
   -5.7028   -0.6244   -1.9835 C   0  0  0  0  0  0  0  0  0  0  0  0
   -5.8404   -2.1219   -1.6483 C   0  0  0  0  0  0  0  0  0  0  0  0
   -6.9415    0.1184   -1.4581 C   0  0  0  0  0  0  0  0  0  0  0  0
   -3.1314   -0.6874   -1.9641 C   0  0  0  0  0  0  0  0  0  0  0  0
   -1.9640   -0.0188   -1.4934 O   0  0  0  0  0  0  0  0  0  0  0  0
   -0.6620   -0.3685   -1.8703 C   0  0  0  0  0  0  0  0  0  0  0  0
    0.1306    0.6158   -2.4731 C   0  0  0  0  0  0  0  0  0  0  0  0
    1.4317    0.3252   -2.8876 C   0  0  0  0  0  0  0  0  0  0  0  0
    1.9525   -0.9569   -2.7071 C   0  0  0  0  0  0  0  0  0  0  0  0
    1.1837   -1.9423   -2.0855 C   0  0  0  0  0  0  0  0  0  0  0  0
   -0.1126   -1.6524   -1.6327 C   0  0  0  0  0  0  0  0  0  0  0  0
   -0.8451   -2.6896   -0.8887 C   0  0  0  0  0  0  0  0  0  0  0  0
   -1.2692   -3.6942   -1.5198 O   0  0  0  0  0  0  0  0  0  0  0  0
   -1.1040   -2.5918    0.5246 N   0  0  0  0  0  0  0  0  0  0  0  0
    6.6291   -0.2790    0.9305 C   0  0  0  0  0  0  0  0  0  0  0  0
    7.4393    0.3077   -0.0618 C   0  0  0  0  0  0  0  0  0  0  0  0
    8.8364    0.3876    0.0665 O   0  0  0  0  0  0  0  0  0  0  0  0
    9.5748   -0.0970    1.1858 C   0  0  0  0  0  0  0  0  0  0  0  0
    6.7192    1.1389   -4.0357 H   0  0  0  0  0  0  0  0  0  0  0  0
    8.0972    2.3072   -4.0150 H   0  0  0  0  0  0  0  0  0  0  0  0
    6.5275    2.7780   -3.2648 H   0  0  0  0  0  0  0  0  0  0  0  0
    4.9643    1.1455   -2.2704 H   0  0  0  0  0  0  0  0  0  0  0  0
    3.5794    0.1199   -0.5358 H   0  0  0  0  0  0  0  0  0  0  0  0
    3.3755   -0.5661    1.8208 H   0  0  0  0  0  0  0  0  0  0  0  0
    4.8295   -0.8937    2.8123 H   0  0  0  0  0  0  0  0  0  0  0  0
    3.8104   -2.6601    0.4780 H   0  0  0  0  0  0  0  0  0  0  0  0
    5.2890   -2.9731    1.4516 H   0  0  0  0  0  0  0  0  0  0  0  0
    3.9332   -3.1800    3.5267 H   0  0  0  0  0  0  0  0  0  0  0  0
    3.4170   -4.3631    2.2813 H   0  0  0  0  0  0  0  0  0  0  0  0
    1.7947   -2.2365    3.4663 H   0  0  0  0  0  0  0  0  0  0  0  0
   -0.6187   -2.3056    2.5477 H   0  0  0  0  0  0  0  0  0  0  0  0
    0.8467   -0.3348    2.2772 H   0  0  0  0  0  0  0  0  0  0  0  0
    0.6776   -0.3916    0.5082 H   0  0  0  0  0  0  0  0  0  0  0  0
   -1.4624    0.2206    2.6543 H   0  0  0  0  0  0  0  0  0  0  0  0
   -1.9149   -0.2112    0.9797 H   0  0  0  0  0  0  0  0  0  0  0  0
   -1.4766    3.2942   -0.0254 H   0  0  0  0  0  0  0  0  0  0  0  0
   -3.4979    1.2409    0.8960 H   0  0  0  0  0  0  0  0  0  0  0  0
   -3.1245    3.1970    2.4833 H   0  0  0  0  0  0  0  0  0  0  0  0
   -3.7517    4.2806    1.2286 H   0  0  0  0  0  0  0  0  0  0  0  0
   -5.4127    3.7017    2.9598 H   0  0  0  0  0  0  0  0  0  0  0  0
   -6.2240    4.2140    0.6528 H   0  0  0  0  0  0  0  0  0  0  0  0
   -6.3042    2.4412    0.2995 H   0  0  0  0  0  0  0  0  0  0  0  0
   -7.3325    3.1534    1.5833 H   0  0  0  0  0  0  0  0  0  0  0  0
   -4.5338    1.3597    3.4525 H   0  0  0  0  0  0  0  0  0  0  0  0
   -6.3209    1.5229    3.3688 H   0  0  0  0  0  0  0  0  0  0  0  0
   -5.4379    0.7771    1.9963 H   0  0  0  0  0  0  0  0  0  0  0  0
   -4.5681    1.7106   -2.6877 H   0  0  0  0  0  0  0  0  0  0  0  0
   -4.4262   -0.1841   -0.3030 H   0  0  0  0  0  0  0  0  0  0  0  0
   -5.6888   -0.5191   -3.0928 H   0  0  0  0  0  0  0  0  0  0  0  0
   -5.0799   -2.7231   -2.1879 H   0  0  0  0  0  0  0  0  0  0  0  0
   -6.8344   -2.5038   -1.9676 H   0  0  0  0  0  0  0  0  0  0  0  0
   -5.7319   -2.2919   -0.5551 H   0  0  0  0  0  0  0  0  0  0  0  0
   -6.9861    0.0619   -0.3467 H   0  0  0  0  0  0  0  0  0  0  0  0
   -7.8704   -0.3320   -1.8743 H   0  0  0  0  0  0  0  0  0  0  0  0
   -6.9240    1.1863   -1.7673 H   0  0  0  0  0  0  0  0  0  0  0  0
   -3.1481   -0.6488   -3.0768 H   0  0  0  0  0  0  0  0  0  0  0  0
   -3.1116   -1.7456   -1.6422 H   0  0  0  0  0  0  0  0  0  0  0  0
   -0.2698    1.6098   -2.6314 H   0  0  0  0  0  0  0  0  0  0  0  0
    2.0352    1.0924   -3.3555 H   0  0  0  0  0  0  0  0  0  0  0  0
    2.9574   -1.1837   -3.0356 H   0  0  0  0  0  0  0  0  0  0  0  0
    1.6111   -2.9264   -1.9328 H   0  0  0  0  0  0  0  0  0  0  0  0
   -1.9591   -3.0830    0.8721 H   0  0  0  0  0  0  0  0  0  0  0  0
    7.0741   -0.6960    1.8253 H   0  0  0  0  0  0  0  0  0  0  0  0
    9.4311   -1.1937    1.2904 H   0  0  0  0  0  0  0  0  0  0  0  0
   10.6548    0.1046    1.0198 H   0  0  0  0  0  0  0  0  0  0  0  0
    9.2520    0.4257    2.1139 H   0  0  0  0  0  0  0  0  0  0  0  0
  1  2  1  0
  2  3  1  0
  3  4  2  0
  4  5  1  0
  5  6  2  0
  6  7  1  0
  7  8  1  0
  8  9  1  0
  9 10  1  0
 10 11  1  0
 11 12  2  0
 11 13  1  0
 13 14  1  0
 14 15  1  0
 15 16  1  0
 16 17  2  0
 16 18  1  0
 18 19  1  0
 19 20  1  0
 20 21  1  0
 21 22  1  0
 21 23  1  0
 19 24  1  0
 24 25  2  0
 24 26  1  0
 26 27  1  0
 27 28  1  0
 28 29  1  0
 28 30  1  0
 27 31  1  0
 31 32  1  0
 32 33  1  0
 33 34  2  0
 34 35  1  0
 35 36  2  0
 36 37  1  0
 37 38  2  0
 38 39  1  0
 39 40  2  0
 39 41  1  0
  6 42  1  0
 42 43  2  0
 43 44  1  0
 44 45  1  0
 43  3  1  0
 41 13  1  0
 38 33  1  0
  1 46  1  0
  1 47  1  0
  1 48  1  0
  4 49  1  0
  5 50  1  0
  7 51  1  0
  7 52  1  0
  8 53  1  0
  8 54  1  0
  9 55  1  0
  9 56  1  0
 10 57  1  0
 13 58  1  0
 14 59  1  0
 14 60  1  0
 15 61  1  0
 15 62  1  0
 18 63  1  0
 19 64  1  0
 20 65  1  0
 20 66  1  0
 21 67  1  0
 22 68  1  0
 22 69  1  0
 22 70  1  0
 23 71  1  0
 23 72  1  0
 23 73  1  0
 26 74  1  0
 27 75  1  0
 28 76  1  0
 29 77  1  0
 29 78  1  0
 29 79  1  0
 30 80  1  0
 30 81  1  0
 30 82  1  0
 31 83  1  0
 31 84  1  0
 34 85  1  0
 35 86  1  0
 36 87  1  0
 37 88  1  0
 41 89  1  0
 42 90  1  0
 45 91  1  0
 45 92  1  0
 45 93  1  0
M  END
$$$$
