
     RDKit          3D

 79 82  0  0  0  0  0  0  0  0999 V2000
    8.6612   -0.2646   -0.5191 C   0  0  0  0  0  0  0  0  0  0  0  0
    7.7390   -0.9475    0.4648 C   0  0  0  0  0  0  0  0  0  0  0  0
    6.6131   -1.6455    0.1050 C   0  0  0  0  0  0  0  0  0  0  0  0
    5.9113   -1.5161   -1.1318 N   0  0  0  0  0  0  0  0  0  0  0  0
    5.2822   -0.2700   -1.4650 C   0  0  0  0  0  0  0  0  0  0  0  0
    5.8709    0.8347   -1.2444 O   0  0  0  0  0  0  0  0  0  0  0  0
    3.8945   -0.2331   -2.0203 C   0  0  0  0  0  0  0  0  0  0  0  0
    2.9837    0.4845   -1.0929 N   0  0  0  0  0  0  0  0  0  0  0  0
    1.6644    0.7944   -1.6654 C   0  0  0  0  0  0  0  0  0  0  0  0
    0.6628   -0.3312   -1.4718 C   0  0  0  0  0  0  0  0  0  0  0  0
    0.5131   -0.7329    0.0053 C   0  0  0  0  0  0  0  0  0  0  0  0
   -0.3173   -2.1075    0.0336 C   0  0  0  0  0  0  0  0  0  0  0  0
   -1.8198   -2.0580   -0.0866 C   0  0  0  0  0  0  0  0  0  0  0  0
   -2.4501   -1.7689   -1.2562 C   0  0  0  0  0  0  0  0  0  0  0  0
   -3.9681   -1.7178   -1.3742 C   0  0  0  0  0  0  0  0  0  0  0  0
   -4.3616   -0.4101   -1.9862 N   0  0  0  0  0  0  0  0  0  0  0  0
   -5.7150    0.0472   -1.9758 C   0  0  0  0  0  0  0  0  0  0  0  0
   -6.2115    0.4660   -3.0939 O   0  0  0  0  0  0  0  0  0  0  0  0
   -6.5425    0.0781   -0.7409 C   0  0  0  0  0  0  0  0  0  0  0  0
   -7.9015   -0.2070   -0.8640 C   0  0  0  0  0  0  0  0  0  0  0  0
   -8.7768   -0.0658    0.2092 C   0  0  0  0  0  0  0  0  0  0  0  0
   -8.2953    0.4018    1.4421 C   0  0  0  0  0  0  0  0  0  0  0  0
   -6.9246    0.7051    1.5987 C   0  0  0  0  0  0  0  0  0  0  0  0
   -6.0456    0.5938    0.5044 C   0  0  0  0  0  0  0  0  0  0  0  0
   -4.7411    1.0537    0.5888 O   0  0  0  0  0  0  0  0  0  0  0  0
   -3.7825    0.5717    1.5499 C   0  0  0  0  0  0  0  0  0  0  0  0
   -2.4248    1.2907    1.4894 C   0  0  0  0  0  0  0  0  0  0  0  0
   -2.2831    2.4344    0.4231 C   0  0  0  0  0  0  0  0  0  0  0  0
   -3.2646    3.6233    0.6970 C   0  0  0  0  0  0  0  0  0  0  0  0
   -2.4103    1.9576   -1.0337 C   0  0  0  0  0  0  0  0  0  0  0  0
   -1.3209    0.2778    1.5416 N   0  0  0  0  0  0  0  0  0  0  0  0
   -0.0833    0.4344    0.8691 C   0  0  0  0  0  0  0  0  0  0  0  0
    0.6468    1.4558    1.1848 O   0  0  0  0  0  0  0  0  0  0  0  0
    1.9200   -1.1065    0.5388 C   0  0  0  0  0  0  0  0  0  0  0  0
    2.9700   -0.0413    0.2947 C   0  0  0  0  0  0  0  0  0  0  0  0
    6.0083   -1.9815    1.3193 C   0  0  0  0  0  0  0  0  0  0  0  0
    6.6742   -1.3835    2.3506 N   0  0  0  0  0  0  0  0  0  0  0  0
    7.7221   -0.7583    1.7942 N   0  0  0  0  0  0  0  0  0  0  0  0
    8.5809    0.0384    2.6398 C   0  0  0  0  0  0  0  0  0  0  0  0
    8.1842    0.6530   -0.9408 H   0  0  0  0  0  0  0  0  0  0  0  0
    8.8305   -0.9513   -1.3803 H   0  0  0  0  0  0  0  0  0  0  0  0
    9.6638    0.0367   -0.1101 H   0  0  0  0  0  0  0  0  0  0  0  0
    5.8353   -2.3242   -1.8084 H   0  0  0  0  0  0  0  0  0  0  0  0
    3.9908    0.3462   -2.9846 H   0  0  0  0  0  0  0  0  0  0  0  0
    3.5215   -1.2667   -2.2872 H   0  0  0  0  0  0  0  0  0  0  0  0
    1.2846    1.7280   -1.2084 H   0  0  0  0  0  0  0  0  0  0  0  0
    1.7028    0.9980   -2.7621 H   0  0  0  0  0  0  0  0  0  0  0  0
    1.0557   -1.1926   -2.0958 H   0  0  0  0  0  0  0  0  0  0  0  0
   -0.3004   -0.0047   -1.9219 H   0  0  0  0  0  0  0  0  0  0  0  0
    0.0860   -2.8301   -0.7273 H   0  0  0  0  0  0  0  0  0  0  0  0
   -0.1299   -2.6554    1.0070 H   0  0  0  0  0  0  0  0  0  0  0  0
   -2.4122   -2.4422    0.7501 H   0  0  0  0  0  0  0  0  0  0  0  0
   -1.8364   -1.4980   -2.1218 H   0  0  0  0  0  0  0  0  0  0  0  0
   -4.4923   -1.8524   -0.3964 H   0  0  0  0  0  0  0  0  0  0  0  0
   -4.2860   -2.5793   -2.0212 H   0  0  0  0  0  0  0  0  0  0  0  0
   -3.7751   -0.0801   -2.7943 H   0  0  0  0  0  0  0  0  0  0  0  0
   -8.2999   -0.5379   -1.8459 H   0  0  0  0  0  0  0  0  0  0  0  0
   -9.8245   -0.2959    0.0964 H   0  0  0  0  0  0  0  0  0  0  0  0
   -8.9915    0.5522    2.2703 H   0  0  0  0  0  0  0  0  0  0  0  0
   -6.5980    1.1305    2.5709 H   0  0  0  0  0  0  0  0  0  0  0  0
   -3.6209   -0.5085    1.3449 H   0  0  0  0  0  0  0  0  0  0  0  0
   -4.1785    0.5768    2.6248 H   0  0  0  0  0  0  0  0  0  0  0  0
   -2.3390    1.8771    2.4551 H   0  0  0  0  0  0  0  0  0  0  0  0
   -1.2481    2.8939    0.5261 H   0  0  0  0  0  0  0  0  0  0  0  0
   -4.3351    3.3839    0.4845 H   0  0  0  0  0  0  0  0  0  0  0  0
   -2.9884    4.5067    0.0730 H   0  0  0  0  0  0  0  0  0  0  0  0
   -3.1948    3.9462    1.7488 H   0  0  0  0  0  0  0  0  0  0  0  0
   -2.1733    0.8742   -1.1174 H   0  0  0  0  0  0  0  0  0  0  0  0
   -3.4320    2.1196   -1.4847 H   0  0  0  0  0  0  0  0  0  0  0  0
   -1.6941    2.5306   -1.6888 H   0  0  0  0  0  0  0  0  0  0  0  0
   -1.2498   -0.1712    2.5189 H   0  0  0  0  0  0  0  0  0  0  0  0
    1.8773   -1.3060    1.6407 H   0  0  0  0  0  0  0  0  0  0  0  0
    2.3102   -2.0445    0.0600 H   0  0  0  0  0  0  0  0  0  0  0  0
    2.8846    0.7968    1.0125 H   0  0  0  0  0  0  0  0  0  0  0  0
    3.9226   -0.5568    0.5638 H   0  0  0  0  0  0  0  0  0  0  0  0
    5.0985   -2.5142    1.4648 H   0  0  0  0  0  0  0  0  0  0  0  0
    9.3302   -0.6824    3.0456 H   0  0  0  0  0  0  0  0  0  0  0  0
    9.1644    0.7979    2.0576 H   0  0  0  0  0  0  0  0  0  0  0  0
    7.9788    0.5499    3.4342 H   0  0  0  0  0  0  0  0  0  0  0  0
  1  2  1  0
  2  3  2  0
  3  4  1  0
  4  5  1  0
  5  6  2  0
  5  7  1  0
  7  8  1  0
  8  9  1  0
  9 10  1  0
 10 11  1  0
 11 12  1  0
 12 13  1  0
 13 14  2  0
 14 15  1  0
 15 16  1  0
 16 17  1  0
 17 18  2  0
 17 19  1  0
 19 20  2  0
 20 21  1  0
 21 22  2  0
 22 23  1  0
 23 24  2  0
 24 25  1  0
 25 26  1  0
 26 27  1  0
 27 28  1  0
 28 29  1  0
 28 30  1  0
 27 31  1  0
 31 32  1  0
 32 33  2  0
 11 34  1  0
 34 35  1  0
  3 36  1  0
 36 37  2  0
 37 38  1  0
 38 39  1  0
 38  2  1  0
 35  8  1  0
 32 11  1  0
 24 19  1  0
  1 40  1  0
  1 41  1  0
  1 42  1  0
  4 43  1  0
  7 44  1  0
  7 45  1  0
  9 46  1  0
  9 47  1  0
 10 48  1  0
 10 49  1  0
 12 50  1  0
 12 51  1  0
 13 52  1  0
 14 53  1  0
 15 54  1  0
 15 55  1  0
 16 56  1  0
 20 57  1  0
 21 58  1  0
 22 59  1  0
 23 60  1  0
 26 61  1  0
 26 62  1  0
 27 63  1  0
 28 64  1  0
 29 65  1  0
 29 66  1  0
 29 67  1  0
 30 68  1  0
 30 69  1  0
 30 70  1  0
 31 71  1  0
 34 72  1  0
 34 73  1  0
 35 74  1  0
 35 75  1  0
 36 76  1  0
 39 77  1  0
 39 78  1  0
 39 79  1  0
M  END
$$$$
