
     RDKit          3D

 69 72  0  0  0  0  0  0  0  0999 V2000
   -2.5207    3.9249    2.9274 C   0  0  0  0  0  0  0  0  0  0  0  0
   -1.4956    3.1874    2.0715 C   0  0  0  0  0  0  0  0  0  0  0  0
   -1.5214    3.6891    0.6224 C   0  0  0  0  0  0  0  0  0  0  0  0
   -0.4386    3.0316   -0.2509 C   0  0  0  0  0  0  0  0  0  0  0  0
   -0.6277    1.5755   -0.3713 N   0  0  0  0  0  0  0  0  0  0  0  0
   -1.7880    1.0886   -1.1478 C   0  0  0  0  0  0  0  0  0  0  0  0
   -2.7319    0.2325   -0.2997 C   0  0  0  0  0  0  0  0  0  0  0  0
   -3.5801   -0.5261   -1.1567 O   0  0  0  0  0  0  0  0  0  0  0  0
   -4.2607   -1.6610   -0.7072 C   0  0  0  0  0  0  0  0  0  0  0  0
   -5.6174   -1.5458   -0.3813 C   0  0  0  0  0  0  0  0  0  0  0  0
   -6.3395   -2.6622    0.0448 C   0  0  0  0  0  0  0  0  0  0  0  0
   -5.7126   -3.9058    0.1383 C   0  0  0  0  0  0  0  0  0  0  0  0
   -4.3614   -4.0366   -0.1927 C   0  0  0  0  0  0  0  0  0  0  0  0
   -3.6159   -2.9195   -0.6103 C   0  0  0  0  0  0  0  0  0  0  0  0
   -2.1594   -3.0999   -0.9827 C   0  0  0  0  0  0  0  0  0  0  0  0
   -1.3174   -3.6040    0.2076 C   0  0  0  0  0  0  0  0  0  0  0  0
    0.1621   -3.1584    0.1496 C   0  0  0  0  0  0  0  0  0  0  0  0
    0.3996   -1.7616    0.7841 C   0  0  0  0  0  0  0  0  0  0  0  0
    0.8257   -0.6258   -0.2047 C   0  0  0  0  0  0  0  0  0  0  0  0
    2.3855   -0.5435   -0.2301 C   0  0  0  0  0  0  0  0  0  0  0  0
    2.8091    0.4064   -1.2620 N   0  0  0  0  0  0  0  0  0  0  0  0
    3.8980    1.3276   -1.0574 C   0  0  0  0  0  0  0  0  0  0  0  0
    3.8672    2.4556   -1.6201 O   0  0  0  0  0  0  0  0  0  0  0  0
    5.0672    0.9788   -0.2280 C   0  0  0  0  0  0  0  0  0  0  0  0
    6.0522    1.8532    0.1872 C   0  0  0  0  0  0  0  0  0  0  0  0
    6.9206    1.0472    0.8907 C   0  0  0  0  0  0  0  0  0  0  0  0
    8.1604    1.4831    1.5960 C   0  0  0  0  0  0  0  0  0  0  0  0
    6.4661   -0.1839    0.8790 O   0  0  0  0  0  0  0  0  0  0  0  0
    5.3532   -0.2648    0.2090 N   0  0  0  0  0  0  0  0  0  0  0  0
    2.0551    0.4434   -2.5136 C   0  0  0  0  0  0  0  0  0  0  0  0
    1.1333   -0.7755   -2.5974 C   0  0  0  0  0  0  0  0  0  0  0  0
    0.2527   -0.8752   -1.4886 O   0  0  0  0  0  0  0  0  0  0  0  0
    0.2887    0.7018    0.3451 C   0  0  0  0  0  0  0  0  0  0  0  0
    0.6976    1.0670    1.4820 O   0  0  0  0  0  0  0  0  0  0  0  0
   -2.4842    3.5373    3.9674 H   0  0  0  0  0  0  0  0  0  0  0  0
   -2.2962    5.0122    2.9460 H   0  0  0  0  0  0  0  0  0  0  0  0
   -3.5445    3.7673    2.5259 H   0  0  0  0  0  0  0  0  0  0  0  0
   -1.7299    2.1021    2.0994 H   0  0  0  0  0  0  0  0  0  0  0  0
   -0.4849    3.3470    2.5057 H   0  0  0  0  0  0  0  0  0  0  0  0
   -1.3482    4.7878    0.6159 H   0  0  0  0  0  0  0  0  0  0  0  0
   -2.5263    3.5088    0.1844 H   0  0  0  0  0  0  0  0  0  0  0  0
    0.5672    3.2696    0.1615 H   0  0  0  0  0  0  0  0  0  0  0  0
   -0.4714    3.4851   -1.2649 H   0  0  0  0  0  0  0  0  0  0  0  0
   -2.3748    1.9428   -1.5501 H   0  0  0  0  0  0  0  0  0  0  0  0
   -1.4598    0.5434   -2.0510 H   0  0  0  0  0  0  0  0  0  0  0  0
   -2.1588   -0.4528    0.3475 H   0  0  0  0  0  0  0  0  0  0  0  0
   -3.3503    0.8841    0.3545 H   0  0  0  0  0  0  0  0  0  0  0  0
   -6.1127   -0.5864   -0.4612 H   0  0  0  0  0  0  0  0  0  0  0  0
   -7.3878   -2.5638    0.2971 H   0  0  0  0  0  0  0  0  0  0  0  0
   -6.2753   -4.7714    0.4628 H   0  0  0  0  0  0  0  0  0  0  0  0
   -3.8948   -5.0115   -0.1247 H   0  0  0  0  0  0  0  0  0  0  0  0
   -1.7510   -2.1574   -1.3797 H   0  0  0  0  0  0  0  0  0  0  0  0
   -2.0881   -3.8340   -1.8145 H   0  0  0  0  0  0  0  0  0  0  0  0
   -1.7698   -3.2910    1.1747 H   0  0  0  0  0  0  0  0  0  0  0  0
   -1.3488   -4.7160    0.2012 H   0  0  0  0  0  0  0  0  0  0  0  0
    0.7491   -3.8980    0.7377 H   0  0  0  0  0  0  0  0  0  0  0  0
    0.5541   -3.2296   -0.8869 H   0  0  0  0  0  0  0  0  0  0  0  0
    1.1774   -1.8701    1.5731 H   0  0  0  0  0  0  0  0  0  0  0  0
   -0.4954   -1.4602    1.3658 H   0  0  0  0  0  0  0  0  0  0  0  0
    2.7684   -0.2340    0.7673 H   0  0  0  0  0  0  0  0  0  0  0  0
    2.8176   -1.5421   -0.4598 H   0  0  0  0  0  0  0  0  0  0  0  0
    6.1250    2.9179    0.0070 H   0  0  0  0  0  0  0  0  0  0  0  0
    8.5542    2.4181    1.1412 H   0  0  0  0  0  0  0  0  0  0  0  0
    8.9346    0.6895    1.5162 H   0  0  0  0  0  0  0  0  0  0  0  0
    7.9310    1.6653    2.6680 H   0  0  0  0  0  0  0  0  0  0  0  0
    1.4518    1.3760   -2.5579 H   0  0  0  0  0  0  0  0  0  0  0  0
    2.7563    0.4232   -3.3757 H   0  0  0  0  0  0  0  0  0  0  0  0
    1.7362   -1.7061   -2.6798 H   0  0  0  0  0  0  0  0  0  0  0  0
    0.5243   -0.6973   -3.5219 H   0  0  0  0  0  0  0  0  0  0  0  0
  1  2  1  0
  2  3  1  0
  3  4  1  0
  4  5  1  0
  5  6  1  0
  6  7  1  0
  7  8  1  0
  8  9  1  0
  9 10  2  0
 10 11  1  0
 11 12  2  0
 12 13  1  0
 13 14  2  0
 14 15  1  0
 15 16  1  0
 16 17  1  0
 17 18  1  0
 18 19  1  0
 19 20  1  0
 20 21  1  0
 21 22  1  0
 22 23  2  0
 22 24  1  0
 24 25  1  0
 25 26  2  0
 26 27  1  0
 26 28  1  0
 28 29  1  0
 21 30  1  0
 30 31  1  0
 31 32  1  0
 19 33  1  0
 33 34  2  0
 33  5  1  0
 14  9  1  0
 32 19  1  0
 29 24  2  0
  1 35  1  0
  1 36  1  0
  1 37  1  0
  2 38  1  0
  2 39  1  0
  3 40  1  0
  3 41  1  0
  4 42  1  0
  4 43  1  0
  6 44  1  0
  6 45  1  0
  7 46  1  0
  7 47  1  0
 10 48  1  0
 11 49  1  0
 12 50  1  0
 13 51  1  0
 15 52  1  0
 15 53  1  0
 16 54  1  0
 16 55  1  0
 17 56  1  0
 17 57  1  0
 18 58  1  0
 18 59  1  0
 20 60  1  0
 20 61  1  0
 25 62  1  0
 27 63  1  0
 27 64  1  0
 27 65  1  0
 30 66  1  0
 30 67  1  0
 31 68  1  0
 31 69  1  0
M  END
$$$$
