
     RDKit          3D

 62 65  0  0  0  0  0  0  0  0999 V2000
    7.4276    1.5363    2.1261 O   0  0  0  0  0  0  0  0  0  0  0  0
    6.6735    0.7996    1.4352 C   0  0  0  0  0  0  0  0  0  0  0  0
    7.2585   -0.3459    0.7758 N   0  0  0  0  0  0  0  0  0  0  0  0
    6.6354   -1.1874   -0.2531 C   0  0  0  0  0  0  0  0  0  0  0  0
    6.4329   -0.4227   -1.5871 C   0  0  0  0  0  0  0  0  0  0  0  0
    5.2315   -0.7832   -2.2631 O   0  0  0  0  0  0  0  0  0  0  0  0
    4.1252   -0.2921   -1.5360 C   0  0  0  0  0  0  0  0  0  0  0  0
    2.8689   -0.1348   -2.3599 C   0  0  0  0  0  0  0  0  0  0  0  0
    1.9386    0.5595   -1.5291 O   0  0  0  0  0  0  0  0  0  0  0  0
    0.7697   -0.0101   -1.0251 C   0  0  0  0  0  0  0  0  0  0  0  0
   -0.3065   -0.1799   -1.9026 C   0  0  0  0  0  0  0  0  0  0  0  0
   -1.5355   -0.6492   -1.4440 C   0  0  0  0  0  0  0  0  0  0  0  0
   -1.7138   -0.9604   -0.0899 C   0  0  0  0  0  0  0  0  0  0  0  0
   -3.0034   -1.4653    0.4380 C   0  0  0  0  0  0  0  0  0  0  0  0
   -2.9904   -2.4195    1.2625 O   0  0  0  0  0  0  0  0  0  0  0  0
   -4.2506   -0.8055    0.1578 N   0  0  0  0  0  0  0  0  0  0  0  0
   -5.0974   -0.4103    1.2903 C   0  0  0  0  0  0  0  0  0  0  0  0
   -5.9834    0.7746    0.8953 C   0  0  0  0  0  0  0  0  0  0  0  0
   -6.8567    0.4789   -0.3555 C   0  0  0  0  0  0  0  0  0  0  0  0
   -8.3245    0.2421    0.0404 C   0  0  0  0  0  0  0  0  0  0  0  0
   -9.1115    0.0680   -1.1061 O   0  0  0  0  0  0  0  0  0  0  0  0
   -6.3204   -0.7064   -1.1963 C   0  0  0  0  0  0  0  0  0  0  0  0
   -4.7886   -0.7542   -1.2092 C   0  0  0  0  0  0  0  0  0  0  0  0
   -0.6243   -0.8300    0.7867 C   0  0  0  0  0  0  0  0  0  0  0  0
    0.6245   -0.3452    0.3495 C   0  0  0  0  0  0  0  0  0  0  0  0
    1.7778   -0.4263    1.3501 C   0  0  0  0  0  0  0  0  0  0  0  0
    2.8605    0.6264    1.2695 C   0  0  0  0  0  0  0  0  0  0  0  0
    2.5531    1.9756    1.0375 C   0  0  0  0  0  0  0  0  0  0  0  0
    3.5776    2.9198    0.9351 C   0  0  0  0  0  0  0  0  0  0  0  0
    4.9140    2.5277    1.0603 C   0  0  0  0  0  0  0  0  0  0  0  0
    5.2443    1.1865    1.3199 C   0  0  0  0  0  0  0  0  0  0  0  0
    4.2044    0.2602    1.5105 C   0  0  0  0  0  0  0  0  0  0  0  0
    8.2426   -0.5839    1.0357 H   0  0  0  0  0  0  0  0  0  0  0  0
    5.7141   -1.6412    0.1465 H   0  0  0  0  0  0  0  0  0  0  0  0
    7.3041   -2.0527   -0.4561 H   0  0  0  0  0  0  0  0  0  0  0  0
    7.2843   -0.6669   -2.2574 H   0  0  0  0  0  0  0  0  0  0  0  0
    6.4995    0.6800   -1.4393 H   0  0  0  0  0  0  0  0  0  0  0  0
    3.8638   -1.0152   -0.7401 H   0  0  0  0  0  0  0  0  0  0  0  0
    4.3287    0.7214   -1.1272 H   0  0  0  0  0  0  0  0  0  0  0  0
    3.0830    0.4802   -3.2592 H   0  0  0  0  0  0  0  0  0  0  0  0
    2.4755   -1.1270   -2.6744 H   0  0  0  0  0  0  0  0  0  0  0  0
   -0.1911    0.0700   -2.9500 H   0  0  0  0  0  0  0  0  0  0  0  0
   -2.3237   -0.7936   -2.1647 H   0  0  0  0  0  0  0  0  0  0  0  0
   -5.7289   -1.2701    1.6030 H   0  0  0  0  0  0  0  0  0  0  0  0
   -4.4641   -0.1085    2.1537 H   0  0  0  0  0  0  0  0  0  0  0  0
   -5.3176    1.6374    0.6715 H   0  0  0  0  0  0  0  0  0  0  0  0
   -6.6047    1.0720    1.7681 H   0  0  0  0  0  0  0  0  0  0  0  0
   -6.8320    1.3871   -0.9992 H   0  0  0  0  0  0  0  0  0  0  0  0
   -8.7014    1.1223    0.6086 H   0  0  0  0  0  0  0  0  0  0  0  0
   -8.3989   -0.6583    0.6917 H   0  0  0  0  0  0  0  0  0  0  0  0
  -10.0348   -0.1009   -0.7837 H   0  0  0  0  0  0  0  0  0  0  0  0
   -6.6930   -0.6241   -2.2406 H   0  0  0  0  0  0  0  0  0  0  0  0
   -6.6928   -1.6698   -0.7821 H   0  0  0  0  0  0  0  0  0  0  0  0
   -4.4788   -1.6613   -1.7729 H   0  0  0  0  0  0  0  0  0  0  0  0
   -4.3991    0.1490   -1.7255 H   0  0  0  0  0  0  0  0  0  0  0  0
   -0.7503   -1.1174    1.8245 H   0  0  0  0  0  0  0  0  0  0  0  0
    2.2309   -1.4346    1.2323 H   0  0  0  0  0  0  0  0  0  0  0  0
    1.3786   -0.3825    2.3868 H   0  0  0  0  0  0  0  0  0  0  0  0
    1.5250    2.2923    0.9145 H   0  0  0  0  0  0  0  0  0  0  0  0
    3.3367    3.9565    0.7385 H   0  0  0  0  0  0  0  0  0  0  0  0
    5.6931    3.2709    0.9426 H   0  0  0  0  0  0  0  0  0  0  0  0
    4.4397   -0.7579    1.7921 H   0  0  0  0  0  0  0  0  0  0  0  0
  1  2  2  0
  2  3  1  0
  3  4  1  0
  4  5  1  0
  5  6  1  0
  6  7  1  0
  7  8  1  0
  8  9  1  0
  9 10  1  0
 10 11  2  0
 11 12  1  0
 12 13  2  0
 13 14  1  0
 14 15  2  0
 14 16  1  0
 16 17  1  0
 17 18  1  0
 18 19  1  0
 19 20  1  0
 20 21  1  0
 19 22  1  0
 22 23  1  0
 13 24  1  0
 24 25  2  0
 25 26  1  0
 26 27  1  0
 27 28  1  0
 28 29  2  0
 29 30  1  0
 30 31  2  0
 31 32  1  0
 31  2  1  0
 25 10  1  0
 32 27  2  0
 23 16  1  0
  3 33  1  0
  4 34  1  0
  4 35  1  0
  5 36  1  0
  5 37  1  0
  7 38  1  0
  7 39  1  0
  8 40  1  0
  8 41  1  0
 11 42  1  0
 12 43  1  0
 17 44  1  0
 17 45  1  0
 18 46  1  0
 18 47  1  0
 19 48  1  0
 20 49  1  0
 20 50  1  0
 21 51  1  0
 22 52  1  0
 22 53  1  0
 23 54  1  0
 23 55  1  0
 24 56  1  0
 26 57  1  0
 26 58  1  0
 28 59  1  0
 29 60  1  0
 30 61  1  0
 32 62  1  0
M  END
$$$$
