
     RDKit          3D

 64 66  0  0  0  0  0  0  0  0999 V2000
    4.9786    2.0281    0.2622 C   0  0  0  0  0  0  0  0  0  0  0  0
    3.5393    1.8410    0.7498 C   0  0  0  0  0  0  0  0  0  0  0  0
    3.4686    1.9643    2.2763 C   0  0  0  0  0  0  0  0  0  0  0  0
    3.0296    0.5347    0.3200 N   0  0  0  0  0  0  0  0  0  0  0  0
    2.5272    0.3103   -1.0049 C   0  0  0  0  0  0  0  0  0  0  0  0
    2.6586    1.1913   -1.8980 O   0  0  0  0  0  0  0  0  0  0  0  0
    1.8505   -0.9583   -1.3290 C   0  0  0  0  0  0  0  0  0  0  0  0
    2.6278   -2.1217   -1.3692 C   0  0  0  0  0  0  0  0  0  0  0  0
    2.0483   -3.3478   -1.6792 C   0  0  0  0  0  0  0  0  0  0  0  0
    0.6821   -3.4327   -1.9354 C   0  0  0  0  0  0  0  0  0  0  0  0
   -0.1325   -2.2848   -1.8700 C   0  0  0  0  0  0  0  0  0  0  0  0
    0.4529   -1.0302   -1.5783 C   0  0  0  0  0  0  0  0  0  0  0  0
   -0.4274    0.2123   -1.4987 C   0  0  0  0  0  0  0  0  0  0  0  0
   -1.2361    0.2960   -0.2550 N   0  0  0  0  0  0  0  0  0  0  0  0
   -2.0902    1.5181   -0.2592 C   0  0  0  0  0  0  0  0  0  0  0  0
   -1.3334    2.8169   -0.0472 C   0  0  0  0  0  0  0  0  0  0  0  0
   -0.7634    3.5028   -1.1325 C   0  0  0  0  0  0  0  0  0  0  0  0
   -0.0530    4.6886   -0.9261 C   0  0  0  0  0  0  0  0  0  0  0  0
    0.0757    5.2118    0.3619 C   0  0  0  0  0  0  0  0  0  0  0  0
   -0.5212    4.5607    1.4416 C   0  0  0  0  0  0  0  0  0  0  0  0
   -1.2262    3.3715    1.2403 C   0  0  0  0  0  0  0  0  0  0  0  0
   -0.4187    0.1464    0.9745 C   0  0  0  0  0  0  0  0  0  0  0  0
   -1.2244    0.1081    2.2559 C   0  0  0  0  0  0  0  0  0  0  0  0
   -0.7901    0.7728    3.2331 O   0  0  0  0  0  0  0  0  0  0  0  0
   -2.3652   -0.7480    2.4709 N   0  0  0  0  0  0  0  0  0  0  0  0
   -3.1193   -1.4821    1.4539 C   0  0  0  0  0  0  0  0  0  0  0  0
   -2.3683   -2.7341    0.9906 C   0  0  0  0  0  0  0  0  0  0  0  0
   -3.2575   -3.5969    0.0750 C   0  0  0  0  0  0  0  0  0  0  0  0
   -2.4544   -4.3560   -0.9929 C   0  0  0  0  0  0  0  0  0  0  0  0
   -2.2776   -3.5451   -2.2891 C   0  0  0  0  0  0  0  0  0  0  0  0
   -1.5224   -2.3501   -2.0770 O   0  0  0  0  0  0  0  0  0  0  0  0
    5.0176    1.9898   -0.8465 H   0  0  0  0  0  0  0  0  0  0  0  0
    5.6346    1.2274    0.6658 H   0  0  0  0  0  0  0  0  0  0  0  0
    5.3669    3.0175    0.5894 H   0  0  0  0  0  0  0  0  0  0  0  0
    2.9001    2.6439    0.3186 H   0  0  0  0  0  0  0  0  0  0  0  0
    4.1160    1.2023    2.7614 H   0  0  0  0  0  0  0  0  0  0  0  0
    3.7984    2.9755    2.5930 H   0  0  0  0  0  0  0  0  0  0  0  0
    2.4209    1.8157    2.6168 H   0  0  0  0  0  0  0  0  0  0  0  0
    2.9270   -0.2333    1.0217 H   0  0  0  0  0  0  0  0  0  0  0  0
    3.6922   -2.0765   -1.1708 H   0  0  0  0  0  0  0  0  0  0  0  0
    2.6619   -4.2393   -1.7191 H   0  0  0  0  0  0  0  0  0  0  0  0
    0.2732   -4.4037   -2.1724 H   0  0  0  0  0  0  0  0  0  0  0  0
   -1.1133    0.1909   -2.3708 H   0  0  0  0  0  0  0  0  0  0  0  0
    0.1839    1.1208   -1.6248 H   0  0  0  0  0  0  0  0  0  0  0  0
   -2.8727    1.4261    0.5210 H   0  0  0  0  0  0  0  0  0  0  0  0
   -2.6616    1.5759   -1.2121 H   0  0  0  0  0  0  0  0  0  0  0  0
   -0.8855    3.1316   -2.1436 H   0  0  0  0  0  0  0  0  0  0  0  0
    0.3761    5.2127   -1.7707 H   0  0  0  0  0  0  0  0  0  0  0  0
    0.6156    6.1361    0.5204 H   0  0  0  0  0  0  0  0  0  0  0  0
   -0.4513    4.9818    2.4328 H   0  0  0  0  0  0  0  0  0  0  0  0
   -1.7224    2.9075    2.0777 H   0  0  0  0  0  0  0  0  0  0  0  0
    0.1529   -0.8040    0.9529 H   0  0  0  0  0  0  0  0  0  0  0  0
    0.3336    0.9638    1.0271 H   0  0  0  0  0  0  0  0  0  0  0  0
   -2.7676   -0.7487    3.4358 H   0  0  0  0  0  0  0  0  0  0  0  0
   -3.3647   -0.8338    0.5929 H   0  0  0  0  0  0  0  0  0  0  0  0
   -4.0877   -1.7979    1.9007 H   0  0  0  0  0  0  0  0  0  0  0  0
   -1.4453   -2.4284    0.4675 H   0  0  0  0  0  0  0  0  0  0  0  0
   -2.0576   -3.3349    1.8760 H   0  0  0  0  0  0  0  0  0  0  0  0
   -3.7857   -4.3362    0.7137 H   0  0  0  0  0  0  0  0  0  0  0  0
   -4.0461   -2.9853   -0.4249 H   0  0  0  0  0  0  0  0  0  0  0  0
   -3.0123   -5.2816   -1.2560 H   0  0  0  0  0  0  0  0  0  0  0  0
   -1.4731   -4.6801   -0.5866 H   0  0  0  0  0  0  0  0  0  0  0  0
   -3.2799   -3.2571   -2.6731 H   0  0  0  0  0  0  0  0  0  0  0  0
   -1.8021   -4.1660   -3.0786 H   0  0  0  0  0  0  0  0  0  0  0  0
  1  2  1  0
  2  3  1  0
  2  4  1  0
  4  5  1  0
  5  6  2  0
  5  7  1  0
  7  8  2  0
  8  9  1  0
  9 10  2  0
 10 11  1  0
 11 12  2  0
 12 13  1  0
 13 14  1  0
 14 15  1  0
 15 16  1  0
 16 17  2  0
 17 18  1  0
 18 19  2  0
 19 20  1  0
 20 21  2  0
 14 22  1  0
 22 23  1  0
 23 24  2  0
 23 25  1  0
 25 26  1  0
 26 27  1  0
 27 28  1  0
 28 29  1  0
 29 30  1  0
 30 31  1  0
 12  7  1  0
 21 16  1  0
 31 11  1  0
  1 32  1  0
  1 33  1  0
  1 34  1  0
  2 35  1  0
  3 36  1  0
  3 37  1  0
  3 38  1  0
  4 39  1  0
  8 40  1  0
  9 41  1  0
 10 42  1  0
 13 43  1  0
 13 44  1  0
 15 45  1  0
 15 46  1  0
 17 47  1  0
 18 48  1  0
 19 49  1  0
 20 50  1  0
 21 51  1  0
 22 52  1  0
 22 53  1  0
 25 54  1  0
 26 55  1  0
 26 56  1  0
 27 57  1  0
 27 58  1  0
 28 59  1  0
 28 60  1  0
 29 61  1  0
 29 62  1  0
 30 63  1  0
 30 64  1  0
M  END
$$$$
