
     RDKit          3D

 73 76  0  0  0  0  0  0  0  0999 V2000
   -0.3890    3.1897   -1.4246 C   0  0  0  0  0  0  0  0  0  0  0  0
   -0.2432    2.7247    0.0184 C   0  0  0  0  0  0  0  0  0  0  0  0
   -1.2863    1.7487    0.3576 N   0  0  0  0  0  0  0  0  0  0  0  0
   -2.4834    2.1606    1.1094 C   0  0  0  0  0  0  0  0  0  0  0  0
   -3.7526    2.0573    0.2616 C   0  0  0  0  0  0  0  0  0  0  0  0
   -4.0135    0.6931   -0.0642 O   0  0  0  0  0  0  0  0  0  0  0  0
   -5.2483    0.1524   -0.4649 C   0  0  0  0  0  0  0  0  0  0  0  0
   -6.4622    0.8574   -0.3247 C   0  0  0  0  0  0  0  0  0  0  0  0
   -7.6736    0.2495   -0.6582 C   0  0  0  0  0  0  0  0  0  0  0  0
   -7.6938   -1.0567   -1.1472 C   0  0  0  0  0  0  0  0  0  0  0  0
   -6.4981   -1.7557   -1.3216 C   0  0  0  0  0  0  0  0  0  0  0  0
   -5.2706   -1.1536   -1.0018 C   0  0  0  0  0  0  0  0  0  0  0  0
   -3.9877   -1.9068   -1.2549 C   0  0  0  0  0  0  0  0  0  0  0  0
   -3.6041   -2.8324   -0.0803 C   0  0  0  0  0  0  0  0  0  0  0  0
   -2.1327   -2.6596    0.3433 C   0  0  0  0  0  0  0  0  0  0  0  0
   -1.9483   -1.5618    1.4228 C   0  0  0  0  0  0  0  0  0  0  0  0
   -0.7284   -0.6167    1.2304 C   0  0  0  0  0  0  0  0  0  0  0  0
    0.5757   -1.4165    0.8846 C   0  0  0  0  0  0  0  0  0  0  0  0
    1.7488   -0.6606    1.3338 N   0  0  0  0  0  0  0  0  0  0  0  0
    2.8842   -0.4066    0.4840 C   0  0  0  0  0  0  0  0  0  0  0  0
    4.0248   -0.2809    1.0062 O   0  0  0  0  0  0  0  0  0  0  0  0
    2.7313   -0.3179   -1.0169 C   0  0  0  0  0  0  0  0  0  0  0  0
    3.7731    0.5885   -1.6910 C   0  0  0  0  0  0  0  0  0  0  0  0
    5.1415   -0.0376   -1.7202 C   0  0  0  0  0  0  0  0  0  0  0  0
    5.4946   -1.2237   -2.3387 C   0  0  0  0  0  0  0  0  0  0  0  0
    6.8047   -1.4625   -2.1342 N   0  0  0  0  0  0  0  0  0  0  0  0
    7.2926   -0.4628   -1.4148 N   0  0  0  0  0  0  0  0  0  0  0  0
    8.6836   -0.3937   -0.9806 C   0  0  0  0  0  0  0  0  0  0  0  0
    6.3152    0.4332   -1.1554 C   0  0  0  0  0  0  0  0  0  0  0  0
    6.4731    1.6872   -0.3437 C   0  0  0  0  0  0  0  0  0  0  0  0
    1.7669   -0.1974    2.7229 C   0  0  0  0  0  0  0  0  0  0  0  0
    0.3717   -0.3354    3.3342 C   0  0  0  0  0  0  0  0  0  0  0  0
   -0.5960    0.1623    2.4281 O   0  0  0  0  0  0  0  0  0  0  0  0
   -1.0252    0.3584    0.0963 C   0  0  0  0  0  0  0  0  0  0  0  0
   -0.9884   -0.0342   -1.1012 O   0  0  0  0  0  0  0  0  0  0  0  0
   -0.3423    2.3259   -2.1193 H   0  0  0  0  0  0  0  0  0  0  0  0
   -1.3561    3.7156   -1.5580 H   0  0  0  0  0  0  0  0  0  0  0  0
    0.4372    3.8874   -1.6700 H   0  0  0  0  0  0  0  0  0  0  0  0
   -0.2968    3.6112    0.6875 H   0  0  0  0  0  0  0  0  0  0  0  0
    0.7628    2.2714    0.1621 H   0  0  0  0  0  0  0  0  0  0  0  0
   -2.6056    1.5386    2.0214 H   0  0  0  0  0  0  0  0  0  0  0  0
   -2.3844    3.2142    1.4543 H   0  0  0  0  0  0  0  0  0  0  0  0
   -4.5761    2.4845    0.8720 H   0  0  0  0  0  0  0  0  0  0  0  0
   -3.6450    2.6506   -0.6700 H   0  0  0  0  0  0  0  0  0  0  0  0
   -6.4932    1.8671    0.0566 H   0  0  0  0  0  0  0  0  0  0  0  0
   -8.6027    0.7912   -0.5306 H   0  0  0  0  0  0  0  0  0  0  0  0
   -8.6351   -1.5253   -1.3993 H   0  0  0  0  0  0  0  0  0  0  0  0
   -6.5277   -2.7651   -1.7169 H   0  0  0  0  0  0  0  0  0  0  0  0
   -3.1825   -1.1799   -1.4834 H   0  0  0  0  0  0  0  0  0  0  0  0
   -4.0912   -2.5152   -2.1813 H   0  0  0  0  0  0  0  0  0  0  0  0
   -3.7469   -3.8847   -0.4095 H   0  0  0  0  0  0  0  0  0  0  0  0
   -4.2770   -2.6889    0.7952 H   0  0  0  0  0  0  0  0  0  0  0  0
   -1.7751   -3.6231    0.7676 H   0  0  0  0  0  0  0  0  0  0  0  0
   -1.5086   -2.4775   -0.5565 H   0  0  0  0  0  0  0  0  0  0  0  0
   -2.8644   -0.9400    1.5136 H   0  0  0  0  0  0  0  0  0  0  0  0
   -1.8520   -2.0705    2.4069 H   0  0  0  0  0  0  0  0  0  0  0  0
    0.5733   -2.3904    1.4219 H   0  0  0  0  0  0  0  0  0  0  0  0
    0.6407   -1.6785   -0.1896 H   0  0  0  0  0  0  0  0  0  0  0  0
    1.7338    0.1128   -1.2449 H   0  0  0  0  0  0  0  0  0  0  0  0
    2.7661   -1.3403   -1.4504 H   0  0  0  0  0  0  0  0  0  0  0  0
    3.7973    1.5726   -1.1757 H   0  0  0  0  0  0  0  0  0  0  0  0
    3.4547    0.7751   -2.7386 H   0  0  0  0  0  0  0  0  0  0  0  0
    4.8370   -1.8778   -2.8950 H   0  0  0  0  0  0  0  0  0  0  0  0
    9.1700    0.5016   -1.4214 H   0  0  0  0  0  0  0  0  0  0  0  0
    8.7309   -0.3381    0.1265 H   0  0  0  0  0  0  0  0  0  0  0  0
    9.2350   -1.2978   -1.3124 H   0  0  0  0  0  0  0  0  0  0  0  0
    5.9741    1.5628    0.6385 H   0  0  0  0  0  0  0  0  0  0  0  0
    7.5419    1.9225   -0.1715 H   0  0  0  0  0  0  0  0  0  0  0  0
    6.0106    2.5405   -0.8794 H   0  0  0  0  0  0  0  0  0  0  0  0
    2.0580    0.8751    2.7468 H   0  0  0  0  0  0  0  0  0  0  0  0
    2.5015   -0.7854    3.3113 H   0  0  0  0  0  0  0  0  0  0  0  0
    0.3242    0.2618    4.2691 H   0  0  0  0  0  0  0  0  0  0  0  0
    0.1578   -1.3941    3.6065 H   0  0  0  0  0  0  0  0  0  0  0  0
  1  2  1  0
  2  3  1  0
  3  4  1  0
  4  5  1  0
  5  6  1  0
  6  7  1  0
  7  8  2  0
  8  9  1  0
  9 10  2  0
 10 11  1  0
 11 12  2  0
 12 13  1  0
 13 14  1  0
 14 15  1  0
 15 16  1  0
 16 17  1  0
 17 18  1  0
 18 19  1  0
 19 20  1  0
 20 21  2  0
 20 22  1  0
 22 23  1  0
 23 24  1  0
 24 25  1  0
 25 26  2  0
 26 27  1  0
 27 28  1  0
 27 29  1  0
 29 30  1  0
 19 31  1  0
 31 32  1  0
 32 33  1  0
 17 34  1  0
 34 35  2  0
 34  3  1  0
 12  7  1  0
 33 17  1  0
 29 24  2  0
  1 36  1  0
  1 37  1  0
  1 38  1  0
  2 39  1  0
  2 40  1  0
  4 41  1  0
  4 42  1  0
  5 43  1  0
  5 44  1  0
  8 45  1  0
  9 46  1  0
 10 47  1  0
 11 48  1  0
 13 49  1  0
 13 50  1  0
 14 51  1  0
 14 52  1  0
 15 53  1  0
 15 54  1  0
 16 55  1  0
 16 56  1  0
 18 57  1  0
 18 58  1  0
 22 59  1  0
 22 60  1  0
 23 61  1  0
 23 62  1  0
 25 63  1  0
 28 64  1  0
 28 65  1  0
 28 66  1  0
 30 67  1  0
 30 68  1  0
 30 69  1  0
 31 70  1  0
 31 71  1  0
 32 72  1  0
 32 73  1  0
M  END
$$$$
