
     RDKit          3D

 60 62  0  0  0  0  0  0  0  0999 V2000
   -1.0078   -0.5674    4.3095 C   0  0  0  0  0  0  0  0  0  0  0  0
   -0.6990   -0.2128    2.9218 N   0  0  0  0  0  0  0  0  0  0  0  0
    0.6768   -0.3590    2.4286 C   0  0  0  0  0  0  0  0  0  0  0  0
    0.7288   -1.2357    1.1637 C   0  0  0  0  0  0  0  0  0  0  0  0
    0.3220   -0.4769   -0.0478 N   0  0  0  0  0  0  0  0  0  0  0  0
    1.3749    0.4439   -0.5587 C   0  0  0  0  0  0  0  0  0  0  0  0
    2.7270   -0.1873   -0.7740 C   0  0  0  0  0  0  0  0  0  0  0  0
    2.8285   -1.2991   -1.3531 O   0  0  0  0  0  0  0  0  0  0  0  0
    3.8682    0.5233   -0.3752 O   0  0  0  0  0  0  0  0  0  0  0  0
    5.2279    0.0771   -0.4858 C   0  0  0  0  0  0  0  0  0  0  0  0
    6.1225    1.2113    0.0385 C   0  0  0  0  0  0  0  0  0  0  0  0
    5.5942   -0.2038   -1.9585 C   0  0  0  0  0  0  0  0  0  0  0  0
    5.4507   -1.1781    0.3802 C   0  0  0  0  0  0  0  0  0  0  0  0
   -0.2727   -1.3454   -1.0958 C   0  0  0  0  0  0  0  0  0  0  0  0
   -1.1747   -0.5518   -2.0516 C   0  0  0  0  0  0  0  0  0  0  0  0
   -2.0867    0.2387   -1.2962 O   0  0  0  0  0  0  0  0  0  0  0  0
   -2.9346    1.2290   -1.8149 C   0  0  0  0  0  0  0  0  0  0  0  0
   -2.9688    1.5472   -3.1862 C   0  0  0  0  0  0  0  0  0  0  0  0
   -3.7715    2.5946   -3.6432 C   0  0  0  0  0  0  0  0  0  0  0  0
   -4.5463    3.3304   -2.7437 C   0  0  0  0  0  0  0  0  0  0  0  0
   -4.5377    3.0067   -1.3851 C   0  0  0  0  0  0  0  0  0  0  0  0
   -3.7557    1.9449   -0.9193 C   0  0  0  0  0  0  0  0  0  0  0  0
   -3.7819    1.6222    0.4428 O   0  0  0  0  0  0  0  0  0  0  0  0
   -3.9157    0.3010    0.8789 C   0  0  0  0  0  0  0  0  0  0  0  0
   -4.9974   -0.4176    0.4676 N   0  0  0  0  0  0  0  0  0  0  0  0
   -5.1824   -1.7152    0.8210 C   0  0  0  0  0  0  0  0  0  0  0  0
   -4.2371   -2.3607    1.6128 C   0  0  0  0  0  0  0  0  0  0  0  0
   -3.1118   -1.6589    2.0425 C   0  0  0  0  0  0  0  0  0  0  0  0
   -2.9360   -0.3030    1.7010 C   0  0  0  0  0  0  0  0  0  0  0  0
   -1.6944    0.4219    2.1005 C   0  0  0  0  0  0  0  0  0  0  0  0
   -1.4685    1.5865    1.6715 O   0  0  0  0  0  0  0  0  0  0  0  0
   -0.3500    0.0017    5.0031 H   0  0  0  0  0  0  0  0  0  0  0  0
   -2.0625   -0.3268    4.5571 H   0  0  0  0  0  0  0  0  0  0  0  0
   -0.8406   -1.6553    4.4627 H   0  0  0  0  0  0  0  0  0  0  0  0
    1.1182    0.6426    2.2517 H   0  0  0  0  0  0  0  0  0  0  0  0
    1.3053   -0.8434    3.2091 H   0  0  0  0  0  0  0  0  0  0  0  0
    0.0587   -2.1072    1.3397 H   0  0  0  0  0  0  0  0  0  0  0  0
    1.7484   -1.6617    1.0542 H   0  0  0  0  0  0  0  0  0  0  0  0
    1.0643    0.9237   -1.5067 H   0  0  0  0  0  0  0  0  0  0  0  0
    1.4899    1.2892    0.1507 H   0  0  0  0  0  0  0  0  0  0  0  0
    7.1970    0.9248   -0.0004 H   0  0  0  0  0  0  0  0  0  0  0  0
    5.8592    1.4517    1.0928 H   0  0  0  0  0  0  0  0  0  0  0  0
    5.9787    2.1299   -0.5715 H   0  0  0  0  0  0  0  0  0  0  0  0
    5.0805   -1.1127   -2.3383 H   0  0  0  0  0  0  0  0  0  0  0  0
    5.3015    0.6584   -2.6014 H   0  0  0  0  0  0  0  0  0  0  0  0
    6.6886   -0.3708   -2.0648 H   0  0  0  0  0  0  0  0  0  0  0  0
    4.8437   -2.0312    0.0177 H   0  0  0  0  0  0  0  0  0  0  0  0
    6.5173   -1.4851    0.3573 H   0  0  0  0  0  0  0  0  0  0  0  0
    5.1634   -0.9722    1.4317 H   0  0  0  0  0  0  0  0  0  0  0  0
   -0.9205   -2.1214   -0.6322 H   0  0  0  0  0  0  0  0  0  0  0  0
    0.5055   -1.8804   -1.6779 H   0  0  0  0  0  0  0  0  0  0  0  0
   -1.7439   -1.2562   -2.6952 H   0  0  0  0  0  0  0  0  0  0  0  0
   -0.5608    0.0909   -2.7152 H   0  0  0  0  0  0  0  0  0  0  0  0
   -2.3770    0.9956   -3.9026 H   0  0  0  0  0  0  0  0  0  0  0  0
   -3.7891    2.8379   -4.6965 H   0  0  0  0  0  0  0  0  0  0  0  0
   -5.1613    4.1454   -3.1006 H   0  0  0  0  0  0  0  0  0  0  0  0
   -5.1541    3.5696   -0.6944 H   0  0  0  0  0  0  0  0  0  0  0  0
   -6.0570   -2.2485    0.4745 H   0  0  0  0  0  0  0  0  0  0  0  0
   -4.3717   -3.4013    1.8824 H   0  0  0  0  0  0  0  0  0  0  0  0
   -2.3725   -2.1933    2.6213 H   0  0  0  0  0  0  0  0  0  0  0  0
  1  2  1  0
  2  3  1  0
  3  4  1  0
  4  5  1  0
  5  6  1  0
  6  7  1  0
  7  8  2  0
  7  9  1  0
  9 10  1  0
 10 11  1  0
 10 12  1  0
 10 13  1  0
  5 14  1  0
 14 15  1  0
 15 16  1  0
 16 17  1  0
 17 18  2  0
 18 19  1  0
 19 20  2  0
 20 21  1  0
 21 22  2  0
 22 23  1  0
 23 24  1  0
 24 25  2  0
 25 26  1  0
 26 27  2  0
 27 28  1  0
 28 29  2  0
 29 30  1  0
 30 31  2  0
 30  2  1  0
 22 17  1  0
 29 24  1  0
  1 32  1  0
  1 33  1  0
  1 34  1  0
  3 35  1  0
  3 36  1  0
  4 37  1  0
  4 38  1  0
  6 39  1  0
  6 40  1  0
 11 41  1  0
 11 42  1  0
 11 43  1  0
 12 44  1  0
 12 45  1  0
 12 46  1  0
 13 47  1  0
 13 48  1  0
 13 49  1  0
 14 50  1  0
 14 51  1  0
 15 52  1  0
 15 53  1  0
 18 54  1  0
 19 55  1  0
 20 56  1  0
 21 57  1  0
 26 58  1  0
 27 59  1  0
 28 60  1  0
M  END
$$$$
