
     RDKit          3D

 72 74  0  0  0  0  0  0  0  0999 V2000
    1.3220    2.1590    0.0537 O   0  0  0  0  0  0  0  0  0  0  0  0
    1.4582    0.9043    0.0171 C   0  0  0  0  0  0  0  0  0  0  0  0
    2.8191    0.3236    0.1223 C   0  0  0  0  0  0  0  0  0  0  0  0
    3.9100    1.0856    0.2885 C   0  0  0  0  0  0  0  0  0  0  0  0
    5.2799    0.5280    0.3942 C   0  0  0  0  0  0  0  0  0  0  0  0
    5.5244   -0.7629    0.8998 C   0  0  0  0  0  0  0  0  0  0  0  0
    6.8296   -1.2519    0.9819 C   0  0  0  0  0  0  0  0  0  0  0  0
    7.9045   -0.4590    0.5772 C   0  0  0  0  0  0  0  0  0  0  0  0
    7.6879    0.8481    0.1109 C   0  0  0  0  0  0  0  0  0  0  0  0
    8.8441    1.6889   -0.3700 C   0  0  0  0  0  0  0  0  0  0  0  0
    8.5832    3.0349   -0.1778 F   0  0  0  0  0  0  0  0  0  0  0  0
    9.0462    1.4570   -1.7172 F   0  0  0  0  0  0  0  0  0  0  0  0
   10.0008    1.3709    0.3200 F   0  0  0  0  0  0  0  0  0  0  0  0
    6.3695    1.3273    0.0096 C   0  0  0  0  0  0  0  0  0  0  0  0
    0.2857    0.0695   -0.1340 N   0  0  0  0  0  0  0  0  0  0  0  0
    0.3041   -1.3689    0.1774 C   0  0  0  0  0  0  0  0  0  0  0  0
    0.5408   -2.2013   -1.0916 C   0  0  0  0  0  0  0  0  0  0  0  0
    0.1809   -3.6859   -0.8853 C   0  0  0  0  0  0  0  0  0  0  0  0
   -1.2785   -4.0074   -1.2504 C   0  0  0  0  0  0  0  0  0  0  0  0
   -2.1841   -3.1987   -0.5228 O   0  0  0  0  0  0  0  0  0  0  0  0
   -2.6776   -3.8831    0.6092 C   0  0  0  0  0  0  0  0  0  0  0  0
   -3.5034   -2.9312    1.5034 C   0  0  0  0  0  0  0  0  0  0  0  0
   -3.9637   -3.6496    2.6201 O   0  0  0  0  0  0  0  0  0  0  0  0
   -4.7329   -2.2808    0.7978 C   0  0  0  0  0  0  0  0  0  0  0  0
   -5.3938   -3.2171   -0.0208 O   0  0  0  0  0  0  0  0  0  0  0  0
   -4.3926   -0.9750    0.0209 C   0  0  0  0  0  0  0  0  0  0  0  0
   -5.4325   -0.6965   -0.8858 O   0  0  0  0  0  0  0  0  0  0  0  0
   -4.2217    0.2372    0.9704 C   0  0  0  0  0  0  0  0  0  0  0  0
   -3.2420    1.2013    0.4416 N   0  0  0  0  0  0  0  0  0  0  0  0
   -3.6793    2.2517   -0.4494 C   0  0  0  0  0  0  0  0  0  0  0  0
   -4.7120    2.0839   -1.1524 O   0  0  0  0  0  0  0  0  0  0  0  0
   -2.9504    3.5316   -0.5662 C   0  0  0  0  0  0  0  0  0  0  0  0
   -2.5318    4.2271    0.5804 C   0  0  0  0  0  0  0  0  0  0  0  0
   -1.8622    5.4488    0.4586 C   0  0  0  0  0  0  0  0  0  0  0  0
   -1.6215    5.9935   -0.8063 C   0  0  0  0  0  0  0  0  0  0  0  0
   -0.9807    7.1833   -0.9218 F   0  0  0  0  0  0  0  0  0  0  0  0
   -2.0559    5.3190   -1.9510 C   0  0  0  0  0  0  0  0  0  0  0  0
   -2.7230    4.0958   -1.8328 C   0  0  0  0  0  0  0  0  0  0  0  0
   -1.8149    1.0157    0.7611 C   0  0  0  0  0  0  0  0  0  0  0  0
   -1.0037    0.6768   -0.4974 C   0  0  0  0  0  0  0  0  0  0  0  0
    2.9365   -0.7440    0.0253 H   0  0  0  0  0  0  0  0  0  0  0  0
    3.8081    2.1647    0.3042 H   0  0  0  0  0  0  0  0  0  0  0  0
    4.7156   -1.3909    1.2486 H   0  0  0  0  0  0  0  0  0  0  0  0
    7.0097   -2.2503    1.3605 H   0  0  0  0  0  0  0  0  0  0  0  0
    8.9057   -0.8662    0.6327 H   0  0  0  0  0  0  0  0  0  0  0  0
    6.1879    2.3209   -0.3831 H   0  0  0  0  0  0  0  0  0  0  0  0
    1.0690   -1.6023    0.9479 H   0  0  0  0  0  0  0  0  0  0  0  0
   -0.6614   -1.6550    0.6368 H   0  0  0  0  0  0  0  0  0  0  0  0
   -0.0411   -1.7834   -1.9418 H   0  0  0  0  0  0  0  0  0  0  0  0
    1.6139   -2.1279   -1.3683 H   0  0  0  0  0  0  0  0  0  0  0  0
    0.3907   -4.0002    0.1604 H   0  0  0  0  0  0  0  0  0  0  0  0
    0.8345   -4.2999   -1.5424 H   0  0  0  0  0  0  0  0  0  0  0  0
   -1.4623   -5.1011   -1.1260 H   0  0  0  0  0  0  0  0  0  0  0  0
   -1.4261   -3.7970   -2.3316 H   0  0  0  0  0  0  0  0  0  0  0  0
   -1.8345   -4.2791    1.2204 H   0  0  0  0  0  0  0  0  0  0  0  0
   -3.3141   -4.7407    0.2962 H   0  0  0  0  0  0  0  0  0  0  0  0
   -2.8238   -2.1216    1.8545 H   0  0  0  0  0  0  0  0  0  0  0  0
   -3.1922   -3.7588    3.2353 H   0  0  0  0  0  0  0  0  0  0  0  0
   -5.4604   -1.9949    1.5909 H   0  0  0  0  0  0  0  0  0  0  0  0
   -4.8848   -3.2954   -0.8694 H   0  0  0  0  0  0  0  0  0  0  0  0
   -3.4435   -1.1406   -0.5283 H   0  0  0  0  0  0  0  0  0  0  0  0
   -5.0200   -0.5133   -1.7703 H   0  0  0  0  0  0  0  0  0  0  0  0
   -3.9031   -0.0892    1.9833 H   0  0  0  0  0  0  0  0  0  0  0  0
   -5.2019    0.7391    1.1279 H   0  0  0  0  0  0  0  0  0  0  0  0
   -2.7425    3.8367    1.5679 H   0  0  0  0  0  0  0  0  0  0  0  0
   -1.5407    5.9784    1.3461 H   0  0  0  0  0  0  0  0  0  0  0  0
   -1.8830    5.7459   -2.9314 H   0  0  0  0  0  0  0  0  0  0  0  0
   -3.0553    3.5853   -2.7287 H   0  0  0  0  0  0  0  0  0  0  0  0
   -1.6970    0.2004    1.5044 H   0  0  0  0  0  0  0  0  0  0  0  0
   -1.3978    1.9204    1.2421 H   0  0  0  0  0  0  0  0  0  0  0  0
   -1.5713   -0.0266   -1.1406 H   0  0  0  0  0  0  0  0  0  0  0  0
   -0.8474    1.5933   -1.1065 H   0  0  0  0  0  0  0  0  0  0  0  0
  1  2  2  0
  2  3  1  0
  3  4  2  0
  4  5  1  0
  5  6  2  0
  6  7  1  0
  7  8  2  0
  8  9  1  0
  9 10  1  0
 10 11  1  0
 10 12  1  0
 10 13  1  0
  9 14  2  0
  2 15  1  0
 15 16  1  0
 16 17  1  0
 17 18  1  0
 18 19  1  0
 19 20  1  0
 20 21  1  0
 21 22  1  0
 22 23  1  0
 22 24  1  0
 24 25  1  0
 24 26  1  0
 26 27  1  0
 26 28  1  0
 28 29  1  0
 29 30  1  0
 30 31  2  0
 30 32  1  0
 32 33  2  0
 33 34  1  0
 34 35  2  0
 35 36  1  0
 35 37  1  0
 37 38  2  0
 29 39  1  0
 39 40  1  0
 14  5  1  0
 40 15  1  0
 38 32  1  0
  3 41  1  0
  4 42  1  0
  6 43  1  0
  7 44  1  0
  8 45  1  0
 14 46  1  0
 16 47  1  0
 16 48  1  0
 17 49  1  0
 17 50  1  0
 18 51  1  0
 18 52  1  0
 19 53  1  0
 19 54  1  0
 21 55  1  0
 21 56  1  0
 22 57  1  0
 23 58  1  0
 24 59  1  0
 25 60  1  0
 26 61  1  0
 27 62  1  0
 28 63  1  0
 28 64  1  0
 33 65  1  0
 34 66  1  0
 37 67  1  0
 38 68  1  0
 39 69  1  0
 39 70  1  0
 40 71  1  0
 40 72  1  0
M  END
$$$$
