
     RDKit          3D

 64 67  0  0  0  0  0  0  0  0999 V2000
    3.4360    1.0315   -1.1992 O   0  0  0  0  0  0  0  0  0  0  0  0
    3.2736    0.2985   -0.1852 C   0  0  0  0  0  0  0  0  0  0  0  0
    4.1848   -0.8502   -0.0053 C   0  0  0  0  0  0  0  0  0  0  0  0
    4.8992   -1.0235    1.1913 C   0  0  0  0  0  0  0  0  0  0  0  0
    5.7546   -2.1191    1.3476 C   0  0  0  0  0  0  0  0  0  0  0  0
    5.9156   -3.0376    0.3056 C   0  0  0  0  0  0  0  0  0  0  0  0
    6.7444   -4.1004    0.4597 F   0  0  0  0  0  0  0  0  0  0  0  0
    5.2262   -2.8570   -0.8974 C   0  0  0  0  0  0  0  0  0  0  0  0
    4.3691   -1.7632   -1.0567 C   0  0  0  0  0  0  0  0  0  0  0  0
    2.2105    0.5967    0.7536 N   0  0  0  0  0  0  0  0  0  0  0  0
    1.7500   -0.4099    1.7470 C   0  0  0  0  0  0  0  0  0  0  0  0
    1.4040   -1.7925    1.1106 C   0  0  0  0  0  0  0  0  0  0  0  0
    0.0494   -2.4113    1.5809 C   0  0  0  0  0  0  0  0  0  0  0  0
   -0.9759   -2.6813    0.4385 C   0  0  0  0  0  0  0  0  0  0  0  0
   -1.9162   -1.5079   -0.0512 C   0  0  0  0  0  0  0  0  0  0  0  0
   -2.2510   -1.7976   -1.5465 C   0  0  0  0  0  0  0  0  0  0  0  0
   -3.1424   -0.8506   -2.0791 O   0  0  0  0  0  0  0  0  0  0  0  0
   -1.1933   -0.1360    0.0495 C   0  0  0  0  0  0  0  0  0  0  0  0
   -1.5883    0.5847    1.3444 C   0  0  0  0  0  0  0  0  0  0  0  0
   -2.9612    0.9988    1.1610 N   0  0  0  0  0  0  0  0  0  0  0  0
   -3.9374   -0.0636    0.8515 C   0  0  0  0  0  0  0  0  0  0  0  0
   -3.2653   -1.4771    0.7734 C   0  0  0  0  0  0  0  0  0  0  0  0
   -3.2289    2.3655    0.7956 C   0  0  0  0  0  0  0  0  0  0  0  0
   -3.9622    3.0649    1.5442 O   0  0  0  0  0  0  0  0  0  0  0  0
   -2.8015    2.9216   -0.5190 C   0  0  0  0  0  0  0  0  0  0  0  0
   -3.8183    3.2280   -1.4386 C   0  0  0  0  0  0  0  0  0  0  0  0
   -3.5106    3.6885   -2.7185 C   0  0  0  0  0  0  0  0  0  0  0  0
   -2.1820    3.8546   -3.1012 C   0  0  0  0  0  0  0  0  0  0  0  0
   -1.1532    3.5756   -2.2010 C   0  0  0  0  0  0  0  0  0  0  0  0
   -1.4402    3.1199   -0.8994 C   0  0  0  0  0  0  0  0  0  0  0  0
   -0.3930    2.8680    0.0068 O   0  0  0  0  0  0  0  0  0  0  0  0
    0.9383    2.4830   -0.3683 C   0  0  0  0  0  0  0  0  0  0  0  0
    1.7533    2.0037    0.8636 C   0  0  0  0  0  0  0  0  0  0  0  0
    4.8080   -0.3051    1.9964 H   0  0  0  0  0  0  0  0  0  0  0  0
    6.2961   -2.2531    2.2749 H   0  0  0  0  0  0  0  0  0  0  0  0
    5.3535   -3.5655   -1.7070 H   0  0  0  0  0  0  0  0  0  0  0  0
    3.8353   -1.6363   -1.9911 H   0  0  0  0  0  0  0  0  0  0  0  0
    2.5351   -0.5489    2.5180 H   0  0  0  0  0  0  0  0  0  0  0  0
    0.8827   -0.0171    2.3095 H   0  0  0  0  0  0  0  0  0  0  0  0
    2.2193   -2.5000    1.3797 H   0  0  0  0  0  0  0  0  0  0  0  0
    1.4433   -1.7408    0.0017 H   0  0  0  0  0  0  0  0  0  0  0  0
   -0.4082   -1.8687    2.4245 H   0  0  0  0  0  0  0  0  0  0  0  0
    0.2922   -3.4056    2.0147 H   0  0  0  0  0  0  0  0  0  0  0  0
   -1.6240   -3.5281    0.7586 H   0  0  0  0  0  0  0  0  0  0  0  0
   -0.3954   -3.0900   -0.4182 H   0  0  0  0  0  0  0  0  0  0  0  0
   -2.6597   -2.8307   -1.6570 H   0  0  0  0  0  0  0  0  0  0  0  0
   -1.3178   -1.7603   -2.1496 H   0  0  0  0  0  0  0  0  0  0  0  0
   -4.0431   -1.2673   -2.0893 H   0  0  0  0  0  0  0  0  0  0  0  0
   -1.4950    0.5011   -0.8037 H   0  0  0  0  0  0  0  0  0  0  0  0
   -0.1153   -0.2065   -0.0843 H   0  0  0  0  0  0  0  0  0  0  0  0
   -0.9519    1.4285    1.6316 H   0  0  0  0  0  0  0  0  0  0  0  0
   -1.5380   -0.0759    2.2272 H   0  0  0  0  0  0  0  0  0  0  0  0
   -4.7238   -0.0742    1.6366 H   0  0  0  0  0  0  0  0  0  0  0  0
   -4.4336    0.1609   -0.1165 H   0  0  0  0  0  0  0  0  0  0  0  0
   -3.0644   -1.8062    1.8163 H   0  0  0  0  0  0  0  0  0  0  0  0
   -3.9946   -2.2084    0.3626 H   0  0  0  0  0  0  0  0  0  0  0  0
   -4.8590    3.0872   -1.1717 H   0  0  0  0  0  0  0  0  0  0  0  0
   -4.3055    3.9106   -3.4190 H   0  0  0  0  0  0  0  0  0  0  0  0
   -1.9485    4.2047   -4.0983 H   0  0  0  0  0  0  0  0  0  0  0  0
   -0.1322    3.7323   -2.5206 H   0  0  0  0  0  0  0  0  0  0  0  0
    0.8847    1.6832   -1.1368 H   0  0  0  0  0  0  0  0  0  0  0  0
    1.4532    3.3569   -0.8213 H   0  0  0  0  0  0  0  0  0  0  0  0
    2.6473    2.6567    0.9787 H   0  0  0  0  0  0  0  0  0  0  0  0
    1.1713    2.1620    1.7952 H   0  0  0  0  0  0  0  0  0  0  0  0
  1  2  2  0
  2  3  1  0
  3  4  2  0
  4  5  1  0
  5  6  2  0
  6  7  1  0
  6  8  1  0
  8  9  2  0
  2 10  1  0
 10 11  1  0
 11 12  1  0
 12 13  1  0
 13 14  1  0
 14 15  1  0
 15 16  1  0
 16 17  1  0
 15 18  1  0
 18 19  1  0
 19 20  1  0
 20 21  1  0
 21 22  1  0
 20 23  1  0
 23 24  2  0
 23 25  1  0
 25 26  2  0
 26 27  1  0
 27 28  2  0
 28 29  1  0
 29 30  2  0
 30 31  1  0
 31 32  1  0
 32 33  1  0
  9  3  1  0
 33 10  1  0
 22 15  1  0
 30 25  1  0
  4 34  1  0
  5 35  1  0
  8 36  1  0
  9 37  1  0
 11 38  1  0
 11 39  1  0
 12 40  1  0
 12 41  1  0
 13 42  1  0
 13 43  1  0
 14 44  1  0
 14 45  1  0
 16 46  1  0
 16 47  1  0
 17 48  1  0
 18 49  1  0
 18 50  1  0
 19 51  1  0
 19 52  1  0
 21 53  1  0
 21 54  1  0
 22 55  1  0
 22 56  1  0
 26 57  1  0
 27 58  1  0
 28 59  1  0
 29 60  1  0
 32 61  1  0
 32 62  1  0
 33 63  1  0
 33 64  1  0
M  END
$$$$
