
     RDKit          3D

 70 73  0  0  0  0  0  0  0  0999 V2000
   -2.9009    4.4640   -2.1371 C   0  0  0  0  0  0  0  0  0  0  0  0
   -2.4848    3.1302   -1.9493 O   0  0  0  0  0  0  0  0  0  0  0  0
   -3.0283    2.6330   -0.7414 C   0  0  0  0  0  0  0  0  0  0  0  0
   -2.5005    1.1973   -0.4611 C   0  0  0  0  0  0  0  0  0  0  0  0
   -0.9340    1.1772   -0.4306 C   0  0  0  0  0  0  0  0  0  0  0  0
   -0.2941    2.2712    0.4466 C   0  0  0  0  0  0  0  0  0  0  0  0
    1.1791    1.9660    0.7796 C   0  0  0  0  0  0  0  0  0  0  0  0
    1.3497    1.1185    2.0586 C   0  0  0  0  0  0  0  0  0  0  0  0
    1.7123   -0.2792    1.7605 N   0  0  0  0  0  0  0  0  0  0  0  0
    3.0777   -0.6317    1.4262 C   0  0  0  0  0  0  0  0  0  0  0  0
    3.4571   -1.8320    1.4986 O   0  0  0  0  0  0  0  0  0  0  0  0
    4.0482    0.3733    0.9595 C   0  0  0  0  0  0  0  0  0  0  0  0
    4.3671    0.4500   -0.4037 C   0  0  0  0  0  0  0  0  0  0  0  0
    5.2802    1.4048   -0.8602 C   0  0  0  0  0  0  0  0  0  0  0  0
    5.8954    2.2850    0.0453 C   0  0  0  0  0  0  0  0  0  0  0  0
    6.8623    3.3271   -0.4321 C   0  0  0  0  0  0  0  0  0  0  0  0
    5.5946    2.1893    1.4130 C   0  0  0  0  0  0  0  0  0  0  0  0
    4.6852    1.2303    1.8691 C   0  0  0  0  0  0  0  0  0  0  0  0
    0.7270   -1.3399    2.0379 C   0  0  0  0  0  0  0  0  0  0  0  0
    0.5780   -2.3152    0.8605 C   0  0  0  0  0  0  0  0  0  0  0  0
   -0.7726   -2.7691    0.7916 O   0  0  0  0  0  0  0  0  0  0  0  0
   -1.2385   -3.8310   -0.0018 C   0  0  0  0  0  0  0  0  0  0  0  0
   -0.3650   -4.7642   -0.5957 C   0  0  0  0  0  0  0  0  0  0  0  0
   -0.8754   -5.8600   -1.2954 C   0  0  0  0  0  0  0  0  0  0  0  0
   -2.2550   -6.0334   -1.4188 C   0  0  0  0  0  0  0  0  0  0  0  0
   -3.1300   -5.0974   -0.8646 C   0  0  0  0  0  0  0  0  0  0  0  0
   -2.6292   -3.9824   -0.1760 C   0  0  0  0  0  0  0  0  0  0  0  0
   -3.5655   -2.9555    0.3237 C   0  0  0  0  0  0  0  0  0  0  0  0
   -4.5518   -3.3138    1.0240 O   0  0  0  0  0  0  0  0  0  0  0  0
   -3.3858   -1.5644   -0.0116 N   0  0  0  0  0  0  0  0  0  0  0  0
   -3.9970   -0.5202    0.8197 C   0  0  0  0  0  0  0  0  0  0  0  0
   -3.0644    0.6955    0.9208 C   0  0  0  0  0  0  0  0  0  0  0  0
   -2.8037   -1.2087   -1.3146 C   0  0  0  0  0  0  0  0  0  0  0  0
   -2.9863    0.2804   -1.6257 C   0  0  0  0  0  0  0  0  0  0  0  0
   -2.5021    4.8249   -3.1079 H   0  0  0  0  0  0  0  0  0  0  0  0
   -4.0105    4.5405   -2.1790 H   0  0  0  0  0  0  0  0  0  0  0  0
   -2.4941    5.1268   -1.3414 H   0  0  0  0  0  0  0  0  0  0  0  0
   -2.7693    3.3002    0.1133 H   0  0  0  0  0  0  0  0  0  0  0  0
   -4.1409    2.6006   -0.8083 H   0  0  0  0  0  0  0  0  0  0  0  0
   -0.5298    1.2941   -1.4607 H   0  0  0  0  0  0  0  0  0  0  0  0
   -0.5952    0.1839   -0.0729 H   0  0  0  0  0  0  0  0  0  0  0  0
   -0.3271    3.2292   -0.1173 H   0  0  0  0  0  0  0  0  0  0  0  0
   -0.8765    2.4324    1.3787 H   0  0  0  0  0  0  0  0  0  0  0  0
    1.6953    2.9372    0.9460 H   0  0  0  0  0  0  0  0  0  0  0  0
    1.6792    1.4917   -0.0920 H   0  0  0  0  0  0  0  0  0  0  0  0
    2.1321    1.5709    2.7010 H   0  0  0  0  0  0  0  0  0  0  0  0
    0.4353    1.1634    2.6880 H   0  0  0  0  0  0  0  0  0  0  0  0
    3.8954   -0.2188   -1.1143 H   0  0  0  0  0  0  0  0  0  0  0  0
    5.5034    1.4585   -1.9186 H   0  0  0  0  0  0  0  0  0  0  0  0
    6.9898    3.2897   -1.5347 H   0  0  0  0  0  0  0  0  0  0  0  0
    6.4887    4.3353   -0.1563 H   0  0  0  0  0  0  0  0  0  0  0  0
    7.8522    3.1644    0.0434 H   0  0  0  0  0  0  0  0  0  0  0  0
    6.0671    2.8560    2.1251 H   0  0  0  0  0  0  0  0  0  0  0  0
    4.4755    1.1594    2.9293 H   0  0  0  0  0  0  0  0  0  0  0  0
    1.0376   -1.9014    2.9457 H   0  0  0  0  0  0  0  0  0  0  0  0
   -0.2672   -0.8964    2.2618 H   0  0  0  0  0  0  0  0  0  0  0  0
    0.8410   -1.8211   -0.1005 H   0  0  0  0  0  0  0  0  0  0  0  0
    1.2627   -3.1709    1.0344 H   0  0  0  0  0  0  0  0  0  0  0  0
    0.7075   -4.6688   -0.5077 H   0  0  0  0  0  0  0  0  0  0  0  0
   -0.1998   -6.5815   -1.7376 H   0  0  0  0  0  0  0  0  0  0  0  0
   -2.6470   -6.8871   -1.9569 H   0  0  0  0  0  0  0  0  0  0  0  0
   -4.1978   -5.2285   -0.9944 H   0  0  0  0  0  0  0  0  0  0  0  0
   -4.9683   -0.2154    0.3753 H   0  0  0  0  0  0  0  0  0  0  0  0
   -4.1953   -0.9003    1.8454 H   0  0  0  0  0  0  0  0  0  0  0  0
   -2.2361    0.4119    1.6058 H   0  0  0  0  0  0  0  0  0  0  0  0
   -3.6162    1.5030    1.4511 H   0  0  0  0  0  0  0  0  0  0  0  0
   -1.7234   -1.4567   -1.3306 H   0  0  0  0  0  0  0  0  0  0  0  0
   -3.2989   -1.7989   -2.1161 H   0  0  0  0  0  0  0  0  0  0  0  0
   -2.4511    0.5207   -2.5704 H   0  0  0  0  0  0  0  0  0  0  0  0
   -4.0669    0.4557   -1.8235 H   0  0  0  0  0  0  0  0  0  0  0  0
  1  2  1  0
  2  3  1  0
  3  4  1  0
  4  5  1  0
  5  6  1  0
  6  7  1  0
  7  8  1  0
  8  9  1  0
  9 10  1  0
 10 11  2  0
 10 12  1  0
 12 13  2  0
 13 14  1  0
 14 15  2  0
 15 16  1  0
 15 17  1  0
 17 18  2  0
  9 19  1  0
 19 20  1  0
 20 21  1  0
 21 22  1  0
 22 23  2  0
 23 24  1  0
 24 25  2  0
 25 26  1  0
 26 27  2  0
 27 28  1  0
 28 29  2  0
 28 30  1  0
 30 31  1  0
 31 32  1  0
 30 33  1  0
 33 34  1  0
 32  4  1  0
 34  4  1  0
 18 12  1  0
 27 22  1  0
  1 35  1  0
  1 36  1  0
  1 37  1  0
  3 38  1  0
  3 39  1  0
  5 40  1  0
  5 41  1  0
  6 42  1  0
  6 43  1  0
  7 44  1  0
  7 45  1  0
  8 46  1  0
  8 47  1  0
 13 48  1  0
 14 49  1  0
 16 50  1  0
 16 51  1  0
 16 52  1  0
 17 53  1  0
 18 54  1  0
 19 55  1  0
 19 56  1  0
 20 57  1  0
 20 58  1  0
 23 59  1  0
 24 60  1  0
 25 61  1  0
 26 62  1  0
 31 63  1  0
 31 64  1  0
 32 65  1  0
 32 66  1  0
 33 67  1  0
 33 68  1  0
 34 69  1  0
 34 70  1  0
M  END
$$$$
