
     RDKit          3D

 68 71  0  0  0  0  0  0  0  0999 V2000
   -2.3632    5.0315   -1.0249 C   0  0  0  0  0  0  0  0  0  0  0  0
   -0.9141    4.7315   -0.6468 C   0  0  0  0  0  0  0  0  0  0  0  0
   -0.7948    3.5800    0.3680 C   0  0  0  0  0  0  0  0  0  0  0  0
   -1.1958    2.2185   -0.2250 C   0  0  0  0  0  0  0  0  0  0  0  0
   -0.9569    1.1288    0.7388 N   0  0  0  0  0  0  0  0  0  0  0  0
   -1.8995    0.9755    1.8633 C   0  0  0  0  0  0  0  0  0  0  0  0
   -3.2432    0.3981    1.4168 C   0  0  0  0  0  0  0  0  0  0  0  0
   -3.0261   -0.7605    0.6156 O   0  0  0  0  0  0  0  0  0  0  0  0
   -3.9968   -1.7167    0.2915 C   0  0  0  0  0  0  0  0  0  0  0  0
   -5.0027   -2.0867    1.2079 C   0  0  0  0  0  0  0  0  0  0  0  0
   -5.9289   -3.0814    0.8768 C   0  0  0  0  0  0  0  0  0  0  0  0
   -5.8623   -3.7149   -0.3666 C   0  0  0  0  0  0  0  0  0  0  0  0
   -4.8706   -3.3595   -1.2815 C   0  0  0  0  0  0  0  0  0  0  0  0
   -3.9375   -2.3554   -0.9667 C   0  0  0  0  0  0  0  0  0  0  0  0
   -2.9218   -1.9399   -2.0069 C   0  0  0  0  0  0  0  0  0  0  0  0
   -1.5906   -2.7115   -1.8879 C   0  0  0  0  0  0  0  0  0  0  0  0
   -0.5614   -2.0942   -0.9197 C   0  0  0  0  0  0  0  0  0  0  0  0
    0.0393   -0.7744   -1.4557 C   0  0  0  0  0  0  0  0  0  0  0  0
    1.0344   -0.0552   -0.4986 C   0  0  0  0  0  0  0  0  0  0  0  0
    2.2064   -1.0389   -0.1777 C   0  0  0  0  0  0  0  0  0  0  0  0
    3.3606   -0.3254    0.3724 N   0  0  0  0  0  0  0  0  0  0  0  0
    4.1987   -0.9557    1.3589 C   0  0  0  0  0  0  0  0  0  0  0  0
    3.6634   -1.5109    2.3554 O   0  0  0  0  0  0  0  0  0  0  0  0
    5.6723   -0.9685    1.2186 C   0  0  0  0  0  0  0  0  0  0  0  0
    6.5022   -1.1950    2.3257 C   0  0  0  0  0  0  0  0  0  0  0  0
    7.8840   -1.2164    2.1321 C   0  0  0  0  0  0  0  0  0  0  0  0
    8.4004   -1.0326    0.8871 N   0  0  0  0  0  0  0  0  0  0  0  0
    7.5848   -0.8279   -0.1787 C   0  0  0  0  0  0  0  0  0  0  0  0
    6.2356   -0.7988   -0.0090 N   0  0  0  0  0  0  0  0  0  0  0  0
    3.7675    0.9160   -0.2846 C   0  0  0  0  0  0  0  0  0  0  0  0
    2.5342    1.7805   -0.4910 C   0  0  0  0  0  0  0  0  0  0  0  0
    1.5437    1.0725   -1.2146 O   0  0  0  0  0  0  0  0  0  0  0  0
    0.2923    0.3936    0.7734 C   0  0  0  0  0  0  0  0  0  0  0  0
    0.8316    0.1733    1.8972 O   0  0  0  0  0  0  0  0  0  0  0  0
   -2.4064    5.9734   -1.6141 H   0  0  0  0  0  0  0  0  0  0  0  0
   -2.9817    5.1594   -0.1142 H   0  0  0  0  0  0  0  0  0  0  0  0
   -2.7796    4.2149   -1.6499 H   0  0  0  0  0  0  0  0  0  0  0  0
   -0.3298    4.5046   -1.5652 H   0  0  0  0  0  0  0  0  0  0  0  0
   -0.4760    5.6478   -0.1882 H   0  0  0  0  0  0  0  0  0  0  0  0
    0.2585    3.5312    0.7167 H   0  0  0  0  0  0  0  0  0  0  0  0
   -1.4239    3.8148    1.2526 H   0  0  0  0  0  0  0  0  0  0  0  0
   -0.6399    2.0635   -1.1659 H   0  0  0  0  0  0  0  0  0  0  0  0
   -2.2692    2.2300   -0.5089 H   0  0  0  0  0  0  0  0  0  0  0  0
   -1.4832    0.2931    2.6339 H   0  0  0  0  0  0  0  0  0  0  0  0
   -2.0681    1.9480    2.3634 H   0  0  0  0  0  0  0  0  0  0  0  0
   -3.8211    1.1472    0.8347 H   0  0  0  0  0  0  0  0  0  0  0  0
   -3.8233    0.1522    2.3279 H   0  0  0  0  0  0  0  0  0  0  0  0
   -5.0570   -1.6450    2.1935 H   0  0  0  0  0  0  0  0  0  0  0  0
   -6.6935   -3.3705    1.5860 H   0  0  0  0  0  0  0  0  0  0  0  0
   -6.5888   -4.4749   -0.6283 H   0  0  0  0  0  0  0  0  0  0  0  0
   -4.8374   -3.8608   -2.2434 H   0  0  0  0  0  0  0  0  0  0  0  0
   -2.7816   -0.8413   -1.9746 H   0  0  0  0  0  0  0  0  0  0  0  0
   -3.3388   -2.1505   -3.0154 H   0  0  0  0  0  0  0  0  0  0  0  0
   -1.7976   -3.7572   -1.5738 H   0  0  0  0  0  0  0  0  0  0  0  0
   -1.1240   -2.7764   -2.8962 H   0  0  0  0  0  0  0  0  0  0  0  0
    0.2539   -2.8409   -0.8131 H   0  0  0  0  0  0  0  0  0  0  0  0
   -0.9984   -1.9613    0.0862 H   0  0  0  0  0  0  0  0  0  0  0  0
   -0.7818   -0.0792   -1.7099 H   0  0  0  0  0  0  0  0  0  0  0  0
    0.5591   -0.9925   -2.4187 H   0  0  0  0  0  0  0  0  0  0  0  0
    1.8698   -1.8270    0.5236 H   0  0  0  0  0  0  0  0  0  0  0  0
    2.5330   -1.5361   -1.1151 H   0  0  0  0  0  0  0  0  0  0  0  0
    6.0911   -1.3364    3.3182 H   0  0  0  0  0  0  0  0  0  0  0  0
    8.5449   -1.3851    2.9702 H   0  0  0  0  0  0  0  0  0  0  0  0
    8.0093   -0.6889   -1.1657 H   0  0  0  0  0  0  0  0  0  0  0  0
    4.5059    1.4677    0.3378 H   0  0  0  0  0  0  0  0  0  0  0  0
    4.2236    0.6817   -1.2703 H   0  0  0  0  0  0  0  0  0  0  0  0
    2.8091    2.6825   -1.0677 H   0  0  0  0  0  0  0  0  0  0  0  0
    2.1579    2.1329    0.4903 H   0  0  0  0  0  0  0  0  0  0  0  0
  1  2  1  0
  2  3  1  0
  3  4  1  0
  4  5  1  0
  5  6  1  0
  6  7  1  0
  7  8  1  0
  8  9  1  0
  9 10  2  0
 10 11  1  0
 11 12  2  0
 12 13  1  0
 13 14  2  0
 14 15  1  0
 15 16  1  0
 16 17  1  0
 17 18  1  0
 18 19  1  0
 19 20  1  0
 20 21  1  0
 21 22  1  0
 22 23  2  0
 22 24  1  0
 24 25  2  0
 25 26  1  0
 26 27  2  0
 27 28  1  0
 28 29  2  0
 21 30  1  0
 30 31  1  0
 31 32  1  0
 19 33  1  0
 33 34  2  0
 33  5  1  0
 14  9  1  0
 32 19  1  0
 29 24  1  0
  1 35  1  0
  1 36  1  0
  1 37  1  0
  2 38  1  0
  2 39  1  0
  3 40  1  0
  3 41  1  0
  4 42  1  0
  4 43  1  0
  6 44  1  0
  6 45  1  0
  7 46  1  0
  7 47  1  0
 10 48  1  0
 11 49  1  0
 12 50  1  0
 13 51  1  0
 15 52  1  0
 15 53  1  0
 16 54  1  0
 16 55  1  0
 17 56  1  0
 17 57  1  0
 18 58  1  0
 18 59  1  0
 20 60  1  0
 20 61  1  0
 25 62  1  0
 26 63  1  0
 28 64  1  0
 30 65  1  0
 30 66  1  0
 31 67  1  0
 31 68  1  0
M  END
$$$$
