
     RDKit          3D

 94 99  0  0  0  0  0  0  0  0999 V2000
   -5.9132    2.5015    0.7604 C   0  0  0  0  0  0  0  0  0  0  0  0
   -4.5982    2.1654    0.1999 N   0  0  0  0  0  0  0  0  0  0  0  0
   -3.5989    3.1933    0.1276 C   0  0  0  0  0  0  0  0  0  0  0  0
   -3.5059    3.8964   -0.9135 O   0  0  0  0  0  0  0  0  0  0  0  0
   -2.6488    3.4368    1.2690 C   0  0  0  0  0  0  0  0  0  0  0  0
   -3.0264    3.0216    2.6839 C   0  0  0  0  0  0  0  0  0  0  0  0
   -3.1022    4.4873    2.2765 C   0  0  0  0  0  0  0  0  0  0  0  0
   -1.2115    3.4505    0.9898 N   0  0  0  0  0  0  0  0  0  0  0  0
   -0.5242    2.2845    0.5164 C   0  0  0  0  0  0  0  0  0  0  0  0
   -1.0895    1.4892   -0.2766 O   0  0  0  0  0  0  0  0  0  0  0  0
    0.8698    1.9932    0.9776 C   0  0  0  0  0  0  0  0  0  0  0  0
    0.9155    1.6599    2.4807 C   0  0  0  0  0  0  0  0  0  0  0  0
    0.4700    0.2302    2.8604 C   0  0  0  0  0  0  0  0  0  0  0  0
    1.3315   -0.8208    2.2044 C   0  0  0  0  0  0  0  0  0  0  0  0
    0.8906   -1.4887    1.2281 O   0  0  0  0  0  0  0  0  0  0  0  0
    2.6722   -1.0284    2.6713 N   0  0  0  0  0  0  0  0  0  0  0  0
    3.5732   -2.0094    2.0679 C   0  0  0  0  0  0  0  0  0  0  0  0
    3.9214   -1.6379    0.6470 C   0  0  0  0  0  0  0  0  0  0  0  0
    4.0643   -2.6423   -0.3227 C   0  0  0  0  0  0  0  0  0  0  0  0
    4.4511   -2.3205   -1.6254 C   0  0  0  0  0  0  0  0  0  0  0  0
    4.7150   -0.9893   -1.9795 C   0  0  0  0  0  0  0  0  0  0  0  0
    5.1684   -0.6529   -3.3846 C   0  0  0  0  0  0  0  0  0  0  0  0
    6.6376   -0.5507   -3.5350 N   0  0  0  0  0  0  0  0  0  0  0  0
    7.3511   -1.8171   -3.2738 C   0  0  0  0  0  0  0  0  0  0  0  0
    8.8777   -1.5956   -3.2951 C   0  0  0  0  0  0  0  0  0  0  0  0
    9.2012   -0.3764   -3.9339 O   0  0  0  0  0  0  0  0  0  0  0  0
    8.7189    0.7179   -3.1680 C   0  0  0  0  0  0  0  0  0  0  0  0
    7.2337    0.5602   -2.7746 C   0  0  0  0  0  0  0  0  0  0  0  0
    4.5533    0.0193   -1.0169 C   0  0  0  0  0  0  0  0  0  0  0  0
    4.1792   -0.3039    0.2900 C   0  0  0  0  0  0  0  0  0  0  0  0
   -0.9566    0.0006    2.5811 N   0  0  0  0  0  0  0  0  0  0  0  0
   -1.8994   -0.1850    3.6477 C   0  0  0  0  0  0  0  0  0  0  0  0
   -1.7611    0.4564    4.7264 O   0  0  0  0  0  0  0  0  0  0  0  0
   -2.9555   -1.2126    3.5548 C   0  0  0  0  0  0  0  0  0  0  0  0
   -3.0393   -2.1616    4.5865 C   0  0  0  0  0  0  0  0  0  0  0  0
   -3.9651   -3.2024    4.5232 C   0  0  0  0  0  0  0  0  0  0  0  0
   -4.8233   -3.3037    3.4314 C   0  0  0  0  0  0  0  0  0  0  0  0
   -4.7710   -2.3579    2.4073 C   0  0  0  0  0  0  0  0  0  0  0  0
   -3.8470   -1.2909    2.4589 C   0  0  0  0  0  0  0  0  0  0  0  0
   -3.8195   -0.2998    1.4621 O   0  0  0  0  0  0  0  0  0  0  0  0
   -4.6547   -0.3156    0.3010 C   0  0  0  0  0  0  0  0  0  0  0  0
   -4.3968    0.9244   -0.5694 C   0  0  0  0  0  0  0  0  0  0  0  0
   -5.2741    0.9267   -1.8402 C   0  0  0  0  0  0  0  0  0  0  0  0
   -4.7983   -0.0892   -2.8469 C   0  0  0  0  0  0  0  0  0  0  0  0
   -5.4214   -1.3447   -2.9433 C   0  0  0  0  0  0  0  0  0  0  0  0
   -4.9420   -2.3011   -3.8449 C   0  0  0  0  0  0  0  0  0  0  0  0
   -3.8403   -2.0101   -4.6547 C   0  0  0  0  0  0  0  0  0  0  0  0
   -3.2170   -0.7614   -4.5659 C   0  0  0  0  0  0  0  0  0  0  0  0
   -3.6893    0.1941   -3.6619 C   0  0  0  0  0  0  0  0  0  0  0  0
   -5.8868    3.4789    1.2829 H   0  0  0  0  0  0  0  0  0  0  0  0
   -6.2234    1.7348    1.4983 H   0  0  0  0  0  0  0  0  0  0  0  0
   -6.6696    2.5710   -0.0487 H   0  0  0  0  0  0  0  0  0  0  0  0
   -2.1763    2.8068    3.3647 H   0  0  0  0  0  0  0  0  0  0  0  0
   -4.0181    2.5426    2.8168 H   0  0  0  0  0  0  0  0  0  0  0  0
   -4.1419    4.8609    2.1659 H   0  0  0  0  0  0  0  0  0  0  0  0
   -2.3065    5.1075    2.7391 H   0  0  0  0  0  0  0  0  0  0  0  0
   -0.6320    4.2408    1.3555 H   0  0  0  0  0  0  0  0  0  0  0  0
    1.3126    1.1702    0.3747 H   0  0  0  0  0  0  0  0  0  0  0  0
    1.4905    2.8988    0.7957 H   0  0  0  0  0  0  0  0  0  0  0  0
    1.9654    1.7922    2.8224 H   0  0  0  0  0  0  0  0  0  0  0  0
    0.3083    2.3945    3.0535 H   0  0  0  0  0  0  0  0  0  0  0  0
    0.6421    0.1302    3.9560 H   0  0  0  0  0  0  0  0  0  0  0  0
    3.0200   -0.4671    3.4819 H   0  0  0  0  0  0  0  0  0  0  0  0
    3.0923   -3.0117    2.1104 H   0  0  0  0  0  0  0  0  0  0  0  0
    4.5123   -2.0604    2.6617 H   0  0  0  0  0  0  0  0  0  0  0  0
    3.8819   -3.6781   -0.0704 H   0  0  0  0  0  0  0  0  0  0  0  0
    4.5599   -3.1120   -2.3565 H   0  0  0  0  0  0  0  0  0  0  0  0
    4.6992    0.3035   -3.7022 H   0  0  0  0  0  0  0  0  0  0  0  0
    4.7865   -1.4182   -4.0963 H   0  0  0  0  0  0  0  0  0  0  0  0
    7.0729   -2.2413   -2.2857 H   0  0  0  0  0  0  0  0  0  0  0  0
    7.0776   -2.5542   -4.0605 H   0  0  0  0  0  0  0  0  0  0  0  0
    9.3632   -2.4283   -3.8489 H   0  0  0  0  0  0  0  0  0  0  0  0
    9.2902   -1.6148   -2.2585 H   0  0  0  0  0  0  0  0  0  0  0  0
    8.8317    1.6363   -3.7822 H   0  0  0  0  0  0  0  0  0  0  0  0
    9.3481    0.8581   -2.2597 H   0  0  0  0  0  0  0  0  0  0  0  0
    6.6917    1.5080   -2.9869 H   0  0  0  0  0  0  0  0  0  0  0  0
    7.1747    0.3582   -1.6820 H   0  0  0  0  0  0  0  0  0  0  0  0
    4.7364    1.0553   -1.2717 H   0  0  0  0  0  0  0  0  0  0  0  0
    4.0923    0.4887    1.0224 H   0  0  0  0  0  0  0  0  0  0  0  0
   -1.2550   -0.2319    1.6092 H   0  0  0  0  0  0  0  0  0  0  0  0
   -2.3624   -2.1155    5.4315 H   0  0  0  0  0  0  0  0  0  0  0  0
   -4.0065   -3.9405    5.3141 H   0  0  0  0  0  0  0  0  0  0  0  0
   -5.5355   -4.1163    3.3784 H   0  0  0  0  0  0  0  0  0  0  0  0
   -5.4627   -2.4633    1.5840 H   0  0  0  0  0  0  0  0  0  0  0  0
   -4.4249   -1.2311   -0.2844 H   0  0  0  0  0  0  0  0  0  0  0  0
   -5.7232   -0.3484    0.6009 H   0  0  0  0  0  0  0  0  0  0  0  0
   -3.3386    0.8694   -0.8950 H   0  0  0  0  0  0  0  0  0  0  0  0
   -5.2354    1.9325   -2.3111 H   0  0  0  0  0  0  0  0  0  0  0  0
   -6.3382    0.7400   -1.5778 H   0  0  0  0  0  0  0  0  0  0  0  0
   -6.2705   -1.5860   -2.3153 H   0  0  0  0  0  0  0  0  0  0  0  0
   -5.4224   -3.2675   -3.9130 H   0  0  0  0  0  0  0  0  0  0  0  0
   -3.4679   -2.7518   -5.3497 H   0  0  0  0  0  0  0  0  0  0  0  0
   -2.3654   -0.5354   -5.1940 H   0  0  0  0  0  0  0  0  0  0  0  0
   -3.1920    1.1551   -3.5931 H   0  0  0  0  0  0  0  0  0  0  0  0
  1  2  1  0
  2  3  1  0
  3  4  2  0
  3  5  1  0
  5  6  1  0
  6  7  1  0
  5  8  1  0
  8  9  1  0
  9 10  2  0
  9 11  1  0
 11 12  1  0
 12 13  1  0
 13 14  1  0
 14 15  2  0
 14 16  1  0
 16 17  1  0
 17 18  1  0
 18 19  2  0
 19 20  1  0
 20 21  2  0
 21 22  1  0
 22 23  1  0
 23 24  1  0
 24 25  1  0
 25 26  1  0
 26 27  1  0
 27 28  1  0
 21 29  1  0
 29 30  2  0
 13 31  1  0
 31 32  1  0
 32 33  2  0
 32 34  1  0
 34 35  2  0
 35 36  1  0
 36 37  2  0
 37 38  1  0
 38 39  2  0
 39 40  1  0
 40 41  1  0
 41 42  1  0
 42 43  1  0
 43 44  1  0
 44 45  2  0
 45 46  1  0
 46 47  2  0
 47 48  1  0
 48 49  2  0
 42  2  1  0
 49 44  1  0
  7  5  1  0
 30 18  1  0
 39 34  1  0
 28 23  1  0
  1 50  1  0
  1 51  1  0
  1 52  1  0
  6 53  1  0
  6 54  1  0
  7 55  1  0
  7 56  1  0
  8 57  1  0
 11 58  1  0
 11 59  1  0
 12 60  1  0
 12 61  1  0
 13 62  1  0
 16 63  1  0
 17 64  1  0
 17 65  1  0
 19 66  1  0
 20 67  1  0
 22 68  1  0
 22 69  1  0
 24 70  1  0
 24 71  1  0
 25 72  1  0
 25 73  1  0
 27 74  1  0
 27 75  1  0
 28 76  1  0
 28 77  1  0
 29 78  1  0
 30 79  1  0
 31 80  1  0
 35 81  1  0
 36 82  1  0
 37 83  1  0
 38 84  1  0
 41 85  1  0
 41 86  1  0
 42 87  1  0
 43 88  1  0
 43 89  1  0
 45 90  1  0
 46 91  1  0
 47 92  1  0
 48 93  1  0
 49 94  1  0
M  END
$$$$
