
     RDKit          3D

 73 76  0  0  0  0  0  0  0  0999 V2000
    0.2210    1.7263    0.9685 O   0  0  0  0  0  0  0  0  0  0  0  0
   -1.0190    1.6540    0.7509 C   0  0  0  0  0  0  0  0  0  0  0  0
   -1.4914    0.8781   -0.4525 C   0  0  0  0  0  0  0  0  0  0  0  0
   -1.4559   -0.6499   -0.2603 C   0  0  0  0  0  0  0  0  0  0  0  0
   -0.0452   -1.1875   -0.2299 C   0  0  0  0  0  0  0  0  0  0  0  0
    0.5507   -1.3553    0.8704 O   0  0  0  0  0  0  0  0  0  0  0  0
    0.6299   -1.4729   -1.4614 N   0  0  0  0  0  0  0  0  0  0  0  0
    1.7091   -2.4526   -1.5548 C   0  0  0  0  0  0  0  0  0  0  0  0
    3.0005   -1.8909   -1.0264 C   0  0  0  0  0  0  0  0  0  0  0  0
    3.5519   -2.3756    0.1707 C   0  0  0  0  0  0  0  0  0  0  0  0
    4.7921   -1.9098    0.6187 C   0  0  0  0  0  0  0  0  0  0  0  0
    5.5031   -0.9576   -0.1312 C   0  0  0  0  0  0  0  0  0  0  0  0
    6.8768   -0.5150    0.3001 C   0  0  0  0  0  0  0  0  0  0  0  0
    6.9031    0.9243    0.5597 N   0  0  0  0  0  0  0  0  0  0  0  0
    7.7484    1.8705   -0.1470 C   0  0  0  0  0  0  0  0  0  0  0  0
    7.4748    3.2468    0.4926 C   0  0  0  0  0  0  0  0  0  0  0  0
    6.5115    3.0278    1.6715 C   0  0  0  0  0  0  0  0  0  0  0  0
    6.2198    1.5802    1.6090 C   0  0  0  0  0  0  0  0  0  0  0  0
    5.4423    0.9864    2.4047 O   0  0  0  0  0  0  0  0  0  0  0  0
    4.9363   -0.4522   -1.3143 C   0  0  0  0  0  0  0  0  0  0  0  0
    3.6924   -0.9109   -1.7562 C   0  0  0  0  0  0  0  0  0  0  0  0
   -2.1852   -1.0574    0.9460 N   0  0  0  0  0  0  0  0  0  0  0  0
   -2.9433   -2.2753    1.0148 C   0  0  0  0  0  0  0  0  0  0  0  0
   -3.0140   -2.8917    2.1105 O   0  0  0  0  0  0  0  0  0  0  0  0
   -3.6733   -2.8042   -0.1584 C   0  0  0  0  0  0  0  0  0  0  0  0
   -3.5269   -4.1561   -0.5039 C   0  0  0  0  0  0  0  0  0  0  0  0
   -4.2089   -4.6827   -1.6019 C   0  0  0  0  0  0  0  0  0  0  0  0
   -5.0462   -3.8650   -2.3599 C   0  0  0  0  0  0  0  0  0  0  0  0
   -5.2130   -2.5222   -2.0198 C   0  0  0  0  0  0  0  0  0  0  0  0
   -4.5430   -1.9800   -0.9062 C   0  0  0  0  0  0  0  0  0  0  0  0
   -4.7434   -0.6476   -0.5044 O   0  0  0  0  0  0  0  0  0  0  0  0
   -5.7320    0.2207   -1.0575 C   0  0  0  0  0  0  0  0  0  0  0  0
   -5.8778    1.4700   -0.1907 C   0  0  0  0  0  0  0  0  0  0  0  0
   -4.8285    2.4479   -0.4886 N   0  0  0  0  0  0  0  0  0  0  0  0
   -3.9540    3.0132    0.5050 C   0  0  0  0  0  0  0  0  0  0  0  0
   -3.6077    4.2215    0.4047 O   0  0  0  0  0  0  0  0  0  0  0  0
   -3.3871    2.1782    1.6303 C   0  0  0  0  0  0  0  0  0  0  0  0
   -3.9727    2.6189    2.9869 C   0  0  0  0  0  0  0  0  0  0  0  0
   -5.3509    2.3675    3.0501 O   0  0  0  0  0  0  0  0  0  0  0  0
   -1.9234    2.3086    1.6608 N   0  0  0  0  0  0  0  0  0  0  0  0
   -0.8526    1.1525   -1.3229 H   0  0  0  0  0  0  0  0  0  0  0  0
   -2.5214    1.1710   -0.7315 H   0  0  0  0  0  0  0  0  0  0  0  0
   -1.9488   -1.0811   -1.1546 H   0  0  0  0  0  0  0  0  0  0  0  0
    0.2166   -1.1158   -2.3519 H   0  0  0  0  0  0  0  0  0  0  0  0
    1.4170   -3.3832   -1.0139 H   0  0  0  0  0  0  0  0  0  0  0  0
    1.8583   -2.7314   -2.6232 H   0  0  0  0  0  0  0  0  0  0  0  0
    3.0326   -3.1294    0.7505 H   0  0  0  0  0  0  0  0  0  0  0  0
    5.2052   -2.3080    1.5401 H   0  0  0  0  0  0  0  0  0  0  0  0
    7.5986   -0.7672   -0.5078 H   0  0  0  0  0  0  0  0  0  0  0  0
    7.2107   -1.0535    1.2140 H   0  0  0  0  0  0  0  0  0  0  0  0
    7.4927    1.8834   -1.2272 H   0  0  0  0  0  0  0  0  0  0  0  0
    8.8153    1.5841   -0.0261 H   0  0  0  0  0  0  0  0  0  0  0  0
    7.0114    3.9269   -0.2598 H   0  0  0  0  0  0  0  0  0  0  0  0
    8.4264    3.7093    0.8410 H   0  0  0  0  0  0  0  0  0  0  0  0
    7.0056    3.2797    2.6374 H   0  0  0  0  0  0  0  0  0  0  0  0
    5.5779    3.6189    1.5402 H   0  0  0  0  0  0  0  0  0  0  0  0
    5.4692    0.2798   -1.9056 H   0  0  0  0  0  0  0  0  0  0  0  0
    3.2821   -0.5232   -2.6822 H   0  0  0  0  0  0  0  0  0  0  0  0
   -1.9175   -0.6176    1.8570 H   0  0  0  0  0  0  0  0  0  0  0  0
   -2.8885   -4.8045    0.0801 H   0  0  0  0  0  0  0  0  0  0  0  0
   -4.0931   -5.7255   -1.8627 H   0  0  0  0  0  0  0  0  0  0  0  0
   -5.5755   -4.2745   -3.2084 H   0  0  0  0  0  0  0  0  0  0  0  0
   -5.8836   -1.9183   -2.6211 H   0  0  0  0  0  0  0  0  0  0  0  0
   -6.7150   -0.3011   -1.0762 H   0  0  0  0  0  0  0  0  0  0  0  0
   -5.4562    0.4975   -2.0968 H   0  0  0  0  0  0  0  0  0  0  0  0
   -5.8850    1.1815    0.8783 H   0  0  0  0  0  0  0  0  0  0  0  0
   -6.8624    1.9366   -0.4066 H   0  0  0  0  0  0  0  0  0  0  0  0
   -4.8595    2.9106   -1.4246 H   0  0  0  0  0  0  0  0  0  0  0  0
   -3.6459    1.1104    1.4863 H   0  0  0  0  0  0  0  0  0  0  0  0
   -3.7601    3.6962    3.1749 H   0  0  0  0  0  0  0  0  0  0  0  0
   -3.4776    2.0401    3.8002 H   0  0  0  0  0  0  0  0  0  0  0  0
   -5.8037    3.1371    2.6148 H   0  0  0  0  0  0  0  0  0  0  0  0
   -1.4944    2.8907    2.4168 H   0  0  0  0  0  0  0  0  0  0  0  0
  1  2  2  0
  2  3  1  0
  3  4  1  0
  4  5  1  0
  5  6  2  0
  5  7  1  0
  7  8  1  0
  8  9  1  0
  9 10  2  0
 10 11  1  0
 11 12  2  0
 12 13  1  0
 13 14  1  0
 14 15  1  0
 15 16  1  0
 16 17  1  0
 17 18  1  0
 18 19  2  0
 12 20  1  0
 20 21  2  0
  4 22  1  0
 22 23  1  0
 23 24  2  0
 23 25  1  0
 25 26  2  0
 26 27  1  0
 27 28  2  0
 28 29  1  0
 29 30  2  0
 30 31  1  0
 31 32  1  0
 32 33  1  0
 33 34  1  0
 34 35  1  0
 35 36  2  0
 35 37  1  0
 37 38  1  0
 38 39  1  0
 37 40  1  0
 40  2  1  0
 21  9  1  0
 30 25  1  0
 18 14  1  0
  3 41  1  0
  3 42  1  0
  4 43  1  0
  7 44  1  0
  8 45  1  0
  8 46  1  0
 10 47  1  0
 11 48  1  0
 13 49  1  0
 13 50  1  0
 15 51  1  0
 15 52  1  0
 16 53  1  0
 16 54  1  0
 17 55  1  0
 17 56  1  0
 20 57  1  0
 21 58  1  0
 22 59  1  0
 26 60  1  0
 27 61  1  0
 28 62  1  0
 29 63  1  0
 32 64  1  0
 32 65  1  0
 33 66  1  0
 33 67  1  0
 34 68  1  0
 37 69  1  0
 38 70  1  0
 38 71  1  0
 39 72  1  0
 40 73  1  0
M  END
$$$$
