
     RDKit          3D

 67 70  0  0  0  0  0  0  0  0999 V2000
   -3.8601   -4.5103    0.3664 C   0  0  0  0  0  0  0  0  0  0  0  0
   -3.5171   -3.1426    0.3541 O   0  0  0  0  0  0  0  0  0  0  0  0
   -2.2296   -2.9812   -0.2088 C   0  0  0  0  0  0  0  0  0  0  0  0
   -1.8000   -1.4828   -0.1674 C   0  0  0  0  0  0  0  0  0  0  0  0
   -0.3200   -1.3543   -0.6656 C   0  0  0  0  0  0  0  0  0  0  0  0
   -0.0436   -1.8458   -2.1107 C   0  0  0  0  0  0  0  0  0  0  0  0
    0.5442   -0.7605   -3.0352 C   0  0  0  0  0  0  0  0  0  0  0  0
    2.0107   -0.3917   -2.7130 C   0  0  0  0  0  0  0  0  0  0  0  0
    2.1392    0.7650   -1.8051 N   0  0  0  0  0  0  0  0  0  0  0  0
    3.1414    0.7383   -0.7604 C   0  0  0  0  0  0  0  0  0  0  0  0
    3.8117    1.7719   -0.4944 O   0  0  0  0  0  0  0  0  0  0  0  0
    3.4255   -0.4846   -0.0007 C   0  0  0  0  0  0  0  0  0  0  0  0
    2.6139   -0.8432    1.0821 C   0  0  0  0  0  0  0  0  0  0  0  0
    2.8863   -2.0062    1.8089 C   0  0  0  0  0  0  0  0  0  0  0  0
    3.9747   -2.8114    1.4600 C   0  0  0  0  0  0  0  0  0  0  0  0
    4.8059   -2.4387    0.3985 C   0  0  0  0  0  0  0  0  0  0  0  0
    4.5367   -1.2725   -0.3265 C   0  0  0  0  0  0  0  0  0  0  0  0
    1.5883    2.0715   -2.2160 C   0  0  0  0  0  0  0  0  0  0  0  0
    0.4799    2.5299   -1.2669 C   0  0  0  0  0  0  0  0  0  0  0  0
    0.9678    2.5508    0.0723 O   0  0  0  0  0  0  0  0  0  0  0  0
    0.3665    3.2063    1.1598 C   0  0  0  0  0  0  0  0  0  0  0  0
    1.2277    3.7000    2.1493 C   0  0  0  0  0  0  0  0  0  0  0  0
    0.7300    4.4010    3.2485 C   0  0  0  0  0  0  0  0  0  0  0  0
   -0.6418    4.6173    3.3722 C   0  0  0  0  0  0  0  0  0  0  0  0
   -1.5205    4.1050    2.4155 C   0  0  0  0  0  0  0  0  0  0  0  0
   -1.0361    3.3775    1.3156 C   0  0  0  0  0  0  0  0  0  0  0  0
   -2.0286    2.7312    0.4370 C   0  0  0  0  0  0  0  0  0  0  0  0
   -2.7691    3.4669   -0.2712 O   0  0  0  0  0  0  0  0  0  0  0  0
   -2.2163    1.2972    0.4417 N   0  0  0  0  0  0  0  0  0  0  0  0
   -3.2556    0.6836   -0.3977 C   0  0  0  0  0  0  0  0  0  0  0  0
   -2.7568   -0.6139   -1.0586 C   0  0  0  0  0  0  0  0  0  0  0  0
   -1.5691    0.4822    1.4834 C   0  0  0  0  0  0  0  0  0  0  0  0
   -1.8741   -1.0124    1.3185 C   0  0  0  0  0  0  0  0  0  0  0  0
   -3.1687   -5.0912    1.0162 H   0  0  0  0  0  0  0  0  0  0  0  0
   -4.8789   -4.6127    0.7896 H   0  0  0  0  0  0  0  0  0  0  0  0
   -3.8778   -4.9320   -0.6626 H   0  0  0  0  0  0  0  0  0  0  0  0
   -1.4805   -3.5790    0.3594 H   0  0  0  0  0  0  0  0  0  0  0  0
   -2.2406   -3.3475   -1.2567 H   0  0  0  0  0  0  0  0  0  0  0  0
    0.3310   -1.9385    0.0200 H   0  0  0  0  0  0  0  0  0  0  0  0
    0.0044   -0.3020   -0.5716 H   0  0  0  0  0  0  0  0  0  0  0  0
   -0.9756   -2.1981   -2.5997 H   0  0  0  0  0  0  0  0  0  0  0  0
    0.6453   -2.7199   -2.0798 H   0  0  0  0  0  0  0  0  0  0  0  0
    0.5243   -1.1732   -4.0700 H   0  0  0  0  0  0  0  0  0  0  0  0
   -0.1127    0.1292   -3.0423 H   0  0  0  0  0  0  0  0  0  0  0  0
    2.5393   -0.1497   -3.6582 H   0  0  0  0  0  0  0  0  0  0  0  0
    2.5256   -1.2850   -2.3054 H   0  0  0  0  0  0  0  0  0  0  0  0
    1.7776   -0.2193    1.3703 H   0  0  0  0  0  0  0  0  0  0  0  0
    2.2511   -2.2837    2.6395 H   0  0  0  0  0  0  0  0  0  0  0  0
    4.1789   -3.7184    2.0176 H   0  0  0  0  0  0  0  0  0  0  0  0
    5.6455   -3.0664    0.1188 H   0  0  0  0  0  0  0  0  0  0  0  0
    5.1748   -0.9995   -1.1582 H   0  0  0  0  0  0  0  0  0  0  0  0
    1.1768    2.0210   -3.2474 H   0  0  0  0  0  0  0  0  0  0  0  0
    2.3922    2.8376   -2.2435 H   0  0  0  0  0  0  0  0  0  0  0  0
   -0.3787    1.8388   -1.3597 H   0  0  0  0  0  0  0  0  0  0  0  0
    0.1516    3.5503   -1.5640 H   0  0  0  0  0  0  0  0  0  0  0  0
    2.2952    3.5500    2.0554 H   0  0  0  0  0  0  0  0  0  0  0  0
    1.4086    4.7800    4.0023 H   0  0  0  0  0  0  0  0  0  0  0  0
   -1.0278    5.1604    4.2250 H   0  0  0  0  0  0  0  0  0  0  0  0
   -2.5870    4.2426    2.5534 H   0  0  0  0  0  0  0  0  0  0  0  0
   -4.1443    0.4597    0.2332 H   0  0  0  0  0  0  0  0  0  0  0  0
   -3.5901    1.3758   -1.2022 H   0  0  0  0  0  0  0  0  0  0  0  0
   -3.6554   -1.1987   -1.3627 H   0  0  0  0  0  0  0  0  0  0  0  0
   -2.2603   -0.3265   -2.0097 H   0  0  0  0  0  0  0  0  0  0  0  0
   -1.9184    0.8170    2.4845 H   0  0  0  0  0  0  0  0  0  0  0  0
   -0.4717    0.6261    1.4498 H   0  0  0  0  0  0  0  0  0  0  0  0
   -2.8955   -1.1902    1.7223 H   0  0  0  0  0  0  0  0  0  0  0  0
   -1.1704   -1.6001    1.9505 H   0  0  0  0  0  0  0  0  0  0  0  0
  1  2  1  0
  2  3  1  0
  3  4  1  0
  4  5  1  0
  5  6  1  0
  6  7  1  0
  7  8  1  0
  8  9  1  0
  9 10  1  0
 10 11  2  0
 10 12  1  0
 12 13  2  0
 13 14  1  0
 14 15  2  0
 15 16  1  0
 16 17  2  0
  9 18  1  0
 18 19  1  0
 19 20  1  0
 20 21  1  0
 21 22  2  0
 22 23  1  0
 23 24  2  0
 24 25  1  0
 25 26  2  0
 26 27  1  0
 27 28  2  0
 27 29  1  0
 29 30  1  0
 30 31  1  0
 29 32  1  0
 32 33  1  0
 31  4  1  0
 33  4  1  0
 17 12  1  0
 26 21  1  0
  1 34  1  0
  1 35  1  0
  1 36  1  0
  3 37  1  0
  3 38  1  0
  5 39  1  0
  5 40  1  0
  6 41  1  0
  6 42  1  0
  7 43  1  0
  7 44  1  0
  8 45  1  0
  8 46  1  0
 13 47  1  0
 14 48  1  0
 15 49  1  0
 16 50  1  0
 17 51  1  0
 18 52  1  0
 18 53  1  0
 19 54  1  0
 19 55  1  0
 22 56  1  0
 23 57  1  0
 24 58  1  0
 25 59  1  0
 30 60  1  0
 30 61  1  0
 31 62  1  0
 31 63  1  0
 32 64  1  0
 32 65  1  0
 33 66  1  0
 33 67  1  0
M  END
$$$$
