
     RDKit          3D

 66 69  0  0  0  0  0  0  0  0999 V2000
   -3.7287    2.4729    2.8344 C   0  0  0  0  0  0  0  0  0  0  0  0
   -2.7210    2.3687    1.6661 C   0  0  0  0  0  0  0  0  0  0  0  0
   -1.9665    3.7121    1.5548 C   0  0  0  0  0  0  0  0  0  0  0  0
   -1.7300    1.2073    1.9939 C   0  0  0  0  0  0  0  0  0  0  0  0
   -0.7132    0.8697    0.8842 C   0  0  0  0  0  0  0  0  0  0  0  0
    0.0709   -0.4121    1.2512 C   0  0  0  0  0  0  0  0  0  0  0  0
    0.9747   -0.9157    0.1861 N   0  0  0  0  0  0  0  0  0  0  0  0
    2.1667   -0.0611   -0.0276 C   0  0  0  0  0  0  0  0  0  0  0  0
    3.3625   -0.6917    0.6242 C   0  0  0  0  0  0  0  0  0  0  0  0
    3.2462   -1.2187    1.7653 O   0  0  0  0  0  0  0  0  0  0  0  0
    4.6457   -0.6377   -0.0135 N   0  0  0  0  0  0  0  0  0  0  0  0
    5.8441   -1.1655    0.6399 C   0  0  0  0  0  0  0  0  0  0  0  0
    7.0873   -1.0023   -0.2395 C   0  0  0  0  0  0  0  0  0  0  0  0
    7.4403    0.4418   -0.4289 C   0  0  0  0  0  0  0  0  0  0  0  0
    7.2243    1.1187   -1.5792 N   0  0  0  0  0  0  0  0  0  0  0  0
    7.6130    2.4180   -1.4822 C   0  0  0  0  0  0  0  0  0  0  0  0
    8.1366    2.7876   -0.2470 C   0  0  0  0  0  0  0  0  0  0  0  0
    8.1092    1.4354    0.7535 S   0  0  0  0  0  0  0  0  0  0  0  0
    0.3081   -1.3113   -1.0743 C   0  0  0  0  0  0  0  0  0  0  0  0
   -0.6801   -2.4384   -0.8600 C   0  0  0  0  0  0  0  0  0  0  0  0
   -0.2073   -3.7087   -0.4891 C   0  0  0  0  0  0  0  0  0  0  0  0
   -1.1013   -4.7639   -0.2956 C   0  0  0  0  0  0  0  0  0  0  0  0
   -2.4669   -4.5451   -0.4828 C   0  0  0  0  0  0  0  0  0  0  0  0
   -2.9174   -3.3099   -0.8381 N   0  0  0  0  0  0  0  0  0  0  0  0
   -2.0714   -2.2551   -1.0187 C   0  0  0  0  0  0  0  0  0  0  0  0
   -2.5821   -0.9824   -1.3191 O   0  0  0  0  0  0  0  0  0  0  0  0
   -3.9327   -0.7258   -1.5799 C   0  0  0  0  0  0  0  0  0  0  0  0
   -4.5944   -1.3565   -2.6430 C   0  0  0  0  0  0  0  0  0  0  0  0
   -5.9214   -1.0244   -2.9353 C   0  0  0  0  0  0  0  0  0  0  0  0
   -6.5896   -0.0602   -2.1727 C   0  0  0  0  0  0  0  0  0  0  0  0
   -5.9363    0.5604   -1.1012 C   0  0  0  0  0  0  0  0  0  0  0  0
   -4.6132    0.2166   -0.7950 C   0  0  0  0  0  0  0  0  0  0  0  0
   -3.9816    0.7614    0.3235 O   0  0  0  0  0  0  0  0  0  0  0  0
   -3.5076    2.1071    0.3519 C   0  0  0  0  0  0  0  0  0  0  0  0
   -4.2956    1.5237    2.9475 H   0  0  0  0  0  0  0  0  0  0  0  0
   -3.2022    2.6806    3.7927 H   0  0  0  0  0  0  0  0  0  0  0  0
   -4.4651    3.2903    2.6557 H   0  0  0  0  0  0  0  0  0  0  0  0
   -1.3613    3.8934    2.4700 H   0  0  0  0  0  0  0  0  0  0  0  0
   -2.6883    4.5559    1.4471 H   0  0  0  0  0  0  0  0  0  0  0  0
   -1.2876    3.7308    0.6721 H   0  0  0  0  0  0  0  0  0  0  0  0
   -1.1716    1.4546    2.9254 H   0  0  0  0  0  0  0  0  0  0  0  0
   -2.3213    0.2887    2.2156 H   0  0  0  0  0  0  0  0  0  0  0  0
   -1.2503    0.7182   -0.0633 H   0  0  0  0  0  0  0  0  0  0  0  0
   -0.0189    1.7247    0.7521 H   0  0  0  0  0  0  0  0  0  0  0  0
   -0.6396   -1.2232    1.5308 H   0  0  0  0  0  0  0  0  0  0  0  0
    0.6698   -0.2075    2.1693 H   0  0  0  0  0  0  0  0  0  0  0  0
    2.3764    0.0908   -1.1115 H   0  0  0  0  0  0  0  0  0  0  0  0
    2.0422    0.9521    0.4058 H   0  0  0  0  0  0  0  0  0  0  0  0
    4.7127   -0.2092   -0.9627 H   0  0  0  0  0  0  0  0  0  0  0  0
    5.6962   -2.2485    0.8419 H   0  0  0  0  0  0  0  0  0  0  0  0
    5.9960   -0.6509    1.6132 H   0  0  0  0  0  0  0  0  0  0  0  0
    6.9121   -1.4797   -1.2266 H   0  0  0  0  0  0  0  0  0  0  0  0
    7.9435   -1.5209    0.2419 H   0  0  0  0  0  0  0  0  0  0  0  0
    7.5223    3.1069   -2.3115 H   0  0  0  0  0  0  0  0  0  0  0  0
    8.4987    3.7720    0.0186 H   0  0  0  0  0  0  0  0  0  0  0  0
   -0.1517   -0.4349   -1.5745 H   0  0  0  0  0  0  0  0  0  0  0  0
    1.0713   -1.6966   -1.7859 H   0  0  0  0  0  0  0  0  0  0  0  0
    0.8550   -3.8778   -0.3435 H   0  0  0  0  0  0  0  0  0  0  0  0
   -0.7405   -5.7452   -0.0030 H   0  0  0  0  0  0  0  0  0  0  0  0
   -3.1688   -5.3592   -0.3478 H   0  0  0  0  0  0  0  0  0  0  0  0
   -4.0738   -2.0828   -3.2537 H   0  0  0  0  0  0  0  0  0  0  0  0
   -6.4285   -1.5096   -3.7582 H   0  0  0  0  0  0  0  0  0  0  0  0
   -7.6169    0.1953   -2.4027 H   0  0  0  0  0  0  0  0  0  0  0  0
   -6.4617    1.2860   -0.4925 H   0  0  0  0  0  0  0  0  0  0  0  0
   -4.3658    2.8107    0.2649 H   0  0  0  0  0  0  0  0  0  0  0  0
   -2.8534    2.2798   -0.5333 H   0  0  0  0  0  0  0  0  0  0  0  0
  1  2  1  0
  2  3  1  0
  2  4  1  0
  4  5  1  0
  5  6  1  0
  6  7  1  0
  7  8  1  0
  8  9  1  0
  9 10  2  0
  9 11  1  0
 11 12  1  0
 12 13  1  0
 13 14  1  0
 14 15  2  0
 15 16  1  0
 16 17  2  0
 17 18  1  0
  7 19  1  0
 19 20  1  0
 20 21  2  0
 21 22  1  0
 22 23  2  0
 23 24  1  0
 24 25  2  0
 25 26  1  0
 26 27  1  0
 27 28  2  0
 28 29  1  0
 29 30  2  0
 30 31  1  0
 31 32  2  0
 32 33  1  0
 33 34  1  0
 34  2  1  0
 18 14  1  0
 25 20  1  0
 32 27  1  0
  1 35  1  0
  1 36  1  0
  1 37  1  0
  3 38  1  0
  3 39  1  0
  3 40  1  0
  4 41  1  0
  4 42  1  0
  5 43  1  0
  5 44  1  0
  6 45  1  0
  6 46  1  0
  8 47  1  0
  8 48  1  0
 11 49  1  0
 12 50  1  0
 12 51  1  0
 13 52  1  0
 13 53  1  0
 16 54  1  0
 17 55  1  0
 19 56  1  0
 19 57  1  0
 21 58  1  0
 22 59  1  0
 23 60  1  0
 28 61  1  0
 29 62  1  0
 30 63  1  0
 31 64  1  0
 34 65  1  0
 34 66  1  0
M  END
$$$$
