
     RDKit          3D

 63 66  0  0  0  0  0  0  0  0999 V2000
    9.8341    0.7989    1.0387 C   0  0  0  0  0  0  0  0  0  0  0  0
    8.5904    0.1863    0.6002 N   0  0  0  0  0  0  0  0  0  0  0  0
    7.3611    0.7217    0.7247 C   0  0  0  0  0  0  0  0  0  0  0  0
    6.4717   -0.1476    0.1329 C   0  0  0  0  0  0  0  0  0  0  0  0
    5.0467    0.0020    0.0963 N   0  0  0  0  0  0  0  0  0  0  0  0
    4.1982   -0.7052   -0.8211 C   0  0  0  0  0  0  0  0  0  0  0  0
    4.6828   -1.2660   -1.8404 O   0  0  0  0  0  0  0  0  0  0  0  0
    2.7180   -0.7613   -0.5901 C   0  0  0  0  0  0  0  0  0  0  0  0
    2.1504    0.6044   -0.5858 N   0  0  0  0  0  0  0  0  0  0  0  0
    1.9751    1.1754   -1.9288 C   0  0  0  0  0  0  0  0  0  0  0  0
    0.6796    0.6884   -2.5631 C   0  0  0  0  0  0  0  0  0  0  0  0
   -0.4352    1.0698   -1.7862 O   0  0  0  0  0  0  0  0  0  0  0  0
   -0.4216    0.5059   -0.4753 C   0  0  0  0  0  0  0  0  0  0  0  0
   -0.7644   -1.0255   -0.5226 C   0  0  0  0  0  0  0  0  0  0  0  0
   -1.8239   -1.4669   -1.5634 C   0  0  0  0  0  0  0  0  0  0  0  0
   -3.2553   -0.9676   -1.3169 C   0  0  0  0  0  0  0  0  0  0  0  0
   -3.8726   -1.5448   -0.0319 C   0  0  0  0  0  0  0  0  0  0  0  0
   -5.2863   -1.0544    0.1871 C   0  0  0  0  0  0  0  0  0  0  0  0
   -6.3578   -1.9615    0.1261 C   0  0  0  0  0  0  0  0  0  0  0  0
   -7.6627   -1.5370    0.3969 C   0  0  0  0  0  0  0  0  0  0  0  0
   -7.9072   -0.2066    0.7437 C   0  0  0  0  0  0  0  0  0  0  0  0
   -6.8479    0.7023    0.8206 C   0  0  0  0  0  0  0  0  0  0  0  0
   -5.5403    0.2896    0.5310 C   0  0  0  0  0  0  0  0  0  0  0  0
   -4.4951    1.2170    0.5357 O   0  0  0  0  0  0  0  0  0  0  0  0
   -4.1112    1.9663    1.6854 C   0  0  0  0  0  0  0  0  0  0  0  0
   -3.0158    1.2225    2.4614 C   0  0  0  0  0  0  0  0  0  0  0  0
   -1.8534    0.7949    1.6605 N   0  0  0  0  0  0  0  0  0  0  0  0
   -1.4782    1.2470    0.3418 C   0  0  0  0  0  0  0  0  0  0  0  0
   -1.9268    2.3400   -0.0975 O   0  0  0  0  0  0  0  0  0  0  0  0
    0.9435    0.7707    0.2550 C   0  0  0  0  0  0  0  0  0  0  0  0
    7.2303   -1.2083   -0.3338 C   0  0  0  0  0  0  0  0  0  0  0  0
    8.5250   -0.9732   -0.0400 N   0  0  0  0  0  0  0  0  0  0  0  0
   10.1286    1.5930    0.3216 H   0  0  0  0  0  0  0  0  0  0  0  0
   10.6390    0.0350    1.0806 H   0  0  0  0  0  0  0  0  0  0  0  0
    9.7035    1.2425    2.0505 H   0  0  0  0  0  0  0  0  0  0  0  0
    7.1334    1.6656    1.2038 H   0  0  0  0  0  0  0  0  0  0  0  0
    4.6056    0.6424    0.7912 H   0  0  0  0  0  0  0  0  0  0  0  0
    2.2607   -1.3924   -1.3796 H   0  0  0  0  0  0  0  0  0  0  0  0
    2.5533   -1.2644    0.3864 H   0  0  0  0  0  0  0  0  0  0  0  0
    1.9443    2.2830   -1.8450 H   0  0  0  0  0  0  0  0  0  0  0  0
    2.8363    0.9240   -2.5839 H   0  0  0  0  0  0  0  0  0  0  0  0
    0.5805    1.1643   -3.5608 H   0  0  0  0  0  0  0  0  0  0  0  0
    0.7039   -0.4063   -2.7444 H   0  0  0  0  0  0  0  0  0  0  0  0
    0.1498   -1.5912   -0.7710 H   0  0  0  0  0  0  0  0  0  0  0  0
   -1.0381   -1.4144    0.4767 H   0  0  0  0  0  0  0  0  0  0  0  0
   -1.5149   -1.1394   -2.5766 H   0  0  0  0  0  0  0  0  0  0  0  0
   -1.8389   -2.5770   -1.5928 H   0  0  0  0  0  0  0  0  0  0  0  0
   -3.2674    0.1377   -1.3173 H   0  0  0  0  0  0  0  0  0  0  0  0
   -3.8846   -1.2926   -2.1741 H   0  0  0  0  0  0  0  0  0  0  0  0
   -3.2696   -1.2640    0.8523 H   0  0  0  0  0  0  0  0  0  0  0  0
   -3.8478   -2.6547   -0.0853 H   0  0  0  0  0  0  0  0  0  0  0  0
   -6.1863   -2.9969   -0.1332 H   0  0  0  0  0  0  0  0  0  0  0  0
   -8.4894   -2.2378    0.3229 H   0  0  0  0  0  0  0  0  0  0  0  0
   -8.9177    0.1248    0.9482 H   0  0  0  0  0  0  0  0  0  0  0  0
   -7.0532    1.7364    1.0627 H   0  0  0  0  0  0  0  0  0  0  0  0
   -4.9855    2.1301    2.3553 H   0  0  0  0  0  0  0  0  0  0  0  0
   -3.7503    2.9706    1.3826 H   0  0  0  0  0  0  0  0  0  0  0  0
   -3.4823    0.3043    2.8896 H   0  0  0  0  0  0  0  0  0  0  0  0
   -2.6685    1.8462    3.3154 H   0  0  0  0  0  0  0  0  0  0  0  0
   -1.2446    0.0813    2.1165 H   0  0  0  0  0  0  0  0  0  0  0  0
    0.9579    1.8241    0.6155 H   0  0  0  0  0  0  0  0  0  0  0  0
    1.0168    0.1531    1.1770 H   0  0  0  0  0  0  0  0  0  0  0  0
    6.8742   -2.1048   -0.8211 H   0  0  0  0  0  0  0  0  0  0  0  0
  1  2  1  0
  2  3  1  0
  3  4  2  0
  4  5  1  0
  5  6  1  0
  6  7  2  0
  6  8  1  0
  8  9  1  0
  9 10  1  0
 10 11  1  0
 11 12  1  0
 12 13  1  0
 13 14  1  0
 14 15  1  0
 15 16  1  0
 16 17  1  0
 17 18  1  0
 18 19  2  0
 19 20  1  0
 20 21  2  0
 21 22  1  0
 22 23  2  0
 23 24  1  0
 24 25  1  0
 25 26  1  0
 26 27  1  0
 27 28  1  0
 28 29  2  0
 13 30  1  0
  4 31  1  0
 31 32  2  0
 32  2  1  0
 30  9  1  0
 28 13  1  0
 23 18  1  0
  1 33  1  0
  1 34  1  0
  1 35  1  0
  3 36  1  0
  5 37  1  0
  8 38  1  0
  8 39  1  0
 10 40  1  0
 10 41  1  0
 11 42  1  0
 11 43  1  0
 14 44  1  0
 14 45  1  0
 15 46  1  0
 15 47  1  0
 16 48  1  0
 16 49  1  0
 17 50  1  0
 17 51  1  0
 19 52  1  0
 20 53  1  0
 21 54  1  0
 22 55  1  0
 25 56  1  0
 25 57  1  0
 26 58  1  0
 26 59  1  0
 27 60  1  0
 30 61  1  0
 30 62  1  0
 31 63  1  0
M  END
$$$$
