
     RDKit          3D

 65 68  0  0  0  0  0  0  0  0999 V2000
    8.7461    1.1080   -0.9629 C   0  0  0  0  0  0  0  0  0  0  0  0
    7.2739    0.8798   -1.0407 C   0  0  0  0  0  0  0  0  0  0  0  0
    6.4814    1.7537   -1.7151 N   0  0  0  0  0  0  0  0  0  0  0  0
    5.1395    1.5653   -1.7916 C   0  0  0  0  0  0  0  0  0  0  0  0
    4.5472    0.4685   -1.1578 C   0  0  0  0  0  0  0  0  0  0  0  0
    3.0853    0.2894   -1.2259 C   0  0  0  0  0  0  0  0  0  0  0  0
    2.5523    0.0689   -2.3470 O   0  0  0  0  0  0  0  0  0  0  0  0
    2.2639    0.3853   -0.0453 N   0  0  0  0  0  0  0  0  0  0  0  0
    2.6944    1.1608    1.1146 C   0  0  0  0  0  0  0  0  0  0  0  0
    1.4741    1.8126    1.7504 C   0  0  0  0  0  0  0  0  0  0  0  0
    0.4703    0.8541    2.0463 O   0  0  0  0  0  0  0  0  0  0  0  0
   -0.0379    0.1812    0.8909 C   0  0  0  0  0  0  0  0  0  0  0  0
   -0.8006    1.1594   -0.0690 C   0  0  0  0  0  0  0  0  0  0  0  0
   -1.6933    2.2320    0.6181 C   0  0  0  0  0  0  0  0  0  0  0  0
   -3.1594    1.8148    0.8168 C   0  0  0  0  0  0  0  0  0  0  0  0
   -3.9731    1.8375   -0.4904 C   0  0  0  0  0  0  0  0  0  0  0  0
   -5.1420    0.8861   -0.4121 C   0  0  0  0  0  0  0  0  0  0  0  0
   -6.4505    1.3788   -0.2812 C   0  0  0  0  0  0  0  0  0  0  0  0
   -7.5304    0.4962   -0.2059 C   0  0  0  0  0  0  0  0  0  0  0  0
   -7.3142   -0.8827   -0.2597 C   0  0  0  0  0  0  0  0  0  0  0  0
   -6.0159   -1.3860   -0.3752 C   0  0  0  0  0  0  0  0  0  0  0  0
   -4.9189   -0.5060   -0.4414 C   0  0  0  0  0  0  0  0  0  0  0  0
   -3.5958   -0.9668   -0.5199 O   0  0  0  0  0  0  0  0  0  0  0  0
   -3.1951   -2.3303   -0.5165 C   0  0  0  0  0  0  0  0  0  0  0  0
   -1.6677   -2.4052   -0.5393 C   0  0  0  0  0  0  0  0  0  0  0  0
   -1.1020   -2.1964    0.8040 N   0  0  0  0  0  0  0  0  0  0  0  0
   -0.8991   -3.3550    1.6779 C   0  0  0  0  0  0  0  0  0  0  0  0
   -1.0041   -0.8860    1.4001 C   0  0  0  0  0  0  0  0  0  0  0  0
   -1.6588   -0.6566    2.4536 O   0  0  0  0  0  0  0  0  0  0  0  0
    1.1317   -0.5242    0.1381 C   0  0  0  0  0  0  0  0  0  0  0  0
    5.3855   -0.4418   -0.4827 C   0  0  0  0  0  0  0  0  0  0  0  0
    4.8501   -1.6936    0.1477 C   0  0  0  0  0  0  0  0  0  0  0  0
    6.7246   -0.2069   -0.4381 N   0  0  0  0  0  0  0  0  0  0  0  0
    9.2824    0.2225   -1.3637 H   0  0  0  0  0  0  0  0  0  0  0  0
    9.0410    1.2681    0.0950 H   0  0  0  0  0  0  0  0  0  0  0  0
    9.0366    1.9995   -1.5588 H   0  0  0  0  0  0  0  0  0  0  0  0
    4.5323    2.2790   -2.3349 H   0  0  0  0  0  0  0  0  0  0  0  0
    3.1857    0.4928    1.8538 H   0  0  0  0  0  0  0  0  0  0  0  0
    3.4093    1.9591    0.8165 H   0  0  0  0  0  0  0  0  0  0  0  0
    1.0924    2.6224    1.0967 H   0  0  0  0  0  0  0  0  0  0  0  0
    1.7867    2.2969    2.6981 H   0  0  0  0  0  0  0  0  0  0  0  0
   -0.0529    1.7034   -0.6872 H   0  0  0  0  0  0  0  0  0  0  0  0
   -1.3914    0.5811   -0.8040 H   0  0  0  0  0  0  0  0  0  0  0  0
   -1.6764    3.1596    0.0026 H   0  0  0  0  0  0  0  0  0  0  0  0
   -1.2798    2.5138    1.6075 H   0  0  0  0  0  0  0  0  0  0  0  0
   -3.1988    0.8205    1.2958 H   0  0  0  0  0  0  0  0  0  0  0  0
   -3.6360    2.5211    1.5315 H   0  0  0  0  0  0  0  0  0  0  0  0
   -3.3484    1.5522   -1.3621 H   0  0  0  0  0  0  0  0  0  0  0  0
   -4.3193    2.8760   -0.6864 H   0  0  0  0  0  0  0  0  0  0  0  0
   -6.6353    2.4456   -0.2342 H   0  0  0  0  0  0  0  0  0  0  0  0
   -8.5366    0.8820   -0.1035 H   0  0  0  0  0  0  0  0  0  0  0  0
   -8.1541   -1.5633   -0.2015 H   0  0  0  0  0  0  0  0  0  0  0  0
   -5.8743   -2.4575   -0.4026 H   0  0  0  0  0  0  0  0  0  0  0  0
   -3.5995   -2.8305   -1.4229 H   0  0  0  0  0  0  0  0  0  0  0  0
   -3.5874   -2.8436    0.3872 H   0  0  0  0  0  0  0  0  0  0  0  0
   -1.3671   -3.4032   -0.9242 H   0  0  0  0  0  0  0  0  0  0  0  0
   -1.2709   -1.6681   -1.2625 H   0  0  0  0  0  0  0  0  0  0  0  0
    0.0043   -3.2023    2.3078 H   0  0  0  0  0  0  0  0  0  0  0  0
   -0.7450   -4.2835    1.0863 H   0  0  0  0  0  0  0  0  0  0  0  0
   -1.7848   -3.4881    2.3362 H   0  0  0  0  0  0  0  0  0  0  0  0
    1.4899   -1.3965    0.7287 H   0  0  0  0  0  0  0  0  0  0  0  0
    0.7860   -0.9059   -0.8437 H   0  0  0  0  0  0  0  0  0  0  0  0
    5.6836   -2.3403    0.4952 H   0  0  0  0  0  0  0  0  0  0  0  0
    4.2486   -2.2633   -0.5911 H   0  0  0  0  0  0  0  0  0  0  0  0
    4.2180   -1.4447    1.0223 H   0  0  0  0  0  0  0  0  0  0  0  0
  1  2  1  0
  2  3  2  0
  3  4  1  0
  4  5  2  0
  5  6  1  0
  6  7  2  0
  6  8  1  0
  8  9  1  0
  9 10  1  0
 10 11  1  0
 11 12  1  0
 12 13  1  0
 13 14  1  0
 14 15  1  0
 15 16  1  0
 16 17  1  0
 17 18  2  0
 18 19  1  0
 19 20  2  0
 20 21  1  0
 21 22  2  0
 22 23  1  0
 23 24  1  0
 24 25  1  0
 25 26  1  0
 26 27  1  0
 26 28  1  0
 28 29  2  0
 12 30  1  0
  5 31  1  0
 31 32  1  0
 31 33  2  0
 33  2  1  0
 30  8  1  0
 28 12  1  0
 22 17  1  0
  1 34  1  0
  1 35  1  0
  1 36  1  0
  4 37  1  0
  9 38  1  0
  9 39  1  0
 10 40  1  0
 10 41  1  0
 13 42  1  0
 13 43  1  0
 14 44  1  0
 14 45  1  0
 15 46  1  0
 15 47  1  0
 16 48  1  0
 16 49  1  0
 18 50  1  0
 19 51  1  0
 20 52  1  0
 21 53  1  0
 24 54  1  0
 24 55  1  0
 25 56  1  0
 25 57  1  0
 27 58  1  0
 27 59  1  0
 27 60  1  0
 30 61  1  0
 30 62  1  0
 32 63  1  0
 32 64  1  0
 32 65  1  0
M  END
$$$$
