
     RDKit          3D

 86 88  0  0  0  0  0  0  0  0999 V2000
    3.1847    0.5847   -2.7651 C   0  0  0  0  0  0  0  0  0  0  0  0
    4.0960    0.7996   -1.5907 C   0  0  0  0  0  0  0  0  0  0  0  0
    4.7045    2.0471   -1.3905 C   0  0  0  0  0  0  0  0  0  0  0  0
    5.5480    2.2557   -0.2994 C   0  0  0  0  0  0  0  0  0  0  0  0
    5.7829    1.2266    0.6276 C   0  0  0  0  0  0  0  0  0  0  0  0
    6.6880    1.4423    1.8272 C   0  0  0  0  0  0  0  0  0  0  0  0
    8.1452    1.6047    1.3862 C   0  0  0  0  0  0  0  0  0  0  0  0
    6.2255    2.6368    2.6728 C   0  0  0  0  0  0  0  0  0  0  0  0
    5.1871   -0.0291    0.4180 C   0  0  0  0  0  0  0  0  0  0  0  0
    4.3406   -0.2500   -0.6862 C   0  0  0  0  0  0  0  0  0  0  0  0
    3.7350   -1.4938   -0.9305 O   0  0  0  0  0  0  0  0  0  0  0  0
    3.8615   -2.6696   -0.1263 C   0  0  0  0  0  0  0  0  0  0  0  0
    3.0294   -2.5817    1.1632 C   0  0  0  0  0  0  0  0  0  0  0  0
    1.7935   -1.8234    0.9687 N   0  0  0  0  0  0  0  0  0  0  0  0
    0.7346   -2.2517    0.1005 C   0  0  0  0  0  0  0  0  0  0  0  0
    0.8983   -3.2479   -0.6559 O   0  0  0  0  0  0  0  0  0  0  0  0
   -0.5726   -1.4990    0.0943 C   0  0  0  0  0  0  0  0  0  0  0  0
   -0.3925   -0.0805   -0.5007 C   0  0  0  0  0  0  0  0  0  0  0  0
   -1.2943    0.9304    0.1635 C   0  0  0  0  0  0  0  0  0  0  0  0
   -0.9567    1.3704    1.2949 O   0  0  0  0  0  0  0  0  0  0  0  0
   -2.5056    1.4290   -0.4323 N   0  0  0  0  0  0  0  0  0  0  0  0
   -3.1667    0.8475   -1.6019 C   0  0  0  0  0  0  0  0  0  0  0  0
   -2.7456    1.6130   -2.8829 C   0  0  0  0  0  0  0  0  0  0  0  0
   -2.7836    3.1611   -2.7984 C   0  0  0  0  0  0  0  0  0  0  0  0
   -2.1782    3.7636   -4.0744 C   0  0  0  0  0  0  0  0  0  0  0  0
   -4.2023    3.7093   -2.5918 C   0  0  0  0  0  0  0  0  0  0  0  0
   -4.6807    0.7608   -1.4352 C   0  0  0  0  0  0  0  0  0  0  0  0
   -5.3726    0.5797   -2.4765 O   0  0  0  0  0  0  0  0  0  0  0  0
   -5.3661    0.7967   -0.1543 N   0  0  0  0  0  0  0  0  0  0  0  0
   -6.7754    1.2087   -0.1350 C   0  0  0  0  0  0  0  0  0  0  0  0
   -4.8005    0.2547    1.0961 C   0  0  0  0  0  0  0  0  0  0  0  0
   -4.3572   -1.2032    0.9560 C   0  0  0  0  0  0  0  0  0  0  0  0
   -3.4447   -1.5018    2.0123 O   0  0  0  0  0  0  0  0  0  0  0  0
   -2.8895   -2.7600    2.2950 C   0  0  0  0  0  0  0  0  0  0  0  0
   -2.7980   -3.1177    3.6476 C   0  0  0  0  0  0  0  0  0  0  0  0
   -2.2561   -4.3443    4.0284 C   0  0  0  0  0  0  0  0  0  0  0  0
   -1.7856   -5.2311    3.0598 C   0  0  0  0  0  0  0  0  0  0  0  0
   -1.8475   -4.8877    1.7087 C   0  0  0  0  0  0  0  0  0  0  0  0
   -2.3822   -3.6505    1.3093 C   0  0  0  0  0  0  0  0  0  0  0  0
   -2.3551   -3.3340   -0.1301 C   0  0  0  0  0  0  0  0  0  0  0  0
   -3.0106   -4.0665   -0.9187 O   0  0  0  0  0  0  0  0  0  0  0  0
   -1.5802   -2.2489   -0.6678 N   0  0  0  0  0  0  0  0  0  0  0  0
    3.5428   -0.2771   -3.3653 H   0  0  0  0  0  0  0  0  0  0  0  0
    3.1506    1.4761   -3.4275 H   0  0  0  0  0  0  0  0  0  0  0  0
    2.1556    0.3764   -2.4061 H   0  0  0  0  0  0  0  0  0  0  0  0
    4.5286    2.8604   -2.0836 H   0  0  0  0  0  0  0  0  0  0  0  0
    6.0168    3.2229   -0.1792 H   0  0  0  0  0  0  0  0  0  0  0  0
    6.6437    0.5479    2.4891 H   0  0  0  0  0  0  0  0  0  0  0  0
    8.4822    0.6894    0.8516 H   0  0  0  0  0  0  0  0  0  0  0  0
    8.2617    2.4830    0.7129 H   0  0  0  0  0  0  0  0  0  0  0  0
    8.8014    1.7436    2.2730 H   0  0  0  0  0  0  0  0  0  0  0  0
    5.1514    2.5261    2.9376 H   0  0  0  0  0  0  0  0  0  0  0  0
    6.3663    3.5957    2.1305 H   0  0  0  0  0  0  0  0  0  0  0  0
    6.8119    2.6794    3.6148 H   0  0  0  0  0  0  0  0  0  0  0  0
    5.3961   -0.8287    1.1147 H   0  0  0  0  0  0  0  0  0  0  0  0
    4.9285   -2.8764    0.1059 H   0  0  0  0  0  0  0  0  0  0  0  0
    3.4964   -3.5317   -0.7252 H   0  0  0  0  0  0  0  0  0  0  0  0
    3.6279   -2.0920    1.9606 H   0  0  0  0  0  0  0  0  0  0  0  0
    2.7832   -3.6059    1.5207 H   0  0  0  0  0  0  0  0  0  0  0  0
    1.6501   -0.9653    1.5501 H   0  0  0  0  0  0  0  0  0  0  0  0
   -0.8917   -1.4031    1.1526 H   0  0  0  0  0  0  0  0  0  0  0  0
    0.6494    0.2724   -0.3388 H   0  0  0  0  0  0  0  0  0  0  0  0
   -0.5280   -0.0856   -1.6007 H   0  0  0  0  0  0  0  0  0  0  0  0
   -2.9165    2.2977   -0.0197 H   0  0  0  0  0  0  0  0  0  0  0  0
   -2.8344   -0.1983   -1.7373 H   0  0  0  0  0  0  0  0  0  0  0  0
   -3.3412    1.2696   -3.7547 H   0  0  0  0  0  0  0  0  0  0  0  0
   -1.7003    1.3134   -3.1055 H   0  0  0  0  0  0  0  0  0  0  0  0
   -2.1505    3.5021   -1.9515 H   0  0  0  0  0  0  0  0  0  0  0  0
   -1.1394    3.3987   -4.2161 H   0  0  0  0  0  0  0  0  0  0  0  0
   -2.1494    4.8709   -4.0027 H   0  0  0  0  0  0  0  0  0  0  0  0
   -2.7778    3.4789   -4.9644 H   0  0  0  0  0  0  0  0  0  0  0  0
   -4.1969    4.8184   -2.6447 H   0  0  0  0  0  0  0  0  0  0  0  0
   -4.5875    3.4368   -1.5871 H   0  0  0  0  0  0  0  0  0  0  0  0
   -4.8928    3.3234   -3.3720 H   0  0  0  0  0  0  0  0  0  0  0  0
   -7.0089    1.7540    0.8056 H   0  0  0  0  0  0  0  0  0  0  0  0
   -7.4255    0.3095   -0.2079 H   0  0  0  0  0  0  0  0  0  0  0  0
   -7.0024    1.8957   -0.9799 H   0  0  0  0  0  0  0  0  0  0  0  0
   -3.9616    0.8835    1.4463 H   0  0  0  0  0  0  0  0  0  0  0  0
   -5.5525    0.2984    1.9163 H   0  0  0  0  0  0  0  0  0  0  0  0
   -3.8777   -1.3471   -0.0226 H   0  0  0  0  0  0  0  0  0  0  0  0
   -5.2457   -1.8716    1.0202 H   0  0  0  0  0  0  0  0  0  0  0  0
   -3.1565   -2.4388    4.4131 H   0  0  0  0  0  0  0  0  0  0  0  0
   -2.1979   -4.6061    5.0767 H   0  0  0  0  0  0  0  0  0  0  0  0
   -1.3646   -6.1819    3.3577 H   0  0  0  0  0  0  0  0  0  0  0  0
   -1.4514   -5.5783    0.9715 H   0  0  0  0  0  0  0  0  0  0  0  0
   -1.5481   -2.1863   -1.7092 H   0  0  0  0  0  0  0  0  0  0  0  0
  1  2  1  0
  2  3  2  0
  3  4  1  0
  4  5  2  0
  5  6  1  0
  6  7  1  0
  6  8  1  0
  5  9  1  0
  9 10  2  0
 10 11  1  0
 11 12  1  0
 12 13  1  0
 13 14  1  0
 14 15  1  0
 15 16  2  0
 15 17  1  0
 17 18  1  0
 18 19  1  0
 19 20  2  0
 19 21  1  0
 21 22  1  0
 22 23  1  0
 23 24  1  0
 24 25  1  0
 24 26  1  0
 22 27  1  0
 27 28  2  0
 27 29  1  0
 29 30  1  0
 29 31  1  0
 31 32  1  0
 32 33  1  0
 33 34  1  0
 34 35  2  0
 35 36  1  0
 36 37  2  0
 37 38  1  0
 38 39  2  0
 39 40  1  0
 40 41  2  0
 40 42  1  0
 10  2  1  0
 42 17  1  0
 39 34  1  0
  1 43  1  0
  1 44  1  0
  1 45  1  0
  3 46  1  0
  4 47  1  0
  6 48  1  0
  7 49  1  0
  7 50  1  0
  7 51  1  0
  8 52  1  0
  8 53  1  0
  8 54  1  0
  9 55  1  0
 12 56  1  0
 12 57  1  0
 13 58  1  0
 13 59  1  0
 14 60  1  0
 17 61  1  0
 18 62  1  0
 18 63  1  0
 21 64  1  0
 22 65  1  0
 23 66  1  0
 23 67  1  0
 24 68  1  0
 25 69  1  0
 25 70  1  0
 25 71  1  0
 26 72  1  0
 26 73  1  0
 26 74  1  0
 30 75  1  0
 30 76  1  0
 30 77  1  0
 31 78  1  0
 31 79  1  0
 32 80  1  0
 32 81  1  0
 35 82  1  0
 36 83  1  0
 37 84  1  0
 38 85  1  0
 42 86  1  0
M  END
$$$$
