
     RDKit          3D

 71 74  0  0  0  0  0  0  0  0999 V2000
   -0.4779   -0.5370   -1.3977 O   0  0  0  0  0  0  0  0  0  0  0  0
   -1.5998   -0.5829   -0.8240 C   0  0  0  0  0  0  0  0  0  0  0  0
   -1.6871   -0.2024    0.6348 C   0  0  0  0  0  0  0  0  0  0  0  0
   -0.3687   -0.2585    1.3116 N   0  0  0  0  0  0  0  0  0  0  0  0
   -0.4095    0.5684    2.5421 C   0  0  0  0  0  0  0  0  0  0  0  0
   -0.1454    2.0571    2.2177 C   0  0  0  0  0  0  0  0  0  0  0  0
    1.1033    2.6168    2.9267 C   0  0  0  0  0  0  0  0  0  0  0  0
    2.4322    2.1049    2.3390 C   0  0  0  0  0  0  0  0  0  0  0  0
    2.7499    2.6954    0.9501 C   0  0  0  0  0  0  0  0  0  0  0  0
    2.5859    1.6777   -0.1815 C   0  0  0  0  0  0  0  0  0  0  0  0
    3.7367    0.8403   -0.2585 O   0  0  0  0  0  0  0  0  0  0  0  0
    3.8806   -0.1125   -1.2684 C   0  0  0  0  0  0  0  0  0  0  0  0
    4.8873    0.0614   -2.2262 C   0  0  0  0  0  0  0  0  0  0  0  0
    4.9918   -0.8173   -3.3051 C   0  0  0  0  0  0  0  0  0  0  0  0
    4.0885   -1.8759   -3.4325 C   0  0  0  0  0  0  0  0  0  0  0  0
    3.1019   -2.0768   -2.4615 C   0  0  0  0  0  0  0  0  0  0  0  0
    3.0179   -1.2235   -1.3561 C   0  0  0  0  0  0  0  0  0  0  0  0
    2.0898   -1.5080   -0.3511 O   0  0  0  0  0  0  0  0  0  0  0  0
    2.4469   -1.6552    0.9954 C   0  0  0  0  0  0  0  0  0  0  0  0
    3.7610   -1.7110    1.3545 N   0  0  0  0  0  0  0  0  0  0  0  0
    4.1544   -1.8755    2.6429 C   0  0  0  0  0  0  0  0  0  0  0  0
    3.1989   -2.0149    3.6487 C   0  0  0  0  0  0  0  0  0  0  0  0
    1.8452   -1.9721    3.3151 C   0  0  0  0  0  0  0  0  0  0  0  0
    1.4514   -1.7753    1.9809 C   0  0  0  0  0  0  0  0  0  0  0  0
   -0.0139   -1.6587    1.6326 C   0  0  0  0  0  0  0  0  0  0  0  0
   -2.7781   -0.9429   -1.5860 N   0  0  0  0  0  0  0  0  0  0  0  0
   -2.6272   -1.6083   -2.8914 C   0  0  0  0  0  0  0  0  0  0  0  0
   -2.6418   -3.1318   -2.7312 C   0  0  0  0  0  0  0  0  0  0  0  0
   -1.5199   -3.5686   -2.0113 O   0  0  0  0  0  0  0  0  0  0  0  0
   -4.1398   -0.7421   -1.0554 C   0  0  0  0  0  0  0  0  0  0  0  0
   -4.4709    0.7252   -0.9503 C   0  0  0  0  0  0  0  0  0  0  0  0
   -4.7277    1.3165    0.3008 C   0  0  0  0  0  0  0  0  0  0  0  0
   -5.0023    2.6832    0.3899 C   0  0  0  0  0  0  0  0  0  0  0  0
   -5.0580    3.4646   -0.7674 C   0  0  0  0  0  0  0  0  0  0  0  0
   -4.8338    2.8811   -2.0152 C   0  0  0  0  0  0  0  0  0  0  0  0
   -4.5404    1.5171   -2.1091 C   0  0  0  0  0  0  0  0  0  0  0  0
   -2.4136   -0.8575    1.1640 H   0  0  0  0  0  0  0  0  0  0  0  0
   -2.0790    0.8352    0.6593 H   0  0  0  0  0  0  0  0  0  0  0  0
   -1.3951    0.4684    3.0538 H   0  0  0  0  0  0  0  0  0  0  0  0
    0.3343    0.2214    3.2881 H   0  0  0  0  0  0  0  0  0  0  0  0
   -0.0769    2.2320    1.1229 H   0  0  0  0  0  0  0  0  0  0  0  0
   -1.0232    2.6457    2.5617 H   0  0  0  0  0  0  0  0  0  0  0  0
    1.0569    2.3563    4.0065 H   0  0  0  0  0  0  0  0  0  0  0  0
    1.0822    3.7266    2.8686 H   0  0  0  0  0  0  0  0  0  0  0  0
    3.2387    2.4214    3.0359 H   0  0  0  0  0  0  0  0  0  0  0  0
    2.4534    0.9962    2.3257 H   0  0  0  0  0  0  0  0  0  0  0  0
    3.7992    3.0616    0.9431 H   0  0  0  0  0  0  0  0  0  0  0  0
    2.1160    3.5852    0.7416 H   0  0  0  0  0  0  0  0  0  0  0  0
    2.4807    2.2313   -1.1392 H   0  0  0  0  0  0  0  0  0  0  0  0
    1.6724    1.0686   -0.0337 H   0  0  0  0  0  0  0  0  0  0  0  0
    5.5635    0.9030   -2.1508 H   0  0  0  0  0  0  0  0  0  0  0  0
    5.7573   -0.6639   -4.0538 H   0  0  0  0  0  0  0  0  0  0  0  0
    4.1622   -2.5536   -4.2726 H   0  0  0  0  0  0  0  0  0  0  0  0
    2.4249   -2.9181   -2.5486 H   0  0  0  0  0  0  0  0  0  0  0  0
    5.2110   -1.9006    2.8878 H   0  0  0  0  0  0  0  0  0  0  0  0
    3.5069   -2.1484    4.6775 H   0  0  0  0  0  0  0  0  0  0  0  0
    1.1029   -2.0728    4.0961 H   0  0  0  0  0  0  0  0  0  0  0  0
   -0.1946   -2.3136    0.7513 H   0  0  0  0  0  0  0  0  0  0  0  0
   -0.6585   -2.0518    2.4551 H   0  0  0  0  0  0  0  0  0  0  0  0
   -1.6902   -1.2871   -3.4029 H   0  0  0  0  0  0  0  0  0  0  0  0
   -3.4598   -1.3115   -3.5659 H   0  0  0  0  0  0  0  0  0  0  0  0
   -2.6205   -3.5997   -3.7383 H   0  0  0  0  0  0  0  0  0  0  0  0
   -3.5816   -3.4608   -2.2297 H   0  0  0  0  0  0  0  0  0  0  0  0
   -1.7325   -3.4454   -1.0509 H   0  0  0  0  0  0  0  0  0  0  0  0
   -4.8915   -1.2162   -1.7234 H   0  0  0  0  0  0  0  0  0  0  0  0
   -4.2468   -1.2592   -0.0806 H   0  0  0  0  0  0  0  0  0  0  0  0
   -4.6839    0.7244    1.2038 H   0  0  0  0  0  0  0  0  0  0  0  0
   -5.1728    3.1384    1.3576 H   0  0  0  0  0  0  0  0  0  0  0  0
   -5.2786    4.5201   -0.6942 H   0  0  0  0  0  0  0  0  0  0  0  0
   -4.8853    3.4879   -2.9085 H   0  0  0  0  0  0  0  0  0  0  0  0
   -4.3597    1.0784   -3.0826 H   0  0  0  0  0  0  0  0  0  0  0  0
  1  2  2  0
  2  3  1  0
  3  4  1  0
  4  5  1  0
  5  6  1  0
  6  7  1  0
  7  8  1  0
  8  9  1  0
  9 10  1  0
 10 11  1  0
 11 12  1  0
 12 13  2  0
 13 14  1  0
 14 15  2  0
 15 16  1  0
 16 17  2  0
 17 18  1  0
 18 19  1  0
 19 20  2  0
 20 21  1  0
 21 22  2  0
 22 23  1  0
 23 24  2  0
 24 25  1  0
  2 26  1  0
 26 27  1  0
 27 28  1  0
 28 29  1  0
 26 30  1  0
 30 31  1  0
 31 32  2  0
 32 33  1  0
 33 34  2  0
 34 35  1  0
 35 36  2  0
 25  4  1  0
 36 31  1  0
 17 12  1  0
 24 19  1  0
  3 37  1  0
  3 38  1  0
  5 39  1  0
  5 40  1  0
  6 41  1  0
  6 42  1  0
  7 43  1  0
  7 44  1  0
  8 45  1  0
  8 46  1  0
  9 47  1  0
  9 48  1  0
 10 49  1  0
 10 50  1  0
 13 51  1  0
 14 52  1  0
 15 53  1  0
 16 54  1  0
 21 55  1  0
 22 56  1  0
 23 57  1  0
 25 58  1  0
 25 59  1  0
 27 60  1  0
 27 61  1  0
 28 62  1  0
 28 63  1  0
 29 64  1  0
 30 65  1  0
 30 66  1  0
 32 67  1  0
 33 68  1  0
 34 69  1  0
 35 70  1  0
 36 71  1  0
M  END
$$$$
