
     RDKit          3D

 70 73  0  0  0  0  0  0  0  0999 V2000
   -3.5387   -0.5416   -2.9056 C   0  0  0  0  0  0  0  0  0  0  0  0
   -3.3613   -1.2014   -1.6163 N   0  0  0  0  0  0  0  0  0  0  0  0
   -2.5194   -0.6409   -0.5933 C   0  0  0  0  0  0  0  0  0  0  0  0
   -2.0424    0.5058   -0.7698 O   0  0  0  0  0  0  0  0  0  0  0  0
   -2.2910   -1.3707    0.7356 C   0  0  0  0  0  0  0  0  0  0  0  0
   -1.8344   -2.8406    0.4244 C   0  0  0  0  0  0  0  0  0  0  0  0
   -0.3094   -3.1100    0.1754 C   0  0  0  0  0  0  0  0  0  0  0  0
    0.5203   -2.0561   -0.6325 C   0  0  0  0  0  0  0  0  0  0  0  0
    1.6959   -1.4560    0.1817 C   0  0  0  0  0  0  0  0  0  0  0  0
    2.0523   -0.0975   -0.2766 N   0  0  0  0  0  0  0  0  0  0  0  0
    2.9174    0.0785   -1.4095 C   0  0  0  0  0  0  0  0  0  0  0  0
    2.4702    0.6439   -2.4452 O   0  0  0  0  0  0  0  0  0  0  0  0
    4.3378   -0.3304   -1.3456 C   0  0  0  0  0  0  0  0  0  0  0  0
    5.2470    0.0457   -2.3477 C   0  0  0  0  0  0  0  0  0  0  0  0
    6.5846   -0.3381   -2.2420 C   0  0  0  0  0  0  0  0  0  0  0  0
    7.0050   -1.1084   -1.1539 C   0  0  0  0  0  0  0  0  0  0  0  0
    6.0811   -1.4644   -0.1716 C   0  0  0  0  0  0  0  0  0  0  0  0
    6.4966   -2.2440    0.9126 O   0  0  0  0  0  0  0  0  0  0  0  0
    5.6023   -2.6900    1.9234 C   0  0  0  0  0  0  0  0  0  0  0  0
    4.7853   -1.0601   -0.2852 N   0  0  0  0  0  0  0  0  0  0  0  0
    1.6935    1.1040    0.5131 C   0  0  0  0  0  0  0  0  0  0  0  0
    0.6649    1.9777   -0.2344 C   0  0  0  0  0  0  0  0  0  0  0  0
   -0.4193    2.3886    0.6132 O   0  0  0  0  0  0  0  0  0  0  0  0
   -1.5269    3.1365    0.1510 C   0  0  0  0  0  0  0  0  0  0  0  0
   -1.4605    3.8440   -1.0724 C   0  0  0  0  0  0  0  0  0  0  0  0
   -2.5409    4.6070   -1.5234 C   0  0  0  0  0  0  0  0  0  0  0  0
   -3.7004    4.6898   -0.7557 C   0  0  0  0  0  0  0  0  0  0  0  0
   -3.7985    3.9902    0.4476 C   0  0  0  0  0  0  0  0  0  0  0  0
   -2.7336    3.1951    0.9039 C   0  0  0  0  0  0  0  0  0  0  0  0
   -2.9515    2.4199    2.1415 C   0  0  0  0  0  0  0  0  0  0  0  0
   -3.2330    3.0232    3.2112 O   0  0  0  0  0  0  0  0  0  0  0  0
   -2.8944    0.9874    2.1369 N   0  0  0  0  0  0  0  0  0  0  0  0
   -4.0594    0.1638    1.7781 C   0  0  0  0  0  0  0  0  0  0  0  0
   -3.6458   -1.3118    1.4966 C   0  0  0  0  0  0  0  0  0  0  0  0
   -1.7121    0.3301    2.6655 C   0  0  0  0  0  0  0  0  0  0  0  0
   -1.2118   -0.7045    1.6539 C   0  0  0  0  0  0  0  0  0  0  0  0
   -2.5547   -0.2368   -3.3209 H   0  0  0  0  0  0  0  0  0  0  0  0
   -4.1838    0.3534   -2.7764 H   0  0  0  0  0  0  0  0  0  0  0  0
   -4.0305   -1.2332   -3.6188 H   0  0  0  0  0  0  0  0  0  0  0  0
   -3.9151   -2.0691   -1.4347 H   0  0  0  0  0  0  0  0  0  0  0  0
   -2.1400   -3.4808    1.2802 H   0  0  0  0  0  0  0  0  0  0  0  0
   -2.3971   -3.2620   -0.4337 H   0  0  0  0  0  0  0  0  0  0  0  0
    0.1740   -3.3187    1.1518 H   0  0  0  0  0  0  0  0  0  0  0  0
   -0.2272   -4.0788   -0.3538 H   0  0  0  0  0  0  0  0  0  0  0  0
   -0.1123   -1.2579   -1.0528 H   0  0  0  0  0  0  0  0  0  0  0  0
    0.9472   -2.5658   -1.5289 H   0  0  0  0  0  0  0  0  0  0  0  0
    2.5630   -2.1385    0.0724 H   0  0  0  0  0  0  0  0  0  0  0  0
    1.4766   -1.4341    1.2685 H   0  0  0  0  0  0  0  0  0  0  0  0
    4.9345    0.6404   -3.1969 H   0  0  0  0  0  0  0  0  0  0  0  0
    7.2917   -0.0425   -3.0041 H   0  0  0  0  0  0  0  0  0  0  0  0
    8.0397   -1.4166   -1.0762 H   0  0  0  0  0  0  0  0  0  0  0  0
    6.1539   -3.3392    2.6373 H   0  0  0  0  0  0  0  0  0  0  0  0
    4.7774   -3.2859    1.4670 H   0  0  0  0  0  0  0  0  0  0  0  0
    5.1810   -1.8206    2.4722 H   0  0  0  0  0  0  0  0  0  0  0  0
    1.3065    0.8267    1.5138 H   0  0  0  0  0  0  0  0  0  0  0  0
    2.6098    1.6997    0.7195 H   0  0  0  0  0  0  0  0  0  0  0  0
    0.2466    1.3989   -1.0771 H   0  0  0  0  0  0  0  0  0  0  0  0
    1.1806    2.8604   -0.6575 H   0  0  0  0  0  0  0  0  0  0  0  0
   -0.5741    3.8166   -1.6883 H   0  0  0  0  0  0  0  0  0  0  0  0
   -2.4733    5.1430   -2.4656 H   0  0  0  0  0  0  0  0  0  0  0  0
   -4.5381    5.2902   -1.1020 H   0  0  0  0  0  0  0  0  0  0  0  0
   -4.7210    4.0533    1.0157 H   0  0  0  0  0  0  0  0  0  0  0  0
   -4.5437    0.5878    0.8706 H   0  0  0  0  0  0  0  0  0  0  0  0
   -4.7976    0.1906    2.6039 H   0  0  0  0  0  0  0  0  0  0  0  0
   -4.4546   -1.8199    0.9227 H   0  0  0  0  0  0  0  0  0  0  0  0
   -3.5529   -1.8570    2.4618 H   0  0  0  0  0  0  0  0  0  0  0  0
   -1.9718   -0.1613    3.6283 H   0  0  0  0  0  0  0  0  0  0  0  0
   -0.9029    1.0664    2.8784 H   0  0  0  0  0  0  0  0  0  0  0  0
   -0.6696   -1.4653    2.2532 H   0  0  0  0  0  0  0  0  0  0  0  0
   -0.4919   -0.2084    1.0040 H   0  0  0  0  0  0  0  0  0  0  0  0
  1  2  1  0
  2  3  1  0
  3  4  2  0
  3  5  1  0
  5  6  1  0
  6  7  1  0
  7  8  1  0
  8  9  1  0
  9 10  1  0
 10 11  1  0
 11 12  2  0
 11 13  1  0
 13 14  2  0
 14 15  1  0
 15 16  2  0
 16 17  1  0
 17 18  1  0
 18 19  1  0
 17 20  2  0
 10 21  1  0
 21 22  1  0
 22 23  1  0
 23 24  1  0
 24 25  2  0
 25 26  1  0
 26 27  2  0
 27 28  1  0
 28 29  2  0
 29 30  1  0
 30 31  2  0
 30 32  1  0
 32 33  1  0
 33 34  1  0
 32 35  1  0
 35 36  1  0
 34  5  1  0
 36  5  1  0
 20 13  1  0
 29 24  1  0
  1 37  1  0
  1 38  1  0
  1 39  1  0
  2 40  1  0
  6 41  1  0
  6 42  1  0
  7 43  1  0
  7 44  1  0
  8 45  1  0
  8 46  1  0
  9 47  1  0
  9 48  1  0
 14 49  1  0
 15 50  1  0
 16 51  1  0
 19 52  1  0
 19 53  1  0
 19 54  1  0
 21 55  1  0
 21 56  1  0
 22 57  1  0
 22 58  1  0
 25 59  1  0
 26 60  1  0
 27 61  1  0
 28 62  1  0
 33 63  1  0
 33 64  1  0
 34 65  1  0
 34 66  1  0
 35 67  1  0
 35 68  1  0
 36 69  1  0
 36 70  1  0
M  END
$$$$
