
     RDKit          3D

 65 68  0  0  0  0  0  0  0  0999 V2000
    6.3661    0.3570   -2.1287 N   0  0  0  0  0  0  0  0  0  0  0  0
    6.1738    0.5233   -0.7256 C   0  0  0  0  0  0  0  0  0  0  0  0
    4.9441    0.1965   -0.1370 C   0  0  0  0  0  0  0  0  0  0  0  0
    4.7500    0.4273    1.2369 C   0  0  0  0  0  0  0  0  0  0  0  0
    3.4653    0.0745    1.8860 C   0  0  0  0  0  0  0  0  0  0  0  0
    3.4966   -0.4965    3.0121 O   0  0  0  0  0  0  0  0  0  0  0  0
    2.1886    0.3478    1.2591 N   0  0  0  0  0  0  0  0  0  0  0  0
    1.0978   -0.6211    1.4449 C   0  0  0  0  0  0  0  0  0  0  0  0
    1.2303   -1.7768    0.4353 C   0  0  0  0  0  0  0  0  0  0  0  0
   -0.0808   -2.5654    0.2706 C   0  0  0  0  0  0  0  0  0  0  0  0
   -1.0440   -1.8457   -0.6991 C   0  0  0  0  0  0  0  0  0  0  0  0
   -2.4866   -2.4519   -0.8199 C   0  0  0  0  0  0  0  0  0  0  0  0
   -2.3948   -3.8092   -1.5748 C   0  0  0  0  0  0  0  0  0  0  0  0
   -3.6630   -4.3887   -1.7559 O   0  0  0  0  0  0  0  0  0  0  0  0
   -3.1755   -2.6683    0.5564 C   0  0  0  0  0  0  0  0  0  0  0  0
   -3.2537   -1.3751    1.3805 C   0  0  0  0  0  0  0  0  0  0  0  0
   -3.3385   -0.1804    0.5252 N   0  0  0  0  0  0  0  0  0  0  0  0
   -3.9605   -0.2948   -0.8072 C   0  0  0  0  0  0  0  0  0  0  0  0
   -3.3662   -1.4577   -1.6409 C   0  0  0  0  0  0  0  0  0  0  0  0
   -2.8840    1.0885    1.0566 C   0  0  0  0  0  0  0  0  0  0  0  0
   -2.5689    1.1814    2.2761 O   0  0  0  0  0  0  0  0  0  0  0  0
   -2.7311    2.2845    0.2139 C   0  0  0  0  0  0  0  0  0  0  0  0
   -3.8577    3.0594   -0.1010 C   0  0  0  0  0  0  0  0  0  0  0  0
   -3.7161    4.2363   -0.8393 C   0  0  0  0  0  0  0  0  0  0  0  0
   -2.4506    4.6505   -1.2587 C   0  0  0  0  0  0  0  0  0  0  0  0
   -1.3220    3.8890   -0.9408 C   0  0  0  0  0  0  0  0  0  0  0  0
   -1.4522    2.7018   -0.1993 C   0  0  0  0  0  0  0  0  0  0  0  0
   -0.3383    1.9016    0.0939 O   0  0  0  0  0  0  0  0  0  0  0  0
    0.9048    2.4017    0.5925 C   0  0  0  0  0  0  0  0  0  0  0  0
    2.0465    1.4292    0.2606 C   0  0  0  0  0  0  0  0  0  0  0  0
    5.8244    0.8929    2.0071 C   0  0  0  0  0  0  0  0  0  0  0  0
    7.0421    1.1850    1.3858 C   0  0  0  0  0  0  0  0  0  0  0  0
    7.1848    1.0135    0.0437 N   0  0  0  0  0  0  0  0  0  0  0  0
    5.6219   -0.0655   -2.7278 H   0  0  0  0  0  0  0  0  0  0  0  0
    7.2677    0.6495   -2.5730 H   0  0  0  0  0  0  0  0  0  0  0  0
    4.1511   -0.2278   -0.7436 H   0  0  0  0  0  0  0  0  0  0  0  0
    1.1161   -1.0403    2.4794 H   0  0  0  0  0  0  0  0  0  0  0  0
    0.1162   -0.1165    1.3580 H   0  0  0  0  0  0  0  0  0  0  0  0
    1.5621   -1.3930   -0.5517 H   0  0  0  0  0  0  0  0  0  0  0  0
    2.0224   -2.4682    0.7980 H   0  0  0  0  0  0  0  0  0  0  0  0
    0.1687   -3.5675   -0.1411 H   0  0  0  0  0  0  0  0  0  0  0  0
   -0.5383   -2.7121    1.2693 H   0  0  0  0  0  0  0  0  0  0  0  0
   -0.5706   -1.8432   -1.7078 H   0  0  0  0  0  0  0  0  0  0  0  0
   -1.1087   -0.7784   -0.4128 H   0  0  0  0  0  0  0  0  0  0  0  0
   -1.7229   -4.5124   -1.0335 H   0  0  0  0  0  0  0  0  0  0  0  0
   -1.9463   -3.6491   -2.5804 H   0  0  0  0  0  0  0  0  0  0  0  0
   -3.7956   -5.0302   -1.0074 H   0  0  0  0  0  0  0  0  0  0  0  0
   -2.6674   -3.4637    1.1443 H   0  0  0  0  0  0  0  0  0  0  0  0
   -4.2150   -3.0261    0.3894 H   0  0  0  0  0  0  0  0  0  0  0  0
   -2.3448   -1.3219    2.0147 H   0  0  0  0  0  0  0  0  0  0  0  0
   -4.1367   -1.4072    2.0506 H   0  0  0  0  0  0  0  0  0  0  0  0
   -3.8573    0.6400   -1.3936 H   0  0  0  0  0  0  0  0  0  0  0  0
   -5.0513   -0.4606   -0.6672 H   0  0  0  0  0  0  0  0  0  0  0  0
   -4.2240   -1.9913   -2.1078 H   0  0  0  0  0  0  0  0  0  0  0  0
   -2.7735   -1.0420   -2.4885 H   0  0  0  0  0  0  0  0  0  0  0  0
   -4.8439    2.7524    0.2297 H   0  0  0  0  0  0  0  0  0  0  0  0
   -4.5888    4.8301   -1.0811 H   0  0  0  0  0  0  0  0  0  0  0  0
   -2.3405    5.5588   -1.8369 H   0  0  0  0  0  0  0  0  0  0  0  0
   -0.3582    4.2142   -1.3041 H   0  0  0  0  0  0  0  0  0  0  0  0
    1.1456    3.3787    0.1273 H   0  0  0  0  0  0  0  0  0  0  0  0
    0.8332    2.5588    1.6894 H   0  0  0  0  0  0  0  0  0  0  0  0
    2.9780    2.0310    0.1998 H   0  0  0  0  0  0  0  0  0  0  0  0
    1.8815    0.9902   -0.7473 H   0  0  0  0  0  0  0  0  0  0  0  0
    5.7178    1.0345    3.0767 H   0  0  0  0  0  0  0  0  0  0  0  0
    7.8709    1.5686    1.9702 H   0  0  0  0  0  0  0  0  0  0  0  0
  1  2  1  0
  2  3  2  0
  3  4  1  0
  4  5  1  0
  5  6  2  0
  5  7  1  0
  7  8  1  0
  8  9  1  0
  9 10  1  0
 10 11  1  0
 11 12  1  0
 12 13  1  0
 13 14  1  0
 12 15  1  0
 15 16  1  0
 16 17  1  0
 17 18  1  0
 18 19  1  0
 17 20  1  0
 20 21  2  0
 20 22  1  0
 22 23  2  0
 23 24  1  0
 24 25  2  0
 25 26  1  0
 26 27  2  0
 27 28  1  0
 28 29  1  0
 29 30  1  0
  4 31  2  0
 31 32  1  0
 32 33  2  0
 33  2  1  0
 30  7  1  0
 19 12  1  0
 27 22  1  0
  1 34  1  0
  1 35  1  0
  3 36  1  0
  8 37  1  0
  8 38  1  0
  9 39  1  0
  9 40  1  0
 10 41  1  0
 10 42  1  0
 11 43  1  0
 11 44  1  0
 13 45  1  0
 13 46  1  0
 14 47  1  0
 15 48  1  0
 15 49  1  0
 16 50  1  0
 16 51  1  0
 18 52  1  0
 18 53  1  0
 19 54  1  0
 19 55  1  0
 23 56  1  0
 24 57  1  0
 25 58  1  0
 26 59  1  0
 29 60  1  0
 29 61  1  0
 30 62  1  0
 30 63  1  0
 31 64  1  0
 32 65  1  0
M  END
$$$$
