
     RDKit          3D

 74 76  0  0  0  0  0  0  0  0999 V2000
   -2.9403    4.6564   -3.0408 C   0  0  0  0  0  0  0  0  0  0  0  0
   -3.3613    3.2548   -2.5798 C   0  0  0  0  0  0  0  0  0  0  0  0
   -4.8821    3.2139   -2.3666 C   0  0  0  0  0  0  0  0  0  0  0  0
   -2.5809    2.8651   -1.2996 C   0  0  0  0  0  0  0  0  0  0  0  0
   -2.7607    1.3850   -0.8776 C   0  0  0  0  0  0  0  0  0  0  0  0
   -2.3515    0.4572   -1.9398 N   0  0  0  0  0  0  0  0  0  0  0  0
   -1.1456    0.5544   -2.7168 C   0  0  0  0  0  0  0  0  0  0  0  0
   -1.2280    0.4551   -3.9706 O   0  0  0  0  0  0  0  0  0  0  0  0
    0.2264    0.6486   -2.0941 C   0  0  0  0  0  0  0  0  0  0  0  0
    0.6241   -0.6396   -1.3397 C   0  0  0  0  0  0  0  0  0  0  0  0
    2.1049   -0.6488   -1.0382 C   0  0  0  0  0  0  0  0  0  0  0  0
    2.9106   -0.8447   -1.9889 O   0  0  0  0  0  0  0  0  0  0  0  0
    2.6140   -0.4515    0.2983 N   0  0  0  0  0  0  0  0  0  0  0  0
    1.8476    0.3006    1.2987 C   0  0  0  0  0  0  0  0  0  0  0  0
    2.7363    0.6361    2.5059 C   0  0  0  0  0  0  0  0  0  0  0  0
    2.0952    1.7240    3.3661 C   0  0  0  0  0  0  0  0  0  0  0  0
    3.9899    1.0902    2.0368 O   0  0  0  0  0  0  0  0  0  0  0  0
    4.7540    0.0276    1.4760 C   0  0  0  0  0  0  0  0  0  0  0  0
    5.8159    0.6402    0.5621 C   0  0  0  0  0  0  0  0  0  0  0  0
    3.9084   -1.0202    0.6948 C   0  0  0  0  0  0  0  0  0  0  0  0
    0.2753   -1.8436   -2.1074 N   0  0  0  0  0  0  0  0  0  0  0  0
    0.0739   -3.1359   -1.5108 C   0  0  0  0  0  0  0  0  0  0  0  0
   -0.4979   -4.0387   -2.1776 O   0  0  0  0  0  0  0  0  0  0  0  0
    0.6165   -3.4731   -0.1841 C   0  0  0  0  0  0  0  0  0  0  0  0
    1.7910   -4.2448   -0.1644 C   0  0  0  0  0  0  0  0  0  0  0  0
    2.4209   -4.5565    1.0402 C   0  0  0  0  0  0  0  0  0  0  0  0
    1.8921   -4.0948    2.2422 C   0  0  0  0  0  0  0  0  0  0  0  0
    0.7216   -3.3358    2.2424 C   0  0  0  0  0  0  0  0  0  0  0  0
    0.0538   -3.0318    1.0474 C   0  0  0  0  0  0  0  0  0  0  0  0
   -1.1232   -2.2750    1.1804 O   0  0  0  0  0  0  0  0  0  0  0  0
   -2.2179   -2.1778    0.2709 C   0  0  0  0  0  0  0  0  0  0  0  0
   -3.2344   -1.1770    0.8208 C   0  0  0  0  0  0  0  0  0  0  0  0
   -2.5575    0.0362    1.3171 N   0  0  0  0  0  0  0  0  0  0  0  0
   -2.2737    0.1646    2.7509 C   0  0  0  0  0  0  0  0  0  0  0  0
   -2.0692    1.0682    0.4294 C   0  0  0  0  0  0  0  0  0  0  0  0
   -1.0773    1.7627    0.7831 O   0  0  0  0  0  0  0  0  0  0  0  0
   -3.4640    4.9262   -3.9832 H   0  0  0  0  0  0  0  0  0  0  0  0
   -1.8467    4.6845   -3.2389 H   0  0  0  0  0  0  0  0  0  0  0  0
   -3.1842    5.4140   -2.2642 H   0  0  0  0  0  0  0  0  0  0  0  0
   -3.1070    2.5478   -3.3984 H   0  0  0  0  0  0  0  0  0  0  0  0
   -5.4070    3.6011   -3.2654 H   0  0  0  0  0  0  0  0  0  0  0  0
   -5.1738    3.8329   -1.4916 H   0  0  0  0  0  0  0  0  0  0  0  0
   -5.2287    2.1722   -2.2113 H   0  0  0  0  0  0  0  0  0  0  0  0
   -1.5008    3.0653   -1.4636 H   0  0  0  0  0  0  0  0  0  0  0  0
   -2.9061    3.5234   -0.4629 H   0  0  0  0  0  0  0  0  0  0  0  0
   -3.8439    1.2410   -0.6861 H   0  0  0  0  0  0  0  0  0  0  0  0
   -3.1088   -0.1415   -2.3414 H   0  0  0  0  0  0  0  0  0  0  0  0
    0.9651    0.8458   -2.9023 H   0  0  0  0  0  0  0  0  0  0  0  0
    0.2729    1.5159   -1.4074 H   0  0  0  0  0  0  0  0  0  0  0  0
    0.0499   -0.6409   -0.3997 H   0  0  0  0  0  0  0  0  0  0  0  0
    0.9761   -0.2950    1.6414 H   0  0  0  0  0  0  0  0  0  0  0  0
    1.4914    1.2446    0.8331 H   0  0  0  0  0  0  0  0  0  0  0  0
    2.8577   -0.2683    3.1490 H   0  0  0  0  0  0  0  0  0  0  0  0
    1.1002    1.3886    3.7297 H   0  0  0  0  0  0  0  0  0  0  0  0
    1.9720    2.6621    2.7823 H   0  0  0  0  0  0  0  0  0  0  0  0
    2.7406    1.9353    4.2455 H   0  0  0  0  0  0  0  0  0  0  0  0
    5.2906   -0.4945    2.3003 H   0  0  0  0  0  0  0  0  0  0  0  0
    5.3328    1.1588   -0.2935 H   0  0  0  0  0  0  0  0  0  0  0  0
    6.4238    1.3775    1.1294 H   0  0  0  0  0  0  0  0  0  0  0  0
    6.4968   -0.1478    0.1758 H   0  0  0  0  0  0  0  0  0  0  0  0
    4.4664   -1.4267   -0.1768 H   0  0  0  0  0  0  0  0  0  0  0  0
    3.7129   -1.8855    1.3639 H   0  0  0  0  0  0  0  0  0  0  0  0
    0.1419   -1.7699   -3.1421 H   0  0  0  0  0  0  0  0  0  0  0  0
    2.2345   -4.5910   -1.0907 H   0  0  0  0  0  0  0  0  0  0  0  0
    3.3289   -5.1449    1.0397 H   0  0  0  0  0  0  0  0  0  0  0  0
    2.3887   -4.3243    3.1763 H   0  0  0  0  0  0  0  0  0  0  0  0
    0.3210   -2.9854    3.1855 H   0  0  0  0  0  0  0  0  0  0  0  0
   -2.6934   -3.1737    0.1455 H   0  0  0  0  0  0  0  0  0  0  0  0
   -1.8991   -1.8109   -0.7143 H   0  0  0  0  0  0  0  0  0  0  0  0
   -3.8020   -1.6667    1.6415 H   0  0  0  0  0  0  0  0  0  0  0  0
   -3.9811   -0.9254    0.0400 H   0  0  0  0  0  0  0  0  0  0  0  0
   -1.1771    0.2009    2.9180 H   0  0  0  0  0  0  0  0  0  0  0  0
   -2.7342    1.0968    3.1405 H   0  0  0  0  0  0  0  0  0  0  0  0
   -2.6770   -0.6936    3.3291 H   0  0  0  0  0  0  0  0  0  0  0  0
  1  2  1  0
  2  3  1  0
  2  4  1  0
  4  5  1  0
  5  6  1  0
  6  7  1  0
  7  8  2  0
  7  9  1  0
  9 10  1  0
 10 11  1  0
 11 12  2  0
 11 13  1  0
 13 14  1  0
 14 15  1  0
 15 16  1  0
 15 17  1  0
 17 18  1  0
 18 19  1  0
 18 20  1  0
 10 21  1  0
 21 22  1  0
 22 23  2  0
 22 24  1  0
 24 25  2  0
 25 26  1  0
 26 27  2  0
 27 28  1  0
 28 29  2  0
 29 30  1  0
 30 31  1  0
 31 32  1  0
 32 33  1  0
 33 34  1  0
 33 35  1  0
 35 36  2  0
 35  5  1  0
 20 13  1  0
 29 24  1  0
  1 37  1  0
  1 38  1  0
  1 39  1  0
  2 40  1  0
  3 41  1  0
  3 42  1  0
  3 43  1  0
  4 44  1  0
  4 45  1  0
  5 46  1  0
  6 47  1  0
  9 48  1  0
  9 49  1  0
 10 50  1  0
 14 51  1  0
 14 52  1  0
 15 53  1  0
 16 54  1  0
 16 55  1  0
 16 56  1  0
 18 57  1  0
 19 58  1  0
 19 59  1  0
 19 60  1  0
 20 61  1  0
 20 62  1  0
 21 63  1  0
 25 64  1  0
 26 65  1  0
 27 66  1  0
 28 67  1  0
 31 68  1  0
 31 69  1  0
 32 70  1  0
 32 71  1  0
 34 72  1  0
 34 73  1  0
 34 74  1  0
M  END
$$$$
