
     RDKit          3D

 59 62  0  0  0  0  0  0  0  0999 V2000
    7.1707    3.1314    0.0952 C   0  0  0  0  0  0  0  0  0  0  0  0
    6.0766    2.1362   -0.0936 C   0  0  0  0  0  0  0  0  0  0  0  0
    5.7936    1.0709    0.7324 C   0  0  0  0  0  0  0  0  0  0  0  0
    4.7129    0.4671    0.1195 C   0  0  0  0  0  0  0  0  0  0  0  0
    4.0288   -0.7549    0.5871 C   0  0  0  0  0  0  0  0  0  0  0  0
    4.5481   -1.4171    1.5265 O   0  0  0  0  0  0  0  0  0  0  0  0
    2.7930   -1.2098   -0.0034 N   0  0  0  0  0  0  0  0  0  0  0  0
    2.5369   -2.6499   -0.1371 C   0  0  0  0  0  0  0  0  0  0  0  0
    1.1885   -3.0448    0.4918 C   0  0  0  0  0  0  0  0  0  0  0  0
    0.2728   -1.8422    0.7671 C   0  0  0  0  0  0  0  0  0  0  0  0
    0.3268   -0.7790   -0.3624 C   0  0  0  0  0  0  0  0  0  0  0  0
   -0.1483   -1.3585   -1.7831 C   0  0  0  0  0  0  0  0  0  0  0  0
   -1.5508   -2.0721   -1.9400 C   0  0  0  0  0  0  0  0  0  0  0  0
   -2.7186   -1.2593   -2.6224 C   0  0  0  0  0  0  0  0  0  0  0  0
   -3.1453   -0.1516   -1.6767 C   0  0  0  0  0  0  0  0  0  0  0  0
   -4.2292    0.8950   -1.8007 C   0  0  0  0  0  0  0  0  0  0  0  0
   -3.9708    1.8405   -0.7271 O   0  0  0  0  0  0  0  0  0  0  0  0
   -4.1101    1.4979    0.6397 C   0  0  0  0  0  0  0  0  0  0  0  0
   -5.3580    1.0129    1.0691 C   0  0  0  0  0  0  0  0  0  0  0  0
   -5.5507    0.5840    2.3815 C   0  0  0  0  0  0  0  0  0  0  0  0
   -4.5001    0.6300    3.2934 C   0  0  0  0  0  0  0  0  0  0  0  0
   -3.2548    1.1210    2.9032 C   0  0  0  0  0  0  0  0  0  0  0  0
   -3.0337    1.5767    1.5927 C   0  0  0  0  0  0  0  0  0  0  0  0
   -1.6636    2.0970    1.3127 C   0  0  0  0  0  0  0  0  0  0  0  0
   -1.4799    3.3408    1.2468 O   0  0  0  0  0  0  0  0  0  0  0  0
   -0.5364    1.1982    1.1666 N   0  0  0  0  0  0  0  0  0  0  0  0
   -0.6298    0.3862   -0.0320 C   0  0  0  0  0  0  0  0  0  0  0  0
    1.7922   -0.2445   -0.4933 C   0  0  0  0  0  0  0  0  0  0  0  0
    4.3988    1.1404   -1.0056 N   0  0  0  0  0  0  0  0  0  0  0  0
    5.2339    2.1340   -1.0994 O   0  0  0  0  0  0  0  0  0  0  0  0
    7.1056    3.5720    1.1121 H   0  0  0  0  0  0  0  0  0  0  0  0
    7.0796    3.9423   -0.6573 H   0  0  0  0  0  0  0  0  0  0  0  0
    8.1539    2.6308   -0.0267 H   0  0  0  0  0  0  0  0  0  0  0  0
    6.3013    0.7778    1.6422 H   0  0  0  0  0  0  0  0  0  0  0  0
    2.5435   -2.9136   -1.2157 H   0  0  0  0  0  0  0  0  0  0  0  0
    3.3470   -3.2512    0.3302 H   0  0  0  0  0  0  0  0  0  0  0  0
    1.3694   -3.5762    1.4517 H   0  0  0  0  0  0  0  0  0  0  0  0
    0.6666   -3.7585   -0.1826 H   0  0  0  0  0  0  0  0  0  0  0  0
    0.6001   -1.3666    1.7189 H   0  0  0  0  0  0  0  0  0  0  0  0
   -0.7614   -2.2043    0.9424 H   0  0  0  0  0  0  0  0  0  0  0  0
    0.6140   -2.0870   -2.1252 H   0  0  0  0  0  0  0  0  0  0  0  0
   -0.0970   -0.5452   -2.5398 H   0  0  0  0  0  0  0  0  0  0  0  0
   -1.3924   -2.9692   -2.5773 H   0  0  0  0  0  0  0  0  0  0  0  0
   -1.8956   -2.4734   -0.9667 H   0  0  0  0  0  0  0  0  0  0  0  0
   -3.5825   -1.9346   -2.8011 H   0  0  0  0  0  0  0  0  0  0  0  0
   -2.3860   -0.8435   -3.5988 H   0  0  0  0  0  0  0  0  0  0  0  0
   -2.2906    0.5120   -1.7659 H   0  0  0  0  0  0  0  0  0  0  0  0
   -3.3541   -0.6474   -0.7043 H   0  0  0  0  0  0  0  0  0  0  0  0
   -5.2367    0.4378   -1.7078 H   0  0  0  0  0  0  0  0  0  0  0  0
   -4.1546    1.4153   -2.7798 H   0  0  0  0  0  0  0  0  0  0  0  0
   -6.1895    0.9650    0.3783 H   0  0  0  0  0  0  0  0  0  0  0  0
   -6.5177    0.2089    2.6908 H   0  0  0  0  0  0  0  0  0  0  0  0
   -4.6523    0.2893    4.3094 H   0  0  0  0  0  0  0  0  0  0  0  0
   -2.4560    1.1546    3.6351 H   0  0  0  0  0  0  0  0  0  0  0  0
    0.3977    1.5092    1.5118 H   0  0  0  0  0  0  0  0  0  0  0  0
   -0.5686    1.1033   -0.8799 H   0  0  0  0  0  0  0  0  0  0  0  0
   -1.5679   -0.1344    0.1248 H   0  0  0  0  0  0  0  0  0  0  0  0
    1.9064    0.6972    0.0817 H   0  0  0  0  0  0  0  0  0  0  0  0
    2.0243    0.0131   -1.5491 H   0  0  0  0  0  0  0  0  0  0  0  0
  1  2  1  0
  2  3  2  0
  3  4  1  0
  4  5  1  0
  5  6  2  0
  5  7  1  0
  7  8  1  0
  8  9  1  0
  9 10  1  0
 10 11  1  0
 11 12  1  0
 12 13  1  0
 13 14  1  0
 14 15  1  0
 15 16  1  0
 16 17  1  0
 17 18  1  0
 18 19  2  0
 19 20  1  0
 20 21  2  0
 21 22  1  0
 22 23  2  0
 23 24  1  0
 24 25  2  0
 24 26  1  0
 26 27  1  0
 11 28  1  0
  4 29  2  0
 29 30  1  0
 30  2  1  0
 28  7  1  0
 27 11  1  0
 23 18  1  0
  1 31  1  0
  1 32  1  0
  1 33  1  0
  3 34  1  0
  8 35  1  0
  8 36  1  0
  9 37  1  0
  9 38  1  0
 10 39  1  0
 10 40  1  0
 12 41  1  0
 12 42  1  0
 13 43  1  0
 13 44  1  0
 14 45  1  0
 14 46  1  0
 15 47  1  0
 15 48  1  0
 16 49  1  0
 16 50  1  0
 19 51  1  0
 20 52  1  0
 21 53  1  0
 22 54  1  0
 26 55  1  0
 27 56  1  0
 27 57  1  0
 28 58  1  0
 28 59  1  0
M  END
$$$$
