
     RDKit          3D

 72 76  0  0  0  0  0  0  0  0999 V2000
    5.2179    2.9060    2.2273 C   0  0  0  0  0  0  0  0  0  0  0  0
    5.7764    1.5194    2.5285 C   0  0  0  0  0  0  0  0  0  0  0  0
    5.3201    0.5578    1.5187 N   0  0  0  0  0  0  0  0  0  0  0  0
    4.1875   -0.1048    1.7575 N   0  0  0  0  0  0  0  0  0  0  0  0
    3.6388   -0.9760    0.8726 C   0  0  0  0  0  0  0  0  0  0  0  0
    2.3850   -1.6644    1.2474 C   0  0  0  0  0  0  0  0  0  0  0  0
    2.3548   -2.9252    1.2315 O   0  0  0  0  0  0  0  0  0  0  0  0
    1.1993   -0.9269    1.5998 N   0  0  0  0  0  0  0  0  0  0  0  0
    1.2770    0.4281    2.1489 C   0  0  0  0  0  0  0  0  0  0  0  0
   -0.1221    0.9258    2.5137 C   0  0  0  0  0  0  0  0  0  0  0  0
   -1.0020    0.8338    1.4090 O   0  0  0  0  0  0  0  0  0  0  0  0
   -1.0948   -0.4616    0.7976 C   0  0  0  0  0  0  0  0  0  0  0  0
   -2.5716   -0.9297    0.9800 C   0  0  0  0  0  0  0  0  0  0  0  0
   -3.0347   -2.2322    0.2769 C   0  0  0  0  0  0  0  0  0  0  0  0
   -3.4007   -2.1024   -1.2178 C   0  0  0  0  0  0  0  0  0  0  0  0
   -4.7824   -1.4988   -1.5838 C   0  0  0  0  0  0  0  0  0  0  0  0
   -5.2612   -0.3425   -0.7339 C   0  0  0  0  0  0  0  0  0  0  0  0
   -5.9725   -0.6418    0.4455 C   0  0  0  0  0  0  0  0  0  0  0  0
   -6.4708    0.3766    1.2602 C   0  0  0  0  0  0  0  0  0  0  0  0
   -6.2907    1.7098    0.8992 C   0  0  0  0  0  0  0  0  0  0  0  0
   -5.6099    2.0279   -0.2748 C   0  0  0  0  0  0  0  0  0  0  0  0
   -5.0785    1.0221   -1.0942 C   0  0  0  0  0  0  0  0  0  0  0  0
   -4.4156    1.4358   -2.2594 O   0  0  0  0  0  0  0  0  0  0  0  0
   -3.0191    1.2661   -2.5143 C   0  0  0  0  0  0  0  0  0  0  0  0
   -2.1378    1.7476   -1.3465 C   0  0  0  0  0  0  0  0  0  0  0  0
   -0.8615    1.0184   -1.3260 N   0  0  0  0  0  0  0  0  0  0  0  0
    0.2755    1.5250   -2.1011 C   0  0  0  0  0  0  0  0  0  0  0  0
   -0.7253   -0.2629   -0.6732 C   0  0  0  0  0  0  0  0  0  0  0  0
   -0.2073   -1.2153   -1.3214 O   0  0  0  0  0  0  0  0  0  0  0  0
   -0.1291   -1.5218    1.4335 C   0  0  0  0  0  0  0  0  0  0  0  0
    4.2819   -1.1927   -0.3640 C   0  0  0  0  0  0  0  0  0  0  0  0
    3.7476   -2.0441   -1.3555 C   0  0  0  0  0  0  0  0  0  0  0  0
    4.4153   -2.2246   -2.5680 C   0  0  0  0  0  0  0  0  0  0  0  0
    5.6123   -1.5559   -2.8161 C   0  0  0  0  0  0  0  0  0  0  0  0
    6.1467   -0.6956   -1.8562 C   0  0  0  0  0  0  0  0  0  0  0  0
    5.4872   -0.5006   -0.6273 C   0  0  0  0  0  0  0  0  0  0  0  0
    5.9921    0.3871    0.3390 C   0  0  0  0  0  0  0  0  0  0  0  0
    7.0548    1.0313    0.1148 O   0  0  0  0  0  0  0  0  0  0  0  0
    4.1081    2.8727    2.2076 H   0  0  0  0  0  0  0  0  0  0  0  0
    5.5867    3.2646    1.2428 H   0  0  0  0  0  0  0  0  0  0  0  0
    5.5449    3.6194    3.0123 H   0  0  0  0  0  0  0  0  0  0  0  0
    6.8870    1.5571    2.5666 H   0  0  0  0  0  0  0  0  0  0  0  0
    5.4276    1.2037    3.5368 H   0  0  0  0  0  0  0  0  0  0  0  0
    1.7216    1.1108    1.3927 H   0  0  0  0  0  0  0  0  0  0  0  0
    1.9066    0.4295    3.0647 H   0  0  0  0  0  0  0  0  0  0  0  0
   -0.5303    0.3604    3.3806 H   0  0  0  0  0  0  0  0  0  0  0  0
   -0.0513    1.9898    2.8215 H   0  0  0  0  0  0  0  0  0  0  0  0
   -3.2499   -0.1023    0.7355 H   0  0  0  0  0  0  0  0  0  0  0  0
   -2.7316   -1.0820    2.0699 H   0  0  0  0  0  0  0  0  0  0  0  0
   -2.2488   -3.0068    0.3845 H   0  0  0  0  0  0  0  0  0  0  0  0
   -3.9190   -2.6334    0.8166 H   0  0  0  0  0  0  0  0  0  0  0  0
   -3.3924   -3.1311   -1.6390 H   0  0  0  0  0  0  0  0  0  0  0  0
   -2.6002   -1.5970   -1.7645 H   0  0  0  0  0  0  0  0  0  0  0  0
   -4.7699   -1.1941   -2.6525 H   0  0  0  0  0  0  0  0  0  0  0  0
   -5.5394   -2.3126   -1.5260 H   0  0  0  0  0  0  0  0  0  0  0  0
   -6.1479   -1.6706    0.7360 H   0  0  0  0  0  0  0  0  0  0  0  0
   -7.0088    0.1289    2.1658 H   0  0  0  0  0  0  0  0  0  0  0  0
   -6.6845    2.4990    1.5278 H   0  0  0  0  0  0  0  0  0  0  0  0
   -5.4788    3.0684   -0.5458 H   0  0  0  0  0  0  0  0  0  0  0  0
   -2.8123    0.2230   -2.7887 H   0  0  0  0  0  0  0  0  0  0  0  0
   -2.7593    1.8591   -3.4173 H   0  0  0  0  0  0  0  0  0  0  0  0
   -2.6480    1.6498   -0.3759 H   0  0  0  0  0  0  0  0  0  0  0  0
   -1.9566    2.8377   -1.4604 H   0  0  0  0  0  0  0  0  0  0  0  0
    0.0531    2.5164   -2.5495 H   0  0  0  0  0  0  0  0  0  0  0  0
    0.5160    0.8204   -2.9254 H   0  0  0  0  0  0  0  0  0  0  0  0
    1.1621    1.6262   -1.4404 H   0  0  0  0  0  0  0  0  0  0  0  0
   -0.0767   -2.4391    0.8094 H   0  0  0  0  0  0  0  0  0  0  0  0
   -0.4999   -1.8401    2.4323 H   0  0  0  0  0  0  0  0  0  0  0  0
    2.8106   -2.5643   -1.2118 H   0  0  0  0  0  0  0  0  0  0  0  0
    4.0008   -2.8830   -3.3205 H   0  0  0  0  0  0  0  0  0  0  0  0
    6.1252   -1.6983   -3.7584 H   0  0  0  0  0  0  0  0  0  0  0  0
    7.0726   -0.1811   -2.0797 H   0  0  0  0  0  0  0  0  0  0  0  0
  1  2  1  0
  2  3  1  0
  3  4  1  0
  4  5  2  0
  5  6  1  0
  6  7  2  0
  6  8  1  0
  8  9  1  0
  9 10  1  0
 10 11  1  0
 11 12  1  0
 12 13  1  0
 13 14  1  0
 14 15  1  0
 15 16  1  0
 16 17  1  0
 17 18  2  0
 18 19  1  0
 19 20  2  0
 20 21  1  0
 21 22  2  0
 22 23  1  0
 23 24  1  0
 24 25  1  0
 25 26  1  0
 26 27  1  0
 26 28  1  0
 28 29  2  0
 12 30  1  0
  5 31  1  0
 31 32  2  0
 32 33  1  0
 33 34  2  0
 34 35  1  0
 35 36  2  0
 36 37  1  0
 37 38  2  0
 37  3  1  0
 30  8  1  0
 36 31  1  0
 28 12  1  0
 22 17  1  0
  1 39  1  0
  1 40  1  0
  1 41  1  0
  2 42  1  0
  2 43  1  0
  9 44  1  0
  9 45  1  0
 10 46  1  0
 10 47  1  0
 13 48  1  0
 13 49  1  0
 14 50  1  0
 14 51  1  0
 15 52  1  0
 15 53  1  0
 16 54  1  0
 16 55  1  0
 18 56  1  0
 19 57  1  0
 20 58  1  0
 21 59  1  0
 24 60  1  0
 24 61  1  0
 25 62  1  0
 25 63  1  0
 27 64  1  0
 27 65  1  0
 27 66  1  0
 30 67  1  0
 30 68  1  0
 32 69  1  0
 33 70  1  0
 34 71  1  0
 35 72  1  0
M  END
$$$$
