
     RDKit          3D

 67 70  0  0  0  0  0  0  0  0999 V2000
   -0.9734    2.7395    0.2710 C   0  0  0  0  0  0  0  0  0  0  0  0
   -0.3569    2.3983   -1.0821 C   0  0  0  0  0  0  0  0  0  0  0  0
   -1.0331    1.2516   -1.7205 N   0  0  0  0  0  0  0  0  0  0  0  0
   -2.3433    1.5376   -2.3503 C   0  0  0  0  0  0  0  0  0  0  0  0
   -3.4823    0.7581   -1.7049 C   0  0  0  0  0  0  0  0  0  0  0  0
   -3.5558    1.0897   -0.3274 O   0  0  0  0  0  0  0  0  0  0  0  0
   -4.5354    0.5941    0.5317 C   0  0  0  0  0  0  0  0  0  0  0  0
   -5.5408    1.4705    0.9541 C   0  0  0  0  0  0  0  0  0  0  0  0
   -6.5371    1.0378    1.8292 C   0  0  0  0  0  0  0  0  0  0  0  0
   -6.5297   -0.2750    2.2994 C   0  0  0  0  0  0  0  0  0  0  0  0
   -5.5251   -1.1569    1.8974 C   0  0  0  0  0  0  0  0  0  0  0  0
   -4.5104   -0.7370    1.0177 C   0  0  0  0  0  0  0  0  0  0  0  0
   -3.4480   -1.7336    0.6003 C   0  0  0  0  0  0  0  0  0  0  0  0
   -2.0199   -1.2580    0.9229 C   0  0  0  0  0  0  0  0  0  0  0  0
   -0.9591   -2.2140    0.3684 C   0  0  0  0  0  0  0  0  0  0  0  0
   -0.6395   -1.9939   -1.1374 C   0  0  0  0  0  0  0  0  0  0  0  0
    0.4610   -0.9333   -1.5438 C   0  0  0  0  0  0  0  0  0  0  0  0
    1.2956   -0.3504   -0.3714 C   0  0  0  0  0  0  0  0  0  0  0  0
    2.2358   -1.3295    0.1730 N   0  0  0  0  0  0  0  0  0  0  0  0
    3.0588   -0.9543    1.2895 C   0  0  0  0  0  0  0  0  0  0  0  0
    2.5312   -0.4073    2.2959 O   0  0  0  0  0  0  0  0  0  0  0  0
    4.5537   -1.1086    1.2405 C   0  0  0  0  0  0  0  0  0  0  0  0
    5.2186    0.2411    1.2827 C   0  0  0  0  0  0  0  0  0  0  0  0
    5.1624    1.0880    0.1624 C   0  0  0  0  0  0  0  0  0  0  0  0
    5.7695    2.3470    0.1998 C   0  0  0  0  0  0  0  0  0  0  0  0
    6.4408    2.7675    1.3527 C   0  0  0  0  0  0  0  0  0  0  0  0
    7.0353    3.9849    1.3832 F   0  0  0  0  0  0  0  0  0  0  0  0
    6.4964    1.9330    2.4732 C   0  0  0  0  0  0  0  0  0  0  0  0
    5.8839    0.6758    2.4422 C   0  0  0  0  0  0  0  0  0  0  0  0
    2.3591   -2.6451   -0.4488 C   0  0  0  0  0  0  0  0  0  0  0  0
    2.2677   -2.5141   -1.9714 C   0  0  0  0  0  0  0  0  0  0  0  0
    1.3618   -1.5349   -2.4771 O   0  0  0  0  0  0  0  0  0  0  0  0
   -0.2169    0.2142   -2.3241 C   0  0  0  0  0  0  0  0  0  0  0  0
   -0.0863    0.2271   -3.5816 O   0  0  0  0  0  0  0  0  0  0  0  0
   -0.3806    3.5431    0.7543 H   0  0  0  0  0  0  0  0  0  0  0  0
   -0.9624    1.8542    0.9389 H   0  0  0  0  0  0  0  0  0  0  0  0
   -2.0106    3.1064    0.1455 H   0  0  0  0  0  0  0  0  0  0  0  0
    0.7216    2.2212   -0.9435 H   0  0  0  0  0  0  0  0  0  0  0  0
   -0.4211    3.2888   -1.7449 H   0  0  0  0  0  0  0  0  0  0  0  0
   -2.3195    1.3066   -3.4382 H   0  0  0  0  0  0  0  0  0  0  0  0
   -2.5920    2.6186   -2.2792 H   0  0  0  0  0  0  0  0  0  0  0  0
   -4.4384    1.0324   -2.1984 H   0  0  0  0  0  0  0  0  0  0  0  0
   -3.3146   -0.3209   -1.8548 H   0  0  0  0  0  0  0  0  0  0  0  0
   -5.5473    2.4938    0.6006 H   0  0  0  0  0  0  0  0  0  0  0  0
   -7.3171    1.7208    2.1404 H   0  0  0  0  0  0  0  0  0  0  0  0
   -7.3053   -0.6104    2.9763 H   0  0  0  0  0  0  0  0  0  0  0  0
   -5.5424   -2.1695    2.2751 H   0  0  0  0  0  0  0  0  0  0  0  0
   -3.5709   -1.9728   -0.4727 H   0  0  0  0  0  0  0  0  0  0  0  0
   -3.6042   -2.6980    1.1304 H   0  0  0  0  0  0  0  0  0  0  0  0
   -1.8145   -0.2506    0.5295 H   0  0  0  0  0  0  0  0  0  0  0  0
   -1.9134   -1.2054    2.0280 H   0  0  0  0  0  0  0  0  0  0  0  0
   -1.3161   -3.2587    0.5023 H   0  0  0  0  0  0  0  0  0  0  0  0
   -0.0569   -2.1403    1.0017 H   0  0  0  0  0  0  0  0  0  0  0  0
   -1.5817   -1.8041   -1.6882 H   0  0  0  0  0  0  0  0  0  0  0  0
   -0.3352   -2.9855   -1.5362 H   0  0  0  0  0  0  0  0  0  0  0  0
    0.6353    0.0428    0.4284 H   0  0  0  0  0  0  0  0  0  0  0  0
    1.9188    0.4798   -0.7583 H   0  0  0  0  0  0  0  0  0  0  0  0
    4.8810   -1.7422    2.0943 H   0  0  0  0  0  0  0  0  0  0  0  0
    4.8705   -1.6182    0.3050 H   0  0  0  0  0  0  0  0  0  0  0  0
    4.6463    0.7746   -0.7371 H   0  0  0  0  0  0  0  0  0  0  0  0
    5.7254    2.9952   -0.6673 H   0  0  0  0  0  0  0  0  0  0  0  0
    7.0136    2.2585    3.3674 H   0  0  0  0  0  0  0  0  0  0  0  0
    5.9317    0.0426    3.3185 H   0  0  0  0  0  0  0  0  0  0  0  0
    3.3142   -3.1396   -0.1806 H   0  0  0  0  0  0  0  0  0  0  0  0
    1.5619   -3.3161   -0.0796 H   0  0  0  0  0  0  0  0  0  0  0  0
    2.0063   -3.5020   -2.4055 H   0  0  0  0  0  0  0  0  0  0  0  0
    3.2792   -2.2552   -2.3488 H   0  0  0  0  0  0  0  0  0  0  0  0
  1  2  1  0
  2  3  1  0
  3  4  1  0
  4  5  1  0
  5  6  1  0
  6  7  1  0
  7  8  2  0
  8  9  1  0
  9 10  2  0
 10 11  1  0
 11 12  2  0
 12 13  1  0
 13 14  1  0
 14 15  1  0
 15 16  1  0
 16 17  1  0
 17 18  1  0
 18 19  1  0
 19 20  1  0
 20 21  2  0
 20 22  1  0
 22 23  1  0
 23 24  2  0
 24 25  1  0
 25 26  2  0
 26 27  1  0
 26 28  1  0
 28 29  2  0
 19 30  1  0
 30 31  1  0
 31 32  1  0
 17 33  1  0
 33 34  2  0
 33  3  1  0
 12  7  1  0
 32 17  1  0
 29 23  1  0
  1 35  1  0
  1 36  1  0
  1 37  1  0
  2 38  1  0
  2 39  1  0
  4 40  1  0
  4 41  1  0
  5 42  1  0
  5 43  1  0
  8 44  1  0
  9 45  1  0
 10 46  1  0
 11 47  1  0
 13 48  1  0
 13 49  1  0
 14 50  1  0
 14 51  1  0
 15 52  1  0
 15 53  1  0
 16 54  1  0
 16 55  1  0
 18 56  1  0
 18 57  1  0
 22 58  1  0
 22 59  1  0
 24 60  1  0
 25 61  1  0
 28 62  1  0
 29 63  1  0
 30 64  1  0
 30 65  1  0
 31 66  1  0
 31 67  1  0
M  END
$$$$
