
     RDKit          3D

 67 71  0  0  0  0  0  0  0  0999 V2000
   -2.6953   -3.8269    0.0189 C   0  0  0  0  0  0  0  0  0  0  0  0
   -2.5327   -2.4829    0.5791 N   0  0  0  0  0  0  0  0  0  0  0  0
   -1.3625   -2.1815    1.4184 C   0  0  0  0  0  0  0  0  0  0  0  0
   -0.0745   -2.1289    0.5789 C   0  0  0  0  0  0  0  0  0  0  0  0
   -0.0169   -0.9369   -0.3939 C   0  0  0  0  0  0  0  0  0  0  0  0
    0.3201    0.3907    0.3264 C   0  0  0  0  0  0  0  0  0  0  0  0
    0.6548    1.5118   -0.5877 N   0  0  0  0  0  0  0  0  0  0  0  0
    2.1999    1.2175   -1.3906 S   0  0  0  0  0  6  0  0  0  0  0  0
    1.9617    0.5373   -2.7114 O   0  0  0  0  0  0  0  0  0  0  0  0
    2.8900    2.5272   -1.6539 O   0  0  0  0  0  0  0  0  0  0  0  0
    3.3050    0.2321   -0.4129 C   0  0  0  0  0  0  0  0  0  0  0  0
    3.6237   -1.0711   -0.8313 C   0  0  0  0  0  0  0  0  0  0  0  0
    4.4639   -1.8733   -0.0571 C   0  0  0  0  0  0  0  0  0  0  0  0
    5.0257   -1.3710    1.1217 C   0  0  0  0  0  0  0  0  0  0  0  0
    4.7119   -0.0811    1.5521 C   0  0  0  0  0  0  0  0  0  0  0  0
    3.8551    0.7256    0.7922 C   0  0  0  0  0  0  0  0  0  0  0  0
    3.4722    2.3332    1.3992 Cl  0  0  0  0  0  0  0  0  0  0  0  0
    5.8985   -2.1790    1.8577 O   0  0  0  0  0  0  0  0  0  0  0  0
    6.4383   -3.3806    1.3014 C   0  0  0  0  0  0  0  0  0  0  0  0
    5.3749   -4.1015    0.4626 C   0  0  0  0  0  0  0  0  0  0  0  0
    4.7550   -3.1855   -0.4435 O   0  0  0  0  0  0  0  0  0  0  0  0
   -0.4328    1.9510   -1.5273 C   0  0  0  0  0  0  0  0  0  0  0  0
    0.0469    3.2012   -2.3258 C   0  0  0  0  0  0  0  0  0  0  0  0
   -1.0426    3.8488   -3.1786 C   0  0  0  0  0  0  0  0  0  0  0  0
   -2.2204    4.2584   -2.3102 C   0  0  0  0  0  0  0  0  0  0  0  0
   -2.7992    3.0255   -1.6343 C   0  0  0  0  0  0  0  0  0  0  0  0
   -1.7601    2.2953   -0.7610 C   0  0  0  0  0  0  0  0  0  0  0  0
   -2.3834    1.0921   -0.3105 O   0  0  0  0  0  0  0  0  0  0  0  0
   -3.2506    0.9610    0.7888 C   0  0  0  0  0  0  0  0  0  0  0  0
   -3.5959    2.0454    1.6213 C   0  0  0  0  0  0  0  0  0  0  0  0
   -4.4041    1.8426    2.7434 C   0  0  0  0  0  0  0  0  0  0  0  0
   -4.8762    0.5646    3.0470 C   0  0  0  0  0  0  0  0  0  0  0  0
   -4.5553   -0.5133    2.2201 C   0  0  0  0  0  0  0  0  0  0  0  0
   -3.7576   -0.3167    1.0848 C   0  0  0  0  0  0  0  0  0  0  0  0
   -3.4678   -1.4553    0.1995 C   0  0  0  0  0  0  0  0  0  0  0  0
   -4.0717   -1.5302   -0.9047 O   0  0  0  0  0  0  0  0  0  0  0  0
   -3.7015   -4.2196    0.2767 H   0  0  0  0  0  0  0  0  0  0  0  0
   -1.9349   -4.5271    0.4260 H   0  0  0  0  0  0  0  0  0  0  0  0
   -2.5859   -3.7907   -1.0858 H   0  0  0  0  0  0  0  0  0  0  0  0
   -1.4914   -1.2312    1.9752 H   0  0  0  0  0  0  0  0  0  0  0  0
   -1.2552   -2.9771    2.1872 H   0  0  0  0  0  0  0  0  0  0  0  0
    0.8036   -2.0995    1.2602 H   0  0  0  0  0  0  0  0  0  0  0  0
    0.0156   -3.0693   -0.0063 H   0  0  0  0  0  0  0  0  0  0  0  0
    0.7676   -1.1657   -1.1399 H   0  0  0  0  0  0  0  0  0  0  0  0
   -0.9669   -0.8585   -0.9574 H   0  0  0  0  0  0  0  0  0  0  0  0
   -0.4877    0.6882    1.0182 H   0  0  0  0  0  0  0  0  0  0  0  0
    1.1656    0.2232    1.0215 H   0  0  0  0  0  0  0  0  0  0  0  0
    3.2067   -1.4758   -1.7441 H   0  0  0  0  0  0  0  0  0  0  0  0
    5.1378    0.2951    2.4736 H   0  0  0  0  0  0  0  0  0  0  0  0
    6.7954   -4.0410    2.1192 H   0  0  0  0  0  0  0  0  0  0  0  0
    7.3013   -3.1217    0.6511 H   0  0  0  0  0  0  0  0  0  0  0  0
    4.5993   -4.5206    1.1392 H   0  0  0  0  0  0  0  0  0  0  0  0
    5.8360   -4.9344   -0.1086 H   0  0  0  0  0  0  0  0  0  0  0  0
   -0.6472    1.1412   -2.2593 H   0  0  0  0  0  0  0  0  0  0  0  0
    0.4547    3.9586   -1.6199 H   0  0  0  0  0  0  0  0  0  0  0  0
    0.8513    2.9199   -3.0341 H   0  0  0  0  0  0  0  0  0  0  0  0
   -1.3768    3.1400   -3.9686 H   0  0  0  0  0  0  0  0  0  0  0  0
   -0.6284    4.7506   -3.6795 H   0  0  0  0  0  0  0  0  0  0  0  0
   -1.8978    4.9987   -1.5449 H   0  0  0  0  0  0  0  0  0  0  0  0
   -3.0002    4.7313   -2.9457 H   0  0  0  0  0  0  0  0  0  0  0  0
   -3.1869    2.3284   -2.4107 H   0  0  0  0  0  0  0  0  0  0  0  0
   -3.6614    3.3370   -1.0071 H   0  0  0  0  0  0  0  0  0  0  0  0
   -1.4775    2.9387    0.0998 H   0  0  0  0  0  0  0  0  0  0  0  0
   -3.2424    3.0465    1.4234 H   0  0  0  0  0  0  0  0  0  0  0  0
   -4.6587    2.6777    3.3836 H   0  0  0  0  0  0  0  0  0  0  0  0
   -5.4964    0.4102    3.9205 H   0  0  0  0  0  0  0  0  0  0  0  0
   -4.9359   -1.4989    2.4579 H   0  0  0  0  0  0  0  0  0  0  0  0
  1  2  1  0
  2  3  1  0
  3  4  1  0
  4  5  1  0
  5  6  1  0
  6  7  1  0
  7  8  1  0
  8  9  2  0
  8 10  2  0
  8 11  1  0
 11 12  2  0
 12 13  1  0
 13 14  2  0
 14 15  1  0
 15 16  2  0
 16 17  1  0
 14 18  1  0
 18 19  1  0
 19 20  1  0
 20 21  1  0
  7 22  1  0
 22 23  1  0
 23 24  1  0
 24 25  1  0
 25 26  1  0
 26 27  1  0
 27 28  1  0
 28 29  1  0
 29 30  2  0
 30 31  1  0
 31 32  2  0
 32 33  1  0
 33 34  2  0
 34 35  1  0
 35 36  2  0
 35  2  1  0
 16 11  1  0
 27 22  1  0
 34 29  1  0
 21 13  1  0
  1 37  1  0
  1 38  1  0
  1 39  1  0
  3 40  1  0
  3 41  1  0
  4 42  1  0
  4 43  1  0
  5 44  1  0
  5 45  1  0
  6 46  1  0
  6 47  1  0
 12 48  1  0
 15 49  1  0
 19 50  1  0
 19 51  1  0
 20 52  1  0
 20 53  1  0
 22 54  1  0
 23 55  1  0
 23 56  1  0
 24 57  1  0
 24 58  1  0
 25 59  1  0
 25 60  1  0
 26 61  1  0
 26 62  1  0
 27 63  1  0
 30 64  1  0
 31 65  1  0
 32 66  1  0
 33 67  1  0
M  END
$$$$
