
     RDKit          3D

 76 80  0  0  0  0  0  0  0  0999 V2000
    5.3075    2.0911    0.1065 C   0  0  0  0  0  0  0  0  0  0  0  0
    5.3184    0.6744    0.6009 C   0  0  0  0  0  0  0  0  0  0  0  0
    4.2397   -0.0466    1.0753 C   0  0  0  0  0  0  0  0  0  0  0  0
    2.8712    0.4587    1.3023 C   0  0  0  0  0  0  0  0  0  0  0  0
    2.7439    1.5396    1.9387 O   0  0  0  0  0  0  0  0  0  0  0  0
    1.6982   -0.1972    0.7639 N   0  0  0  0  0  0  0  0  0  0  0  0
    1.8217   -1.4508    0.0096 C   0  0  0  0  0  0  0  0  0  0  0  0
    0.4805   -2.1778   -0.0677 C   0  0  0  0  0  0  0  0  0  0  0  0
   -0.5673   -1.3213   -0.4799 O   0  0  0  0  0  0  0  0  0  0  0  0
   -0.7764   -0.2230    0.4026 C   0  0  0  0  0  0  0  0  0  0  0  0
   -1.1995   -0.6769    1.8430 C   0  0  0  0  0  0  0  0  0  0  0  0
   -2.3836   -1.6691    1.8729 C   0  0  0  0  0  0  0  0  0  0  0  0
   -3.6556   -1.0429    2.4693 C   0  0  0  0  0  0  0  0  0  0  0  0
   -4.8691   -1.9913    2.3423 C   0  0  0  0  0  0  0  0  0  0  0  0
   -6.0680   -1.3150    1.7127 C   0  0  0  0  0  0  0  0  0  0  0  0
   -7.2699   -1.2085    2.4318 C   0  0  0  0  0  0  0  0  0  0  0  0
   -8.4021   -0.6495    1.8377 C   0  0  0  0  0  0  0  0  0  0  0  0
   -8.3486   -0.1956    0.5196 C   0  0  0  0  0  0  0  0  0  0  0  0
   -7.1594   -0.2896   -0.2067 C   0  0  0  0  0  0  0  0  0  0  0  0
   -6.0069   -0.8421    0.3844 C   0  0  0  0  0  0  0  0  0  0  0  0
   -4.7868   -0.9301   -0.3051 O   0  0  0  0  0  0  0  0  0  0  0  0
   -4.5686   -0.5081   -1.6454 C   0  0  0  0  0  0  0  0  0  0  0  0
   -3.0842   -0.6497   -1.9858 C   0  0  0  0  0  0  0  0  0  0  0  0
   -2.3213    0.5386   -1.5577 N   0  0  0  0  0  0  0  0  0  0  0  0
   -2.1700    1.6585   -2.5150 C   0  0  0  0  0  0  0  0  0  0  0  0
   -0.6938    1.9517   -2.7966 C   0  0  0  0  0  0  0  0  0  0  0  0
   -2.9019    2.9268   -2.0517 C   0  0  0  0  0  0  0  0  0  0  0  0
   -1.8756    0.6646   -0.1856 C   0  0  0  0  0  0  0  0  0  0  0  0
   -2.3591    1.5857    0.5279 O   0  0  0  0  0  0  0  0  0  0  0  0
    0.5142    0.6297    0.4926 C   0  0  0  0  0  0  0  0  0  0  0  0
    4.6639   -1.2958    1.3517 N   0  0  0  0  0  0  0  0  0  0  0  0
    5.9535   -1.3437    1.0480 N   0  0  0  0  0  0  0  0  0  0  0  0
    6.3734   -0.1684    0.6048 N   0  0  0  0  0  0  0  0  0  0  0  0
    7.7216    0.0830    0.1748 C   0  0  0  0  0  0  0  0  0  0  0  0
    8.3834    1.2705    0.5306 C   0  0  0  0  0  0  0  0  0  0  0  0
    9.6948    1.5020    0.1038 C   0  0  0  0  0  0  0  0  0  0  0  0
   10.3595    0.5460   -0.6706 C   0  0  0  0  0  0  0  0  0  0  0  0
   11.6297    0.7733   -1.0855 F   0  0  0  0  0  0  0  0  0  0  0  0
    9.7162   -0.6475   -1.0098 C   0  0  0  0  0  0  0  0  0  0  0  0
    8.4053   -0.8823   -0.5833 C   0  0  0  0  0  0  0  0  0  0  0  0
    6.0425    2.2207   -0.7151 H   0  0  0  0  0  0  0  0  0  0  0  0
    5.5534    2.7804    0.9407 H   0  0  0  0  0  0  0  0  0  0  0  0
    4.3041    2.3507   -0.2926 H   0  0  0  0  0  0  0  0  0  0  0  0
    2.5351   -2.1418    0.4981 H   0  0  0  0  0  0  0  0  0  0  0  0
    2.1835   -1.2255   -1.0163 H   0  0  0  0  0  0  0  0  0  0  0  0
    0.2415   -2.6884    0.8886 H   0  0  0  0  0  0  0  0  0  0  0  0
    0.5746   -2.9879   -0.8208 H   0  0  0  0  0  0  0  0  0  0  0  0
   -0.3359   -1.1415    2.3643 H   0  0  0  0  0  0  0  0  0  0  0  0
   -1.4273    0.2172    2.4652 H   0  0  0  0  0  0  0  0  0  0  0  0
   -2.5992   -2.0499    0.8540 H   0  0  0  0  0  0  0  0  0  0  0  0
   -2.1048   -2.5498    2.4924 H   0  0  0  0  0  0  0  0  0  0  0  0
   -3.4772   -0.8172    3.5431 H   0  0  0  0  0  0  0  0  0  0  0  0
   -3.8543   -0.0714    1.9695 H   0  0  0  0  0  0  0  0  0  0  0  0
   -5.1238   -2.3819    3.3525 H   0  0  0  0  0  0  0  0  0  0  0  0
   -4.6236   -2.8852    1.7258 H   0  0  0  0  0  0  0  0  0  0  0  0
   -7.3342   -1.5672    3.4518 H   0  0  0  0  0  0  0  0  0  0  0  0
   -9.3259   -0.5751    2.3979 H   0  0  0  0  0  0  0  0  0  0  0  0
   -9.2311    0.2299    0.0581 H   0  0  0  0  0  0  0  0  0  0  0  0
   -7.1483    0.0682   -1.2277 H   0  0  0  0  0  0  0  0  0  0  0  0
   -4.8851    0.5465   -1.7702 H   0  0  0  0  0  0  0  0  0  0  0  0
   -5.1683   -1.1451   -2.3293 H   0  0  0  0  0  0  0  0  0  0  0  0
   -2.9813   -0.7944   -3.0825 H   0  0  0  0  0  0  0  0  0  0  0  0
   -2.6902   -1.5769   -1.5269 H   0  0  0  0  0  0  0  0  0  0  0  0
   -2.6287    1.3756   -3.4886 H   0  0  0  0  0  0  0  0  0  0  0  0
   -0.6007    2.5640   -3.7185 H   0  0  0  0  0  0  0  0  0  0  0  0
   -0.2368    2.5239   -1.9625 H   0  0  0  0  0  0  0  0  0  0  0  0
   -0.1351    1.0033   -2.9486 H   0  0  0  0  0  0  0  0  0  0  0  0
   -2.3821    3.4080   -1.1967 H   0  0  0  0  0  0  0  0  0  0  0  0
   -2.9398    3.6598   -2.8846 H   0  0  0  0  0  0  0  0  0  0  0  0
   -3.9431    2.6903   -1.7549 H   0  0  0  0  0  0  0  0  0  0  0  0
    0.3831    1.4037    1.2810 H   0  0  0  0  0  0  0  0  0  0  0  0
    0.6939    1.1585   -0.4631 H   0  0  0  0  0  0  0  0  0  0  0  0
    7.8937    2.0060    1.1545 H   0  0  0  0  0  0  0  0  0  0  0  0
   10.1972    2.4191    0.3807 H   0  0  0  0  0  0  0  0  0  0  0  0
   10.2307   -1.3908   -1.6062 H   0  0  0  0  0  0  0  0  0  0  0  0
    7.9148   -1.8072   -0.8591 H   0  0  0  0  0  0  0  0  0  0  0  0
  1  2  1  0
  2  3  2  0
  3  4  1  0
  4  5  2  0
  4  6  1  0
  6  7  1  0
  7  8  1  0
  8  9  1  0
  9 10  1  0
 10 11  1  0
 11 12  1  0
 12 13  1  0
 13 14  1  0
 14 15  1  0
 15 16  2  0
 16 17  1  0
 17 18  2  0
 18 19  1  0
 19 20  2  0
 20 21  1  0
 21 22  1  0
 22 23  1  0
 23 24  1  0
 24 25  1  0
 25 26  1  0
 25 27  1  0
 24 28  1  0
 28 29  2  0
 10 30  1  0
  3 31  1  0
 31 32  2  0
 32 33  1  0
 33 34  1  0
 34 35  2  0
 35 36  1  0
 36 37  2  0
 37 38  1  0
 37 39  1  0
 39 40  2  0
 33  2  1  0
 40 34  1  0
 30  6  1  0
 28 10  1  0
 20 15  1  0
  1 41  1  0
  1 42  1  0
  1 43  1  0
  7 44  1  0
  7 45  1  0
  8 46  1  0
  8 47  1  0
 11 48  1  0
 11 49  1  0
 12 50  1  0
 12 51  1  0
 13 52  1  0
 13 53  1  0
 14 54  1  0
 14 55  1  0
 16 56  1  0
 17 57  1  0
 18 58  1  0
 19 59  1  0
 22 60  1  0
 22 61  1  0
 23 62  1  0
 23 63  1  0
 25 64  1  0
 26 65  1  0
 26 66  1  0
 26 67  1  0
 27 68  1  0
 27 69  1  0
 27 70  1  0
 30 71  1  0
 30 72  1  0
 35 73  1  0
 36 74  1  0
 39 75  1  0
 40 76  1  0
M  END
$$$$
