
     RDKit          3D

 63 65  0  0  0  0  0  0  0  0999 V2000
   -5.0262    3.3186    1.1650 C   0  0  0  0  0  0  0  0  0  0  0  0
   -3.6348    3.6189    0.6308 C   0  0  0  0  0  0  0  0  0  0  0  0
   -3.0271    2.4080    0.1876 O   0  0  0  0  0  0  0  0  0  0  0  0
   -1.7696    2.3237   -0.4311 C   0  0  0  0  0  0  0  0  0  0  0  0
   -0.9774    3.4652   -0.6603 C   0  0  0  0  0  0  0  0  0  0  0  0
    0.2849    3.3427   -1.2384 C   0  0  0  0  0  0  0  0  0  0  0  0
    0.7809    2.0859   -1.5794 C   0  0  0  0  0  0  0  0  0  0  0  0
    0.0156    0.9304   -1.3501 C   0  0  0  0  0  0  0  0  0  0  0  0
   -1.2792    1.0544   -0.8047 C   0  0  0  0  0  0  0  0  0  0  0  0
   -2.0544   -0.0931   -0.6033 O   0  0  0  0  0  0  0  0  0  0  0  0
   -3.3262   -0.2894   -1.2178 C   0  0  0  0  0  0  0  0  0  0  0  0
   -4.2088   -1.2003   -0.3525 C   0  0  0  0  0  0  0  0  0  0  0  0
   -4.0043   -2.7087   -0.6236 C   0  0  0  0  0  0  0  0  0  0  0  0
   -3.1882   -3.4437    0.4615 C   0  0  0  0  0  0  0  0  0  0  0  0
   -1.6723   -3.2382    0.3459 C   0  0  0  0  0  0  0  0  0  0  0  0
   -1.1655   -3.7043   -0.9460 N   0  0  0  0  0  0  0  0  0  0  0  0
    0.1465   -3.4041   -1.4364 C   0  0  0  0  0  0  0  0  0  0  0  0
    0.4641   -3.7804   -2.5952 O   0  0  0  0  0  0  0  0  0  0  0  0
    1.1618   -2.6653   -0.6082 C   0  0  0  0  0  0  0  0  0  0  0  0
    0.8478   -1.2373   -0.4670 N   0  0  0  0  0  0  0  0  0  0  0  0
    1.2943   -0.6134    0.7512 C   0  0  0  0  0  0  0  0  0  0  0  0
    0.7273   -0.9008    1.8402 O   0  0  0  0  0  0  0  0  0  0  0  0
    2.4677    0.3233    0.7548 C   0  0  0  0  0  0  0  0  0  0  0  0
    3.6407   -0.2705    1.5367 C   0  0  0  0  0  0  0  0  0  0  0  0
    4.8430    0.6224    1.4248 C   0  0  0  0  0  0  0  0  0  0  0  0
    5.0969    1.7293    2.2100 C   0  0  0  0  0  0  0  0  0  0  0  0
    6.2515    2.2726    1.6803 C   0  0  0  0  0  0  0  0  0  0  0  0
    6.6571    1.5362    0.6269 N   0  0  0  0  0  0  0  0  0  0  0  0
    5.7938    0.5450    0.4711 N   0  0  0  0  0  0  0  0  0  0  0  0
    5.9108   -0.4680   -0.5727 C   0  0  0  0  0  0  0  0  0  0  0  0
    0.5960   -0.4296   -1.6766 C   0  0  0  0  0  0  0  0  0  0  0  0
   -4.9675    2.5685    1.9801 H   0  0  0  0  0  0  0  0  0  0  0  0
   -5.6651    2.9195    0.3515 H   0  0  0  0  0  0  0  0  0  0  0  0
   -5.4867    4.2501    1.5572 H   0  0  0  0  0  0  0  0  0  0  0  0
   -3.7217    4.3338   -0.2166 H   0  0  0  0  0  0  0  0  0  0  0  0
   -3.0218    4.0736    1.4391 H   0  0  0  0  0  0  0  0  0  0  0  0
   -1.3253    4.4513   -0.3848 H   0  0  0  0  0  0  0  0  0  0  0  0
    0.8902    4.2238   -1.4074 H   0  0  0  0  0  0  0  0  0  0  0  0
    1.7720    2.0172   -2.0102 H   0  0  0  0  0  0  0  0  0  0  0  0
   -3.8518    0.6803   -1.3490 H   0  0  0  0  0  0  0  0  0  0  0  0
   -3.1859   -0.7082   -2.2348 H   0  0  0  0  0  0  0  0  0  0  0  0
   -4.0625   -0.9547    0.7222 H   0  0  0  0  0  0  0  0  0  0  0  0
   -5.2685   -0.9530   -0.5864 H   0  0  0  0  0  0  0  0  0  0  0  0
   -3.5738   -2.8853   -1.6309 H   0  0  0  0  0  0  0  0  0  0  0  0
   -5.0076   -3.1874   -0.6435 H   0  0  0  0  0  0  0  0  0  0  0  0
   -3.3983   -4.5309    0.3929 H   0  0  0  0  0  0  0  0  0  0  0  0
   -3.5217   -3.1187    1.4687 H   0  0  0  0  0  0  0  0  0  0  0  0
   -1.4369   -2.1702    0.4935 H   0  0  0  0  0  0  0  0  0  0  0  0
   -1.1732   -3.8103    1.1567 H   0  0  0  0  0  0  0  0  0  0  0  0
   -1.7580   -4.3406   -1.5223 H   0  0  0  0  0  0  0  0  0  0  0  0
    1.2264   -3.1547    0.3854 H   0  0  0  0  0  0  0  0  0  0  0  0
    2.1669   -2.7647   -1.0719 H   0  0  0  0  0  0  0  0  0  0  0  0
    2.7969    0.5173   -0.2855 H   0  0  0  0  0  0  0  0  0  0  0  0
    2.1573    1.2882    1.2099 H   0  0  0  0  0  0  0  0  0  0  0  0
    3.3630   -0.3787    2.6086 H   0  0  0  0  0  0  0  0  0  0  0  0
    3.8850   -1.2818    1.1454 H   0  0  0  0  0  0  0  0  0  0  0  0
    4.5147    2.1027    3.0419 H   0  0  0  0  0  0  0  0  0  0  0  0
    6.7586    3.1595    2.0335 H   0  0  0  0  0  0  0  0  0  0  0  0
    6.1398   -1.4525   -0.1133 H   0  0  0  0  0  0  0  0  0  0  0  0
    6.7293   -0.2017   -1.2751 H   0  0  0  0  0  0  0  0  0  0  0  0
    4.9600   -0.5390   -1.1446 H   0  0  0  0  0  0  0  0  0  0  0  0
   -0.1248   -0.9514   -2.3405 H   0  0  0  0  0  0  0  0  0  0  0  0
    1.5445   -0.3315   -2.2508 H   0  0  0  0  0  0  0  0  0  0  0  0
  1  2  1  0
  2  3  1  0
  3  4  1  0
  4  5  2  0
  5  6  1  0
  6  7  2  0
  7  8  1  0
  8  9  2  0
  9 10  1  0
 10 11  1  0
 11 12  1  0
 12 13  1  0
 13 14  1  0
 14 15  1  0
 15 16  1  0
 16 17  1  0
 17 18  2  0
 17 19  1  0
 19 20  1  0
 20 21  1  0
 21 22  2  0
 21 23  1  0
 23 24  1  0
 24 25  1  0
 25 26  2  0
 26 27  1  0
 27 28  2  0
 28 29  1  0
 29 30  1  0
 20 31  1  0
  9  4  1  0
 29 25  1  0
 31  8  1  0
  1 32  1  0
  1 33  1  0
  1 34  1  0
  2 35  1  0
  2 36  1  0
  5 37  1  0
  6 38  1  0
  7 39  1  0
 11 40  1  0
 11 41  1  0
 12 42  1  0
 12 43  1  0
 13 44  1  0
 13 45  1  0
 14 46  1  0
 14 47  1  0
 15 48  1  0
 15 49  1  0
 16 50  1  0
 19 51  1  0
 19 52  1  0
 23 53  1  0
 23 54  1  0
 24 55  1  0
 24 56  1  0
 26 57  1  0
 27 58  1  0
 30 59  1  0
 30 60  1  0
 30 61  1  0
 31 62  1  0
 31 63  1  0
M  END
$$$$
