
     RDKit          3D

 86 88  0  0  0  0  0  0  0  0999 V2000
    4.4953   -5.8304    0.6366 C   0  0  0  0  0  0  0  0  0  0  0  0
    4.8798   -4.3984    0.4108 C   0  0  0  0  0  0  0  0  0  0  0  0
    6.1602   -3.9521    0.7523 C   0  0  0  0  0  0  0  0  0  0  0  0
    6.5285   -2.6280    0.5151 C   0  0  0  0  0  0  0  0  0  0  0  0
    5.6268   -1.7212   -0.0745 C   0  0  0  0  0  0  0  0  0  0  0  0
    6.0501   -0.2785   -0.3171 C   0  0  0  0  0  0  0  0  0  0  0  0
    6.4395    0.4173    0.9936 C   0  0  0  0  0  0  0  0  0  0  0  0
    7.1911   -0.2059   -1.3379 C   0  0  0  0  0  0  0  0  0  0  0  0
    4.3401   -2.1761   -0.4474 C   0  0  0  0  0  0  0  0  0  0  0  0
    3.4442   -1.2808   -1.0555 O   0  0  0  0  0  0  0  0  0  0  0  0
    2.1026   -1.5913   -1.4228 C   0  0  0  0  0  0  0  0  0  0  0  0
    1.4134   -0.3407   -1.9619 C   0  0  0  0  0  0  0  0  0  0  0  0
    1.3632    0.7073   -0.9428 N   0  0  0  0  0  0  0  0  0  0  0  0
    0.5148    1.8541   -1.0850 C   0  0  0  0  0  0  0  0  0  0  0  0
   -0.0358    2.0908   -2.1947 O   0  0  0  0  0  0  0  0  0  0  0  0
    0.2547    2.7500    0.1059 C   0  0  0  0  0  0  0  0  0  0  0  0
   -0.7755    2.1431    1.0836 C   0  0  0  0  0  0  0  0  0  0  0  0
   -0.4006    0.7603    1.5505 C   0  0  0  0  0  0  0  0  0  0  0  0
    0.4948    0.6485    2.4302 O   0  0  0  0  0  0  0  0  0  0  0  0
   -0.9891   -0.4331    0.9947 N   0  0  0  0  0  0  0  0  0  0  0  0
   -2.1180   -0.4523    0.0456 C   0  0  0  0  0  0  0  0  0  0  0  0
   -2.3554   -1.8886   -0.4868 C   0  0  0  0  0  0  0  0  0  0  0  0
   -2.8446   -2.9105    0.5803 C   0  0  0  0  0  0  0  0  0  0  0  0
   -2.2057   -4.2861    0.3387 C   0  0  0  0  0  0  0  0  0  0  0  0
   -4.3761   -3.0467    0.5737 C   0  0  0  0  0  0  0  0  0  0  0  0
   -3.3671    0.1290    0.6827 C   0  0  0  0  0  0  0  0  0  0  0  0
   -3.5074   -0.0066    1.9290 O   0  0  0  0  0  0  0  0  0  0  0  0
   -4.4114    0.7942   -0.0743 N   0  0  0  0  0  0  0  0  0  0  0  0
   -5.6577    1.1234    0.6302 C   0  0  0  0  0  0  0  0  0  0  0  0
   -4.3565    0.9903   -1.5350 C   0  0  0  0  0  0  0  0  0  0  0  0
   -3.5344    2.2182   -1.9361 C   0  0  0  0  0  0  0  0  0  0  0  0
   -4.1777    3.4316   -1.5445 O   0  0  0  0  0  0  0  0  0  0  0  0
   -3.9208    4.1164   -0.3479 C   0  0  0  0  0  0  0  0  0  0  0  0
   -5.0122    4.4208    0.4753 C   0  0  0  0  0  0  0  0  0  0  0  0
   -4.8197    5.0264    1.7173 C   0  0  0  0  0  0  0  0  0  0  0  0
   -3.5334    5.3604    2.1385 C   0  0  0  0  0  0  0  0  0  0  0  0
   -2.4391    5.1192    1.3050 C   0  0  0  0  0  0  0  0  0  0  0  0
   -2.6173    4.5199    0.0463 C   0  0  0  0  0  0  0  0  0  0  0  0
   -1.4483    4.4041   -0.8538 C   0  0  0  0  0  0  0  0  0  0  0  0
   -1.5801    4.6508   -2.0829 O   0  0  0  0  0  0  0  0  0  0  0  0
   -0.1430    4.0979   -0.3349 N   0  0  0  0  0  0  0  0  0  0  0  0
    3.9807   -3.5161   -0.2024 C   0  0  0  0  0  0  0  0  0  0  0  0
    3.4082   -5.9142    0.8480 H   0  0  0  0  0  0  0  0  0  0  0  0
    4.7370   -6.4261   -0.2676 H   0  0  0  0  0  0  0  0  0  0  0  0
    5.0472   -6.2538    1.5031 H   0  0  0  0  0  0  0  0  0  0  0  0
    6.8740   -4.6294    1.2078 H   0  0  0  0  0  0  0  0  0  0  0  0
    7.5232   -2.3110    0.7959 H   0  0  0  0  0  0  0  0  0  0  0  0
    5.2039    0.3029   -0.7403 H   0  0  0  0  0  0  0  0  0  0  0  0
    7.3474   -0.0363    1.4424 H   0  0  0  0  0  0  0  0  0  0  0  0
    5.6051    0.3477    1.7225 H   0  0  0  0  0  0  0  0  0  0  0  0
    6.6382    1.4922    0.8079 H   0  0  0  0  0  0  0  0  0  0  0  0
    8.1064   -0.6983   -0.9472 H   0  0  0  0  0  0  0  0  0  0  0  0
    7.4285    0.8551   -1.5664 H   0  0  0  0  0  0  0  0  0  0  0  0
    6.8895   -0.7034   -2.2844 H   0  0  0  0  0  0  0  0  0  0  0  0
    2.1002   -2.3778   -2.2085 H   0  0  0  0  0  0  0  0  0  0  0  0
    1.5409   -1.9546   -0.5347 H   0  0  0  0  0  0  0  0  0  0  0  0
    0.3804   -0.6157   -2.2632 H   0  0  0  0  0  0  0  0  0  0  0  0
    1.9571    0.0373   -2.8551 H   0  0  0  0  0  0  0  0  0  0  0  0
    1.8912    0.5854   -0.0481 H   0  0  0  0  0  0  0  0  0  0  0  0
    1.2146    2.8507    0.6606 H   0  0  0  0  0  0  0  0  0  0  0  0
   -1.7742    2.1271    0.6260 H   0  0  0  0  0  0  0  0  0  0  0  0
   -0.8501    2.8000    1.9774 H   0  0  0  0  0  0  0  0  0  0  0  0
   -0.5545   -1.3401    1.2755 H   0  0  0  0  0  0  0  0  0  0  0  0
   -1.8252    0.1569   -0.8281 H   0  0  0  0  0  0  0  0  0  0  0  0
   -1.3894   -2.2288   -0.9230 H   0  0  0  0  0  0  0  0  0  0  0  0
   -3.0649   -1.8668   -1.3424 H   0  0  0  0  0  0  0  0  0  0  0  0
   -2.5337   -2.5839    1.5977 H   0  0  0  0  0  0  0  0  0  0  0  0
   -2.5590   -5.0141    1.0992 H   0  0  0  0  0  0  0  0  0  0  0  0
   -1.1006   -4.2123    0.4281 H   0  0  0  0  0  0  0  0  0  0  0  0
   -2.4611   -4.6664   -0.6743 H   0  0  0  0  0  0  0  0  0  0  0  0
   -4.8581   -2.0839    0.8437 H   0  0  0  0  0  0  0  0  0  0  0  0
   -4.7408   -3.3601   -0.4294 H   0  0  0  0  0  0  0  0  0  0  0  0
   -4.6967   -3.8029    1.3234 H   0  0  0  0  0  0  0  0  0  0  0  0
   -5.4426    1.7836    1.4971 H   0  0  0  0  0  0  0  0  0  0  0  0
   -6.3780    1.6518   -0.0303 H   0  0  0  0  0  0  0  0  0  0  0  0
   -6.1354    0.1890    0.9974 H   0  0  0  0  0  0  0  0  0  0  0  0
   -5.3777    1.1104   -1.9557 H   0  0  0  0  0  0  0  0  0  0  0  0
   -3.9430    0.0902   -2.0271 H   0  0  0  0  0  0  0  0  0  0  0  0
   -2.5126    2.1506   -1.5357 H   0  0  0  0  0  0  0  0  0  0  0  0
   -3.4497    2.2215   -3.0433 H   0  0  0  0  0  0  0  0  0  0  0  0
   -6.0143    4.1518    0.1659 H   0  0  0  0  0  0  0  0  0  0  0  0
   -5.6704    5.2274    2.3567 H   0  0  0  0  0  0  0  0  0  0  0  0
   -3.3874    5.8277    3.1018 H   0  0  0  0  0  0  0  0  0  0  0  0
   -1.4540    5.4333    1.6292 H   0  0  0  0  0  0  0  0  0  0  0  0
    0.6293    4.7373   -0.6206 H   0  0  0  0  0  0  0  0  0  0  0  0
    2.9984   -3.8809   -0.4797 H   0  0  0  0  0  0  0  0  0  0  0  0
  1  2  1  0
  2  3  2  0
  3  4  1  0
  4  5  2  0
  5  6  1  0
  6  7  1  0
  6  8  1  0
  5  9  1  0
  9 10  1  0
 10 11  1  0
 11 12  1  0
 12 13  1  0
 13 14  1  0
 14 15  2  0
 14 16  1  0
 16 17  1  0
 17 18  1  0
 18 19  2  0
 18 20  1  0
 20 21  1  0
 21 22  1  0
 22 23  1  0
 23 24  1  0
 23 25  1  0
 21 26  1  0
 26 27  2  0
 26 28  1  0
 28 29  1  0
 28 30  1  0
 30 31  1  0
 31 32  1  0
 32 33  1  0
 33 34  2  0
 34 35  1  0
 35 36  2  0
 36 37  1  0
 37 38  2  0
 38 39  1  0
 39 40  2  0
 39 41  1  0
  9 42  2  0
 42  2  1  0
 41 16  1  0
 38 33  1  0
  1 43  1  0
  1 44  1  0
  1 45  1  0
  3 46  1  0
  4 47  1  0
  6 48  1  0
  7 49  1  0
  7 50  1  0
  7 51  1  0
  8 52  1  0
  8 53  1  0
  8 54  1  0
 11 55  1  0
 11 56  1  0
 12 57  1  0
 12 58  1  0
 13 59  1  0
 16 60  1  0
 17 61  1  0
 17 62  1  0
 20 63  1  0
 21 64  1  0
 22 65  1  0
 22 66  1  0
 23 67  1  0
 24 68  1  0
 24 69  1  0
 24 70  1  0
 25 71  1  0
 25 72  1  0
 25 73  1  0
 29 74  1  0
 29 75  1  0
 29 76  1  0
 30 77  1  0
 30 78  1  0
 31 79  1  0
 31 80  1  0
 34 81  1  0
 35 82  1  0
 36 83  1  0
 37 84  1  0
 41 85  1  0
 42 86  1  0
M  END
$$$$
