
     RDKit          3D

 60 63  0  0  0  0  0  0  0  0999 V2000
   -3.3639    2.9892   -1.4316 O   0  0  0  0  0  0  0  0  0  0  0  0
   -3.0525    1.7827   -1.2404 C   0  0  0  0  0  0  0  0  0  0  0  0
   -1.6587    1.4397   -1.2357 N   0  0  0  0  0  0  0  0  0  0  0  0
   -1.0385    0.9041   -0.0301 C   0  0  0  0  0  0  0  0  0  0  0  0
    0.4643    1.2381    0.1596 C   0  0  0  0  0  0  0  0  0  0  0  0
    0.8903    0.7942    1.6101 C   0  0  0  0  0  0  0  0  0  0  0  0
    0.5061   -0.6428    2.0639 C   0  0  0  0  0  0  0  0  0  0  0  0
   -0.9187   -0.7636    2.6811 C   0  0  0  0  0  0  0  0  0  0  0  0
   -1.7837   -1.8593    2.0109 C   0  0  0  0  0  0  0  0  0  0  0  0
   -3.2454   -1.4457    1.7792 C   0  0  0  0  0  0  0  0  0  0  0  0
   -3.3256   -0.3772    0.8248 O   0  0  0  0  0  0  0  0  0  0  0  0
   -4.3084   -0.2131   -0.1680 C   0  0  0  0  0  0  0  0  0  0  0  0
   -5.4774   -1.0066   -0.1626 C   0  0  0  0  0  0  0  0  0  0  0  0
   -6.4397   -0.8729   -1.1619 C   0  0  0  0  0  0  0  0  0  0  0  0
   -6.2686    0.0635   -2.1746 C   0  0  0  0  0  0  0  0  0  0  0  0
   -5.1440    0.8856   -2.1813 C   0  0  0  0  0  0  0  0  0  0  0  0
   -4.1502    0.7712   -1.1897 C   0  0  0  0  0  0  0  0  0  0  0  0
    0.6977    2.7931    0.0397 C   0  0  0  0  0  0  0  0  0  0  0  0
    1.5765    3.2036   -1.1508 C   0  0  0  0  0  0  0  0  0  0  0  0
    2.8991    2.4287   -1.1381 C   0  0  0  0  0  0  0  0  0  0  0  0
    2.6857    0.9868   -0.9418 N   0  0  0  0  0  0  0  0  0  0  0  0
    3.8382    0.1189   -0.8749 C   0  0  0  0  0  0  0  0  0  0  0  0
    4.9382    0.5167   -1.3490 O   0  0  0  0  0  0  0  0  0  0  0  0
    3.7518   -1.2639   -0.2800 C   0  0  0  0  0  0  0  0  0  0  0  0
    5.1208   -1.7643    0.2044 C   0  0  0  0  0  0  0  0  0  0  0  0
    5.9280   -2.5678   -0.8044 C   0  0  0  0  0  0  0  0  0  0  0  0
    5.2323   -3.2743    0.3488 C   0  0  0  0  0  0  0  0  0  0  0  0
    1.3084    0.4688   -0.9023 C   0  0  0  0  0  0  0  0  0  0  0  0
   -1.0612    1.9107   -1.9498 H   0  0  0  0  0  0  0  0  0  0  0  0
   -1.5808    1.3321    0.8377 H   0  0  0  0  0  0  0  0  0  0  0  0
   -1.1415   -0.1940   -0.0760 H   0  0  0  0  0  0  0  0  0  0  0  0
    0.4772    1.5074    2.3579 H   0  0  0  0  0  0  0  0  0  0  0  0
    1.9955    0.8922    1.6909 H   0  0  0  0  0  0  0  0  0  0  0  0
    1.2328   -0.9433    2.8506 H   0  0  0  0  0  0  0  0  0  0  0  0
    0.6679   -1.3688    1.2452 H   0  0  0  0  0  0  0  0  0  0  0  0
   -1.4462    0.2098    2.6889 H   0  0  0  0  0  0  0  0  0  0  0  0
   -0.8154   -1.0205    3.7585 H   0  0  0  0  0  0  0  0  0  0  0  0
   -1.7723   -2.7632    2.6582 H   0  0  0  0  0  0  0  0  0  0  0  0
   -1.3677   -2.1801    1.0331 H   0  0  0  0  0  0  0  0  0  0  0  0
   -3.7599   -2.3537    1.4034 H   0  0  0  0  0  0  0  0  0  0  0  0
   -3.7205   -1.1322    2.7329 H   0  0  0  0  0  0  0  0  0  0  0  0
   -5.6744   -1.7192    0.6241 H   0  0  0  0  0  0  0  0  0  0  0  0
   -7.3269   -1.4929   -1.1451 H   0  0  0  0  0  0  0  0  0  0  0  0
   -7.0194    0.1673   -2.9474 H   0  0  0  0  0  0  0  0  0  0  0  0
   -5.0503    1.6242   -2.9689 H   0  0  0  0  0  0  0  0  0  0  0  0
   -0.2651    3.3445   -0.0301 H   0  0  0  0  0  0  0  0  0  0  0  0
    1.1920    3.1957    0.9518 H   0  0  0  0  0  0  0  0  0  0  0  0
    1.0401    3.0132   -2.1047 H   0  0  0  0  0  0  0  0  0  0  0  0
    1.7874    4.2938   -1.0993 H   0  0  0  0  0  0  0  0  0  0  0  0
    3.5344    2.8171   -0.3121 H   0  0  0  0  0  0  0  0  0  0  0  0
    3.4284    2.6027   -2.0997 H   0  0  0  0  0  0  0  0  0  0  0  0
    3.3054   -1.9495   -1.0332 H   0  0  0  0  0  0  0  0  0  0  0  0
    3.0856   -1.2375    0.6064 H   0  0  0  0  0  0  0  0  0  0  0  0
    5.7038   -1.1789    0.9471 H   0  0  0  0  0  0  0  0  0  0  0  0
    5.4495   -2.7314   -1.7930 H   0  0  0  0  0  0  0  0  0  0  0  0
    7.0282   -2.4803   -0.6831 H   0  0  0  0  0  0  0  0  0  0  0  0
    5.9234   -3.6118    1.1493 H   0  0  0  0  0  0  0  0  0  0  0  0
    4.3427   -3.8653    0.0433 H   0  0  0  0  0  0  0  0  0  0  0  0
    1.2780   -0.6221   -0.7294 H   0  0  0  0  0  0  0  0  0  0  0  0
    0.8670    0.6008   -1.9128 H   0  0  0  0  0  0  0  0  0  0  0  0
  1  2  2  0
  2  3  1  0
  3  4  1  0
  4  5  1  0
  5  6  1  0
  6  7  1  0
  7  8  1  0
  8  9  1  0
  9 10  1  0
 10 11  1  0
 11 12  1  0
 12 13  2  0
 13 14  1  0
 14 15  2  0
 15 16  1  0
 16 17  2  0
  5 18  1  0
 18 19  1  0
 19 20  1  0
 20 21  1  0
 21 22  1  0
 22 23  2  0
 22 24  1  0
 24 25  1  0
 25 26  1  0
 26 27  1  0
 21 28  1  0
 17  2  1  0
 27 25  1  0
 28  5  1  0
 17 12  1  0
  3 29  1  0
  4 30  1  0
  4 31  1  0
  6 32  1  0
  6 33  1  0
  7 34  1  0
  7 35  1  0
  8 36  1  0
  8 37  1  0
  9 38  1  0
  9 39  1  0
 10 40  1  0
 10 41  1  0
 13 42  1  0
 14 43  1  0
 15 44  1  0
 16 45  1  0
 18 46  1  0
 18 47  1  0
 19 48  1  0
 19 49  1  0
 20 50  1  0
 20 51  1  0
 24 52  1  0
 24 53  1  0
 25 54  1  0
 26 55  1  0
 26 56  1  0
 27 57  1  0
 27 58  1  0
 28 59  1  0
 28 60  1  0
M  END
$$$$
