
     RDKit          3D

 75 76  0  0  0  0  0  0  0  0999 V2000
    8.2873   -0.6342   -2.6840 C   0  0  0  0  0  0  0  0  0  0  0  0
    7.7422   -1.7637   -1.8174 C   0  0  0  0  0  0  0  0  0  0  0  0
    7.0698   -1.2188   -0.6422 N   0  0  0  0  0  0  0  0  0  0  0  0
    5.7707   -0.8629   -0.5690 C   0  0  0  0  0  0  0  0  0  0  0  0
    5.5570   -0.3285    0.6884 C   0  0  0  0  0  0  0  0  0  0  0  0
    4.3306    0.1703    1.2503 N   0  0  0  0  0  0  0  0  0  0  0  0
    3.1558    0.5041    0.4914 C   0  0  0  0  0  0  0  0  0  0  0  0
    3.1687    0.4695   -0.7677 O   0  0  0  0  0  0  0  0  0  0  0  0
    1.9126    0.9654    1.1966 C   0  0  0  0  0  0  0  0  0  0  0  0
    0.7380    0.1941    0.7355 N   0  0  0  0  0  0  0  0  0  0  0  0
    0.7422   -1.1928    1.2735 C   0  0  0  0  0  0  0  0  0  0  0  0
    0.5907   -2.2201    0.1384 C   0  0  0  0  0  0  0  0  0  0  0  0
   -0.6155   -1.9144   -0.7548 C   0  0  0  0  0  0  0  0  0  0  0  0
   -0.9699   -3.0745   -1.6945 C   0  0  0  0  0  0  0  0  0  0  0  0
   -1.9764   -2.7018   -2.6210 O   0  0  0  0  0  0  0  0  0  0  0  0
   -3.2428   -2.5537   -1.9971 C   0  0  0  0  0  0  0  0  0  0  0  0
   -3.6408   -1.0580   -1.9560 C   0  0  0  0  0  0  0  0  0  0  0  0
   -4.2477   -0.6994   -3.1726 O   0  0  0  0  0  0  0  0  0  0  0  0
   -4.5996   -0.7626   -0.7754 C   0  0  0  0  0  0  0  0  0  0  0  0
   -3.9269   -1.0046    0.4347 O   0  0  0  0  0  0  0  0  0  0  0  0
   -5.2082    0.6712   -0.7621 C   0  0  0  0  0  0  0  0  0  0  0  0
   -6.1065    0.7838   -1.8553 O   0  0  0  0  0  0  0  0  0  0  0  0
   -7.2859    1.4630   -1.4790 C   0  0  0  0  0  0  0  0  0  0  0  0
   -4.1634    1.8197   -0.8571 C   0  0  0  0  0  0  0  0  0  0  0  0
   -3.3369    2.0003    0.3525 N   0  0  0  0  0  0  0  0  0  0  0  0
   -3.9846    2.0727    1.6338 C   0  0  0  0  0  0  0  0  0  0  0  0
   -4.4891    3.3791    2.1600 C   0  0  0  0  0  0  0  0  0  0  0  0
   -4.0835    1.0386    2.3464 O   0  0  0  0  0  0  0  0  0  0  0  0
   -2.0770    2.7490    0.2004 C   0  0  0  0  0  0  0  0  0  0  0  0
   -0.9017    1.8267   -0.1328 C   0  0  0  0  0  0  0  0  0  0  0  0
   -0.5214    0.9161    1.0436 C   0  0  0  0  0  0  0  0  0  0  0  0
    6.7836   -0.3980    1.3300 C   0  0  0  0  0  0  0  0  0  0  0  0
    7.0919    0.0594    2.7179 C   0  0  0  0  0  0  0  0  0  0  0  0
    7.6935   -0.9338    0.4938 N   0  0  0  0  0  0  0  0  0  0  0  0
    7.4532    0.0130   -3.0313 H   0  0  0  0  0  0  0  0  0  0  0  0
    8.8060   -1.0544   -3.5718 H   0  0  0  0  0  0  0  0  0  0  0  0
    9.0080   -0.0201   -2.1025 H   0  0  0  0  0  0  0  0  0  0  0  0
    8.5784   -2.4223   -1.4980 H   0  0  0  0  0  0  0  0  0  0  0  0
    7.0283   -2.3757   -2.4085 H   0  0  0  0  0  0  0  0  0  0  0  0
    5.0529   -0.9998   -1.3665 H   0  0  0  0  0  0  0  0  0  0  0  0
    4.3127    0.3527    2.2794 H   0  0  0  0  0  0  0  0  0  0  0  0
    2.0236    0.8799    2.3001 H   0  0  0  0  0  0  0  0  0  0  0  0
    1.7931    2.0456    0.9620 H   0  0  0  0  0  0  0  0  0  0  0  0
   -0.0593   -1.3550    2.0293 H   0  0  0  0  0  0  0  0  0  0  0  0
    1.6916   -1.4302    1.8051 H   0  0  0  0  0  0  0  0  0  0  0  0
    1.5143   -2.2266   -0.4804 H   0  0  0  0  0  0  0  0  0  0  0  0
    0.4751   -3.2279    0.5930 H   0  0  0  0  0  0  0  0  0  0  0  0
   -1.4859   -1.7012   -0.1071 H   0  0  0  0  0  0  0  0  0  0  0  0
   -0.3916   -1.0191   -1.3693 H   0  0  0  0  0  0  0  0  0  0  0  0
   -0.0630   -3.3475   -2.2748 H   0  0  0  0  0  0  0  0  0  0  0  0
   -1.2610   -3.9826   -1.1188 H   0  0  0  0  0  0  0  0  0  0  0  0
   -3.2960   -3.0158   -0.9832 H   0  0  0  0  0  0  0  0  0  0  0  0
   -3.9922   -3.1070   -2.6026 H   0  0  0  0  0  0  0  0  0  0  0  0
   -2.7228   -0.4498   -1.8061 H   0  0  0  0  0  0  0  0  0  0  0  0
   -3.5203   -0.6068   -3.8411 H   0  0  0  0  0  0  0  0  0  0  0  0
   -5.4542   -1.4765   -0.8653 H   0  0  0  0  0  0  0  0  0  0  0  0
   -4.6178   -1.2517    1.1033 H   0  0  0  0  0  0  0  0  0  0  0  0
   -5.7443    0.7635    0.2126 H   0  0  0  0  0  0  0  0  0  0  0  0
   -7.9027    1.6362   -2.3862 H   0  0  0  0  0  0  0  0  0  0  0  0
   -7.8847    0.8446   -0.7727 H   0  0  0  0  0  0  0  0  0  0  0  0
   -7.0611    2.4553   -1.0275 H   0  0  0  0  0  0  0  0  0  0  0  0
   -3.5163    1.6640   -1.7469 H   0  0  0  0  0  0  0  0  0  0  0  0
   -4.6986    2.7775   -1.0470 H   0  0  0  0  0  0  0  0  0  0  0  0
   -5.4616    3.2327    2.6745 H   0  0  0  0  0  0  0  0  0  0  0  0
   -3.7473    3.7889    2.8791 H   0  0  0  0  0  0  0  0  0  0  0  0
   -4.6238    4.1021    1.3285 H   0  0  0  0  0  0  0  0  0  0  0  0
   -1.8336    3.3217    1.1237 H   0  0  0  0  0  0  0  0  0  0  0  0
   -2.1843    3.5005   -0.6134 H   0  0  0  0  0  0  0  0  0  0  0  0
   -1.1473    1.2136   -1.0244 H   0  0  0  0  0  0  0  0  0  0  0  0
   -0.0358    2.4672   -0.4022 H   0  0  0  0  0  0  0  0  0  0  0  0
   -1.3695    0.2160    1.1997 H   0  0  0  0  0  0  0  0  0  0  0  0
   -0.4246    1.5091    1.9818 H   0  0  0  0  0  0  0  0  0  0  0  0
    8.1589   -0.1334    2.9549 H   0  0  0  0  0  0  0  0  0  0  0  0
    6.4550   -0.4897    3.4426 H   0  0  0  0  0  0  0  0  0  0  0  0
    6.8917    1.1474    2.8039 H   0  0  0  0  0  0  0  0  0  0  0  0
  1  2  1  0
  2  3  1  0
  3  4  1  0
  4  5  2  0
  5  6  1  0
  6  7  1  0
  7  8  2  0
  7  9  1  0
  9 10  1  0
 10 11  1  0
 11 12  1  0
 12 13  1  0
 13 14  1  0
 14 15  1  0
 15 16  1  0
 16 17  1  0
 17 18  1  0
 17 19  1  0
 19 20  1  0
 19 21  1  0
 21 22  1  0
 22 23  1  0
 21 24  1  0
 24 25  1  0
 25 26  1  0
 26 27  1  0
 26 28  2  0
 25 29  1  0
 29 30  1  0
 30 31  1  0
  5 32  1  0
 32 33  1  0
 32 34  2  0
 34  3  1  0
 31 10  1  0
  1 35  1  0
  1 36  1  0
  1 37  1  0
  2 38  1  0
  2 39  1  0
  4 40  1  0
  6 41  1  0
  9 42  1  0
  9 43  1  0
 11 44  1  0
 11 45  1  0
 12 46  1  0
 12 47  1  0
 13 48  1  0
 13 49  1  0
 14 50  1  0
 14 51  1  0
 16 52  1  0
 16 53  1  0
 17 54  1  0
 18 55  1  0
 19 56  1  0
 20 57  1  0
 21 58  1  0
 23 59  1  0
 23 60  1  0
 23 61  1  0
 24 62  1  0
 24 63  1  0
 27 64  1  0
 27 65  1  0
 27 66  1  0
 29 67  1  0
 29 68  1  0
 30 69  1  0
 30 70  1  0
 31 71  1  0
 31 72  1  0
 33 73  1  0
 33 74  1  0
 33 75  1  0
M  END
$$$$
