
     RDKit          3D

 65 68  0  0  0  0  0  0  0  0999 V2000
    1.2099    0.9429   -1.8407 O   0  0  0  0  0  0  0  0  0  0  0  0
    0.2978    0.9904   -0.9746 C   0  0  0  0  0  0  0  0  0  0  0  0
    0.6446    0.7741    0.4786 C   0  0  0  0  0  0  0  0  0  0  0  0
    1.8817   -0.0050    0.6310 N   0  0  0  0  0  0  0  0  0  0  0  0
    2.9558    0.5207    1.4308 C   0  0  0  0  0  0  0  0  0  0  0  0
    2.7115    0.9731    2.5793 O   0  0  0  0  0  0  0  0  0  0  0  0
    4.3435    0.4887    0.9492 C   0  0  0  0  0  0  0  0  0  0  0  0
    5.3722    0.5121    1.8370 N   0  0  0  0  0  0  0  0  0  0  0  0
    6.6629    0.4643    1.4139 C   0  0  0  0  0  0  0  0  0  0  0  0
    6.9459    0.4096    0.0534 C   0  0  0  0  0  0  0  0  0  0  0  0
    5.8806    0.4005   -0.8451 C   0  0  0  0  0  0  0  0  0  0  0  0
    4.6057    0.4330   -0.3844 N   0  0  0  0  0  0  0  0  0  0  0  0
    1.9611   -1.3809    0.1100 C   0  0  0  0  0  0  0  0  0  0  0  0
    1.9601   -2.4214    1.2464 C   0  0  0  0  0  0  0  0  0  0  0  0
    0.5432   -2.8008    1.7265 C   0  0  0  0  0  0  0  0  0  0  0  0
    0.0041   -4.0750    1.0551 C   0  0  0  0  0  0  0  0  0  0  0  0
   -0.0931   -3.9080   -0.3942 N   0  0  0  0  0  0  0  0  0  0  0  0
   -1.1662   -3.1979   -1.0249 C   0  0  0  0  0  0  0  0  0  0  0  0
   -0.9608   -2.6260   -2.1289 O   0  0  0  0  0  0  0  0  0  0  0  0
   -2.5348   -3.2111   -0.4768 C   0  0  0  0  0  0  0  0  0  0  0  0
   -3.1538   -4.4428   -0.2123 C   0  0  0  0  0  0  0  0  0  0  0  0
   -4.4862   -4.4922    0.1997 C   0  0  0  0  0  0  0  0  0  0  0  0
   -5.2464   -6.0381    0.5317 Cl  0  0  0  0  0  0  0  0  0  0  0  0
   -5.2138   -3.3080    0.3457 C   0  0  0  0  0  0  0  0  0  0  0  0
   -4.6070   -2.0760    0.0930 C   0  0  0  0  0  0  0  0  0  0  0  0
   -3.2548   -2.0121   -0.3022 C   0  0  0  0  0  0  0  0  0  0  0  0
   -2.5903   -0.7885   -0.4936 O   0  0  0  0  0  0  0  0  0  0  0  0
   -3.2179    0.4911   -0.5176 C   0  0  0  0  0  0  0  0  0  0  0  0
   -2.1532    1.5978   -0.4905 C   0  0  0  0  0  0  0  0  0  0  0  0
   -2.7608    2.9581   -0.8815 C   0  0  0  0  0  0  0  0  0  0  0  0
   -1.7270    4.0518   -0.8119 C   0  0  0  0  0  0  0  0  0  0  0  0
   -0.9485    4.3597   -1.9380 C   0  0  0  0  0  0  0  0  0  0  0  0
    0.0716    5.3121   -1.8494 C   0  0  0  0  0  0  0  0  0  0  0  0
    0.3118    5.9702   -0.6423 C   0  0  0  0  0  0  0  0  0  0  0  0
   -0.4652    5.6767    0.4786 C   0  0  0  0  0  0  0  0  0  0  0  0
   -1.4742    4.7135    0.4001 C   0  0  0  0  0  0  0  0  0  0  0  0
   -1.0505    1.2556   -1.4001 N   0  0  0  0  0  0  0  0  0  0  0  0
    0.7472    1.7716    0.9595 H   0  0  0  0  0  0  0  0  0  0  0  0
   -0.1751    0.2345    0.9923 H   0  0  0  0  0  0  0  0  0  0  0  0
    7.4679    0.4709    2.1340 H   0  0  0  0  0  0  0  0  0  0  0  0
    7.9710    0.3656   -0.2946 H   0  0  0  0  0  0  0  0  0  0  0  0
    6.0659    0.3558   -1.9103 H   0  0  0  0  0  0  0  0  0  0  0  0
    1.1266   -1.5779   -0.5918 H   0  0  0  0  0  0  0  0  0  0  0  0
    2.8900   -1.4988   -0.4837 H   0  0  0  0  0  0  0  0  0  0  0  0
    2.5399   -2.0320    2.1110 H   0  0  0  0  0  0  0  0  0  0  0  0
    2.4994   -3.3300    0.9006 H   0  0  0  0  0  0  0  0  0  0  0  0
   -0.1725   -1.9641    1.5765 H   0  0  0  0  0  0  0  0  0  0  0  0
    0.5830   -2.9943    2.8243 H   0  0  0  0  0  0  0  0  0  0  0  0
    0.6806   -4.9295    1.2824 H   0  0  0  0  0  0  0  0  0  0  0  0
   -0.9865   -4.3263    1.4854 H   0  0  0  0  0  0  0  0  0  0  0  0
    0.7612   -4.1157   -0.9584 H   0  0  0  0  0  0  0  0  0  0  0  0
   -2.6067   -5.3659   -0.3575 H   0  0  0  0  0  0  0  0  0  0  0  0
   -6.2491   -3.3382    0.6678 H   0  0  0  0  0  0  0  0  0  0  0  0
   -5.1992   -1.1805    0.2177 H   0  0  0  0  0  0  0  0  0  0  0  0
   -3.8847    0.6244    0.3646 H   0  0  0  0  0  0  0  0  0  0  0  0
   -3.8297    0.5654   -1.4443 H   0  0  0  0  0  0  0  0  0  0  0  0
   -1.7931    1.6933    0.5541 H   0  0  0  0  0  0  0  0  0  0  0  0
   -3.1857    2.9076   -1.9085 H   0  0  0  0  0  0  0  0  0  0  0  0
   -3.6003    3.1998   -0.1920 H   0  0  0  0  0  0  0  0  0  0  0  0
   -1.1202    3.8445   -2.8756 H   0  0  0  0  0  0  0  0  0  0  0  0
    0.6869    5.5284   -2.7090 H   0  0  0  0  0  0  0  0  0  0  0  0
    1.1044    6.7037   -0.5735 H   0  0  0  0  0  0  0  0  0  0  0  0
   -0.2759    6.1839    1.4143 H   0  0  0  0  0  0  0  0  0  0  0  0
   -2.0494    4.4778    1.2876 H   0  0  0  0  0  0  0  0  0  0  0  0
   -1.2557    1.2138   -2.4240 H   0  0  0  0  0  0  0  0  0  0  0  0
  1  2  2  0
  2  3  1  0
  3  4  1  0
  4  5  1  0
  5  6  2  0
  5  7  1  0
  7  8  2  0
  8  9  1  0
  9 10  2  0
 10 11  1  0
 11 12  2  0
  4 13  1  0
 13 14  1  0
 14 15  1  0
 15 16  1  0
 16 17  1  0
 17 18  1  0
 18 19  2  0
 18 20  1  0
 20 21  2  0
 21 22  1  0
 22 23  1  0
 22 24  2  0
 24 25  1  0
 25 26  2  0
 26 27  1  0
 27 28  1  0
 28 29  1  0
 29 30  1  0
 30 31  1  0
 31 32  2  0
 32 33  1  0
 33 34  2  0
 34 35  1  0
 35 36  2  0
 29 37  1  0
 37  2  1  0
 12  7  1  0
 26 20  1  0
 36 31  1  0
  3 38  1  0
  3 39  1  0
  9 40  1  0
 10 41  1  0
 11 42  1  0
 13 43  1  0
 13 44  1  0
 14 45  1  0
 14 46  1  0
 15 47  1  0
 15 48  1  0
 16 49  1  0
 16 50  1  0
 17 51  1  0
 21 52  1  0
 24 53  1  0
 25 54  1  0
 28 55  1  0
 28 56  1  0
 29 57  1  0
 30 58  1  0
 30 59  1  0
 32 60  1  0
 33 61  1  0
 34 62  1  0
 35 63  1  0
 36 64  1  0
 37 65  1  0
M  END
$$$$
