
     RDKit          3D

 74 78  0  0  0  0  0  0  0  0999 V2000
   -2.7769    3.4715   -0.5829 C   0  0  0  0  0  0  0  0  0  0  0  0
   -3.4563    2.7821    0.6225 C   0  0  0  0  0  0  0  0  0  0  0  0
   -3.8139    3.8451    1.6813 C   0  0  0  0  0  0  0  0  0  0  0  0
   -2.5441    1.7142    1.2617 C   0  0  0  0  0  0  0  0  0  0  0  0
   -1.0707    2.0327    1.5714 C   0  0  0  0  0  0  0  0  0  0  0  0
   -0.1025    1.2990    0.6148 C   0  0  0  0  0  0  0  0  0  0  0  0
    0.1667   -0.1197    1.0105 N   0  0  0  0  0  0  0  0  0  0  0  0
    1.5091   -0.5462    0.5025 C   0  0  0  0  0  0  0  0  0  0  0  0
    2.0598   -1.7953    1.2369 C   0  0  0  0  0  0  0  0  0  0  0  0
    3.1569   -2.5381    0.4445 C   0  0  0  0  0  0  0  0  0  0  0  0
    3.8247   -1.6637   -0.5305 N   0  0  0  0  0  0  0  0  0  0  0  0
    5.2309   -1.8412   -0.7833 C   0  0  0  0  0  0  0  0  0  0  0  0
    5.7287   -2.9998   -0.7406 O   0  0  0  0  0  0  0  0  0  0  0  0
    6.1059   -0.6917   -1.1029 C   0  0  0  0  0  0  0  0  0  0  0  0
    7.1465   -0.8444   -2.0359 C   0  0  0  0  0  0  0  0  0  0  0  0
    7.9818    0.2331   -2.3465 C   0  0  0  0  0  0  0  0  0  0  0  0
    7.7947    1.4677   -1.7208 C   0  0  0  0  0  0  0  0  0  0  0  0
    6.7770    1.6251   -0.7769 C   0  0  0  0  0  0  0  0  0  0  0  0
    5.9375    0.5511   -0.4606 C   0  0  0  0  0  0  0  0  0  0  0  0
    4.9877    0.7172    0.4952 F   0  0  0  0  0  0  0  0  0  0  0  0
    3.0259   -0.8682   -1.4788 C   0  0  0  0  0  0  0  0  0  0  0  0
    1.5630   -0.7460   -1.0306 C   0  0  0  0  0  0  0  0  0  0  0  0
   -0.9332   -1.0620    0.6315 C   0  0  0  0  0  0  0  0  0  0  0  0
   -1.8369   -1.3973    1.8211 C   0  0  0  0  0  0  0  0  0  0  0  0
   -1.2019   -1.8572    2.9917 C   0  0  0  0  0  0  0  0  0  0  0  0
   -1.9369   -2.2666    4.0999 C   0  0  0  0  0  0  0  0  0  0  0  0
   -3.3220   -2.2149    4.0540 C   0  0  0  0  0  0  0  0  0  0  0  0
   -3.9443   -1.7472    2.9453 N   0  0  0  0  0  0  0  0  0  0  0  0
   -3.2748   -1.3404    1.8323 C   0  0  0  0  0  0  0  0  0  0  0  0
   -4.0653   -0.7675    0.8177 O   0  0  0  0  0  0  0  0  0  0  0  0
   -3.9355   -0.9531   -0.5577 C   0  0  0  0  0  0  0  0  0  0  0  0
   -3.5443   -2.2120   -1.0493 C   0  0  0  0  0  0  0  0  0  0  0  0
   -3.3993   -2.4252   -2.4190 C   0  0  0  0  0  0  0  0  0  0  0  0
   -3.6565   -1.3906   -3.3149 C   0  0  0  0  0  0  0  0  0  0  0  0
   -4.0628   -0.1412   -2.8434 C   0  0  0  0  0  0  0  0  0  0  0  0
   -4.2104    0.1064   -1.4705 C   0  0  0  0  0  0  0  0  0  0  0  0
   -4.6281    1.4159   -1.1275 O   0  0  0  0  0  0  0  0  0  0  0  0
   -4.7675    2.0616    0.1499 C   0  0  0  0  0  0  0  0  0  0  0  0
   -1.9271    4.1084   -0.2618 H   0  0  0  0  0  0  0  0  0  0  0  0
   -2.3927    2.7198   -1.3057 H   0  0  0  0  0  0  0  0  0  0  0  0
   -3.5038    4.1251   -1.1119 H   0  0  0  0  0  0  0  0  0  0  0  0
   -4.3617    3.3827    2.5306 H   0  0  0  0  0  0  0  0  0  0  0  0
   -2.8992    4.3319    2.0801 H   0  0  0  0  0  0  0  0  0  0  0  0
   -4.4588    4.6351    1.2402 H   0  0  0  0  0  0  0  0  0  0  0  0
   -2.5346    0.9281    0.5219 H   0  0  0  0  0  0  0  0  0  0  0  0
   -3.0246    1.3296    2.1881 H   0  0  0  0  0  0  0  0  0  0  0  0
   -0.8895    3.1257    1.5202 H   0  0  0  0  0  0  0  0  0  0  0  0
   -0.8360    1.7255    2.6140 H   0  0  0  0  0  0  0  0  0  0  0  0
    0.8367    1.8949    0.6393 H   0  0  0  0  0  0  0  0  0  0  0  0
   -0.4681    1.3659   -0.4333 H   0  0  0  0  0  0  0  0  0  0  0  0
    2.2443    0.2557    0.7469 H   0  0  0  0  0  0  0  0  0  0  0  0
    2.4683   -1.4762    2.2207 H   0  0  0  0  0  0  0  0  0  0  0  0
    1.2646   -2.5343    1.4477 H   0  0  0  0  0  0  0  0  0  0  0  0
    2.7028   -3.3927   -0.1036 H   0  0  0  0  0  0  0  0  0  0  0  0
    3.8943   -2.9577    1.1642 H   0  0  0  0  0  0  0  0  0  0  0  0
    7.3033   -1.7929   -2.5347 H   0  0  0  0  0  0  0  0  0  0  0  0
    8.7748    0.1104   -3.0726 H   0  0  0  0  0  0  0  0  0  0  0  0
    8.4433    2.3009   -1.9608 H   0  0  0  0  0  0  0  0  0  0  0  0
    6.6449    2.5791   -0.2824 H   0  0  0  0  0  0  0  0  0  0  0  0
    3.4487    0.1554   -1.5591 H   0  0  0  0  0  0  0  0  0  0  0  0
    3.0689   -1.3346   -2.4871 H   0  0  0  0  0  0  0  0  0  0  0  0
    1.0181   -1.6680   -1.3262 H   0  0  0  0  0  0  0  0  0  0  0  0
    1.0999    0.1088   -1.5650 H   0  0  0  0  0  0  0  0  0  0  0  0
   -1.4587   -0.7052   -0.2672 H   0  0  0  0  0  0  0  0  0  0  0  0
   -0.5358   -2.0401    0.2933 H   0  0  0  0  0  0  0  0  0  0  0  0
   -0.1262   -1.8944    3.0625 H   0  0  0  0  0  0  0  0  0  0  0  0
   -1.4332   -2.6221    4.9895 H   0  0  0  0  0  0  0  0  0  0  0  0
   -3.9065   -2.5282    4.9085 H   0  0  0  0  0  0  0  0  0  0  0  0
   -3.3476   -3.0280   -0.3655 H   0  0  0  0  0  0  0  0  0  0  0  0
   -3.0895   -3.3950   -2.7861 H   0  0  0  0  0  0  0  0  0  0  0  0
   -3.5439   -1.5564   -4.3784 H   0  0  0  0  0  0  0  0  0  0  0  0
   -4.2622    0.6500   -3.5553 H   0  0  0  0  0  0  0  0  0  0  0  0
   -5.5567    2.8328    0.0196 H   0  0  0  0  0  0  0  0  0  0  0  0
   -5.1697    1.3668    0.9148 H   0  0  0  0  0  0  0  0  0  0  0  0
  1  2  1  0
  2  3  1  0
  2  4  1  0
  4  5  1  0
  5  6  1  0
  6  7  1  0
  7  8  1  0
  8  9  1  0
  9 10  1  0
 10 11  1  0
 11 12  1  0
 12 13  2  0
 12 14  1  0
 14 15  2  0
 15 16  1  0
 16 17  2  0
 17 18  1  0
 18 19  2  0
 19 20  1  0
 11 21  1  0
 21 22  1  0
  7 23  1  0
 23 24  1  0
 24 25  2  0
 25 26  1  0
 26 27  2  0
 27 28  1  0
 28 29  2  0
 29 30  1  0
 30 31  1  0
 31 32  2  0
 32 33  1  0
 33 34  2  0
 34 35  1  0
 35 36  2  0
 36 37  1  0
 37 38  1  0
 38  2  1  0
 22  8  1  0
 29 24  1  0
 36 31  1  0
 19 14  1  0
  1 39  1  0
  1 40  1  0
  1 41  1  0
  3 42  1  0
  3 43  1  0
  3 44  1  0
  4 45  1  0
  4 46  1  0
  5 47  1  0
  5 48  1  0
  6 49  1  0
  6 50  1  0
  8 51  1  0
  9 52  1  0
  9 53  1  0
 10 54  1  0
 10 55  1  0
 15 56  1  0
 16 57  1  0
 17 58  1  0
 18 59  1  0
 21 60  1  0
 21 61  1  0
 22 62  1  0
 22 63  1  0
 23 64  1  0
 23 65  1  0
 25 66  1  0
 26 67  1  0
 27 68  1  0
 32 69  1  0
 33 70  1  0
 34 71  1  0
 35 72  1  0
 38 73  1  0
 38 74  1  0
M  END
$$$$
