
     RDKit          3D

 76 79  0  0  0  0  0  0  0  0999 V2000
   -5.2500    1.7160    0.5518 O   0  0  0  0  0  0  0  0  0  0  0  0
   -4.8281    1.2577   -0.5457 C   0  0  0  0  0  0  0  0  0  0  0  0
   -5.7149    1.3095   -1.7575 C   0  0  0  0  0  0  0  0  0  0  0  0
   -7.0062    0.5702   -1.4900 C   0  0  0  0  0  0  0  0  0  0  0  0
   -7.0297   -0.8339   -1.6015 C   0  0  0  0  0  0  0  0  0  0  0  0
   -5.9178   -1.5163   -1.9786 F   0  0  0  0  0  0  0  0  0  0  0  0
   -8.1949   -1.5461   -1.3067 C   0  0  0  0  0  0  0  0  0  0  0  0
   -9.3439   -0.8727   -0.8906 C   0  0  0  0  0  0  0  0  0  0  0  0
   -9.3335    0.5169   -0.7699 C   0  0  0  0  0  0  0  0  0  0  0  0
   -8.1727    1.2442   -1.0573 C   0  0  0  0  0  0  0  0  0  0  0  0
   -8.2167    2.9911   -0.8377 Cl  0  0  0  0  0  0  0  0  0  0  0  0
   -3.5239    0.6577   -0.6131 N   0  0  0  0  0  0  0  0  0  0  0  0
   -2.5530    1.1832   -1.5986 C   0  0  0  0  0  0  0  0  0  0  0  0
   -1.4422    2.0416   -0.9499 C   0  0  0  0  0  0  0  0  0  0  0  0
   -0.2143    1.1994   -0.5765 C   0  0  0  0  0  0  0  0  0  0  0  0
    0.9467    2.0314   -0.0149 C   0  0  0  0  0  0  0  0  0  0  0  0
    2.1376    1.1738    0.5277 C   0  0  0  0  0  0  0  0  0  0  0  0
    2.7916    0.3389   -0.6164 C   0  0  0  0  0  0  0  0  0  0  0  0
    4.2084   -0.1777   -0.2749 C   0  0  0  0  0  0  0  0  0  0  0  0
    4.5142    0.0097    1.1552 N   0  0  0  0  0  0  0  0  0  0  0  0
    5.7369   -0.6975    1.5964 C   0  0  0  0  0  0  0  0  0  0  0  0
    6.9651   -0.3453    0.7916 C   0  0  0  0  0  0  0  0  0  0  0  0
    7.3520   -1.1319   -0.3046 C   0  0  0  0  0  0  0  0  0  0  0  0
    8.4836   -0.7741   -1.0389 C   0  0  0  0  0  0  0  0  0  0  0  0
    9.2216    0.3537   -0.6745 C   0  0  0  0  0  0  0  0  0  0  0  0
    8.8107    1.1116    0.4230 C   0  0  0  0  0  0  0  0  0  0  0  0
    7.7041    0.7492    1.1258 N   0  0  0  0  0  0  0  0  0  0  0  0
    4.5083    1.4374    1.5333 C   0  0  0  0  0  0  0  0  0  0  0  0
    3.2279    2.1546    1.0467 C   0  0  0  0  0  0  0  0  0  0  0  0
    1.6600    0.2963    1.6952 C   0  0  0  0  0  0  0  0  0  0  0  0
    1.3690    0.8513    2.7923 O   0  0  0  0  0  0  0  0  0  0  0  0
    1.6380   -1.1096    1.6394 O   0  0  0  0  0  0  0  0  0  0  0  0
    0.6297   -1.8824    0.9740 C   0  0  0  0  0  0  0  0  0  0  0  0
   -0.6371   -2.1248    1.8496 C   0  0  0  0  0  0  0  0  0  0  0  0
   -0.8878   -1.1013    2.7776 O   0  0  0  0  0  0  0  0  0  0  0  0
   -1.9341   -2.5043    1.0579 C   0  0  0  0  0  0  0  0  0  0  0  0
   -1.7829   -3.7901    0.5080 O   0  0  0  0  0  0  0  0  0  0  0  0
   -2.4258   -1.5240   -0.0498 C   0  0  0  0  0  0  0  0  0  0  0  0
   -3.1294   -0.2545    0.4761 C   0  0  0  0  0  0  0  0  0  0  0  0
   -5.2040    0.8455   -2.6283 H   0  0  0  0  0  0  0  0  0  0  0  0
   -5.8928    2.3685   -2.0356 H   0  0  0  0  0  0  0  0  0  0  0  0
   -8.2068   -2.6243   -1.3934 H   0  0  0  0  0  0  0  0  0  0  0  0
  -10.2425   -1.4292   -0.6559 H   0  0  0  0  0  0  0  0  0  0  0  0
  -10.2286    1.0295   -0.4411 H   0  0  0  0  0  0  0  0  0  0  0  0
   -2.1270    0.3546   -2.2013 H   0  0  0  0  0  0  0  0  0  0  0  0
   -3.0779    1.8315   -2.3336 H   0  0  0  0  0  0  0  0  0  0  0  0
   -1.8403    2.5576   -0.0473 H   0  0  0  0  0  0  0  0  0  0  0  0
   -1.1265    2.8246   -1.6747 H   0  0  0  0  0  0  0  0  0  0  0  0
   -0.5272    0.5080    0.2087 H   0  0  0  0  0  0  0  0  0  0  0  0
    0.1301    0.6313   -1.4666 H   0  0  0  0  0  0  0  0  0  0  0  0
    1.3085    2.7132   -0.8163 H   0  0  0  0  0  0  0  0  0  0  0  0
    0.5565    2.6699    0.8086 H   0  0  0  0  0  0  0  0  0  0  0  0
    2.1570   -0.5158   -0.9111 H   0  0  0  0  0  0  0  0  0  0  0  0
    2.8733    0.9726   -1.5265 H   0  0  0  0  0  0  0  0  0  0  0  0
    4.2664   -1.2571   -0.5362 H   0  0  0  0  0  0  0  0  0  0  0  0
    4.9520    0.3662   -0.9001 H   0  0  0  0  0  0  0  0  0  0  0  0
    5.5560   -1.7931    1.5461 H   0  0  0  0  0  0  0  0  0  0  0  0
    5.9317   -0.4805    2.6694 H   0  0  0  0  0  0  0  0  0  0  0  0
    6.7812   -2.0080   -0.5889 H   0  0  0  0  0  0  0  0  0  0  0  0
    8.7895   -1.3701   -1.8878 H   0  0  0  0  0  0  0  0  0  0  0  0
   10.1035    0.6349   -1.2367 H   0  0  0  0  0  0  0  0  0  0  0  0
    9.3672    1.9916    0.7152 H   0  0  0  0  0  0  0  0  0  0  0  0
    5.3952    1.9623    1.1149 H   0  0  0  0  0  0  0  0  0  0  0  0
    4.5578    1.5204    2.6416 H   0  0  0  0  0  0  0  0  0  0  0  0
    2.8264    2.7941    1.8639 H   0  0  0  0  0  0  0  0  0  0  0  0
    3.5132    2.8483    0.2239 H   0  0  0  0  0  0  0  0  0  0  0  0
    0.3931   -1.4474   -0.0048 H   0  0  0  0  0  0  0  0  0  0  0  0
    1.0735   -2.8729    0.7370 H   0  0  0  0  0  0  0  0  0  0  0  0
   -0.3954   -3.0143    2.4723 H   0  0  0  0  0  0  0  0  0  0  0  0
   -0.8293   -0.2382    2.3071 H   0  0  0  0  0  0  0  0  0  0  0  0
   -2.7547   -2.5820    1.8042 H   0  0  0  0  0  0  0  0  0  0  0  0
   -1.1115   -3.7271   -0.2183 H   0  0  0  0  0  0  0  0  0  0  0  0
   -1.6053   -1.2811   -0.7428 H   0  0  0  0  0  0  0  0  0  0  0  0
   -3.1744   -2.0641   -0.6710 H   0  0  0  0  0  0  0  0  0  0  0  0
   -4.0318   -0.5871    1.0365 H   0  0  0  0  0  0  0  0  0  0  0  0
   -2.5226    0.3140    1.1946 H   0  0  0  0  0  0  0  0  0  0  0  0
  1  2  2  0
  2  3  1  0
  3  4  1  0
  4  5  2  0
  5  6  1  0
  5  7  1  0
  7  8  2  0
  8  9  1  0
  9 10  2  0
 10 11  1  0
  2 12  1  0
 12 13  1  0
 13 14  1  0
 14 15  1  0
 15 16  1  0
 16 17  1  0
 17 18  1  0
 18 19  1  0
 19 20  1  0
 20 21  1  0
 21 22  1  0
 22 23  2  0
 23 24  1  0
 24 25  2  0
 25 26  1  0
 26 27  2  0
 20 28  1  0
 28 29  1  0
 17 30  1  0
 30 31  2  0
 30 32  1  0
 32 33  1  0
 33 34  1  0
 34 35  1  0
 34 36  1  0
 36 37  1  0
 36 38  1  0
 38 39  1  0
 10  4  1  0
 39 12  1  0
 29 17  1  0
 27 22  1  0
  3 40  1  0
  3 41  1  0
  7 42  1  0
  8 43  1  0
  9 44  1  0
 13 45  1  0
 13 46  1  0
 14 47  1  0
 14 48  1  0
 15 49  1  0
 15 50  1  0
 16 51  1  0
 16 52  1  0
 18 53  1  0
 18 54  1  0
 19 55  1  0
 19 56  1  0
 21 57  1  0
 21 58  1  0
 23 59  1  0
 24 60  1  0
 25 61  1  0
 26 62  1  0
 28 63  1  0
 28 64  1  0
 29 65  1  0
 29 66  1  0
 33 67  1  0
 33 68  1  0
 34 69  1  0
 35 70  1  0
 36 71  1  0
 37 72  1  0
 38 73  1  0
 38 74  1  0
 39 75  1  0
 39 76  1  0
M  END
$$$$
