
     RDKit          3D

 66 69  0  0  0  0  0  0  0  0999 V2000
   -8.3727   -0.1994   -0.7021 C   0  0  0  0  0  0  0  0  0  0  0  0
   -6.9570   -0.2248   -0.5739 O   0  0  0  0  0  0  0  0  0  0  0  0
   -6.1964    0.9257   -0.3301 C   0  0  0  0  0  0  0  0  0  0  0  0
   -6.8131    2.1286   -0.1521 N   0  0  0  0  0  0  0  0  0  0  0  0
   -6.1164    3.2687    0.0926 C   0  0  0  0  0  0  0  0  0  0  0  0
   -4.7249    3.2346    0.1597 C   0  0  0  0  0  0  0  0  0  0  0  0
   -4.0619    2.0218   -0.0236 C   0  0  0  0  0  0  0  0  0  0  0  0
   -4.7899    0.8440   -0.2586 C   0  0  0  0  0  0  0  0  0  0  0  0
   -4.0819   -0.4427   -0.4625 C   0  0  0  0  0  0  0  0  0  0  0  0
   -4.5265   -1.2570   -1.3181 O   0  0  0  0  0  0  0  0  0  0  0  0
   -2.8762   -0.7667    0.2603 N   0  0  0  0  0  0  0  0  0  0  0  0
   -2.7101   -0.3982    1.6710 C   0  0  0  0  0  0  0  0  0  0  0  0
   -1.3221    0.2207    1.9188 C   0  0  0  0  0  0  0  0  0  0  0  0
   -0.1783   -0.3392    0.9987 C   0  0  0  0  0  0  0  0  0  0  0  0
    0.0665    0.6546   -0.1832 C   0  0  0  0  0  0  0  0  0  0  0  0
    1.0910    0.1605   -1.2328 C   0  0  0  0  0  0  0  0  0  0  0  0
    1.8030    1.3274   -1.9380 C   0  0  0  0  0  0  0  0  0  0  0  0
    3.0125    1.8537   -1.1381 C   0  0  0  0  0  0  0  0  0  0  0  0
    4.2736    1.0839   -1.4651 C   0  0  0  0  0  0  0  0  0  0  0  0
    4.9735    1.4031   -2.6427 C   0  0  0  0  0  0  0  0  0  0  0  0
    6.1144    0.6875   -3.0082 C   0  0  0  0  0  0  0  0  0  0  0  0
    6.5690   -0.3584   -2.2072 C   0  0  0  0  0  0  0  0  0  0  0  0
    5.8845   -0.6938   -1.0381 C   0  0  0  0  0  0  0  0  0  0  0  0
    4.7315    0.0209   -0.6515 C   0  0  0  0  0  0  0  0  0  0  0  0
    4.0295   -0.3020    0.5224 O   0  0  0  0  0  0  0  0  0  0  0  0
    4.2847   -1.4559    1.3227 C   0  0  0  0  0  0  0  0  0  0  0  0
    3.2876   -1.5209    2.4836 C   0  0  0  0  0  0  0  0  0  0  0  0
    3.5548   -2.7468    3.3617 C   0  0  0  0  0  0  0  0  0  0  0  0
    1.9163   -1.5707    1.9635 N   0  0  0  0  0  0  0  0  0  0  0  0
    1.1081   -0.3845    1.8297 C   0  0  0  0  0  0  0  0  0  0  0  0
    1.4804    0.6767    2.4039 O   0  0  0  0  0  0  0  0  0  0  0  0
   -0.5959   -1.7429    0.4596 C   0  0  0  0  0  0  0  0  0  0  0  0
   -1.9071   -1.6882   -0.3452 C   0  0  0  0  0  0  0  0  0  0  0  0
   -8.7375   -1.2254   -0.9149 H   0  0  0  0  0  0  0  0  0  0  0  0
   -8.8334    0.1593    0.2420 H   0  0  0  0  0  0  0  0  0  0  0  0
   -8.6650    0.4678   -1.5398 H   0  0  0  0  0  0  0  0  0  0  0  0
   -6.6439    4.2026    0.2321 H   0  0  0  0  0  0  0  0  0  0  0  0
   -4.1651    4.1405    0.3507 H   0  0  0  0  0  0  0  0  0  0  0  0
   -2.9813    2.0055    0.0077 H   0  0  0  0  0  0  0  0  0  0  0  0
   -3.4999    0.3029    2.0133 H   0  0  0  0  0  0  0  0  0  0  0  0
   -2.8170   -1.3170    2.2869 H   0  0  0  0  0  0  0  0  0  0  0  0
   -1.0819    0.0458    2.9909 H   0  0  0  0  0  0  0  0  0  0  0  0
   -1.3989    1.3234    1.8104 H   0  0  0  0  0  0  0  0  0  0  0  0
    0.4008    1.6300    0.2354 H   0  0  0  0  0  0  0  0  0  0  0  0
   -0.8871    0.8744   -0.7081 H   0  0  0  0  0  0  0  0  0  0  0  0
    1.8452   -0.5111   -0.7791 H   0  0  0  0  0  0  0  0  0  0  0  0
    0.5518   -0.4380   -1.9977 H   0  0  0  0  0  0  0  0  0  0  0  0
    2.1326    0.9964   -2.9476 H   0  0  0  0  0  0  0  0  0  0  0  0
    1.0806    2.1565   -2.1019 H   0  0  0  0  0  0  0  0  0  0  0  0
    3.1715    2.9215   -1.4043 H   0  0  0  0  0  0  0  0  0  0  0  0
    2.8058    1.8398   -0.0462 H   0  0  0  0  0  0  0  0  0  0  0  0
    4.6295    2.2048   -3.2839 H   0  0  0  0  0  0  0  0  0  0  0  0
    6.6440    0.9415   -3.9175 H   0  0  0  0  0  0  0  0  0  0  0  0
    7.4509   -0.9157   -2.4943 H   0  0  0  0  0  0  0  0  0  0  0  0
    6.2606   -1.5131   -0.4412 H   0  0  0  0  0  0  0  0  0  0  0  0
    5.3172   -1.4004    1.7323 H   0  0  0  0  0  0  0  0  0  0  0  0
    4.1866   -2.3688    0.6947 H   0  0  0  0  0  0  0  0  0  0  0  0
    3.4289   -0.6208    3.1215 H   0  0  0  0  0  0  0  0  0  0  0  0
    2.8115   -2.7882    4.1842 H   0  0  0  0  0  0  0  0  0  0  0  0
    3.4801   -3.6817    2.7649 H   0  0  0  0  0  0  0  0  0  0  0  0
    4.5673   -2.6803    3.8114 H   0  0  0  0  0  0  0  0  0  0  0  0
    1.5797   -2.4890    1.5983 H   0  0  0  0  0  0  0  0  0  0  0  0
   -0.7468   -2.4339    1.3186 H   0  0  0  0  0  0  0  0  0  0  0  0
    0.1934   -2.1865   -0.1842 H   0  0  0  0  0  0  0  0  0  0  0  0
   -2.3460   -2.7069   -0.4008 H   0  0  0  0  0  0  0  0  0  0  0  0
   -1.6849   -1.3566   -1.3822 H   0  0  0  0  0  0  0  0  0  0  0  0
  1  2  1  0
  2  3  1  0
  3  4  2  0
  4  5  1  0
  5  6  2  0
  6  7  1  0
  7  8  2  0
  8  9  1  0
  9 10  2  0
  9 11  1  0
 11 12  1  0
 12 13  1  0
 13 14  1  0
 14 15  1  0
 15 16  1  0
 16 17  1  0
 17 18  1  0
 18 19  1  0
 19 20  2  0
 20 21  1  0
 21 22  2  0
 22 23  1  0
 23 24  2  0
 24 25  1  0
 25 26  1  0
 26 27  1  0
 27 28  1  0
 27 29  1  0
 29 30  1  0
 30 31  2  0
 14 32  1  0
 32 33  1  0
  8  3  1  0
 33 11  1  0
 30 14  1  0
 24 19  1  0
  1 34  1  0
  1 35  1  0
  1 36  1  0
  5 37  1  0
  6 38  1  0
  7 39  1  0
 12 40  1  0
 12 41  1  0
 13 42  1  0
 13 43  1  0
 15 44  1  0
 15 45  1  0
 16 46  1  0
 16 47  1  0
 17 48  1  0
 17 49  1  0
 18 50  1  0
 18 51  1  0
 20 52  1  0
 21 53  1  0
 22 54  1  0
 23 55  1  0
 26 56  1  0
 26 57  1  0
 27 58  1  0
 28 59  1  0
 28 60  1  0
 28 61  1  0
 29 62  1  0
 32 63  1  0
 32 64  1  0
 33 65  1  0
 33 66  1  0
M  END
$$$$
