
     RDKit          3D

 62 65  0  0  0  0  0  0  0  0999 V2000
    8.0798   -0.3507    1.0140 C   0  0  0  0  0  0  0  0  0  0  0  0
    7.2724    0.5902    0.1722 C   0  0  0  0  0  0  0  0  0  0  0  0
    7.8821    1.5988   -0.5117 N   0  0  0  0  0  0  0  0  0  0  0  0
    7.0084    2.3608   -1.2077 C   0  0  0  0  0  0  0  0  0  0  0  0
    5.4380    1.8174   -0.9889 S   0  0  0  0  0  0  0  0  0  0  0  0
    5.8751    0.5325    0.0144 C   0  0  0  0  0  0  0  0  0  0  0  0
    4.9326   -0.4234    0.6492 C   0  0  0  0  0  0  0  0  0  0  0  0
    5.3758   -1.4382    1.2484 O   0  0  0  0  0  0  0  0  0  0  0  0
    3.5146   -0.1963    0.6389 N   0  0  0  0  0  0  0  0  0  0  0  0
    2.7918    0.0143   -0.6200 C   0  0  0  0  0  0  0  0  0  0  0  0
    1.4366   -0.7015   -0.5832 C   0  0  0  0  0  0  0  0  0  0  0  0
    0.5852   -0.3445    0.6759 C   0  0  0  0  0  0  0  0  0  0  0  0
    0.1680    1.1725    0.7074 C   0  0  0  0  0  0  0  0  0  0  0  0
   -0.7950    1.6541   -0.4082 C   0  0  0  0  0  0  0  0  0  0  0  0
   -2.2690    1.5899    0.0238 C   0  0  0  0  0  0  0  0  0  0  0  0
   -3.2444    1.8825   -1.1306 C   0  0  0  0  0  0  0  0  0  0  0  0
   -4.5804    1.2324   -0.8594 C   0  0  0  0  0  0  0  0  0  0  0  0
   -5.4771    1.9286   -0.0265 C   0  0  0  0  0  0  0  0  0  0  0  0
   -6.7426    1.4098    0.2555 C   0  0  0  0  0  0  0  0  0  0  0  0
   -7.1338    0.1890   -0.2874 C   0  0  0  0  0  0  0  0  0  0  0  0
   -6.2533   -0.5267   -1.0996 C   0  0  0  0  0  0  0  0  0  0  0  0
   -4.9680   -0.0396   -1.3810 C   0  0  0  0  0  0  0  0  0  0  0  0
   -4.1760   -0.8411   -2.2259 O   0  0  0  0  0  0  0  0  0  0  0  0
   -2.8175   -1.2379   -2.0241 C   0  0  0  0  0  0  0  0  0  0  0  0
   -2.6022   -1.9947   -0.7001 C   0  0  0  0  0  0  0  0  0  0  0  0
   -3.0657   -3.4490   -0.8225 C   0  0  0  0  0  0  0  0  0  0  0  0
   -1.1755   -1.9560   -0.3667 N   0  0  0  0  0  0  0  0  0  0  0  0
   -0.6724   -1.2158    0.7600 C   0  0  0  0  0  0  0  0  0  0  0  0
   -1.3272   -1.2356    1.8392 O   0  0  0  0  0  0  0  0  0  0  0  0
    1.4570   -0.6595    1.9280 C   0  0  0  0  0  0  0  0  0  0  0  0
    2.8247    0.0401    1.9096 C   0  0  0  0  0  0  0  0  0  0  0  0
    7.6359   -0.4422    2.0246 H   0  0  0  0  0  0  0  0  0  0  0  0
    9.1184    0.0333    1.1291 H   0  0  0  0  0  0  0  0  0  0  0  0
    8.1221   -1.3467    0.5227 H   0  0  0  0  0  0  0  0  0  0  0  0
    7.2999    3.2151   -1.8032 H   0  0  0  0  0  0  0  0  0  0  0  0
    2.6486    1.0999   -0.7996 H   0  0  0  0  0  0  0  0  0  0  0  0
    3.3826   -0.3922   -1.4707 H   0  0  0  0  0  0  0  0  0  0  0  0
    1.6506   -1.7927   -0.5776 H   0  0  0  0  0  0  0  0  0  0  0  0
    0.8903   -0.4863   -1.5238 H   0  0  0  0  0  0  0  0  0  0  0  0
    1.0727    1.8094    0.6536 H   0  0  0  0  0  0  0  0  0  0  0  0
   -0.2805    1.4080    1.6989 H   0  0  0  0  0  0  0  0  0  0  0  0
   -0.5625    2.7149   -0.6492 H   0  0  0  0  0  0  0  0  0  0  0  0
   -0.6330    1.0850   -1.3415 H   0  0  0  0  0  0  0  0  0  0  0  0
   -2.4910    0.6018    0.4510 H   0  0  0  0  0  0  0  0  0  0  0  0
   -2.4454    2.3273    0.8356 H   0  0  0  0  0  0  0  0  0  0  0  0
   -2.8605    1.5913   -2.1261 H   0  0  0  0  0  0  0  0  0  0  0  0
   -3.3727    2.9845   -1.2073 H   0  0  0  0  0  0  0  0  0  0  0  0
   -5.1966    2.8834    0.4024 H   0  0  0  0  0  0  0  0  0  0  0  0
   -7.4258    1.9621    0.8890 H   0  0  0  0  0  0  0  0  0  0  0  0
   -8.1213   -0.2072   -0.0784 H   0  0  0  0  0  0  0  0  0  0  0  0
   -6.5698   -1.4764   -1.5136 H   0  0  0  0  0  0  0  0  0  0  0  0
   -2.5225   -1.8932   -2.8714 H   0  0  0  0  0  0  0  0  0  0  0  0
   -2.1398   -0.3813   -2.0972 H   0  0  0  0  0  0  0  0  0  0  0  0
   -3.1959   -1.5160    0.1052 H   0  0  0  0  0  0  0  0  0  0  0  0
   -2.4766   -3.9703   -1.6102 H   0  0  0  0  0  0  0  0  0  0  0  0
   -4.1461   -3.4876   -1.0859 H   0  0  0  0  0  0  0  0  0  0  0  0
   -2.9117   -3.9919    0.1387 H   0  0  0  0  0  0  0  0  0  0  0  0
   -0.5115   -2.3958   -1.0408 H   0  0  0  0  0  0  0  0  0  0  0  0
    0.9252   -0.3656    2.8596 H   0  0  0  0  0  0  0  0  0  0  0  0
    1.6357   -1.7555    1.9873 H   0  0  0  0  0  0  0  0  0  0  0  0
    2.7104    1.1316    2.0694 H   0  0  0  0  0  0  0  0  0  0  0  0
    3.4285   -0.3491    2.7578 H   0  0  0  0  0  0  0  0  0  0  0  0
  1  2  1  0
  2  3  1  0
  3  4  2  0
  4  5  1  0
  5  6  1  0
  6  7  1  0
  7  8  2  0
  7  9  1  0
  9 10  1  0
 10 11  1  0
 11 12  1  0
 12 13  1  0
 13 14  1  0
 14 15  1  0
 15 16  1  0
 16 17  1  0
 17 18  2  0
 18 19  1  0
 19 20  2  0
 20 21  1  0
 21 22  2  0
 22 23  1  0
 23 24  1  0
 24 25  1  0
 25 26  1  0
 25 27  1  0
 27 28  1  0
 28 29  2  0
 12 30  1  0
 30 31  1  0
  6  2  2  0
 31  9  1  0
 28 12  1  0
 22 17  1  0
  1 32  1  0
  1 33  1  0
  1 34  1  0
  4 35  1  0
 10 36  1  0
 10 37  1  0
 11 38  1  0
 11 39  1  0
 13 40  1  0
 13 41  1  0
 14 42  1  0
 14 43  1  0
 15 44  1  0
 15 45  1  0
 16 46  1  0
 16 47  1  0
 18 48  1  0
 19 49  1  0
 20 50  1  0
 21 51  1  0
 24 52  1  0
 24 53  1  0
 25 54  1  0
 26 55  1  0
 26 56  1  0
 26 57  1  0
 27 58  1  0
 30 59  1  0
 30 60  1  0
 31 61  1  0
 31 62  1  0
M  END
$$$$
