
     RDKit          3D

 82 84  0  0  0  0  0  0  0  0999 V2000
   10.0261    1.4527    1.4001 C   0  0  0  0  0  0  0  0  0  0  0  0
    8.6079    1.9839    1.2263 C   0  0  0  0  0  0  0  0  0  0  0  0
    7.6549    0.8638    0.9546 C   0  0  0  0  0  0  0  0  0  0  0  0
    6.8434    0.3328    1.8902 N   0  0  0  0  0  0  0  0  0  0  0  0
    6.2273   -0.6341    1.2830 O   0  0  0  0  0  0  0  0  0  0  0  0
    6.6324   -0.7027    0.0378 C   0  0  0  0  0  0  0  0  0  0  0  0
    6.1777   -1.7337   -0.9507 C   0  0  0  0  0  0  0  0  0  0  0  0
    4.7030   -2.1151   -0.7566 C   0  0  0  0  0  0  0  0  0  0  0  0
    3.7521   -0.9763   -1.0402 C   0  0  0  0  0  0  0  0  0  0  0  0
    4.0472   -0.1372   -1.9354 O   0  0  0  0  0  0  0  0  0  0  0  0
    2.4919   -0.8577   -0.3454 N   0  0  0  0  0  0  0  0  0  0  0  0
    1.8513    0.4753   -0.3218 C   0  0  0  0  0  0  0  0  0  0  0  0
    0.8487    0.6347    0.8286 C   0  0  0  0  0  0  0  0  0  0  0  0
    0.0663    1.9506    0.7465 C   0  0  0  0  0  0  0  0  0  0  0  0
   -1.0845    1.9172    1.7621 C   0  0  0  0  0  0  0  0  0  0  0  0
   -2.0073    2.9961    1.6075 O   0  0  0  0  0  0  0  0  0  0  0  0
   -2.6626    3.2926    0.4070 C   0  0  0  0  0  0  0  0  0  0  0  0
   -2.0513    4.1920   -0.4786 C   0  0  0  0  0  0  0  0  0  0  0  0
   -2.6951    4.5861   -1.6523 C   0  0  0  0  0  0  0  0  0  0  0  0
   -3.9701    4.1023   -1.9438 C   0  0  0  0  0  0  0  0  0  0  0  0
   -4.7878    4.6100   -3.4102 Cl  0  0  0  0  0  0  0  0  0  0  0  0
   -4.5983    3.2167   -1.0652 C   0  0  0  0  0  0  0  0  0  0  0  0
   -3.9508    2.7831    0.1067 C   0  0  0  0  0  0  0  0  0  0  0  0
   -4.6725    1.8391    0.9914 C   0  0  0  0  0  0  0  0  0  0  0  0
   -5.8792    2.0744    1.2739 O   0  0  0  0  0  0  0  0  0  0  0  0
   -4.0464    0.6644    1.5393 N   0  0  0  0  0  0  0  0  0  0  0  0
   -3.9624    0.6100    3.0030 C   0  0  0  0  0  0  0  0  0  0  0  0
   -3.9981   -0.6268    0.8003 C   0  0  0  0  0  0  0  0  0  0  0  0
   -5.4352   -1.1502    0.4718 C   0  0  0  0  0  0  0  0  0  0  0  0
   -5.4767   -2.6849    0.4202 C   0  0  0  0  0  0  0  0  0  0  0  0
   -6.0426   -0.5799   -0.8237 C   0  0  0  0  0  0  0  0  0  0  0  0
   -3.0723   -0.6012   -0.4146 C   0  0  0  0  0  0  0  0  0  0  0  0
   -2.9795    0.4413   -1.1134 O   0  0  0  0  0  0  0  0  0  0  0  0
   -2.4035   -1.7977   -0.8719 N   0  0  0  0  0  0  0  0  0  0  0  0
   -2.6135   -2.1921   -2.2699 C   0  0  0  0  0  0  0  0  0  0  0  0
   -1.6984   -2.6792    0.0813 C   0  0  0  0  0  0  0  0  0  0  0  0
   -0.4331   -3.3483   -0.5066 C   0  0  0  0  0  0  0  0  0  0  0  0
    0.6146   -2.3441   -1.0271 C   0  0  0  0  0  0  0  0  0  0  0  0
    1.7266   -2.0758    0.0021 C   0  0  0  0  0  0  0  0  0  0  0  0
    7.5623    0.2333   -0.2347 N   0  0  0  0  0  0  0  0  0  0  0  0
   10.7126    2.2947    1.6315 H   0  0  0  0  0  0  0  0  0  0  0  0
   10.3704    0.9611    0.4631 H   0  0  0  0  0  0  0  0  0  0  0  0
   10.0655    0.7159    2.2322 H   0  0  0  0  0  0  0  0  0  0  0  0
    8.3011    2.5161    2.1536 H   0  0  0  0  0  0  0  0  0  0  0  0
    8.5803    2.7067    0.3809 H   0  0  0  0  0  0  0  0  0  0  0  0
    6.3467   -1.3643   -1.9859 H   0  0  0  0  0  0  0  0  0  0  0  0
    6.8025   -2.6420   -0.8141 H   0  0  0  0  0  0  0  0  0  0  0  0
    4.5680   -2.4725    0.2870 H   0  0  0  0  0  0  0  0  0  0  0  0
    4.4579   -2.9535   -1.4432 H   0  0  0  0  0  0  0  0  0  0  0  0
    2.6286    1.2619   -0.2043 H   0  0  0  0  0  0  0  0  0  0  0  0
    1.3430    0.6460   -1.2944 H   0  0  0  0  0  0  0  0  0  0  0  0
    0.1037   -0.1825    0.7709 H   0  0  0  0  0  0  0  0  0  0  0  0
    1.3825    0.5680    1.8027 H   0  0  0  0  0  0  0  0  0  0  0  0
    0.7345    2.8140    0.9557 H   0  0  0  0  0  0  0  0  0  0  0  0
   -0.3477    2.0499   -0.2789 H   0  0  0  0  0  0  0  0  0  0  0  0
   -0.6677    1.9542    2.7912 H   0  0  0  0  0  0  0  0  0  0  0  0
   -1.6234    0.9606    1.6559 H   0  0  0  0  0  0  0  0  0  0  0  0
   -1.0744    4.5967   -0.2470 H   0  0  0  0  0  0  0  0  0  0  0  0
   -2.2075    5.2793   -2.3266 H   0  0  0  0  0  0  0  0  0  0  0  0
   -5.5907    2.8570   -1.3070 H   0  0  0  0  0  0  0  0  0  0  0  0
   -3.0897    0.0004    3.3196 H   0  0  0  0  0  0  0  0  0  0  0  0
   -3.8392    1.6291    3.4297 H   0  0  0  0  0  0  0  0  0  0  0  0
   -4.8881    0.1561    3.4135 H   0  0  0  0  0  0  0  0  0  0  0  0
   -3.5531   -1.3696    1.4949 H   0  0  0  0  0  0  0  0  0  0  0  0
   -6.1042   -0.8461    1.3084 H   0  0  0  0  0  0  0  0  0  0  0  0
   -5.1207   -3.1152    1.3806 H   0  0  0  0  0  0  0  0  0  0  0  0
   -4.8435   -3.0715   -0.4053 H   0  0  0  0  0  0  0  0  0  0  0  0
   -6.5192   -3.0361    0.2613 H   0  0  0  0  0  0  0  0  0  0  0  0
   -5.5148   -0.9648   -1.7178 H   0  0  0  0  0  0  0  0  0  0  0  0
   -6.0043    0.5229   -0.8450 H   0  0  0  0  0  0  0  0  0  0  0  0
   -7.1109   -0.8769   -0.8990 H   0  0  0  0  0  0  0  0  0  0  0  0
   -2.4146   -3.2690   -2.4294 H   0  0  0  0  0  0  0  0  0  0  0  0
   -3.6671   -2.0203   -2.5705 H   0  0  0  0  0  0  0  0  0  0  0  0
   -1.9515   -1.5902   -2.9279 H   0  0  0  0  0  0  0  0  0  0  0  0
   -1.3894   -2.0985    0.9788 H   0  0  0  0  0  0  0  0  0  0  0  0
   -2.3975   -3.4733    0.4199 H   0  0  0  0  0  0  0  0  0  0  0  0
   -0.7114   -4.0431   -1.3241 H   0  0  0  0  0  0  0  0  0  0  0  0
    0.0167   -3.9965    0.2779 H   0  0  0  0  0  0  0  0  0  0  0  0
    1.0918   -2.7615   -1.9416 H   0  0  0  0  0  0  0  0  0  0  0  0
    0.1211   -1.3994   -1.3344 H   0  0  0  0  0  0  0  0  0  0  0  0
    2.3789   -2.9724    0.0401 H   0  0  0  0  0  0  0  0  0  0  0  0
    1.3120   -1.9864    1.0279 H   0  0  0  0  0  0  0  0  0  0  0  0
  1  2  1  0
  2  3  1  0
  3  4  2  0
  4  5  1  0
  5  6  1  0
  6  7  1  0
  7  8  1  0
  8  9  1  0
  9 10  2  0
  9 11  1  0
 11 12  1  0
 12 13  1  0
 13 14  1  0
 14 15  1  0
 15 16  1  0
 16 17  1  0
 17 18  2  0
 18 19  1  0
 19 20  2  0
 20 21  1  0
 20 22  1  0
 22 23  2  0
 23 24  1  0
 24 25  2  0
 24 26  1  0
 26 27  1  0
 26 28  1  0
 28 29  1  0
 29 30  1  0
 29 31  1  0
 28 32  1  0
 32 33  2  0
 32 34  1  0
 34 35  1  0
 34 36  1  0
 36 37  1  0
 37 38  1  0
 38 39  1  0
  6 40  2  0
 40  3  1  0
 39 11  1  0
 23 17  1  0
  1 41  1  0
  1 42  1  0
  1 43  1  0
  2 44  1  0
  2 45  1  0
  7 46  1  0
  7 47  1  0
  8 48  1  0
  8 49  1  0
 12 50  1  0
 12 51  1  0
 13 52  1  0
 13 53  1  0
 14 54  1  0
 14 55  1  0
 15 56  1  0
 15 57  1  0
 18 58  1  0
 19 59  1  0
 22 60  1  0
 27 61  1  0
 27 62  1  0
 27 63  1  0
 28 64  1  0
 29 65  1  0
 30 66  1  0
 30 67  1  0
 30 68  1  0
 31 69  1  0
 31 70  1  0
 31 71  1  0
 35 72  1  0
 35 73  1  0
 35 74  1  0
 36 75  1  0
 36 76  1  0
 37 77  1  0
 37 78  1  0
 38 79  1  0
 38 80  1  0
 39 81  1  0
 39 82  1  0
M  END
$$$$
