
     RDKit          3D

 58 61  0  0  0  0  0  0  0  0999 V2000
    3.7810    1.2122    3.4517 O   0  0  0  0  0  0  0  0  0  0  0  0
    3.3190    1.2642    2.1272 C   0  0  0  0  0  0  0  0  0  0  0  0
    4.1417    0.3080    1.2434 C   0  0  0  0  0  0  0  0  0  0  0  0
    3.9842   -1.1665    1.7138 C   0  0  0  0  0  0  0  0  0  0  0  0
    3.8380   -2.1604    0.5526 C   0  0  0  0  0  0  0  0  0  0  0  0
    2.6482   -1.7736   -0.3414 C   0  0  0  0  0  0  0  0  0  0  0  0
    2.5958   -0.3233   -0.5829 N   0  0  0  0  0  0  0  0  0  0  0  0
    1.3750    0.2838   -1.0518 C   0  0  0  0  0  0  0  0  0  0  0  0
    1.1729    1.5553   -0.8339 N   0  0  0  0  0  0  0  0  0  0  0  0
    0.0438    2.3721   -1.2762 C   0  0  0  0  0  0  0  0  0  0  0  0
   -0.8574    2.6788   -0.0761 C   0  0  0  0  0  0  0  0  0  0  0  0
   -2.1715    3.3597   -0.5034 C   0  0  0  0  0  0  0  0  0  0  0  0
   -3.3182    3.1386    0.5077 C   0  0  0  0  0  0  0  0  0  0  0  0
   -3.8845    1.7088    0.4653 C   0  0  0  0  0  0  0  0  0  0  0  0
   -3.0963    0.8513    1.2921 O   0  0  0  0  0  0  0  0  0  0  0  0
   -3.2292   -0.5338    1.2373 C   0  0  0  0  0  0  0  0  0  0  0  0
   -4.2806   -1.1593    1.9232 C   0  0  0  0  0  0  0  0  0  0  0  0
   -4.4270   -2.5459    1.8690 C   0  0  0  0  0  0  0  0  0  0  0  0
   -3.5158   -3.3172    1.1412 C   0  0  0  0  0  0  0  0  0  0  0  0
   -2.4530   -2.7020    0.4692 C   0  0  0  0  0  0  0  0  0  0  0  0
   -2.3034   -1.3024    0.5105 C   0  0  0  0  0  0  0  0  0  0  0  0
   -1.2335   -0.6647   -0.1373 O   0  0  0  0  0  0  0  0  0  0  0  0
   -0.7858   -0.9948   -1.4250 C   0  0  0  0  0  0  0  0  0  0  0  0
   -1.5559   -1.7725   -2.2374 N   0  0  0  0  0  0  0  0  0  0  0  0
   -1.1590   -2.1308   -3.4876 C   0  0  0  0  0  0  0  0  0  0  0  0
    0.0643   -1.6895   -3.9851 C   0  0  0  0  0  0  0  0  0  0  0  0
    0.8734   -0.8847   -3.1848 C   0  0  0  0  0  0  0  0  0  0  0  0
    0.4546   -0.5176   -1.8974 C   0  0  0  0  0  0  0  0  0  0  0  0
    3.7727    0.4908   -0.2453 C   0  0  0  0  0  0  0  0  0  0  0  0
    3.2854    1.9178    3.9440 H   0  0  0  0  0  0  0  0  0  0  0  0
    3.4253    2.3076    1.7435 H   0  0  0  0  0  0  0  0  0  0  0  0
    2.2415    0.9832    2.0903 H   0  0  0  0  0  0  0  0  0  0  0  0
    5.2118    0.5956    1.3526 H   0  0  0  0  0  0  0  0  0  0  0  0
    4.8669   -1.4568    2.3233 H   0  0  0  0  0  0  0  0  0  0  0  0
    3.0917   -1.2852    2.3658 H   0  0  0  0  0  0  0  0  0  0  0  0
    3.6817   -3.1819    0.9678 H   0  0  0  0  0  0  0  0  0  0  0  0
    4.7738   -2.1805   -0.0492 H   0  0  0  0  0  0  0  0  0  0  0  0
    1.7134   -2.0976    0.1655 H   0  0  0  0  0  0  0  0  0  0  0  0
    2.7280   -2.3075   -1.3116 H   0  0  0  0  0  0  0  0  0  0  0  0
    0.4358    3.3276   -1.6898 H   0  0  0  0  0  0  0  0  0  0  0  0
   -0.5236    1.8641   -2.0840 H   0  0  0  0  0  0  0  0  0  0  0  0
   -1.0536    1.7331    0.4545 H   0  0  0  0  0  0  0  0  0  0  0  0
   -0.3122    3.3383    0.6371 H   0  0  0  0  0  0  0  0  0  0  0  0
   -1.9850    4.4524   -0.5963 H   0  0  0  0  0  0  0  0  0  0  0  0
   -2.5021    2.9946   -1.5034 H   0  0  0  0  0  0  0  0  0  0  0  0
   -4.1373    3.8498    0.2687 H   0  0  0  0  0  0  0  0  0  0  0  0
   -2.9622    3.3732    1.5349 H   0  0  0  0  0  0  0  0  0  0  0  0
   -3.8870    1.3246   -0.5847 H   0  0  0  0  0  0  0  0  0  0  0  0
   -4.9401    1.7064    0.8315 H   0  0  0  0  0  0  0  0  0  0  0  0
   -4.9902   -0.5680    2.4857 H   0  0  0  0  0  0  0  0  0  0  0  0
   -5.2508   -3.0213    2.3836 H   0  0  0  0  0  0  0  0  0  0  0  0
   -3.6306   -4.3909    1.1082 H   0  0  0  0  0  0  0  0  0  0  0  0
   -1.7380   -3.3144   -0.0636 H   0  0  0  0  0  0  0  0  0  0  0  0
   -1.7995   -2.7542   -4.0973 H   0  0  0  0  0  0  0  0  0  0  0  0
    0.3821   -1.9672   -4.9812 H   0  0  0  0  0  0  0  0  0  0  0  0
    1.8311   -0.5503   -3.5646 H   0  0  0  0  0  0  0  0  0  0  0  0
    4.6258    0.1596   -0.8760 H   0  0  0  0  0  0  0  0  0  0  0  0
    3.6241    1.5632   -0.4938 H   0  0  0  0  0  0  0  0  0  0  0  0
  1  2  1  0
  2  3  1  0
  3  4  1  0
  4  5  1  0
  5  6  1  0
  6  7  1  0
  7  8  1  0
  8  9  2  0
  9 10  1  0
 10 11  1  0
 11 12  1  0
 12 13  1  0
 13 14  1  0
 14 15  1  0
 15 16  1  0
 16 17  2  0
 17 18  1  0
 18 19  2  0
 19 20  1  0
 20 21  2  0
 21 22  1  0
 22 23  1  0
 23 24  2  0
 24 25  1  0
 25 26  2  0
 26 27  1  0
 27 28  2  0
  7 29  1  0
 29  3  1  0
 28  8  1  0
 21 16  1  0
 28 23  1  0
  1 30  1  0
  2 31  1  0
  2 32  1  0
  3 33  1  0
  4 34  1  0
  4 35  1  0
  5 36  1  0
  5 37  1  0
  6 38  1  0
  6 39  1  0
 10 40  1  0
 10 41  1  0
 11 42  1  0
 11 43  1  0
 12 44  1  0
 12 45  1  0
 13 46  1  0
 13 47  1  0
 14 48  1  0
 14 49  1  0
 17 50  1  0
 18 51  1  0
 19 52  1  0
 20 53  1  0
 25 54  1  0
 26 55  1  0
 27 56  1  0
 29 57  1  0
 29 58  1  0
M  END
$$$$
