
     RDKit          3D

 80 83  0  0  0  0  0  0  0  0999 V2000
   -1.0209   -3.8382   -1.4543 C   0  0  0  0  0  0  0  0  0  0  0  0
   -2.1155   -3.2118   -0.5772 C   0  0  0  0  0  0  0  0  0  0  0  0
   -3.0631   -2.3880   -1.4648 C   0  0  0  0  0  0  0  0  0  0  0  0
   -1.4935   -2.3749    0.5778 C   0  0  0  0  0  0  0  0  0  0  0  0
   -0.6975   -3.2580    1.4466 N   0  0  0  0  0  0  0  0  0  0  0  0
    0.7371   -3.3877    1.4228 C   0  0  0  0  0  0  0  0  0  0  0  0
    1.2660   -4.3934    1.9713 O   0  0  0  0  0  0  0  0  0  0  0  0
    1.6392   -2.3341    0.8400 C   0  0  0  0  0  0  0  0  0  0  0  0
    1.7474   -1.1382    1.7979 C   0  0  0  0  0  0  0  0  0  0  0  0
    2.3353    0.1076    1.1119 C   0  0  0  0  0  0  0  0  0  0  0  0
    3.8154   -0.0315    0.8852 C   0  0  0  0  0  0  0  0  0  0  0  0
    4.6105    0.0735    1.8587 O   0  0  0  0  0  0  0  0  0  0  0  0
    4.3194   -0.2878   -0.4333 N   0  0  0  0  0  0  0  0  0  0  0  0
    5.7444   -0.2392   -0.7466 C   0  0  0  0  0  0  0  0  0  0  0  0
    6.2289    1.2164   -0.7426 C   0  0  0  0  0  0  0  0  0  0  0  0
    7.5314    1.4583   -1.4861 C   0  0  0  0  0  0  0  0  0  0  0  0
    6.2140    1.9177   -2.0921 C   0  0  0  0  0  0  0  0  0  0  0  0
    2.0675    1.2959    1.9295 N   0  0  0  0  0  0  0  0  0  0  0  0
    1.5531    2.5236    1.3913 C   0  0  0  0  0  0  0  0  0  0  0  0
    1.1135    3.4072    2.1733 O   0  0  0  0  0  0  0  0  0  0  0  0
    1.5855    2.7990   -0.0544 C   0  0  0  0  0  0  0  0  0  0  0  0
    2.7938    3.2862   -0.5794 C   0  0  0  0  0  0  0  0  0  0  0  0
    2.9043    3.5981   -1.9340 C   0  0  0  0  0  0  0  0  0  0  0  0
    1.8153    3.4191   -2.7831 C   0  0  0  0  0  0  0  0  0  0  0  0
    0.6138    2.9259   -2.2803 C   0  0  0  0  0  0  0  0  0  0  0  0
    0.4720    2.6027   -0.9231 C   0  0  0  0  0  0  0  0  0  0  0  0
   -0.7811    2.0863   -0.5391 O   0  0  0  0  0  0  0  0  0  0  0  0
   -1.1191    1.4745    0.7030 C   0  0  0  0  0  0  0  0  0  0  0  0
   -2.4177    0.6739    0.5497 C   0  0  0  0  0  0  0  0  0  0  0  0
   -3.6453    1.6006    0.4294 C   0  0  0  0  0  0  0  0  0  0  0  0
   -4.8710    0.8247    0.0161 C   0  0  0  0  0  0  0  0  0  0  0  0
   -5.7193    0.2637    0.9855 C   0  0  0  0  0  0  0  0  0  0  0  0
   -6.8209   -0.5026    0.5977 C   0  0  0  0  0  0  0  0  0  0  0  0
   -7.0853   -0.7177   -0.7565 C   0  0  0  0  0  0  0  0  0  0  0  0
   -6.2469   -0.1642   -1.7281 C   0  0  0  0  0  0  0  0  0  0  0  0
   -5.1408    0.6031   -1.3461 C   0  0  0  0  0  0  0  0  0  0  0  0
   -2.5660   -0.2872    1.6628 N   0  0  0  0  0  0  0  0  0  0  0  0
   -2.6439    0.1684    3.0552 C   0  0  0  0  0  0  0  0  0  0  0  0
   -2.5592   -1.7101    1.4272 C   0  0  0  0  0  0  0  0  0  0  0  0
   -3.4230   -2.4319    1.9981 O   0  0  0  0  0  0  0  0  0  0  0  0
   -0.3987   -4.5440   -0.8664 H   0  0  0  0  0  0  0  0  0  0  0  0
   -1.4752   -4.4135   -2.2881 H   0  0  0  0  0  0  0  0  0  0  0  0
   -0.3664   -3.0504   -1.8826 H   0  0  0  0  0  0  0  0  0  0  0  0
   -2.7124   -4.0425   -0.1367 H   0  0  0  0  0  0  0  0  0  0  0  0
   -3.5063   -3.0346   -2.2526 H   0  0  0  0  0  0  0  0  0  0  0  0
   -3.9031   -1.9761   -0.8677 H   0  0  0  0  0  0  0  0  0  0  0  0
   -2.5162   -1.5576   -1.9596 H   0  0  0  0  0  0  0  0  0  0  0  0
   -0.8558   -1.5846    0.1410 H   0  0  0  0  0  0  0  0  0  0  0  0
   -1.2181   -3.9801    1.9953 H   0  0  0  0  0  0  0  0  0  0  0  0
    1.2701   -2.0260   -0.1593 H   0  0  0  0  0  0  0  0  0  0  0  0
    2.6542   -2.7599    0.6798 H   0  0  0  0  0  0  0  0  0  0  0  0
    0.7336   -0.8885    2.1812 H   0  0  0  0  0  0  0  0  0  0  0  0
    2.3679   -1.4209    2.6781 H   0  0  0  0  0  0  0  0  0  0  0  0
    1.8337    0.2202    0.1269 H   0  0  0  0  0  0  0  0  0  0  0  0
    3.6521   -0.5371   -1.1978 H   0  0  0  0  0  0  0  0  0  0  0  0
    6.3142   -0.8192    0.0091 H   0  0  0  0  0  0  0  0  0  0  0  0
    5.9153   -0.7227   -1.7336 H   0  0  0  0  0  0  0  0  0  0  0  0
    6.0700    1.8622    0.1500 H   0  0  0  0  0  0  0  0  0  0  0  0
    7.9812    0.5814   -2.0049 H   0  0  0  0  0  0  0  0  0  0  0  0
    8.1468    2.2919   -1.0872 H   0  0  0  0  0  0  0  0  0  0  0  0
    6.0661    3.0156   -2.0454 H   0  0  0  0  0  0  0  0  0  0  0  0
    5.8748    1.3111   -2.9591 H   0  0  0  0  0  0  0  0  0  0  0  0
    2.2330    1.2431    2.9601 H   0  0  0  0  0  0  0  0  0  0  0  0
    3.6535    3.4342    0.0676 H   0  0  0  0  0  0  0  0  0  0  0  0
    3.8316    3.9868   -2.3267 H   0  0  0  0  0  0  0  0  0  0  0  0
    1.9049    3.6601   -3.8335 H   0  0  0  0  0  0  0  0  0  0  0  0
   -0.2218    2.7795   -2.9527 H   0  0  0  0  0  0  0  0  0  0  0  0
   -0.3328    0.7542    0.9794 H   0  0  0  0  0  0  0  0  0  0  0  0
   -1.2201    2.2501    1.4920 H   0  0  0  0  0  0  0  0  0  0  0  0
   -2.3376    0.1218   -0.4084 H   0  0  0  0  0  0  0  0  0  0  0  0
   -3.4427    2.3856   -0.3319 H   0  0  0  0  0  0  0  0  0  0  0  0
   -3.8359    2.1403    1.3812 H   0  0  0  0  0  0  0  0  0  0  0  0
   -5.5230    0.4140    2.0385 H   0  0  0  0  0  0  0  0  0  0  0  0
   -7.4685   -0.9350    1.3505 H   0  0  0  0  0  0  0  0  0  0  0  0
   -7.9383   -1.3127   -1.0533 H   0  0  0  0  0  0  0  0  0  0  0  0
   -6.4470   -0.3340   -2.7782 H   0  0  0  0  0  0  0  0  0  0  0  0
   -4.4865    1.0045   -2.1096 H   0  0  0  0  0  0  0  0  0  0  0  0
   -3.5694   -0.2127    3.5334 H   0  0  0  0  0  0  0  0  0  0  0  0
   -1.7606   -0.2080    3.6098 H   0  0  0  0  0  0  0  0  0  0  0  0
   -2.6440    1.2736    3.1277 H   0  0  0  0  0  0  0  0  0  0  0  0
  1  2  1  0
  2  3  1  0
  2  4  1  0
  4  5  1  0
  5  6  1  0
  6  7  2  0
  6  8  1  0
  8  9  1  0
  9 10  1  0
 10 11  1  0
 11 12  2  0
 11 13  1  0
 13 14  1  0
 14 15  1  0
 15 16  1  0
 16 17  1  0
 10 18  1  0
 18 19  1  0
 19 20  2  0
 19 21  1  0
 21 22  2  0
 22 23  1  0
 23 24  2  0
 24 25  1  0
 25 26  2  0
 26 27  1  0
 27 28  1  0
 28 29  1  0
 29 30  1  0
 30 31  1  0
 31 32  2  0
 32 33  1  0
 33 34  2  0
 34 35  1  0
 35 36  2  0
 29 37  1  0
 37 38  1  0
 37 39  1  0
 39 40  2  0
 39  4  1  0
 17 15  1  0
 26 21  1  0
 36 31  1  0
  1 41  1  0
  1 42  1  0
  1 43  1  0
  2 44  1  0
  3 45  1  0
  3 46  1  0
  3 47  1  0
  4 48  1  0
  5 49  1  0
  8 50  1  0
  8 51  1  0
  9 52  1  0
  9 53  1  0
 10 54  1  0
 13 55  1  0
 14 56  1  0
 14 57  1  0
 15 58  1  0
 16 59  1  0
 16 60  1  0
 17 61  1  0
 17 62  1  0
 18 63  1  0
 22 64  1  0
 23 65  1  0
 24 66  1  0
 25 67  1  0
 28 68  1  0
 28 69  1  0
 29 70  1  0
 30 71  1  0
 30 72  1  0
 32 73  1  0
 33 74  1  0
 34 75  1  0
 35 76  1  0
 36 77  1  0
 38 78  1  0
 38 79  1  0
 38 80  1  0
M  END
$$$$
