
     RDKit          3D

 76 77  0  0  0  0  0  0  0  0999 V2000
   -3.8823    1.0949   -2.9888 C   0  0  0  0  0  0  0  0  0  0  0  0
   -3.4994    0.8592   -1.6536 O   0  0  0  0  0  0  0  0  0  0  0  0
   -4.6102    0.4507   -0.8682 C   0  0  0  0  0  0  0  0  0  0  0  0
   -4.7316   -1.1068   -0.8558 C   0  0  0  0  0  0  0  0  0  0  0  0
   -3.4303   -1.7712   -1.0474 N   0  0  0  0  0  0  0  0  0  0  0  0
   -3.0412   -2.1794   -2.3781 C   0  0  0  0  0  0  0  0  0  0  0  0
   -1.6805   -1.8942   -2.9379 C   0  0  0  0  0  0  0  0  0  0  0  0
   -3.8811   -2.7486   -3.1262 O   0  0  0  0  0  0  0  0  0  0  0  0
   -2.4771   -1.8032    0.0692 C   0  0  0  0  0  0  0  0  0  0  0  0
   -1.8084   -3.1641    0.2591 C   0  0  0  0  0  0  0  0  0  0  0  0
   -0.9064   -3.1716    1.5127 C   0  0  0  0  0  0  0  0  0  0  0  0
    0.0718   -2.0476    1.5365 N   0  0  0  0  0  0  0  0  0  0  0  0
    1.1915   -2.3531    0.6146 C   0  0  0  0  0  0  0  0  0  0  0  0
    2.1047   -1.1762    0.4080 C   0  0  0  0  0  0  0  0  0  0  0  0
    1.6969   -0.1842   -0.2514 O   0  0  0  0  0  0  0  0  0  0  0  0
    3.4393   -1.2099    0.9417 N   0  0  0  0  0  0  0  0  0  0  0  0
    4.5685   -0.5888    0.3053 C   0  0  0  0  0  0  0  0  0  0  0  0
    5.7501   -1.3281    0.1515 C   0  0  0  0  0  0  0  0  0  0  0  0
    6.8682   -0.7570   -0.4543 C   0  0  0  0  0  0  0  0  0  0  0  0
    6.8259    0.5649   -0.9016 C   0  0  0  0  0  0  0  0  0  0  0  0
    5.6627    1.3371   -0.7265 C   0  0  0  0  0  0  0  0  0  0  0  0
    5.5867    2.6918   -1.2064 N   0  0  0  0  0  0  0  0  0  0  0  0
    6.7178    3.5719   -1.3082 C   0  0  0  0  0  0  0  0  0  0  0  0
    6.6278    4.8137   -2.1335 C   0  0  0  0  0  0  0  0  0  0  0  0
    7.7661    3.3478   -0.6434 O   0  0  0  0  0  0  0  0  0  0  0  0
    4.5333    0.7498   -0.1311 C   0  0  0  0  0  0  0  0  0  0  0  0
    0.5844   -1.8318    2.9192 C   0  0  0  0  0  0  0  0  0  0  0  0
   -0.3627   -0.9793    3.7978 C   0  0  0  0  0  0  0  0  0  0  0  0
   -0.4504    0.5154    3.4106 C   0  0  0  0  0  0  0  0  0  0  0  0
   -1.1529    0.7339    2.0716 C   0  0  0  0  0  0  0  0  0  0  0  0
   -1.7196    2.0269    1.9982 O   0  0  0  0  0  0  0  0  0  0  0  0
   -2.2245    2.2853    0.6915 C   0  0  0  0  0  0  0  0  0  0  0  0
   -3.7712    2.4137    0.6810 C   0  0  0  0  0  0  0  0  0  0  0  0
   -4.1624    3.0993    1.8458 O   0  0  0  0  0  0  0  0  0  0  0  0
   -4.5092    1.0374    0.5833 C   0  0  0  0  0  0  0  0  0  0  0  0
   -5.7991    1.1223    1.1356 O   0  0  0  0  0  0  0  0  0  0  0  0
   -4.3840    0.2083   -3.4378 H   0  0  0  0  0  0  0  0  0  0  0  0
   -4.5425    1.9874   -3.0556 H   0  0  0  0  0  0  0  0  0  0  0  0
   -2.9705    1.3014   -3.5853 H   0  0  0  0  0  0  0  0  0  0  0  0
   -5.5659    0.8460   -1.2914 H   0  0  0  0  0  0  0  0  0  0  0  0
   -5.1951   -1.4573    0.0905 H   0  0  0  0  0  0  0  0  0  0  0  0
   -5.4356   -1.4118   -1.6565 H   0  0  0  0  0  0  0  0  0  0  0  0
   -1.7882   -1.2309   -3.8194 H   0  0  0  0  0  0  0  0  0  0  0  0
   -1.2022   -2.8463   -3.2599 H   0  0  0  0  0  0  0  0  0  0  0  0
   -1.0172   -1.3949   -2.2067 H   0  0  0  0  0  0  0  0  0  0  0  0
   -1.7038   -1.0273   -0.0934 H   0  0  0  0  0  0  0  0  0  0  0  0
   -3.0135   -1.5991    1.0111 H   0  0  0  0  0  0  0  0  0  0  0  0
   -1.2292   -3.4519   -0.6386 H   0  0  0  0  0  0  0  0  0  0  0  0
   -2.6018   -3.9287    0.3814 H   0  0  0  0  0  0  0  0  0  0  0  0
   -1.5792   -3.1296    2.3956 H   0  0  0  0  0  0  0  0  0  0  0  0
   -0.3834   -4.1508    1.5728 H   0  0  0  0  0  0  0  0  0  0  0  0
    0.8073   -2.6272   -0.3887 H   0  0  0  0  0  0  0  0  0  0  0  0
    1.7745   -3.2268    0.9849 H   0  0  0  0  0  0  0  0  0  0  0  0
    3.6502   -1.9647    1.6359 H   0  0  0  0  0  0  0  0  0  0  0  0
    5.7937   -2.3610    0.4787 H   0  0  0  0  0  0  0  0  0  0  0  0
    7.7652   -1.3455   -0.5961 H   0  0  0  0  0  0  0  0  0  0  0  0
    7.6931    0.9710   -1.4068 H   0  0  0  0  0  0  0  0  0  0  0  0
    4.6469    3.0699   -1.4562 H   0  0  0  0  0  0  0  0  0  0  0  0
    5.9945    4.6326   -3.0275 H   0  0  0  0  0  0  0  0  0  0  0  0
    6.1737    5.6273   -1.5278 H   0  0  0  0  0  0  0  0  0  0  0  0
    7.6396    5.1235   -2.4647 H   0  0  0  0  0  0  0  0  0  0  0  0
    3.6427    1.3478    0.0180 H   0  0  0  0  0  0  0  0  0  0  0  0
    1.5674   -1.3098    2.9241 H   0  0  0  0  0  0  0  0  0  0  0  0
    0.7597   -2.8107    3.4225 H   0  0  0  0  0  0  0  0  0  0  0  0
    0.0364   -1.0150    4.8379 H   0  0  0  0  0  0  0  0  0  0  0  0
   -1.3808   -1.4276    3.8477 H   0  0  0  0  0  0  0  0  0  0  0  0
    0.5664    0.9705    3.3918 H   0  0  0  0  0  0  0  0  0  0  0  0
   -1.0388    1.0329    4.2054 H   0  0  0  0  0  0  0  0  0  0  0  0
   -0.4095    0.5693    1.2677 H   0  0  0  0  0  0  0  0  0  0  0  0
   -1.9668   -0.0017    2.0152 H   0  0  0  0  0  0  0  0  0  0  0  0
   -1.8814    1.5685   -0.0868 H   0  0  0  0  0  0  0  0  0  0  0  0
   -1.8125    3.2642    0.3715 H   0  0  0  0  0  0  0  0  0  0  0  0
   -4.0510    3.0214   -0.2145 H   0  0  0  0  0  0  0  0  0  0  0  0
   -4.9917    3.5961    1.6307 H   0  0  0  0  0  0  0  0  0  0  0  0
   -3.9641    0.3401    1.2292 H   0  0  0  0  0  0  0  0  0  0  0  0
   -6.2975    1.8193    0.6358 H   0  0  0  0  0  0  0  0  0  0  0  0
  1  2  1  0
  2  3  1  0
  3  4  1  0
  4  5  1  0
  5  6  1  0
  6  7  1  0
  6  8  2  0
  5  9  1  0
  9 10  1  0
 10 11  1  0
 11 12  1  0
 12 13  1  0
 13 14  1  0
 14 15  2  0
 14 16  1  0
 16 17  1  0
 17 18  2  0
 18 19  1  0
 19 20  2  0
 20 21  1  0
 21 22  1  0
 22 23  1  0
 23 24  1  0
 23 25  2  0
 21 26  2  0
 12 27  1  0
 27 28  1  0
 28 29  1  0
 29 30  1  0
 30 31  1  0
 31 32  1  0
 32 33  1  0
 33 34  1  0
 33 35  1  0
 35 36  1  0
 35  3  1  0
 26 17  1  0
  1 37  1  0
  1 38  1  0
  1 39  1  0
  3 40  1  0
  4 41  1  0
  4 42  1  0
  7 43  1  0
  7 44  1  0
  7 45  1  0
  9 46  1  0
  9 47  1  0
 10 48  1  0
 10 49  1  0
 11 50  1  0
 11 51  1  0
 13 52  1  0
 13 53  1  0
 16 54  1  0
 18 55  1  0
 19 56  1  0
 20 57  1  0
 22 58  1  0
 24 59  1  0
 24 60  1  0
 24 61  1  0
 26 62  1  0
 27 63  1  0
 27 64  1  0
 28 65  1  0
 28 66  1  0
 29 67  1  0
 29 68  1  0
 30 69  1  0
 30 70  1  0
 32 71  1  0
 32 72  1  0
 33 73  1  0
 34 74  1  0
 35 75  1  0
 36 76  1  0
M  END
$$$$
