
     RDKit          3D

 67 70  0  0  0  0  0  0  0  0999 V2000
   -3.5708    3.0596    2.0465 C   0  0  0  0  0  0  0  0  0  0  0  0
   -2.1877    2.8440    1.4449 C   0  0  0  0  0  0  0  0  0  0  0  0
   -2.1450    1.5742    0.7087 N   0  0  0  0  0  0  0  0  0  0  0  0
   -1.9538    1.5848   -0.7468 C   0  0  0  0  0  0  0  0  0  0  0  0
   -0.4512    1.5410   -1.0659 C   0  0  0  0  0  0  0  0  0  0  0  0
   -0.1460    0.7744   -2.3643 C   0  0  0  0  0  0  0  0  0  0  0  0
    1.3131    0.2967   -2.4215 C   0  0  0  0  0  0  0  0  0  0  0  0
    1.6550   -0.5624   -1.2650 N   0  0  0  0  0  0  0  0  0  0  0  0
    2.5165   -0.0732   -0.2011 C   0  0  0  0  0  0  0  0  0  0  0  0
    2.5595   -0.6733    0.9082 O   0  0  0  0  0  0  0  0  0  0  0  0
    3.3422    1.1392   -0.3569 C   0  0  0  0  0  0  0  0  0  0  0  0
    4.3472    1.1766   -1.3360 C   0  0  0  0  0  0  0  0  0  0  0  0
    5.1289    2.3222   -1.4980 C   0  0  0  0  0  0  0  0  0  0  0  0
    4.9173    3.4341   -0.6810 C   0  0  0  0  0  0  0  0  0  0  0  0
    3.9262    3.4038    0.3039 C   0  0  0  0  0  0  0  0  0  0  0  0
    3.1315    2.2533    0.4791 C   0  0  0  0  0  0  0  0  0  0  0  0
    2.1248    2.1855    1.4569 O   0  0  0  0  0  0  0  0  0  0  0  0
    1.7669    3.2545    2.3247 C   0  0  0  0  0  0  0  0  0  0  0  0
    1.0156   -1.8952   -1.1717 C   0  0  0  0  0  0  0  0  0  0  0  0
    2.0773   -3.0116   -1.0750 C   0  0  0  0  0  0  0  0  0  0  0  0
    1.4264   -4.4073   -1.0752 C   0  0  0  0  0  0  0  0  0  0  0  0
    0.1128   -4.4763   -0.2670 C   0  0  0  0  0  0  0  0  0  0  0  0
   -0.0277   -3.3093    0.7164 C   0  0  0  0  0  0  0  0  0  0  0  0
   -0.0549   -1.9526   -0.0287 C   0  0  0  0  0  0  0  0  0  0  0  0
   -1.3450   -1.7188   -0.6081 O   0  0  0  0  0  0  0  0  0  0  0  0
   -2.5585   -1.7610    0.0909 C   0  0  0  0  0  0  0  0  0  0  0  0
   -3.4653   -2.7766   -0.2411 C   0  0  0  0  0  0  0  0  0  0  0  0
   -4.6851   -2.8886    0.4293 C   0  0  0  0  0  0  0  0  0  0  0  0
   -5.0176   -1.9757    1.4293 C   0  0  0  0  0  0  0  0  0  0  0  0
   -4.1369   -0.9411    1.7520 C   0  0  0  0  0  0  0  0  0  0  0  0
   -2.9084   -0.8137    1.0839 C   0  0  0  0  0  0  0  0  0  0  0  0
   -2.0541    0.3325    1.4366 C   0  0  0  0  0  0  0  0  0  0  0  0
   -1.3410    0.2631    2.4746 O   0  0  0  0  0  0  0  0  0  0  0  0
   -4.3398    3.0590    1.2454 H   0  0  0  0  0  0  0  0  0  0  0  0
   -3.6021    4.0374    2.5707 H   0  0  0  0  0  0  0  0  0  0  0  0
   -3.8046    2.2555    2.7761 H   0  0  0  0  0  0  0  0  0  0  0  0
   -1.9524    3.6980    0.7730 H   0  0  0  0  0  0  0  0  0  0  0  0
   -1.4259    2.8451    2.2544 H   0  0  0  0  0  0  0  0  0  0  0  0
   -2.3916    2.5057   -1.1869 H   0  0  0  0  0  0  0  0  0  0  0  0
   -2.5008    0.7315   -1.1995 H   0  0  0  0  0  0  0  0  0  0  0  0
    0.0728    1.0678   -0.2132 H   0  0  0  0  0  0  0  0  0  0  0  0
   -0.0563    2.5784   -1.1449 H   0  0  0  0  0  0  0  0  0  0  0  0
   -0.8115   -0.1043   -2.4768 H   0  0  0  0  0  0  0  0  0  0  0  0
   -0.3447    1.4410   -3.2310 H   0  0  0  0  0  0  0  0  0  0  0  0
    1.9630    1.1900   -2.4889 H   0  0  0  0  0  0  0  0  0  0  0  0
    1.4711   -0.2754   -3.3613 H   0  0  0  0  0  0  0  0  0  0  0  0
    4.5187    0.3199   -1.9767 H   0  0  0  0  0  0  0  0  0  0  0  0
    5.8993    2.3496   -2.2583 H   0  0  0  0  0  0  0  0  0  0  0  0
    5.5241    4.3214   -0.8106 H   0  0  0  0  0  0  0  0  0  0  0  0
    3.7853    4.2795    0.9221 H   0  0  0  0  0  0  0  0  0  0  0  0
    2.6422    3.5657    2.9318 H   0  0  0  0  0  0  0  0  0  0  0  0
    1.3842    4.1120    1.7328 H   0  0  0  0  0  0  0  0  0  0  0  0
    0.9681    2.9103    3.0123 H   0  0  0  0  0  0  0  0  0  0  0  0
    0.4824   -2.1022   -2.1289 H   0  0  0  0  0  0  0  0  0  0  0  0
    2.6760   -2.9019   -0.1477 H   0  0  0  0  0  0  0  0  0  0  0  0
    2.7800   -2.9337   -1.9335 H   0  0  0  0  0  0  0  0  0  0  0  0
    1.2195   -4.7140   -2.1244 H   0  0  0  0  0  0  0  0  0  0  0  0
    2.1551   -5.1357   -0.6573 H   0  0  0  0  0  0  0  0  0  0  0  0
    0.0707   -5.4353    0.2925 H   0  0  0  0  0  0  0  0  0  0  0  0
   -0.7512   -4.4619   -0.9661 H   0  0  0  0  0  0  0  0  0  0  0  0
    0.8293   -3.3231    1.4249 H   0  0  0  0  0  0  0  0  0  0  0  0
   -0.9425   -3.4449    1.3309 H   0  0  0  0  0  0  0  0  0  0  0  0
    0.1371   -1.1624    0.7226 H   0  0  0  0  0  0  0  0  0  0  0  0
   -3.2125   -3.4952   -1.0105 H   0  0  0  0  0  0  0  0  0  0  0  0
   -5.3719   -3.6860    0.1757 H   0  0  0  0  0  0  0  0  0  0  0  0
   -5.9633   -2.0634    1.9497 H   0  0  0  0  0  0  0  0  0  0  0  0
   -4.4199   -0.2311    2.5188 H   0  0  0  0  0  0  0  0  0  0  0  0
  1  2  1  0
  2  3  1  0
  3  4  1  0
  4  5  1  0
  5  6  1  0
  6  7  1  0
  7  8  1  0
  8  9  1  0
  9 10  2  0
  9 11  1  0
 11 12  2  0
 12 13  1  0
 13 14  2  0
 14 15  1  0
 15 16  2  0
 16 17  1  0
 17 18  1  0
  8 19  1  0
 19 20  1  0
 20 21  1  0
 21 22  1  0
 22 23  1  0
 23 24  1  0
 24 25  1  0
 25 26  1  0
 26 27  2  0
 27 28  1  0
 28 29  2  0
 29 30  1  0
 30 31  2  0
 31 32  1  0
 32 33  2  0
 32  3  1  0
 16 11  1  0
 24 19  1  0
 31 26  1  0
  1 34  1  0
  1 35  1  0
  1 36  1  0
  2 37  1  0
  2 38  1  0
  4 39  1  0
  4 40  1  0
  5 41  1  0
  5 42  1  0
  6 43  1  0
  6 44  1  0
  7 45  1  0
  7 46  1  0
 12 47  1  0
 13 48  1  0
 14 49  1  0
 15 50  1  0
 18 51  1  0
 18 52  1  0
 18 53  1  0
 19 54  1  0
 20 55  1  0
 20 56  1  0
 21 57  1  0
 21 58  1  0
 22 59  1  0
 22 60  1  0
 23 61  1  0
 23 62  1  0
 24 63  1  0
 27 64  1  0
 28 65  1  0
 29 66  1  0
 30 67  1  0
M  END
$$$$
