
     RDKit          3D

 69 72  0  0  0  0  0  0  0  0999 V2000
   -1.1680   -1.1787    2.5591 C   0  0  0  0  0  0  0  0  0  0  0  0
   -1.5893   -1.5411    1.2118 N   0  0  0  0  0  0  0  0  0  0  0  0
   -1.3754   -0.6765    0.0810 C   0  0  0  0  0  0  0  0  0  0  0  0
   -0.6065    0.2960    0.2033 O   0  0  0  0  0  0  0  0  0  0  0  0
   -2.0766   -0.9470   -1.2467 C   0  0  0  0  0  0  0  0  0  0  0  0
   -1.5349   -2.3132   -1.7699 C   0  0  0  0  0  0  0  0  0  0  0  0
   -0.0825   -2.2692   -2.3655 C   0  0  0  0  0  0  0  0  0  0  0  0
    1.0718   -1.8300   -1.4069 C   0  0  0  0  0  0  0  0  0  0  0  0
    1.7671   -0.4633   -1.7481 C   0  0  0  0  0  0  0  0  0  0  0  0
    1.9582    0.4288   -0.5752 N   0  0  0  0  0  0  0  0  0  0  0  0
    2.4579   -0.1107    0.6681 C   0  0  0  0  0  0  0  0  0  0  0  0
    2.0865    0.3955    1.7606 O   0  0  0  0  0  0  0  0  0  0  0  0
    3.4126   -1.2358    0.6961 C   0  0  0  0  0  0  0  0  0  0  0  0
    4.6133   -1.3666    0.0189 C   0  0  0  0  0  0  0  0  0  0  0  0
    5.2511   -0.3813   -0.9081 C   0  0  0  0  0  0  0  0  0  0  0  0
    5.1899   -2.5345    0.3636 N   0  0  0  0  0  0  0  0  0  0  0  0
    4.4022   -3.1144    1.2233 O   0  0  0  0  0  0  0  0  0  0  0  0
    3.3394   -2.3830    1.4632 C   0  0  0  0  0  0  0  0  0  0  0  0
    2.2462   -2.7719    2.4029 C   0  0  0  0  0  0  0  0  0  0  0  0
    2.0510    1.8998   -0.7570 C   0  0  0  0  0  0  0  0  0  0  0  0
    0.7098    2.6012   -1.0963 C   0  0  0  0  0  0  0  0  0  0  0  0
    0.2207    3.4403   -0.0438 O   0  0  0  0  0  0  0  0  0  0  0  0
   -0.4961    2.9945    1.0809 C   0  0  0  0  0  0  0  0  0  0  0  0
    0.1836    2.9291    2.3037 C   0  0  0  0  0  0  0  0  0  0  0  0
   -0.4884    2.5751    3.4733 C   0  0  0  0  0  0  0  0  0  0  0  0
   -1.8577    2.3176    3.4433 C   0  0  0  0  0  0  0  0  0  0  0  0
   -2.5550    2.3711    2.2346 C   0  0  0  0  0  0  0  0  0  0  0  0
   -1.8875    2.6785    1.0378 C   0  0  0  0  0  0  0  0  0  0  0  0
   -2.6679    2.7522   -0.2165 C   0  0  0  0  0  0  0  0  0  0  0  0
   -2.8023    3.8779   -0.7653 O   0  0  0  0  0  0  0  0  0  0  0  0
   -3.1382    1.5700   -0.9085 N   0  0  0  0  0  0  0  0  0  0  0  0
   -3.9564    0.4921   -0.3040 C   0  0  0  0  0  0  0  0  0  0  0  0
   -3.5948   -0.9068   -0.9168 C   0  0  0  0  0  0  0  0  0  0  0  0
   -2.7194    1.3804   -2.2920 C   0  0  0  0  0  0  0  0  0  0  0  0
   -1.8805    0.0992   -2.4035 C   0  0  0  0  0  0  0  0  0  0  0  0
   -1.8353   -0.3889    2.9569 H   0  0  0  0  0  0  0  0  0  0  0  0
   -0.1201   -0.8172    2.5536 H   0  0  0  0  0  0  0  0  0  0  0  0
   -1.2363   -2.0636    3.2269 H   0  0  0  0  0  0  0  0  0  0  0  0
   -2.1064   -2.4406    1.0983 H   0  0  0  0  0  0  0  0  0  0  0  0
   -2.2137   -2.6722   -2.5739 H   0  0  0  0  0  0  0  0  0  0  0  0
   -1.5746   -3.0937   -0.9825 H   0  0  0  0  0  0  0  0  0  0  0  0
   -0.0628   -1.6779   -3.3043 H   0  0  0  0  0  0  0  0  0  0  0  0
    0.1403   -3.3065   -2.6990 H   0  0  0  0  0  0  0  0  0  0  0  0
    0.7553   -1.8910   -0.3530 H   0  0  0  0  0  0  0  0  0  0  0  0
    1.8634   -2.6081   -1.4715 H   0  0  0  0  0  0  0  0  0  0  0  0
    2.7629   -0.6848   -2.1822 H   0  0  0  0  0  0  0  0  0  0  0  0
    1.2504    0.0799   -2.5579 H   0  0  0  0  0  0  0  0  0  0  0  0
    6.3170   -0.2499   -0.6308 H   0  0  0  0  0  0  0  0  0  0  0  0
    5.1956   -0.7586   -1.9494 H   0  0  0  0  0  0  0  0  0  0  0  0
    4.7485    0.6050   -0.8473 H   0  0  0  0  0  0  0  0  0  0  0  0
    1.2989   -2.9006    1.8406 H   0  0  0  0  0  0  0  0  0  0  0  0
    2.1186   -1.9852    3.1754 H   0  0  0  0  0  0  0  0  0  0  0  0
    2.5010   -3.7282    2.9068 H   0  0  0  0  0  0  0  0  0  0  0  0
    2.4865    2.3820    0.1444 H   0  0  0  0  0  0  0  0  0  0  0  0
    2.7754    2.1022   -1.5754 H   0  0  0  0  0  0  0  0  0  0  0  0
    0.8831    3.2554   -1.9768 H   0  0  0  0  0  0  0  0  0  0  0  0
   -0.0646    1.9082   -1.4045 H   0  0  0  0  0  0  0  0  0  0  0  0
    1.2386    3.1649    2.3473 H   0  0  0  0  0  0  0  0  0  0  0  0
    0.0488    2.5259    4.4104 H   0  0  0  0  0  0  0  0  0  0  0  0
   -2.3793    2.0691    4.3570 H   0  0  0  0  0  0  0  0  0  0  0  0
   -3.6242    2.1989    2.2412 H   0  0  0  0  0  0  0  0  0  0  0  0
   -3.7906    0.4454    0.7903 H   0  0  0  0  0  0  0  0  0  0  0  0
   -5.0315    0.7081   -0.4752 H   0  0  0  0  0  0  0  0  0  0  0  0
   -3.8864   -1.7136   -0.2113 H   0  0  0  0  0  0  0  0  0  0  0  0
   -4.1873   -1.0711   -1.8445 H   0  0  0  0  0  0  0  0  0  0  0  0
   -2.1336    2.2479   -2.6701 H   0  0  0  0  0  0  0  0  0  0  0  0
   -3.6249    1.2997   -2.9358 H   0  0  0  0  0  0  0  0  0  0  0  0
   -2.1652   -0.3727   -3.3722 H   0  0  0  0  0  0  0  0  0  0  0  0
   -0.8314    0.3563   -2.5330 H   0  0  0  0  0  0  0  0  0  0  0  0
  1  2  1  0
  2  3  1  0
  3  4  2  0
  3  5  1  0
  5  6  1  0
  6  7  1  0
  7  8  1  0
  8  9  1  0
  9 10  1  0
 10 11  1  0
 11 12  2  0
 11 13  1  0
 13 14  1  0
 14 15  1  0
 14 16  2  0
 16 17  1  0
 17 18  1  0
 18 19  1  0
 10 20  1  0
 20 21  1  0
 21 22  1  0
 22 23  1  0
 23 24  2  0
 24 25  1  0
 25 26  2  0
 26 27  1  0
 27 28  2  0
 28 29  1  0
 29 30  2  0
 29 31  1  0
 31 32  1  0
 32 33  1  0
 31 34  1  0
 34 35  1  0
 33  5  1  0
 35  5  1  0
 18 13  2  0
 28 23  1  0
  1 36  1  0
  1 37  1  0
  1 38  1  0
  2 39  1  0
  6 40  1  0
  6 41  1  0
  7 42  1  0
  7 43  1  0
  8 44  1  0
  8 45  1  0
  9 46  1  0
  9 47  1  0
 15 48  1  0
 15 49  1  0
 15 50  1  0
 19 51  1  0
 19 52  1  0
 19 53  1  0
 20 54  1  0
 20 55  1  0
 21 56  1  0
 21 57  1  0
 24 58  1  0
 25 59  1  0
 26 60  1  0
 27 61  1  0
 32 62  1  0
 32 63  1  0
 33 64  1  0
 33 65  1  0
 34 66  1  0
 34 67  1  0
 35 68  1  0
 35 69  1  0
M  END
$$$$
