
     RDKit          3D

 82 85  0  0  0  0  0  0  0  0999 V2000
    8.2821   -3.1519   -0.1300 C   0  0  0  0  0  0  0  0  0  0  0  0
    7.3939   -2.1257   -0.5648 O   0  0  0  0  0  0  0  0  0  0  0  0
    7.7278   -0.7641   -0.6462 C   0  0  0  0  0  0  0  0  0  0  0  0
    8.9988   -0.2808   -0.2749 C   0  0  0  0  0  0  0  0  0  0  0  0
    9.2983    1.0849   -0.3755 C   0  0  0  0  0  0  0  0  0  0  0  0
   10.6370    1.6036    0.0565 C   0  0  0  0  0  0  0  0  0  0  0  0
    8.3141    1.9741   -0.8219 C   0  0  0  0  0  0  0  0  0  0  0  0
    7.0518    1.5044   -1.1906 C   0  0  0  0  0  0  0  0  0  0  0  0
    6.7528    0.1318   -1.1091 C   0  0  0  0  0  0  0  0  0  0  0  0
    5.5069   -0.3930   -1.4868 O   0  0  0  0  0  0  0  0  0  0  0  0
    4.3535    0.3644   -1.8552 C   0  0  0  0  0  0  0  0  0  0  0  0
    3.6740    0.9503   -0.6156 C   0  0  0  0  0  0  0  0  0  0  0  0
    2.3428    1.4387   -0.9654 N   0  0  0  0  0  0  0  0  0  0  0  0
    1.1444    0.9329   -0.3592 C   0  0  0  0  0  0  0  0  0  0  0  0
    1.1968    0.3463    0.7551 O   0  0  0  0  0  0  0  0  0  0  0  0
   -0.1822    1.0820   -1.0664 C   0  0  0  0  0  0  0  0  0  0  0  0
   -1.1687    1.8409   -0.1522 C   0  0  0  0  0  0  0  0  0  0  0  0
   -2.3743    2.3418   -0.8992 C   0  0  0  0  0  0  0  0  0  0  0  0
   -2.3184    3.4470   -1.5100 O   0  0  0  0  0  0  0  0  0  0  0  0
   -3.5716    1.5564   -0.9618 N   0  0  0  0  0  0  0  0  0  0  0  0
   -4.7199    1.8079   -0.0794 C   0  0  0  0  0  0  0  0  0  0  0  0
   -4.2836    2.1114    1.3733 C   0  0  0  0  0  0  0  0  0  0  0  0
   -5.4527    2.3498    2.3003 C   0  0  0  0  0  0  0  0  0  0  0  0
   -5.6852    1.4848    3.3822 C   0  0  0  0  0  0  0  0  0  0  0  0
   -6.7747    1.6965    4.2311 C   0  0  0  0  0  0  0  0  0  0  0  0
   -7.6353    2.7754    4.0101 C   0  0  0  0  0  0  0  0  0  0  0  0
   -7.4008    3.6519    2.9492 C   0  0  0  0  0  0  0  0  0  0  0  0
   -6.3116    3.4443    2.0990 C   0  0  0  0  0  0  0  0  0  0  0  0
   -5.6904    0.6436   -0.1457 C   0  0  0  0  0  0  0  0  0  0  0  0
   -6.7762    0.7885   -0.7719 O   0  0  0  0  0  0  0  0  0  0  0  0
   -5.3898   -0.6312    0.4517 N   0  0  0  0  0  0  0  0  0  0  0  0
   -6.3763   -1.2509    1.3325 C   0  0  0  0  0  0  0  0  0  0  0  0
   -4.3421   -1.4773   -0.1289 C   0  0  0  0  0  0  0  0  0  0  0  0
   -3.2540   -1.8023    0.9024 C   0  0  0  0  0  0  0  0  0  0  0  0
   -1.9903   -1.9519    0.2553 O   0  0  0  0  0  0  0  0  0  0  0  0
   -1.6509   -2.9721   -0.6500 C   0  0  0  0  0  0  0  0  0  0  0  0
   -2.2980   -4.2240   -0.6307 C   0  0  0  0  0  0  0  0  0  0  0  0
   -1.8791   -5.2470   -1.4836 C   0  0  0  0  0  0  0  0  0  0  0  0
   -0.8141   -5.0391   -2.3587 C   0  0  0  0  0  0  0  0  0  0  0  0
   -0.1792   -3.7984   -2.4037 C   0  0  0  0  0  0  0  0  0  0  0  0
   -0.6093   -2.7458   -1.5764 C   0  0  0  0  0  0  0  0  0  0  0  0
    0.0237   -1.4118   -1.7010 C   0  0  0  0  0  0  0  0  0  0  0  0
    1.2145   -1.3205   -2.1119 O   0  0  0  0  0  0  0  0  0  0  0  0
   -0.7409   -0.2253   -1.4390 N   0  0  0  0  0  0  0  0  0  0  0  0
    7.7553   -4.1248   -0.1618 H   0  0  0  0  0  0  0  0  0  0  0  0
    9.1643   -3.1982   -0.7999 H   0  0  0  0  0  0  0  0  0  0  0  0
    8.6022   -2.9602    0.9131 H   0  0  0  0  0  0  0  0  0  0  0  0
    9.7574   -0.9586    0.0912 H   0  0  0  0  0  0  0  0  0  0  0  0
   11.4219    0.8279   -0.0714 H   0  0  0  0  0  0  0  0  0  0  0  0
   10.5882    1.8937    1.1256 H   0  0  0  0  0  0  0  0  0  0  0  0
   10.9256    2.4884   -0.5518 H   0  0  0  0  0  0  0  0  0  0  0  0
    8.5201    3.0348   -0.8877 H   0  0  0  0  0  0  0  0  0  0  0  0
    6.3203    2.2207   -1.5335 H   0  0  0  0  0  0  0  0  0  0  0  0
    3.6461   -0.3259   -2.3603 H   0  0  0  0  0  0  0  0  0  0  0  0
    4.6135    1.1574   -2.5874 H   0  0  0  0  0  0  0  0  0  0  0  0
    3.6098    0.1624    0.1668 H   0  0  0  0  0  0  0  0  0  0  0  0
    4.2776    1.7926   -0.2125 H   0  0  0  0  0  0  0  0  0  0  0  0
    2.2700    2.1632   -1.7174 H   0  0  0  0  0  0  0  0  0  0  0  0
   -0.0324    1.6703   -1.9972 H   0  0  0  0  0  0  0  0  0  0  0  0
   -0.6581    2.7169    0.3048 H   0  0  0  0  0  0  0  0  0  0  0  0
   -1.4894    1.1761    0.6769 H   0  0  0  0  0  0  0  0  0  0  0  0
   -3.7928    1.1585   -1.9029 H   0  0  0  0  0  0  0  0  0  0  0  0
   -5.2395    2.7100   -0.4720 H   0  0  0  0  0  0  0  0  0  0  0  0
   -3.6560    3.0267    1.3852 H   0  0  0  0  0  0  0  0  0  0  0  0
   -3.6529    1.2835    1.7522 H   0  0  0  0  0  0  0  0  0  0  0  0
   -5.0290    0.6434    3.5640 H   0  0  0  0  0  0  0  0  0  0  0  0
   -6.9544    1.0212    5.0569 H   0  0  0  0  0  0  0  0  0  0  0  0
   -8.4816    2.9367    4.6655 H   0  0  0  0  0  0  0  0  0  0  0  0
   -8.0657    4.4918    2.7853 H   0  0  0  0  0  0  0  0  0  0  0  0
   -6.1372    4.1382    1.2877 H   0  0  0  0  0  0  0  0  0  0  0  0
   -6.9961   -0.4773    1.8318 H   0  0  0  0  0  0  0  0  0  0  0  0
   -7.0389   -1.9220    0.7431 H   0  0  0  0  0  0  0  0  0  0  0  0
   -5.8636   -1.8388    2.1205 H   0  0  0  0  0  0  0  0  0  0  0  0
   -3.8836   -0.9774   -0.9990 H   0  0  0  0  0  0  0  0  0  0  0  0
   -4.7870   -2.4147   -0.5162 H   0  0  0  0  0  0  0  0  0  0  0  0
   -3.5118   -2.7117    1.4809 H   0  0  0  0  0  0  0  0  0  0  0  0
   -3.1654   -0.9661    1.6223 H   0  0  0  0  0  0  0  0  0  0  0  0
   -3.0980   -4.4317    0.0671 H   0  0  0  0  0  0  0  0  0  0  0  0
   -2.3743   -6.2097   -1.4533 H   0  0  0  0  0  0  0  0  0  0  0  0
   -0.4865   -5.8395   -3.0102 H   0  0  0  0  0  0  0  0  0  0  0  0
    0.6247   -3.6461   -3.1142 H   0  0  0  0  0  0  0  0  0  0  0  0
   -1.7464   -0.2518   -1.7178 H   0  0  0  0  0  0  0  0  0  0  0  0
  1  2  1  0
  2  3  1  0
  3  4  2  0
  4  5  1  0
  5  6  1  0
  5  7  2  0
  7  8  1  0
  8  9  2  0
  9 10  1  0
 10 11  1  0
 11 12  1  0
 12 13  1  0
 13 14  1  0
 14 15  2  0
 14 16  1  0
 16 17  1  0
 17 18  1  0
 18 19  2  0
 18 20  1  0
 20 21  1  0
 21 22  1  0
 22 23  1  0
 23 24  2  0
 24 25  1  0
 25 26  2  0
 26 27  1  0
 27 28  2  0
 21 29  1  0
 29 30  2  0
 29 31  1  0
 31 32  1  0
 31 33  1  0
 33 34  1  0
 34 35  1  0
 35 36  1  0
 36 37  2  0
 37 38  1  0
 38 39  2  0
 39 40  1  0
 40 41  2  0
 41 42  1  0
 42 43  2  0
 42 44  1  0
  9  3  1  0
 44 16  1  0
 28 23  1  0
 41 36  1  0
  1 45  1  0
  1 46  1  0
  1 47  1  0
  4 48  1  0
  6 49  1  0
  6 50  1  0
  6 51  1  0
  7 52  1  0
  8 53  1  0
 11 54  1  0
 11 55  1  0
 12 56  1  0
 12 57  1  0
 13 58  1  0
 16 59  1  0
 17 60  1  0
 17 61  1  0
 20 62  1  0
 21 63  1  0
 22 64  1  0
 22 65  1  0
 24 66  1  0
 25 67  1  0
 26 68  1  0
 27 69  1  0
 28 70  1  0
 32 71  1  0
 32 72  1  0
 32 73  1  0
 33 74  1  0
 33 75  1  0
 34 76  1  0
 34 77  1  0
 37 78  1  0
 38 79  1  0
 39 80  1  0
 40 81  1  0
 44 82  1  0
M  END
$$$$
