
     RDKit          3D

 72 73  0  0  0  0  0  0  0  0999 V2000
   -6.4901   -1.5021   -0.9003 C   0  0  0  0  0  0  0  0  0  0  0  0
   -5.6295   -0.7887   -0.0381 O   0  0  0  0  0  0  0  0  0  0  0  0
   -4.2750   -0.9365   -0.4380 C   0  0  0  0  0  0  0  0  0  0  0  0
   -3.6397   -2.0540    0.4360 C   0  0  0  0  0  0  0  0  0  0  0  0
   -2.2850   -2.4498   -0.0018 N   0  0  0  0  0  0  0  0  0  0  0  0
   -2.1208   -3.0289   -1.3179 C   0  0  0  0  0  0  0  0  0  0  0  0
   -0.7976   -3.0360   -2.0229 C   0  0  0  0  0  0  0  0  0  0  0  0
   -3.1190   -3.5179   -1.9149 O   0  0  0  0  0  0  0  0  0  0  0  0
   -1.2530   -2.6628    1.0346 C   0  0  0  0  0  0  0  0  0  0  0  0
   -0.7427   -1.3452    1.6484 C   0  0  0  0  0  0  0  0  0  0  0  0
    0.3724   -0.6923    0.8200 C   0  0  0  0  0  0  0  0  0  0  0  0
    0.5690    0.7041    1.2726 N   0  0  0  0  0  0  0  0  0  0  0  0
    1.5956    0.8342    2.3381 C   0  0  0  0  0  0  0  0  0  0  0  0
    3.0085    0.8975    1.8158 C   0  0  0  0  0  0  0  0  0  0  0  0
    3.5772    2.0188    1.7211 O   0  0  0  0  0  0  0  0  0  0  0  0
    3.7088   -0.3027    1.4539 N   0  0  0  0  0  0  0  0  0  0  0  0
    4.8525   -0.3335    0.5794 C   0  0  0  0  0  0  0  0  0  0  0  0
    5.0285    0.6238   -0.4372 C   0  0  0  0  0  0  0  0  0  0  0  0
    6.1354    0.5565   -1.2852 C   0  0  0  0  0  0  0  0  0  0  0  0
    7.0698   -0.4704   -1.1395 C   0  0  0  0  0  0  0  0  0  0  0  0
    6.9037   -1.4473   -0.1464 C   0  0  0  0  0  0  0  0  0  0  0  0
    7.9104   -2.5643   -0.0361 C   0  0  0  0  0  0  0  0  0  0  0  0
    7.8617   -3.3381   -1.1820 F   0  0  0  0  0  0  0  0  0  0  0  0
    7.6596   -3.3749    1.0587 F   0  0  0  0  0  0  0  0  0  0  0  0
    9.1814   -2.0319    0.0947 F   0  0  0  0  0  0  0  0  0  0  0  0
    5.7810   -1.3796    0.7015 C   0  0  0  0  0  0  0  0  0  0  0  0
    0.7050    1.6718    0.1580 C   0  0  0  0  0  0  0  0  0  0  0  0
    0.4003    3.1042    0.6279 C   0  0  0  0  0  0  0  0  0  0  0  0
    0.0026    4.0300   -0.5400 C   0  0  0  0  0  0  0  0  0  0  0  0
   -1.5184    4.1591   -0.7008 C   0  0  0  0  0  0  0  0  0  0  0  0
   -2.0961    2.8944   -0.9662 O   0  0  0  0  0  0  0  0  0  0  0  0
   -3.4884    2.9432   -0.7180 C   0  0  0  0  0  0  0  0  0  0  0  0
   -4.1598    1.5962   -1.0619 C   0  0  0  0  0  0  0  0  0  0  0  0
   -5.5322    1.7044   -0.7856 O   0  0  0  0  0  0  0  0  0  0  0  0
   -3.5396    0.4198   -0.2517 C   0  0  0  0  0  0  0  0  0  0  0  0
   -2.1955    0.2691   -0.6147 O   0  0  0  0  0  0  0  0  0  0  0  0
   -7.5275   -1.4080   -0.5217 H   0  0  0  0  0  0  0  0  0  0  0  0
   -6.2364   -2.5831   -0.9222 H   0  0  0  0  0  0  0  0  0  0  0  0
   -6.4652   -1.0784   -1.9279 H   0  0  0  0  0  0  0  0  0  0  0  0
   -4.1797   -1.2108   -1.5168 H   0  0  0  0  0  0  0  0  0  0  0  0
   -3.6323   -1.7235    1.4978 H   0  0  0  0  0  0  0  0  0  0  0  0
   -4.2889   -2.9549    0.4050 H   0  0  0  0  0  0  0  0  0  0  0  0
   -0.3866   -2.0065   -2.0751 H   0  0  0  0  0  0  0  0  0  0  0  0
   -0.9199   -3.4035   -3.0666 H   0  0  0  0  0  0  0  0  0  0  0  0
   -0.0788   -3.7119   -1.5121 H   0  0  0  0  0  0  0  0  0  0  0  0
   -1.6952   -3.2822    1.8459 H   0  0  0  0  0  0  0  0  0  0  0  0
   -0.3948   -3.2501    0.6515 H   0  0  0  0  0  0  0  0  0  0  0  0
   -0.3391   -1.5621    2.6606 H   0  0  0  0  0  0  0  0  0  0  0  0
   -1.5815   -0.6325    1.7859 H   0  0  0  0  0  0  0  0  0  0  0  0
    0.0927   -0.7349   -0.2496 H   0  0  0  0  0  0  0  0  0  0  0  0
    1.3024   -1.2891    0.9088 H   0  0  0  0  0  0  0  0  0  0  0  0
    1.5115   -0.0050    3.0632 H   0  0  0  0  0  0  0  0  0  0  0  0
    1.3836    1.7522    2.9271 H   0  0  0  0  0  0  0  0  0  0  0  0
    3.4022   -1.2007    1.8966 H   0  0  0  0  0  0  0  0  0  0  0  0
    4.2996    1.4058   -0.5982 H   0  0  0  0  0  0  0  0  0  0  0  0
    6.2614    1.2952   -2.0652 H   0  0  0  0  0  0  0  0  0  0  0  0
    7.9170   -0.5120   -1.8128 H   0  0  0  0  0  0  0  0  0  0  0  0
    5.6238   -2.1318    1.4641 H   0  0  0  0  0  0  0  0  0  0  0  0
    1.7134    1.6215   -0.3062 H   0  0  0  0  0  0  0  0  0  0  0  0
   -0.0104    1.4205   -0.6496 H   0  0  0  0  0  0  0  0  0  0  0  0
   -0.4056    3.0908    1.3962 H   0  0  0  0  0  0  0  0  0  0  0  0
    1.3120    3.5159    1.1144 H   0  0  0  0  0  0  0  0  0  0  0  0
    0.4088    5.0457   -0.3379 H   0  0  0  0  0  0  0  0  0  0  0  0
    0.4577    3.6859   -1.4946 H   0  0  0  0  0  0  0  0  0  0  0  0
   -1.7255    4.8432   -1.5527 H   0  0  0  0  0  0  0  0  0  0  0  0
   -1.9222    4.6250    0.2297 H   0  0  0  0  0  0  0  0  0  0  0  0
   -3.6834    3.1642    0.3568 H   0  0  0  0  0  0  0  0  0  0  0  0
   -3.9618    3.7393   -1.3401 H   0  0  0  0  0  0  0  0  0  0  0  0
   -4.0151    1.3897   -2.1486 H   0  0  0  0  0  0  0  0  0  0  0  0
   -5.9428    2.1951   -1.5457 H   0  0  0  0  0  0  0  0  0  0  0  0
   -3.5737    0.6856    0.8271 H   0  0  0  0  0  0  0  0  0  0  0  0
   -2.1609    0.0352   -1.5798 H   0  0  0  0  0  0  0  0  0  0  0  0
  1  2  1  0
  2  3  1  0
  3  4  1  0
  4  5  1  0
  5  6  1  0
  6  7  1  0
  6  8  2  0
  5  9  1  0
  9 10  1  0
 10 11  1  0
 11 12  1  0
 12 13  1  0
 13 14  1  0
 14 15  2  0
 14 16  1  0
 16 17  1  0
 17 18  2  0
 18 19  1  0
 19 20  2  0
 20 21  1  0
 21 22  1  0
 22 23  1  0
 22 24  1  0
 22 25  1  0
 21 26  2  0
 12 27  1  0
 27 28  1  0
 28 29  1  0
 29 30  1  0
 30 31  1  0
 31 32  1  0
 32 33  1  0
 33 34  1  0
 33 35  1  0
 35 36  1  0
 35  3  1  0
 26 17  1  0
  1 37  1  0
  1 38  1  0
  1 39  1  0
  3 40  1  0
  4 41  1  0
  4 42  1  0
  7 43  1  0
  7 44  1  0
  7 45  1  0
  9 46  1  0
  9 47  1  0
 10 48  1  0
 10 49  1  0
 11 50  1  0
 11 51  1  0
 13 52  1  0
 13 53  1  0
 16 54  1  0
 18 55  1  0
 19 56  1  0
 20 57  1  0
 26 58  1  0
 27 59  1  0
 27 60  1  0
 28 61  1  0
 28 62  1  0
 29 63  1  0
 29 64  1  0
 30 65  1  0
 30 66  1  0
 32 67  1  0
 32 68  1  0
 33 69  1  0
 34 70  1  0
 35 71  1  0
 36 72  1  0
M  END
$$$$
