
     RDKit          3D

 71 74  0  0  0  0  0  0  0  0999 V2000
    7.0050   -2.0082    1.2889 C   0  0  0  0  0  0  0  0  0  0  0  0
    6.3194   -0.6943    1.0997 C   0  0  0  0  0  0  0  0  0  0  0  0
    6.5647    0.2076    0.0811 C   0  0  0  0  0  0  0  0  0  0  0  0
    5.6505    1.2178    0.3067 C   0  0  0  0  0  0  0  0  0  0  0  0
    5.4400    2.4253   -0.5549 C   0  0  0  0  0  0  0  0  0  0  0  0
    4.5246    2.1095   -1.6499 N   0  0  0  0  0  0  0  0  0  0  0  0
    3.1092    1.9710   -1.4440 C   0  0  0  0  0  0  0  0  0  0  0  0
    2.6081    2.2224   -0.3134 O   0  0  0  0  0  0  0  0  0  0  0  0
    2.2099    1.5810   -2.5815 C   0  0  0  0  0  0  0  0  0  0  0  0
    1.2185    0.5391   -2.1367 C   0  0  0  0  0  0  0  0  0  0  0  0
    1.6082   -0.8066   -2.0435 C   0  0  0  0  0  0  0  0  0  0  0  0
    0.7186   -1.7624   -1.5549 C   0  0  0  0  0  0  0  0  0  0  0  0
   -0.5639   -1.3861   -1.1270 C   0  0  0  0  0  0  0  0  0  0  0  0
   -0.9670   -0.0335   -1.2070 C   0  0  0  0  0  0  0  0  0  0  0  0
   -0.0720    0.9162   -1.7283 C   0  0  0  0  0  0  0  0  0  0  0  0
   -2.3462    0.3976   -0.7603 C   0  0  0  0  0  0  0  0  0  0  0  0
   -2.4170    0.4808    0.7177 N   0  0  0  0  0  0  0  0  0  0  0  0
   -1.6658    1.6068    1.3372 C   0  0  0  0  0  0  0  0  0  0  0  0
   -1.8205    2.9590    0.6499 C   0  0  0  0  0  0  0  0  0  0  0  0
   -0.6678    3.6557    0.2431 C   0  0  0  0  0  0  0  0  0  0  0  0
   -0.7659    4.9212   -0.3371 C   0  0  0  0  0  0  0  0  0  0  0  0
   -2.0119    5.5294   -0.4803 C   0  0  0  0  0  0  0  0  0  0  0  0
   -3.1705    4.8527   -0.0800 C   0  0  0  0  0  0  0  0  0  0  0  0
   -3.0770    3.5807    0.4914 C   0  0  0  0  0  0  0  0  0  0  0  0
   -3.7707    0.2814    1.2849 C   0  0  0  0  0  0  0  0  0  0  0  0
   -3.7129   -0.8002    2.3265 C   0  0  0  0  0  0  0  0  0  0  0  0
   -3.2429   -0.5155    3.4640 O   0  0  0  0  0  0  0  0  0  0  0  0
   -4.1034   -2.1552    2.0581 N   0  0  0  0  0  0  0  0  0  0  0  0
   -4.5267   -2.6392    0.7401 C   0  0  0  0  0  0  0  0  0  0  0  0
   -4.3030   -4.1537    0.6061 C   0  0  0  0  0  0  0  0  0  0  0  0
   -2.8153   -4.5553    0.7325 C   0  0  0  0  0  0  0  0  0  0  0  0
   -2.0830   -4.7169   -0.6108 C   0  0  0  0  0  0  0  0  0  0  0  0
   -1.9326   -3.4242   -1.4240 C   0  0  0  0  0  0  0  0  0  0  0  0
   -1.4254   -2.3599   -0.6149 O   0  0  0  0  0  0  0  0  0  0  0  0
    4.8998    0.9024    1.3781 N   0  0  0  0  0  0  0  0  0  0  0  0
    5.2975   -0.2618    1.8665 N   0  0  0  0  0  0  0  0  0  0  0  0
    6.5123   -2.7781    0.6585 H   0  0  0  0  0  0  0  0  0  0  0  0
    8.0735   -1.9237    0.9944 H   0  0  0  0  0  0  0  0  0  0  0  0
    6.9562   -2.3155    2.3577 H   0  0  0  0  0  0  0  0  0  0  0  0
    7.2881    0.1294   -0.7200 H   0  0  0  0  0  0  0  0  0  0  0  0
    5.0369    3.2688    0.0491 H   0  0  0  0  0  0  0  0  0  0  0  0
    6.4184    2.7478   -0.9735 H   0  0  0  0  0  0  0  0  0  0  0  0
    4.9211    1.9749   -2.6079 H   0  0  0  0  0  0  0  0  0  0  0  0
    1.6832    2.4870   -2.9442 H   0  0  0  0  0  0  0  0  0  0  0  0
    2.8078    1.1848   -3.4256 H   0  0  0  0  0  0  0  0  0  0  0  0
    2.6057   -1.1105   -2.3366 H   0  0  0  0  0  0  0  0  0  0  0  0
    1.0332   -2.7976   -1.4823 H   0  0  0  0  0  0  0  0  0  0  0  0
   -0.3777    1.9490   -1.8255 H   0  0  0  0  0  0  0  0  0  0  0  0
   -3.0676   -0.3500   -1.1485 H   0  0  0  0  0  0  0  0  0  0  0  0
   -2.6445    1.3561   -1.2377 H   0  0  0  0  0  0  0  0  0  0  0  0
   -0.5931    1.3192    1.3624 H   0  0  0  0  0  0  0  0  0  0  0  0
   -1.9476    1.7238    2.4062 H   0  0  0  0  0  0  0  0  0  0  0  0
    0.3101    3.2141    0.3704 H   0  0  0  0  0  0  0  0  0  0  0  0
    0.1318    5.4397   -0.6541 H   0  0  0  0  0  0  0  0  0  0  0  0
   -2.0879    6.5172   -0.9141 H   0  0  0  0  0  0  0  0  0  0  0  0
   -4.1349    5.3306   -0.1824 H   0  0  0  0  0  0  0  0  0  0  0  0
   -3.9899    3.1144    0.8168 H   0  0  0  0  0  0  0  0  0  0  0  0
   -4.5271    0.0367    0.5097 H   0  0  0  0  0  0  0  0  0  0  0  0
   -4.1471    1.1956    1.7875 H   0  0  0  0  0  0  0  0  0  0  0  0
   -4.0722   -2.8318    2.8553 H   0  0  0  0  0  0  0  0  0  0  0  0
   -3.9543   -2.1319   -0.0500 H   0  0  0  0  0  0  0  0  0  0  0  0
   -5.6021   -2.4032    0.5911 H   0  0  0  0  0  0  0  0  0  0  0  0
   -4.7175   -4.5026   -0.3660 H   0  0  0  0  0  0  0  0  0  0  0  0
   -4.8837   -4.6635    1.4068 H   0  0  0  0  0  0  0  0  0  0  0  0
   -2.7758   -5.5390    1.2485 H   0  0  0  0  0  0  0  0  0  0  0  0
   -2.2563   -3.8490    1.3832 H   0  0  0  0  0  0  0  0  0  0  0  0
   -1.0649   -5.1100   -0.3978 H   0  0  0  0  0  0  0  0  0  0  0  0
   -2.6052   -5.4766   -1.2303 H   0  0  0  0  0  0  0  0  0  0  0  0
   -1.2454   -3.6355   -2.2729 H   0  0  0  0  0  0  0  0  0  0  0  0
   -2.9107   -3.1221   -1.8583 H   0  0  0  0  0  0  0  0  0  0  0  0
    4.1146    1.4669    1.7721 H   0  0  0  0  0  0  0  0  0  0  0  0
  1  2  1  0
  2  3  1  0
  3  4  2  0
  4  5  1  0
  5  6  1  0
  6  7  1  0
  7  8  2  0
  7  9  1  0
  9 10  1  0
 10 11  2  0
 11 12  1  0
 12 13  2  0
 13 14  1  0
 14 15  2  0
 14 16  1  0
 16 17  1  0
 17 18  1  0
 18 19  1  0
 19 20  2  0
 20 21  1  0
 21 22  2  0
 22 23  1  0
 23 24  2  0
 17 25  1  0
 25 26  1  0
 26 27  2  0
 26 28  1  0
 28 29  1  0
 29 30  1  0
 30 31  1  0
 31 32  1  0
 32 33  1  0
 33 34  1  0
  4 35  1  0
 35 36  1  0
 36  2  2  0
 15 10  1  0
 24 19  1  0
 34 13  1  0
  1 37  1  0
  1 38  1  0
  1 39  1  0
  3 40  1  0
  5 41  1  0
  5 42  1  0
  6 43  1  0
  9 44  1  0
  9 45  1  0
 11 46  1  0
 12 47  1  0
 15 48  1  0
 16 49  1  0
 16 50  1  0
 18 51  1  0
 18 52  1  0
 20 53  1  0
 21 54  1  0
 22 55  1  0
 23 56  1  0
 24 57  1  0
 25 58  1  0
 25 59  1  0
 28 60  1  0
 29 61  1  0
 29 62  1  0
 30 63  1  0
 30 64  1  0
 31 65  1  0
 31 66  1  0
 32 67  1  0
 32 68  1  0
 33 69  1  0
 33 70  1  0
 35 71  1  0
M  END
$$$$
