
     RDKit          3D

 71 74  0  0  0  0  0  0  0  0999 V2000
   -1.6768    5.9666    1.3026 C   0  0  0  0  0  0  0  0  0  0  0  0
   -1.8873    4.5427    1.8113 C   0  0  0  0  0  0  0  0  0  0  0  0
   -2.0015    3.5517    0.6471 C   0  0  0  0  0  0  0  0  0  0  0  0
   -2.2794    2.1329    1.1578 C   0  0  0  0  0  0  0  0  0  0  0  0
   -2.3564    1.1793    0.0382 N   0  0  0  0  0  0  0  0  0  0  0  0
   -3.6833    0.6935   -0.3774 C   0  0  0  0  0  0  0  0  0  0  0  0
   -4.2855   -0.2646    0.6710 C   0  0  0  0  0  0  0  0  0  0  0  0
   -4.5738   -1.5628    0.1435 O   0  0  0  0  0  0  0  0  0  0  0  0
   -3.6702   -2.3696   -0.5628 C   0  0  0  0  0  0  0  0  0  0  0  0
   -3.8505   -2.4844   -1.9483 C   0  0  0  0  0  0  0  0  0  0  0  0
   -3.0590   -3.3514   -2.7041 C   0  0  0  0  0  0  0  0  0  0  0  0
   -2.0912   -4.1333   -2.0784 C   0  0  0  0  0  0  0  0  0  0  0  0
   -1.8999   -4.0365   -0.6985 C   0  0  0  0  0  0  0  0  0  0  0  0
   -2.6603   -3.1356    0.0758 C   0  0  0  0  0  0  0  0  0  0  0  0
   -2.4197   -3.0901    1.5668 C   0  0  0  0  0  0  0  0  0  0  0  0
   -0.9802   -2.6732    1.9454 C   0  0  0  0  0  0  0  0  0  0  0  0
   -0.6244   -1.2156    1.5957 C   0  0  0  0  0  0  0  0  0  0  0  0
   -0.0543   -1.0544    0.1716 C   0  0  0  0  0  0  0  0  0  0  0  0
    0.1235    0.4223   -0.2943 C   0  0  0  0  0  0  0  0  0  0  0  0
    1.1863    0.4069   -1.4539 C   0  0  0  0  0  0  0  0  0  0  0  0
    2.5368    0.3959   -0.8882 N   0  0  0  0  0  0  0  0  0  0  0  0
    3.5948   -0.3346   -1.5331 C   0  0  0  0  0  0  0  0  0  0  0  0
    3.5625   -0.5025   -2.7827 O   0  0  0  0  0  0  0  0  0  0  0  0
    4.7003   -0.9268   -0.7450 C   0  0  0  0  0  0  0  0  0  0  0  0
    4.4130   -1.5920    0.4547 C   0  0  0  0  0  0  0  0  0  0  0  0
    5.4079   -2.1666    1.1757 N   0  0  0  0  0  0  0  0  0  0  0  0
    6.6954   -2.1123    0.7537 C   0  0  0  0  0  0  0  0  0  0  0  0
    7.0054   -1.4776   -0.4046 N   0  0  0  0  0  0  0  0  0  0  0  0
    6.0485   -0.8798   -1.1647 C   0  0  0  0  0  0  0  0  0  0  0  0
    6.4694   -0.1850   -2.4262 C   0  0  0  0  0  0  0  0  0  0  0  0
    2.8430    1.3465    0.1843 C   0  0  0  0  0  0  0  0  0  0  0  0
    1.5786    2.1109    0.5760 C   0  0  0  0  0  0  0  0  0  0  0  0
    0.5280    1.2024    0.8375 O   0  0  0  0  0  0  0  0  0  0  0  0
   -1.2210    0.9406   -0.8240 C   0  0  0  0  0  0  0  0  0  0  0  0
   -1.3771    1.0937   -2.0686 O   0  0  0  0  0  0  0  0  0  0  0  0
   -1.5756    6.6571    2.1654 H   0  0  0  0  0  0  0  0  0  0  0  0
   -0.7512    6.0251    0.6900 H   0  0  0  0  0  0  0  0  0  0  0  0
   -2.5462    6.2900    0.6908 H   0  0  0  0  0  0  0  0  0  0  0  0
   -1.0251    4.2621    2.4576 H   0  0  0  0  0  0  0  0  0  0  0  0
   -2.8143    4.5117    2.4254 H   0  0  0  0  0  0  0  0  0  0  0  0
   -2.8337    3.8585   -0.0262 H   0  0  0  0  0  0  0  0  0  0  0  0
   -1.0563    3.5634    0.0634 H   0  0  0  0  0  0  0  0  0  0  0  0
   -1.5112    1.8185    1.8904 H   0  0  0  0  0  0  0  0  0  0  0  0
   -3.2427    2.1467    1.7144 H   0  0  0  0  0  0  0  0  0  0  0  0
   -4.3594    1.5664   -0.5138 H   0  0  0  0  0  0  0  0  0  0  0  0
   -3.6315    0.2015   -1.3689 H   0  0  0  0  0  0  0  0  0  0  0  0
   -3.6503   -0.3443    1.5693 H   0  0  0  0  0  0  0  0  0  0  0  0
   -5.2429    0.1684    1.0309 H   0  0  0  0  0  0  0  0  0  0  0  0
   -4.6259   -1.9115   -2.4411 H   0  0  0  0  0  0  0  0  0  0  0  0
   -3.2074   -3.4277   -3.7738 H   0  0  0  0  0  0  0  0  0  0  0  0
   -1.4888   -4.8175   -2.6614 H   0  0  0  0  0  0  0  0  0  0  0  0
   -1.1530   -4.6666   -0.2322 H   0  0  0  0  0  0  0  0  0  0  0  0
   -2.5959   -4.1110    1.9690 H   0  0  0  0  0  0  0  0  0  0  0  0
   -3.1470   -2.4392    2.0864 H   0  0  0  0  0  0  0  0  0  0  0  0
   -0.2363   -3.3700    1.5031 H   0  0  0  0  0  0  0  0  0  0  0  0
   -0.8910   -2.7860    3.0484 H   0  0  0  0  0  0  0  0  0  0  0  0
    0.1537   -0.8748    2.3134 H   0  0  0  0  0  0  0  0  0  0  0  0
   -1.4978   -0.5681    1.7548 H   0  0  0  0  0  0  0  0  0  0  0  0
    0.9311   -1.5706    0.1648 H   0  0  0  0  0  0  0  0  0  0  0  0
   -0.6848   -1.5826   -0.5687 H   0  0  0  0  0  0  0  0  0  0  0  0
    1.0260   -0.4717   -2.1190 H   0  0  0  0  0  0  0  0  0  0  0  0
    1.0953    1.3136   -2.0906 H   0  0  0  0  0  0  0  0  0  0  0  0
    3.3938   -1.6703    0.8103 H   0  0  0  0  0  0  0  0  0  0  0  0
    7.4751   -2.5772    1.3398 H   0  0  0  0  0  0  0  0  0  0  0  0
    6.1586   -0.7849   -3.3065 H   0  0  0  0  0  0  0  0  0  0  0  0
    7.5732   -0.0668   -2.4546 H   0  0  0  0  0  0  0  0  0  0  0  0
    6.0121    0.8253   -2.4822 H   0  0  0  0  0  0  0  0  0  0  0  0
    3.2189    0.8022    1.0760 H   0  0  0  0  0  0  0  0  0  0  0  0
    3.6218    2.0631   -0.1556 H   0  0  0  0  0  0  0  0  0  0  0  0
    1.2872    2.8318   -0.2186 H   0  0  0  0  0  0  0  0  0  0  0  0
    1.7798    2.6983    1.4958 H   0  0  0  0  0  0  0  0  0  0  0  0
  1  2  1  0
  2  3  1  0
  3  4  1  0
  4  5  1  0
  5  6  1  0
  6  7  1  0
  7  8  1  0
  8  9  1  0
  9 10  2  0
 10 11  1  0
 11 12  2  0
 12 13  1  0
 13 14  2  0
 14 15  1  0
 15 16  1  0
 16 17  1  0
 17 18  1  0
 18 19  1  0
 19 20  1  0
 20 21  1  0
 21 22  1  0
 22 23  2  0
 22 24  1  0
 24 25  2  0
 25 26  1  0
 26 27  2  0
 27 28  1  0
 28 29  2  0
 29 30  1  0
 21 31  1  0
 31 32  1  0
 32 33  1  0
 19 34  1  0
 34 35  2  0
 34  5  1  0
 14  9  1  0
 33 19  1  0
 29 24  1  0
  1 36  1  0
  1 37  1  0
  1 38  1  0
  2 39  1  0
  2 40  1  0
  3 41  1  0
  3 42  1  0
  4 43  1  0
  4 44  1  0
  6 45  1  0
  6 46  1  0
  7 47  1  0
  7 48  1  0
 10 49  1  0
 11 50  1  0
 12 51  1  0
 13 52  1  0
 15 53  1  0
 15 54  1  0
 16 55  1  0
 16 56  1  0
 17 57  1  0
 17 58  1  0
 18 59  1  0
 18 60  1  0
 20 61  1  0
 20 62  1  0
 25 63  1  0
 27 64  1  0
 30 65  1  0
 30 66  1  0
 30 67  1  0
 31 68  1  0
 31 69  1  0
 32 70  1  0
 32 71  1  0
M  END
$$$$
