
     RDKit          3D

 58 61  0  0  0  0  0  0  0  0999 V2000
    4.5679    0.7552   -1.3386 O   0  0  0  0  0  0  0  0  0  0  0  0
    4.1620    0.1143   -0.3312 C   0  0  0  0  0  0  0  0  0  0  0  0
    4.8830    0.2433    0.9549 C   0  0  0  0  0  0  0  0  0  0  0  0
    4.1714    0.2036    2.1672 C   0  0  0  0  0  0  0  0  0  0  0  0
    4.8416    0.3394    3.3863 C   0  0  0  0  0  0  0  0  0  0  0  0
    6.2256    0.5243    3.4076 C   0  0  0  0  0  0  0  0  0  0  0  0
    6.9417    0.5768    2.2096 C   0  0  0  0  0  0  0  0  0  0  0  0
    6.2777    0.4417    0.9855 C   0  0  0  0  0  0  0  0  0  0  0  0
    7.0004    0.4789   -0.1632 F   0  0  0  0  0  0  0  0  0  0  0  0
    2.9934   -0.7157   -0.4456 N   0  0  0  0  0  0  0  0  0  0  0  0
    3.0484   -2.1092    0.0041 C   0  0  0  0  0  0  0  0  0  0  0  0
    1.7138   -2.7930   -0.2774 C   0  0  0  0  0  0  0  0  0  0  0  0
    0.6676   -1.9371    0.1304 O   0  0  0  0  0  0  0  0  0  0  0  0
    0.5058   -0.7962   -0.7178 C   0  0  0  0  0  0  0  0  0  0  0  0
   -0.1220    0.3154    0.1734 C   0  0  0  0  0  0  0  0  0  0  0  0
   -0.2989    1.7127   -0.4832 C   0  0  0  0  0  0  0  0  0  0  0  0
   -1.6561    2.3715   -0.1521 C   0  0  0  0  0  0  0  0  0  0  0  0
   -2.7005    2.1537   -1.2682 C   0  0  0  0  0  0  0  0  0  0  0  0
   -4.0572    1.7966   -0.7137 C   0  0  0  0  0  0  0  0  0  0  0  0
   -5.0143    2.7989   -0.4894 C   0  0  0  0  0  0  0  0  0  0  0  0
   -6.2829    2.4658   -0.0092 C   0  0  0  0  0  0  0  0  0  0  0  0
   -6.6052    1.1326    0.2508 C   0  0  0  0  0  0  0  0  0  0  0  0
   -5.6555    0.1279    0.0477 C   0  0  0  0  0  0  0  0  0  0  0  0
   -4.3681    0.4545   -0.4193 C   0  0  0  0  0  0  0  0  0  0  0  0
   -3.3676   -0.5116   -0.5944 O   0  0  0  0  0  0  0  0  0  0  0  0
   -3.5381   -1.9182   -0.4714 C   0  0  0  0  0  0  0  0  0  0  0  0
   -2.1705   -2.5935   -0.5213 C   0  0  0  0  0  0  0  0  0  0  0  0
   -1.4424   -2.2128   -1.7369 N   0  0  0  0  0  0  0  0  0  0  0  0
   -0.4744   -1.1473   -1.8396 C   0  0  0  0  0  0  0  0  0  0  0  0
   -0.4256   -0.4956   -2.9186 O   0  0  0  0  0  0  0  0  0  0  0  0
    1.8840   -0.3064   -1.3112 C   0  0  0  0  0  0  0  0  0  0  0  0
    3.0949    0.0813    2.1709 H   0  0  0  0  0  0  0  0  0  0  0  0
    4.2864    0.3061    4.3147 H   0  0  0  0  0  0  0  0  0  0  0  0
    6.7429    0.6293    4.3525 H   0  0  0  0  0  0  0  0  0  0  0  0
    8.0143    0.7199    2.2300 H   0  0  0  0  0  0  0  0  0  0  0  0
    3.2430   -2.1475    1.0960 H   0  0  0  0  0  0  0  0  0  0  0  0
    3.8654   -2.6465   -0.5238 H   0  0  0  0  0  0  0  0  0  0  0  0
    1.6201   -3.0615   -1.3542 H   0  0  0  0  0  0  0  0  0  0  0  0
    1.6553   -3.7362    0.3055 H   0  0  0  0  0  0  0  0  0  0  0  0
    0.5172    0.4401    1.0758 H   0  0  0  0  0  0  0  0  0  0  0  0
   -1.0956   -0.0526    0.5564 H   0  0  0  0  0  0  0  0  0  0  0  0
    0.5105    2.3735   -0.1012 H   0  0  0  0  0  0  0  0  0  0  0  0
   -0.1608    1.6788   -1.5836 H   0  0  0  0  0  0  0  0  0  0  0  0
   -2.0284    2.0175    0.8351 H   0  0  0  0  0  0  0  0  0  0  0  0
   -1.5002    3.4670   -0.0393 H   0  0  0  0  0  0  0  0  0  0  0  0
   -2.7733    3.0752   -1.8871 H   0  0  0  0  0  0  0  0  0  0  0  0
   -2.3845    1.3522   -1.9706 H   0  0  0  0  0  0  0  0  0  0  0  0
   -4.7809    3.8361   -0.6958 H   0  0  0  0  0  0  0  0  0  0  0  0
   -7.0194    3.2417    0.1555 H   0  0  0  0  0  0  0  0  0  0  0  0
   -7.5917    0.8775    0.6159 H   0  0  0  0  0  0  0  0  0  0  0  0
   -5.9301   -0.8951    0.2632 H   0  0  0  0  0  0  0  0  0  0  0  0
   -4.0119   -2.1636    0.5033 H   0  0  0  0  0  0  0  0  0  0  0  0
   -4.1792   -2.2906   -1.2993 H   0  0  0  0  0  0  0  0  0  0  0  0
   -1.6183   -2.3322    0.3985 H   0  0  0  0  0  0  0  0  0  0  0  0
   -2.3122   -3.6952   -0.5171 H   0  0  0  0  0  0  0  0  0  0  0  0
   -1.8379   -2.5715   -2.6357 H   0  0  0  0  0  0  0  0  0  0  0  0
    2.0565   -0.7642   -2.3105 H   0  0  0  0  0  0  0  0  0  0  0  0
    1.9132    0.7902   -1.4700 H   0  0  0  0  0  0  0  0  0  0  0  0
  1  2  2  0
  2  3  1  0
  3  4  2  0
  4  5  1  0
  5  6  2  0
  6  7  1  0
  7  8  2  0
  8  9  1  0
  2 10  1  0
 10 11  1  0
 11 12  1  0
 12 13  1  0
 13 14  1  0
 14 15  1  0
 15 16  1  0
 16 17  1  0
 17 18  1  0
 18 19  1  0
 19 20  2  0
 20 21  1  0
 21 22  2  0
 22 23  1  0
 23 24  2  0
 24 25  1  0
 25 26  1  0
 26 27  1  0
 27 28  1  0
 28 29  1  0
 29 30  2  0
 14 31  1  0
  8  3  1  0
 31 10  1  0
 29 14  1  0
 24 19  1  0
  4 32  1  0
  5 33  1  0
  6 34  1  0
  7 35  1  0
 11 36  1  0
 11 37  1  0
 12 38  1  0
 12 39  1  0
 15 40  1  0
 15 41  1  0
 16 42  1  0
 16 43  1  0
 17 44  1  0
 17 45  1  0
 18 46  1  0
 18 47  1  0
 20 48  1  0
 21 49  1  0
 22 50  1  0
 23 51  1  0
 26 52  1  0
 26 53  1  0
 27 54  1  0
 27 55  1  0
 28 56  1  0
 31 57  1  0
 31 58  1  0
M  END
$$$$
