
     RDKit          3D

 67 70  0  0  0  0  0  0  0  0999 V2000
    7.7492    1.2114   -2.7033 C   0  0  0  0  0  0  0  0  0  0  0  0
    6.6215    1.0241   -1.7415 C   0  0  0  0  0  0  0  0  0  0  0  0
    5.4349    1.1753   -2.1409 O   0  0  0  0  0  0  0  0  0  0  0  0
    6.9016    0.7592   -0.3581 N   0  0  0  0  0  0  0  0  0  0  0  0
    5.9162    0.3663    0.6101 C   0  0  0  0  0  0  0  0  0  0  0  0
    4.8030   -0.4154    0.2556 C   0  0  0  0  0  0  0  0  0  0  0  0
    3.8790   -0.7938    1.2401 C   0  0  0  0  0  0  0  0  0  0  0  0
    2.7005   -1.6146    0.8964 C   0  0  0  0  0  0  0  0  0  0  0  0
    2.4627   -2.6411    1.5900 O   0  0  0  0  0  0  0  0  0  0  0  0
    1.7981   -1.2398   -0.1684 N   0  0  0  0  0  0  0  0  0  0  0  0
    1.7712    0.1311   -0.6918 C   0  0  0  0  0  0  0  0  0  0  0  0
    0.4826    0.3671   -1.4817 C   0  0  0  0  0  0  0  0  0  0  0  0
   -0.6234   -0.1113   -0.7430 O   0  0  0  0  0  0  0  0  0  0  0  0
   -0.6442   -1.5317   -0.6042 C   0  0  0  0  0  0  0  0  0  0  0  0
   -1.2995   -1.8780    0.7683 C   0  0  0  0  0  0  0  0  0  0  0  0
   -0.8443   -1.0155    1.9710 C   0  0  0  0  0  0  0  0  0  0  0  0
   -1.5922    0.3259    2.1150 C   0  0  0  0  0  0  0  0  0  0  0  0
   -3.0662    0.1585    2.5307 C   0  0  0  0  0  0  0  0  0  0  0  0
   -3.9083    1.3204    2.0668 C   0  0  0  0  0  0  0  0  0  0  0  0
   -4.4132    2.2254    3.0168 C   0  0  0  0  0  0  0  0  0  0  0  0
   -5.2561    3.2659    2.6265 C   0  0  0  0  0  0  0  0  0  0  0  0
   -5.6110    3.4118    1.2869 C   0  0  0  0  0  0  0  0  0  0  0  0
   -5.1082    2.5311    0.3272 C   0  0  0  0  0  0  0  0  0  0  0  0
   -4.2349    1.4851    0.6974 C   0  0  0  0  0  0  0  0  0  0  0  0
   -3.6727    0.6171   -0.2637 O   0  0  0  0  0  0  0  0  0  0  0  0
   -3.9988    0.6450   -1.6562 C   0  0  0  0  0  0  0  0  0  0  0  0
   -3.0661   -0.2485   -2.4857 C   0  0  0  0  0  0  0  0  0  0  0  0
   -2.8819   -1.5817   -1.8961 N   0  0  0  0  0  0  0  0  0  0  0  0
   -4.0193   -2.5028   -1.8147 C   0  0  0  0  0  0  0  0  0  0  0  0
   -1.5586   -2.1141   -1.6815 C   0  0  0  0  0  0  0  0  0  0  0  0
   -1.2180   -3.1587   -2.3034 O   0  0  0  0  0  0  0  0  0  0  0  0
    0.7902   -2.1782   -0.6750 C   0  0  0  0  0  0  0  0  0  0  0  0
    4.1042   -0.4212    2.5703 C   0  0  0  0  0  0  0  0  0  0  0  0
    5.2346    0.3313    2.8913 C   0  0  0  0  0  0  0  0  0  0  0  0
    6.1063    0.7009    1.9164 N   0  0  0  0  0  0  0  0  0  0  0  0
    8.5477    0.4687   -2.4959 H   0  0  0  0  0  0  0  0  0  0  0  0
    8.1645    2.2349   -2.5920 H   0  0  0  0  0  0  0  0  0  0  0  0
    7.3953    1.0742   -3.7473 H   0  0  0  0  0  0  0  0  0  0  0  0
    7.8714    0.9430   -0.0134 H   0  0  0  0  0  0  0  0  0  0  0  0
    4.6779   -0.7652   -0.7610 H   0  0  0  0  0  0  0  0  0  0  0  0
    1.8022    0.8517    0.1554 H   0  0  0  0  0  0  0  0  0  0  0  0
    2.6432    0.3074   -1.3540 H   0  0  0  0  0  0  0  0  0  0  0  0
    0.3548    1.4566   -1.6504 H   0  0  0  0  0  0  0  0  0  0  0  0
    0.5324   -0.1185   -2.4821 H   0  0  0  0  0  0  0  0  0  0  0  0
   -2.3997   -1.8216    0.6783 H   0  0  0  0  0  0  0  0  0  0  0  0
   -1.1026   -2.9446    1.0129 H   0  0  0  0  0  0  0  0  0  0  0  0
   -0.9894   -1.5999    2.9066 H   0  0  0  0  0  0  0  0  0  0  0  0
    0.2413   -0.8078    1.8993 H   0  0  0  0  0  0  0  0  0  0  0  0
   -1.5038    0.9209    1.1877 H   0  0  0  0  0  0  0  0  0  0  0  0
   -1.0817    0.9234    2.9005 H   0  0  0  0  0  0  0  0  0  0  0  0
   -3.1089    0.0571    3.6383 H   0  0  0  0  0  0  0  0  0  0  0  0
   -3.5237   -0.7691    2.1377 H   0  0  0  0  0  0  0  0  0  0  0  0
   -4.1644    2.1188    4.0659 H   0  0  0  0  0  0  0  0  0  0  0  0
   -5.6444    3.9535    3.3667 H   0  0  0  0  0  0  0  0  0  0  0  0
   -6.2756    4.2134    0.9897 H   0  0  0  0  0  0  0  0  0  0  0  0
   -5.4055    2.6785   -0.7004 H   0  0  0  0  0  0  0  0  0  0  0  0
   -3.8912    1.6785   -2.0484 H   0  0  0  0  0  0  0  0  0  0  0  0
   -5.0530    0.3259   -1.7929 H   0  0  0  0  0  0  0  0  0  0  0  0
   -3.4936   -0.3617   -3.5058 H   0  0  0  0  0  0  0  0  0  0  0  0
   -2.0956    0.2667   -2.6229 H   0  0  0  0  0  0  0  0  0  0  0  0
   -4.9632   -2.0082   -2.1248 H   0  0  0  0  0  0  0  0  0  0  0  0
   -4.1354   -2.8636   -0.7710 H   0  0  0  0  0  0  0  0  0  0  0  0
   -3.8554   -3.3740   -2.4848 H   0  0  0  0  0  0  0  0  0  0  0  0
    0.8270   -3.1555   -0.1471 H   0  0  0  0  0  0  0  0  0  0  0  0
    1.0602   -2.4017   -1.7308 H   0  0  0  0  0  0  0  0  0  0  0  0
    3.4115   -0.7106    3.3517 H   0  0  0  0  0  0  0  0  0  0  0  0
    5.4190    0.6224    3.9166 H   0  0  0  0  0  0  0  0  0  0  0  0
  1  2  1  0
  2  3  2  0
  2  4  1  0
  4  5  1  0
  5  6  2  0
  6  7  1  0
  7  8  1  0
  8  9  2  0
  8 10  1  0
 10 11  1  0
 11 12  1  0
 12 13  1  0
 13 14  1  0
 14 15  1  0
 15 16  1  0
 16 17  1  0
 17 18  1  0
 18 19  1  0
 19 20  2  0
 20 21  1  0
 21 22  2  0
 22 23  1  0
 23 24  2  0
 24 25  1  0
 25 26  1  0
 26 27  1  0
 27 28  1  0
 28 29  1  0
 28 30  1  0
 30 31  2  0
 14 32  1  0
  7 33  2  0
 33 34  1  0
 34 35  2  0
 35  5  1  0
 32 10  1  0
 30 14  1  0
 24 19  1  0
  1 36  1  0
  1 37  1  0
  1 38  1  0
  4 39  1  0
  6 40  1  0
 11 41  1  0
 11 42  1  0
 12 43  1  0
 12 44  1  0
 15 45  1  0
 15 46  1  0
 16 47  1  0
 16 48  1  0
 17 49  1  0
 17 50  1  0
 18 51  1  0
 18 52  1  0
 20 53  1  0
 21 54  1  0
 22 55  1  0
 23 56  1  0
 26 57  1  0
 26 58  1  0
 27 59  1  0
 27 60  1  0
 29 61  1  0
 29 62  1  0
 29 63  1  0
 32 64  1  0
 32 65  1  0
 33 66  1  0
 34 67  1  0
M  END
$$$$
