
     RDKit          3D

 56 58  0  0  0  0  0  0  0  0999 V2000
   -4.3158   -1.6070   -1.2888 C   0  0  0  0  0  0  0  0  0  0  0  0
   -3.3638   -0.5227   -1.0213 N   0  0  0  0  0  0  0  0  0  0  0  0
   -2.4887   -0.0597   -2.1129 C   0  0  0  0  0  0  0  0  0  0  0  0
   -1.4936   -1.1439   -2.5778 C   0  0  0  0  0  0  0  0  0  0  0  0
   -0.3255   -1.3620   -1.6020 C   0  0  0  0  0  0  0  0  0  0  0  0
   -0.6103   -2.4494   -0.5494 C   0  0  0  0  0  0  0  0  0  0  0  0
    0.3132   -2.3099    0.5856 N   0  0  0  0  0  0  0  0  0  0  0  0
    1.7234   -2.4681    0.3595 C   0  0  0  0  0  0  0  0  0  0  0  0
    2.1464   -3.4666   -0.2836 O   0  0  0  0  0  0  0  0  0  0  0  0
    2.6929   -1.4252    0.8372 C   0  0  0  0  0  0  0  0  0  0  0  0
    3.4845   -0.8422   -0.3379 C   0  0  0  0  0  0  0  0  0  0  0  0
    4.2708    0.3585    0.1025 C   0  0  0  0  0  0  0  0  0  0  0  0
    5.5178    0.3303    0.6926 C   0  0  0  0  0  0  0  0  0  0  0  0
    5.7937    1.6546    0.9776 C   0  0  0  0  0  0  0  0  0  0  0  0
    4.7607    2.4301    0.5883 N   0  0  0  0  0  0  0  0  0  0  0  0
    3.8349    1.6357    0.0743 N   0  0  0  0  0  0  0  0  0  0  0  0
    2.5778    2.1209   -0.4855 C   0  0  0  0  0  0  0  0  0  0  0  0
   -0.1886   -2.1303    1.9589 C   0  0  0  0  0  0  0  0  0  0  0  0
   -1.1441   -0.9376    2.0718 C   0  0  0  0  0  0  0  0  0  0  0  0
   -0.6733    0.1404    1.2657 O   0  0  0  0  0  0  0  0  0  0  0  0
   -1.3622    1.3384    1.0374 C   0  0  0  0  0  0  0  0  0  0  0  0
   -0.6656    2.5318    1.2658 C   0  0  0  0  0  0  0  0  0  0  0  0
   -1.2710    3.7681    1.0358 C   0  0  0  0  0  0  0  0  0  0  0  0
   -2.5841    3.8267    0.5669 C   0  0  0  0  0  0  0  0  0  0  0  0
   -3.3454    5.3812    0.2805 Cl  0  0  0  0  0  0  0  0  0  0  0  0
   -3.2904    2.6464    0.3225 C   0  0  0  0  0  0  0  0  0  0  0  0
   -2.6906    1.3961    0.5415 C   0  0  0  0  0  0  0  0  0  0  0  0
   -3.4857    0.1943    0.2309 C   0  0  0  0  0  0  0  0  0  0  0  0
   -4.3442   -0.1726    1.0794 O   0  0  0  0  0  0  0  0  0  0  0  0
   -4.2434   -1.9677   -2.3360 H   0  0  0  0  0  0  0  0  0  0  0  0
   -5.3545   -1.2443   -1.1357 H   0  0  0  0  0  0  0  0  0  0  0  0
   -4.1211   -2.4564   -0.6019 H   0  0  0  0  0  0  0  0  0  0  0  0
   -3.1278    0.2269   -2.9762 H   0  0  0  0  0  0  0  0  0  0  0  0
   -1.9266    0.8554   -1.8345 H   0  0  0  0  0  0  0  0  0  0  0  0
   -2.0050   -2.1059   -2.7936 H   0  0  0  0  0  0  0  0  0  0  0  0
   -1.0644   -0.7971   -3.5437 H   0  0  0  0  0  0  0  0  0  0  0  0
    0.5660   -1.6800   -2.1860 H   0  0  0  0  0  0  0  0  0  0  0  0
   -0.0523   -0.4016   -1.1174 H   0  0  0  0  0  0  0  0  0  0  0  0
   -0.4867   -3.4539   -1.0098 H   0  0  0  0  0  0  0  0  0  0  0  0
   -1.6601   -2.3874   -0.2020 H   0  0  0  0  0  0  0  0  0  0  0  0
    2.1376   -0.6068    1.3447 H   0  0  0  0  0  0  0  0  0  0  0  0
    3.3892   -1.8828    1.5728 H   0  0  0  0  0  0  0  0  0  0  0  0
    4.1812   -1.6110   -0.7374 H   0  0  0  0  0  0  0  0  0  0  0  0
    2.7954   -0.5531   -1.1610 H   0  0  0  0  0  0  0  0  0  0  0  0
    6.1379   -0.5342    0.8960 H   0  0  0  0  0  0  0  0  0  0  0  0
    6.6934    2.0293    1.4475 H   0  0  0  0  0  0  0  0  0  0  0  0
    1.7439    1.4497   -0.1937 H   0  0  0  0  0  0  0  0  0  0  0  0
    2.6518    2.1546   -1.5922 H   0  0  0  0  0  0  0  0  0  0  0  0
    2.3587    3.1402   -0.1044 H   0  0  0  0  0  0  0  0  0  0  0  0
    0.6560   -1.9765    2.6655 H   0  0  0  0  0  0  0  0  0  0  0  0
   -0.7136   -3.0558    2.2794 H   0  0  0  0  0  0  0  0  0  0  0  0
   -2.1484   -1.2720    1.7629 H   0  0  0  0  0  0  0  0  0  0  0  0
   -1.2073   -0.6081    3.1309 H   0  0  0  0  0  0  0  0  0  0  0  0
    0.3514    2.4998    1.6373 H   0  0  0  0  0  0  0  0  0  0  0  0
   -0.7180    4.6796    1.2237 H   0  0  0  0  0  0  0  0  0  0  0  0
   -4.3064    2.7031   -0.0506 H   0  0  0  0  0  0  0  0  0  0  0  0
  1  2  1  0
  2  3  1  0
  3  4  1  0
  4  5  1  0
  5  6  1  0
  6  7  1  0
  7  8  1  0
  8  9  2  0
  8 10  1  0
 10 11  1  0
 11 12  1  0
 12 13  2  0
 13 14  1  0
 14 15  2  0
 15 16  1  0
 16 17  1  0
  7 18  1  0
 18 19  1  0
 19 20  1  0
 20 21  1  0
 21 22  2  0
 22 23  1  0
 23 24  2  0
 24 25  1  0
 24 26  1  0
 26 27  2  0
 27 28  1  0
 28 29  2  0
 28  2  1  0
 16 12  1  0
 27 21  1  0
  1 30  1  0
  1 31  1  0
  1 32  1  0
  3 33  1  0
  3 34  1  0
  4 35  1  0
  4 36  1  0
  5 37  1  0
  5 38  1  0
  6 39  1  0
  6 40  1  0
 10 41  1  0
 10 42  1  0
 11 43  1  0
 11 44  1  0
 13 45  1  0
 14 46  1  0
 17 47  1  0
 17 48  1  0
 17 49  1  0
 18 50  1  0
 18 51  1  0
 19 52  1  0
 19 53  1  0
 22 54  1  0
 23 55  1  0
 26 56  1  0
M  END
$$$$
