
     RDKit          3D

 62 65  0  0  0  0  0  0  0  0999 V2000
    0.3349    1.5982    2.8476 C   0  0  0  0  0  0  0  0  0  0  0  0
   -0.3501    1.7342    1.5538 N   0  0  0  0  0  0  0  0  0  0  0  0
    0.4542    1.6503    0.3176 C   0  0  0  0  0  0  0  0  0  0  0  0
    0.7732    0.2052   -0.2356 C   0  0  0  0  0  0  0  0  0  0  0  0
    1.5149    0.4440   -1.6108 C   0  0  0  0  0  0  0  0  0  0  0  0
    2.6378   -0.5616   -1.9026 C   0  0  0  0  0  0  0  0  0  0  0  0
    3.6322   -0.5504   -0.8194 N   0  0  0  0  0  0  0  0  0  0  0  0
    4.9308   -1.1238   -1.0594 C   0  0  0  0  0  0  0  0  0  0  0  0
    5.0607   -2.0238   -1.9363 O   0  0  0  0  0  0  0  0  0  0  0  0
    6.1344   -0.6644   -0.3358 C   0  0  0  0  0  0  0  0  0  0  0  0
    7.3513   -1.3119   -0.2992 C   0  0  0  0  0  0  0  0  0  0  0  0
    8.2414   -0.5507    0.3673 N   0  0  0  0  0  0  0  0  0  0  0  0
    7.5397    0.5490    0.7184 C   0  0  0  0  0  0  0  0  0  0  0  0
    6.2613    0.5130    0.2977 N   0  0  0  0  0  0  0  0  0  0  0  0
    3.1928   -0.2346    0.5497 C   0  0  0  0  0  0  0  0  0  0  0  0
    1.7161   -0.6035    0.7162 C   0  0  0  0  0  0  0  0  0  0  0  0
   -0.5220   -0.6265   -0.5644 C   0  0  0  0  0  0  0  0  0  0  0  0
   -1.3651   -1.2426    0.5950 C   0  0  0  0  0  0  0  0  0  0  0  0
   -0.5567   -2.0627    1.4018 O   0  0  0  0  0  0  0  0  0  0  0  0
   -2.5915   -2.1015    0.0892 C   0  0  0  0  0  0  0  0  0  0  0  0
   -2.6551   -2.2425   -1.3141 O   0  0  0  0  0  0  0  0  0  0  0  0
   -3.9613   -1.6846    0.7015 C   0  0  0  0  0  0  0  0  0  0  0  0
   -4.7570   -0.7291   -0.1655 C   0  0  0  0  0  0  0  0  0  0  0  0
   -5.7406   -1.2306   -1.0369 C   0  0  0  0  0  0  0  0  0  0  0  0
   -6.4004   -0.3785   -1.9254 C   0  0  0  0  0  0  0  0  0  0  0  0
   -6.0786    0.9780   -1.9617 C   0  0  0  0  0  0  0  0  0  0  0  0
   -5.0989    1.4883   -1.1082 C   0  0  0  0  0  0  0  0  0  0  0  0
   -4.4365    0.6408   -0.2020 C   0  0  0  0  0  0  0  0  0  0  0  0
   -3.4536    1.1214    0.6696 O   0  0  0  0  0  0  0  0  0  0  0  0
   -2.6363    2.2560    0.4276 C   0  0  0  0  0  0  0  0  0  0  0  0
   -1.6584    2.3678    1.5620 C   0  0  0  0  0  0  0  0  0  0  0  0
   -2.0551    2.9654    2.6008 O   0  0  0  0  0  0  0  0  0  0  0  0
    1.4297    1.4590    2.7250 H   0  0  0  0  0  0  0  0  0  0  0  0
    0.2172    2.5217    3.4547 H   0  0  0  0  0  0  0  0  0  0  0  0
   -0.0943    0.7396    3.4058 H   0  0  0  0  0  0  0  0  0  0  0  0
    1.4115    2.1840    0.5000 H   0  0  0  0  0  0  0  0  0  0  0  0
   -0.0124    2.2563   -0.4846 H   0  0  0  0  0  0  0  0  0  0  0  0
    1.9940    1.4501   -1.6378 H   0  0  0  0  0  0  0  0  0  0  0  0
    0.7998    0.4400   -2.4659 H   0  0  0  0  0  0  0  0  0  0  0  0
    3.1228   -0.2742   -2.8609 H   0  0  0  0  0  0  0  0  0  0  0  0
    2.2155   -1.5819   -2.0149 H   0  0  0  0  0  0  0  0  0  0  0  0
    7.5849   -2.2694   -0.7438 H   0  0  0  0  0  0  0  0  0  0  0  0
    7.9670    1.3816    1.2633 H   0  0  0  0  0  0  0  0  0  0  0  0
    5.5509    1.2704    0.4039 H   0  0  0  0  0  0  0  0  0  0  0  0
    3.3360    0.8455    0.7551 H   0  0  0  0  0  0  0  0  0  0  0  0
    3.7842   -0.8156    1.2909 H   0  0  0  0  0  0  0  0  0  0  0  0
    1.4193   -0.5210    1.7753 H   0  0  0  0  0  0  0  0  0  0  0  0
    1.6532   -1.6868    0.4687 H   0  0  0  0  0  0  0  0  0  0  0  0
   -1.1840    0.0306   -1.1668 H   0  0  0  0  0  0  0  0  0  0  0  0
   -0.2217   -1.4715   -1.2255 H   0  0  0  0  0  0  0  0  0  0  0  0
   -1.7209   -0.4085    1.2247 H   0  0  0  0  0  0  0  0  0  0  0  0
   -1.0600   -2.2427    2.2349 H   0  0  0  0  0  0  0  0  0  0  0  0
   -2.4224   -3.1350    0.4616 H   0  0  0  0  0  0  0  0  0  0  0  0
   -2.8571   -1.3572   -1.7106 H   0  0  0  0  0  0  0  0  0  0  0  0
   -3.8135   -1.2471    1.7151 H   0  0  0  0  0  0  0  0  0  0  0  0
   -4.5698   -2.6012    0.8713 H   0  0  0  0  0  0  0  0  0  0  0  0
   -5.9796   -2.2854   -1.0415 H   0  0  0  0  0  0  0  0  0  0  0  0
   -7.1515   -0.7712   -2.5965 H   0  0  0  0  0  0  0  0  0  0  0  0
   -6.5848    1.6351   -2.6561 H   0  0  0  0  0  0  0  0  0  0  0  0
   -4.8704    2.5443   -1.1496 H   0  0  0  0  0  0  0  0  0  0  0  0
   -2.1421    2.1471   -0.5572 H   0  0  0  0  0  0  0  0  0  0  0  0
   -3.2600    3.1749    0.3959 H   0  0  0  0  0  0  0  0  0  0  0  0
  1  2  1  0
  2  3  1  0
  3  4  1  0
  4  5  1  0
  5  6  1  0
  6  7  1  0
  7  8  1  0
  8  9  2  0
  8 10  1  0
 10 11  2  0
 11 12  1  0
 12 13  2  0
 13 14  1  0
  7 15  1  0
 15 16  1  0
  4 17  1  0
 17 18  1  0
 18 19  1  0
 18 20  1  0
 20 21  1  0
 20 22  1  0
 22 23  1  0
 23 24  2  0
 24 25  1  0
 25 26  2  0
 26 27  1  0
 27 28  2  0
 28 29  1  0
 29 30  1  0
 30 31  1  0
 31 32  2  0
 31  2  1  0
 16  4  1  0
 28 23  1  0
 14 10  1  0
  1 33  1  0
  1 34  1  0
  1 35  1  0
  3 36  1  0
  3 37  1  0
  5 38  1  0
  5 39  1  0
  6 40  1  0
  6 41  1  0
 11 42  1  0
 13 43  1  0
 14 44  1  0
 15 45  1  0
 15 46  1  0
 16 47  1  0
 16 48  1  0
 17 49  1  0
 17 50  1  0
 18 51  1  0
 19 52  1  0
 20 53  1  0
 21 54  1  0
 22 55  1  0
 22 56  1  0
 24 57  1  0
 25 58  1  0
 26 59  1  0
 27 60  1  0
 30 61  1  0
 30 62  1  0
M  END
$$$$
