
     RDKit          3D

 70 73  0  0  0  0  0  0  0  0999 V2000
    2.9707   -3.6663    0.7150 C   0  0  0  0  0  0  0  0  0  0  0  0
    2.9171   -2.2572    1.1166 N   0  0  0  0  0  0  0  0  0  0  0  0
    4.0423   -1.6802    1.8710 C   0  0  0  0  0  0  0  0  0  0  0  0
    5.2826   -1.5127    0.9837 C   0  0  0  0  0  0  0  0  0  0  0  0
    5.0409   -0.5389   -0.1414 C   0  0  0  0  0  0  0  0  0  0  0  0
    4.6054   -0.9965   -1.3971 C   0  0  0  0  0  0  0  0  0  0  0  0
    4.3896   -0.0920   -2.4413 C   0  0  0  0  0  0  0  0  0  0  0  0
    4.6123    1.2732   -2.2412 C   0  0  0  0  0  0  0  0  0  0  0  0
    5.0283    1.7392   -0.9926 C   0  0  0  0  0  0  0  0  0  0  0  0
    5.2332    0.8395    0.0581 C   0  0  0  0  0  0  0  0  0  0  0  0
    1.7492   -1.4597    0.8221 C   0  0  0  0  0  0  0  0  0  0  0  0
    1.4740   -0.4688    1.5528 O   0  0  0  0  0  0  0  0  0  0  0  0
    0.8584   -1.7801   -0.3544 C   0  0  0  0  0  0  0  0  0  0  0  0
   -0.3363   -0.9036   -0.3544 N   0  0  0  0  0  0  0  0  0  0  0  0
   -1.6299   -1.6192   -0.4277 C   0  0  0  0  0  0  0  0  0  0  0  0
   -1.9763   -2.1782   -1.8331 C   0  0  0  0  0  0  0  0  0  0  0  0
   -3.0912   -1.4051   -2.5743 C   0  0  0  0  0  0  0  0  0  0  0  0
   -4.4541   -1.3861   -1.8365 C   0  0  0  0  0  0  0  0  0  0  0  0
   -5.1204    0.0043   -1.8424 C   0  0  0  0  0  0  0  0  0  0  0  0
   -4.4772    0.9875   -0.8557 C   0  0  0  0  0  0  0  0  0  0  0  0
   -4.6975    0.5393    0.4795 O   0  0  0  0  0  0  0  0  0  0  0  0
   -4.2603    1.2063    1.6349 C   0  0  0  0  0  0  0  0  0  0  0  0
   -5.1994    1.4117    2.6517 C   0  0  0  0  0  0  0  0  0  0  0  0
   -4.8284    2.0203    3.8512 C   0  0  0  0  0  0  0  0  0  0  0  0
   -3.5060    2.4032    4.0588 C   0  0  0  0  0  0  0  0  0  0  0  0
   -2.5583    2.2131    3.0506 C   0  0  0  0  0  0  0  0  0  0  0  0
   -2.9196    1.6249    1.8202 C   0  0  0  0  0  0  0  0  0  0  0  0
   -1.9782    1.3670    0.8110 O   0  0  0  0  0  0  0  0  0  0  0  0
   -0.7452    2.0085    0.5947 C   0  0  0  0  0  0  0  0  0  0  0  0
   -0.4095    3.1387    1.2744 N   0  0  0  0  0  0  0  0  0  0  0  0
    0.7673    3.7866    1.0745 C   0  0  0  0  0  0  0  0  0  0  0  0
    1.6750    3.3044    0.1363 C   0  0  0  0  0  0  0  0  0  0  0  0
    1.3549    2.1635   -0.5993 C   0  0  0  0  0  0  0  0  0  0  0  0
    0.1408    1.4955   -0.3740 C   0  0  0  0  0  0  0  0  0  0  0  0
   -0.2329    0.2997   -1.2068 C   0  0  0  0  0  0  0  0  0  0  0  0
    2.9600   -3.7465   -0.3914 H   0  0  0  0  0  0  0  0  0  0  0  0
    2.0973   -4.2091    1.1350 H   0  0  0  0  0  0  0  0  0  0  0  0
    3.8922   -4.1570    1.0956 H   0  0  0  0  0  0  0  0  0  0  0  0
    4.2922   -2.3468    2.7271 H   0  0  0  0  0  0  0  0  0  0  0  0
    3.7759   -0.6930    2.3080 H   0  0  0  0  0  0  0  0  0  0  0  0
    6.1268   -1.1524    1.6115 H   0  0  0  0  0  0  0  0  0  0  0  0
    5.5955   -2.4981    0.5730 H   0  0  0  0  0  0  0  0  0  0  0  0
    4.4389   -2.0542   -1.5671 H   0  0  0  0  0  0  0  0  0  0  0  0
    4.0545   -0.4519   -3.4067 H   0  0  0  0  0  0  0  0  0  0  0  0
    4.4506    1.9730   -3.0532 H   0  0  0  0  0  0  0  0  0  0  0  0
    5.1868    2.7989   -0.8379 H   0  0  0  0  0  0  0  0  0  0  0  0
    5.5466    1.2163    1.0246 H   0  0  0  0  0  0  0  0  0  0  0  0
    0.5678   -2.8495   -0.2905 H   0  0  0  0  0  0  0  0  0  0  0  0
    1.4450   -1.6743   -1.2908 H   0  0  0  0  0  0  0  0  0  0  0  0
   -1.6169   -2.4673    0.2942 H   0  0  0  0  0  0  0  0  0  0  0  0
   -2.4239   -0.9490   -0.0549 H   0  0  0  0  0  0  0  0  0  0  0  0
   -2.3125   -3.2347   -1.7292 H   0  0  0  0  0  0  0  0  0  0  0  0
   -1.0670   -2.1968   -2.4726 H   0  0  0  0  0  0  0  0  0  0  0  0
   -2.7534   -0.3829   -2.8251 H   0  0  0  0  0  0  0  0  0  0  0  0
   -3.2394   -1.8962   -3.5615 H   0  0  0  0  0  0  0  0  0  0  0  0
   -4.3755   -1.7586   -0.7927 H   0  0  0  0  0  0  0  0  0  0  0  0
   -5.1374   -2.0973   -2.3534 H   0  0  0  0  0  0  0  0  0  0  0  0
   -5.0893    0.4280   -2.8695 H   0  0  0  0  0  0  0  0  0  0  0  0
   -6.1923   -0.1139   -1.5668 H   0  0  0  0  0  0  0  0  0  0  0  0
   -3.4019    1.0912   -1.0816 H   0  0  0  0  0  0  0  0  0  0  0  0
   -4.9486    1.9875   -0.9829 H   0  0  0  0  0  0  0  0  0  0  0  0
   -6.2336    1.1122    2.5076 H   0  0  0  0  0  0  0  0  0  0  0  0
   -5.5653    2.1715    4.6284 H   0  0  0  0  0  0  0  0  0  0  0  0
   -3.2096    2.8289    5.0106 H   0  0  0  0  0  0  0  0  0  0  0  0
   -1.5278    2.4430    3.2833 H   0  0  0  0  0  0  0  0  0  0  0  0
    0.9943    4.6769    1.6453 H   0  0  0  0  0  0  0  0  0  0  0  0
    2.6124    3.8184   -0.0339 H   0  0  0  0  0  0  0  0  0  0  0  0
    2.0478    1.8019   -1.3466 H   0  0  0  0  0  0  0  0  0  0  0  0
   -1.1970    0.5463   -1.6796 H   0  0  0  0  0  0  0  0  0  0  0  0
    0.4852    0.1535   -2.0458 H   0  0  0  0  0  0  0  0  0  0  0  0
  1  2  1  0
  2  3  1  0
  3  4  1  0
  4  5  1  0
  5  6  2  0
  6  7  1  0
  7  8  2  0
  8  9  1  0
  9 10  2  0
  2 11  1  0
 11 12  2  0
 11 13  1  0
 13 14  1  0
 14 15  1  0
 15 16  1  0
 16 17  1  0
 17 18  1  0
 18 19  1  0
 19 20  1  0
 20 21  1  0
 21 22  1  0
 22 23  2  0
 23 24  1  0
 24 25  2  0
 25 26  1  0
 26 27  2  0
 27 28  1  0
 28 29  1  0
 29 30  2  0
 30 31  1  0
 31 32  2  0
 32 33  1  0
 33 34  2  0
 34 35  1  0
 10  5  1  0
 35 14  1  0
 27 22  1  0
 34 29  1  0
  1 36  1  0
  1 37  1  0
  1 38  1  0
  3 39  1  0
  3 40  1  0
  4 41  1  0
  4 42  1  0
  6 43  1  0
  7 44  1  0
  8 45  1  0
  9 46  1  0
 10 47  1  0
 13 48  1  0
 13 49  1  0
 15 50  1  0
 15 51  1  0
 16 52  1  0
 16 53  1  0
 17 54  1  0
 17 55  1  0
 18 56  1  0
 18 57  1  0
 19 58  1  0
 19 59  1  0
 20 60  1  0
 20 61  1  0
 23 62  1  0
 24 63  1  0
 25 64  1  0
 26 65  1  0
 31 66  1  0
 32 67  1  0
 33 68  1  0
 35 69  1  0
 35 70  1  0
M  END
$$$$
