
     RDKit          3D

 61 64  0  0  0  0  0  0  0  0999 V2000
    3.2395    0.6446   -1.0087 O   0  0  0  0  0  0  0  0  0  0  0  0
    3.3383   -0.2823   -0.1599 C   0  0  0  0  0  0  0  0  0  0  0  0
    4.4671   -1.2716   -0.2987 C   0  0  0  0  0  0  0  0  0  0  0  0
    5.7485   -0.5810   -0.6784 C   0  0  0  0  0  0  0  0  0  0  0  0
    6.5191    0.0548    0.3061 C   0  0  0  0  0  0  0  0  0  0  0  0
    7.6968    0.7159   -0.0424 C   0  0  0  0  0  0  0  0  0  0  0  0
    8.1074    0.7611   -1.3759 C   0  0  0  0  0  0  0  0  0  0  0  0
    9.2491    1.4059   -1.7118 F   0  0  0  0  0  0  0  0  0  0  0  0
    7.3348    0.1505   -2.3638 C   0  0  0  0  0  0  0  0  0  0  0  0
    6.1594   -0.5203   -2.0191 C   0  0  0  0  0  0  0  0  0  0  0  0
    2.3172   -0.4333    0.8566 N   0  0  0  0  0  0  0  0  0  0  0  0
    2.0629   -1.7226    1.4994 C   0  0  0  0  0  0  0  0  0  0  0  0
    0.8559   -1.6249    2.4360 C   0  0  0  0  0  0  0  0  0  0  0  0
   -0.2710   -1.0818    1.7723 O   0  0  0  0  0  0  0  0  0  0  0  0
   -0.0544    0.1868    1.1437 C   0  0  0  0  0  0  0  0  0  0  0  0
   -0.9619    1.2411    1.8359 C   0  0  0  0  0  0  0  0  0  0  0  0
   -2.4205    0.7626    2.0589 C   0  0  0  0  0  0  0  0  0  0  0  0
   -3.4511    1.8857    1.8489 C   0  0  0  0  0  0  0  0  0  0  0  0
   -3.7015    2.2067    0.3609 C   0  0  0  0  0  0  0  0  0  0  0  0
   -4.8447    1.4073   -0.2258 C   0  0  0  0  0  0  0  0  0  0  0  0
   -6.1547    1.9026   -0.1055 C   0  0  0  0  0  0  0  0  0  0  0  0
   -7.2295    1.2099   -0.6671 C   0  0  0  0  0  0  0  0  0  0  0  0
   -7.0091    0.0255   -1.3686 C   0  0  0  0  0  0  0  0  0  0  0  0
   -5.7159   -0.4862   -1.4847 C   0  0  0  0  0  0  0  0  0  0  0  0
   -4.6253    0.1807   -0.8909 C   0  0  0  0  0  0  0  0  0  0  0  0
   -3.3287   -0.3510   -0.9226 O   0  0  0  0  0  0  0  0  0  0  0  0
   -2.9755   -1.6556   -1.3801 C   0  0  0  0  0  0  0  0  0  0  0  0
   -1.6797   -2.1066   -0.7050 C   0  0  0  0  0  0  0  0  0  0  0  0
   -0.5791   -1.1848   -0.9932 N   0  0  0  0  0  0  0  0  0  0  0  0
   -0.4299    0.0796   -0.3302 C   0  0  0  0  0  0  0  0  0  0  0  0
   -0.4688    1.1281   -1.0314 O   0  0  0  0  0  0  0  0  0  0  0  0
    1.4260    0.6785    1.2019 C   0  0  0  0  0  0  0  0  0  0  0  0
    4.6396   -1.8152    0.6514 H   0  0  0  0  0  0  0  0  0  0  0  0
    4.1908   -2.0274   -1.0617 H   0  0  0  0  0  0  0  0  0  0  0  0
    6.2049    0.0384    1.3409 H   0  0  0  0  0  0  0  0  0  0  0  0
    8.2877    1.1970    0.7229 H   0  0  0  0  0  0  0  0  0  0  0  0
    7.6439    0.1989   -3.3982 H   0  0  0  0  0  0  0  0  0  0  0  0
    5.5720   -0.9879   -2.7973 H   0  0  0  0  0  0  0  0  0  0  0  0
    1.8537   -2.4811    0.7234 H   0  0  0  0  0  0  0  0  0  0  0  0
    2.9408   -2.0361    2.0899 H   0  0  0  0  0  0  0  0  0  0  0  0
    0.5977   -2.6481    2.7904 H   0  0  0  0  0  0  0  0  0  0  0  0
    1.1043   -1.0171    3.3386 H   0  0  0  0  0  0  0  0  0  0  0  0
   -0.5363    1.4931    2.8352 H   0  0  0  0  0  0  0  0  0  0  0  0
   -0.9359    2.1886    1.2516 H   0  0  0  0  0  0  0  0  0  0  0  0
   -2.6783   -0.1012    1.4193 H   0  0  0  0  0  0  0  0  0  0  0  0
   -2.5088    0.4020    3.1079 H   0  0  0  0  0  0  0  0  0  0  0  0
   -3.0924    2.8056    2.3623 H   0  0  0  0  0  0  0  0  0  0  0  0
   -4.4075    1.5989    2.3392 H   0  0  0  0  0  0  0  0  0  0  0  0
   -3.9412    3.2914    0.2681 H   0  0  0  0  0  0  0  0  0  0  0  0
   -2.7835    2.0598   -0.2447 H   0  0  0  0  0  0  0  0  0  0  0  0
   -6.3463    2.8266    0.4233 H   0  0  0  0  0  0  0  0  0  0  0  0
   -8.2330    1.6033   -0.5710 H   0  0  0  0  0  0  0  0  0  0  0  0
   -7.8401   -0.4961   -1.8228 H   0  0  0  0  0  0  0  0  0  0  0  0
   -5.5740   -1.3927   -2.0537 H   0  0  0  0  0  0  0  0  0  0  0  0
   -3.7617   -2.3929   -1.1079 H   0  0  0  0  0  0  0  0  0  0  0  0
   -2.8543   -1.6413   -2.4850 H   0  0  0  0  0  0  0  0  0  0  0  0
   -1.8527   -2.2013    0.3860 H   0  0  0  0  0  0  0  0  0  0  0  0
   -1.4105   -3.1168   -1.0821 H   0  0  0  0  0  0  0  0  0  0  0  0
   -0.1640   -1.2547   -1.9511 H   0  0  0  0  0  0  0  0  0  0  0  0
    1.6835    1.0241    2.2266 H   0  0  0  0  0  0  0  0  0  0  0  0
    1.5806    1.5562    0.5365 H   0  0  0  0  0  0  0  0  0  0  0  0
  1  2  2  0
  2  3  1  0
  3  4  1  0
  4  5  2  0
  5  6  1  0
  6  7  2  0
  7  8  1  0
  7  9  1  0
  9 10  2  0
  2 11  1  0
 11 12  1  0
 12 13  1  0
 13 14  1  0
 14 15  1  0
 15 16  1  0
 16 17  1  0
 17 18  1  0
 18 19  1  0
 19 20  1  0
 20 21  2  0
 21 22  1  0
 22 23  2  0
 23 24  1  0
 24 25  2  0
 25 26  1  0
 26 27  1  0
 27 28  1  0
 28 29  1  0
 29 30  1  0
 30 31  2  0
 15 32  1  0
 10  4  1  0
 32 11  1  0
 30 15  1  0
 25 20  1  0
  3 33  1  0
  3 34  1  0
  5 35  1  0
  6 36  1  0
  9 37  1  0
 10 38  1  0
 12 39  1  0
 12 40  1  0
 13 41  1  0
 13 42  1  0
 16 43  1  0
 16 44  1  0
 17 45  1  0
 17 46  1  0
 18 47  1  0
 18 48  1  0
 19 49  1  0
 19 50  1  0
 21 51  1  0
 22 52  1  0
 23 53  1  0
 24 54  1  0
 27 55  1  0
 27 56  1  0
 28 57  1  0
 28 58  1  0
 29 59  1  0
 32 60  1  0
 32 61  1  0
M  END
$$$$
