
     RDKit          3D

 69 72  0  0  0  0  0  0  0  0999 V2000
   -1.6064    4.3411    2.2200 C   0  0  0  0  0  0  0  0  0  0  0  0
   -2.5078    3.5579    1.2657 C   0  0  0  0  0  0  0  0  0  0  0  0
   -2.1466    3.7836   -0.2124 C   0  0  0  0  0  0  0  0  0  0  0  0
   -0.8355    3.1036   -0.6464 C   0  0  0  0  0  0  0  0  0  0  0  0
   -0.9371    1.6351   -0.6229 N   0  0  0  0  0  0  0  0  0  0  0  0
   -1.8219    0.9661   -1.5977 C   0  0  0  0  0  0  0  0  0  0  0  0
   -3.0850    0.4041   -0.9278 C   0  0  0  0  0  0  0  0  0  0  0  0
   -3.1833   -0.9938   -1.1925 O   0  0  0  0  0  0  0  0  0  0  0  0
   -3.9111   -1.8920   -0.3993 C   0  0  0  0  0  0  0  0  0  0  0  0
   -5.0272   -1.4651    0.3440 C   0  0  0  0  0  0  0  0  0  0  0  0
   -5.7244   -2.3658    1.1503 C   0  0  0  0  0  0  0  0  0  0  0  0
   -5.3188   -3.6987    1.2234 C   0  0  0  0  0  0  0  0  0  0  0  0
   -4.2202   -4.1373    0.4844 C   0  0  0  0  0  0  0  0  0  0  0  0
   -3.5063   -3.2436   -0.3328 C   0  0  0  0  0  0  0  0  0  0  0  0
   -2.2979   -3.7479   -1.0915 C   0  0  0  0  0  0  0  0  0  0  0  0
   -1.0623   -3.9559   -0.1797 C   0  0  0  0  0  0  0  0  0  0  0  0
    0.0396   -2.8979   -0.3843 C   0  0  0  0  0  0  0  0  0  0  0  0
   -0.2624   -1.5865    0.3680 C   0  0  0  0  0  0  0  0  0  0  0  0
    0.6359   -0.3780   -0.0342 C   0  0  0  0  0  0  0  0  0  0  0  0
    1.9790   -0.4910    0.7486 C   0  0  0  0  0  0  0  0  0  0  0  0
    3.0193    0.3523    0.1597 N   0  0  0  0  0  0  0  0  0  0  0  0
    4.3315    0.3605    0.7456 C   0  0  0  0  0  0  0  0  0  0  0  0
    4.4478    0.3602    2.0010 O   0  0  0  0  0  0  0  0  0  0  0  0
    5.5412    0.3028   -0.1006 C   0  0  0  0  0  0  0  0  0  0  0  0
    5.5170    0.0432   -1.4229 N   0  0  0  0  0  0  0  0  0  0  0  0
    6.8206    0.0458   -1.7739 C   0  0  0  0  0  0  0  0  0  0  0  0
    7.6174    0.2807   -0.7552 O   0  0  0  0  0  0  0  0  0  0  0  0
    6.8578    0.4431    0.2987 C   0  0  0  0  0  0  0  0  0  0  0  0
    7.3773    0.7222    1.6715 C   0  0  0  0  0  0  0  0  0  0  0  0
    2.6596    1.2959   -0.8961 C   0  0  0  0  0  0  0  0  0  0  0  0
    1.7441    0.6140   -1.9273 C   0  0  0  0  0  0  0  0  0  0  0  0
    0.9131   -0.4341   -1.4302 O   0  0  0  0  0  0  0  0  0  0  0  0
   -0.1349    0.8989    0.3337 C   0  0  0  0  0  0  0  0  0  0  0  0
   -0.0743    1.3203    1.5214 O   0  0  0  0  0  0  0  0  0  0  0  0
   -1.6143    5.4211    1.9613 H   0  0  0  0  0  0  0  0  0  0  0  0
   -0.5654    3.9608    2.1838 H   0  0  0  0  0  0  0  0  0  0  0  0
   -1.9818    4.2270    3.2592 H   0  0  0  0  0  0  0  0  0  0  0  0
   -3.5541    3.8984    1.4238 H   0  0  0  0  0  0  0  0  0  0  0  0
   -2.4740    2.4784    1.5179 H   0  0  0  0  0  0  0  0  0  0  0  0
   -2.0662    4.8753   -0.4083 H   0  0  0  0  0  0  0  0  0  0  0  0
   -2.9798    3.4108   -0.8442 H   0  0  0  0  0  0  0  0  0  0  0  0
    0.0046    3.4559   -0.0112 H   0  0  0  0  0  0  0  0  0  0  0  0
   -0.5917    3.4289   -1.6806 H   0  0  0  0  0  0  0  0  0  0  0  0
   -2.1320    1.6852   -2.3872 H   0  0  0  0  0  0  0  0  0  0  0  0
   -1.2801    0.1657   -2.1364 H   0  0  0  0  0  0  0  0  0  0  0  0
   -3.0414    0.5716    0.1698 H   0  0  0  0  0  0  0  0  0  0  0  0
   -3.9886    0.9162   -1.3209 H   0  0  0  0  0  0  0  0  0  0  0  0
   -5.3616   -0.4377    0.2952 H   0  0  0  0  0  0  0  0  0  0  0  0
   -6.5830   -2.0304    1.7178 H   0  0  0  0  0  0  0  0  0  0  0  0
   -5.8610   -4.3955    1.8500 H   0  0  0  0  0  0  0  0  0  0  0  0
   -3.9181   -5.1753    0.5556 H   0  0  0  0  0  0  0  0  0  0  0  0
   -2.0621   -3.0846   -1.9499 H   0  0  0  0  0  0  0  0  0  0  0  0
   -2.5685   -4.7254   -1.5474 H   0  0  0  0  0  0  0  0  0  0  0  0
   -1.3517   -4.0051    0.8938 H   0  0  0  0  0  0  0  0  0  0  0  0
   -0.6195   -4.9463   -0.4274 H   0  0  0  0  0  0  0  0  0  0  0  0
    0.9974   -3.3125   -0.0063 H   0  0  0  0  0  0  0  0  0  0  0  0
    0.1675   -2.7214   -1.4722 H   0  0  0  0  0  0  0  0  0  0  0  0
   -0.1801   -1.7722    1.4622 H   0  0  0  0  0  0  0  0  0  0  0  0
   -1.3154   -1.3314    0.2063 H   0  0  0  0  0  0  0  0  0  0  0  0
    1.8417   -0.2307    1.8201 H   0  0  0  0  0  0  0  0  0  0  0  0
    2.3413   -1.5402    0.7156 H   0  0  0  0  0  0  0  0  0  0  0  0
    7.1691   -0.1286   -2.7830 H   0  0  0  0  0  0  0  0  0  0  0  0
    6.9485    1.6732    2.0513 H   0  0  0  0  0  0  0  0  0  0  0  0
    8.4843    0.8114    1.6457 H   0  0  0  0  0  0  0  0  0  0  0  0
    7.1021   -0.1108    2.3527 H   0  0  0  0  0  0  0  0  0  0  0  0
    3.5564    1.7036   -1.4080 H   0  0  0  0  0  0  0  0  0  0  0  0
    2.1370    2.1628   -0.4399 H   0  0  0  0  0  0  0  0  0  0  0  0
    2.3891    0.1772   -2.7186 H   0  0  0  0  0  0  0  0  0  0  0  0
    1.1139    1.3808   -2.4244 H   0  0  0  0  0  0  0  0  0  0  0  0
  1  2  1  0
  2  3  1  0
  3  4  1  0
  4  5  1  0
  5  6  1  0
  6  7  1  0
  7  8  1  0
  8  9  1  0
  9 10  2  0
 10 11  1  0
 11 12  2  0
 12 13  1  0
 13 14  2  0
 14 15  1  0
 15 16  1  0
 16 17  1  0
 17 18  1  0
 18 19  1  0
 19 20  1  0
 20 21  1  0
 21 22  1  0
 22 23  2  0
 22 24  1  0
 24 25  1  0
 25 26  2  0
 26 27  1  0
 27 28  1  0
 28 29  1  0
 21 30  1  0
 30 31  1  0
 31 32  1  0
 19 33  1  0
 33 34  2  0
 33  5  1  0
 14  9  1  0
 32 19  1  0
 28 24  2  0
  1 35  1  0
  1 36  1  0
  1 37  1  0
  2 38  1  0
  2 39  1  0
  3 40  1  0
  3 41  1  0
  4 42  1  0
  4 43  1  0
  6 44  1  0
  6 45  1  0
  7 46  1  0
  7 47  1  0
 10 48  1  0
 11 49  1  0
 12 50  1  0
 13 51  1  0
 15 52  1  0
 15 53  1  0
 16 54  1  0
 16 55  1  0
 17 56  1  0
 17 57  1  0
 18 58  1  0
 18 59  1  0
 20 60  1  0
 20 61  1  0
 26 62  1  0
 29 63  1  0
 29 64  1  0
 29 65  1  0
 30 66  1  0
 30 67  1  0
 31 68  1  0
 31 69  1  0
M  END
$$$$
