
     RDKit          3D

 71 73  0  0  0  0  0  0  0  0999 V2000
   -4.7807    3.5949    1.4569 C   0  0  0  0  0  0  0  0  0  0  0  0
   -3.5642    2.6572    1.4591 C   0  0  0  0  0  0  0  0  0  0  0  0
   -2.4848    3.2669    0.7995 O   0  0  0  0  0  0  0  0  0  0  0  0
   -3.8987    1.2832    0.8187 C   0  0  0  0  0  0  0  0  0  0  0  0
   -2.8582    0.2843    1.1184 N   0  0  0  0  0  0  0  0  0  0  0  0
   -1.4421    0.4790    0.9664 C   0  0  0  0  0  0  0  0  0  0  0  0
   -0.6956    0.2885    1.9632 O   0  0  0  0  0  0  0  0  0  0  0  0
   -0.8266    0.8960   -0.3431 C   0  0  0  0  0  0  0  0  0  0  0  0
    0.1724   -0.1212   -0.9433 C   0  0  0  0  0  0  0  0  0  0  0  0
    1.4940   -0.1428   -0.2004 C   0  0  0  0  0  0  0  0  0  0  0  0
    1.6015   -0.7513    0.8997 O   0  0  0  0  0  0  0  0  0  0  0  0
    2.6169    0.5857   -0.7197 N   0  0  0  0  0  0  0  0  0  0  0  0
    3.9436    0.5047   -0.1135 C   0  0  0  0  0  0  0  0  0  0  0  0
    4.6217   -0.8176   -0.4941 C   0  0  0  0  0  0  0  0  0  0  0  0
    5.9220   -1.0470    0.2848 C   0  0  0  0  0  0  0  0  0  0  0  0
    6.8918    0.0114    0.0170 N   0  0  0  0  0  0  0  0  0  0  0  0
    7.2071    1.0227    0.8481 C   0  0  0  0  0  0  0  0  0  0  0  0
    8.1263    1.8331    0.2184 C   0  0  0  0  0  0  0  0  0  0  0  0
    8.3329    1.2306   -1.0101 C   0  0  0  0  0  0  0  0  0  0  0  0
    9.1925    1.7589   -2.1143 C   0  0  0  0  0  0  0  0  0  0  0  0
   10.2957    2.4070   -1.5887 F   0  0  0  0  0  0  0  0  0  0  0  0
    8.4610    2.6487   -2.8790 F   0  0  0  0  0  0  0  0  0  0  0  0
    9.6237    0.7165   -2.9156 F   0  0  0  0  0  0  0  0  0  0  0  0
    7.5580    0.1338   -1.1197 N   0  0  0  0  0  0  0  0  0  0  0  0
   -0.4201   -1.4605   -1.1286 N   0  0  0  0  0  0  0  0  0  0  0  0
   -0.3404   -2.5239   -0.1725 C   0  0  0  0  0  0  0  0  0  0  0  0
    0.7098   -3.2168   -0.1142 O   0  0  0  0  0  0  0  0  0  0  0  0
   -1.4466   -2.8169    0.7615 C   0  0  0  0  0  0  0  0  0  0  0  0
   -1.1359   -2.9989    2.1207 C   0  0  0  0  0  0  0  0  0  0  0  0
   -2.1315   -3.3358    3.0394 C   0  0  0  0  0  0  0  0  0  0  0  0
   -3.4437   -3.5283    2.6096 C   0  0  0  0  0  0  0  0  0  0  0  0
   -3.7639   -3.3728    1.2614 C   0  0  0  0  0  0  0  0  0  0  0  0
   -2.7845   -2.9927    0.3320 C   0  0  0  0  0  0  0  0  0  0  0  0
   -3.1540   -2.8560   -1.0103 O   0  0  0  0  0  0  0  0  0  0  0  0
   -3.5925   -1.6197   -1.5765 C   0  0  0  0  0  0  0  0  0  0  0  0
   -4.8830   -1.0913   -0.9356 C   0  0  0  0  0  0  0  0  0  0  0  0
   -5.0636    0.3255   -1.2762 N   0  0  0  0  0  0  0  0  0  0  0  0
   -5.8576    0.6682   -2.4585 C   0  0  0  0  0  0  0  0  0  0  0  0
   -4.2343    1.3379   -0.6626 C   0  0  0  0  0  0  0  0  0  0  0  0
   -3.8166    2.2989   -1.3660 O   0  0  0  0  0  0  0  0  0  0  0  0
   -4.5293    4.5397    1.9830 H   0  0  0  0  0  0  0  0  0  0  0  0
   -5.6339    3.1204    1.9865 H   0  0  0  0  0  0  0  0  0  0  0  0
   -5.0923    3.8391    0.4200 H   0  0  0  0  0  0  0  0  0  0  0  0
   -3.2862    2.4712    2.5235 H   0  0  0  0  0  0  0  0  0  0  0  0
   -2.1814    4.0182    1.3739 H   0  0  0  0  0  0  0  0  0  0  0  0
   -4.8301    0.9366    1.3220 H   0  0  0  0  0  0  0  0  0  0  0  0
   -3.1377   -0.4743    1.7803 H   0  0  0  0  0  0  0  0  0  0  0  0
   -0.3090    1.8686   -0.1937 H   0  0  0  0  0  0  0  0  0  0  0  0
   -1.6175    1.0784   -1.0933 H   0  0  0  0  0  0  0  0  0  0  0  0
    0.3957    0.2642   -1.9630 H   0  0  0  0  0  0  0  0  0  0  0  0
    2.4803    1.2292   -1.5326 H   0  0  0  0  0  0  0  0  0  0  0  0
    4.5613    1.3507   -0.4839 H   0  0  0  0  0  0  0  0  0  0  0  0
    3.8588    0.6010    0.9911 H   0  0  0  0  0  0  0  0  0  0  0  0
    4.8343   -0.8213   -1.5855 H   0  0  0  0  0  0  0  0  0  0  0  0
    3.9359   -1.6653   -0.2797 H   0  0  0  0  0  0  0  0  0  0  0  0
    5.7052   -1.1049    1.3744 H   0  0  0  0  0  0  0  0  0  0  0  0
    6.3578   -2.0221   -0.0191 H   0  0  0  0  0  0  0  0  0  0  0  0
    6.7858    1.1719    1.8348 H   0  0  0  0  0  0  0  0  0  0  0  0
    8.5709    2.7429    0.5979 H   0  0  0  0  0  0  0  0  0  0  0  0
   -0.6480   -1.7468   -2.1074 H   0  0  0  0  0  0  0  0  0  0  0  0
   -0.1204   -2.8703    2.4735 H   0  0  0  0  0  0  0  0  0  0  0  0
   -1.8832   -3.4588    4.0844 H   0  0  0  0  0  0  0  0  0  0  0  0
   -4.2102   -3.8060    3.3211 H   0  0  0  0  0  0  0  0  0  0  0  0
   -4.7809   -3.5432    0.9340 H   0  0  0  0  0  0  0  0  0  0  0  0
   -3.7647   -1.7680   -2.6636 H   0  0  0  0  0  0  0  0  0  0  0  0
   -2.7981   -0.8647   -1.4729 H   0  0  0  0  0  0  0  0  0  0  0  0
   -4.8677   -1.2021    0.1650 H   0  0  0  0  0  0  0  0  0  0  0  0
   -5.7421   -1.6961   -1.3015 H   0  0  0  0  0  0  0  0  0  0  0  0
   -6.1741    1.7326   -2.4230 H   0  0  0  0  0  0  0  0  0  0  0  0
   -6.7751    0.0447   -2.5024 H   0  0  0  0  0  0  0  0  0  0  0  0
   -5.2564    0.4943   -3.3763 H   0  0  0  0  0  0  0  0  0  0  0  0
  1  2  1  0
  2  3  1  0
  2  4  1  0
  4  5  1  0
  5  6  1  0
  6  7  2  0
  6  8  1  0
  8  9  1  0
  9 10  1  0
 10 11  2  0
 10 12  1  0
 12 13  1  0
 13 14  1  0
 14 15  1  0
 15 16  1  0
 16 17  1  0
 17 18  2  0
 18 19  1  0
 19 20  1  0
 20 21  1  0
 20 22  1  0
 20 23  1  0
 19 24  2  0
  9 25  1  0
 25 26  1  0
 26 27  2  0
 26 28  1  0
 28 29  2  0
 29 30  1  0
 30 31  2  0
 31 32  1  0
 32 33  2  0
 33 34  1  0
 34 35  1  0
 35 36  1  0
 36 37  1  0
 37 38  1  0
 37 39  1  0
 39 40  2  0
 39  4  1  0
 24 16  1  0
 33 28  1  0
  1 41  1  0
  1 42  1  0
  1 43  1  0
  2 44  1  0
  3 45  1  0
  4 46  1  0
  5 47  1  0
  8 48  1  0
  8 49  1  0
  9 50  1  0
 12 51  1  0
 13 52  1  0
 13 53  1  0
 14 54  1  0
 14 55  1  0
 15 56  1  0
 15 57  1  0
 17 58  1  0
 18 59  1  0
 25 60  1  0
 29 61  1  0
 30 62  1  0
 31 63  1  0
 32 64  1  0
 35 65  1  0
 35 66  1  0
 36 67  1  0
 36 68  1  0
 38 69  1  0
 38 70  1  0
 38 71  1  0
M  END
$$$$
