
     RDKit          3D

 67 70  0  0  0  0  0  0  0  0999 V2000
   -2.0198    3.9533    1.8775 C   0  0  0  0  0  0  0  0  0  0  0  0
   -1.9235    2.6358    1.2382 N   0  0  0  0  0  0  0  0  0  0  0  0
   -3.1614    1.8751    0.9834 C   0  0  0  0  0  0  0  0  0  0  0  0
   -3.7061    2.1411   -0.4318 C   0  0  0  0  0  0  0  0  0  0  0  0
   -3.7926    0.9245   -1.1768 O   0  0  0  0  0  0  0  0  0  0  0  0
   -4.6573   -0.1435   -0.8905 C   0  0  0  0  0  0  0  0  0  0  0  0
   -5.9217    0.0679   -0.3114 C   0  0  0  0  0  0  0  0  0  0  0  0
   -6.7677   -1.0122   -0.0513 C   0  0  0  0  0  0  0  0  0  0  0  0
   -6.3592   -2.3113   -0.3548 C   0  0  0  0  0  0  0  0  0  0  0  0
   -5.1013   -2.5366   -0.9173 C   0  0  0  0  0  0  0  0  0  0  0  0
   -4.2459   -1.4591   -1.1999 C   0  0  0  0  0  0  0  0  0  0  0  0
   -2.8439   -1.7308   -1.6952 C   0  0  0  0  0  0  0  0  0  0  0  0
   -1.8702   -1.9120   -0.5091 C   0  0  0  0  0  0  0  0  0  0  0  0
   -0.4667   -1.3361   -0.7836 C   0  0  0  0  0  0  0  0  0  0  0  0
   -0.4261    0.2088   -0.7299 C   0  0  0  0  0  0  0  0  0  0  0  0
   -0.1336    0.8192    0.6767 C   0  0  0  0  0  0  0  0  0  0  0  0
    1.4194    0.8209    0.9258 C   0  0  0  0  0  0  0  0  0  0  0  0
    1.8274   -0.4008    1.6333 N   0  0  0  0  0  0  0  0  0  0  0  0
    3.0011   -1.1613    1.2720 C   0  0  0  0  0  0  0  0  0  0  0  0
    3.4417   -2.0328    2.0726 O   0  0  0  0  0  0  0  0  0  0  0  0
    3.7129   -0.9310   -0.0399 C   0  0  0  0  0  0  0  0  0  0  0  0
    4.8043   -1.9757   -0.3263 C   0  0  0  0  0  0  0  0  0  0  0  0
    5.4620   -1.7574   -1.6942 C   0  0  0  0  0  0  0  0  0  0  0  0
    6.1994   -0.4967   -1.7255 N   0  0  0  0  0  0  0  0  0  0  0  0
    5.7941    0.6447   -2.3127 C   0  0  0  0  0  0  0  0  0  0  0  0
    6.7478    1.6117   -2.0794 C   0  0  0  0  0  0  0  0  0  0  0  0
    7.7184    0.9757   -1.3286 C   0  0  0  0  0  0  0  0  0  0  0  0
    7.3616   -0.3068   -1.1222 N   0  0  0  0  0  0  0  0  0  0  0  0
    1.0690   -0.7761    2.8310 C   0  0  0  0  0  0  0  0  0  0  0  0
   -0.2116    0.0529    2.9234 C   0  0  0  0  0  0  0  0  0  0  0  0
   -0.8474    0.0684    1.6623 O   0  0  0  0  0  0  0  0  0  0  0  0
   -0.6503    2.2563    0.6639 C   0  0  0  0  0  0  0  0  0  0  0  0
    0.0512    3.1446    0.1052 O   0  0  0  0  0  0  0  0  0  0  0  0
   -1.7647    4.7492    1.1449 H   0  0  0  0  0  0  0  0  0  0  0  0
   -3.0443    4.1523    2.2564 H   0  0  0  0  0  0  0  0  0  0  0  0
   -1.3133    4.0055    2.7343 H   0  0  0  0  0  0  0  0  0  0  0  0
   -3.0016    0.7938    1.1385 H   0  0  0  0  0  0  0  0  0  0  0  0
   -3.9428    2.1508    1.7249 H   0  0  0  0  0  0  0  0  0  0  0  0
   -3.0272    2.8283   -0.9806 H   0  0  0  0  0  0  0  0  0  0  0  0
   -4.6936    2.6452   -0.3878 H   0  0  0  0  0  0  0  0  0  0  0  0
   -6.2664    1.0636   -0.0741 H   0  0  0  0  0  0  0  0  0  0  0  0
   -7.7418   -0.8429    0.3906 H   0  0  0  0  0  0  0  0  0  0  0  0
   -7.0137   -3.1467   -0.1418 H   0  0  0  0  0  0  0  0  0  0  0  0
   -4.7864   -3.5524   -1.1207 H   0  0  0  0  0  0  0  0  0  0  0  0
   -2.5228   -0.9100   -2.3708 H   0  0  0  0  0  0  0  0  0  0  0  0
   -2.8324   -2.6511   -2.3198 H   0  0  0  0  0  0  0  0  0  0  0  0
   -1.7711   -3.0004   -0.3022 H   0  0  0  0  0  0  0  0  0  0  0  0
   -2.2849   -1.4591    0.4150 H   0  0  0  0  0  0  0  0  0  0  0  0
    0.2532   -1.7621   -0.0542 H   0  0  0  0  0  0  0  0  0  0  0  0
   -0.1349   -1.6747   -1.7897 H   0  0  0  0  0  0  0  0  0  0  0  0
    0.3331    0.5641   -1.4609 H   0  0  0  0  0  0  0  0  0  0  0  0
   -1.3777    0.6076   -1.1227 H   0  0  0  0  0  0  0  0  0  0  0  0
    1.9789    0.9732   -0.0176 H   0  0  0  0  0  0  0  0  0  0  0  0
    1.6994    1.6828    1.5720 H   0  0  0  0  0  0  0  0  0  0  0  0
    2.9646   -0.9671   -0.8614 H   0  0  0  0  0  0  0  0  0  0  0  0
    4.1723    0.0797   -0.0132 H   0  0  0  0  0  0  0  0  0  0  0  0
    5.5838   -1.9341    0.4664 H   0  0  0  0  0  0  0  0  0  0  0  0
    4.3506   -2.9912   -0.3147 H   0  0  0  0  0  0  0  0  0  0  0  0
    4.6908   -1.7741   -2.4956 H   0  0  0  0  0  0  0  0  0  0  0  0
    6.1674   -2.5929   -1.8925 H   0  0  0  0  0  0  0  0  0  0  0  0
    4.8685    0.7689   -2.8595 H   0  0  0  0  0  0  0  0  0  0  0  0
    6.7357    2.6434   -2.4051 H   0  0  0  0  0  0  0  0  0  0  0  0
    8.6273    1.4232   -0.9497 H   0  0  0  0  0  0  0  0  0  0  0  0
    0.7925   -1.8513    2.7672 H   0  0  0  0  0  0  0  0  0  0  0  0
    1.6878   -0.6149    3.7396 H   0  0  0  0  0  0  0  0  0  0  0  0
   -0.8943   -0.4139    3.6639 H   0  0  0  0  0  0  0  0  0  0  0  0
    0.0037    1.0865    3.2771 H   0  0  0  0  0  0  0  0  0  0  0  0
  1  2  1  0
  2  3  1  0
  3  4  1  0
  4  5  1  0
  5  6  1  0
  6  7  2  0
  7  8  1  0
  8  9  2  0
  9 10  1  0
 10 11  2  0
 11 12  1  0
 12 13  1  0
 13 14  1  0
 14 15  1  0
 15 16  1  0
 16 17  1  0
 17 18  1  0
 18 19  1  0
 19 20  2  0
 19 21  1  0
 21 22  1  0
 22 23  1  0
 23 24  1  0
 24 25  1  0
 25 26  2  0
 26 27  1  0
 27 28  2  0
 18 29  1  0
 29 30  1  0
 30 31  1  0
 16 32  1  0
 32 33  2  0
 32  2  1  0
 11  6  1  0
 31 16  1  0
 28 24  1  0
  1 34  1  0
  1 35  1  0
  1 36  1  0
  3 37  1  0
  3 38  1  0
  4 39  1  0
  4 40  1  0
  7 41  1  0
  8 42  1  0
  9 43  1  0
 10 44  1  0
 12 45  1  0
 12 46  1  0
 13 47  1  0
 13 48  1  0
 14 49  1  0
 14 50  1  0
 15 51  1  0
 15 52  1  0
 17 53  1  0
 17 54  1  0
 21 55  1  0
 21 56  1  0
 22 57  1  0
 22 58  1  0
 23 59  1  0
 23 60  1  0
 25 61  1  0
 26 62  1  0
 27 63  1  0
 29 64  1  0
 29 65  1  0
 30 66  1  0
 30 67  1  0
M  END
$$$$
