
     RDKit          3D

 64 67  0  0  0  0  0  0  0  0999 V2000
   -5.7118   -1.7124   -0.3665 C   0  0  0  0  0  0  0  0  0  0  0  0
   -5.8720   -0.2363   -0.1910 C   0  0  0  0  0  0  0  0  0  0  0  0
   -7.0309    0.4068   -0.4333 N   0  0  0  0  0  0  0  0  0  0  0  0
   -6.8442    1.6851   -0.1450 N   0  0  0  0  0  0  0  0  0  0  0  0
   -7.8539    2.7163   -0.3371 C   0  0  0  0  0  0  0  0  0  0  0  0
   -5.5779    1.8913    0.2590 C   0  0  0  0  0  0  0  0  0  0  0  0
   -4.9151    0.6809    0.2331 C   0  0  0  0  0  0  0  0  0  0  0  0
   -3.5137    0.4565    0.6386 C   0  0  0  0  0  0  0  0  0  0  0  0
   -3.0076    1.2191    1.5049 O   0  0  0  0  0  0  0  0  0  0  0  0
   -2.7116   -0.5878    0.0562 N   0  0  0  0  0  0  0  0  0  0  0  0
   -2.7063   -0.8340   -1.3816 C   0  0  0  0  0  0  0  0  0  0  0  0
   -1.3086   -0.5385   -1.9114 C   0  0  0  0  0  0  0  0  0  0  0  0
   -0.3160   -1.2775   -1.2130 O   0  0  0  0  0  0  0  0  0  0  0  0
   -0.2638   -1.0038    0.1874 C   0  0  0  0  0  0  0  0  0  0  0  0
    0.1982    0.4567    0.4807 C   0  0  0  0  0  0  0  0  0  0  0  0
    1.4220    0.9039   -0.3446 C   0  0  0  0  0  0  0  0  0  0  0  0
    2.0390    2.2021    0.2058 C   0  0  0  0  0  0  0  0  0  0  0  0
    3.0021    1.9597    1.3851 C   0  0  0  0  0  0  0  0  0  0  0  0
    4.4086    1.6739    0.9088 C   0  0  0  0  0  0  0  0  0  0  0  0
    5.2486    2.7530    0.5813 C   0  0  0  0  0  0  0  0  0  0  0  0
    6.5368    2.5282    0.0954 C   0  0  0  0  0  0  0  0  0  0  0  0
    7.0026    1.2239   -0.0686 C   0  0  0  0  0  0  0  0  0  0  0  0
    6.1784    0.1409    0.2441 C   0  0  0  0  0  0  0  0  0  0  0  0
    4.8725    0.3526    0.7306 C   0  0  0  0  0  0  0  0  0  0  0  0
    4.0196   -0.7202    1.0369 O   0  0  0  0  0  0  0  0  0  0  0  0
    4.2893   -2.0815    0.7135 C   0  0  0  0  0  0  0  0  0  0  0  0
    3.0654   -2.9397    1.0254 C   0  0  0  0  0  0  0  0  0  0  0  0
    1.9040   -2.5201    0.2169 N   0  0  0  0  0  0  0  0  0  0  0  0
    1.9112   -2.8500   -1.2135 C   0  0  0  0  0  0  0  0  0  0  0  0
    0.7373   -1.9527    0.8715 C   0  0  0  0  0  0  0  0  0  0  0  0
    0.5681   -2.1900    2.1030 O   0  0  0  0  0  0  0  0  0  0  0  0
   -1.6645   -1.2573    0.8265 C   0  0  0  0  0  0  0  0  0  0  0  0
   -6.6537   -2.2269   -0.0838 H   0  0  0  0  0  0  0  0  0  0  0  0
   -5.4905   -1.9358   -1.4292 H   0  0  0  0  0  0  0  0  0  0  0  0
   -4.8996   -2.1035    0.2782 H   0  0  0  0  0  0  0  0  0  0  0  0
   -7.7079    3.1975   -1.3273 H   0  0  0  0  0  0  0  0  0  0  0  0
   -7.7728    3.4844    0.4621 H   0  0  0  0  0  0  0  0  0  0  0  0
   -8.8685    2.2667   -0.2933 H   0  0  0  0  0  0  0  0  0  0  0  0
   -5.1646    2.8526    0.5374 H   0  0  0  0  0  0  0  0  0  0  0  0
   -2.9545   -1.8991   -1.5766 H   0  0  0  0  0  0  0  0  0  0  0  0
   -3.4468   -0.1949   -1.9096 H   0  0  0  0  0  0  0  0  0  0  0  0
   -1.2701   -0.8331   -2.9810 H   0  0  0  0  0  0  0  0  0  0  0  0
   -1.1099    0.5523   -1.8790 H   0  0  0  0  0  0  0  0  0  0  0  0
    0.4193    0.5505    1.5668 H   0  0  0  0  0  0  0  0  0  0  0  0
   -0.6264    1.1731    0.2789 H   0  0  0  0  0  0  0  0  0  0  0  0
    2.1864    0.1079   -0.3882 H   0  0  0  0  0  0  0  0  0  0  0  0
    1.1013    1.0925   -1.3910 H   0  0  0  0  0  0  0  0  0  0  0  0
    1.2262    2.8882    0.5335 H   0  0  0  0  0  0  0  0  0  0  0  0
    2.5756    2.7269   -0.6158 H   0  0  0  0  0  0  0  0  0  0  0  0
    3.0193    2.8741    2.0184 H   0  0  0  0  0  0  0  0  0  0  0  0
    2.6345    1.1440    2.0433 H   0  0  0  0  0  0  0  0  0  0  0  0
    4.8980    3.7728    0.6924 H   0  0  0  0  0  0  0  0  0  0  0  0
    7.1753    3.3664   -0.1555 H   0  0  0  0  0  0  0  0  0  0  0  0
    8.0019    1.0520   -0.4462 H   0  0  0  0  0  0  0  0  0  0  0  0
    6.5660   -0.8574    0.1012 H   0  0  0  0  0  0  0  0  0  0  0  0
    5.1484   -2.4433    1.3186 H   0  0  0  0  0  0  0  0  0  0  0  0
    4.5437   -2.1721   -0.3640 H   0  0  0  0  0  0  0  0  0  0  0  0
    3.3002   -4.0055    0.8150 H   0  0  0  0  0  0  0  0  0  0  0  0
    2.8610   -2.8696    2.1145 H   0  0  0  0  0  0  0  0  0  0  0  0
    2.7944   -3.4715   -1.4802 H   0  0  0  0  0  0  0  0  0  0  0  0
    1.0042   -3.4371   -1.4730 H   0  0  0  0  0  0  0  0  0  0  0  0
    1.9664   -1.9239   -1.8229 H   0  0  0  0  0  0  0  0  0  0  0  0
   -1.6838   -0.9285    1.8896 H   0  0  0  0  0  0  0  0  0  0  0  0
   -1.8791   -2.3489    0.8189 H   0  0  0  0  0  0  0  0  0  0  0  0
  1  2  1  0
  2  3  2  0
  3  4  1  0
  4  5  1  0
  4  6  1  0
  6  7  2  0
  7  8  1  0
  8  9  2  0
  8 10  1  0
 10 11  1  0
 11 12  1  0
 12 13  1  0
 13 14  1  0
 14 15  1  0
 15 16  1  0
 16 17  1  0
 17 18  1  0
 18 19  1  0
 19 20  2  0
 20 21  1  0
 21 22  2  0
 22 23  1  0
 23 24  2  0
 24 25  1  0
 25 26  1  0
 26 27  1  0
 27 28  1  0
 28 29  1  0
 28 30  1  0
 30 31  2  0
 14 32  1  0
  7  2  1  0
 32 10  1  0
 30 14  1  0
 24 19  1  0
  1 33  1  0
  1 34  1  0
  1 35  1  0
  5 36  1  0
  5 37  1  0
  5 38  1  0
  6 39  1  0
 11 40  1  0
 11 41  1  0
 12 42  1  0
 12 43  1  0
 15 44  1  0
 15 45  1  0
 16 46  1  0
 16 47  1  0
 17 48  1  0
 17 49  1  0
 18 50  1  0
 18 51  1  0
 20 52  1  0
 21 53  1  0
 22 54  1  0
 23 55  1  0
 26 56  1  0
 26 57  1  0
 27 58  1  0
 27 59  1  0
 29 60  1  0
 29 61  1  0
 29 62  1  0
 32 63  1  0
 32 64  1  0
M  END
$$$$
