
     RDKit          3D

 68 71  0  0  0  0  0  0  0  0999 V2000
    8.8921   -1.3130    0.3287 C   0  0  0  0  0  0  0  0  0  0  0  0
    7.5304   -0.6302    0.1464 C   0  0  0  0  0  0  0  0  0  0  0  0
    7.7136    0.8318   -0.2724 C   0  0  0  0  0  0  0  0  0  0  0  0
    6.6971   -0.7071    1.4068 C   0  0  0  0  0  0  0  0  0  0  0  0
    7.2763   -0.7286    2.6504 N   0  0  0  0  0  0  0  0  0  0  0  0
    6.4248   -0.7785    3.6710 N   0  0  0  0  0  0  0  0  0  0  0  0
    4.8916   -0.7825    3.0428 S   0  0  0  0  0  0  0  0  0  0  0  0
    5.2936   -0.6973    1.4244 C   0  0  0  0  0  0  0  0  0  0  0  0
    4.3287   -0.6912    0.2694 C   0  0  0  0  0  0  0  0  0  0  0  0
    3.2870    0.3197    0.4595 N   0  0  0  0  0  0  0  0  0  0  0  0
    2.4490    0.7475   -0.6210 C   0  0  0  0  0  0  0  0  0  0  0  0
    2.6457    0.3135   -1.7888 O   0  0  0  0  0  0  0  0  0  0  0  0
    1.2967    1.6758   -0.3674 C   0  0  0  0  0  0  0  0  0  0  0  0
    0.0129    0.9383   -0.3658 N   0  0  0  0  0  0  0  0  0  0  0  0
   -0.1022    0.0153    0.7970 C   0  0  0  0  0  0  0  0  0  0  0  0
    0.1070   -1.4443    0.3510 C   0  0  0  0  0  0  0  0  0  0  0  0
   -1.1817   -2.0830   -0.1954 C   0  0  0  0  0  0  0  0  0  0  0  0
   -2.0648   -2.6906    0.9181 C   0  0  0  0  0  0  0  0  0  0  0  0
   -3.5660   -2.5037    0.6333 C   0  0  0  0  0  0  0  0  0  0  0  0
   -4.0568   -1.1391    1.1242 C   0  0  0  0  0  0  0  0  0  0  0  0
   -5.2701   -0.7857    0.4655 O   0  0  0  0  0  0  0  0  0  0  0  0
   -5.9407    0.4166    0.7202 C   0  0  0  0  0  0  0  0  0  0  0  0
   -7.2872    0.3541    1.1002 C   0  0  0  0  0  0  0  0  0  0  0  0
   -7.9766    1.5158    1.4578 C   0  0  0  0  0  0  0  0  0  0  0  0
   -7.3266    2.7513    1.4317 C   0  0  0  0  0  0  0  0  0  0  0  0
   -5.9952    2.8321    1.0166 C   0  0  0  0  0  0  0  0  0  0  0  0
   -5.3028    1.6795    0.6231 C   0  0  0  0  0  0  0  0  0  0  0  0
   -3.9969    1.8269    0.1368 O   0  0  0  0  0  0  0  0  0  0  0  0
   -3.5556    1.2955   -1.0832 C   0  0  0  0  0  0  0  0  0  0  0  0
   -4.4561    0.7871   -1.9724 N   0  0  0  0  0  0  0  0  0  0  0  0
   -4.0800    0.2857   -3.1774 C   0  0  0  0  0  0  0  0  0  0  0  0
   -2.7375    0.2973   -3.5483 C   0  0  0  0  0  0  0  0  0  0  0  0
   -1.7902    0.8153   -2.6656 C   0  0  0  0  0  0  0  0  0  0  0  0
   -2.1826    1.3004   -1.4066 C   0  0  0  0  0  0  0  0  0  0  0  0
   -1.1402    1.8686   -0.4731 C   0  0  0  0  0  0  0  0  0  0  0  0
    9.4544   -1.3063   -0.6300 H   0  0  0  0  0  0  0  0  0  0  0  0
    9.4984   -0.7908    1.0992 H   0  0  0  0  0  0  0  0  0  0  0  0
    8.7496   -2.3703    0.6391 H   0  0  0  0  0  0  0  0  0  0  0  0
    7.0104   -1.1713   -0.6717 H   0  0  0  0  0  0  0  0  0  0  0  0
    8.2936    0.8880   -1.2185 H   0  0  0  0  0  0  0  0  0  0  0  0
    6.7257    1.3094   -0.4436 H   0  0  0  0  0  0  0  0  0  0  0  0
    8.2535    1.3991    0.5164 H   0  0  0  0  0  0  0  0  0  0  0  0
    3.8569   -1.6945    0.1892 H   0  0  0  0  0  0  0  0  0  0  0  0
    4.8679   -0.4785   -0.6762 H   0  0  0  0  0  0  0  0  0  0  0  0
    3.0786    0.6769    1.4169 H   0  0  0  0  0  0  0  0  0  0  0  0
    1.4368    2.2297    0.5874 H   0  0  0  0  0  0  0  0  0  0  0  0
    1.3119    2.4288   -1.1867 H   0  0  0  0  0  0  0  0  0  0  0  0
   -1.0823    0.0975    1.3100 H   0  0  0  0  0  0  0  0  0  0  0  0
    0.6459    0.2571    1.5839 H   0  0  0  0  0  0  0  0  0  0  0  0
    0.4903   -2.0431    1.2059 H   0  0  0  0  0  0  0  0  0  0  0  0
    0.8881   -1.4852   -0.4369 H   0  0  0  0  0  0  0  0  0  0  0  0
   -1.7410   -1.3332   -0.7900 H   0  0  0  0  0  0  0  0  0  0  0  0
   -0.9065   -2.8947   -0.9039 H   0  0  0  0  0  0  0  0  0  0  0  0
   -1.8445   -3.7785    0.9866 H   0  0  0  0  0  0  0  0  0  0  0  0
   -1.8209   -2.2568    1.9134 H   0  0  0  0  0  0  0  0  0  0  0  0
   -3.7649   -2.6184   -0.4551 H   0  0  0  0  0  0  0  0  0  0  0  0
   -4.1424   -3.2952    1.1600 H   0  0  0  0  0  0  0  0  0  0  0  0
   -3.2840   -0.3751    0.9378 H   0  0  0  0  0  0  0  0  0  0  0  0
   -4.2321   -1.1841    2.2214 H   0  0  0  0  0  0  0  0  0  0  0  0
   -7.7903   -0.6024    1.1537 H   0  0  0  0  0  0  0  0  0  0  0  0
   -9.0107    1.4563    1.7709 H   0  0  0  0  0  0  0  0  0  0  0  0
   -7.8571    3.6496    1.7223 H   0  0  0  0  0  0  0  0  0  0  0  0
   -5.5091    3.7985    0.9698 H   0  0  0  0  0  0  0  0  0  0  0  0
   -4.8271   -0.1108   -3.8524 H   0  0  0  0  0  0  0  0  0  0  0  0
   -2.4335   -0.0875   -4.5133 H   0  0  0  0  0  0  0  0  0  0  0  0
   -0.7481    0.8324   -2.9597 H   0  0  0  0  0  0  0  0  0  0  0  0
   -1.5612    2.1104    0.5271 H   0  0  0  0  0  0  0  0  0  0  0  0
   -0.8427    2.8497   -0.9051 H   0  0  0  0  0  0  0  0  0  0  0  0
  1  2  1  0
  2  3  1  0
  2  4  1  0
  4  5  1  0
  5  6  2  0
  6  7  1  0
  7  8  1  0
  8  9  1  0
  9 10  1  0
 10 11  1  0
 11 12  2  0
 11 13  1  0
 13 14  1  0
 14 15  1  0
 15 16  1  0
 16 17  1  0
 17 18  1  0
 18 19  1  0
 19 20  1  0
 20 21  1  0
 21 22  1  0
 22 23  2  0
 23 24  1  0
 24 25  2  0
 25 26  1  0
 26 27  2  0
 27 28  1  0
 28 29  1  0
 29 30  2  0
 30 31  1  0
 31 32  2  0
 32 33  1  0
 33 34  2  0
 34 35  1  0
  8  4  2  0
 35 14  1  0
 27 22  1  0
 34 29  1  0
  1 36  1  0
  1 37  1  0
  1 38  1  0
  2 39  1  0
  3 40  1  0
  3 41  1  0
  3 42  1  0
  9 43  1  0
  9 44  1  0
 10 45  1  0
 13 46  1  0
 13 47  1  0
 15 48  1  0
 15 49  1  0
 16 50  1  0
 16 51  1  0
 17 52  1  0
 17 53  1  0
 18 54  1  0
 18 55  1  0
 19 56  1  0
 19 57  1  0
 20 58  1  0
 20 59  1  0
 23 60  1  0
 24 61  1  0
 25 62  1  0
 26 63  1  0
 31 64  1  0
 32 65  1  0
 33 66  1  0
 35 67  1  0
 35 68  1  0
M  END
$$$$
