
     RDKit          3D

 74 77  0  0  0  0  0  0  0  0999 V2000
   -6.9014    2.0778   -1.3209 C   0  0  0  0  0  0  0  0  0  0  0  0
   -6.3083    2.2726    0.0429 C   0  0  0  0  0  0  0  0  0  0  0  0
   -6.6438    3.3852    0.7482 N   0  0  0  0  0  0  0  0  0  0  0  0
   -6.1408    3.6160    1.9873 C   0  0  0  0  0  0  0  0  0  0  0  0
   -5.2912    2.7232    2.5535 N   0  0  0  0  0  0  0  0  0  0  0  0
   -4.9305    1.5921    1.8971 C   0  0  0  0  0  0  0  0  0  0  0  0
   -5.4248    1.3343    0.6139 C   0  0  0  0  0  0  0  0  0  0  0  0
   -5.0401    0.0896   -0.0776 C   0  0  0  0  0  0  0  0  0  0  0  0
   -5.9384   -0.7235   -0.4239 O   0  0  0  0  0  0  0  0  0  0  0  0
   -3.6588   -0.2131   -0.3483 N   0  0  0  0  0  0  0  0  0  0  0  0
   -2.8253    0.7915   -1.0339 C   0  0  0  0  0  0  0  0  0  0  0  0
   -1.9198    1.5727   -0.0614 C   0  0  0  0  0  0  0  0  0  0  0  0
   -0.6465    0.8134    0.3444 C   0  0  0  0  0  0  0  0  0  0  0  0
    0.4431    0.8428   -0.7552 C   0  0  0  0  0  0  0  0  0  0  0  0
    1.4815   -0.3151   -0.6393 C   0  0  0  0  0  0  0  0  0  0  0  0
    2.5590   -0.1630   -1.7599 C   0  0  0  0  0  0  0  0  0  0  0  0
    3.7897    0.6065   -1.2670 C   0  0  0  0  0  0  0  0  0  0  0  0
    4.4880   -0.1193   -0.1736 N   0  0  0  0  0  0  0  0  0  0  0  0
    5.3836    0.7833    0.5801 C   0  0  0  0  0  0  0  0  0  0  0  0
    6.4882    1.3015   -0.2985 C   0  0  0  0  0  0  0  0  0  0  0  0
    7.5037    0.4446   -0.7473 C   0  0  0  0  0  0  0  0  0  0  0  0
    8.4951    0.9435   -1.5949 C   0  0  0  0  0  0  0  0  0  0  0  0
    8.4616    2.2813   -1.9918 C   0  0  0  0  0  0  0  0  0  0  0  0
    7.4315    3.1040   -1.5318 C   0  0  0  0  0  0  0  0  0  0  0  0
    6.4754    2.6013   -0.7055 N   0  0  0  0  0  0  0  0  0  0  0  0
    3.5729   -0.8644    0.7332 C   0  0  0  0  0  0  0  0  0  0  0  0
    2.1600   -0.2634    0.7678 C   0  0  0  0  0  0  0  0  0  0  0  0
    0.7610   -1.6371   -0.8624 C   0  0  0  0  0  0  0  0  0  0  0  0
    0.1265   -1.8211   -1.9379 O   0  0  0  0  0  0  0  0  0  0  0  0
    0.7982   -2.6489    0.1043 O   0  0  0  0  0  0  0  0  0  0  0  0
   -0.2535   -3.5978    0.2829 C   0  0  0  0  0  0  0  0  0  0  0  0
   -1.0260   -3.2680    1.5798 C   0  0  0  0  0  0  0  0  0  0  0  0
   -0.5145   -4.0763    2.6133 O   0  0  0  0  0  0  0  0  0  0  0  0
   -2.5728   -3.4583    1.4291 C   0  0  0  0  0  0  0  0  0  0  0  0
   -3.1086   -4.0322    2.5961 O   0  0  0  0  0  0  0  0  0  0  0  0
   -3.3004   -2.1120    1.1938 C   0  0  0  0  0  0  0  0  0  0  0  0
   -3.2008   -1.6076   -0.2534 C   0  0  0  0  0  0  0  0  0  0  0  0
   -6.1255    1.7369   -2.0381 H   0  0  0  0  0  0  0  0  0  0  0  0
   -7.7142    1.3246   -1.2700 H   0  0  0  0  0  0  0  0  0  0  0  0
   -7.3221    3.0320   -1.6989 H   0  0  0  0  0  0  0  0  0  0  0  0
   -6.4184    4.5121    2.5236 H   0  0  0  0  0  0  0  0  0  0  0  0
   -4.2596    0.8925    2.3781 H   0  0  0  0  0  0  0  0  0  0  0  0
   -3.4801    1.5186   -1.5622 H   0  0  0  0  0  0  0  0  0  0  0  0
   -2.2245    0.3072   -1.8310 H   0  0  0  0  0  0  0  0  0  0  0  0
   -2.4896    1.8303    0.8523 H   0  0  0  0  0  0  0  0  0  0  0  0
   -1.6281    2.5362   -0.5323 H   0  0  0  0  0  0  0  0  0  0  0  0
   -0.9101   -0.2210    0.6262 H   0  0  0  0  0  0  0  0  0  0  0  0
   -0.2328    1.2904    1.2597 H   0  0  0  0  0  0  0  0  0  0  0  0
    0.9695    1.8207   -0.6996 H   0  0  0  0  0  0  0  0  0  0  0  0
   -0.0254    0.8086   -1.7609 H   0  0  0  0  0  0  0  0  0  0  0  0
    2.9139   -1.1610   -2.1048 H   0  0  0  0  0  0  0  0  0  0  0  0
    2.1392    0.3480   -2.6546 H   0  0  0  0  0  0  0  0  0  0  0  0
    4.4878    0.7312   -2.1228 H   0  0  0  0  0  0  0  0  0  0  0  0
    3.4722    1.6223   -0.9402 H   0  0  0  0  0  0  0  0  0  0  0  0
    5.8632    0.2364    1.4225 H   0  0  0  0  0  0  0  0  0  0  0  0
    4.8093    1.6301    1.0196 H   0  0  0  0  0  0  0  0  0  0  0  0
    7.5217   -0.5967   -0.4504 H   0  0  0  0  0  0  0  0  0  0  0  0
    9.2831    0.2922   -1.9492 H   0  0  0  0  0  0  0  0  0  0  0  0
    9.2227    2.6756   -2.6529 H   0  0  0  0  0  0  0  0  0  0  0  0
    7.3881    4.1405   -1.8375 H   0  0  0  0  0  0  0  0  0  0  0  0
    3.5096   -1.9171    0.3812 H   0  0  0  0  0  0  0  0  0  0  0  0
    3.9648   -0.9165    1.7733 H   0  0  0  0  0  0  0  0  0  0  0  0
    1.5469   -0.7805    1.5373 H   0  0  0  0  0  0  0  0  0  0  0  0
    2.2567    0.7904    1.1120 H   0  0  0  0  0  0  0  0  0  0  0  0
   -0.9185   -3.6267   -0.6060 H   0  0  0  0  0  0  0  0  0  0  0  0
    0.1967   -4.6108    0.3574 H   0  0  0  0  0  0  0  0  0  0  0  0
   -0.8147   -2.2054    1.8420 H   0  0  0  0  0  0  0  0  0  0  0  0
   -0.7245   -3.6264    3.4736 H   0  0  0  0  0  0  0  0  0  0  0  0
   -2.8042   -4.1339    0.5712 H   0  0  0  0  0  0  0  0  0  0  0  0
   -2.9579   -5.0129    2.5335 H   0  0  0  0  0  0  0  0  0  0  0  0
   -4.3779   -2.2444    1.4329 H   0  0  0  0  0  0  0  0  0  0  0  0
   -2.9116   -1.3394    1.8921 H   0  0  0  0  0  0  0  0  0  0  0  0
   -3.8203   -2.2505   -0.9155 H   0  0  0  0  0  0  0  0  0  0  0  0
   -2.1584   -1.6895   -0.6127 H   0  0  0  0  0  0  0  0  0  0  0  0
  1  2  1  0
  2  3  2  0
  3  4  1  0
  4  5  2  0
  5  6  1  0
  6  7  2  0
  7  8  1  0
  8  9  2  0
  8 10  1  0
 10 11  1  0
 11 12  1  0
 12 13  1  0
 13 14  1  0
 14 15  1  0
 15 16  1  0
 16 17  1  0
 17 18  1  0
 18 19  1  0
 19 20  1  0
 20 21  2  0
 21 22  1  0
 22 23  2  0
 23 24  1  0
 24 25  2  0
 18 26  1  0
 26 27  1  0
 15 28  1  0
 28 29  2  0
 28 30  1  0
 30 31  1  0
 31 32  1  0
 32 33  1  0
 32 34  1  0
 34 35  1  0
 34 36  1  0
 36 37  1  0
  7  2  1  0
 37 10  1  0
 27 15  1  0
 25 20  1  0
  1 38  1  0
  1 39  1  0
  1 40  1  0
  4 41  1  0
  6 42  1  0
 11 43  1  0
 11 44  1  0
 12 45  1  0
 12 46  1  0
 13 47  1  0
 13 48  1  0
 14 49  1  0
 14 50  1  0
 16 51  1  0
 16 52  1  0
 17 53  1  0
 17 54  1  0
 19 55  1  0
 19 56  1  0
 21 57  1  0
 22 58  1  0
 23 59  1  0
 24 60  1  0
 26 61  1  0
 26 62  1  0
 27 63  1  0
 27 64  1  0
 31 65  1  0
 31 66  1  0
 32 67  1  0
 33 68  1  0
 34 69  1  0
 35 70  1  0
 36 71  1  0
 36 72  1  0
 37 73  1  0
 37 74  1  0
M  END
$$$$
