
     RDKit          3D

 68 71  0  0  0  0  0  0  0  0999 V2000
    3.3459    2.4395   -0.1586 O   0  0  0  0  0  0  0  0  0  0  0  0
    2.9669    1.3160   -0.5878 C   0  0  0  0  0  0  0  0  0  0  0  0
    1.5131    1.0956   -0.8819 C   0  0  0  0  0  0  0  0  0  0  0  0
    0.6983    1.4976    0.2829 N   0  0  0  0  0  0  0  0  0  0  0  0
    0.6913    0.4937    1.3711 C   0  0  0  0  0  0  0  0  0  0  0  0
   -0.7168    0.2358    1.9059 C   0  0  0  0  0  0  0  0  0  0  0  0
   -1.5741   -0.1202    0.8440 O   0  0  0  0  0  0  0  0  0  0  0  0
   -1.7718    0.9334   -0.0992 C   0  0  0  0  0  0  0  0  0  0  0  0
   -1.7920    0.2948   -1.5180 C   0  0  0  0  0  0  0  0  0  0  0  0
   -2.7673   -0.8477   -1.6212 C   0  0  0  0  0  0  0  0  0  0  0  0
   -4.0589   -0.6343   -1.9008 C   0  0  0  0  0  0  0  0  0  0  0  0
   -5.0945   -1.7117   -1.7385 C   0  0  0  0  0  0  0  0  0  0  0  0
   -6.3298   -1.1195   -1.1115 C   0  0  0  0  0  0  0  0  0  0  0  0
   -7.2568   -0.4772   -1.9544 C   0  0  0  0  0  0  0  0  0  0  0  0
   -8.4118    0.1076   -1.4323 C   0  0  0  0  0  0  0  0  0  0  0  0
   -8.6604    0.0578   -0.0621 C   0  0  0  0  0  0  0  0  0  0  0  0
   -7.7506   -0.5705    0.7899 C   0  0  0  0  0  0  0  0  0  0  0  0
   -6.5740   -1.1448    0.2877 C   0  0  0  0  0  0  0  0  0  0  0  0
   -5.7200   -1.7705    1.2096 O   0  0  0  0  0  0  0  0  0  0  0  0
   -4.3790   -1.3682    1.5141 C   0  0  0  0  0  0  0  0  0  0  0  0
   -4.2787    0.1164    1.8930 C   0  0  0  0  0  0  0  0  0  0  0  0
   -4.2779    0.9708    0.7055 N   0  0  0  0  0  0  0  0  0  0  0  0
   -3.1247    1.6228    0.1317 C   0  0  0  0  0  0  0  0  0  0  0  0
   -3.2946    2.7748   -0.3608 O   0  0  0  0  0  0  0  0  0  0  0  0
   -0.6385    2.0286   -0.0637 C   0  0  0  0  0  0  0  0  0  0  0  0
    3.9260    0.2783   -0.8436 N   0  0  0  0  0  0  0  0  0  0  0  0
    5.3583    0.4654   -0.6222 C   0  0  0  0  0  0  0  0  0  0  0  0
    5.6890    0.3650    0.8693 C   0  0  0  0  0  0  0  0  0  0  0  0
    7.0533    0.7119    1.1065 O   0  0  0  0  0  0  0  0  0  0  0  0
    8.1687   -0.0744    0.7749 C   0  0  0  0  0  0  0  0  0  0  0  0
    9.4411    0.5009    0.8985 C   0  0  0  0  0  0  0  0  0  0  0  0
   10.5873   -0.2323    0.5736 C   0  0  0  0  0  0  0  0  0  0  0  0
   10.4709   -1.5516    0.1271 C   0  0  0  0  0  0  0  0  0  0  0  0
    9.2086   -2.1391    0.0088 C   0  0  0  0  0  0  0  0  0  0  0  0
    8.0591   -1.4086    0.3325 C   0  0  0  0  0  0  0  0  0  0  0  0
    1.3350    0.0330   -1.1508 H   0  0  0  0  0  0  0  0  0  0  0  0
    1.2693    1.7086   -1.7758 H   0  0  0  0  0  0  0  0  0  0  0  0
    1.1213   -0.4811    1.0430 H   0  0  0  0  0  0  0  0  0  0  0  0
    1.3276    0.8690    2.2016 H   0  0  0  0  0  0  0  0  0  0  0  0
   -1.1023    1.1249    2.4542 H   0  0  0  0  0  0  0  0  0  0  0  0
   -0.6814   -0.6058    2.6294 H   0  0  0  0  0  0  0  0  0  0  0  0
   -2.0176    1.0609   -2.2945 H   0  0  0  0  0  0  0  0  0  0  0  0
   -0.7960   -0.1209   -1.7600 H   0  0  0  0  0  0  0  0  0  0  0  0
   -2.4281   -1.8414   -1.3401 H   0  0  0  0  0  0  0  0  0  0  0  0
   -4.3839    0.3597   -2.1994 H   0  0  0  0  0  0  0  0  0  0  0  0
   -4.7224   -2.5651   -1.1314 H   0  0  0  0  0  0  0  0  0  0  0  0
   -5.3356   -2.1233   -2.7423 H   0  0  0  0  0  0  0  0  0  0  0  0
   -7.0818   -0.4266   -3.0226 H   0  0  0  0  0  0  0  0  0  0  0  0
   -9.1152    0.5993   -2.0930 H   0  0  0  0  0  0  0  0  0  0  0  0
   -9.5589    0.5071    0.3413 H   0  0  0  0  0  0  0  0  0  0  0  0
   -7.9549   -0.6025    1.8524 H   0  0  0  0  0  0  0  0  0  0  0  0
   -4.0451   -1.9660    2.3899 H   0  0  0  0  0  0  0  0  0  0  0  0
   -3.6922   -1.6247    0.6947 H   0  0  0  0  0  0  0  0  0  0  0  0
   -3.3797    0.3060    2.5121 H   0  0  0  0  0  0  0  0  0  0  0  0
   -5.1517    0.3774    2.5308 H   0  0  0  0  0  0  0  0  0  0  0  0
   -5.2087    1.3546    0.4237 H   0  0  0  0  0  0  0  0  0  0  0  0
   -0.6121    2.6089   -1.0131 H   0  0  0  0  0  0  0  0  0  0  0  0
   -0.8893    2.7848    0.7134 H   0  0  0  0  0  0  0  0  0  0  0  0
    3.6039   -0.6194   -1.2695 H   0  0  0  0  0  0  0  0  0  0  0  0
    5.6751    1.4538   -1.0194 H   0  0  0  0  0  0  0  0  0  0  0  0
    5.9157   -0.3150   -1.1809 H   0  0  0  0  0  0  0  0  0  0  0  0
    5.4652   -0.6501    1.2612 H   0  0  0  0  0  0  0  0  0  0  0  0
    5.0553    1.0826    1.4311 H   0  0  0  0  0  0  0  0  0  0  0  0
    9.5411    1.5237    1.2415 H   0  0  0  0  0  0  0  0  0  0  0  0
   11.5652    0.2233    0.6661 H   0  0  0  0  0  0  0  0  0  0  0  0
   11.3586   -2.1182   -0.1261 H   0  0  0  0  0  0  0  0  0  0  0  0
    9.1200   -3.1613   -0.3353 H   0  0  0  0  0  0  0  0  0  0  0  0
    7.0978   -1.8922    0.2365 H   0  0  0  0  0  0  0  0  0  0  0  0
  1  2  2  0
  2  3  1  0
  3  4  1  0
  4  5  1  0
  5  6  1  0
  6  7  1  0
  7  8  1  0
  8  9  1  0
  9 10  1  0
 10 11  2  0
 11 12  1  0
 12 13  1  0
 13 14  2  0
 14 15  1  0
 15 16  2  0
 16 17  1  0
 17 18  2  0
 18 19  1  0
 19 20  1  0
 20 21  1  0
 21 22  1  0
 22 23  1  0
 23 24  2  0
  8 25  1  0
  2 26  1  0
 26 27  1  0
 27 28  1  0
 28 29  1  0
 29 30  1  0
 30 31  2  0
 31 32  1  0
 32 33  2  0
 33 34  1  0
 34 35  2  0
 25  4  1  0
 35 30  1  0
 23  8  1  0
 18 13  1  0
  3 36  1  0
  3 37  1  0
  5 38  1  0
  5 39  1  0
  6 40  1  0
  6 41  1  0
  9 42  1  0
  9 43  1  0
 10 44  1  0
 11 45  1  0
 12 46  1  0
 12 47  1  0
 14 48  1  0
 15 49  1  0
 16 50  1  0
 17 51  1  0
 20 52  1  0
 20 53  1  0
 21 54  1  0
 21 55  1  0
 22 56  1  0
 25 57  1  0
 25 58  1  0
 26 59  1  0
 27 60  1  0
 27 61  1  0
 28 62  1  0
 28 63  1  0
 31 64  1  0
 32 65  1  0
 33 66  1  0
 34 67  1  0
 35 68  1  0
M  END
$$$$
