
     RDKit          3D

 63 66  0  0  0  0  0  0  0  0999 V2000
    5.8150    1.3708    1.6130 C   0  0  0  0  0  0  0  0  0  0  0  0
    5.6116    1.0525    0.1549 C   0  0  0  0  0  0  0  0  0  0  0  0
    6.3461    1.7532   -0.8146 C   0  0  0  0  0  0  0  0  0  0  0  0
    6.1688    1.4754   -2.1701 C   0  0  0  0  0  0  0  0  0  0  0  0
    5.2632    0.4883   -2.5509 C   0  0  0  0  0  0  0  0  0  0  0  0
    4.5679   -0.1958   -1.6062 N   0  0  0  0  0  0  0  0  0  0  0  0
    4.7068    0.0518   -0.2735 C   0  0  0  0  0  0  0  0  0  0  0  0
    3.9206   -0.7484    0.6935 C   0  0  0  0  0  0  0  0  0  0  0  0
    4.5338   -1.3265    1.6327 O   0  0  0  0  0  0  0  0  0  0  0  0
    2.4797   -0.8487    0.6123 N   0  0  0  0  0  0  0  0  0  0  0  0
    1.7254   -1.3205    1.7704 C   0  0  0  0  0  0  0  0  0  0  0  0
    0.3511   -0.6276    1.8765 C   0  0  0  0  0  0  0  0  0  0  0  0
   -0.2328   -0.1628    0.6642 O   0  0  0  0  0  0  0  0  0  0  0  0
    0.2311   -0.7958   -0.5156 C   0  0  0  0  0  0  0  0  0  0  0  0
   -0.4575   -0.1248   -1.7474 C   0  0  0  0  0  0  0  0  0  0  0  0
   -0.4683    1.4303   -1.7896 C   0  0  0  0  0  0  0  0  0  0  0  0
   -1.5763    2.0944   -0.9509 C   0  0  0  0  0  0  0  0  0  0  0  0
   -2.9754    1.9667   -1.5834 C   0  0  0  0  0  0  0  0  0  0  0  0
   -4.0358    1.8525   -0.5169 C   0  0  0  0  0  0  0  0  0  0  0  0
   -4.8325    2.9622   -0.1901 C   0  0  0  0  0  0  0  0  0  0  0  0
   -5.8066    2.8608    0.8049 C   0  0  0  0  0  0  0  0  0  0  0  0
   -5.9893    1.6563    1.4865 C   0  0  0  0  0  0  0  0  0  0  0  0
   -5.1943    0.5491    1.1804 C   0  0  0  0  0  0  0  0  0  0  0  0
   -4.2068    0.6390    0.1800 C   0  0  0  0  0  0  0  0  0  0  0  0
   -3.3775   -0.4460   -0.1457 O   0  0  0  0  0  0  0  0  0  0  0  0
   -3.5819   -1.7845    0.2886 C   0  0  0  0  0  0  0  0  0  0  0  0
   -2.6344   -2.7238   -0.4597 C   0  0  0  0  0  0  0  0  0  0  0  0
   -1.3124   -2.7769    0.1818 N   0  0  0  0  0  0  0  0  0  0  0  0
   -1.1133   -3.8460    1.1643 C   0  0  0  0  0  0  0  0  0  0  0  0
   -0.1552   -2.2837   -0.5250 C   0  0  0  0  0  0  0  0  0  0  0  0
    0.5262   -3.0992   -1.2045 O   0  0  0  0  0  0  0  0  0  0  0  0
    1.7748   -0.6020   -0.6471 C   0  0  0  0  0  0  0  0  0  0  0  0
    6.3452    2.3383    1.7461 H   0  0  0  0  0  0  0  0  0  0  0  0
    6.4200    0.5694    2.0874 H   0  0  0  0  0  0  0  0  0  0  0  0
    4.8354    1.4504    2.1295 H   0  0  0  0  0  0  0  0  0  0  0  0
    7.0548    2.5188   -0.5227 H   0  0  0  0  0  0  0  0  0  0  0  0
    6.7308    2.0197   -2.9181 H   0  0  0  0  0  0  0  0  0  0  0  0
    5.1136    0.2621   -3.5983 H   0  0  0  0  0  0  0  0  0  0  0  0
    2.2833   -1.1220    2.7119 H   0  0  0  0  0  0  0  0  0  0  0  0
    1.6119   -2.4174    1.6886 H   0  0  0  0  0  0  0  0  0  0  0  0
    0.4678    0.2563    2.5392 H   0  0  0  0  0  0  0  0  0  0  0  0
   -0.3650   -1.3023    2.3902 H   0  0  0  0  0  0  0  0  0  0  0  0
    0.0567   -0.4824   -2.6680 H   0  0  0  0  0  0  0  0  0  0  0  0
   -1.4962   -0.4822   -1.8459 H   0  0  0  0  0  0  0  0  0  0  0  0
    0.5027    1.8482   -1.4660 H   0  0  0  0  0  0  0  0  0  0  0  0
   -0.5976    1.7501   -2.8470 H   0  0  0  0  0  0  0  0  0  0  0  0
   -1.5649    1.6998    0.0829 H   0  0  0  0  0  0  0  0  0  0  0  0
   -1.3415    3.1770   -0.8574 H   0  0  0  0  0  0  0  0  0  0  0  0
   -3.1661    2.8488   -2.2341 H   0  0  0  0  0  0  0  0  0  0  0  0
   -3.0476    1.0822   -2.2502 H   0  0  0  0  0  0  0  0  0  0  0  0
   -4.7011    3.9059   -0.7061 H   0  0  0  0  0  0  0  0  0  0  0  0
   -6.4218    3.7173    1.0488 H   0  0  0  0  0  0  0  0  0  0  0  0
   -6.7451    1.5833    2.2576 H   0  0  0  0  0  0  0  0  0  0  0  0
   -5.3478   -0.3677    1.7329 H   0  0  0  0  0  0  0  0  0  0  0  0
   -4.6267   -2.0827    0.0540 H   0  0  0  0  0  0  0  0  0  0  0  0
   -3.4222   -1.8589    1.3852 H   0  0  0  0  0  0  0  0  0  0  0  0
   -3.0871   -3.7407   -0.4617 H   0  0  0  0  0  0  0  0  0  0  0  0
   -2.5564   -2.4333   -1.5284 H   0  0  0  0  0  0  0  0  0  0  0  0
   -1.0930   -4.8310    0.6501 H   0  0  0  0  0  0  0  0  0  0  0  0
   -1.9405   -3.8420    1.9061 H   0  0  0  0  0  0  0  0  0  0  0  0
   -0.1637   -3.7166    1.7159 H   0  0  0  0  0  0  0  0  0  0  0  0
    2.0114    0.4326   -0.9566 H   0  0  0  0  0  0  0  0  0  0  0  0
    2.1786   -1.2713   -1.4363 H   0  0  0  0  0  0  0  0  0  0  0  0
  1  2  1  0
  2  3  2  0
  3  4  1  0
  4  5  2  0
  5  6  1  0
  6  7  2  0
  7  8  1  0
  8  9  2  0
  8 10  1  0
 10 11  1  0
 11 12  1  0
 12 13  1  0
 13 14  1  0
 14 15  1  0
 15 16  1  0
 16 17  1  0
 17 18  1  0
 18 19  1  0
 19 20  2  0
 20 21  1  0
 21 22  2  0
 22 23  1  0
 23 24  2  0
 24 25  1  0
 25 26  1  0
 26 27  1  0
 27 28  1  0
 28 29  1  0
 28 30  1  0
 30 31  2  0
 14 32  1  0
  7  2  1  0
 32 10  1  0
 30 14  1  0
 24 19  1  0
  1 33  1  0
  1 34  1  0
  1 35  1  0
  3 36  1  0
  4 37  1  0
  5 38  1  0
 11 39  1  0
 11 40  1  0
 12 41  1  0
 12 42  1  0
 15 43  1  0
 15 44  1  0
 16 45  1  0
 16 46  1  0
 17 47  1  0
 17 48  1  0
 18 49  1  0
 18 50  1  0
 20 51  1  0
 21 52  1  0
 22 53  1  0
 23 54  1  0
 26 55  1  0
 26 56  1  0
 27 57  1  0
 27 58  1  0
 29 59  1  0
 29 60  1  0
 29 61  1  0
 32 62  1  0
 32 63  1  0
M  END
$$$$
