
     RDKit          3D

 92 96  0  0  0  0  0  0  0  0999 V2000
   10.1611    3.2173   -2.8402 C   0  0  0  0  0  0  0  0  0  0  0  0
    9.8300    2.1048   -2.0167 O   0  0  0  0  0  0  0  0  0  0  0  0
    8.6636    2.0066   -1.2411 C   0  0  0  0  0  0  0  0  0  0  0  0
    7.6958    3.0302   -1.2093 C   0  0  0  0  0  0  0  0  0  0  0  0
    6.5611    2.9048   -0.4062 C   0  0  0  0  0  0  0  0  0  0  0  0
    6.3701    1.7566    0.3735 C   0  0  0  0  0  0  0  0  0  0  0  0
    5.1574    1.6366    1.2617 C   0  0  0  0  0  0  0  0  0  0  0  0
    3.8771    1.3229    0.4773 C   0  0  0  0  0  0  0  0  0  0  0  0
    3.9552   -0.0124   -0.2780 C   0  0  0  0  0  0  0  0  0  0  0  0
    2.6112   -0.4639   -0.6311 N   0  0  0  0  0  0  0  0  0  0  0  0
    1.7630   -1.1210    0.3224 C   0  0  0  0  0  0  0  0  0  0  0  0
    2.2325   -1.4949    1.4339 O   0  0  0  0  0  0  0  0  0  0  0  0
    0.2950   -1.2938    0.0448 C   0  0  0  0  0  0  0  0  0  0  0  0
   -0.1321   -2.7559    0.2716 C   0  0  0  0  0  0  0  0  0  0  0  0
   -1.5780   -2.9998   -0.1766 C   0  0  0  0  0  0  0  0  0  0  0  0
   -2.0453   -4.3712    0.2232 C   0  0  0  0  0  0  0  0  0  0  0  0
   -1.6065   -5.3687   -0.4130 O   0  0  0  0  0  0  0  0  0  0  0  0
   -2.9584   -4.5862    1.3148 N   0  0  0  0  0  0  0  0  0  0  0  0
   -3.6576   -3.5255    2.0441 C   0  0  0  0  0  0  0  0  0  0  0  0
   -3.6425   -3.7450    3.5527 C   0  0  0  0  0  0  0  0  0  0  0  0
   -2.8177   -2.6260    2.9387 C   0  0  0  0  0  0  0  0  0  0  0  0
   -4.9663   -3.0323    1.4882 C   0  0  0  0  0  0  0  0  0  0  0  0
   -6.0497   -3.5176    1.9090 O   0  0  0  0  0  0  0  0  0  0  0  0
   -4.9957   -2.0605    0.4358 N   0  0  0  0  0  0  0  0  0  0  0  0
   -5.1360   -2.5631   -0.9356 C   0  0  0  0  0  0  0  0  0  0  0  0
   -5.1139   -0.6268    0.7736 C   0  0  0  0  0  0  0  0  0  0  0  0
   -6.3231    0.0230    0.0595 C   0  0  0  0  0  0  0  0  0  0  0  0
   -6.6957    1.3495    0.6743 C   0  0  0  0  0  0  0  0  0  0  0  0
   -7.4060    1.3903    1.8878 C   0  0  0  0  0  0  0  0  0  0  0  0
   -7.7238    2.6186    2.4770 C   0  0  0  0  0  0  0  0  0  0  0  0
   -7.3341    3.8112    1.8596 C   0  0  0  0  0  0  0  0  0  0  0  0
   -6.6289    3.7797    0.6527 C   0  0  0  0  0  0  0  0  0  0  0  0
   -6.3078    2.5546    0.0617 C   0  0  0  0  0  0  0  0  0  0  0  0
   -3.7941    0.1163    0.4980 C   0  0  0  0  0  0  0  0  0  0  0  0
   -3.3679   -0.0860   -0.8467 O   0  0  0  0  0  0  0  0  0  0  0  0
   -2.3680    0.6410   -1.5137 C   0  0  0  0  0  0  0  0  0  0  0  0
   -2.5274    0.8134   -2.8935 C   0  0  0  0  0  0  0  0  0  0  0  0
   -1.6185    1.5752   -3.6302 C   0  0  0  0  0  0  0  0  0  0  0  0
   -0.5300    2.1705   -2.9947 C   0  0  0  0  0  0  0  0  0  0  0  0
   -0.3343    1.9855   -1.6253 C   0  0  0  0  0  0  0  0  0  0  0  0
   -1.2309    1.2044   -0.8774 C   0  0  0  0  0  0  0  0  0  0  0  0
   -0.8833    0.9146    0.5212 C   0  0  0  0  0  0  0  0  0  0  0  0
   -0.9752    1.8343    1.3809 O   0  0  0  0  0  0  0  0  0  0  0  0
   -0.4543   -0.3933    0.9278 N   0  0  0  0  0  0  0  0  0  0  0  0
    7.3197    0.7249    0.3268 C   0  0  0  0  0  0  0  0  0  0  0  0
    8.4728    0.8474   -0.4726 C   0  0  0  0  0  0  0  0  0  0  0  0
    9.4515   -0.1576   -0.5246 O   0  0  0  0  0  0  0  0  0  0  0  0
    9.3932   -1.3745    0.2110 C   0  0  0  0  0  0  0  0  0  0  0  0
   10.2489    4.1368   -2.2244 H   0  0  0  0  0  0  0  0  0  0  0  0
    9.3879    3.3533   -3.6242 H   0  0  0  0  0  0  0  0  0  0  0  0
   11.1348    3.0234   -3.3342 H   0  0  0  0  0  0  0  0  0  0  0  0
    7.8143    3.9304   -1.7962 H   0  0  0  0  0  0  0  0  0  0  0  0
    5.8304    3.7051   -0.3856 H   0  0  0  0  0  0  0  0  0  0  0  0
    5.3116    0.8532    2.0354 H   0  0  0  0  0  0  0  0  0  0  0  0
    5.0145    2.5946    1.8072 H   0  0  0  0  0  0  0  0  0  0  0  0
    3.0329    1.2920    1.2021 H   0  0  0  0  0  0  0  0  0  0  0  0
    3.6637    2.1442   -0.2413 H   0  0  0  0  0  0  0  0  0  0  0  0
    4.5526    0.1281   -1.2063 H   0  0  0  0  0  0  0  0  0  0  0  0
    4.4631   -0.7897    0.3357 H   0  0  0  0  0  0  0  0  0  0  0  0
    2.2372   -0.2280   -1.5787 H   0  0  0  0  0  0  0  0  0  0  0  0
    0.0989   -1.0460   -1.0209 H   0  0  0  0  0  0  0  0  0  0  0  0
   -0.0148   -3.0171    1.3468 H   0  0  0  0  0  0  0  0  0  0  0  0
    0.5374   -3.4234   -0.3135 H   0  0  0  0  0  0  0  0  0  0  0  0
   -1.6411   -2.9020   -1.2825 H   0  0  0  0  0  0  0  0  0  0  0  0
   -2.2414   -2.2346    0.2542 H   0  0  0  0  0  0  0  0  0  0  0  0
   -3.2413   -5.5724    1.5175 H   0  0  0  0  0  0  0  0  0  0  0  0
   -3.0235   -4.5923    3.9227 H   0  0  0  0  0  0  0  0  0  0  0  0
   -4.5220   -3.3701    4.1196 H   0  0  0  0  0  0  0  0  0  0  0  0
   -3.2360   -1.6170    3.1444 H   0  0  0  0  0  0  0  0  0  0  0  0
   -1.7272   -2.8327    2.9568 H   0  0  0  0  0  0  0  0  0  0  0  0
   -6.1366   -3.0294   -1.0537 H   0  0  0  0  0  0  0  0  0  0  0  0
   -5.0306   -1.7533   -1.6863 H   0  0  0  0  0  0  0  0  0  0  0  0
   -4.3586   -3.3288   -1.1436 H   0  0  0  0  0  0  0  0  0  0  0  0
   -5.2979   -0.5409    1.8689 H   0  0  0  0  0  0  0  0  0  0  0  0
   -7.1978   -0.6609    0.1339 H   0  0  0  0  0  0  0  0  0  0  0  0
   -6.1085    0.1577   -1.0225 H   0  0  0  0  0  0  0  0  0  0  0  0
   -7.7078    0.4703    2.3784 H   0  0  0  0  0  0  0  0  0  0  0  0
   -8.2692    2.6458    3.4118 H   0  0  0  0  0  0  0  0  0  0  0  0
   -7.5823    4.7623    2.3143 H   0  0  0  0  0  0  0  0  0  0  0  0
   -6.3255    4.7059    0.1782 H   0  0  0  0  0  0  0  0  0  0  0  0
   -5.7510    2.5438   -0.8672 H   0  0  0  0  0  0  0  0  0  0  0  0
   -3.0392   -0.2710    1.2018 H   0  0  0  0  0  0  0  0  0  0  0  0
   -3.9146    1.2014    0.6962 H   0  0  0  0  0  0  0  0  0  0  0  0
   -3.3797    0.3736   -3.3939 H   0  0  0  0  0  0  0  0  0  0  0  0
   -1.7650    1.7090   -4.6935 H   0  0  0  0  0  0  0  0  0  0  0  0
    0.1744    2.7623   -3.5653 H   0  0  0  0  0  0  0  0  0  0  0  0
    0.5400    2.4202   -1.1529 H   0  0  0  0  0  0  0  0  0  0  0  0
   -0.4521   -0.6006    1.9531 H   0  0  0  0  0  0  0  0  0  0  0  0
    7.1556   -0.1658    0.9200 H   0  0  0  0  0  0  0  0  0  0  0  0
    9.3702   -1.1591    1.3002 H   0  0  0  0  0  0  0  0  0  0  0  0
   10.2942   -1.9795   -0.0138 H   0  0  0  0  0  0  0  0  0  0  0  0
    8.4942   -1.9567   -0.0830 H   0  0  0  0  0  0  0  0  0  0  0  0
  1  2  1  0
  2  3  1  0
  3  4  2  0
  4  5  1  0
  5  6  2  0
  6  7  1  0
  7  8  1  0
  8  9  1  0
  9 10  1  0
 10 11  1  0
 11 12  2  0
 11 13  1  0
 13 14  1  0
 14 15  1  0
 15 16  1  0
 16 17  2  0
 16 18  1  0
 18 19  1  0
 19 20  1  0
 20 21  1  0
 19 22  1  0
 22 23  2  0
 22 24  1  0
 24 25  1  0
 24 26  1  0
 26 27  1  0
 27 28  1  0
 28 29  2  0
 29 30  1  0
 30 31  2  0
 31 32  1  0
 32 33  2  0
 26 34  1  0
 34 35  1  0
 35 36  1  0
 36 37  2  0
 37 38  1  0
 38 39  2  0
 39 40  1  0
 40 41  2  0
 41 42  1  0
 42 43  2  0
 42 44  1  0
  6 45  1  0
 45 46  2  0
 46 47  1  0
 47 48  1  0
 46  3  1  0
 44 13  1  0
 21 19  1  0
 33 28  1  0
 41 36  1  0
  1 49  1  0
  1 50  1  0
  1 51  1  0
  4 52  1  0
  5 53  1  0
  7 54  1  0
  7 55  1  0
  8 56  1  0
  8 57  1  0
  9 58  1  0
  9 59  1  0
 10 60  1  0
 13 61  1  0
 14 62  1  0
 14 63  1  0
 15 64  1  0
 15 65  1  0
 18 66  1  0
 20 67  1  0
 20 68  1  0
 21 69  1  0
 21 70  1  0
 25 71  1  0
 25 72  1  0
 25 73  1  0
 26 74  1  0
 27 75  1  0
 27 76  1  0
 29 77  1  0
 30 78  1  0
 31 79  1  0
 32 80  1  0
 33 81  1  0
 34 82  1  0
 34 83  1  0
 37 84  1  0
 38 85  1  0
 39 86  1  0
 40 87  1  0
 44 88  1  0
 45 89  1  0
 48 90  1  0
 48 91  1  0
 48 92  1  0
M  END
$$$$
