
     RDKit          3D

 97100  0  0  0  0  0  0  0  0999 V2000
   -6.1473   -0.5394   -0.3607 C   0  0  0  0  0  0  0  0  0  0  0  0
   -6.9862    0.6553   -0.8099 C   0  0  0  0  0  0  0  0  0  0  0  0
   -6.6060    1.9444   -0.0677 C   0  0  0  0  0  0  0  0  0  0  0  0
   -5.4978    2.7825   -0.7482 C   0  0  0  0  0  0  0  0  0  0  0  0
   -4.1229    2.2942   -0.4970 N   0  0  0  0  0  0  0  0  0  0  0  0
   -3.3857    2.8577    0.6561 C   0  0  0  0  0  0  0  0  0  0  0  0
   -3.8836    2.3089    1.9862 C   0  0  0  0  0  0  0  0  0  0  0  0
   -3.8612    0.8867    1.9252 O   0  0  0  0  0  0  0  0  0  0  0  0
   -4.4371    0.0119    2.8563 C   0  0  0  0  0  0  0  0  0  0  0  0
   -5.3795    0.4467    3.8089 C   0  0  0  0  0  0  0  0  0  0  0  0
   -6.0136   -0.4780    4.6422 C   0  0  0  0  0  0  0  0  0  0  0  0
   -5.7203   -1.8374    4.5365 C   0  0  0  0  0  0  0  0  0  0  0  0
   -4.7667   -2.2756    3.6173 C   0  0  0  0  0  0  0  0  0  0  0  0
   -4.0999   -1.3558    2.7907 C   0  0  0  0  0  0  0  0  0  0  0  0
   -3.0279   -1.8373    1.8908 C   0  0  0  0  0  0  0  0  0  0  0  0
   -3.2082   -2.8954    1.2257 O   0  0  0  0  0  0  0  0  0  0  0  0
   -1.7665   -1.1458    1.8207 N   0  0  0  0  0  0  0  0  0  0  0  0
   -0.5682   -1.7522    1.2272 C   0  0  0  0  0  0  0  0  0  0  0  0
    0.6547   -1.4863    2.0717 C   0  0  0  0  0  0  0  0  0  0  0  0
    0.7254   -0.4432    2.7776 O   0  0  0  0  0  0  0  0  0  0  0  0
    1.7638   -2.3952    2.0201 N   0  0  0  0  0  0  0  0  0  0  0  0
    3.0664   -2.0687    2.5928 C   0  0  0  0  0  0  0  0  0  0  0  0
    3.8690   -1.2606    1.6097 C   0  0  0  0  0  0  0  0  0  0  0  0
    3.8659    0.1422    1.6669 C   0  0  0  0  0  0  0  0  0  0  0  0
    4.5937    0.8883    0.7335 C   0  0  0  0  0  0  0  0  0  0  0  0
    5.3320    0.2410   -0.2690 C   0  0  0  0  0  0  0  0  0  0  0  0
    6.1345    1.0440   -1.2618 C   0  0  0  0  0  0  0  0  0  0  0  0
    7.0596    1.9011   -0.6200 O   0  0  0  0  0  0  0  0  0  0  0  0
    8.1611    1.1867   -0.0832 C   0  0  0  0  0  0  0  0  0  0  0  0
    9.3765    1.2423   -1.0252 C   0  0  0  0  0  0  0  0  0  0  0  0
    9.3578    0.1457   -2.0889 C   0  0  0  0  0  0  0  0  0  0  0  0
   10.7933   -0.3050   -2.1759 C   0  0  0  0  0  0  0  0  0  0  0  0
   11.5137    0.5518   -1.1532 C   0  0  0  0  0  0  0  0  0  0  0  0
   10.5606    1.0983   -0.2758 O   0  0  0  0  0  0  0  0  0  0  0  0
    5.3137   -1.1609   -0.3401 C   0  0  0  0  0  0  0  0  0  0  0  0
    4.5842   -1.9073    0.5889 C   0  0  0  0  0  0  0  0  0  0  0  0
   -0.3714   -1.2774   -0.2231 C   0  0  0  0  0  0  0  0  0  0  0  0
   -0.1592    0.2151   -0.3583 C   0  0  0  0  0  0  0  0  0  0  0  0
    0.9251    0.7053    0.0579 O   0  0  0  0  0  0  0  0  0  0  0  0
   -1.1132    1.0932   -0.9857 N   0  0  0  0  0  0  0  0  0  0  0  0
   -2.3972    0.6699   -1.5584 C   0  0  0  0  0  0  0  0  0  0  0  0
   -2.1229    0.0284   -2.9548 C   0  0  0  0  0  0  0  0  0  0  0  0
   -3.2080   -0.9166   -3.5291 C   0  0  0  0  0  0  0  0  0  0  0  0
   -4.5328   -0.2054   -3.8009 C   0  0  0  0  0  0  0  0  0  0  0  0
   -3.4104   -2.1786   -2.6803 C   0  0  0  0  0  0  0  0  0  0  0  0
   -3.3385    1.8676   -1.6353 C   0  0  0  0  0  0  0  0  0  0  0  0
   -3.3700    2.5610   -2.6889 O   0  0  0  0  0  0  0  0  0  0  0  0
   -6.3318   -1.4013   -1.0364 H   0  0  0  0  0  0  0  0  0  0  0  0
   -5.0717   -0.2886   -0.3903 H   0  0  0  0  0  0  0  0  0  0  0  0
   -6.4170   -0.8269    0.6771 H   0  0  0  0  0  0  0  0  0  0  0  0
   -6.9174    0.7985   -1.9085 H   0  0  0  0  0  0  0  0  0  0  0  0
   -8.0520    0.4179   -0.5885 H   0  0  0  0  0  0  0  0  0  0  0  0
   -6.3742    1.7115    0.9858 H   0  0  0  0  0  0  0  0  0  0  0  0
   -7.5157    2.5835   -0.0423 H   0  0  0  0  0  0  0  0  0  0  0  0
   -5.5875    3.8278   -0.3751 H   0  0  0  0  0  0  0  0  0  0  0  0
   -5.7080    2.8428   -1.8392 H   0  0  0  0  0  0  0  0  0  0  0  0
   -3.4697    3.9648    0.6534 H   0  0  0  0  0  0  0  0  0  0  0  0
   -2.3047    2.6330    0.5925 H   0  0  0  0  0  0  0  0  0  0  0  0
   -4.8942    2.7065    2.1924 H   0  0  0  0  0  0  0  0  0  0  0  0
   -3.2114    2.6506    2.8036 H   0  0  0  0  0  0  0  0  0  0  0  0
   -5.6519    1.4891    3.9008 H   0  0  0  0  0  0  0  0  0  0  0  0
   -6.7392   -0.1395    5.3700 H   0  0  0  0  0  0  0  0  0  0  0  0
   -6.2242   -2.5506    5.1768 H   0  0  0  0  0  0  0  0  0  0  0  0
   -4.5223   -3.3286    3.5705 H   0  0  0  0  0  0  0  0  0  0  0  0
   -1.6840   -0.2018    2.2589 H   0  0  0  0  0  0  0  0  0  0  0  0
   -0.6994   -2.8565    1.1964 H   0  0  0  0  0  0  0  0  0  0  0  0
    1.6847   -3.2616    1.4410 H   0  0  0  0  0  0  0  0  0  0  0  0
    2.9416   -1.5212    3.5530 H   0  0  0  0  0  0  0  0  0  0  0  0
    3.6060   -3.0102    2.8304 H   0  0  0  0  0  0  0  0  0  0  0  0
    3.3020    0.6597    2.4343 H   0  0  0  0  0  0  0  0  0  0  0  0
    4.5884    1.9696    0.7959 H   0  0  0  0  0  0  0  0  0  0  0  0
    6.6336    0.3979   -2.0144 H   0  0  0  0  0  0  0  0  0  0  0  0
    5.4252    1.6777   -1.8345 H   0  0  0  0  0  0  0  0  0  0  0  0
    8.4400    1.6961    0.8627 H   0  0  0  0  0  0  0  0  0  0  0  0
    7.9246    0.1401    0.2125 H   0  0  0  0  0  0  0  0  0  0  0  0
    9.3997    2.2392   -1.5238 H   0  0  0  0  0  0  0  0  0  0  0  0
    9.0025    0.5435   -3.0651 H   0  0  0  0  0  0  0  0  0  0  0  0
    8.7217   -0.7172   -1.7926 H   0  0  0  0  0  0  0  0  0  0  0  0
   10.8784   -1.3825   -1.9031 H   0  0  0  0  0  0  0  0  0  0  0  0
   11.2112   -0.1477   -3.1953 H   0  0  0  0  0  0  0  0  0  0  0  0
   12.0664    1.3746   -1.6595 H   0  0  0  0  0  0  0  0  0  0  0  0
   12.2398   -0.0598   -0.5780 H   0  0  0  0  0  0  0  0  0  0  0  0
    5.8691   -1.6793   -1.1111 H   0  0  0  0  0  0  0  0  0  0  0  0
    4.5800   -2.9883    0.5177 H   0  0  0  0  0  0  0  0  0  0  0  0
    0.5149   -1.7907   -0.6550 H   0  0  0  0  0  0  0  0  0  0  0  0
   -1.2340   -1.6231   -0.8188 H   0  0  0  0  0  0  0  0  0  0  0  0
   -0.8074    2.0818   -1.1393 H   0  0  0  0  0  0  0  0  0  0  0  0
   -2.8560   -0.0639   -0.8724 H   0  0  0  0  0  0  0  0  0  0  0  0
   -1.9122    0.8244   -3.7014 H   0  0  0  0  0  0  0  0  0  0  0  0
   -1.1792   -0.5582   -2.9078 H   0  0  0  0  0  0  0  0  0  0  0  0
   -2.8315   -1.2649   -4.5175 H   0  0  0  0  0  0  0  0  0  0  0  0
   -5.2380   -0.8926   -4.3136 H   0  0  0  0  0  0  0  0  0  0  0  0
   -4.9884    0.1261   -2.8546 H   0  0  0  0  0  0  0  0  0  0  0  0
   -4.3714    0.6762   -4.4565 H   0  0  0  0  0  0  0  0  0  0  0  0
   -4.1256   -2.8655   -3.1817 H   0  0  0  0  0  0  0  0  0  0  0  0
   -2.4499   -2.7208   -2.5687 H   0  0  0  0  0  0  0  0  0  0  0  0
   -3.8091   -1.9396   -1.6745 H   0  0  0  0  0  0  0  0  0  0  0  0
  1  2  1  0
  2  3  1  0
  3  4  1  0
  4  5  1  0
  5  6  1  0
  6  7  1  0
  7  8  1  0
  8  9  1  0
  9 10  2  0
 10 11  1  0
 11 12  2  0
 12 13  1  0
 13 14  2  0
 14 15  1  0
 15 16  2  0
 15 17  1  0
 17 18  1  0
 18 19  1  0
 19 20  2  0
 19 21  1  0
 21 22  1  0
 22 23  1  0
 23 24  2  0
 24 25  1  0
 25 26  2  0
 26 27  1  0
 27 28  1  0
 28 29  1  0
 29 30  1  0
 30 31  1  0
 31 32  1  0
 32 33  1  0
 33 34  1  0
 26 35  1  0
 35 36  2  0
 18 37  1  0
 37 38  1  0
 38 39  2  0
 38 40  1  0
 40 41  1  0
 41 42  1  0
 42 43  1  0
 43 44  1  0
 43 45  1  0
 41 46  1  0
 46 47  2  0
 46  5  1  0
 14  9  1  0
 36 23  1  0
 34 30  1  0
  1 48  1  0
  1 49  1  0
  1 50  1  0
  2 51  1  0
  2 52  1  0
  3 53  1  0
  3 54  1  0
  4 55  1  0
  4 56  1  0
  6 57  1  0
  6 58  1  0
  7 59  1  0
  7 60  1  0
 10 61  1  0
 11 62  1  0
 12 63  1  0
 13 64  1  0
 17 65  1  0
 18 66  1  0
 21 67  1  0
 22 68  1  0
 22 69  1  0
 24 70  1  0
 25 71  1  0
 27 72  1  0
 27 73  1  0
 29 74  1  0
 29 75  1  0
 30 76  1  0
 31 77  1  0
 31 78  1  0
 32 79  1  0
 32 80  1  0
 33 81  1  0
 33 82  1  0
 35 83  1  0
 36 84  1  0
 37 85  1  0
 37 86  1  0
 40 87  1  0
 41 88  1  0
 42 89  1  0
 42 90  1  0
 43 91  1  0
 44 92  1  0
 44 93  1  0
 44 94  1  0
 45 95  1  0
 45 96  1  0
 45 97  1  0
M  END
$$$$
