
     RDKit          3D

 80 83  0  0  0  0  0  0  0  0999 V2000
   -9.0896    0.7589    0.4794 C   0  0  0  0  0  0  0  0  0  0  0  0
   -7.9377   -0.0417    0.7293 O   0  0  0  0  0  0  0  0  0  0  0  0
   -6.6608    0.1970    0.1946 C   0  0  0  0  0  0  0  0  0  0  0  0
   -6.4150    1.3012   -0.6454 C   0  0  0  0  0  0  0  0  0  0  0  0
   -5.1457    1.5213   -1.2063 C   0  0  0  0  0  0  0  0  0  0  0  0
   -4.9557    2.6932   -2.1391 C   0  0  0  0  0  0  0  0  0  0  0  0
   -4.0753    0.6551   -0.8753 C   0  0  0  0  0  0  0  0  0  0  0  0
   -2.6930    0.8444   -1.4730 C   0  0  0  0  0  0  0  0  0  0  0  0
   -1.6424    0.4424   -0.5378 N   0  0  0  0  0  0  0  0  0  0  0  0
   -0.8606   -0.7477   -0.7046 C   0  0  0  0  0  0  0  0  0  0  0  0
   -1.2030   -1.6137   -1.5528 O   0  0  0  0  0  0  0  0  0  0  0  0
    0.3590   -0.9877    0.1532 C   0  0  0  0  0  0  0  0  0  0  0  0
    1.5875   -0.3469   -0.3728 N   0  0  0  0  0  0  0  0  0  0  0  0
    1.4617    1.1215   -0.4924 C   0  0  0  0  0  0  0  0  0  0  0  0
    2.8144    1.7844   -0.2171 C   0  0  0  0  0  0  0  0  0  0  0  0
    2.7785    3.2970   -0.4756 C   0  0  0  0  0  0  0  0  0  0  0  0
    3.9509    4.0324    0.1866 C   0  0  0  0  0  0  0  0  0  0  0  0
    5.3379    3.7011   -0.4157 C   0  0  0  0  0  0  0  0  0  0  0  0
    6.1740    2.7445    0.4500 C   0  0  0  0  0  0  0  0  0  0  0  0
    5.7301    1.3991    0.2880 O   0  0  0  0  0  0  0  0  0  0  0  0
    6.1349    0.3259    1.0966 C   0  0  0  0  0  0  0  0  0  0  0  0
    7.1741    0.4607    2.0368 C   0  0  0  0  0  0  0  0  0  0  0  0
    7.5273   -0.6070    2.8619 C   0  0  0  0  0  0  0  0  0  0  0  0
    6.8335   -1.8111    2.7760 C   0  0  0  0  0  0  0  0  0  0  0  0
    5.7976   -1.9578    1.8500 C   0  0  0  0  0  0  0  0  0  0  0  0
    5.4705   -0.9099    0.9658 C   0  0  0  0  0  0  0  0  0  0  0  0
    4.4641   -1.0371   -0.0102 O   0  0  0  0  0  0  0  0  0  0  0  0
    4.0157   -2.2330   -0.5996 C   0  0  0  0  0  0  0  0  0  0  0  0
    4.7402   -3.3801   -0.4836 N   0  0  0  0  0  0  0  0  0  0  0  0
    4.3346   -4.5542   -1.0322 C   0  0  0  0  0  0  0  0  0  0  0  0
    3.1427   -4.6122   -1.7498 C   0  0  0  0  0  0  0  0  0  0  0  0
    2.3910   -3.4515   -1.9178 C   0  0  0  0  0  0  0  0  0  0  0  0
    2.8234   -2.2412   -1.3544 C   0  0  0  0  0  0  0  0  0  0  0  0
    2.0624   -0.9688   -1.6282 C   0  0  0  0  0  0  0  0  0  0  0  0
   -4.3327   -0.4578   -0.0563 C   0  0  0  0  0  0  0  0  0  0  0  0
   -5.6058   -0.6951    0.4934 C   0  0  0  0  0  0  0  0  0  0  0  0
   -5.8058   -1.9358    1.3553 C   0  0  0  0  0  0  0  0  0  0  0  0
   -6.2752   -1.5923    2.7751 C   0  0  0  0  0  0  0  0  0  0  0  0
   -6.7405   -2.9436    0.6768 C   0  0  0  0  0  0  0  0  0  0  0  0
   -9.3090    0.7821   -0.6093 H   0  0  0  0  0  0  0  0  0  0  0  0
   -9.9612    0.3220    1.0095 H   0  0  0  0  0  0  0  0  0  0  0  0
   -8.9269    1.7904    0.8582 H   0  0  0  0  0  0  0  0  0  0  0  0
   -7.2173    1.9864   -0.8873 H   0  0  0  0  0  0  0  0  0  0  0  0
   -4.4572    2.3547   -3.0719 H   0  0  0  0  0  0  0  0  0  0  0  0
   -4.3314    3.4692   -1.6440 H   0  0  0  0  0  0  0  0  0  0  0  0
   -5.9240    3.1549   -2.4258 H   0  0  0  0  0  0  0  0  0  0  0  0
   -2.5104    1.9086   -1.7296 H   0  0  0  0  0  0  0  0  0  0  0  0
   -2.6253    0.2645   -2.4192 H   0  0  0  0  0  0  0  0  0  0  0  0
   -1.5343    0.9994    0.3405 H   0  0  0  0  0  0  0  0  0  0  0  0
    0.1603   -0.6178    1.1829 H   0  0  0  0  0  0  0  0  0  0  0  0
    0.5244   -2.0832    0.2585 H   0  0  0  0  0  0  0  0  0  0  0  0
    1.0753    1.4089   -1.4987 H   0  0  0  0  0  0  0  0  0  0  0  0
    0.7515    1.5190    0.2673 H   0  0  0  0  0  0  0  0  0  0  0  0
    3.0882    1.5831    0.8434 H   0  0  0  0  0  0  0  0  0  0  0  0
    3.5825    1.3413   -0.8818 H   0  0  0  0  0  0  0  0  0  0  0  0
    2.7739    3.4903   -1.5709 H   0  0  0  0  0  0  0  0  0  0  0  0
    1.8380    3.7212   -0.0584 H   0  0  0  0  0  0  0  0  0  0  0  0
    3.9355    3.8600    1.2864 H   0  0  0  0  0  0  0  0  0  0  0  0
    3.7672    5.1179    0.0467 H   0  0  0  0  0  0  0  0  0  0  0  0
    5.9068    4.6501   -0.4828 H   0  0  0  0  0  0  0  0  0  0  0  0
    5.2483    3.3014   -1.4453 H   0  0  0  0  0  0  0  0  0  0  0  0
    6.0993    3.0408    1.5208 H   0  0  0  0  0  0  0  0  0  0  0  0
    7.2413    2.8086    0.1392 H   0  0  0  0  0  0  0  0  0  0  0  0
    7.7178    1.3888    2.1408 H   0  0  0  0  0  0  0  0  0  0  0  0
    8.3275   -0.4921    3.5833 H   0  0  0  0  0  0  0  0  0  0  0  0
    7.0905   -2.6291    3.4372 H   0  0  0  0  0  0  0  0  0  0  0  0
    5.2434   -2.8821    1.8542 H   0  0  0  0  0  0  0  0  0  0  0  0
    4.9362   -5.4424   -0.9054 H   0  0  0  0  0  0  0  0  0  0  0  0
    2.8127   -5.5447   -2.1889 H   0  0  0  0  0  0  0  0  0  0  0  0
    1.4781   -3.4939   -2.4964 H   0  0  0  0  0  0  0  0  0  0  0  0
    2.7531   -0.2981   -2.1750 H   0  0  0  0  0  0  0  0  0  0  0  0
    1.2190   -1.1475   -2.3277 H   0  0  0  0  0  0  0  0  0  0  0  0
   -3.5336   -1.1555    0.1548 H   0  0  0  0  0  0  0  0  0  0  0  0
   -4.8280   -2.4576    1.4778 H   0  0  0  0  0  0  0  0  0  0  0  0
   -6.2371   -2.5011    3.4140 H   0  0  0  0  0  0  0  0  0  0  0  0
   -5.6128   -0.8256    3.2250 H   0  0  0  0  0  0  0  0  0  0  0  0
   -7.3190   -1.2226    2.7893 H   0  0  0  0  0  0  0  0  0  0  0  0
   -6.3470   -3.2099   -0.3276 H   0  0  0  0  0  0  0  0  0  0  0  0
   -7.7684   -2.5389    0.5634 H   0  0  0  0  0  0  0  0  0  0  0  0
   -6.7953   -3.8752    1.2824 H   0  0  0  0  0  0  0  0  0  0  0  0
  1  2  1  0
  2  3  1  0
  3  4  2  0
  4  5  1  0
  5  6  1  0
  5  7  2  0
  7  8  1  0
  8  9  1  0
  9 10  1  0
 10 11  2  0
 10 12  1  0
 12 13  1  0
 13 14  1  0
 14 15  1  0
 15 16  1  0
 16 17  1  0
 17 18  1  0
 18 19  1  0
 19 20  1  0
 20 21  1  0
 21 22  2  0
 22 23  1  0
 23 24  2  0
 24 25  1  0
 25 26  2  0
 26 27  1  0
 27 28  1  0
 28 29  2  0
 29 30  1  0
 30 31  2  0
 31 32  1  0
 32 33  2  0
 33 34  1  0
  7 35  1  0
 35 36  2  0
 36 37  1  0
 37 38  1  0
 37 39  1  0
 36  3  1  0
 34 13  1  0
 26 21  1  0
 33 28  1  0
  1 40  1  0
  1 41  1  0
  1 42  1  0
  4 43  1  0
  6 44  1  0
  6 45  1  0
  6 46  1  0
  8 47  1  0
  8 48  1  0
  9 49  1  0
 12 50  1  0
 12 51  1  0
 14 52  1  0
 14 53  1  0
 15 54  1  0
 15 55  1  0
 16 56  1  0
 16 57  1  0
 17 58  1  0
 17 59  1  0
 18 60  1  0
 18 61  1  0
 19 62  1  0
 19 63  1  0
 22 64  1  0
 23 65  1  0
 24 66  1  0
 25 67  1  0
 30 68  1  0
 31 69  1  0
 32 70  1  0
 34 71  1  0
 34 72  1  0
 35 73  1  0
 37 74  1  0
 38 75  1  0
 38 76  1  0
 38 77  1  0
 39 78  1  0
 39 79  1  0
 39 80  1  0
M  END
$$$$
