
     RDKit          3D

 78 81  0  0  0  0  0  0  0  0999 V2000
   -5.6703   -0.3585   -1.4059 C   0  0  0  0  0  0  0  0  0  0  0  0
   -4.8583   -0.5316   -0.2023 N   0  0  0  0  0  0  0  0  0  0  0  0
   -5.1386   -1.6556    0.6977 C   0  0  0  0  0  0  0  0  0  0  0  0
   -3.8533   -2.3922    1.0761 C   0  0  0  0  0  0  0  0  0  0  0  0
   -3.2102   -2.8946   -0.0959 O   0  0  0  0  0  0  0  0  0  0  0  0
   -2.2006   -3.8702   -0.0817 C   0  0  0  0  0  0  0  0  0  0  0  0
   -2.2679   -4.8880   -1.0421 C   0  0  0  0  0  0  0  0  0  0  0  0
   -1.3419   -5.9338   -1.0394 C   0  0  0  0  0  0  0  0  0  0  0  0
   -0.3297   -5.9682   -0.0799 C   0  0  0  0  0  0  0  0  0  0  0  0
   -0.2236   -4.9425    0.8603 C   0  0  0  0  0  0  0  0  0  0  0  0
   -1.1368   -3.8764    0.8553 C   0  0  0  0  0  0  0  0  0  0  0  0
   -0.8707   -2.7289    1.7343 C   0  0  0  0  0  0  0  0  0  0  0  0
   -1.0195   -2.8524    2.9801 O   0  0  0  0  0  0  0  0  0  0  0  0
   -0.4551   -1.4704    1.1875 N   0  0  0  0  0  0  0  0  0  0  0  0
    0.5549   -1.3927    0.1250 C   0  0  0  0  0  0  0  0  0  0  0  0
    1.9188   -1.1406    0.7314 C   0  0  0  0  0  0  0  0  0  0  0  0
    1.9919   -0.4463    1.7829 O   0  0  0  0  0  0  0  0  0  0  0  0
    3.1359   -1.6048    0.0999 N   0  0  0  0  0  0  0  0  0  0  0  0
    3.0953   -2.5837   -0.9933 C   0  0  0  0  0  0  0  0  0  0  0  0
    4.4343   -1.1020    0.5737 C   0  0  0  0  0  0  0  0  0  0  0  0
    4.6550    0.3319    0.0968 C   0  0  0  0  0  0  0  0  0  0  0  0
    5.9239    0.7941    0.5511 O   0  0  0  0  0  0  0  0  0  0  0  0
    6.4319    2.0785    0.3071 C   0  0  0  0  0  0  0  0  0  0  0  0
    5.7110    3.0494   -0.4179 C   0  0  0  0  0  0  0  0  0  0  0  0
    6.2591    4.3172   -0.6331 C   0  0  0  0  0  0  0  0  0  0  0  0
    7.5256    4.6275   -0.1325 C   0  0  0  0  0  0  0  0  0  0  0  0
    8.2467    3.6703    0.5858 C   0  0  0  0  0  0  0  0  0  0  0  0
    7.7018    2.4012    0.8062 C   0  0  0  0  0  0  0  0  0  0  0  0
    8.4102    1.4796    1.5049 F   0  0  0  0  0  0  0  0  0  0  0  0
    0.2114   -0.2766   -0.8747 C   0  0  0  0  0  0  0  0  0  0  0  0
   -0.9871   -0.6516   -1.7082 C   0  0  0  0  0  0  0  0  0  0  0  0
   -0.8052   -1.4113   -2.6982 O   0  0  0  0  0  0  0  0  0  0  0  0
   -2.3289   -0.2355   -1.3974 N   0  0  0  0  0  0  0  0  0  0  0  0
   -2.6883    0.8350   -0.4568 C   0  0  0  0  0  0  0  0  0  0  0  0
   -2.7418    2.1755   -1.2125 C   0  0  0  0  0  0  0  0  0  0  0  0
   -2.8061    3.3562   -0.2773 C   0  0  0  0  0  0  0  0  0  0  0  0
   -1.6493    3.7884    0.3933 C   0  0  0  0  0  0  0  0  0  0  0  0
   -1.7093    4.8742    1.2723 C   0  0  0  0  0  0  0  0  0  0  0  0
   -2.9221    5.5342    1.4887 C   0  0  0  0  0  0  0  0  0  0  0  0
   -4.0788    5.1059    0.8305 C   0  0  0  0  0  0  0  0  0  0  0  0
   -4.0235    4.0205   -0.0492 C   0  0  0  0  0  0  0  0  0  0  0  0
   -3.9966    0.5286    0.2413 C   0  0  0  0  0  0  0  0  0  0  0  0
   -4.3001    1.1688    1.2842 O   0  0  0  0  0  0  0  0  0  0  0  0
   -5.3166    0.5039   -2.0076 H   0  0  0  0  0  0  0  0  0  0  0  0
   -6.7273   -0.1771   -1.1194 H   0  0  0  0  0  0  0  0  0  0  0  0
   -5.6118   -1.2726   -2.0322 H   0  0  0  0  0  0  0  0  0  0  0  0
   -5.6259   -1.2743    1.6216 H   0  0  0  0  0  0  0  0  0  0  0  0
   -5.8391   -2.3748    0.2189 H   0  0  0  0  0  0  0  0  0  0  0  0
   -4.1086   -3.2359    1.7530 H   0  0  0  0  0  0  0  0  0  0  0  0
   -3.1930   -1.6882    1.6180 H   0  0  0  0  0  0  0  0  0  0  0  0
   -3.0607   -4.8818   -1.7790 H   0  0  0  0  0  0  0  0  0  0  0  0
   -1.4142   -6.7225   -1.7768 H   0  0  0  0  0  0  0  0  0  0  0  0
    0.3865   -6.7782   -0.0785 H   0  0  0  0  0  0  0  0  0  0  0  0
    0.5971   -4.9566    1.5675 H   0  0  0  0  0  0  0  0  0  0  0  0
   -0.6408   -0.6142    1.7571 H   0  0  0  0  0  0  0  0  0  0  0  0
    0.5739   -2.3533   -0.4294 H   0  0  0  0  0  0  0  0  0  0  0  0
    2.5085   -2.1790   -1.8444 H   0  0  0  0  0  0  0  0  0  0  0  0
    2.6336   -3.5280   -0.6345 H   0  0  0  0  0  0  0  0  0  0  0  0
    4.1118   -2.8206   -1.3706 H   0  0  0  0  0  0  0  0  0  0  0  0
    5.2682   -1.7354    0.1999 H   0  0  0  0  0  0  0  0  0  0  0  0
    4.4757   -1.1434    1.6849 H   0  0  0  0  0  0  0  0  0  0  0  0
    3.8554    0.9882    0.5023 H   0  0  0  0  0  0  0  0  0  0  0  0
    4.6248    0.3575   -1.0152 H   0  0  0  0  0  0  0  0  0  0  0  0
    4.7295    2.8345   -0.8177 H   0  0  0  0  0  0  0  0  0  0  0  0
    5.7012    5.0597   -1.1892 H   0  0  0  0  0  0  0  0  0  0  0  0
    7.9482    5.6093   -0.3018 H   0  0  0  0  0  0  0  0  0  0  0  0
    9.2282    3.9127    0.9720 H   0  0  0  0  0  0  0  0  0  0  0  0
    0.0880    0.6976   -0.3628 H   0  0  0  0  0  0  0  0  0  0  0  0
    1.0691   -0.1380   -1.5683 H   0  0  0  0  0  0  0  0  0  0  0  0
   -3.0597   -0.5521   -2.0729 H   0  0  0  0  0  0  0  0  0  0  0  0
   -1.9283    0.8987    0.3455 H   0  0  0  0  0  0  0  0  0  0  0  0
   -3.6043    2.1839   -1.9130 H   0  0  0  0  0  0  0  0  0  0  0  0
   -1.8287    2.2753   -1.8385 H   0  0  0  0  0  0  0  0  0  0  0  0
   -0.7043    3.2844    0.2340 H   0  0  0  0  0  0  0  0  0  0  0  0
   -0.8154    5.2055    1.7844 H   0  0  0  0  0  0  0  0  0  0  0  0
   -2.9665    6.3766    2.1672 H   0  0  0  0  0  0  0  0  0  0  0  0
   -5.0200    5.6140    1.0045 H   0  0  0  0  0  0  0  0  0  0  0  0
   -4.9289    3.6958   -0.5471 H   0  0  0  0  0  0  0  0  0  0  0  0
  1  2  1  0
  2  3  1  0
  3  4  1  0
  4  5  1  0
  5  6  1  0
  6  7  2  0
  7  8  1  0
  8  9  2  0
  9 10  1  0
 10 11  2  0
 11 12  1  0
 12 13  2  0
 12 14  1  0
 14 15  1  0
 15 16  1  0
 16 17  2  0
 16 18  1  0
 18 19  1  0
 18 20  1  0
 20 21  1  0
 21 22  1  0
 22 23  1  0
 23 24  2  0
 24 25  1  0
 25 26  2  0
 26 27  1  0
 27 28  2  0
 28 29  1  0
 15 30  1  0
 30 31  1  0
 31 32  2  0
 31 33  1  0
 33 34  1  0
 34 35  1  0
 35 36  1  0
 36 37  2  0
 37 38  1  0
 38 39  2  0
 39 40  1  0
 40 41  2  0
 34 42  1  0
 42 43  2  0
 42  2  1  0
 11  6  1  0
 28 23  1  0
 41 36  1  0
  1 44  1  0
  1 45  1  0
  1 46  1  0
  3 47  1  0
  3 48  1  0
  4 49  1  0
  4 50  1  0
  7 51  1  0
  8 52  1  0
  9 53  1  0
 10 54  1  0
 14 55  1  0
 15 56  1  0
 19 57  1  0
 19 58  1  0
 19 59  1  0
 20 60  1  0
 20 61  1  0
 21 62  1  0
 21 63  1  0
 24 64  1  0
 25 65  1  0
 26 66  1  0
 27 67  1  0
 30 68  1  0
 30 69  1  0
 33 70  1  0
 34 71  1  0
 35 72  1  0
 35 73  1  0
 37 74  1  0
 38 75  1  0
 39 76  1  0
 40 77  1  0
 41 78  1  0
M  END
$$$$
