
     RDKit          3D

 70 73  0  0  0  0  0  0  0  0999 V2000
    4.5203    1.3522    1.2985 O   0  0  0  0  0  0  0  0  0  0  0  0
    4.1202    0.9661    2.4314 C   0  0  0  0  0  0  0  0  0  0  0  0
    2.6521    0.9720    2.7375 C   0  0  0  0  0  0  0  0  0  0  0  0
    1.8656    0.3168    1.6326 C   0  0  0  0  0  0  0  0  0  0  0  0
    1.6252   -1.0630    1.6536 C   0  0  0  0  0  0  0  0  0  0  0  0
    0.8604   -1.6615    0.6505 C   0  0  0  0  0  0  0  0  0  0  0  0
    0.3224   -0.8859   -0.3948 C   0  0  0  0  0  0  0  0  0  0  0  0
    0.6121    0.4919   -0.4521 C   0  0  0  0  0  0  0  0  0  0  0  0
    1.3858    1.0819    0.5609 C   0  0  0  0  0  0  0  0  0  0  0  0
    0.0683    1.3448   -1.5754 C   0  0  0  0  0  0  0  0  0  0  0  0
   -1.3894    1.5588   -1.4150 N   0  0  0  0  0  0  0  0  0  0  0  0
   -1.6487    2.5906   -0.3800 C   0  0  0  0  0  0  0  0  0  0  0  0
   -2.9916    2.3637    0.2581 C   0  0  0  0  0  0  0  0  0  0  0  0
   -3.1780    1.2849    1.1394 C   0  0  0  0  0  0  0  0  0  0  0  0
   -4.4294    1.0641    1.7234 C   0  0  0  0  0  0  0  0  0  0  0  0
   -5.4982    1.9199    1.4373 C   0  0  0  0  0  0  0  0  0  0  0  0
   -5.3178    3.0002    0.5683 C   0  0  0  0  0  0  0  0  0  0  0  0
   -4.0711    3.2205   -0.0239 C   0  0  0  0  0  0  0  0  0  0  0  0
   -1.9999    1.9663   -2.7025 C   0  0  0  0  0  0  0  0  0  0  0  0
   -2.2050    0.7835   -3.6141 C   0  0  0  0  0  0  0  0  0  0  0  0
   -1.3678    0.5802   -4.5351 O   0  0  0  0  0  0  0  0  0  0  0  0
   -3.3447   -0.0848   -3.5106 N   0  0  0  0  0  0  0  0  0  0  0  0
   -4.2359   -0.1637   -2.3568 C   0  0  0  0  0  0  0  0  0  0  0  0
   -3.6842   -1.0989   -1.2739 C   0  0  0  0  0  0  0  0  0  0  0  0
   -3.5252   -2.5648   -1.7309 C   0  0  0  0  0  0  0  0  0  0  0  0
   -2.1618   -2.9085   -2.3667 C   0  0  0  0  0  0  0  0  0  0  0  0
   -0.9868   -2.7844   -1.3885 C   0  0  0  0  0  0  0  0  0  0  0  0
   -0.5073   -1.4415   -1.3812 O   0  0  0  0  0  0  0  0  0  0  0  0
    5.0670    0.5770    3.4388 N   0  0  0  0  0  0  0  0  0  0  0  0
    6.5048    0.4869    3.1801 C   0  0  0  0  0  0  0  0  0  0  0  0
    6.9256   -0.9687    2.9616 C   0  0  0  0  0  0  0  0  0  0  0  0
    6.2309   -1.5649    1.7765 C   0  0  0  0  0  0  0  0  0  0  0  0
    5.1074   -2.3120    1.8680 N   0  0  0  0  0  0  0  0  0  0  0  0
    4.6528   -2.6951    0.6451 C   0  0  0  0  0  0  0  0  0  0  0  0
    5.4074   -2.2448   -0.4323 C   0  0  0  0  0  0  0  0  0  0  0  0
    6.6825   -1.3281    0.1743 S   0  0  0  0  0  0  0  0  0  0  0  0
    2.4542    0.4508    3.6996 H   0  0  0  0  0  0  0  0  0  0  0  0
    2.3194    2.0227    2.8717 H   0  0  0  0  0  0  0  0  0  0  0  0
    2.0206   -1.6709    2.4569 H   0  0  0  0  0  0  0  0  0  0  0  0
    0.6884   -2.7277    0.7005 H   0  0  0  0  0  0  0  0  0  0  0  0
    1.5983    2.1442    0.5291 H   0  0  0  0  0  0  0  0  0  0  0  0
    0.6041    2.3193   -1.6354 H   0  0  0  0  0  0  0  0  0  0  0  0
    0.2885    0.8186   -2.5272 H   0  0  0  0  0  0  0  0  0  0  0  0
   -0.8973    2.5516    0.4364 H   0  0  0  0  0  0  0  0  0  0  0  0
   -1.5750    3.6173   -0.8073 H   0  0  0  0  0  0  0  0  0  0  0  0
   -2.3589    0.6097    1.3657 H   0  0  0  0  0  0  0  0  0  0  0  0
   -4.5738    0.2247    2.3923 H   0  0  0  0  0  0  0  0  0  0  0  0
   -6.4663    1.7503    1.8898 H   0  0  0  0  0  0  0  0  0  0  0  0
   -6.1455    3.6616    0.3452 H   0  0  0  0  0  0  0  0  0  0  0  0
   -3.9467    4.0592   -0.6995 H   0  0  0  0  0  0  0  0  0  0  0  0
   -1.3628    2.7261   -3.2154 H   0  0  0  0  0  0  0  0  0  0  0  0
   -2.9839    2.4560   -2.5500 H   0  0  0  0  0  0  0  0  0  0  0  0
   -3.5336   -0.7324   -4.3076 H   0  0  0  0  0  0  0  0  0  0  0  0
   -5.2261   -0.5400   -2.6877 H   0  0  0  0  0  0  0  0  0  0  0  0
   -4.4116    0.8416   -1.9311 H   0  0  0  0  0  0  0  0  0  0  0  0
   -2.7415   -0.6923   -0.8711 H   0  0  0  0  0  0  0  0  0  0  0  0
   -4.4092   -1.0847   -0.4322 H   0  0  0  0  0  0  0  0  0  0  0  0
   -4.3318   -2.8205   -2.4521 H   0  0  0  0  0  0  0  0  0  0  0  0
   -3.6750   -3.2291   -0.8506 H   0  0  0  0  0  0  0  0  0  0  0  0
   -1.9709   -2.2945   -3.2687 H   0  0  0  0  0  0  0  0  0  0  0  0
   -2.2100   -3.9641   -2.7099 H   0  0  0  0  0  0  0  0  0  0  0  0
   -1.3123   -3.0976   -0.3708 H   0  0  0  0  0  0  0  0  0  0  0  0
   -0.1550   -3.4475   -1.7205 H   0  0  0  0  0  0  0  0  0  0  0  0
    4.7154    0.2266    4.3572 H   0  0  0  0  0  0  0  0  0  0  0  0
    7.0533    0.8886    4.0590 H   0  0  0  0  0  0  0  0  0  0  0  0
    6.7965    1.1060    2.3038 H   0  0  0  0  0  0  0  0  0  0  0  0
    6.6923   -1.5666    3.8696 H   0  0  0  0  0  0  0  0  0  0  0  0
    8.0237   -1.0104    2.8001 H   0  0  0  0  0  0  0  0  0  0  0  0
    3.7637   -3.3054    0.5294 H   0  0  0  0  0  0  0  0  0  0  0  0
    5.2010   -2.4433   -1.4761 H   0  0  0  0  0  0  0  0  0  0  0  0
  1  2  2  0
  2  3  1  0
  3  4  1  0
  4  5  2  0
  5  6  1  0
  6  7  2  0
  7  8  1  0
  8  9  2  0
  8 10  1  0
 10 11  1  0
 11 12  1  0
 12 13  1  0
 13 14  2  0
 14 15  1  0
 15 16  2  0
 16 17  1  0
 17 18  2  0
 11 19  1  0
 19 20  1  0
 20 21  2  0
 20 22  1  0
 22 23  1  0
 23 24  1  0
 24 25  1  0
 25 26  1  0
 26 27  1  0
 27 28  1  0
  2 29  1  0
 29 30  1  0
 30 31  1  0
 31 32  1  0
 32 33  2  0
 33 34  1  0
 34 35  2  0
 35 36  1  0
  9  4  1  0
 18 13  1  0
 36 32  1  0
 28  7  1  0
  3 37  1  0
  3 38  1  0
  5 39  1  0
  6 40  1  0
  9 41  1  0
 10 42  1  0
 10 43  1  0
 12 44  1  0
 12 45  1  0
 14 46  1  0
 15 47  1  0
 16 48  1  0
 17 49  1  0
 18 50  1  0
 19 51  1  0
 19 52  1  0
 22 53  1  0
 23 54  1  0
 23 55  1  0
 24 56  1  0
 24 57  1  0
 25 58  1  0
 25 59  1  0
 26 60  1  0
 26 61  1  0
 27 62  1  0
 27 63  1  0
 29 64  1  0
 30 65  1  0
 30 66  1  0
 31 67  1  0
 31 68  1  0
 34 69  1  0
 35 70  1  0
M  END
$$$$
