
     RDKit          3D

 76 79  0  0  0  0  0  0  0  0999 V2000
   -4.4323    3.1338   -0.5029 O   0  0  0  0  0  0  0  0  0  0  0  0
   -4.1287    1.9730   -0.8899 C   0  0  0  0  0  0  0  0  0  0  0  0
   -4.8443    1.4212   -2.1007 C   0  0  0  0  0  0  0  0  0  0  0  0
   -6.3666    1.4277   -1.9144 C   0  0  0  0  0  0  0  0  0  0  0  0
   -6.7651    0.5498   -0.8146 N   0  0  0  0  0  0  0  0  0  0  0  0
   -6.9398   -0.7809   -0.8643 C   0  0  0  0  0  0  0  0  0  0  0  0
   -7.2628   -1.2101    0.4053 C   0  0  0  0  0  0  0  0  0  0  0  0
   -7.2863   -0.1555    1.2494 N   0  0  0  0  0  0  0  0  0  0  0  0
   -6.9766    0.9020    0.4698 C   0  0  0  0  0  0  0  0  0  0  0  0
   -3.1062    1.2312   -0.1816 N   0  0  0  0  0  0  0  0  0  0  0  0
   -2.6116    1.7233    1.1166 C   0  0  0  0  0  0  0  0  0  0  0  0
   -1.5129    2.7997    0.9624 C   0  0  0  0  0  0  0  0  0  0  0  0
   -0.2197    2.3417    0.2510 C   0  0  0  0  0  0  0  0  0  0  0  0
    0.6073    1.3264    1.0765 C   0  0  0  0  0  0  0  0  0  0  0  0
    1.7580    0.6238    0.2814 C   0  0  0  0  0  0  0  0  0  0  0  0
    2.7622    1.7249   -0.2147 C   0  0  0  0  0  0  0  0  0  0  0  0
    4.1619    1.1709   -0.5763 C   0  0  0  0  0  0  0  0  0  0  0  0
    4.1187   -0.2938   -0.7393 N   0  0  0  0  0  0  0  0  0  0  0  0
    5.3256   -0.8534   -1.3854 C   0  0  0  0  0  0  0  0  0  0  0  0
    6.5945   -0.6224   -0.6007 C   0  0  0  0  0  0  0  0  0  0  0  0
    7.1084   -1.6158    0.2475 C   0  0  0  0  0  0  0  0  0  0  0  0
    8.2845   -1.3696    0.9593 C   0  0  0  0  0  0  0  0  0  0  0  0
    8.9382   -0.1458    0.8171 C   0  0  0  0  0  0  0  0  0  0  0  0
    8.4053    0.8177   -0.0432 C   0  0  0  0  0  0  0  0  0  0  0  0
    7.2583    0.5610   -0.7268 N   0  0  0  0  0  0  0  0  0  0  0  0
    3.7608   -0.9813    0.5197 C   0  0  0  0  0  0  0  0  0  0  0  0
    2.5789   -0.2891    1.2360 C   0  0  0  0  0  0  0  0  0  0  0  0
    1.1912   -0.1786   -0.9173 C   0  0  0  0  0  0  0  0  0  0  0  0
    1.4218    0.2456   -2.0817 O   0  0  0  0  0  0  0  0  0  0  0  0
    0.3745   -1.3258   -0.8354 O   0  0  0  0  0  0  0  0  0  0  0  0
    0.0432   -2.1138    0.3086 C   0  0  0  0  0  0  0  0  0  0  0  0
   -1.2581   -2.9176    0.0692 C   0  0  0  0  0  0  0  0  0  0  0  0
   -1.3499   -3.3415   -1.2674 O   0  0  0  0  0  0  0  0  0  0  0  0
   -2.5689   -2.1784    0.5090 C   0  0  0  0  0  0  0  0  0  0  0  0
   -3.5253   -3.1294    0.9075 O   0  0  0  0  0  0  0  0  0  0  0  0
   -3.2092   -1.2431   -0.5558 C   0  0  0  0  0  0  0  0  0  0  0  0
   -2.4394    0.0681   -0.7852 C   0  0  0  0  0  0  0  0  0  0  0  0
   -4.5892    2.0569   -2.9748 H   0  0  0  0  0  0  0  0  0  0  0  0
   -4.5291    0.3903   -2.3455 H   0  0  0  0  0  0  0  0  0  0  0  0
   -6.8472    1.0791   -2.8543 H   0  0  0  0  0  0  0  0  0  0  0  0
   -6.7283    2.4627   -1.7241 H   0  0  0  0  0  0  0  0  0  0  0  0
   -6.8249   -1.3941   -1.7500 H   0  0  0  0  0  0  0  0  0  0  0  0
   -7.4619   -2.2322    0.7011 H   0  0  0  0  0  0  0  0  0  0  0  0
   -6.8970    1.9161    0.8413 H   0  0  0  0  0  0  0  0  0  0  0  0
   -2.2495    0.8785    1.7374 H   0  0  0  0  0  0  0  0  0  0  0  0
   -3.4574    2.1584    1.6920 H   0  0  0  0  0  0  0  0  0  0  0  0
   -1.9357    3.6564    0.3961 H   0  0  0  0  0  0  0  0  0  0  0  0
   -1.2481    3.1819    1.9717 H   0  0  0  0  0  0  0  0  0  0  0  0
    0.4061    3.2449    0.0884 H   0  0  0  0  0  0  0  0  0  0  0  0
   -0.4605    1.9553   -0.7583 H   0  0  0  0  0  0  0  0  0  0  0  0
   -0.0634    0.5759    1.5172 H   0  0  0  0  0  0  0  0  0  0  0  0
    1.0394    1.8669    1.9470 H   0  0  0  0  0  0  0  0  0  0  0  0
    2.3450    2.2800   -1.0838 H   0  0  0  0  0  0  0  0  0  0  0  0
    2.9065    2.4879    0.5840 H   0  0  0  0  0  0  0  0  0  0  0  0
    4.8822    1.4450    0.2282 H   0  0  0  0  0  0  0  0  0  0  0  0
    4.5058    1.6525   -1.5184 H   0  0  0  0  0  0  0  0  0  0  0  0
    5.1797   -1.9424   -1.5613 H   0  0  0  0  0  0  0  0  0  0  0  0
    5.4401   -0.4038   -2.3953 H   0  0  0  0  0  0  0  0  0  0  0  0
    6.6037   -2.5669    0.3563 H   0  0  0  0  0  0  0  0  0  0  0  0
    8.6883   -2.1268    1.6192 H   0  0  0  0  0  0  0  0  0  0  0  0
    9.8518    0.0537    1.3620 H   0  0  0  0  0  0  0  0  0  0  0  0
    8.9029    1.7704   -0.1682 H   0  0  0  0  0  0  0  0  0  0  0  0
    4.6241   -1.0164    1.2176 H   0  0  0  0  0  0  0  0  0  0  0  0
    3.4697   -2.0274    0.2833 H   0  0  0  0  0  0  0  0  0  0  0  0
    2.9983    0.3452    2.0492 H   0  0  0  0  0  0  0  0  0  0  0  0
    1.9665   -1.0445    1.7591 H   0  0  0  0  0  0  0  0  0  0  0  0
   -0.0897   -1.5083    1.2152 H   0  0  0  0  0  0  0  0  0  0  0  0
    0.8793   -2.8224    0.4894 H   0  0  0  0  0  0  0  0  0  0  0  0
   -1.1803   -3.8196    0.7216 H   0  0  0  0  0  0  0  0  0  0  0  0
   -0.6492   -4.0325   -1.3997 H   0  0  0  0  0  0  0  0  0  0  0  0
   -2.3522   -1.5681    1.4121 H   0  0  0  0  0  0  0  0  0  0  0  0
   -3.7430   -3.6854    0.1128 H   0  0  0  0  0  0  0  0  0  0  0  0
   -4.2406   -0.9983   -0.2252 H   0  0  0  0  0  0  0  0  0  0  0  0
   -3.3125   -1.7846   -1.5216 H   0  0  0  0  0  0  0  0  0  0  0  0
   -2.2681    0.2426   -1.8693 H   0  0  0  0  0  0  0  0  0  0  0  0
   -1.4518   -0.0228   -0.3358 H   0  0  0  0  0  0  0  0  0  0  0  0
  1  2  2  0
  2  3  1  0
  3  4  1  0
  4  5  1  0
  5  6  1  0
  6  7  2  0
  7  8  1  0
  8  9  2  0
  2 10  1  0
 10 11  1  0
 11 12  1  0
 12 13  1  0
 13 14  1  0
 14 15  1  0
 15 16  1  0
 16 17  1  0
 17 18  1  0
 18 19  1  0
 19 20  1  0
 20 21  2  0
 21 22  1  0
 22 23  2  0
 23 24  1  0
 24 25  2  0
 18 26  1  0
 26 27  1  0
 15 28  1  0
 28 29  2  0
 28 30  1  0
 30 31  1  0
 31 32  1  0
 32 33  1  0
 32 34  1  0
 34 35  1  0
 34 36  1  0
 36 37  1  0
  9  5  1  0
 37 10  1  0
 27 15  1  0
 25 20  1  0
  3 38  1  0
  3 39  1  0
  4 40  1  0
  4 41  1  0
  6 42  1  0
  7 43  1  0
  9 44  1  0
 11 45  1  0
 11 46  1  0
 12 47  1  0
 12 48  1  0
 13 49  1  0
 13 50  1  0
 14 51  1  0
 14 52  1  0
 16 53  1  0
 16 54  1  0
 17 55  1  0
 17 56  1  0
 19 57  1  0
 19 58  1  0
 21 59  1  0
 22 60  1  0
 23 61  1  0
 24 62  1  0
 26 63  1  0
 26 64  1  0
 27 65  1  0
 27 66  1  0
 31 67  1  0
 31 68  1  0
 32 69  1  0
 33 70  1  0
 34 71  1  0
 35 72  1  0
 36 73  1  0
 36 74  1  0
 37 75  1  0
 37 76  1  0
M  END
$$$$
