
     RDKit          3D

 84 87  0  0  0  0  0  0  0  0999 V2000
  -10.7514   -0.5838   -3.2645 C   0  0  0  0  0  0  0  0  0  0  0  0
   -9.5469    0.1215   -2.9702 O   0  0  0  0  0  0  0  0  0  0  0  0
   -8.5787   -0.3194   -2.0556 C   0  0  0  0  0  0  0  0  0  0  0  0
   -8.6701   -1.5613   -1.3946 C   0  0  0  0  0  0  0  0  0  0  0  0
   -7.6712   -1.9578   -0.5024 C   0  0  0  0  0  0  0  0  0  0  0  0
   -6.5829   -1.1182   -0.2474 C   0  0  0  0  0  0  0  0  0  0  0  0
   -6.4882    0.1280   -0.8841 C   0  0  0  0  0  0  0  0  0  0  0  0
   -5.3224    1.0375   -0.5975 C   0  0  0  0  0  0  0  0  0  0  0  0
   -4.1995    0.8229   -1.6248 C   0  0  0  0  0  0  0  0  0  0  0  0
   -3.0436    1.8135   -1.4242 C   0  0  0  0  0  0  0  0  0  0  0  0
   -2.3478    1.5478   -0.1630 N   0  0  0  0  0  0  0  0  0  0  0  0
   -1.1103    0.8223   -0.0977 C   0  0  0  0  0  0  0  0  0  0  0  0
   -0.3602    0.7664   -1.1082 O   0  0  0  0  0  0  0  0  0  0  0  0
   -0.6856    0.1689    1.1972 C   0  0  0  0  0  0  0  0  0  0  0  0
    0.5212    0.8860    1.8718 C   0  0  0  0  0  0  0  0  0  0  0  0
    0.6747    2.3562    1.5754 C   0  0  0  0  0  0  0  0  0  0  0  0
   -0.3171    3.1247    1.7533 O   0  0  0  0  0  0  0  0  0  0  0  0
    1.9543    2.9265    1.2180 N   0  0  0  0  0  0  0  0  0  0  0  0
    2.2661    4.3193    1.5047 C   0  0  0  0  0  0  0  0  0  0  0  0
    3.7040    4.5358    1.0473 C   0  0  0  0  0  0  0  0  0  0  0  0
    4.2911    3.1412    0.8320 C   0  0  0  0  0  0  0  0  0  0  0  0
    3.0929    2.2087    0.6327 C   0  0  0  0  0  0  0  0  0  0  0  0
    2.8586    1.9535   -0.8442 C   0  0  0  0  0  0  0  0  0  0  0  0
    2.2385    2.8217   -1.5197 O   0  0  0  0  0  0  0  0  0  0  0  0
    3.4231    0.8231   -1.5422 N   0  0  0  0  0  0  0  0  0  0  0  0
    3.7690   -0.4715   -0.9308 C   0  0  0  0  0  0  0  0  0  0  0  0
    4.7089   -1.2484   -1.8957 C   0  0  0  0  0  0  0  0  0  0  0  0
    5.4494   -2.4439   -1.2398 C   0  0  0  0  0  0  0  0  0  0  0  0
    5.7992   -3.5022   -2.2937 C   0  0  0  0  0  0  0  0  0  0  0  0
    6.7261   -1.9763   -0.5232 C   0  0  0  0  0  0  0  0  0  0  0  0
    2.4574   -1.2598   -0.6721 C   0  0  0  0  0  0  0  0  0  0  0  0
    2.5822   -2.2687    0.3360 O   0  0  0  0  0  0  0  0  0  0  0  0
    2.6435   -1.9954    1.7086 C   0  0  0  0  0  0  0  0  0  0  0  0
    3.8960   -1.8077    2.3104 C   0  0  0  0  0  0  0  0  0  0  0  0
    3.9982   -1.5775    3.6845 C   0  0  0  0  0  0  0  0  0  0  0  0
    2.8528   -1.5631    4.4816 C   0  0  0  0  0  0  0  0  0  0  0  0
    1.5985   -1.7759    3.9018 C   0  0  0  0  0  0  0  0  0  0  0  0
    1.4758   -1.9724    2.5142 C   0  0  0  0  0  0  0  0  0  0  0  0
    0.1254   -2.1486    1.9499 C   0  0  0  0  0  0  0  0  0  0  0  0
   -0.5738   -3.1182    2.3496 O   0  0  0  0  0  0  0  0  0  0  0  0
   -0.4090   -1.2616    0.9498 N   0  0  0  0  0  0  0  0  0  0  0  0
   -7.4806    0.5101   -1.8016 C   0  0  0  0  0  0  0  0  0  0  0  0
  -11.3337   -0.0031   -4.0057 H   0  0  0  0  0  0  0  0  0  0  0  0
  -10.5234   -1.5834   -3.6964 H   0  0  0  0  0  0  0  0  0  0  0  0
  -11.3556   -0.6981   -2.3400 H   0  0  0  0  0  0  0  0  0  0  0  0
   -9.5025   -2.2300   -1.5674 H   0  0  0  0  0  0  0  0  0  0  0  0
   -7.7323   -2.9192   -0.0066 H   0  0  0  0  0  0  0  0  0  0  0  0
   -5.8174   -1.4356    0.4501 H   0  0  0  0  0  0  0  0  0  0  0  0
   -5.6630    2.0970   -0.6276 H   0  0  0  0  0  0  0  0  0  0  0  0
   -4.9472    0.8355    0.4298 H   0  0  0  0  0  0  0  0  0  0  0  0
   -4.6147    0.9663   -2.6496 H   0  0  0  0  0  0  0  0  0  0  0  0
   -3.8125   -0.2189   -1.5533 H   0  0  0  0  0  0  0  0  0  0  0  0
   -2.3444    1.7279   -2.2853 H   0  0  0  0  0  0  0  0  0  0  0  0
   -3.4345    2.8534   -1.4165 H   0  0  0  0  0  0  0  0  0  0  0  0
   -2.8362    1.8031    0.7241 H   0  0  0  0  0  0  0  0  0  0  0  0
   -1.5414    0.2303    1.9048 H   0  0  0  0  0  0  0  0  0  0  0  0
    0.4393    0.7678    2.9726 H   0  0  0  0  0  0  0  0  0  0  0  0
    1.4480    0.3762    1.5903 H   0  0  0  0  0  0  0  0  0  0  0  0
    2.1758    4.5024    2.5972 H   0  0  0  0  0  0  0  0  0  0  0  0
    1.5770    4.9934    0.9516 H   0  0  0  0  0  0  0  0  0  0  0  0
    3.7124    5.0975    0.0857 H   0  0  0  0  0  0  0  0  0  0  0  0
    4.2925    5.0955    1.8076 H   0  0  0  0  0  0  0  0  0  0  0  0
    4.8354    2.8370    1.7529 H   0  0  0  0  0  0  0  0  0  0  0  0
    5.0083    3.1242   -0.0211 H   0  0  0  0  0  0  0  0  0  0  0  0
    3.3026    1.2796    1.1899 H   0  0  0  0  0  0  0  0  0  0  0  0
    3.4206    0.8811   -2.5885 H   0  0  0  0  0  0  0  0  0  0  0  0
    4.3135   -0.2813    0.0126 H   0  0  0  0  0  0  0  0  0  0  0  0
    5.4672   -0.5457   -2.3155 H   0  0  0  0  0  0  0  0  0  0  0  0
    4.1098   -1.5987   -2.7705 H   0  0  0  0  0  0  0  0  0  0  0  0
    4.7940   -2.9357   -0.4933 H   0  0  0  0  0  0  0  0  0  0  0  0
    4.8719   -3.9216   -2.7381 H   0  0  0  0  0  0  0  0  0  0  0  0
    6.4228   -3.0665   -3.1017 H   0  0  0  0  0  0  0  0  0  0  0  0
    6.3572   -4.3434   -1.8288 H   0  0  0  0  0  0  0  0  0  0  0  0
    6.5029   -1.1546    0.1883 H   0  0  0  0  0  0  0  0  0  0  0  0
    7.1721   -2.8217    0.0489 H   0  0  0  0  0  0  0  0  0  0  0  0
    7.4737   -1.6126   -1.2637 H   0  0  0  0  0  0  0  0  0  0  0  0
    1.6538   -0.5543   -0.3933 H   0  0  0  0  0  0  0  0  0  0  0  0
    2.1101   -1.7497   -1.6115 H   0  0  0  0  0  0  0  0  0  0  0  0
    4.7979   -1.8483    1.7161 H   0  0  0  0  0  0  0  0  0  0  0  0
    4.9708   -1.4198    4.1332 H   0  0  0  0  0  0  0  0  0  0  0  0
    2.9368   -1.3985    5.5494 H   0  0  0  0  0  0  0  0  0  0  0  0
    0.7185   -1.7631    4.5346 H   0  0  0  0  0  0  0  0  0  0  0  0
   -0.9908   -1.7254    0.2144 H   0  0  0  0  0  0  0  0  0  0  0  0
   -7.4032    1.4568   -2.3192 H   0  0  0  0  0  0  0  0  0  0  0  0
  1  2  1  0
  2  3  1  0
  3  4  2  0
  4  5  1  0
  5  6  2  0
  6  7  1  0
  7  8  1  0
  8  9  1  0
  9 10  1  0
 10 11  1  0
 11 12  1  0
 12 13  2  0
 12 14  1  0
 14 15  1  0
 15 16  1  0
 16 17  2  0
 16 18  1  0
 18 19  1  0
 19 20  1  0
 20 21  1  0
 21 22  1  0
 22 23  1  0
 23 24  2  0
 23 25  1  0
 25 26  1  0
 26 27  1  0
 27 28  1  0
 28 29  1  0
 28 30  1  0
 26 31  1  0
 31 32  1  0
 32 33  1  0
 33 34  2  0
 34 35  1  0
 35 36  2  0
 36 37  1  0
 37 38  2  0
 38 39  1  0
 39 40  2  0
 39 41  1  0
  7 42  2  0
 42  3  1  0
 41 14  1  0
 22 18  1  0
 38 33  1  0
  1 43  1  0
  1 44  1  0
  1 45  1  0
  4 46  1  0
  5 47  1  0
  6 48  1  0
  8 49  1  0
  8 50  1  0
  9 51  1  0
  9 52  1  0
 10 53  1  0
 10 54  1  0
 11 55  1  0
 14 56  1  0
 15 57  1  0
 15 58  1  0
 19 59  1  0
 19 60  1  0
 20 61  1  0
 20 62  1  0
 21 63  1  0
 21 64  1  0
 22 65  1  0
 25 66  1  0
 26 67  1  0
 27 68  1  0
 27 69  1  0
 28 70  1  0
 29 71  1  0
 29 72  1  0
 29 73  1  0
 30 74  1  0
 30 75  1  0
 30 76  1  0
 31 77  1  0
 31 78  1  0
 34 79  1  0
 35 80  1  0
 36 81  1  0
 37 82  1  0
 41 83  1  0
 42 84  1  0
M  END
$$$$
