
     RDKit          3D

 77 80  0  0  0  0  0  0  0  0999 V2000
   -5.2700    4.5577   -0.8216 C   0  0  0  0  0  0  0  0  0  0  0  0
   -4.3761    3.7328    0.1012 C   0  0  0  0  0  0  0  0  0  0  0  0
   -2.8935    4.0436   -0.1442 C   0  0  0  0  0  0  0  0  0  0  0  0
   -1.9708    3.2594    0.7995 C   0  0  0  0  0  0  0  0  0  0  0  0
   -2.0288    1.8072    0.5585 N   0  0  0  0  0  0  0  0  0  0  0  0
   -2.5592    0.9025    1.6009 C   0  0  0  0  0  0  0  0  0  0  0  0
   -3.7849    0.0955    1.1199 C   0  0  0  0  0  0  0  0  0  0  0  0
   -3.5338   -1.3121    1.2252 O   0  0  0  0  0  0  0  0  0  0  0  0
   -4.2609   -2.2845    0.5149 C   0  0  0  0  0  0  0  0  0  0  0  0
   -5.6140   -2.0717    0.1922 C   0  0  0  0  0  0  0  0  0  0  0  0
   -6.3260   -3.0207   -0.5420 C   0  0  0  0  0  0  0  0  0  0  0  0
   -5.6974   -4.1866   -0.9749 C   0  0  0  0  0  0  0  0  0  0  0  0
   -4.3547   -4.4162   -0.6670 C   0  0  0  0  0  0  0  0  0  0  0  0
   -3.6243   -3.4810    0.0876 C   0  0  0  0  0  0  0  0  0  0  0  0
   -2.1586   -3.7581    0.3674 C   0  0  0  0  0  0  0  0  0  0  0  0
   -1.2141   -3.0899   -0.6551 C   0  0  0  0  0  0  0  0  0  0  0  0
   -1.2342   -1.5734   -0.4761 C   0  0  0  0  0  0  0  0  0  0  0  0
   -0.1598   -0.7967   -1.2416 C   0  0  0  0  0  0  0  0  0  0  0  0
   -0.0839    0.7081   -0.8159 C   0  0  0  0  0  0  0  0  0  0  0  0
    0.7373    0.8096    0.5194 C   0  0  0  0  0  0  0  0  0  0  0  0
    2.1661    0.8687    0.2053 N   0  0  0  0  0  0  0  0  0  0  0  0
    3.1154    0.1050    0.9727 C   0  0  0  0  0  0  0  0  0  0  0  0
    2.9380   -0.0405    2.2150 O   0  0  0  0  0  0  0  0  0  0  0  0
    4.2668   -0.5618    0.3261 C   0  0  0  0  0  0  0  0  0  0  0  0
    4.1514   -1.0888   -0.9707 C   0  0  0  0  0  0  0  0  0  0  0  0
    5.2324   -1.7430   -1.5664 C   0  0  0  0  0  0  0  0  0  0  0  0
    6.4295   -1.9007   -0.8651 C   0  0  0  0  0  0  0  0  0  0  0  0
    6.5505   -1.4138    0.4457 C   0  0  0  0  0  0  0  0  0  0  0  0
    7.8536   -1.5628    1.1875 C   0  0  0  0  0  0  0  0  0  0  0  0
    8.7997   -0.6263    0.7055 O   0  0  0  0  0  0  0  0  0  0  0  0
    8.7460    0.5613    1.4682 C   0  0  0  0  0  0  0  0  0  0  0  0
    5.4660   -0.7444    1.0369 C   0  0  0  0  0  0  0  0  0  0  0  0
    2.6148    1.8661   -0.7714 C   0  0  0  0  0  0  0  0  0  0  0  0
    1.4058    2.4374   -1.5161 C   0  0  0  0  0  0  0  0  0  0  0  0
    0.5484    1.3829   -1.9115 O   0  0  0  0  0  0  0  0  0  0  0  0
   -1.4956    1.2910   -0.6816 C   0  0  0  0  0  0  0  0  0  0  0  0
   -2.2192    1.3395   -1.7143 O   0  0  0  0  0  0  0  0  0  0  0  0
   -6.3344    4.3255   -0.6096 H   0  0  0  0  0  0  0  0  0  0  0  0
   -5.0578    4.3141   -1.8841 H   0  0  0  0  0  0  0  0  0  0  0  0
   -5.1052    5.6431   -0.6529 H   0  0  0  0  0  0  0  0  0  0  0  0
   -4.5748    2.6599   -0.0886 H   0  0  0  0  0  0  0  0  0  0  0  0
   -4.6401    3.9597    1.1576 H   0  0  0  0  0  0  0  0  0  0  0  0
   -2.7198    5.1291    0.0257 H   0  0  0  0  0  0  0  0  0  0  0  0
   -2.6284    3.8272   -1.2008 H   0  0  0  0  0  0  0  0  0  0  0  0
   -2.2374    3.5052    1.8497 H   0  0  0  0  0  0  0  0  0  0  0  0
   -0.9303    3.6157    0.6537 H   0  0  0  0  0  0  0  0  0  0  0  0
   -1.7544    0.2305    1.9567 H   0  0  0  0  0  0  0  0  0  0  0  0
   -2.8644    1.4814    2.5017 H   0  0  0  0  0  0  0  0  0  0  0  0
   -4.0234    0.3473    0.0657 H   0  0  0  0  0  0  0  0  0  0  0  0
   -4.6700    0.3552    1.7386 H   0  0  0  0  0  0  0  0  0  0  0  0
   -6.1238   -1.1747    0.5155 H   0  0  0  0  0  0  0  0  0  0  0  0
   -7.3674   -2.8491   -0.7822 H   0  0  0  0  0  0  0  0  0  0  0  0
   -6.2542   -4.9135   -1.5524 H   0  0  0  0  0  0  0  0  0  0  0  0
   -3.8844   -5.3274   -1.0179 H   0  0  0  0  0  0  0  0  0  0  0  0
   -1.9038   -3.4278    1.3994 H   0  0  0  0  0  0  0  0  0  0  0  0
   -1.9724   -4.8532    0.3436 H   0  0  0  0  0  0  0  0  0  0  0  0
   -0.1819   -3.4663   -0.4845 H   0  0  0  0  0  0  0  0  0  0  0  0
   -1.5190   -3.3491   -1.6902 H   0  0  0  0  0  0  0  0  0  0  0  0
   -2.2158   -1.2119   -0.8410 H   0  0  0  0  0  0  0  0  0  0  0  0
   -1.1118   -1.3725    0.6028 H   0  0  0  0  0  0  0  0  0  0  0  0
   -0.3931   -0.8669   -2.3271 H   0  0  0  0  0  0  0  0  0  0  0  0
    0.8302   -1.2796   -1.0943 H   0  0  0  0  0  0  0  0  0  0  0  0
    0.5272   -0.0397    1.2003 H   0  0  0  0  0  0  0  0  0  0  0  0
    0.4795    1.7301    1.0808 H   0  0  0  0  0  0  0  0  0  0  0  0
    3.2252   -0.9986   -1.5237 H   0  0  0  0  0  0  0  0  0  0  0  0
    5.1398   -2.1399   -2.5690 H   0  0  0  0  0  0  0  0  0  0  0  0
    7.2588   -2.4112   -1.3394 H   0  0  0  0  0  0  0  0  0  0  0  0
    8.2563   -2.5826    0.9994 H   0  0  0  0  0  0  0  0  0  0  0  0
    7.6959   -1.5105    2.2928 H   0  0  0  0  0  0  0  0  0  0  0  0
    9.0729    0.3763    2.5154 H   0  0  0  0  0  0  0  0  0  0  0  0
    9.4477    1.2954    1.0228 H   0  0  0  0  0  0  0  0  0  0  0  0
    7.7292    1.0119    1.4494 H   0  0  0  0  0  0  0  0  0  0  0  0
    5.5607   -0.3611    2.0461 H   0  0  0  0  0  0  0  0  0  0  0  0
    3.2981    1.4024   -1.5106 H   0  0  0  0  0  0  0  0  0  0  0  0
    3.1590    2.6824   -0.2510 H   0  0  0  0  0  0  0  0  0  0  0  0
    1.7607    2.9706   -2.4226 H   0  0  0  0  0  0  0  0  0  0  0  0
    0.8648    3.1771   -0.8900 H   0  0  0  0  0  0  0  0  0  0  0  0
  1  2  1  0
  2  3  1  0
  3  4  1  0
  4  5  1  0
  5  6  1  0
  6  7  1  0
  7  8  1  0
  8  9  1  0
  9 10  2  0
 10 11  1  0
 11 12  2  0
 12 13  1  0
 13 14  2  0
 14 15  1  0
 15 16  1  0
 16 17  1  0
 17 18  1  0
 18 19  1  0
 19 20  1  0
 20 21  1  0
 21 22  1  0
 22 23  2  0
 22 24  1  0
 24 25  2  0
 25 26  1  0
 26 27  2  0
 27 28  1  0
 28 29  1  0
 29 30  1  0
 30 31  1  0
 28 32  2  0
 21 33  1  0
 33 34  1  0
 34 35  1  0
 19 36  1  0
 36 37  2  0
 36  5  1  0
 14  9  1  0
 35 19  1  0
 32 24  1  0
  1 38  1  0
  1 39  1  0
  1 40  1  0
  2 41  1  0
  2 42  1  0
  3 43  1  0
  3 44  1  0
  4 45  1  0
  4 46  1  0
  6 47  1  0
  6 48  1  0
  7 49  1  0
  7 50  1  0
 10 51  1  0
 11 52  1  0
 12 53  1  0
 13 54  1  0
 15 55  1  0
 15 56  1  0
 16 57  1  0
 16 58  1  0
 17 59  1  0
 17 60  1  0
 18 61  1  0
 18 62  1  0
 20 63  1  0
 20 64  1  0
 25 65  1  0
 26 66  1  0
 27 67  1  0
 29 68  1  0
 29 69  1  0
 31 70  1  0
 31 71  1  0
 31 72  1  0
 32 73  1  0
 33 74  1  0
 33 75  1  0
 34 76  1  0
 34 77  1  0
M  END
$$$$
