
     RDKit          3D

 58 61  0  0  0  0  0  0  0  0999 V2000
    2.8857   -0.1412   -1.7224 O   0  0  0  0  0  0  0  0  0  0  0  0
    3.4701   -0.0755   -0.6046 C   0  0  0  0  0  0  0  0  0  0  0  0
    4.9491   -0.0659   -0.5776 C   0  0  0  0  0  0  0  0  0  0  0  0
    5.6635    0.6337   -1.5658 C   0  0  0  0  0  0  0  0  0  0  0  0
    7.0614    0.6466   -1.5503 C   0  0  0  0  0  0  0  0  0  0  0  0
    7.7570   -0.0455   -0.5548 C   0  0  0  0  0  0  0  0  0  0  0  0
    7.0565   -0.7680    0.4140 C   0  0  0  0  0  0  0  0  0  0  0  0
    5.6585   -0.7826    0.4038 C   0  0  0  0  0  0  0  0  0  0  0  0
    2.6883    0.0128    0.6058 N   0  0  0  0  0  0  0  0  0  0  0  0
    3.1781    0.7608    1.7706 C   0  0  0  0  0  0  0  0  0  0  0  0
    1.9981    1.1856    2.6507 C   0  0  0  0  0  0  0  0  0  0  0  0
    0.9665    1.7123    1.8386 O   0  0  0  0  0  0  0  0  0  0  0  0
    0.3425    0.7309    1.0036 C   0  0  0  0  0  0  0  0  0  0  0  0
   -0.0390    1.4791   -0.3077 C   0  0  0  0  0  0  0  0  0  0  0  0
   -0.9483    0.6854   -1.2784 C   0  0  0  0  0  0  0  0  0  0  0  0
   -2.3348    1.3304   -1.4404 C   0  0  0  0  0  0  0  0  0  0  0  0
   -3.2948    0.4268   -2.2453 C   0  0  0  0  0  0  0  0  0  0  0  0
   -4.5622    0.1177   -1.4789 C   0  0  0  0  0  0  0  0  0  0  0  0
   -5.7942    0.6167   -1.9341 C   0  0  0  0  0  0  0  0  0  0  0  0
   -6.9743    0.3133   -1.2518 C   0  0  0  0  0  0  0  0  0  0  0  0
   -6.9383   -0.4913   -0.1118 C   0  0  0  0  0  0  0  0  0  0  0  0
   -5.7209   -0.9858    0.3598 C   0  0  0  0  0  0  0  0  0  0  0  0
   -4.5206   -0.6803   -0.3122 C   0  0  0  0  0  0  0  0  0  0  0  0
   -3.2771   -1.1406    0.1486 O   0  0  0  0  0  0  0  0  0  0  0  0
   -3.0873   -1.9831    1.2828 C   0  0  0  0  0  0  0  0  0  0  0  0
   -1.5919   -2.1706    1.5444 C   0  0  0  0  0  0  0  0  0  0  0  0
   -1.0397   -1.0377    2.2863 N   0  0  0  0  0  0  0  0  0  0  0  0
   -0.9226    0.2718    1.7200 C   0  0  0  0  0  0  0  0  0  0  0  0
   -1.8397    1.1091    1.9447 O   0  0  0  0  0  0  0  0  0  0  0  0
    1.3020   -0.4642    0.6456 C   0  0  0  0  0  0  0  0  0  0  0  0
    5.1386    1.1788   -2.3417 H   0  0  0  0  0  0  0  0  0  0  0  0
    7.6046    1.1953   -2.3093 H   0  0  0  0  0  0  0  0  0  0  0  0
    8.8394   -0.0360   -0.5422 H   0  0  0  0  0  0  0  0  0  0  0  0
    7.5993   -1.3163    1.1750 H   0  0  0  0  0  0  0  0  0  0  0  0
    5.1353   -1.3726    1.1460 H   0  0  0  0  0  0  0  0  0  0  0  0
    3.7141    1.6751    1.4274 H   0  0  0  0  0  0  0  0  0  0  0  0
    3.8726    0.1363    2.3704 H   0  0  0  0  0  0  0  0  0  0  0  0
    1.6250    0.3325    3.2630 H   0  0  0  0  0  0  0  0  0  0  0  0
    2.3379    1.9717    3.3578 H   0  0  0  0  0  0  0  0  0  0  0  0
   -0.5159    2.4514   -0.0462 H   0  0  0  0  0  0  0  0  0  0  0  0
    0.8980    1.7544   -0.8427 H   0  0  0  0  0  0  0  0  0  0  0  0
   -0.4595    0.6402   -2.2778 H   0  0  0  0  0  0  0  0  0  0  0  0
   -1.0691   -0.3634   -0.9371 H   0  0  0  0  0  0  0  0  0  0  0  0
   -2.7593    1.5592   -0.4389 H   0  0  0  0  0  0  0  0  0  0  0  0
   -2.2166    2.3014   -1.9689 H   0  0  0  0  0  0  0  0  0  0  0  0
   -2.8131   -0.5375   -2.5186 H   0  0  0  0  0  0  0  0  0  0  0  0
   -3.5352    0.9278   -3.2089 H   0  0  0  0  0  0  0  0  0  0  0  0
   -5.8443    1.2373   -2.8189 H   0  0  0  0  0  0  0  0  0  0  0  0
   -7.9193    0.6983   -1.6113 H   0  0  0  0  0  0  0  0  0  0  0  0
   -7.8566   -0.7295    0.4099 H   0  0  0  0  0  0  0  0  0  0  0  0
   -5.7252   -1.6054    1.2491 H   0  0  0  0  0  0  0  0  0  0  0  0
   -3.5672   -1.5388    2.1823 H   0  0  0  0  0  0  0  0  0  0  0  0
   -3.5482   -2.9736    1.0741 H   0  0  0  0  0  0  0  0  0  0  0  0
   -1.4532   -3.0929    2.1487 H   0  0  0  0  0  0  0  0  0  0  0  0
   -1.0420   -2.3112    0.5890 H   0  0  0  0  0  0  0  0  0  0  0  0
   -0.8093   -1.1616    3.3013 H   0  0  0  0  0  0  0  0  0  0  0  0
    1.0191   -0.9676   -0.3025 H   0  0  0  0  0  0  0  0  0  0  0  0
    1.2583   -1.2542    1.4240 H   0  0  0  0  0  0  0  0  0  0  0  0
  1  2  2  0
  2  3  1  0
  3  4  2  0
  4  5  1  0
  5  6  2  0
  6  7  1  0
  7  8  2  0
  2  9  1  0
  9 10  1  0
 10 11  1  0
 11 12  1  0
 12 13  1  0
 13 14  1  0
 14 15  1  0
 15 16  1  0
 16 17  1  0
 17 18  1  0
 18 19  2  0
 19 20  1  0
 20 21  2  0
 21 22  1  0
 22 23  2  0
 23 24  1  0
 24 25  1  0
 25 26  1  0
 26 27  1  0
 27 28  1  0
 28 29  2  0
 13 30  1  0
  8  3  1  0
 30  9  1  0
 28 13  1  0
 23 18  1  0
  4 31  1  0
  5 32  1  0
  6 33  1  0
  7 34  1  0
  8 35  1  0
 10 36  1  0
 10 37  1  0
 11 38  1  0
 11 39  1  0
 14 40  1  0
 14 41  1  0
 15 42  1  0
 15 43  1  0
 16 44  1  0
 16 45  1  0
 17 46  1  0
 17 47  1  0
 19 48  1  0
 20 49  1  0
 21 50  1  0
 22 51  1  0
 25 52  1  0
 25 53  1  0
 26 54  1  0
 26 55  1  0
 27 56  1  0
 30 57  1  0
 30 58  1  0
M  END
$$$$
