
     RDKit          3D

 69 71  0  0  0  0  0  0  0  0999 V2000
    4.8968   -2.9752    0.6336 C   0  0  0  0  0  0  0  0  0  0  0  0
    3.6648   -3.0984    1.5472 C   0  0  0  0  0  0  0  0  0  0  0  0
    3.2420   -4.5758    1.6250 C   0  0  0  0  0  0  0  0  0  0  0  0
    2.4786   -2.2108    1.0635 C   0  0  0  0  0  0  0  0  0  0  0  0
    2.8583   -0.7192    0.9637 C   0  0  0  0  0  0  0  0  0  0  0  0
    3.5265   -0.4635   -0.2691 O   0  0  0  0  0  0  0  0  0  0  0  0
    4.2758    0.6842   -0.5842 C   0  0  0  0  0  0  0  0  0  0  0  0
    5.2671    0.5326   -1.5628 C   0  0  0  0  0  0  0  0  0  0  0  0
    6.0951    1.5982   -1.9180 C   0  0  0  0  0  0  0  0  0  0  0  0
    5.9390    2.8397   -1.3023 C   0  0  0  0  0  0  0  0  0  0  0  0
    6.9808    4.1781   -1.7488 Cl  0  0  0  0  0  0  0  0  0  0  0  0
    4.9411    3.0209   -0.3426 C   0  0  0  0  0  0  0  0  0  0  0  0
    4.0928    1.9611    0.0169 C   0  0  0  0  0  0  0  0  0  0  0  0
    2.9985    2.2627    0.9561 C   0  0  0  0  0  0  0  0  0  0  0  0
    3.2610    2.3798    2.1824 O   0  0  0  0  0  0  0  0  0  0  0  0
    1.6531    2.4697    0.5000 N   0  0  0  0  0  0  0  0  0  0  0  0
    1.3038    2.5025   -0.9217 C   0  0  0  0  0  0  0  0  0  0  0  0
   -0.2205    2.5452   -1.1451 C   0  0  0  0  0  0  0  0  0  0  0  0
   -0.8752    1.1512   -1.1412 C   0  0  0  0  0  0  0  0  0  0  0  0
   -1.1420    0.6166    0.2740 C   0  0  0  0  0  0  0  0  0  0  0  0
   -1.5419   -0.7989    0.2258 N   0  0  0  0  0  0  0  0  0  0  0  0
   -2.9306   -1.2078    0.2587 C   0  0  0  0  0  0  0  0  0  0  0  0
   -3.2134   -2.4210    0.4640 O   0  0  0  0  0  0  0  0  0  0  0  0
   -4.0562   -0.2084    0.1235 C   0  0  0  0  0  0  0  0  0  0  0  0
   -5.3548   -0.8519   -0.3812 C   0  0  0  0  0  0  0  0  0  0  0  0
   -6.4170    0.1945   -0.5902 C   0  0  0  0  0  0  0  0  0  0  0  0
   -6.5444    0.8367   -1.8337 C   0  0  0  0  0  0  0  0  0  0  0  0
   -7.5085    1.8327   -2.0165 C   0  0  0  0  0  0  0  0  0  0  0  0
   -8.3441    2.2017   -0.9582 C   0  0  0  0  0  0  0  0  0  0  0  0
   -9.2772    3.1694   -1.1368 F   0  0  0  0  0  0  0  0  0  0  0  0
   -8.2144    1.5765    0.2854 C   0  0  0  0  0  0  0  0  0  0  0  0
   -7.2512    0.5798    0.4722 C   0  0  0  0  0  0  0  0  0  0  0  0
   -0.4767   -1.8147    0.2162 C   0  0  0  0  0  0  0  0  0  0  0  0
   -0.0397   -2.1433    1.6229 C   0  0  0  0  0  0  0  0  0  0  0  0
   -0.9224   -2.2894    2.5107 O   0  0  0  0  0  0  0  0  0  0  0  0
    1.3399   -2.3438    1.9843 N   0  0  0  0  0  0  0  0  0  0  0  0
    5.6787   -3.7059    0.9332 H   0  0  0  0  0  0  0  0  0  0  0  0
    5.3495   -1.9659    0.7213 H   0  0  0  0  0  0  0  0  0  0  0  0
    4.6211   -3.1640   -0.4265 H   0  0  0  0  0  0  0  0  0  0  0  0
    3.9658   -2.7764    2.5693 H   0  0  0  0  0  0  0  0  0  0  0  0
    2.9142   -4.9411    0.6278 H   0  0  0  0  0  0  0  0  0  0  0  0
    4.0899   -5.2037    1.9746 H   0  0  0  0  0  0  0  0  0  0  0  0
    2.4094   -4.7117    2.3466 H   0  0  0  0  0  0  0  0  0  0  0  0
    2.1834   -2.5834    0.0585 H   0  0  0  0  0  0  0  0  0  0  0  0
    3.5043   -0.4316    1.8217 H   0  0  0  0  0  0  0  0  0  0  0  0
    1.9342   -0.1143    0.9963 H   0  0  0  0  0  0  0  0  0  0  0  0
    5.4096   -0.4297   -2.0383 H   0  0  0  0  0  0  0  0  0  0  0  0
    6.8620    1.4549   -2.6687 H   0  0  0  0  0  0  0  0  0  0  0  0
    4.8109    3.9979    0.1087 H   0  0  0  0  0  0  0  0  0  0  0  0
    0.9252    2.6840    1.2188 H   0  0  0  0  0  0  0  0  0  0  0  0
    1.7587    3.4111   -1.3715 H   0  0  0  0  0  0  0  0  0  0  0  0
    1.7352    1.6209   -1.4414 H   0  0  0  0  0  0  0  0  0  0  0  0
   -0.3958    2.9899   -2.1489 H   0  0  0  0  0  0  0  0  0  0  0  0
   -0.7150    3.2170   -0.4096 H   0  0  0  0  0  0  0  0  0  0  0  0
   -0.2439    0.4377   -1.7125 H   0  0  0  0  0  0  0  0  0  0  0  0
   -1.8417    1.2188   -1.6825 H   0  0  0  0  0  0  0  0  0  0  0  0
   -1.9124    1.2343    0.7814 H   0  0  0  0  0  0  0  0  0  0  0  0
   -0.2297    0.7049    0.8921 H   0  0  0  0  0  0  0  0  0  0  0  0
   -4.2359    0.2607    1.1151 H   0  0  0  0  0  0  0  0  0  0  0  0
   -3.7655    0.5857   -0.5936 H   0  0  0  0  0  0  0  0  0  0  0  0
   -5.1601   -1.3856   -1.3378 H   0  0  0  0  0  0  0  0  0  0  0  0
   -5.7142   -1.6050    0.3540 H   0  0  0  0  0  0  0  0  0  0  0  0
   -5.8961    0.5676   -2.6589 H   0  0  0  0  0  0  0  0  0  0  0  0
   -7.6040    2.3210   -2.9776 H   0  0  0  0  0  0  0  0  0  0  0  0
   -8.8566    1.8664    1.1070 H   0  0  0  0  0  0  0  0  0  0  0  0
   -7.1539    0.1099    1.4431 H   0  0  0  0  0  0  0  0  0  0  0  0
    0.3679   -1.4353   -0.3896 H   0  0  0  0  0  0  0  0  0  0  0  0
   -0.8239   -2.7432   -0.2846 H   0  0  0  0  0  0  0  0  0  0  0  0
    1.5438   -2.4978    2.9985 H   0  0  0  0  0  0  0  0  0  0  0  0
  1  2  1  0
  2  3  1  0
  2  4  1  0
  4  5  1  0
  5  6  1  0
  6  7  1  0
  7  8  2  0
  8  9  1  0
  9 10  2  0
 10 11  1  0
 10 12  1  0
 12 13  2  0
 13 14  1  0
 14 15  2  0
 14 16  1  0
 16 17  1  0
 17 18  1  0
 18 19  1  0
 19 20  1  0
 20 21  1  0
 21 22  1  0
 22 23  2  0
 22 24  1  0
 24 25  1  0
 25 26  1  0
 26 27  2  0
 27 28  1  0
 28 29  2  0
 29 30  1  0
 29 31  1  0
 31 32  2  0
 21 33  1  0
 33 34  1  0
 34 35  2  0
 34 36  1  0
 36  4  1  0
 13  7  1  0
 32 26  1  0
  1 37  1  0
  1 38  1  0
  1 39  1  0
  2 40  1  0
  3 41  1  0
  3 42  1  0
  3 43  1  0
  4 44  1  0
  5 45  1  0
  5 46  1  0
  8 47  1  0
  9 48  1  0
 12 49  1  0
 16 50  1  0
 17 51  1  0
 17 52  1  0
 18 53  1  0
 18 54  1  0
 19 55  1  0
 19 56  1  0
 20 57  1  0
 20 58  1  0
 24 59  1  0
 24 60  1  0
 25 61  1  0
 25 62  1  0
 27 63  1  0
 28 64  1  0
 31 65  1  0
 32 66  1  0
 33 67  1  0
 33 68  1  0
 36 69  1  0
M  END
$$$$
