
     RDKit          3D

 67 69  0  0  0  0  0  0  0  0999 V2000
   -5.3557   -1.1797    2.2399 C   0  0  0  0  0  0  0  0  0  0  0  0
   -5.3098   -0.7725    0.8316 N   0  0  0  0  0  0  0  0  0  0  0  0
   -5.1688    0.6573    0.5140 C   0  0  0  0  0  0  0  0  0  0  0  0
   -3.7128    1.1170    0.6202 C   0  0  0  0  0  0  0  0  0  0  0  0
   -3.0194    0.7808   -0.5749 O   0  0  0  0  0  0  0  0  0  0  0  0
   -1.8328    1.3708   -1.0411 C   0  0  0  0  0  0  0  0  0  0  0  0
   -1.6494    1.3969   -2.4309 C   0  0  0  0  0  0  0  0  0  0  0  0
   -0.5234    1.9968   -2.9932 C   0  0  0  0  0  0  0  0  0  0  0  0
    0.4321    2.5926   -2.1724 C   0  0  0  0  0  0  0  0  0  0  0  0
    0.2794    2.5597   -0.7862 C   0  0  0  0  0  0  0  0  0  0  0  0
   -0.8214    1.9104   -0.2020 C   0  0  0  0  0  0  0  0  0  0  0  0
   -0.8732    1.8229    1.2682 C   0  0  0  0  0  0  0  0  0  0  0  0
   -1.2941    2.8215    1.9118 O   0  0  0  0  0  0  0  0  0  0  0  0
   -0.4440    0.6546    1.9974 N   0  0  0  0  0  0  0  0  0  0  0  0
    0.4393   -0.4171    1.4983 C   0  0  0  0  0  0  0  0  0  0  0  0
    1.7495    0.1497    0.9856 C   0  0  0  0  0  0  0  0  0  0  0  0
    2.1178    1.2893    1.3826 O   0  0  0  0  0  0  0  0  0  0  0  0
    2.6404   -0.6324    0.1703 N   0  0  0  0  0  0  0  0  0  0  0  0
    3.8713   -0.0796   -0.3929 C   0  0  0  0  0  0  0  0  0  0  0  0
    4.9504    0.0453    0.6874 C   0  0  0  0  0  0  0  0  0  0  0  0
    6.2338    0.5666    0.0992 C   0  0  0  0  0  0  0  0  0  0  0  0
    7.2548   -0.3221   -0.2818 C   0  0  0  0  0  0  0  0  0  0  0  0
    8.4397    0.1661   -0.8397 C   0  0  0  0  0  0  0  0  0  0  0  0
    8.6104    1.5415   -1.0325 C   0  0  0  0  0  0  0  0  0  0  0  0
    9.7610    2.0120   -1.5740 F   0  0  0  0  0  0  0  0  0  0  0  0
    7.5924    2.4300   -0.6702 C   0  0  0  0  0  0  0  0  0  0  0  0
    6.4064    1.9457   -0.1088 C   0  0  0  0  0  0  0  0  0  0  0  0
   -0.2970   -1.3359    0.4920 C   0  0  0  0  0  0  0  0  0  0  0  0
   -1.5908   -1.8963    1.0418 C   0  0  0  0  0  0  0  0  0  0  0  0
   -1.7663   -1.9409    2.2915 O   0  0  0  0  0  0  0  0  0  0  0  0
   -2.5893   -2.4797    0.1917 N   0  0  0  0  0  0  0  0  0  0  0  0
   -2.5697   -2.4164   -1.2703 C   0  0  0  0  0  0  0  0  0  0  0  0
   -3.9472   -2.7473   -1.8675 C   0  0  0  0  0  0  0  0  0  0  0  0
   -5.0165   -1.6720   -1.5844 C   0  0  0  0  0  0  0  0  0  0  0  0
   -5.5665   -1.7692   -0.1825 C   0  0  0  0  0  0  0  0  0  0  0  0
   -6.2349   -2.7973    0.1190 O   0  0  0  0  0  0  0  0  0  0  0  0
   -5.1041   -0.3335    2.9127 H   0  0  0  0  0  0  0  0  0  0  0  0
   -6.3746   -1.5383    2.4972 H   0  0  0  0  0  0  0  0  0  0  0  0
   -4.6288   -1.9954    2.4236 H   0  0  0  0  0  0  0  0  0  0  0  0
   -5.7781    1.2471    1.2332 H   0  0  0  0  0  0  0  0  0  0  0  0
   -5.5809    0.8928   -0.4896 H   0  0  0  0  0  0  0  0  0  0  0  0
   -3.2293    0.6362    1.4942 H   0  0  0  0  0  0  0  0  0  0  0  0
   -3.7030    2.2204    0.7531 H   0  0  0  0  0  0  0  0  0  0  0  0
   -2.3959    0.9567   -3.0800 H   0  0  0  0  0  0  0  0  0  0  0  0
   -0.3966    2.0059   -4.0660 H   0  0  0  0  0  0  0  0  0  0  0  0
    1.2969    3.0716   -2.6094 H   0  0  0  0  0  0  0  0  0  0  0  0
    1.0331    3.0284   -0.1656 H   0  0  0  0  0  0  0  0  0  0  0  0
   -0.6645    0.6384    3.0188 H   0  0  0  0  0  0  0  0  0  0  0  0
    0.7199   -1.0557    2.3643 H   0  0  0  0  0  0  0  0  0  0  0  0
    2.4175   -1.6280   -0.0539 H   0  0  0  0  0  0  0  0  0  0  0  0
    3.6596    0.9113   -0.8544 H   0  0  0  0  0  0  0  0  0  0  0  0
    4.2409   -0.7603   -1.1925 H   0  0  0  0  0  0  0  0  0  0  0  0
    5.1171   -0.9506    1.1548 H   0  0  0  0  0  0  0  0  0  0  0  0
    4.6134    0.7334    1.4909 H   0  0  0  0  0  0  0  0  0  0  0  0
    7.1363   -1.3912   -0.1441 H   0  0  0  0  0  0  0  0  0  0  0  0
    9.2229   -0.5250   -1.1246 H   0  0  0  0  0  0  0  0  0  0  0  0
    7.7203    3.4938   -0.8236 H   0  0  0  0  0  0  0  0  0  0  0  0
    5.6233    2.6436    0.1659 H   0  0  0  0  0  0  0  0  0  0  0  0
   -0.4644   -0.7908   -0.4535 H   0  0  0  0  0  0  0  0  0  0  0  0
    0.3364   -2.2134    0.2520 H   0  0  0  0  0  0  0  0  0  0  0  0
   -3.3351   -3.0434    0.6581 H   0  0  0  0  0  0  0  0  0  0  0  0
   -1.8210   -3.1437   -1.6496 H   0  0  0  0  0  0  0  0  0  0  0  0
   -2.2722   -1.4101   -1.6190 H   0  0  0  0  0  0  0  0  0  0  0  0
   -3.8226   -2.8243   -2.9704 H   0  0  0  0  0  0  0  0  0  0  0  0
   -4.2876   -3.7435   -1.5111 H   0  0  0  0  0  0  0  0  0  0  0  0
   -5.8634   -1.8313   -2.2853 H   0  0  0  0  0  0  0  0  0  0  0  0
   -4.6110   -0.6705   -1.8141 H   0  0  0  0  0  0  0  0  0  0  0  0
  1  2  1  0
  2  3  1  0
  3  4  1  0
  4  5  1  0
  5  6  1  0
  6  7  2  0
  7  8  1  0
  8  9  2  0
  9 10  1  0
 10 11  2  0
 11 12  1  0
 12 13  2  0
 12 14  1  0
 14 15  1  0
 15 16  1  0
 16 17  2  0
 16 18  1  0
 18 19  1  0
 19 20  1  0
 20 21  1  0
 21 22  2  0
 22 23  1  0
 23 24  2  0
 24 25  1  0
 24 26  1  0
 26 27  2  0
 15 28  1  0
 28 29  1  0
 29 30  2  0
 29 31  1  0
 31 32  1  0
 32 33  1  0
 33 34  1  0
 34 35  1  0
 35 36  2  0
 35  2  1  0
 11  6  1  0
 27 21  1  0
  1 37  1  0
  1 38  1  0
  1 39  1  0
  3 40  1  0
  3 41  1  0
  4 42  1  0
  4 43  1  0
  7 44  1  0
  8 45  1  0
  9 46  1  0
 10 47  1  0
 14 48  1  0
 15 49  1  0
 18 50  1  0
 19 51  1  0
 19 52  1  0
 20 53  1  0
 20 54  1  0
 22 55  1  0
 23 56  1  0
 26 57  1  0
 27 58  1  0
 28 59  1  0
 28 60  1  0
 31 61  1  0
 32 62  1  0
 32 63  1  0
 33 64  1  0
 33 65  1  0
 34 66  1  0
 34 67  1  0
M  END
$$$$
