
     RDKit          3D

 91 93  0  0  0  0  0  0  0  0999 V2000
   -5.7626    3.3355    3.4423 C   0  0  0  0  0  0  0  0  0  0  0  0
   -4.5281    2.6761    3.1849 O   0  0  0  0  0  0  0  0  0  0  0  0
   -3.9768    2.4795    1.9107 C   0  0  0  0  0  0  0  0  0  0  0  0
   -4.6150    2.9138    0.7343 C   0  0  0  0  0  0  0  0  0  0  0  0
   -4.0330    2.6658   -0.5099 C   0  0  0  0  0  0  0  0  0  0  0  0
   -2.8154    1.9914   -0.5958 C   0  0  0  0  0  0  0  0  0  0  0  0
   -2.1494    1.5702    0.5715 C   0  0  0  0  0  0  0  0  0  0  0  0
   -0.8477    0.7890    0.5108 C   0  0  0  0  0  0  0  0  0  0  0  0
    0.2814    1.4600   -0.3628 C   0  0  0  0  0  0  0  0  0  0  0  0
    0.7357    2.8797    0.1560 C   0  0  0  0  0  0  0  0  0  0  0  0
   -0.2641    3.9998   -0.1737 C   0  0  0  0  0  0  0  0  0  0  0  0
    1.1011    2.9270    1.6505 C   0  0  0  0  0  0  0  0  0  0  0  0
    1.4989    0.4987   -0.4776 C   0  0  0  0  0  0  0  0  0  0  0  0
    2.6236    1.0719   -1.2447 N   0  0  0  0  0  0  0  0  0  0  0  0
    2.5100    1.3399   -2.6610 C   0  0  0  0  0  0  0  0  0  0  0  0
    1.6182    0.5280   -3.5517 C   0  0  0  0  0  0  0  0  0  0  0  0
    3.1695    2.2859   -3.1741 O   0  0  0  0  0  0  0  0  0  0  0  0
    3.8911    1.3800   -0.5548 C   0  0  0  0  0  0  0  0  0  0  0  0
    5.0188    0.3608   -0.8839 C   0  0  0  0  0  0  0  0  0  0  0  0
    5.4718    0.6140   -2.2067 O   0  0  0  0  0  0  0  0  0  0  0  0
    6.7278    1.2555   -2.1962 C   0  0  0  0  0  0  0  0  0  0  0  0
    4.5662   -1.1301   -0.8013 C   0  0  0  0  0  0  0  0  0  0  0  0
    5.4718   -1.9475   -1.5044 O   0  0  0  0  0  0  0  0  0  0  0  0
    4.3815   -1.7017    0.6416 C   0  0  0  0  0  0  0  0  0  0  0  0
    3.9717   -0.7003    1.5349 O   0  0  0  0  0  0  0  0  0  0  0  0
    3.3491   -2.8506    0.6236 C   0  0  0  0  0  0  0  0  0  0  0  0
    2.9715   -3.2376    1.9328 O   0  0  0  0  0  0  0  0  0  0  0  0
    1.7454   -2.6325    2.3221 C   0  0  0  0  0  0  0  0  0  0  0  0
    0.5317   -3.5015    1.9333 C   0  0  0  0  0  0  0  0  0  0  0  0
   -0.3098   -2.8990    0.7926 C   0  0  0  0  0  0  0  0  0  0  0  0
   -1.1166   -1.6516    1.2221 C   0  0  0  0  0  0  0  0  0  0  0  0
   -1.1495   -0.6243    0.1547 N   0  0  0  0  0  0  0  0  0  0  0  0
   -1.6522   -0.9849   -1.1568 C   0  0  0  0  0  0  0  0  0  0  0  0
   -1.2044   -0.4116   -2.1870 O   0  0  0  0  0  0  0  0  0  0  0  0
   -2.6328   -2.0741   -1.3377 C   0  0  0  0  0  0  0  0  0  0  0  0
   -2.3035   -3.1473   -2.1820 C   0  0  0  0  0  0  0  0  0  0  0  0
   -3.1923   -4.2080   -2.3565 C   0  0  0  0  0  0  0  0  0  0  0  0
   -4.4263   -4.1959   -1.7103 C   0  0  0  0  0  0  0  0  0  0  0  0
   -4.7793   -3.1207   -0.8917 C   0  0  0  0  0  0  0  0  0  0  0  0
   -3.8871   -2.0471   -0.6958 C   0  0  0  0  0  0  0  0  0  0  0  0
   -4.2225   -0.9427    0.1048 O   0  0  0  0  0  0  0  0  0  0  0  0
   -5.4501   -0.8071    0.8191 C   0  0  0  0  0  0  0  0  0  0  0  0
   -2.7549    1.8075    1.8177 C   0  0  0  0  0  0  0  0  0  0  0  0
   -5.9469    3.3562    4.5380 H   0  0  0  0  0  0  0  0  0  0  0  0
   -6.5959    2.7879    2.9512 H   0  0  0  0  0  0  0  0  0  0  0  0
   -5.7188    4.3839    3.0739 H   0  0  0  0  0  0  0  0  0  0  0  0
   -5.5624    3.4307    0.7723 H   0  0  0  0  0  0  0  0  0  0  0  0
   -4.5304    2.9917   -1.4148 H   0  0  0  0  0  0  0  0  0  0  0  0
   -2.3952    1.8144   -1.5760 H   0  0  0  0  0  0  0  0  0  0  0  0
   -0.4271    0.7906    1.5363 H   0  0  0  0  0  0  0  0  0  0  0  0
   -0.1016    1.6038   -1.3897 H   0  0  0  0  0  0  0  0  0  0  0  0
    1.6545    3.1671   -0.3977 H   0  0  0  0  0  0  0  0  0  0  0  0
   -0.6161    3.9197   -1.2229 H   0  0  0  0  0  0  0  0  0  0  0  0
    0.2296    4.9876   -0.0548 H   0  0  0  0  0  0  0  0  0  0  0  0
   -1.1365    3.9885    0.5086 H   0  0  0  0  0  0  0  0  0  0  0  0
    1.7919    2.1032    1.9202 H   0  0  0  0  0  0  0  0  0  0  0  0
    0.1940    2.8655    2.2888 H   0  0  0  0  0  0  0  0  0  0  0  0
    1.6105    3.8872    1.8802 H   0  0  0  0  0  0  0  0  0  0  0  0
    1.8303    0.2291    0.5431 H   0  0  0  0  0  0  0  0  0  0  0  0
    1.1941   -0.4581   -0.9474 H   0  0  0  0  0  0  0  0  0  0  0  0
    1.5743   -0.5232   -3.2071 H   0  0  0  0  0  0  0  0  0  0  0  0
    0.6027    0.9669   -3.5701 H   0  0  0  0  0  0  0  0  0  0  0  0
    2.0179    0.5252   -4.5853 H   0  0  0  0  0  0  0  0  0  0  0  0
    3.7357    1.4487    0.5386 H   0  0  0  0  0  0  0  0  0  0  0  0
    4.2251    2.4008   -0.8394 H   0  0  0  0  0  0  0  0  0  0  0  0
    5.8242    0.4918   -0.1197 H   0  0  0  0  0  0  0  0  0  0  0  0
    7.5094    0.5847   -1.7786 H   0  0  0  0  0  0  0  0  0  0  0  0
    7.0158    1.4911   -3.2412 H   0  0  0  0  0  0  0  0  0  0  0  0
    6.6896    2.2103   -1.6257 H   0  0  0  0  0  0  0  0  0  0  0  0
    3.6082   -1.2021   -1.3554 H   0  0  0  0  0  0  0  0  0  0  0  0
    6.3657   -1.8316   -1.0882 H   0  0  0  0  0  0  0  0  0  0  0  0
    5.3579   -2.1169    0.9871 H   0  0  0  0  0  0  0  0  0  0  0  0
    4.2750   -0.9696    2.4426 H   0  0  0  0  0  0  0  0  0  0  0  0
    3.8133   -3.7329    0.1275 H   0  0  0  0  0  0  0  0  0  0  0  0
    2.4803   -2.5795   -0.0125 H   0  0  0  0  0  0  0  0  0  0  0  0
    1.7643   -2.5469    3.4298 H   0  0  0  0  0  0  0  0  0  0  0  0
    1.6357   -1.5896    1.9548 H   0  0  0  0  0  0  0  0  0  0  0  0
   -0.1247   -3.6391    2.8226 H   0  0  0  0  0  0  0  0  0  0  0  0
    0.8750   -4.5169    1.6345 H   0  0  0  0  0  0  0  0  0  0  0  0
    0.3294   -2.6678   -0.0792 H   0  0  0  0  0  0  0  0  0  0  0  0
   -1.0226   -3.6819    0.4494 H   0  0  0  0  0  0  0  0  0  0  0  0
   -2.1537   -1.9585    1.4727 H   0  0  0  0  0  0  0  0  0  0  0  0
   -0.7058   -1.2370    2.1674 H   0  0  0  0  0  0  0  0  0  0  0  0
   -1.3458   -3.1733   -2.6865 H   0  0  0  0  0  0  0  0  0  0  0  0
   -2.9196   -5.0406   -2.9907 H   0  0  0  0  0  0  0  0  0  0  0  0
   -5.1186   -5.0167   -1.8507 H   0  0  0  0  0  0  0  0  0  0  0  0
   -5.7481   -3.1331   -0.4140 H   0  0  0  0  0  0  0  0  0  0  0  0
   -5.5600   -1.6321    1.5526 H   0  0  0  0  0  0  0  0  0  0  0  0
   -5.4493    0.1475    1.3745 H   0  0  0  0  0  0  0  0  0  0  0  0
   -6.3058   -0.8005    0.1104 H   0  0  0  0  0  0  0  0  0  0  0  0
   -2.2828    1.4597    2.7270 H   0  0  0  0  0  0  0  0  0  0  0  0
  1  2  1  0
  2  3  1  0
  3  4  2  0
  4  5  1  0
  5  6  2  0
  6  7  1  0
  7  8  1  0
  8  9  1  0
  9 10  1  0
 10 11  1  0
 10 12  1  0
  9 13  1  0
 13 14  1  0
 14 15  1  0
 15 16  1  0
 15 17  2  0
 14 18  1  0
 18 19  1  0
 19 20  1  0
 20 21  1  0
 19 22  1  0
 22 23  1  0
 22 24  1  0
 24 25  1  0
 24 26  1  0
 26 27  1  0
 27 28  1  0
 28 29  1  0
 29 30  1  0
 30 31  1  0
 31 32  1  0
 32 33  1  0
 33 34  2  0
 33 35  1  0
 35 36  2  0
 36 37  1  0
 37 38  2  0
 38 39  1  0
 39 40  2  0
 40 41  1  0
 41 42  1  0
  7 43  2  0
 43  3  1  0
 32  8  1  0
 40 35  1  0
  1 44  1  0
  1 45  1  0
  1 46  1  0
  4 47  1  0
  5 48  1  0
  6 49  1  0
  8 50  1  0
  9 51  1  0
 10 52  1  0
 11 53  1  0
 11 54  1  0
 11 55  1  0
 12 56  1  0
 12 57  1  0
 12 58  1  0
 13 59  1  0
 13 60  1  0
 16 61  1  0
 16 62  1  0
 16 63  1  0
 18 64  1  0
 18 65  1  0
 19 66  1  0
 21 67  1  0
 21 68  1  0
 21 69  1  0
 22 70  1  0
 23 71  1  0
 24 72  1  0
 25 73  1  0
 26 74  1  0
 26 75  1  0
 28 76  1  0
 28 77  1  0
 29 78  1  0
 29 79  1  0
 30 80  1  0
 30 81  1  0
 31 82  1  0
 31 83  1  0
 36 84  1  0
 37 85  1  0
 38 86  1  0
 39 87  1  0
 42 88  1  0
 42 89  1  0
 42 90  1  0
 43 91  1  0
M  END
$$$$
