
     RDKit          3D

 54 57  0  0  0  0  0  0  0  0999 V2000
   -4.5814   -2.3969    0.2687 O   0  0  0  0  0  0  0  0  0  0  0  0
   -4.3279   -1.1804    0.0618 C   0  0  0  0  0  0  0  0  0  0  0  0
   -5.3018   -0.3691   -0.6928 C   0  0  0  0  0  0  0  0  0  0  0  0
   -5.3704    1.0195   -0.7591 C   0  0  0  0  0  0  0  0  0  0  0  0
   -6.4148    1.5065   -1.4813 N   0  0  0  0  0  0  0  0  0  0  0  0
   -7.1937    0.5249   -1.9862 C   0  0  0  0  0  0  0  0  0  0  0  0
   -6.6113   -0.9886   -1.5512 S   0  0  0  0  0  0  0  0  0  0  0  0
   -3.1109   -0.6171    0.5792 N   0  0  0  0  0  0  0  0  0  0  0  0
   -2.5882   -1.0770    1.8658 C   0  0  0  0  0  0  0  0  0  0  0  0
   -1.3122   -0.3037    2.2203 C   0  0  0  0  0  0  0  0  0  0  0  0
   -0.3190   -0.3880    1.2093 O   0  0  0  0  0  0  0  0  0  0  0  0
   -0.7869   -0.2201   -0.1350 C   0  0  0  0  0  0  0  0  0  0  0  0
    0.1403    0.7862   -0.8603 C   0  0  0  0  0  0  0  0  0  0  0  0
    0.2532    2.1477   -0.1405 C   0  0  0  0  0  0  0  0  0  0  0  0
    1.6512    2.7749   -0.2656 C   0  0  0  0  0  0  0  0  0  0  0  0
    2.6842    2.1583    0.7075 C   0  0  0  0  0  0  0  0  0  0  0  0
    3.6597    1.2356    0.0110 C   0  0  0  0  0  0  0  0  0  0  0  0
    4.6870    1.7986   -0.7668 C   0  0  0  0  0  0  0  0  0  0  0  0
    5.6030    0.9850   -1.4318 C   0  0  0  0  0  0  0  0  0  0  0  0
    5.5060   -0.4007   -1.3288 C   0  0  0  0  0  0  0  0  0  0  0  0
    4.4938   -0.9782   -0.5604 C   0  0  0  0  0  0  0  0  0  0  0  0
    3.5564   -0.1704    0.1156 C   0  0  0  0  0  0  0  0  0  0  0  0
    2.5163   -0.7252    0.8844 O   0  0  0  0  0  0  0  0  0  0  0  0
    2.1979   -2.1156    0.9752 C   0  0  0  0  0  0  0  0  0  0  0  0
    1.5724   -2.6367   -0.3292 C   0  0  0  0  0  0  0  0  0  0  0  0
    0.1100   -2.6294   -0.2691 N   0  0  0  0  0  0  0  0  0  0  0  0
   -0.6590   -1.5615   -0.8381 C   0  0  0  0  0  0  0  0  0  0  0  0
   -1.2457   -1.7561   -1.9379 O   0  0  0  0  0  0  0  0  0  0  0  0
   -2.2672    0.2657   -0.2294 C   0  0  0  0  0  0  0  0  0  0  0  0
   -4.6764    1.6793   -0.2605 H   0  0  0  0  0  0  0  0  0  0  0  0
   -8.0748    0.7096   -2.5857 H   0  0  0  0  0  0  0  0  0  0  0  0
   -3.3492   -0.9101    2.6577 H   0  0  0  0  0  0  0  0  0  0  0  0
   -2.3566   -2.1628    1.8097 H   0  0  0  0  0  0  0  0  0  0  0  0
   -1.5557    0.7625    2.4192 H   0  0  0  0  0  0  0  0  0  0  0  0
   -0.8925   -0.7220    3.1593 H   0  0  0  0  0  0  0  0  0  0  0  0
    1.1430    0.3340   -0.9741 H   0  0  0  0  0  0  0  0  0  0  0  0
   -0.2268    0.9592   -1.8970 H   0  0  0  0  0  0  0  0  0  0  0  0
   -0.0132    2.0740    0.9341 H   0  0  0  0  0  0  0  0  0  0  0  0
   -0.4861    2.8423   -0.5950 H   0  0  0  0  0  0  0  0  0  0  0  0
    1.5544    3.8555   -0.0242 H   0  0  0  0  0  0  0  0  0  0  0  0
    2.0000    2.7190   -1.3207 H   0  0  0  0  0  0  0  0  0  0  0  0
    2.1867    1.6458    1.5571 H   0  0  0  0  0  0  0  0  0  0  0  0
    3.2686    2.9832    1.1708 H   0  0  0  0  0  0  0  0  0  0  0  0
    4.7744    2.8742   -0.8590 H   0  0  0  0  0  0  0  0  0  0  0  0
    6.3886    1.4298   -2.0290 H   0  0  0  0  0  0  0  0  0  0  0  0
    6.2161   -1.0299   -1.8480 H   0  0  0  0  0  0  0  0  0  0  0  0
    4.4483   -2.0570   -0.5069 H   0  0  0  0  0  0  0  0  0  0  0  0
    1.4906   -2.2658    1.8196 H   0  0  0  0  0  0  0  0  0  0  0  0
    3.1107   -2.6953    1.2303 H   0  0  0  0  0  0  0  0  0  0  0  0
    1.9221   -2.0552   -1.2087 H   0  0  0  0  0  0  0  0  0  0  0  0
    1.9140   -3.6827   -0.4816 H   0  0  0  0  0  0  0  0  0  0  0  0
   -0.3610   -3.5610   -0.2051 H   0  0  0  0  0  0  0  0  0  0  0  0
   -2.6084    0.2852   -1.2877 H   0  0  0  0  0  0  0  0  0  0  0  0
   -2.3578    1.2999    0.1631 H   0  0  0  0  0  0  0  0  0  0  0  0
  1  2  2  0
  2  3  1  0
  3  4  2  0
  4  5  1  0
  5  6  2  0
  6  7  1  0
  2  8  1  0
  8  9  1  0
  9 10  1  0
 10 11  1  0
 11 12  1  0
 12 13  1  0
 13 14  1  0
 14 15  1  0
 15 16  1  0
 16 17  1  0
 17 18  2  0
 18 19  1  0
 19 20  2  0
 20 21  1  0
 21 22  2  0
 22 23  1  0
 23 24  1  0
 24 25  1  0
 25 26  1  0
 26 27  1  0
 27 28  2  0
 12 29  1  0
  7  3  1  0
 29  8  1  0
 27 12  1  0
 22 17  1  0
  4 30  1  0
  6 31  1  0
  9 32  1  0
  9 33  1  0
 10 34  1  0
 10 35  1  0
 13 36  1  0
 13 37  1  0
 14 38  1  0
 14 39  1  0
 15 40  1  0
 15 41  1  0
 16 42  1  0
 16 43  1  0
 18 44  1  0
 19 45  1  0
 20 46  1  0
 21 47  1  0
 24 48  1  0
 24 49  1  0
 25 50  1  0
 25 51  1  0
 26 52  1  0
 29 53  1  0
 29 54  1  0
M  END
$$$$
