
     RDKit          3D

 54 57  0  0  0  0  0  0  0  0999 V2000
    4.3927   -3.8204    3.9374 F   0  0  0  0  0  0  0  0  0  0  0  0
    4.5627   -2.6012    3.3747 C   0  0  0  0  0  0  0  0  0  0  0  0
    5.8517   -2.1014    3.1698 C   0  0  0  0  0  0  0  0  0  0  0  0
    6.0287   -0.8460    2.5843 C   0  0  0  0  0  0  0  0  0  0  0  0
    7.2762   -0.3590    2.3825 F   0  0  0  0  0  0  0  0  0  0  0  0
    4.9174   -0.0880    2.2052 C   0  0  0  0  0  0  0  0  0  0  0  0
    3.6173   -0.5792    2.4170 C   0  0  0  0  0  0  0  0  0  0  0  0
    2.4268    0.2065    1.9493 C   0  0  0  0  0  0  0  0  0  0  0  0
    1.9899   -0.3155    0.6578 N   0  0  0  0  0  0  0  0  0  0  0  0
    1.1043    0.2490   -0.1080 C   0  0  0  0  0  0  0  0  0  0  0  0
    0.5359    1.5254    0.2239 N   0  0  0  0  0  0  0  0  0  0  0  0
   -0.8183    1.5979    0.7630 C   0  0  0  0  0  0  0  0  0  0  0  0
   -1.4626    2.9763    0.5563 C   0  0  0  0  0  0  0  0  0  0  0  0
   -1.4528    3.5385   -0.8846 C   0  0  0  0  0  0  0  0  0  0  0  0
   -1.7176    2.5464   -2.0332 C   0  0  0  0  0  0  0  0  0  0  0  0
   -2.9827    1.6829   -1.8807 C   0  0  0  0  0  0  0  0  0  0  0  0
   -2.5871    0.3165   -1.9206 O   0  0  0  0  0  0  0  0  0  0  0  0
   -3.2531   -0.7208   -1.2651 C   0  0  0  0  0  0  0  0  0  0  0  0
   -4.6519   -0.7919   -1.2620 C   0  0  0  0  0  0  0  0  0  0  0  0
   -5.2972   -1.8296   -0.5822 C   0  0  0  0  0  0  0  0  0  0  0  0
   -4.5488   -2.7889    0.1092 C   0  0  0  0  0  0  0  0  0  0  0  0
   -3.1528   -2.7179    0.1159 C   0  0  0  0  0  0  0  0  0  0  0  0
   -2.4948   -1.6939   -0.5760 C   0  0  0  0  0  0  0  0  0  0  0  0
   -1.0956   -1.6046   -0.4969 O   0  0  0  0  0  0  0  0  0  0  0  0
   -0.2925   -1.2360   -1.5828 C   0  0  0  0  0  0  0  0  0  0  0  0
   -0.5796   -1.7159   -2.8262 N   0  0  0  0  0  0  0  0  0  0  0  0
    0.1613   -1.3860   -3.9158 C   0  0  0  0  0  0  0  0  0  0  0  0
    1.2540   -0.5297   -3.7829 C   0  0  0  0  0  0  0  0  0  0  0  0
    1.5705   -0.0158   -2.5249 C   0  0  0  0  0  0  0  0  0  0  0  0
    0.7996   -0.3645   -1.4086 C   0  0  0  0  0  0  0  0  0  0  0  0
    3.4486   -1.8437    2.9996 C   0  0  0  0  0  0  0  0  0  0  0  0
    6.7119   -2.6901    3.4630 H   0  0  0  0  0  0  0  0  0  0  0  0
    5.0707    0.8803    1.7420 H   0  0  0  0  0  0  0  0  0  0  0  0
    1.5981    0.1249    2.6847 H   0  0  0  0  0  0  0  0  0  0  0  0
    2.7028    1.2777    1.8547 H   0  0  0  0  0  0  0  0  0  0  0  0
    1.1821    2.3255    0.4049 H   0  0  0  0  0  0  0  0  0  0  0  0
   -1.4580    0.8188    0.3116 H   0  0  0  0  0  0  0  0  0  0  0  0
   -0.7774    1.3866    1.8553 H   0  0  0  0  0  0  0  0  0  0  0  0
   -2.5113    2.9202    0.9153 H   0  0  0  0  0  0  0  0  0  0  0  0
   -0.9488    3.7075    1.2172 H   0  0  0  0  0  0  0  0  0  0  0  0
   -2.2050    4.3557   -0.9436 H   0  0  0  0  0  0  0  0  0  0  0  0
   -0.4605    4.0066   -1.0677 H   0  0  0  0  0  0  0  0  0  0  0  0
   -1.7956    3.1275   -2.9790 H   0  0  0  0  0  0  0  0  0  0  0  0
   -0.8214    1.9033   -2.1526 H   0  0  0  0  0  0  0  0  0  0  0  0
   -3.6914    1.8827   -2.7143 H   0  0  0  0  0  0  0  0  0  0  0  0
   -3.5109    1.9005   -0.9298 H   0  0  0  0  0  0  0  0  0  0  0  0
   -5.2401   -0.0515   -1.7910 H   0  0  0  0  0  0  0  0  0  0  0  0
   -6.3759   -1.8822   -0.5853 H   0  0  0  0  0  0  0  0  0  0  0  0
   -5.0507   -3.5924    0.6374 H   0  0  0  0  0  0  0  0  0  0  0  0
   -2.5801   -3.4585    0.6609 H   0  0  0  0  0  0  0  0  0  0  0  0
   -0.0984   -1.7879   -4.8867 H   0  0  0  0  0  0  0  0  0  0  0  0
    1.8462   -0.2614   -4.6485 H   0  0  0  0  0  0  0  0  0  0  0  0
    2.4089    0.6614   -2.4220 H   0  0  0  0  0  0  0  0  0  0  0  0
    2.4545   -2.2446    3.1515 H   0  0  0  0  0  0  0  0  0  0  0  0
  1  2  1  0
  2  3  2  0
  3  4  1  0
  4  5  1  0
  4  6  2  0
  6  7  1  0
  7  8  1  0
  8  9  1  0
  9 10  2  3
 10 11  1  0
 11 12  1  0
 12 13  1  0
 13 14  1  0
 14 15  1  0
 15 16  1  0
 16 17  1  0
 17 18  1  0
 18 19  2  0
 19 20  1  0
 20 21  2  0
 21 22  1  0
 22 23  2  0
 23 24  1  0
 24 25  1  0
 25 26  2  0
 26 27  1  0
 27 28  2  0
 28 29  1  0
 29 30  2  0
  7 31  2  0
 31  2  1  0
 30 10  1  0
 23 18  1  0
 30 25  1  0
  3 32  1  0
  6 33  1  0
  8 34  1  0
  8 35  1  0
 11 36  1  0
 12 37  1  0
 12 38  1  0
 13 39  1  0
 13 40  1  0
 14 41  1  0
 14 42  1  0
 15 43  1  0
 15 44  1  0
 16 45  1  0
 16 46  1  0
 19 47  1  0
 20 48  1  0
 21 49  1  0
 22 50  1  0
 27 51  1  0
 28 52  1  0
 29 53  1  0
 31 54  1  0
M  END
$$$$
