
     RDKit          3D

 64 67  0  0  0  0  0  0  0  0999 V2000
   -0.1287    4.3542   -1.3143 C   0  0  0  0  0  0  0  0  0  0  0  0
   -0.2617    2.9179   -1.8137 C   0  0  0  0  0  0  0  0  0  0  0  0
   -0.9087    2.0652   -0.8116 N   0  0  0  0  0  0  0  0  0  0  0  0
   -2.3748    2.0410   -0.7141 C   0  0  0  0  0  0  0  0  0  0  0  0
   -2.9718    0.8648   -1.5048 C   0  0  0  0  0  0  0  0  0  0  0  0
   -3.1102   -0.2950   -0.6810 O   0  0  0  0  0  0  0  0  0  0  0  0
   -4.0881   -0.4796    0.3157 C   0  0  0  0  0  0  0  0  0  0  0  0
   -5.1028    0.4747    0.5476 C   0  0  0  0  0  0  0  0  0  0  0  0
   -6.0547    0.2688    1.5483 C   0  0  0  0  0  0  0  0  0  0  0  0
   -6.0151   -0.8873    2.3268 C   0  0  0  0  0  0  0  0  0  0  0  0
   -5.0191   -1.8397    2.1117 C   0  0  0  0  0  0  0  0  0  0  0  0
   -4.0503   -1.6503    1.1096 C   0  0  0  0  0  0  0  0  0  0  0  0
   -2.9891   -2.7113    0.9149 C   0  0  0  0  0  0  0  0  0  0  0  0
   -1.9305   -2.7023    2.0430 C   0  0  0  0  0  0  0  0  0  0  0  0
   -0.5848   -2.1042    1.6019 C   0  0  0  0  0  0  0  0  0  0  0  0
   -0.6120   -0.5614    1.5080 C   0  0  0  0  0  0  0  0  0  0  0  0
    0.1836    0.0156    0.3071 C   0  0  0  0  0  0  0  0  0  0  0  0
    1.7140   -0.1795    0.5376 C   0  0  0  0  0  0  0  0  0  0  0  0
    2.4248    0.1116   -0.7052 N   0  0  0  0  0  0  0  0  0  0  0  0
    3.6498    0.8522   -0.6960 C   0  0  0  0  0  0  0  0  0  0  0  0
    3.6088    2.0952   -0.9029 O   0  0  0  0  0  0  0  0  0  0  0  0
    4.9507    0.1736   -0.4747 C   0  0  0  0  0  0  0  0  0  0  0  0
    6.1580    0.8864   -0.6141 C   0  0  0  0  0  0  0  0  0  0  0  0
    7.3869    0.2440   -0.4296 C   0  0  0  0  0  0  0  0  0  0  0  0
    7.4262   -1.1133   -0.1006 C   0  0  0  0  0  0  0  0  0  0  0  0
    8.6193   -1.7361    0.0655 F   0  0  0  0  0  0  0  0  0  0  0  0
    6.2353   -1.8305    0.0448 C   0  0  0  0  0  0  0  0  0  0  0  0
    5.0042   -1.1952   -0.1419 C   0  0  0  0  0  0  0  0  0  0  0  0
    1.8962   -0.4018   -1.9642 C   0  0  0  0  0  0  0  0  0  0  0  0
    0.6535   -1.2538   -1.6965 C   0  0  0  0  0  0  0  0  0  0  0  0
   -0.3101   -0.5740   -0.9040 O   0  0  0  0  0  0  0  0  0  0  0  0
   -0.1106    1.5061    0.2462 C   0  0  0  0  0  0  0  0  0  0  0  0
    0.3109    2.2664    1.1588 O   0  0  0  0  0  0  0  0  0  0  0  0
   -1.1226    4.7762   -1.0592 H   0  0  0  0  0  0  0  0  0  0  0  0
    0.5264    4.3905   -0.4178 H   0  0  0  0  0  0  0  0  0  0  0  0
    0.3256    4.9842   -2.1098 H   0  0  0  0  0  0  0  0  0  0  0  0
    0.7495    2.5274   -2.0497 H   0  0  0  0  0  0  0  0  0  0  0  0
   -0.8539    2.9073   -2.7561 H   0  0  0  0  0  0  0  0  0  0  0  0
   -2.6896    2.0045    0.3516 H   0  0  0  0  0  0  0  0  0  0  0  0
   -2.7909    2.9844   -1.1301 H   0  0  0  0  0  0  0  0  0  0  0  0
   -2.3105    0.6200   -2.3651 H   0  0  0  0  0  0  0  0  0  0  0  0
   -3.9553    1.1457   -1.9402 H   0  0  0  0  0  0  0  0  0  0  0  0
   -5.1656    1.3838   -0.0334 H   0  0  0  0  0  0  0  0  0  0  0  0
   -6.8291    1.0068    1.7187 H   0  0  0  0  0  0  0  0  0  0  0  0
   -6.7570   -1.0452    3.0990 H   0  0  0  0  0  0  0  0  0  0  0  0
   -5.0028   -2.7311    2.7265 H   0  0  0  0  0  0  0  0  0  0  0  0
   -2.5077   -2.6198   -0.0838 H   0  0  0  0  0  0  0  0  0  0  0  0
   -3.4920   -3.7040    0.9060 H   0  0  0  0  0  0  0  0  0  0  0  0
   -1.7396   -3.7561    2.3393 H   0  0  0  0  0  0  0  0  0  0  0  0
   -2.2989   -2.1807    2.9540 H   0  0  0  0  0  0  0  0  0  0  0  0
    0.1904   -2.3961    2.3429 H   0  0  0  0  0  0  0  0  0  0  0  0
   -0.2872   -2.5791    0.6472 H   0  0  0  0  0  0  0  0  0  0  0  0
   -1.6588   -0.1981    1.4574 H   0  0  0  0  0  0  0  0  0  0  0  0
   -0.2021   -0.1440    2.4572 H   0  0  0  0  0  0  0  0  0  0  0  0
    2.0863    0.4656    1.3640 H   0  0  0  0  0  0  0  0  0  0  0  0
    1.9282   -1.2292    0.8312 H   0  0  0  0  0  0  0  0  0  0  0  0
    6.1531    1.9362   -0.8849 H   0  0  0  0  0  0  0  0  0  0  0  0
    8.3091    0.7978   -0.5506 H   0  0  0  0  0  0  0  0  0  0  0  0
    6.2646   -2.8836    0.2939 H   0  0  0  0  0  0  0  0  0  0  0  0
    4.1000   -1.7815   -0.0393 H   0  0  0  0  0  0  0  0  0  0  0  0
    2.6669   -1.0228   -2.4715 H   0  0  0  0  0  0  0  0  0  0  0  0
    1.6289    0.4446   -2.6325 H   0  0  0  0  0  0  0  0  0  0  0  0
    0.9481   -2.2104   -1.2148 H   0  0  0  0  0  0  0  0  0  0  0  0
    0.1873   -1.5156   -2.6686 H   0  0  0  0  0  0  0  0  0  0  0  0
  1  2  1  0
  2  3  1  0
  3  4  1  0
  4  5  1  0
  5  6  1  0
  6  7  1  0
  7  8  2  0
  8  9  1  0
  9 10  2  0
 10 11  1  0
 11 12  2  0
 12 13  1  0
 13 14  1  0
 14 15  1  0
 15 16  1  0
 16 17  1  0
 17 18  1  0
 18 19  1  0
 19 20  1  0
 20 21  2  0
 20 22  1  0
 22 23  2  0
 23 24  1  0
 24 25  2  0
 25 26  1  0
 25 27  1  0
 27 28  2  0
 19 29  1  0
 29 30  1  0
 30 31  1  0
 17 32  1  0
 32 33  2  0
 32  3  1  0
 12  7  1  0
 31 17  1  0
 28 22  1  0
  1 34  1  0
  1 35  1  0
  1 36  1  0
  2 37  1  0
  2 38  1  0
  4 39  1  0
  4 40  1  0
  5 41  1  0
  5 42  1  0
  8 43  1  0
  9 44  1  0
 10 45  1  0
 11 46  1  0
 13 47  1  0
 13 48  1  0
 14 49  1  0
 14 50  1  0
 15 51  1  0
 15 52  1  0
 16 53  1  0
 16 54  1  0
 18 55  1  0
 18 56  1  0
 23 57  1  0
 24 58  1  0
 27 59  1  0
 28 60  1  0
 29 61  1  0
 29 62  1  0
 30 63  1  0
 30 64  1  0
M  END
$$$$
