
     RDKit          3D

 71 74  0  0  0  0  0  0  0  0999 V2000
    3.9966   -0.5583   -1.7748 O   0  0  0  0  0  0  0  0  0  0  0  0
    4.3259    0.3418   -0.9538 C   0  0  0  0  0  0  0  0  0  0  0  0
    3.6843    0.3993    0.4046 C   0  0  0  0  0  0  0  0  0  0  0  0
    2.2626   -0.1025    0.3838 C   0  0  0  0  0  0  0  0  0  0  0  0
    1.9323   -1.3270    0.9771 C   0  0  0  0  0  0  0  0  0  0  0  0
    0.6170   -1.7917    0.9517 C   0  0  0  0  0  0  0  0  0  0  0  0
   -0.3989   -1.0400    0.3289 C   0  0  0  0  0  0  0  0  0  0  0  0
   -0.0694    0.1888   -0.2868 C   0  0  0  0  0  0  0  0  0  0  0  0
    1.2617    0.6428   -0.2544 C   0  0  0  0  0  0  0  0  0  0  0  0
   -1.0902    0.9872   -1.0754 C   0  0  0  0  0  0  0  0  0  0  0  0
   -2.3789    1.1436   -0.3575 N   0  0  0  0  0  0  0  0  0  0  0  0
   -2.2137    2.0124    0.8348 C   0  0  0  0  0  0  0  0  0  0  0  0
   -3.1836    1.6054    1.9126 C   0  0  0  0  0  0  0  0  0  0  0  0
   -2.8771    0.5324    2.7665 C   0  0  0  0  0  0  0  0  0  0  0  0
   -3.7855    0.1344    3.7538 C   0  0  0  0  0  0  0  0  0  0  0  0
   -5.0045    0.8050    3.8964 C   0  0  0  0  0  0  0  0  0  0  0  0
   -5.3147    1.8769    3.0549 C   0  0  0  0  0  0  0  0  0  0  0  0
   -4.4089    2.2772    2.0664 C   0  0  0  0  0  0  0  0  0  0  0  0
   -3.4025    1.7261   -1.2616 C   0  0  0  0  0  0  0  0  0  0  0  0
   -3.8158    0.7632   -2.3453 C   0  0  0  0  0  0  0  0  0  0  0  0
   -3.3360    0.9144   -3.5017 O   0  0  0  0  0  0  0  0  0  0  0  0
   -4.7334   -0.3165   -2.1128 N   0  0  0  0  0  0  0  0  0  0  0  0
   -5.4248   -0.5612   -0.8444 C   0  0  0  0  0  0  0  0  0  0  0  0
   -5.6342   -2.0696   -0.6245 C   0  0  0  0  0  0  0  0  0  0  0  0
   -4.3044   -2.8212   -0.4306 C   0  0  0  0  0  0  0  0  0  0  0  0
   -3.7387   -2.6437    0.9925 C   0  0  0  0  0  0  0  0  0  0  0  0
   -2.2121   -2.6370    1.0045 C   0  0  0  0  0  0  0  0  0  0  0  0
   -1.7323   -1.4774    0.3222 O   0  0  0  0  0  0  0  0  0  0  0  0
    5.3559    1.2805   -1.2891 N   0  0  0  0  0  0  0  0  0  0  0  0
    6.0585    1.2689   -2.5717 C   0  0  0  0  0  0  0  0  0  0  0  0
    7.0025    0.0656   -2.6873 C   0  0  0  0  0  0  0  0  0  0  0  0
    7.9393   -0.0268   -1.5193 C   0  0  0  0  0  0  0  0  0  0  0  0
    8.8913    0.9023   -1.1614 C   0  0  0  0  0  0  0  0  0  0  0  0
    9.5264    0.4405   -0.0753 N   0  0  0  0  0  0  0  0  0  0  0  0
    8.9600   -0.7528    0.1958 C   0  0  0  0  0  0  0  0  0  0  0  0
    7.9807   -1.0783   -0.6739 N   0  0  0  0  0  0  0  0  0  0  0  0
    3.6835    1.4484    0.7714 H   0  0  0  0  0  0  0  0  0  0  0  0
    4.3049   -0.1926    1.1104 H   0  0  0  0  0  0  0  0  0  0  0  0
    2.6944   -1.9253    1.4603 H   0  0  0  0  0  0  0  0  0  0  0  0
    0.4010   -2.7435    1.4157 H   0  0  0  0  0  0  0  0  0  0  0  0
    1.5280    1.5753   -0.7385 H   0  0  0  0  0  0  0  0  0  0  0  0
   -1.2374    0.4347   -2.0262 H   0  0  0  0  0  0  0  0  0  0  0  0
   -0.6843    1.9899   -1.3429 H   0  0  0  0  0  0  0  0  0  0  0  0
   -2.3407    3.0887    0.5788 H   0  0  0  0  0  0  0  0  0  0  0  0
   -1.1908    1.9366    1.2641 H   0  0  0  0  0  0  0  0  0  0  0  0
   -1.9336    0.0095    2.6716 H   0  0  0  0  0  0  0  0  0  0  0  0
   -3.5430   -0.6939    4.4073 H   0  0  0  0  0  0  0  0  0  0  0  0
   -5.7052    0.4984    4.6632 H   0  0  0  0  0  0  0  0  0  0  0  0
   -6.2575    2.3974    3.1661 H   0  0  0  0  0  0  0  0  0  0  0  0
   -4.6634    3.1154    1.4293 H   0  0  0  0  0  0  0  0  0  0  0  0
   -3.0208    2.6642   -1.7262 H   0  0  0  0  0  0  0  0  0  0  0  0
   -4.3144    2.0112   -0.6970 H   0  0  0  0  0  0  0  0  0  0  0  0
   -5.0242   -0.8806   -2.9445 H   0  0  0  0  0  0  0  0  0  0  0  0
   -6.4148   -0.0604   -0.8744 H   0  0  0  0  0  0  0  0  0  0  0  0
   -4.8573   -0.1354    0.0075 H   0  0  0  0  0  0  0  0  0  0  0  0
   -6.1615   -2.4929   -1.5068 H   0  0  0  0  0  0  0  0  0  0  0  0
   -6.2933   -2.2314    0.2573 H   0  0  0  0  0  0  0  0  0  0  0  0
   -4.4778   -3.9068   -0.6041 H   0  0  0  0  0  0  0  0  0  0  0  0
   -3.5758   -2.4892   -1.2024 H   0  0  0  0  0  0  0  0  0  0  0  0
   -4.1064   -3.4733    1.6352 H   0  0  0  0  0  0  0  0  0  0  0  0
   -4.0903   -1.6970    1.4543 H   0  0  0  0  0  0  0  0  0  0  0  0
   -1.8781   -2.6088    2.0655 H   0  0  0  0  0  0  0  0  0  0  0  0
   -1.8189   -3.5567    0.5183 H   0  0  0  0  0  0  0  0  0  0  0  0
    5.5923    2.0377   -0.6076 H   0  0  0  0  0  0  0  0  0  0  0  0
    5.3197    1.2490   -3.4016 H   0  0  0  0  0  0  0  0  0  0  0  0
    6.6501    2.2061   -2.6708 H   0  0  0  0  0  0  0  0  0  0  0  0
    6.4088   -0.8709   -2.7638 H   0  0  0  0  0  0  0  0  0  0  0  0
    7.5973    0.1608   -3.6201 H   0  0  0  0  0  0  0  0  0  0  0  0
    9.1094    1.8387   -1.6576 H   0  0  0  0  0  0  0  0  0  0  0  0
   10.3052    0.9029    0.4425 H   0  0  0  0  0  0  0  0  0  0  0  0
    9.2598   -1.3868    1.0208 H   0  0  0  0  0  0  0  0  0  0  0  0
  1  2  2  0
  2  3  1  0
  3  4  1  0
  4  5  2  0
  5  6  1  0
  6  7  2  0
  7  8  1  0
  8  9  2  0
  8 10  1  0
 10 11  1  0
 11 12  1  0
 12 13  1  0
 13 14  2  0
 14 15  1  0
 15 16  2  0
 16 17  1  0
 17 18  2  0
 11 19  1  0
 19 20  1  0
 20 21  2  0
 20 22  1  0
 22 23  1  0
 23 24  1  0
 24 25  1  0
 25 26  1  0
 26 27  1  0
 27 28  1  0
  2 29  1  0
 29 30  1  0
 30 31  1  0
 31 32  1  0
 32 33  2  0
 33 34  1  0
 34 35  1  0
 35 36  2  0
  9  4  1  0
 18 13  1  0
 36 32  1  0
 28  7  1  0
  3 37  1  0
  3 38  1  0
  5 39  1  0
  6 40  1  0
  9 41  1  0
 10 42  1  0
 10 43  1  0
 12 44  1  0
 12 45  1  0
 14 46  1  0
 15 47  1  0
 16 48  1  0
 17 49  1  0
 18 50  1  0
 19 51  1  0
 19 52  1  0
 22 53  1  0
 23 54  1  0
 23 55  1  0
 24 56  1  0
 24 57  1  0
 25 58  1  0
 25 59  1  0
 26 60  1  0
 26 61  1  0
 27 62  1  0
 27 63  1  0
 29 64  1  0
 30 65  1  0
 30 66  1  0
 31 67  1  0
 31 68  1  0
 33 69  1  0
 34 70  1  0
 35 71  1  0
M  END
$$$$
