
     RDKit          3D

 79 81  0  0  0  0  0  0  0  0999 V2000
   -6.8688    2.4146    1.9650 C   0  0  0  0  0  0  0  0  0  0  0  0
   -5.8034    3.4382    1.5525 C   0  0  0  0  0  0  0  0  0  0  0  0
   -5.1115    4.0404    2.7823 C   0  0  0  0  0  0  0  0  0  0  0  0
   -4.8132    2.8957    0.4884 C   0  0  0  0  0  0  0  0  0  0  0  0
   -3.6864    1.9580    0.9858 C   0  0  0  0  0  0  0  0  0  0  0  0
   -2.6613    1.8453   -0.0580 N   0  0  0  0  0  0  0  0  0  0  0  0
   -1.2627    2.0812    0.1858 C   0  0  0  0  0  0  0  0  0  0  0  0
   -0.8250    2.1488    1.3651 O   0  0  0  0  0  0  0  0  0  0  0  0
   -0.3150    2.3048   -0.9641 C   0  0  0  0  0  0  0  0  0  0  0  0
    0.5393    1.0723   -1.3262 C   0  0  0  0  0  0  0  0  0  0  0  0
    1.4315    0.6574   -0.1862 C   0  0  0  0  0  0  0  0  0  0  0  0
    1.0447   -0.2275    0.6269 O   0  0  0  0  0  0  0  0  0  0  0  0
    2.7373    1.2316   -0.0541 N   0  0  0  0  0  0  0  0  0  0  0  0
    3.8418    0.4924    0.5533 C   0  0  0  0  0  0  0  0  0  0  0  0
    4.3861   -0.5377   -0.4433 C   0  0  0  0  0  0  0  0  0  0  0  0
    5.4952   -1.4190    0.1562 C   0  0  0  0  0  0  0  0  0  0  0  0
    6.6044   -0.6255    0.7286 N   0  0  0  0  0  0  0  0  0  0  0  0
    7.4295   -1.4823    1.6065 C   0  0  0  0  0  0  0  0  0  0  0  0
    8.7540   -0.7913    1.9837 C   0  0  0  0  0  0  0  0  0  0  0  0
    8.6968    0.5908    1.7011 O   0  0  0  0  0  0  0  0  0  0  0  0
    8.6002    0.7838    0.3008 C   0  0  0  0  0  0  0  0  0  0  0  0
    7.4450   -0.0248   -0.3273 C   0  0  0  0  0  0  0  0  0  0  0  0
   -0.2949   -0.0510   -1.7648 N   0  0  0  0  0  0  0  0  0  0  0  0
    0.2751   -1.2810   -2.2547 C   0  0  0  0  0  0  0  0  0  0  0  0
    1.4546   -1.2711   -2.6973 O   0  0  0  0  0  0  0  0  0  0  0  0
   -0.4283   -2.5907   -2.1243 C   0  0  0  0  0  0  0  0  0  0  0  0
    0.3524   -3.7442   -1.9070 C   0  0  0  0  0  0  0  0  0  0  0  0
   -0.2464   -4.9858   -1.6874 C   0  0  0  0  0  0  0  0  0  0  0  0
   -1.6364   -5.0985   -1.6726 C   0  0  0  0  0  0  0  0  0  0  0  0
   -2.4292   -3.9783   -1.9184 C   0  0  0  0  0  0  0  0  0  0  0  0
   -1.8396   -2.7233   -2.1594 C   0  0  0  0  0  0  0  0  0  0  0  0
   -2.6429   -1.6208   -2.4651 O   0  0  0  0  0  0  0  0  0  0  0  0
   -3.8685   -1.3088   -1.8015 C   0  0  0  0  0  0  0  0  0  0  0  0
   -3.6628   -1.2281   -0.2768 C   0  0  0  0  0  0  0  0  0  0  0  0
   -4.6476   -0.3392    0.3479 N   0  0  0  0  0  0  0  0  0  0  0  0
   -6.0741   -0.6602    0.2671 C   0  0  0  0  0  0  0  0  0  0  0  0
   -4.2036    0.5879    1.3520 C   0  0  0  0  0  0  0  0  0  0  0  0
   -4.2403    0.2472    2.5644 O   0  0  0  0  0  0  0  0  0  0  0  0
   -6.4392    1.5975    2.5770 H   0  0  0  0  0  0  0  0  0  0  0  0
   -7.3628    1.9882    1.0694 H   0  0  0  0  0  0  0  0  0  0  0  0
   -7.6507    2.9186    2.5744 H   0  0  0  0  0  0  0  0  0  0  0  0
   -6.3531    4.2719    1.0626 H   0  0  0  0  0  0  0  0  0  0  0  0
   -5.8463    4.6166    3.3858 H   0  0  0  0  0  0  0  0  0  0  0  0
   -4.6865    3.2446    3.4309 H   0  0  0  0  0  0  0  0  0  0  0  0
   -4.2979    4.7299    2.4715 H   0  0  0  0  0  0  0  0  0  0  0  0
   -4.3269    3.7813    0.0226 H   0  0  0  0  0  0  0  0  0  0  0  0
   -5.3799    2.3986   -0.3299 H   0  0  0  0  0  0  0  0  0  0  0  0
   -3.2184    2.4094    1.8843 H   0  0  0  0  0  0  0  0  0  0  0  0
   -2.9742    1.6481   -1.0355 H   0  0  0  0  0  0  0  0  0  0  0  0
   -0.8945    2.6205   -1.8582 H   0  0  0  0  0  0  0  0  0  0  0  0
    0.3576    3.1512   -0.7105 H   0  0  0  0  0  0  0  0  0  0  0  0
    1.1864    1.3651   -2.1820 H   0  0  0  0  0  0  0  0  0  0  0  0
    2.9665    2.0883   -0.6061 H   0  0  0  0  0  0  0  0  0  0  0  0
    3.4981   -0.0084    1.4846 H   0  0  0  0  0  0  0  0  0  0  0  0
    4.6445    1.2077    0.8286 H   0  0  0  0  0  0  0  0  0  0  0  0
    3.5563   -1.2038   -0.7628 H   0  0  0  0  0  0  0  0  0  0  0  0
    4.7494   -0.0205   -1.3562 H   0  0  0  0  0  0  0  0  0  0  0  0
    5.8716   -2.1172   -0.6251 H   0  0  0  0  0  0  0  0  0  0  0  0
    5.0211   -2.0425    0.9514 H   0  0  0  0  0  0  0  0  0  0  0  0
    7.6596   -2.4544    1.1153 H   0  0  0  0  0  0  0  0  0  0  0  0
    6.8579   -1.6934    2.5375 H   0  0  0  0  0  0  0  0  0  0  0  0
    8.9436   -0.9234    3.0721 H   0  0  0  0  0  0  0  0  0  0  0  0
    9.6090   -1.2696    1.4485 H   0  0  0  0  0  0  0  0  0  0  0  0
    8.4262    1.8658    0.1171 H   0  0  0  0  0  0  0  0  0  0  0  0
    9.5644    0.5241   -0.1898 H   0  0  0  0  0  0  0  0  0  0  0  0
    7.8656   -0.8180   -0.9900 H   0  0  0  0  0  0  0  0  0  0  0  0
    6.8441    0.6641   -0.9565 H   0  0  0  0  0  0  0  0  0  0  0  0
   -1.3228    0.0847   -1.7509 H   0  0  0  0  0  0  0  0  0  0  0  0
    1.4340   -3.6812   -1.8817 H   0  0  0  0  0  0  0  0  0  0  0  0
    0.3670   -5.8601   -1.5064 H   0  0  0  0  0  0  0  0  0  0  0  0
   -2.0989   -6.0616   -1.4953 H   0  0  0  0  0  0  0  0  0  0  0  0
   -3.5038   -4.0980   -1.9454 H   0  0  0  0  0  0  0  0  0  0  0  0
   -4.6457   -2.0598   -2.0524 H   0  0  0  0  0  0  0  0  0  0  0  0
   -4.2149   -0.3261   -2.1807 H   0  0  0  0  0  0  0  0  0  0  0  0
   -2.6349   -0.8653   -0.0638 H   0  0  0  0  0  0  0  0  0  0  0  0
   -3.7454   -2.2417    0.1674 H   0  0  0  0  0  0  0  0  0  0  0  0
   -6.6041    0.1434   -0.2818 H   0  0  0  0  0  0  0  0  0  0  0  0
   -6.2414   -1.6178   -0.2705 H   0  0  0  0  0  0  0  0  0  0  0  0
   -6.5066   -0.7581    1.2853 H   0  0  0  0  0  0  0  0  0  0  0  0
  1  2  1  0
  2  3  1  0
  2  4  1  0
  4  5  1  0
  5  6  1  0
  6  7  1  0
  7  8  2  0
  7  9  1  0
  9 10  1  0
 10 11  1  0
 11 12  2  0
 11 13  1  0
 13 14  1  0
 14 15  1  0
 15 16  1  0
 16 17  1  0
 17 18  1  0
 18 19  1  0
 19 20  1  0
 20 21  1  0
 21 22  1  0
 10 23  1  0
 23 24  1  0
 24 25  2  0
 24 26  1  0
 26 27  2  0
 27 28  1  0
 28 29  2  0
 29 30  1  0
 30 31  2  0
 31 32  1  0
 32 33  1  0
 33 34  1  0
 34 35  1  0
 35 36  1  0
 35 37  1  0
 37 38  2  0
 37  5  1  0
 22 17  1  0
 31 26  1  0
  1 39  1  0
  1 40  1  0
  1 41  1  0
  2 42  1  0
  3 43  1  0
  3 44  1  0
  3 45  1  0
  4 46  1  0
  4 47  1  0
  5 48  1  0
  6 49  1  0
  9 50  1  0
  9 51  1  0
 10 52  1  0
 13 53  1  0
 14 54  1  0
 14 55  1  0
 15 56  1  0
 15 57  1  0
 16 58  1  0
 16 59  1  0
 18 60  1  0
 18 61  1  0
 19 62  1  0
 19 63  1  0
 21 64  1  0
 21 65  1  0
 22 66  1  0
 22 67  1  0
 23 68  1  0
 27 69  1  0
 28 70  1  0
 29 71  1  0
 30 72  1  0
 33 73  1  0
 33 74  1  0
 34 75  1  0
 34 76  1  0
 36 77  1  0
 36 78  1  0
 36 79  1  0
M  END
$$$$
