
     RDKit          3D

 70 73  0  0  0  0  0  0  0  0999 V2000
   -2.3593   -3.2436   -1.3971 C   0  0  0  0  0  0  0  0  0  0  0  0
   -2.6261   -2.1165   -0.4018 C   0  0  0  0  0  0  0  0  0  0  0  0
   -1.9523   -0.8677   -0.8026 N   0  0  0  0  0  0  0  0  0  0  0  0
   -2.3679   -0.1718   -2.0405 C   0  0  0  0  0  0  0  0  0  0  0  0
   -3.8710    0.1371   -2.0670 C   0  0  0  0  0  0  0  0  0  0  0  0
   -4.2120    0.8816   -0.9043 O   0  0  0  0  0  0  0  0  0  0  0  0
   -5.4939    1.0056   -0.3523 C   0  0  0  0  0  0  0  0  0  0  0  0
   -6.6499    0.6497   -1.0697 C   0  0  0  0  0  0  0  0  0  0  0  0
   -7.9084    0.7655   -0.4755 C   0  0  0  0  0  0  0  0  0  0  0  0
   -8.0252    1.2344    0.8342 C   0  0  0  0  0  0  0  0  0  0  0  0
   -6.8838    1.5959    1.5549 C   0  0  0  0  0  0  0  0  0  0  0  0
   -5.6117    1.4899    0.9691 C   0  0  0  0  0  0  0  0  0  0  0  0
   -4.3775    1.8885    1.7506 C   0  0  0  0  0  0  0  0  0  0  0  0
   -3.4746    0.6695    2.0450 C   0  0  0  0  0  0  0  0  0  0  0  0
   -1.9772    1.0109    2.1347 C   0  0  0  0  0  0  0  0  0  0  0  0
   -1.3761    1.5844    0.8194 C   0  0  0  0  0  0  0  0  0  0  0  0
   -0.1925    0.7815    0.2047 C   0  0  0  0  0  0  0  0  0  0  0  0
    0.9571    0.6529    1.2741 C   0  0  0  0  0  0  0  0  0  0  0  0
    2.2731    0.5781    0.6247 N   0  0  0  0  0  0  0  0  0  0  0  0
    3.3156   -0.2679    1.1611 C   0  0  0  0  0  0  0  0  0  0  0  0
    3.0757   -0.9945    2.1656 O   0  0  0  0  0  0  0  0  0  0  0  0
    4.6962   -0.2829    0.5452 C   0  0  0  0  0  0  0  0  0  0  0  0
    5.6299   -1.3186    1.1858 C   0  0  0  0  0  0  0  0  0  0  0  0
    6.9884   -1.2630    0.5585 C   0  0  0  0  0  0  0  0  0  0  0  0
    8.0454   -0.4524    0.9281 C   0  0  0  0  0  0  0  0  0  0  0  0
    9.0642   -0.6342    0.0644 N   0  0  0  0  0  0  0  0  0  0  0  0
    8.6770   -1.5351   -0.8261 N   0  0  0  0  0  0  0  0  0  0  0  0
    9.4810   -1.9398   -1.9708 C   0  0  0  0  0  0  0  0  0  0  0  0
    7.4134   -1.9246   -0.5732 C   0  0  0  0  0  0  0  0  0  0  0  0
    2.5606    1.5203   -0.4617 C   0  0  0  0  0  0  0  0  0  0  0  0
    1.3101    2.3259   -0.8061 C   0  0  0  0  0  0  0  0  0  0  0  0
    0.2184    1.4498   -0.9909 O   0  0  0  0  0  0  0  0  0  0  0  0
   -0.6459   -0.6129   -0.2332 C   0  0  0  0  0  0  0  0  0  0  0  0
    0.1697   -1.5732   -0.1491 O   0  0  0  0  0  0  0  0  0  0  0  0
   -2.8353   -3.0188   -2.3743 H   0  0  0  0  0  0  0  0  0  0  0  0
   -1.2681   -3.3845   -1.5432 H   0  0  0  0  0  0  0  0  0  0  0  0
   -2.7922   -4.1892   -1.0093 H   0  0  0  0  0  0  0  0  0  0  0  0
   -2.2743   -2.4340    0.6048 H   0  0  0  0  0  0  0  0  0  0  0  0
   -3.7196   -1.9577   -0.3083 H   0  0  0  0  0  0  0  0  0  0  0  0
   -2.1045   -0.7940   -2.9218 H   0  0  0  0  0  0  0  0  0  0  0  0
   -1.8262    0.7875   -2.1555 H   0  0  0  0  0  0  0  0  0  0  0  0
   -4.1130    0.7358   -2.9704 H   0  0  0  0  0  0  0  0  0  0  0  0
   -4.4482   -0.8103   -2.1145 H   0  0  0  0  0  0  0  0  0  0  0  0
   -6.5838    0.2904   -2.0876 H   0  0  0  0  0  0  0  0  0  0  0  0
   -8.7954    0.4903   -1.0316 H   0  0  0  0  0  0  0  0  0  0  0  0
   -9.0023    1.3203    1.2912 H   0  0  0  0  0  0  0  0  0  0  0  0
   -6.9931    1.9593    2.5690 H   0  0  0  0  0  0  0  0  0  0  0  0
   -3.8437    2.6691    1.1709 H   0  0  0  0  0  0  0  0  0  0  0  0
   -4.6561    2.3672    2.7149 H   0  0  0  0  0  0  0  0  0  0  0  0
   -3.7950    0.2237    3.0120 H   0  0  0  0  0  0  0  0  0  0  0  0
   -3.6037   -0.1271    1.2892 H   0  0  0  0  0  0  0  0  0  0  0  0
   -1.4489    0.0839    2.4376 H   0  0  0  0  0  0  0  0  0  0  0  0
   -1.8284    1.7431    2.9577 H   0  0  0  0  0  0  0  0  0  0  0  0
   -2.1489    1.7139    0.0443 H   0  0  0  0  0  0  0  0  0  0  0  0
   -1.0261    2.6180    1.0324 H   0  0  0  0  0  0  0  0  0  0  0  0
    0.7815   -0.2272    1.9290 H   0  0  0  0  0  0  0  0  0  0  0  0
    0.9636    1.5397    1.9455 H   0  0  0  0  0  0  0  0  0  0  0  0
    4.6026   -0.5108   -0.5385 H   0  0  0  0  0  0  0  0  0  0  0  0
    5.1448    0.7275    0.6582 H   0  0  0  0  0  0  0  0  0  0  0  0
    5.7279   -1.1177    2.2750 H   0  0  0  0  0  0  0  0  0  0  0  0
    5.2077   -2.3390    1.0542 H   0  0  0  0  0  0  0  0  0  0  0  0
    8.0655    0.2388    1.7604 H   0  0  0  0  0  0  0  0  0  0  0  0
    9.2349   -2.9830   -2.2626 H   0  0  0  0  0  0  0  0  0  0  0  0
    9.2772   -1.2627   -2.8261 H   0  0  0  0  0  0  0  0  0  0  0  0
   10.5598   -1.8890   -1.7126 H   0  0  0  0  0  0  0  0  0  0  0  0
    6.8409   -2.6194   -1.1745 H   0  0  0  0  0  0  0  0  0  0  0  0
    2.8783    0.9558   -1.3647 H   0  0  0  0  0  0  0  0  0  0  0  0
    3.3724    2.2161   -0.1592 H   0  0  0  0  0  0  0  0  0  0  0  0
    1.4860    2.8798   -1.7524 H   0  0  0  0  0  0  0  0  0  0  0  0
    1.0926    3.0818   -0.0183 H   0  0  0  0  0  0  0  0  0  0  0  0
  1  2  1  0
  2  3  1  0
  3  4  1  0
  4  5  1  0
  5  6  1  0
  6  7  1  0
  7  8  2  0
  8  9  1  0
  9 10  2  0
 10 11  1  0
 11 12  2  0
 12 13  1  0
 13 14  1  0
 14 15  1  0
 15 16  1  0
 16 17  1  0
 17 18  1  0
 18 19  1  0
 19 20  1  0
 20 21  2  0
 20 22  1  0
 22 23  1  0
 23 24  1  0
 24 25  1  0
 25 26  2  0
 26 27  1  0
 27 28  1  0
 27 29  1  0
 19 30  1  0
 30 31  1  0
 31 32  1  0
 17 33  1  0
 33 34  2  0
 33  3  1  0
 12  7  1  0
 32 17  1  0
 29 24  2  0
  1 35  1  0
  1 36  1  0
  1 37  1  0
  2 38  1  0
  2 39  1  0
  4 40  1  0
  4 41  1  0
  5 42  1  0
  5 43  1  0
  8 44  1  0
  9 45  1  0
 10 46  1  0
 11 47  1  0
 13 48  1  0
 13 49  1  0
 14 50  1  0
 14 51  1  0
 15 52  1  0
 15 53  1  0
 16 54  1  0
 16 55  1  0
 18 56  1  0
 18 57  1  0
 22 58  1  0
 22 59  1  0
 23 60  1  0
 23 61  1  0
 25 62  1  0
 28 63  1  0
 28 64  1  0
 28 65  1  0
 29 66  1  0
 30 67  1  0
 30 68  1  0
 31 69  1  0
 31 70  1  0
M  END
$$$$
