
     RDKit          3D

 73 74  0  0  0  0  0  0  0  0999 V2000
    8.8385    3.1268   -1.0761 C   0  0  0  0  0  0  0  0  0  0  0  0
    8.6380    1.8497   -0.4776 O   0  0  0  0  0  0  0  0  0  0  0  0
    7.4168    1.1596   -0.4746 C   0  0  0  0  0  0  0  0  0  0  0  0
    7.3570   -0.0866    0.1616 C   0  0  0  0  0  0  0  0  0  0  0  0
    6.1606   -0.8082    0.1998 C   0  0  0  0  0  0  0  0  0  0  0  0
    4.9984   -0.2846   -0.3925 C   0  0  0  0  0  0  0  0  0  0  0  0
    3.7601   -1.0127   -0.3807 N   0  0  0  0  0  0  0  0  0  0  0  0
    3.2712   -1.7406    0.7576 C   0  0  0  0  0  0  0  0  0  0  0  0
    3.9021   -1.7301    1.8496 O   0  0  0  0  0  0  0  0  0  0  0  0
    1.9766   -2.4945    0.6629 C   0  0  0  0  0  0  0  0  0  0  0  0
    0.9013   -1.6060    0.1783 N   0  0  0  0  0  0  0  0  0  0  0  0
   -0.2247   -2.3795   -0.4006 C   0  0  0  0  0  0  0  0  0  0  0  0
   -0.1648   -2.2992   -1.9309 C   0  0  0  0  0  0  0  0  0  0  0  0
   -1.1768   -3.2242   -2.6323 C   0  0  0  0  0  0  0  0  0  0  0  0
   -2.6338   -2.9942   -2.2094 C   0  0  0  0  0  0  0  0  0  0  0  0
   -2.9691   -1.6264   -2.3417 O   0  0  0  0  0  0  0  0  0  0  0  0
   -4.1510   -1.3456   -1.6162 C   0  0  0  0  0  0  0  0  0  0  0  0
   -4.5431    0.1478   -1.7643 C   0  0  0  0  0  0  0  0  0  0  0  0
   -3.4666    0.8928   -2.2808 O   0  0  0  0  0  0  0  0  0  0  0  0
   -5.0925    0.7954   -0.4480 C   0  0  0  0  0  0  0  0  0  0  0  0
   -5.8952   -0.1155    0.2631 O   0  0  0  0  0  0  0  0  0  0  0  0
   -4.0276    1.4057    0.5132 C   0  0  0  0  0  0  0  0  0  0  0  0
   -3.3845    2.5024   -0.1193 O   0  0  0  0  0  0  0  0  0  0  0  0
   -3.8635    3.7302    0.3840 C   0  0  0  0  0  0  0  0  0  0  0  0
   -2.9587    0.3886    0.9475 C   0  0  0  0  0  0  0  0  0  0  0  0
   -2.0122    0.9770    1.9145 N   0  0  0  0  0  0  0  0  0  0  0  0
   -2.4054    1.1326    3.2984 C   0  0  0  0  0  0  0  0  0  0  0  0
   -3.4017    0.2124    3.9380 C   0  0  0  0  0  0  0  0  0  0  0  0
   -1.9114    2.0613    3.9944 O   0  0  0  0  0  0  0  0  0  0  0  0
   -0.7532    1.6028    1.4537 C   0  0  0  0  0  0  0  0  0  0  0  0
    0.0979    0.6881    0.5558 C   0  0  0  0  0  0  0  0  0  0  0  0
    0.4501   -0.6524    1.2187 C   0  0  0  0  0  0  0  0  0  0  0  0
    5.0639    0.9504   -1.0535 C   0  0  0  0  0  0  0  0  0  0  0  0
    6.2590    1.6738   -1.0884 C   0  0  0  0  0  0  0  0  0  0  0  0
    9.8873    3.4473   -0.9093 H   0  0  0  0  0  0  0  0  0  0  0  0
    8.6536    3.0677   -2.1695 H   0  0  0  0  0  0  0  0  0  0  0  0
    8.1620    3.8758   -0.6144 H   0  0  0  0  0  0  0  0  0  0  0  0
    8.2448   -0.4985    0.6248 H   0  0  0  0  0  0  0  0  0  0  0  0
    6.1496   -1.7819    0.6712 H   0  0  0  0  0  0  0  0  0  0  0  0
    3.1179   -0.8948   -1.1972 H   0  0  0  0  0  0  0  0  0  0  0  0
    1.7033   -2.9398    1.6472 H   0  0  0  0  0  0  0  0  0  0  0  0
    2.1429   -3.3295   -0.0541 H   0  0  0  0  0  0  0  0  0  0  0  0
   -1.2074   -1.9713   -0.0800 H   0  0  0  0  0  0  0  0  0  0  0  0
   -0.2092   -3.4451   -0.0739 H   0  0  0  0  0  0  0  0  0  0  0  0
   -0.3386   -1.2482   -2.2496 H   0  0  0  0  0  0  0  0  0  0  0  0
    0.8556   -2.5849   -2.2682 H   0  0  0  0  0  0  0  0  0  0  0  0
   -1.0951   -3.0644   -3.7294 H   0  0  0  0  0  0  0  0  0  0  0  0
   -0.9065   -4.2837   -2.4312 H   0  0  0  0  0  0  0  0  0  0  0  0
   -3.2920   -3.6015   -2.8697 H   0  0  0  0  0  0  0  0  0  0  0  0
   -2.7563   -3.3674   -1.1662 H   0  0  0  0  0  0  0  0  0  0  0  0
   -4.9914   -1.9716   -1.9963 H   0  0  0  0  0  0  0  0  0  0  0  0
   -4.0119   -1.6069   -0.5476 H   0  0  0  0  0  0  0  0  0  0  0  0
   -5.3724    0.1730   -2.5130 H   0  0  0  0  0  0  0  0  0  0  0  0
   -3.8514    1.7205   -2.6734 H   0  0  0  0  0  0  0  0  0  0  0  0
   -5.7396    1.6487   -0.7585 H   0  0  0  0  0  0  0  0  0  0  0  0
   -6.7047   -0.2813   -0.2889 H   0  0  0  0  0  0  0  0  0  0  0  0
   -4.5693    1.7037    1.4452 H   0  0  0  0  0  0  0  0  0  0  0  0
   -3.3823    4.5546   -0.1799 H   0  0  0  0  0  0  0  0  0  0  0  0
   -3.5912    3.8497    1.4563 H   0  0  0  0  0  0  0  0  0  0  0  0
   -4.9642    3.8203    0.2477 H   0  0  0  0  0  0  0  0  0  0  0  0
   -3.4390   -0.5070    1.3919 H   0  0  0  0  0  0  0  0  0  0  0  0
   -2.4258    0.0345    0.0519 H   0  0  0  0  0  0  0  0  0  0  0  0
   -4.4098    0.3808    3.5061 H   0  0  0  0  0  0  0  0  0  0  0  0
   -3.0981   -0.8425    3.7747 H   0  0  0  0  0  0  0  0  0  0  0  0
   -3.4522    0.3958    5.0319 H   0  0  0  0  0  0  0  0  0  0  0  0
   -0.1192    1.8939    2.3204 H   0  0  0  0  0  0  0  0  0  0  0  0
   -0.9884    2.5353    0.8994 H   0  0  0  0  0  0  0  0  0  0  0  0
   -0.4006    0.5332   -0.4226 H   0  0  0  0  0  0  0  0  0  0  0  0
    1.0471    1.2169    0.3179 H   0  0  0  0  0  0  0  0  0  0  0  0
   -0.4065   -1.0661    1.7964 H   0  0  0  0  0  0  0  0  0  0  0  0
    1.2510   -0.4519    1.9656 H   0  0  0  0  0  0  0  0  0  0  0  0
    4.1815    1.3589   -1.5304 H   0  0  0  0  0  0  0  0  0  0  0  0
    6.2711    2.6303   -1.5943 H   0  0  0  0  0  0  0  0  0  0  0  0
  1  2  1  0
  2  3  1  0
  3  4  2  0
  4  5  1  0
  5  6  2  0
  6  7  1  0
  7  8  1  0
  8  9  2  0
  8 10  1  0
 10 11  1  0
 11 12  1  0
 12 13  1  0
 13 14  1  0
 14 15  1  0
 15 16  1  0
 16 17  1  0
 17 18  1  0
 18 19  1  0
 18 20  1  0
 20 21  1  0
 20 22  1  0
 22 23  1  0
 23 24  1  0
 22 25  1  0
 25 26  1  0
 26 27  1  0
 27 28  1  0
 27 29  2  0
 26 30  1  0
 30 31  1  0
 31 32  1  0
  6 33  1  0
 33 34  2  0
 34  3  1  0
 32 11  1  0
  1 35  1  0
  1 36  1  0
  1 37  1  0
  4 38  1  0
  5 39  1  0
  7 40  1  0
 10 41  1  0
 10 42  1  0
 12 43  1  0
 12 44  1  0
 13 45  1  0
 13 46  1  0
 14 47  1  0
 14 48  1  0
 15 49  1  0
 15 50  1  0
 17 51  1  0
 17 52  1  0
 18 53  1  0
 19 54  1  0
 20 55  1  0
 21 56  1  0
 22 57  1  0
 24 58  1  0
 24 59  1  0
 24 60  1  0
 25 61  1  0
 25 62  1  0
 28 63  1  0
 28 64  1  0
 28 65  1  0
 30 66  1  0
 30 67  1  0
 31 68  1  0
 31 69  1  0
 32 70  1  0
 32 71  1  0
 33 72  1  0
 34 73  1  0
M  END
$$$$
