
     RDKit          3D

 70 73  0  0  0  0  0  0  0  0999 V2000
   -0.5202   -4.0453   -0.3403 C   0  0  0  0  0  0  0  0  0  0  0  0
   -1.9231   -3.4532   -0.3697 C   0  0  0  0  0  0  0  0  0  0  0  0
   -1.8810   -2.0209   -0.6957 N   0  0  0  0  0  0  0  0  0  0  0  0
   -2.6840   -1.5373   -1.8305 C   0  0  0  0  0  0  0  0  0  0  0  0
   -4.1465   -1.3290   -1.4292 C   0  0  0  0  0  0  0  0  0  0  0  0
   -4.2191   -0.3767   -0.3722 O   0  0  0  0  0  0  0  0  0  0  0  0
   -5.3210    0.4472   -0.0990 C   0  0  0  0  0  0  0  0  0  0  0  0
   -6.5758    0.2289   -0.7000 C   0  0  0  0  0  0  0  0  0  0  0  0
   -7.6385    1.1013   -0.4539 C   0  0  0  0  0  0  0  0  0  0  0  0
   -7.4652    2.1961    0.3915 C   0  0  0  0  0  0  0  0  0  0  0  0
   -6.2359    2.4100    1.0143 C   0  0  0  0  0  0  0  0  0  0  0  0
   -5.1589    1.5328    0.7892 C   0  0  0  0  0  0  0  0  0  0  0  0
   -3.8462    1.7788    1.4957 C   0  0  0  0  0  0  0  0  0  0  0  0
   -2.9164    2.7262    0.7083 C   0  0  0  0  0  0  0  0  0  0  0  0
   -1.9384    1.9862   -0.2219 C   0  0  0  0  0  0  0  0  0  0  0  0
   -0.7614    1.3316    0.5404 C   0  0  0  0  0  0  0  0  0  0  0  0
   -0.2952   -0.0398   -0.0585 C   0  0  0  0  0  0  0  0  0  0  0  0
    1.0405   -0.4797    0.6025 C   0  0  0  0  0  0  0  0  0  0  0  0
    2.1620    0.3363    0.1246 N   0  0  0  0  0  0  0  0  0  0  0  0
    3.3080    0.5398    0.9866 C   0  0  0  0  0  0  0  0  0  0  0  0
    3.1782    0.4185    2.2376 O   0  0  0  0  0  0  0  0  0  0  0  0
    4.6657    0.9342    0.4478 C   0  0  0  0  0  0  0  0  0  0  0  0
    5.7538    0.3608    1.2710 N   0  0  0  0  0  0  0  0  0  0  0  0
    5.8086   -1.1211    1.1368 C   0  0  0  0  0  0  0  0  0  0  0  0
    7.2431   -1.6576    1.2812 C   0  0  0  0  0  0  0  0  0  0  0  0
    8.1245   -1.1469    0.2918 O   0  0  0  0  0  0  0  0  0  0  0  0
    7.8535    0.2030   -0.0797 C   0  0  0  0  0  0  0  0  0  0  0  0
    7.0558    1.0033    0.9712 C   0  0  0  0  0  0  0  0  0  0  0  0
    2.2469    0.5512   -1.3194 C   0  0  0  0  0  0  0  0  0  0  0  0
    0.8774    0.9131   -1.8905 C   0  0  0  0  0  0  0  0  0  0  0  0
   -0.1343    0.0140   -1.4737 O   0  0  0  0  0  0  0  0  0  0  0  0
   -1.3447   -1.1016    0.2836 C   0  0  0  0  0  0  0  0  0  0  0  0
   -1.6633   -1.2655    1.4958 O   0  0  0  0  0  0  0  0  0  0  0  0
   -0.0132   -3.8733   -1.3145 H   0  0  0  0  0  0  0  0  0  0  0  0
   -0.5809   -5.1390   -0.1524 H   0  0  0  0  0  0  0  0  0  0  0  0
    0.0768   -3.5883    0.4740 H   0  0  0  0  0  0  0  0  0  0  0  0
   -2.4184   -3.6017    0.6141 H   0  0  0  0  0  0  0  0  0  0  0  0
   -2.5172   -4.0145   -1.1220 H   0  0  0  0  0  0  0  0  0  0  0  0
   -2.2899   -0.5852   -2.2311 H   0  0  0  0  0  0  0  0  0  0  0  0
   -2.6342   -2.2675   -2.6667 H   0  0  0  0  0  0  0  0  0  0  0  0
   -4.6819   -0.9410   -2.3265 H   0  0  0  0  0  0  0  0  0  0  0  0
   -4.6112   -2.2854   -1.1071 H   0  0  0  0  0  0  0  0  0  0  0  0
   -6.7423   -0.6160   -1.3561 H   0  0  0  0  0  0  0  0  0  0  0  0
   -8.5956    0.9305   -0.9257 H   0  0  0  0  0  0  0  0  0  0  0  0
   -8.2901    2.8724    0.5757 H   0  0  0  0  0  0  0  0  0  0  0  0
   -6.1237    3.2592    1.6785 H   0  0  0  0  0  0  0  0  0  0  0  0
   -4.0547    2.2379    2.4864 H   0  0  0  0  0  0  0  0  0  0  0  0
   -3.3485    0.8134    1.7202 H   0  0  0  0  0  0  0  0  0  0  0  0
   -3.5241    3.4383    0.1055 H   0  0  0  0  0  0  0  0  0  0  0  0
   -2.3279    3.3368    1.4275 H   0  0  0  0  0  0  0  0  0  0  0  0
   -2.4904    1.2501   -0.8315 H   0  0  0  0  0  0  0  0  0  0  0  0
   -1.5216    2.7240   -0.9393 H   0  0  0  0  0  0  0  0  0  0  0  0
    0.0833    2.0556    0.5594 H   0  0  0  0  0  0  0  0  0  0  0  0
   -1.0214    1.1917    1.6118 H   0  0  0  0  0  0  0  0  0  0  0  0
    1.2614   -1.5350    0.3413 H   0  0  0  0  0  0  0  0  0  0  0  0
    0.9466   -0.4200    1.7085 H   0  0  0  0  0  0  0  0  0  0  0  0
    4.7934    0.6111   -0.6093 H   0  0  0  0  0  0  0  0  0  0  0  0
    4.7023    2.0479    0.4771 H   0  0  0  0  0  0  0  0  0  0  0  0
    5.1743   -1.5783    1.9256 H   0  0  0  0  0  0  0  0  0  0  0  0
    5.4180   -1.4610    0.1496 H   0  0  0  0  0  0  0  0  0  0  0  0
    7.6387   -1.4158    2.2923 H   0  0  0  0  0  0  0  0  0  0  0  0
    7.2195   -2.7658    1.1899 H   0  0  0  0  0  0  0  0  0  0  0  0
    7.2995    0.2056   -1.0460 H   0  0  0  0  0  0  0  0  0  0  0  0
    8.8201    0.7198   -0.2565 H   0  0  0  0  0  0  0  0  0  0  0  0
    6.9389    2.0570    0.6273 H   0  0  0  0  0  0  0  0  0  0  0  0
    7.6504    1.0542    1.9096 H   0  0  0  0  0  0  0  0  0  0  0  0
    2.6172   -0.3759   -1.8063 H   0  0  0  0  0  0  0  0  0  0  0  0
    2.9327    1.3889   -1.5595 H   0  0  0  0  0  0  0  0  0  0  0  0
    0.6233    1.9627   -1.6431 H   0  0  0  0  0  0  0  0  0  0  0  0
    0.9423    0.8679   -2.9977 H   0  0  0  0  0  0  0  0  0  0  0  0
  1  2  1  0
  2  3  1  0
  3  4  1  0
  4  5  1  0
  5  6  1  0
  6  7  1  0
  7  8  2  0
  8  9  1  0
  9 10  2  0
 10 11  1  0
 11 12  2  0
 12 13  1  0
 13 14  1  0
 14 15  1  0
 15 16  1  0
 16 17  1  0
 17 18  1  0
 18 19  1  0
 19 20  1  0
 20 21  2  0
 20 22  1  0
 22 23  1  0
 23 24  1  0
 24 25  1  0
 25 26  1  0
 26 27  1  0
 27 28  1  0
 19 29  1  0
 29 30  1  0
 30 31  1  0
 17 32  1  0
 32 33  2  0
 32  3  1  0
 12  7  1  0
 31 17  1  0
 28 23  1  0
  1 34  1  0
  1 35  1  0
  1 36  1  0
  2 37  1  0
  2 38  1  0
  4 39  1  0
  4 40  1  0
  5 41  1  0
  5 42  1  0
  8 43  1  0
  9 44  1  0
 10 45  1  0
 11 46  1  0
 13 47  1  0
 13 48  1  0
 14 49  1  0
 14 50  1  0
 15 51  1  0
 15 52  1  0
 16 53  1  0
 16 54  1  0
 18 55  1  0
 18 56  1  0
 22 57  1  0
 22 58  1  0
 24 59  1  0
 24 60  1  0
 25 61  1  0
 25 62  1  0
 27 63  1  0
 27 64  1  0
 28 65  1  0
 28 66  1  0
 29 67  1  0
 29 68  1  0
 30 69  1  0
 30 70  1  0
M  END
$$$$
