
     RDKit          3D

 86 90  0  0  0  0  0  0  0  0999 V2000
   -1.2977    2.0887   -1.6827 O   0  0  0  0  0  0  0  0  0  0  0  0
   -0.9193    0.8860   -1.6470 C   0  0  0  0  0  0  0  0  0  0  0  0
    0.2974    0.5587   -0.8132 C   0  0  0  0  0  0  0  0  0  0  0  0
    0.4213   -0.9086   -0.3452 C   0  0  0  0  0  0  0  0  0  0  0  0
    1.7252   -1.2088    0.3667 C   0  0  0  0  0  0  0  0  0  0  0  0
    2.1245   -2.4041    0.4035 O   0  0  0  0  0  0  0  0  0  0  0  0
    2.5125   -0.1775    0.9878 N   0  0  0  0  0  0  0  0  0  0  0  0
    3.9113   -0.3730    1.3764 C   0  0  0  0  0  0  0  0  0  0  0  0
    4.9178    0.0085    0.2456 C   0  0  0  0  0  0  0  0  0  0  0  0
    6.3475   -0.2293    0.7995 C   0  0  0  0  0  0  0  0  0  0  0  0
    7.2881    0.8139    0.9873 C   0  0  0  0  0  0  0  0  0  0  0  0
    8.5639    0.5480    1.4925 C   0  0  0  0  0  0  0  0  0  0  0  0
    8.9314   -0.7518    1.8333 C   0  0  0  0  0  0  0  0  0  0  0  0
    8.0235   -1.7958    1.6637 C   0  0  0  0  0  0  0  0  0  0  0  0
    8.3803   -3.0621    1.9939 F   0  0  0  0  0  0  0  0  0  0  0  0
    6.7473   -1.5400    1.1538 C   0  0  0  0  0  0  0  0  0  0  0  0
    4.6615    1.4820   -0.2053 C   0  0  0  0  0  0  0  0  0  0  0  0
    5.3635    1.8169   -1.5432 C   0  0  0  0  0  0  0  0  0  0  0  0
    6.2921    0.8181   -1.9202 O   0  0  0  0  0  0  0  0  0  0  0  0
    5.6277   -0.4080   -2.1825 C   0  0  0  0  0  0  0  0  0  0  0  0
    4.7029   -0.8586   -1.0247 C   0  0  0  0  0  0  0  0  0  0  0  0
   -0.7293   -1.3407    0.4610 N   0  0  0  0  0  0  0  0  0  0  0  0
   -0.8445   -1.1076    1.8740 C   0  0  0  0  0  0  0  0  0  0  0  0
   -1.0906   -2.0751    2.6437 O   0  0  0  0  0  0  0  0  0  0  0  0
   -0.7424    0.2477    2.4340 C   0  0  0  0  0  0  0  0  0  0  0  0
    0.2868    0.5558    3.3348 C   0  0  0  0  0  0  0  0  0  0  0  0
    0.4030    1.8481    3.8521 C   0  0  0  0  0  0  0  0  0  0  0  0
   -0.5229    2.8302    3.4953 C   0  0  0  0  0  0  0  0  0  0  0  0
   -1.5766    2.5215    2.6312 C   0  0  0  0  0  0  0  0  0  0  0  0
   -1.7037    1.2214    2.1042 C   0  0  0  0  0  0  0  0  0  0  0  0
   -2.7760    0.8529    1.2787 O   0  0  0  0  0  0  0  0  0  0  0  0
   -3.8046    1.7288    0.8224 C   0  0  0  0  0  0  0  0  0  0  0  0
   -4.8237    0.9416   -0.0117 C   0  0  0  0  0  0  0  0  0  0  0  0
   -5.6140   -0.0484    0.8636 C   0  0  0  0  0  0  0  0  0  0  0  0
   -6.6807   -0.7432    0.0558 C   0  0  0  0  0  0  0  0  0  0  0  0
   -7.9271   -0.1256   -0.1455 C   0  0  0  0  0  0  0  0  0  0  0  0
   -8.8986   -0.7423   -0.9394 C   0  0  0  0  0  0  0  0  0  0  0  0
   -8.6297   -1.9730   -1.5472 C   0  0  0  0  0  0  0  0  0  0  0  0
   -7.3871   -2.5869   -1.3640 C   0  0  0  0  0  0  0  0  0  0  0  0
   -6.4142   -1.9753   -0.5664 C   0  0  0  0  0  0  0  0  0  0  0  0
   -4.1251    0.2197   -1.0781 N   0  0  0  0  0  0  0  0  0  0  0  0
   -3.8869    0.7947   -2.3685 C   0  0  0  0  0  0  0  0  0  0  0  0
   -4.6063    1.7430   -2.7830 O   0  0  0  0  0  0  0  0  0  0  0  0
   -2.7890    0.2564   -3.2496 C   0  0  0  0  0  0  0  0  0  0  0  0
   -3.2969   -0.9501   -4.0542 C   0  0  0  0  0  0  0  0  0  0  0  0
   -3.7067   -1.9820   -3.1940 O   0  0  0  0  0  0  0  0  0  0  0  0
   -1.6064   -0.0948   -2.4482 N   0  0  0  0  0  0  0  0  0  0  0  0
    0.2817    1.2344    0.0656 H   0  0  0  0  0  0  0  0  0  0  0  0
    1.1955    0.8188   -1.4140 H   0  0  0  0  0  0  0  0  0  0  0  0
    0.4590   -1.5370   -1.2607 H   0  0  0  0  0  0  0  0  0  0  0  0
    2.0839    0.7452    1.2157 H   0  0  0  0  0  0  0  0  0  0  0  0
    4.1180    0.2656    2.2640 H   0  0  0  0  0  0  0  0  0  0  0  0
    4.0586   -1.4215    1.7113 H   0  0  0  0  0  0  0  0  0  0  0  0
    7.0709    1.8389    0.7363 H   0  0  0  0  0  0  0  0  0  0  0  0
    9.2708    1.3579    1.6234 H   0  0  0  0  0  0  0  0  0  0  0  0
    9.9200   -0.9492    2.2283 H   0  0  0  0  0  0  0  0  0  0  0  0
    6.0711   -2.3756    1.0411 H   0  0  0  0  0  0  0  0  0  0  0  0
    4.9322    2.2048    0.5922 H   0  0  0  0  0  0  0  0  0  0  0  0
    3.5770    1.6453   -0.3769 H   0  0  0  0  0  0  0  0  0  0  0  0
    5.9098    2.7780   -1.4322 H   0  0  0  0  0  0  0  0  0  0  0  0
    4.6122    1.9704   -2.3524 H   0  0  0  0  0  0  0  0  0  0  0  0
    5.0534   -0.3345   -3.1337 H   0  0  0  0  0  0  0  0  0  0  0  0
    6.4048   -1.1880   -2.3362 H   0  0  0  0  0  0  0  0  0  0  0  0
    4.8446   -1.9406   -0.8190 H   0  0  0  0  0  0  0  0  0  0  0  0
    3.6572   -0.7430   -1.3804 H   0  0  0  0  0  0  0  0  0  0  0  0
   -1.3213   -2.1048    0.0652 H   0  0  0  0  0  0  0  0  0  0  0  0
    1.0146   -0.1959    3.6138 H   0  0  0  0  0  0  0  0  0  0  0  0
    1.2159    2.0906    4.5235 H   0  0  0  0  0  0  0  0  0  0  0  0
   -0.4318    3.8287    3.9002 H   0  0  0  0  0  0  0  0  0  0  0  0
   -2.2905    3.2958    2.3878 H   0  0  0  0  0  0  0  0  0  0  0  0
   -4.3167    2.2062    1.6857 H   0  0  0  0  0  0  0  0  0  0  0  0
   -3.3578    2.5287    0.1927 H   0  0  0  0  0  0  0  0  0  0  0  0
   -5.5460    1.6685   -0.4461 H   0  0  0  0  0  0  0  0  0  0  0  0
   -4.9241   -0.7988    1.3094 H   0  0  0  0  0  0  0  0  0  0  0  0
   -6.0911    0.4966    1.7084 H   0  0  0  0  0  0  0  0  0  0  0  0
   -8.1420    0.8345    0.3083 H   0  0  0  0  0  0  0  0  0  0  0  0
   -9.8595   -0.2654   -1.0875 H   0  0  0  0  0  0  0  0  0  0  0  0
   -9.3819   -2.4475   -2.1653 H   0  0  0  0  0  0  0  0  0  0  0  0
   -7.1768   -3.5358   -1.8415 H   0  0  0  0  0  0  0  0  0  0  0  0
   -5.4525   -2.4582   -0.4400 H   0  0  0  0  0  0  0  0  0  0  0  0
   -3.5866   -0.6376   -0.8139 H   0  0  0  0  0  0  0  0  0  0  0  0
   -2.4929    1.0465   -3.9772 H   0  0  0  0  0  0  0  0  0  0  0  0
   -4.1257   -0.6195   -4.7250 H   0  0  0  0  0  0  0  0  0  0  0  0
   -2.4758   -1.3298   -4.7015 H   0  0  0  0  0  0  0  0  0  0  0  0
   -4.6416   -2.2130   -3.4330 H   0  0  0  0  0  0  0  0  0  0  0  0
   -1.2657   -1.0798   -2.4721 H   0  0  0  0  0  0  0  0  0  0  0  0
  1  2  2  0
  2  3  1  0
  3  4  1  0
  4  5  1  0
  5  6  2  0
  5  7  1  0
  7  8  1  0
  8  9  1  0
  9 10  1  0
 10 11  2  0
 11 12  1  0
 12 13  2  0
 13 14  1  0
 14 15  1  0
 14 16  2  0
  9 17  1  0
 17 18  1  0
 18 19  1  0
 19 20  1  0
 20 21  1  0
  4 22  1  0
 22 23  1  0
 23 24  2  0
 23 25  1  0
 25 26  2  0
 26 27  1  0
 27 28  2  0
 28 29  1  0
 29 30  2  0
 30 31  1  0
 31 32  1  0
 32 33  1  0
 33 34  1  0
 34 35  1  0
 35 36  2  0
 36 37  1  0
 37 38  2  0
 38 39  1  0
 39 40  2  0
 33 41  1  0
 41 42  1  0
 42 43  2  0
 42 44  1  0
 44 45  1  0
 45 46  1  0
 44 47  1  0
 47  2  1  0
 21  9  1  0
 30 25  1  0
 40 35  1  0
 16 10  1  0
  3 48  1  0
  3 49  1  0
  4 50  1  0
  7 51  1  0
  8 52  1  0
  8 53  1  0
 11 54  1  0
 12 55  1  0
 13 56  1  0
 16 57  1  0
 17 58  1  0
 17 59  1  0
 18 60  1  0
 18 61  1  0
 20 62  1  0
 20 63  1  0
 21 64  1  0
 21 65  1  0
 22 66  1  0
 26 67  1  0
 27 68  1  0
 28 69  1  0
 29 70  1  0
 32 71  1  0
 32 72  1  0
 33 73  1  0
 34 74  1  0
 34 75  1  0
 36 76  1  0
 37 77  1  0
 38 78  1  0
 39 79  1  0
 40 80  1  0
 41 81  1  0
 44 82  1  0
 45 83  1  0
 45 84  1  0
 46 85  1  0
 47 86  1  0
M  END
$$$$
