
     RDKit          3D

 75 77  0  0  0  0  0  0  0  0999 V2000
   -4.9959   -2.2250    1.7255 C   0  0  0  0  0  0  0  0  0  0  0  0
   -4.0568   -1.9609    0.5381 C   0  0  0  0  0  0  0  0  0  0  0  0
   -4.8724   -1.7890   -0.7499 C   0  0  0  0  0  0  0  0  0  0  0  0
   -3.0467   -0.7914    0.7431 C   0  0  0  0  0  0  0  0  0  0  0  0
   -2.1094   -1.0479    1.9164 C   0  0  0  0  0  0  0  0  0  0  0  0
   -2.2611   -0.4228    2.9999 O   0  0  0  0  0  0  0  0  0  0  0  0
   -1.0637   -2.0374    1.8219 N   0  0  0  0  0  0  0  0  0  0  0  0
   -0.7625   -2.8503    3.0072 C   0  0  0  0  0  0  0  0  0  0  0  0
   -0.2074   -2.0409    0.6210 C   0  0  0  0  0  0  0  0  0  0  0  0
    1.0853   -2.8720    0.7511 C   0  0  0  0  0  0  0  0  0  0  0  0
    1.9882   -2.7110   -0.4866 C   0  0  0  0  0  0  0  0  0  0  0  0
    2.8701   -1.4551   -0.3992 C   0  0  0  0  0  0  0  0  0  0  0  0
    3.5911   -1.2198   -1.6620 N   0  0  0  0  0  0  0  0  0  0  0  0
    5.0150   -1.4296   -1.7410 C   0  0  0  0  0  0  0  0  0  0  0  0
    5.4946   -2.0770   -2.7113 O   0  0  0  0  0  0  0  0  0  0  0  0
    5.9525   -0.8414   -0.7242 C   0  0  0  0  0  0  0  0  0  0  0  0
    5.7256    0.6717   -0.6107 C   0  0  0  0  0  0  0  0  0  0  0  0
    6.5120    1.3376    0.5081 C   0  0  0  0  0  0  0  0  0  0  0  0
    5.0077    1.1563    0.6415 C   0  0  0  0  0  0  0  0  0  0  0  0
    2.8862   -0.7071   -2.8508 C   0  0  0  0  0  0  0  0  0  0  0  0
    2.3783    0.7302   -2.6240 C   0  0  0  0  0  0  0  0  0  0  0  0
    0.8737    0.7698   -2.3118 C   0  0  0  0  0  0  0  0  0  0  0  0
    0.4704    2.0855   -1.6482 C   0  0  0  0  0  0  0  0  0  0  0  0
   -0.8984    2.0137   -1.2596 O   0  0  0  0  0  0  0  0  0  0  0  0
   -1.6005    3.0395   -0.6059 C   0  0  0  0  0  0  0  0  0  0  0  0
   -1.0366    4.3143   -0.4025 C   0  0  0  0  0  0  0  0  0  0  0  0
   -1.7713    5.3167    0.2338 C   0  0  0  0  0  0  0  0  0  0  0  0
   -3.0764    5.0659    0.6652 C   0  0  0  0  0  0  0  0  0  0  0  0
   -4.0011    6.3386    1.4439 Cl  0  0  0  0  0  0  0  0  0  0  0  0
   -3.6438    3.8031    0.4754 C   0  0  0  0  0  0  0  0  0  0  0  0
   -2.9053    2.7802   -0.1409 C   0  0  0  0  0  0  0  0  0  0  0  0
   -3.4895    1.4398   -0.3250 C   0  0  0  0  0  0  0  0  0  0  0  0
   -3.7035    1.0291   -1.4973 O   0  0  0  0  0  0  0  0  0  0  0  0
   -3.6805    0.5494    0.7926 N   0  0  0  0  0  0  0  0  0  0  0  0
   -4.5026    1.0089    1.9212 C   0  0  0  0  0  0  0  0  0  0  0  0
   -5.8034   -1.4655    1.7767 H   0  0  0  0  0  0  0  0  0  0  0  0
   -5.4800   -3.2168    1.6016 H   0  0  0  0  0  0  0  0  0  0  0  0
   -4.4368   -2.2442    2.6842 H   0  0  0  0  0  0  0  0  0  0  0  0
   -3.4495   -2.8849    0.4051 H   0  0  0  0  0  0  0  0  0  0  0  0
   -5.5340   -0.8990   -0.6806 H   0  0  0  0  0  0  0  0  0  0  0  0
   -5.5046   -2.6856   -0.9242 H   0  0  0  0  0  0  0  0  0  0  0  0
   -4.1952   -1.6763   -1.6224 H   0  0  0  0  0  0  0  0  0  0  0  0
   -2.3997   -0.8094   -0.1593 H   0  0  0  0  0  0  0  0  0  0  0  0
   -1.6236   -2.8611    3.7091 H   0  0  0  0  0  0  0  0  0  0  0  0
    0.1212   -2.4339    3.5345 H   0  0  0  0  0  0  0  0  0  0  0  0
   -0.5711   -3.9032    2.7164 H   0  0  0  0  0  0  0  0  0  0  0  0
    0.0689   -0.9902    0.3969 H   0  0  0  0  0  0  0  0  0  0  0  0
   -0.7904   -2.4405   -0.2365 H   0  0  0  0  0  0  0  0  0  0  0  0
    1.6475   -2.5821    1.6656 H   0  0  0  0  0  0  0  0  0  0  0  0
    0.8109   -3.9452    0.8388 H   0  0  0  0  0  0  0  0  0  0  0  0
    2.6555   -3.5960   -0.5615 H   0  0  0  0  0  0  0  0  0  0  0  0
    1.3614   -2.6936   -1.4020 H   0  0  0  0  0  0  0  0  0  0  0  0
    3.5813   -1.6027    0.4383 H   0  0  0  0  0  0  0  0  0  0  0  0
    2.2718   -0.5602   -0.1380 H   0  0  0  0  0  0  0  0  0  0  0  0
    5.8355   -1.3639    0.2484 H   0  0  0  0  0  0  0  0  0  0  0  0
    7.0011   -1.0072   -1.0543 H   0  0  0  0  0  0  0  0  0  0  0  0
    5.6213    1.2965   -1.5238 H   0  0  0  0  0  0  0  0  0  0  0  0
    6.8188    2.3842    0.2994 H   0  0  0  0  0  0  0  0  0  0  0  0
    7.1069    0.6616    1.1577 H   0  0  0  0  0  0  0  0  0  0  0  0
    4.4234    2.0896    0.4983 H   0  0  0  0  0  0  0  0  0  0  0  0
    4.7167    0.3820    1.3827 H   0  0  0  0  0  0  0  0  0  0  0  0
    2.0600   -1.3910   -3.1370 H   0  0  0  0  0  0  0  0  0  0  0  0
    3.5754   -0.6930   -3.7232 H   0  0  0  0  0  0  0  0  0  0  0  0
    2.9626    1.2084   -1.8081 H   0  0  0  0  0  0  0  0  0  0  0  0
    2.5588    1.3331   -3.5403 H   0  0  0  0  0  0  0  0  0  0  0  0
    0.2999    0.6431   -3.2547 H   0  0  0  0  0  0  0  0  0  0  0  0
    0.5934   -0.0672   -1.6453 H   0  0  0  0  0  0  0  0  0  0  0  0
    0.6191    2.9215   -2.3656 H   0  0  0  0  0  0  0  0  0  0  0  0
    1.0903    2.2502   -0.7406 H   0  0  0  0  0  0  0  0  0  0  0  0
   -0.0344    4.5436   -0.7371 H   0  0  0  0  0  0  0  0  0  0  0  0
   -1.3270    6.2926    0.3843 H   0  0  0  0  0  0  0  0  0  0  0  0
   -4.6621    3.6259    0.7971 H   0  0  0  0  0  0  0  0  0  0  0  0
   -4.0233    1.8845    2.4068 H   0  0  0  0  0  0  0  0  0  0  0  0
   -4.6182    0.2332    2.7006 H   0  0  0  0  0  0  0  0  0  0  0  0
   -5.5133    1.2911    1.5569 H   0  0  0  0  0  0  0  0  0  0  0  0
  1  2  1  0
  2  3  1  0
  2  4  1  0
  4  5  1  0
  5  6  2  0
  5  7  1  0
  7  8  1  0
  7  9  1  0
  9 10  1  0
 10 11  1  0
 11 12  1  0
 12 13  1  0
 13 14  1  0
 14 15  2  0
 14 16  1  0
 16 17  1  0
 17 18  1  0
 18 19  1  0
 13 20  1  0
 20 21  1  0
 21 22  1  0
 22 23  1  0
 23 24  1  0
 24 25  1  0
 25 26  2  0
 26 27  1  0
 27 28  2  0
 28 29  1  0
 28 30  1  0
 30 31  2  0
 31 32  1  0
 32 33  2  0
 32 34  1  0
 34 35  1  0
 34  4  1  0
 19 17  1  0
 31 25  1  0
  1 36  1  0
  1 37  1  0
  1 38  1  0
  2 39  1  0
  3 40  1  0
  3 41  1  0
  3 42  1  0
  4 43  1  0
  8 44  1  0
  8 45  1  0
  8 46  1  0
  9 47  1  0
  9 48  1  0
 10 49  1  0
 10 50  1  0
 11 51  1  0
 11 52  1  0
 12 53  1  0
 12 54  1  0
 16 55  1  0
 16 56  1  0
 17 57  1  0
 18 58  1  0
 18 59  1  0
 19 60  1  0
 19 61  1  0
 20 62  1  0
 20 63  1  0
 21 64  1  0
 21 65  1  0
 22 66  1  0
 22 67  1  0
 23 68  1  0
 23 69  1  0
 26 70  1  0
 27 71  1  0
 30 72  1  0
 35 73  1  0
 35 74  1  0
 35 75  1  0
M  END
$$$$
