
     RDKit          3D

 67 69  0  0  0  0  0  0  0  0999 V2000
   -4.9232   -3.1961    1.2896 C   0  0  0  0  0  0  0  0  0  0  0  0
   -3.6467   -2.3862    1.5256 C   0  0  0  0  0  0  0  0  0  0  0  0
   -2.7923   -2.2295    0.2381 C   0  0  0  0  0  0  0  0  0  0  0  0
   -2.1396   -3.5627   -0.1684 C   0  0  0  0  0  0  0  0  0  0  0  0
   -1.7138   -1.1105    0.3454 C   0  0  0  0  0  0  0  0  0  0  0  0
   -0.7208   -1.3974    1.4012 N   0  0  0  0  0  0  0  0  0  0  0  0
    0.5742   -0.7717    1.4514 C   0  0  0  0  0  0  0  0  0  0  0  0
    1.3536   -1.0449    2.4031 O   0  0  0  0  0  0  0  0  0  0  0  0
    1.0001    0.1679    0.3567 C   0  0  0  0  0  0  0  0  0  0  0  0
    2.2111    1.0772    0.6347 C   0  0  0  0  0  0  0  0  0  0  0  0
    3.4622    0.2795    0.9162 C   0  0  0  0  0  0  0  0  0  0  0  0
    4.1059    0.4983    1.9788 O   0  0  0  0  0  0  0  0  0  0  0  0
    3.9298   -0.7067   -0.0152 N   0  0  0  0  0  0  0  0  0  0  0  0
    5.0798   -1.5551    0.2898 C   0  0  0  0  0  0  0  0  0  0  0  0
    5.2268   -2.6570   -0.7655 C   0  0  0  0  0  0  0  0  0  0  0  0
    6.6266   -3.2371   -0.9018 C   0  0  0  0  0  0  0  0  0  0  0  0
    6.0813   -2.3026   -1.9721 C   0  0  0  0  0  0  0  0  0  0  0  0
    2.4343    1.9676   -0.5194 N   0  0  0  0  0  0  0  0  0  0  0  0
    1.4046    2.7822   -1.1165 C   0  0  0  0  0  0  0  0  0  0  0  0
    1.4390    2.9933   -2.3588 O   0  0  0  0  0  0  0  0  0  0  0  0
    0.3302    3.4079   -0.3097 C   0  0  0  0  0  0  0  0  0  0  0  0
    0.6755    4.0233    0.9073 C   0  0  0  0  0  0  0  0  0  0  0  0
   -0.2792    4.7188    1.6500 C   0  0  0  0  0  0  0  0  0  0  0  0
   -1.5820    4.8430    1.1698 C   0  0  0  0  0  0  0  0  0  0  0  0
   -1.9368    4.2597   -0.0460 C   0  0  0  0  0  0  0  0  0  0  0  0
   -1.0085    3.5095   -0.7789 C   0  0  0  0  0  0  0  0  0  0  0  0
   -1.4460    2.9301   -1.9798 O   0  0  0  0  0  0  0  0  0  0  0  0
   -1.3925    1.5322   -2.2793 C   0  0  0  0  0  0  0  0  0  0  0  0
   -2.7008    0.8171   -1.9080 C   0  0  0  0  0  0  0  0  0  0  0  0
   -3.0484    0.9599   -0.4812 N   0  0  0  0  0  0  0  0  0  0  0  0
   -4.2290    1.7446   -0.1058 C   0  0  0  0  0  0  0  0  0  0  0  0
   -2.3559    0.2475    0.5702 C   0  0  0  0  0  0  0  0  0  0  0  0
   -2.3476    0.7326    1.7357 O   0  0  0  0  0  0  0  0  0  0  0  0
   -5.5447   -3.1822    2.2102 H   0  0  0  0  0  0  0  0  0  0  0  0
   -4.6838   -4.2537    1.0523 H   0  0  0  0  0  0  0  0  0  0  0  0
   -5.5158   -2.7554    0.4600 H   0  0  0  0  0  0  0  0  0  0  0  0
   -3.0615   -2.8784    2.3306 H   0  0  0  0  0  0  0  0  0  0  0  0
   -3.9585   -1.3891    1.9011 H   0  0  0  0  0  0  0  0  0  0  0  0
   -3.4756   -1.9400   -0.5915 H   0  0  0  0  0  0  0  0  0  0  0  0
   -2.9127   -4.3116   -0.4362 H   0  0  0  0  0  0  0  0  0  0  0  0
   -1.5206   -3.9698    0.6592 H   0  0  0  0  0  0  0  0  0  0  0  0
   -1.4940   -3.4213   -1.0615 H   0  0  0  0  0  0  0  0  0  0  0  0
   -1.1787   -1.0876   -0.6264 H   0  0  0  0  0  0  0  0  0  0  0  0
   -0.9561   -2.0616    2.1711 H   0  0  0  0  0  0  0  0  0  0  0  0
    0.1460    0.8444    0.2181 H   0  0  0  0  0  0  0  0  0  0  0  0
    1.1530   -0.4068   -0.5808 H   0  0  0  0  0  0  0  0  0  0  0  0
    1.9845    1.6920    1.5313 H   0  0  0  0  0  0  0  0  0  0  0  0
    3.4270   -0.8260   -0.9238 H   0  0  0  0  0  0  0  0  0  0  0  0
    5.9911   -0.9215    0.3574 H   0  0  0  0  0  0  0  0  0  0  0  0
    4.9229   -2.0439    1.2739 H   0  0  0  0  0  0  0  0  0  0  0  0
    4.3978   -3.3743   -0.9456 H   0  0  0  0  0  0  0  0  0  0  0  0
    6.6549   -4.3041   -1.2094 H   0  0  0  0  0  0  0  0  0  0  0  0
    7.4118   -2.7820   -0.2604 H   0  0  0  0  0  0  0  0  0  0  0  0
    5.7837   -2.8158   -2.9107 H   0  0  0  0  0  0  0  0  0  0  0  0
    6.5388   -1.2904   -1.9688 H   0  0  0  0  0  0  0  0  0  0  0  0
    3.3264    1.8774   -1.0570 H   0  0  0  0  0  0  0  0  0  0  0  0
    1.6969    4.0008    1.2661 H   0  0  0  0  0  0  0  0  0  0  0  0
   -0.0014    5.1856    2.5862 H   0  0  0  0  0  0  0  0  0  0  0  0
   -2.3157    5.4030    1.7351 H   0  0  0  0  0  0  0  0  0  0  0  0
   -2.9454    4.3835   -0.4186 H   0  0  0  0  0  0  0  0  0  0  0  0
   -0.5251    1.0398   -1.8160 H   0  0  0  0  0  0  0  0  0  0  0  0
   -1.2536    1.4269   -3.3758 H   0  0  0  0  0  0  0  0  0  0  0  0
   -2.6287   -0.2559   -2.1796 H   0  0  0  0  0  0  0  0  0  0  0  0
   -3.5088    1.2307   -2.5490 H   0  0  0  0  0  0  0  0  0  0  0  0
   -4.6119    2.3443   -0.9571 H   0  0  0  0  0  0  0  0  0  0  0  0
   -5.0325    1.0618    0.2406 H   0  0  0  0  0  0  0  0  0  0  0  0
   -3.9816    2.4465    0.7178 H   0  0  0  0  0  0  0  0  0  0  0  0
  1  2  1  0
  2  3  1  0
  3  4  1  0
  3  5  1  0
  5  6  1  0
  6  7  1  0
  7  8  2  0
  7  9  1  0
  9 10  1  0
 10 11  1  0
 11 12  2  0
 11 13  1  0
 13 14  1  0
 14 15  1  0
 15 16  1  0
 16 17  1  0
 10 18  1  0
 18 19  1  0
 19 20  2  0
 19 21  1  0
 21 22  2  0
 22 23  1  0
 23 24  2  0
 24 25  1  0
 25 26  2  0
 26 27  1  0
 27 28  1  0
 28 29  1  0
 29 30  1  0
 30 31  1  0
 30 32  1  0
 32 33  2  0
 32  5  1  0
 17 15  1  0
 26 21  1  0
  1 34  1  0
  1 35  1  0
  1 36  1  0
  2 37  1  0
  2 38  1  0
  3 39  1  0
  4 40  1  0
  4 41  1  0
  4 42  1  0
  5 43  1  0
  6 44  1  0
  9 45  1  0
  9 46  1  0
 10 47  1  0
 13 48  1  0
 14 49  1  0
 14 50  1  0
 15 51  1  0
 16 52  1  0
 16 53  1  0
 17 54  1  0
 17 55  1  0
 18 56  1  0
 22 57  1  0
 23 58  1  0
 24 59  1  0
 25 60  1  0
 28 61  1  0
 28 62  1  0
 29 63  1  0
 29 64  1  0
 31 65  1  0
 31 66  1  0
 31 67  1  0
M  END
$$$$
