
     RDKit          3D

 66 69  0  0  0  0  0  0  0  0999 V2000
    4.1132    1.8618   -1.6783 O   0  0  0  0  0  0  0  0  0  0  0  0
    3.6906    1.3984   -0.5841 C   0  0  0  0  0  0  0  0  0  0  0  0
    2.2138    1.2606   -0.3605 C   0  0  0  0  0  0  0  0  0  0  0  0
    1.8857   -0.1397   -0.0247 N   0  0  0  0  0  0  0  0  0  0  0  0
    1.9465   -1.0507   -1.1791 C   0  0  0  0  0  0  0  0  0  0  0  0
    0.6822   -0.9521   -2.0279 C   0  0  0  0  0  0  0  0  0  0  0  0
   -0.4641   -1.2564   -1.2614 O   0  0  0  0  0  0  0  0  0  0  0  0
   -0.6561   -0.3546   -0.1758 C   0  0  0  0  0  0  0  0  0  0  0  0
   -1.8365   -0.9437    0.6521 C   0  0  0  0  0  0  0  0  0  0  0  0
   -2.1596   -0.1878    1.9607 C   0  0  0  0  0  0  0  0  0  0  0  0
   -3.4687   -0.6721    2.6159 C   0  0  0  0  0  0  0  0  0  0  0  0
   -4.7169    0.1064    2.1495 C   0  0  0  0  0  0  0  0  0  0  0  0
   -5.4758   -0.6005    1.0517 C   0  0  0  0  0  0  0  0  0  0  0  0
   -6.3372   -1.6595    1.3911 C   0  0  0  0  0  0  0  0  0  0  0  0
   -7.1231   -2.2742    0.4152 C   0  0  0  0  0  0  0  0  0  0  0  0
   -7.0642   -1.8330   -0.9071 C   0  0  0  0  0  0  0  0  0  0  0  0
   -6.1990   -0.7953   -1.2638 C   0  0  0  0  0  0  0  0  0  0  0  0
   -5.3793   -0.1839   -0.2933 C   0  0  0  0  0  0  0  0  0  0  0  0
   -4.4440    0.8082   -0.6257 O   0  0  0  0  0  0  0  0  0  0  0  0
   -4.3298    1.4526   -1.8879 C   0  0  0  0  0  0  0  0  0  0  0  0
   -2.9691    2.1370   -1.9745 C   0  0  0  0  0  0  0  0  0  0  0  0
   -1.9074    1.1373   -1.8560 N   0  0  0  0  0  0  0  0  0  0  0  0
   -1.0863    1.0206   -0.6831 C   0  0  0  0  0  0  0  0  0  0  0  0
   -0.8034    2.0565   -0.0207 O   0  0  0  0  0  0  0  0  0  0  0  0
    0.6246   -0.2991    0.7261 C   0  0  0  0  0  0  0  0  0  0  0  0
    4.6078    0.9672    0.4335 N   0  0  0  0  0  0  0  0  0  0  0  0
    6.0262    0.8665    0.2238 C   0  0  0  0  0  0  0  0  0  0  0  0
    6.7381    1.9671   -0.2834 C   0  0  0  0  0  0  0  0  0  0  0  0
    8.1214    1.8996   -0.4505 C   0  0  0  0  0  0  0  0  0  0  0  0
    8.8121    0.7406   -0.1040 C   0  0  0  0  0  0  0  0  0  0  0  0
    8.1229   -0.3581    0.4086 C   0  0  0  0  0  0  0  0  0  0  0  0
    6.7242   -0.3231    0.5618 C   0  0  0  0  0  0  0  0  0  0  0  0
    5.9928   -1.5376    1.1001 C   0  0  0  0  0  0  0  0  0  0  0  0
    4.8820   -1.8097    0.3196 F   0  0  0  0  0  0  0  0  0  0  0  0
    5.5897   -1.2949    2.4005 F   0  0  0  0  0  0  0  0  0  0  0  0
    6.7998   -2.6640    1.0940 F   0  0  0  0  0  0  0  0  0  0  0  0
    1.6576    1.6029   -1.2561 H   0  0  0  0  0  0  0  0  0  0  0  0
    1.9473    1.9382    0.4762 H   0  0  0  0  0  0  0  0  0  0  0  0
    2.8377   -0.8392   -1.8081 H   0  0  0  0  0  0  0  0  0  0  0  0
    2.0525   -2.0938   -0.8098 H   0  0  0  0  0  0  0  0  0  0  0  0
    0.7539   -1.6955   -2.8490 H   0  0  0  0  0  0  0  0  0  0  0  0
    0.5995    0.0412   -2.5141 H   0  0  0  0  0  0  0  0  0  0  0  0
   -2.7357   -0.9987    0.0090 H   0  0  0  0  0  0  0  0  0  0  0  0
   -1.5941   -1.9948    0.9186 H   0  0  0  0  0  0  0  0  0  0  0  0
   -1.3320   -0.3693    2.6860 H   0  0  0  0  0  0  0  0  0  0  0  0
   -2.2031    0.9109    1.7939 H   0  0  0  0  0  0  0  0  0  0  0  0
   -3.5982   -1.7676    2.4808 H   0  0  0  0  0  0  0  0  0  0  0  0
   -3.3670   -0.5049    3.7111 H   0  0  0  0  0  0  0  0  0  0  0  0
   -4.4599    1.1465    1.8535 H   0  0  0  0  0  0  0  0  0  0  0  0
   -5.4040    0.2239    3.0169 H   0  0  0  0  0  0  0  0  0  0  0  0
   -6.4129   -1.9955    2.4171 H   0  0  0  0  0  0  0  0  0  0  0  0
   -7.7954   -3.0794    0.6867 H   0  0  0  0  0  0  0  0  0  0  0  0
   -7.6867   -2.3017   -1.6593 H   0  0  0  0  0  0  0  0  0  0  0  0
   -6.1791   -0.4872   -2.3000 H   0  0  0  0  0  0  0  0  0  0  0  0
   -5.1407    2.2002   -1.9867 H   0  0  0  0  0  0  0  0  0  0  0  0
   -4.3811    0.7102   -2.7123 H   0  0  0  0  0  0  0  0  0  0  0  0
   -2.8781    2.6486   -2.9562 H   0  0  0  0  0  0  0  0  0  0  0  0
   -2.8856    2.9043   -1.1766 H   0  0  0  0  0  0  0  0  0  0  0  0
   -1.8460    0.4085   -2.6028 H   0  0  0  0  0  0  0  0  0  0  0  0
    0.5331    0.4944    1.4993 H   0  0  0  0  0  0  0  0  0  0  0  0
    0.7000   -1.2540    1.2928 H   0  0  0  0  0  0  0  0  0  0  0  0
    4.2053    0.5592    1.3075 H   0  0  0  0  0  0  0  0  0  0  0  0
    6.2230    2.8895   -0.5236 H   0  0  0  0  0  0  0  0  0  0  0  0
    8.6608    2.7525   -0.8386 H   0  0  0  0  0  0  0  0  0  0  0  0
    9.8870    0.6969   -0.2197 H   0  0  0  0  0  0  0  0  0  0  0  0
    8.6888   -1.2369    0.6854 H   0  0  0  0  0  0  0  0  0  0  0  0
  1  2  2  0
  2  3  1  0
  3  4  1  0
  4  5  1  0
  5  6  1  0
  6  7  1  0
  7  8  1  0
  8  9  1  0
  9 10  1  0
 10 11  1  0
 11 12  1  0
 12 13  1  0
 13 14  2  0
 14 15  1  0
 15 16  2  0
 16 17  1  0
 17 18  2  0
 18 19  1  0
 19 20  1  0
 20 21  1  0
 21 22  1  0
 22 23  1  0
 23 24  2  0
  8 25  1  0
  2 26  1  0
 26 27  1  0
 27 28  2  0
 28 29  1  0
 29 30  2  0
 30 31  1  0
 31 32  2  0
 32 33  1  0
 33 34  1  0
 33 35  1  0
 33 36  1  0
 25  4  1  0
 32 27  1  0
 23  8  1  0
 18 13  1  0
  3 37  1  0
  3 38  1  0
  5 39  1  0
  5 40  1  0
  6 41  1  0
  6 42  1  0
  9 43  1  0
  9 44  1  0
 10 45  1  0
 10 46  1  0
 11 47  1  0
 11 48  1  0
 12 49  1  0
 12 50  1  0
 14 51  1  0
 15 52  1  0
 16 53  1  0
 17 54  1  0
 20 55  1  0
 20 56  1  0
 21 57  1  0
 21 58  1  0
 22 59  1  0
 25 60  1  0
 25 61  1  0
 26 62  1  0
 28 63  1  0
 29 64  1  0
 30 65  1  0
 31 66  1  0
M  END
$$$$
