
     RDKit          3D

 96 99  0  0  0  0  0  0  0  0999 V2000
   -2.5317    5.7039    1.6266 C   0  0  0  0  0  0  0  0  0  0  0  0
   -1.2423    5.8015    2.2228 O   0  0  0  0  0  0  0  0  0  0  0  0
   -0.2632    4.7985    2.1646 C   0  0  0  0  0  0  0  0  0  0  0  0
    0.9730    5.0444    2.7692 C   0  0  0  0  0  0  0  0  0  0  0  0
    1.9765    4.0771    2.7442 C   0  0  0  0  0  0  0  0  0  0  0  0
    1.7571    2.8535    2.1086 C   0  0  0  0  0  0  0  0  0  0  0  0
    0.5291    2.5848    1.4699 C   0  0  0  0  0  0  0  0  0  0  0  0
    0.2553    1.2625    0.7536 C   0  0  0  0  0  0  0  0  0  0  0  0
    0.0829    1.4108   -0.8189 C   0  0  0  0  0  0  0  0  0  0  0  0
    0.9944    2.4985   -1.5097 C   0  0  0  0  0  0  0  0  0  0  0  0
    0.7472    2.5735   -3.0337 C   0  0  0  0  0  0  0  0  0  0  0  0
    2.4975    2.2721   -1.3008 C   0  0  0  0  0  0  0  0  0  0  0  0
   -1.4279    1.6750   -1.1677 C   0  0  0  0  0  0  0  0  0  0  0  0
   -1.9355    0.7838   -2.2272 N   0  0  0  0  0  0  0  0  0  0  0  0
   -2.4702    1.3623   -3.4406 C   0  0  0  0  0  0  0  0  0  0  0  0
   -2.4563    0.6087   -4.7357 C   0  0  0  0  0  0  0  0  0  0  0  0
   -2.9710    2.5212   -3.4234 O   0  0  0  0  0  0  0  0  0  0  0  0
   -2.1012   -0.6636   -1.9626 C   0  0  0  0  0  0  0  0  0  0  0  0
   -3.4075   -1.0010   -1.1936 C   0  0  0  0  0  0  0  0  0  0  0  0
   -4.4404   -0.1082   -1.5929 O   0  0  0  0  0  0  0  0  0  0  0  0
   -5.4554   -0.7863   -2.3034 C   0  0  0  0  0  0  0  0  0  0  0  0
   -3.2213   -0.9637    0.3608 C   0  0  0  0  0  0  0  0  0  0  0  0
   -3.6641    0.2530    0.9176 O   0  0  0  0  0  0  0  0  0  0  0  0
   -3.8914   -2.1725    1.0710 C   0  0  0  0  0  0  0  0  0  0  0  0
   -5.2869   -2.0968    0.9390 O   0  0  0  0  0  0  0  0  0  0  0  0
   -3.5097   -2.2254    2.5594 C   0  0  0  0  0  0  0  0  0  0  0  0
   -2.1303   -2.5157    2.6698 O   0  0  0  0  0  0  0  0  0  0  0  0
   -1.5813   -1.9179    3.8235 C   0  0  0  0  0  0  0  0  0  0  0  0
   -0.0826   -2.2364    3.9016 C   0  0  0  0  0  0  0  0  0  0  0  0
    0.6919   -1.8092    2.6417 C   0  0  0  0  0  0  0  0  0  0  0  0
    1.0078   -0.3062    2.6051 C   0  0  0  0  0  0  0  0  0  0  0  0
    1.1523    0.1673    1.2158 N   0  0  0  0  0  0  0  0  0  0  0  0
    2.2593   -0.3554    0.4586 C   0  0  0  0  0  0  0  0  0  0  0  0
    3.4296    0.0098    0.7466 O   0  0  0  0  0  0  0  0  0  0  0  0
    2.0443   -1.3977   -0.6068 C   0  0  0  0  0  0  0  0  0  0  0  0
    2.9991   -2.4970   -0.4614 N   0  0  0  0  0  0  0  0  0  0  0  0
    2.6401   -3.8569   -0.0567 C   0  0  0  0  0  0  0  0  0  0  0  0
    3.9375   -4.6934   -0.1728 C   0  0  0  0  0  0  0  0  0  0  0  0
    4.9118   -3.7364   -0.7654 C   0  0  0  0  0  0  0  0  0  0  0  0
    6.2247   -3.9850   -1.1693 C   0  0  0  0  0  0  0  0  0  0  0  0
    6.9587   -2.9339   -1.7422 C   0  0  0  0  0  0  0  0  0  0  0  0
    6.3695   -1.6662   -1.9105 C   0  0  0  0  0  0  0  0  0  0  0  0
    5.0458   -1.4414   -1.5009 C   0  0  0  0  0  0  0  0  0  0  0  0
    4.3424   -2.5016   -0.9167 C   0  0  0  0  0  0  0  0  0  0  0  0
   -0.4817    3.5657    1.5190 C   0  0  0  0  0  0  0  0  0  0  0  0
   -2.4347    5.5618    0.5300 H   0  0  0  0  0  0  0  0  0  0  0  0
   -3.0908    6.6427    1.8159 H   0  0  0  0  0  0  0  0  0  0  0  0
   -3.0982    4.8587    2.0724 H   0  0  0  0  0  0  0  0  0  0  0  0
    1.1540    5.9901    3.2641 H   0  0  0  0  0  0  0  0  0  0  0  0
    2.9281    4.2763    3.2218 H   0  0  0  0  0  0  0  0  0  0  0  0
    2.5567    2.1267    2.1162 H   0  0  0  0  0  0  0  0  0  0  0  0
   -0.7332    0.9466    1.1442 H   0  0  0  0  0  0  0  0  0  0  0  0
    0.3556    0.4512   -1.2801 H   0  0  0  0  0  0  0  0  0  0  0  0
    0.7484    3.4984   -1.0864 H   0  0  0  0  0  0  0  0  0  0  0  0
    1.5011    3.2268   -3.5254 H   0  0  0  0  0  0  0  0  0  0  0  0
   -0.2410    3.0233   -3.2600 H   0  0  0  0  0  0  0  0  0  0  0  0
    0.8052    1.5607   -3.4938 H   0  0  0  0  0  0  0  0  0  0  0  0
    3.0729    3.1021   -1.7622 H   0  0  0  0  0  0  0  0  0  0  0  0
    2.8222    1.3201   -1.7679 H   0  0  0  0  0  0  0  0  0  0  0  0
    2.7677    2.2747   -0.2350 H   0  0  0  0  0  0  0  0  0  0  0  0
   -2.0997    1.5795   -0.3049 H   0  0  0  0  0  0  0  0  0  0  0  0
   -1.5641    2.7434   -1.4389 H   0  0  0  0  0  0  0  0  0  0  0  0
   -1.5080    0.0386   -4.8353 H   0  0  0  0  0  0  0  0  0  0  0  0
   -3.3231   -0.0826   -4.7757 H   0  0  0  0  0  0  0  0  0  0  0  0
   -2.5202    1.3167   -5.5884 H   0  0  0  0  0  0  0  0  0  0  0  0
   -2.1159   -1.2239   -2.9204 H   0  0  0  0  0  0  0  0  0  0  0  0
   -1.2201   -1.0720   -1.4307 H   0  0  0  0  0  0  0  0  0  0  0  0
   -3.6229   -2.0647   -1.4669 H   0  0  0  0  0  0  0  0  0  0  0  0
   -5.0467   -1.2698   -3.2215 H   0  0  0  0  0  0  0  0  0  0  0  0
   -5.9579   -1.5395   -1.6558 H   0  0  0  0  0  0  0  0  0  0  0  0
   -6.2196   -0.0480   -2.6204 H   0  0  0  0  0  0  0  0  0  0  0  0
   -2.1368   -1.0398    0.5846 H   0  0  0  0  0  0  0  0  0  0  0  0
   -4.6525    0.2963    0.8385 H   0  0  0  0  0  0  0  0  0  0  0  0
   -3.5207   -3.1094    0.5912 H   0  0  0  0  0  0  0  0  0  0  0  0
   -5.6394   -3.0155    1.0728 H   0  0  0  0  0  0  0  0  0  0  0  0
   -3.8071   -1.2627    3.0406 H   0  0  0  0  0  0  0  0  0  0  0  0
   -4.0816   -3.0407    3.0518 H   0  0  0  0  0  0  0  0  0  0  0  0
   -2.0729   -2.3231    4.7368 H   0  0  0  0  0  0  0  0  0  0  0  0
   -1.7152   -0.8147    3.8023 H   0  0  0  0  0  0  0  0  0  0  0  0
    0.3543   -1.7479    4.7995 H   0  0  0  0  0  0  0  0  0  0  0  0
    0.0348   -3.3350    4.0310 H   0  0  0  0  0  0  0  0  0  0  0  0
    0.1284   -2.1075    1.7328 H   0  0  0  0  0  0  0  0  0  0  0  0
    1.6557   -2.3606    2.6289 H   0  0  0  0  0  0  0  0  0  0  0  0
    1.9493   -0.1158    3.1651 H   0  0  0  0  0  0  0  0  0  0  0  0
    0.2136    0.2697    3.1276 H   0  0  0  0  0  0  0  0  0  0  0  0
    2.1560   -0.9470   -1.6134 H   0  0  0  0  0  0  0  0  0  0  0  0
    1.0093   -1.7949   -0.5281 H   0  0  0  0  0  0  0  0  0  0  0  0
    1.8600   -4.2599   -0.7399 H   0  0  0  0  0  0  0  0  0  0  0  0
    2.2620   -3.8633    0.9849 H   0  0  0  0  0  0  0  0  0  0  0  0
    3.7906   -5.5677   -0.8420 H   0  0  0  0  0  0  0  0  0  0  0  0
    4.2862   -5.0230    0.8295 H   0  0  0  0  0  0  0  0  0  0  0  0
    6.6653   -4.9661   -1.0491 H   0  0  0  0  0  0  0  0  0  0  0  0
    7.9779   -3.1003   -2.0647 H   0  0  0  0  0  0  0  0  0  0  0  0
    6.9366   -0.8651   -2.3658 H   0  0  0  0  0  0  0  0  0  0  0  0
    4.5907   -0.4704   -1.6419 H   0  0  0  0  0  0  0  0  0  0  0  0
   -1.4364    3.3660    1.0560 H   0  0  0  0  0  0  0  0  0  0  0  0
  1  2  1  0
  2  3  1  0
  3  4  2  0
  4  5  1  0
  5  6  2  0
  6  7  1  0
  7  8  1  0
  8  9  1  0
  9 10  1  0
 10 11  1  0
 10 12  1  0
  9 13  1  0
 13 14  1  0
 14 15  1  0
 15 16  1  0
 15 17  2  0
 14 18  1  0
 18 19  1  0
 19 20  1  0
 20 21  1  0
 19 22  1  0
 22 23  1  0
 22 24  1  0
 24 25  1  0
 24 26  1  0
 26 27  1  0
 27 28  1  0
 28 29  1  0
 29 30  1  0
 30 31  1  0
 31 32  1  0
 32 33  1  0
 33 34  2  0
 33 35  1  0
 35 36  1  0
 36 37  1  0
 37 38  1  0
 38 39  1  0
 39 40  2  0
 40 41  1  0
 41 42  2  0
 42 43  1  0
 43 44  2  0
  7 45  2  0
 45  3  1  0
 32  8  1  0
 44 36  1  0
 44 39  1  0
  1 46  1  0
  1 47  1  0
  1 48  1  0
  4 49  1  0
  5 50  1  0
  6 51  1  0
  8 52  1  0
  9 53  1  0
 10 54  1  0
 11 55  1  0
 11 56  1  0
 11 57  1  0
 12 58  1  0
 12 59  1  0
 12 60  1  0
 13 61  1  0
 13 62  1  0
 16 63  1  0
 16 64  1  0
 16 65  1  0
 18 66  1  0
 18 67  1  0
 19 68  1  0
 21 69  1  0
 21 70  1  0
 21 71  1  0
 22 72  1  0
 23 73  1  0
 24 74  1  0
 25 75  1  0
 26 76  1  0
 26 77  1  0
 28 78  1  0
 28 79  1  0
 29 80  1  0
 29 81  1  0
 30 82  1  0
 30 83  1  0
 31 84  1  0
 31 85  1  0
 35 86  1  0
 35 87  1  0
 37 88  1  0
 37 89  1  0
 38 90  1  0
 38 91  1  0
 40 92  1  0
 41 93  1  0
 42 94  1  0
 43 95  1  0
 45 96  1  0
M  END
$$$$
