
     RDKit          3D

 69 71  0  0  0  0  0  0  0  0999 V2000
   -4.6007   -3.0431   -0.3410 C   0  0  0  0  0  0  0  0  0  0  0  0
   -3.6532   -3.2590    0.8528 C   0  0  0  0  0  0  0  0  0  0  0  0
   -3.1863   -4.7218    0.9031 C   0  0  0  0  0  0  0  0  0  0  0  0
   -2.4377   -2.2831    0.8980 C   0  0  0  0  0  0  0  0  0  0  0  0
   -2.8571   -0.8005    0.8704 C   0  0  0  0  0  0  0  0  0  0  0  0
   -3.1603   -0.3955   -0.4633 O   0  0  0  0  0  0  0  0  0  0  0  0
   -3.9501    0.7037   -0.8433 C   0  0  0  0  0  0  0  0  0  0  0  0
   -4.5451    0.6346   -2.1099 C   0  0  0  0  0  0  0  0  0  0  0  0
   -5.3958    1.6451   -2.5598 C   0  0  0  0  0  0  0  0  0  0  0  0
   -5.6595    2.7487   -1.7497 C   0  0  0  0  0  0  0  0  0  0  0  0
   -6.7378    4.0137   -2.3125 Cl  0  0  0  0  0  0  0  0  0  0  0  0
   -5.0527    2.8536   -0.4963 C   0  0  0  0  0  0  0  0  0  0  0  0
   -4.1824    1.8520   -0.0361 C   0  0  0  0  0  0  0  0  0  0  0  0
   -3.5045    2.0866    1.2505 C   0  0  0  0  0  0  0  0  0  0  0  0
   -4.1772    2.0272    2.3139 O   0  0  0  0  0  0  0  0  0  0  0  0
   -2.1145    2.4358    1.3166 N   0  0  0  0  0  0  0  0  0  0  0  0
   -1.3096    2.7039    0.1224 C   0  0  0  0  0  0  0  0  0  0  0  0
    0.1820    2.8534    0.4640 C   0  0  0  0  0  0  0  0  0  0  0  0
    0.8102    1.5811    1.0628 C   0  0  0  0  0  0  0  0  0  0  0  0
    0.9789    0.4563    0.0325 C   0  0  0  0  0  0  0  0  0  0  0  0
    1.5535   -0.7392    0.6716 N   0  0  0  0  0  0  0  0  0  0  0  0
    2.9627   -0.8076    0.9883 C   0  0  0  0  0  0  0  0  0  0  0  0
    3.3493   -1.5130    1.9608 O   0  0  0  0  0  0  0  0  0  0  0  0
    3.9760   -0.0175    0.1935 C   0  0  0  0  0  0  0  0  0  0  0  0
    5.4208   -0.4681    0.4502 C   0  0  0  0  0  0  0  0  0  0  0  0
    6.3553    0.3288   -0.3611 N   0  0  0  0  0  0  0  0  0  0  0  0
    6.8691    1.4832    0.1669 C   0  0  0  0  0  0  0  0  0  0  0  0
    7.7405    2.2815   -0.5764 C   0  0  0  0  0  0  0  0  0  0  0  0
    8.0807    1.9014   -1.8719 C   0  0  0  0  0  0  0  0  0  0  0  0
    7.5439    0.7351   -2.4128 C   0  0  0  0  0  0  0  0  0  0  0  0
    6.6719   -0.0451   -1.6452 C   0  0  0  0  0  0  0  0  0  0  0  0
    6.1825   -1.0921   -2.1513 O   0  0  0  0  0  0  0  0  0  0  0  0
    0.6376   -1.7978    1.1276 C   0  0  0  0  0  0  0  0  0  0  0  0
   -0.0392   -2.4485   -0.0515 C   0  0  0  0  0  0  0  0  0  0  0  0
    0.6856   -2.9050   -0.9763 O   0  0  0  0  0  0  0  0  0  0  0  0
   -1.4691   -2.5655   -0.1738 N   0  0  0  0  0  0  0  0  0  0  0  0
   -5.4003   -3.8132   -0.3343 H   0  0  0  0  0  0  0  0  0  0  0  0
   -4.0660   -3.1090   -1.3094 H   0  0  0  0  0  0  0  0  0  0  0  0
   -5.1030   -2.0571   -0.2664 H   0  0  0  0  0  0  0  0  0  0  0  0
   -4.2518   -3.0851    1.7751 H   0  0  0  0  0  0  0  0  0  0  0  0
   -2.6480   -4.9983   -0.0281 H   0  0  0  0  0  0  0  0  0  0  0  0
   -4.0600   -5.3986    1.0198 H   0  0  0  0  0  0  0  0  0  0  0  0
   -2.5097   -4.8824    1.7688 H   0  0  0  0  0  0  0  0  0  0  0  0
   -1.9574   -2.4724    1.8819 H   0  0  0  0  0  0  0  0  0  0  0  0
   -2.0187   -0.1856    1.2530 H   0  0  0  0  0  0  0  0  0  0  0  0
   -3.7400   -0.6552    1.5305 H   0  0  0  0  0  0  0  0  0  0  0  0
   -4.3644   -0.2257   -2.7422 H   0  0  0  0  0  0  0  0  0  0  0  0
   -5.8580    1.5632   -3.5355 H   0  0  0  0  0  0  0  0  0  0  0  0
   -5.2425    3.7308    0.1115 H   0  0  0  0  0  0  0  0  0  0  0  0
   -1.6921    2.5633    2.2644 H   0  0  0  0  0  0  0  0  0  0  0  0
   -1.6669    3.6462   -0.3455 H   0  0  0  0  0  0  0  0  0  0  0  0
   -1.4448    1.8947   -0.6217 H   0  0  0  0  0  0  0  0  0  0  0  0
    0.2976    3.6855    1.1926 H   0  0  0  0  0  0  0  0  0  0  0  0
    0.7380    3.1433   -0.4543 H   0  0  0  0  0  0  0  0  0  0  0  0
    0.2020    1.2150    1.9162 H   0  0  0  0  0  0  0  0  0  0  0  0
    1.8097    1.8483    1.4669 H   0  0  0  0  0  0  0  0  0  0  0  0
    1.6149    0.7961   -0.8109 H   0  0  0  0  0  0  0  0  0  0  0  0
   -0.0081    0.2042   -0.4044 H   0  0  0  0  0  0  0  0  0  0  0  0
    3.8804    1.0583    0.4521 H   0  0  0  0  0  0  0  0  0  0  0  0
    3.7566   -0.1407   -0.8884 H   0  0  0  0  0  0  0  0  0  0  0  0
    5.6619   -0.3554    1.5313 H   0  0  0  0  0  0  0  0  0  0  0  0
    5.5282   -1.5505    0.2157 H   0  0  0  0  0  0  0  0  0  0  0  0
    6.6058    1.7958    1.1706 H   0  0  0  0  0  0  0  0  0  0  0  0
    8.1460    3.1900   -0.1504 H   0  0  0  0  0  0  0  0  0  0  0  0
    8.7549    2.5124   -2.4582 H   0  0  0  0  0  0  0  0  0  0  0  0
    7.8003    0.4418   -3.4234 H   0  0  0  0  0  0  0  0  0  0  0  0
    1.1809   -2.5938    1.6790 H   0  0  0  0  0  0  0  0  0  0  0  0
   -0.0806   -1.3518    1.8396 H   0  0  0  0  0  0  0  0  0  0  0  0
   -1.8324   -2.8373   -1.1139 H   0  0  0  0  0  0  0  0  0  0  0  0
  1  2  1  0
  2  3  1  0
  2  4  1  0
  4  5  1  0
  5  6  1  0
  6  7  1  0
  7  8  2  0
  8  9  1  0
  9 10  2  0
 10 11  1  0
 10 12  1  0
 12 13  2  0
 13 14  1  0
 14 15  2  0
 14 16  1  0
 16 17  1  0
 17 18  1  0
 18 19  1  0
 19 20  1  0
 20 21  1  0
 21 22  1  0
 22 23  2  0
 22 24  1  0
 24 25  1  0
 25 26  1  0
 26 27  1  0
 27 28  2  0
 28 29  1  0
 29 30  2  0
 30 31  1  0
 31 32  2  0
 21 33  1  0
 33 34  1  0
 34 35  2  0
 34 36  1  0
 36  4  1  0
 13  7  1  0
 31 26  1  0
  1 37  1  0
  1 38  1  0
  1 39  1  0
  2 40  1  0
  3 41  1  0
  3 42  1  0
  3 43  1  0
  4 44  1  0
  5 45  1  0
  5 46  1  0
  8 47  1  0
  9 48  1  0
 12 49  1  0
 16 50  1  0
 17 51  1  0
 17 52  1  0
 18 53  1  0
 18 54  1  0
 19 55  1  0
 19 56  1  0
 20 57  1  0
 20 58  1  0
 24 59  1  0
 24 60  1  0
 25 61  1  0
 25 62  1  0
 27 63  1  0
 28 64  1  0
 29 65  1  0
 30 66  1  0
 33 67  1  0
 33 68  1  0
 36 69  1  0
M  END
$$$$
