
     RDKit          3D

 57 59  0  0  0  0  0  0  0  0999 V2000
   -3.0336   -3.4013    0.2986 C   0  0  0  0  0  0  0  0  0  0  0  0
   -3.2349   -2.0145   -0.1346 N   0  0  0  0  0  0  0  0  0  0  0  0
   -3.1405   -1.6997   -1.5740 C   0  0  0  0  0  0  0  0  0  0  0  0
   -1.6917   -1.8042   -2.0902 C   0  0  0  0  0  0  0  0  0  0  0  0
   -0.8468   -0.5453   -1.7932 C   0  0  0  0  0  0  0  0  0  0  0  0
    0.4961   -0.9014   -1.1318 C   0  0  0  0  0  0  0  0  0  0  0  0
    1.2893    0.3020   -0.8181 N   0  0  0  0  0  0  0  0  0  0  0  0
    2.5360    0.5250   -1.5048 C   0  0  0  0  0  0  0  0  0  0  0  0
    2.8021    1.6688   -1.9648 O   0  0  0  0  0  0  0  0  0  0  0  0
    3.5364   -0.5821   -1.6813 C   0  0  0  0  0  0  0  0  0  0  0  0
    4.8524   -0.1229   -1.3717 O   0  0  0  0  0  0  0  0  0  0  0  0
    5.3094    0.2107   -0.0859 C   0  0  0  0  0  0  0  0  0  0  0  0
    4.5171    0.0469    1.0685 C   0  0  0  0  0  0  0  0  0  0  0  0
    5.0197    0.4027    2.3238 C   0  0  0  0  0  0  0  0  0  0  0  0
    6.3131    0.9186    2.4411 C   0  0  0  0  0  0  0  0  0  0  0  0
    6.7989    1.2619    3.6594 F   0  0  0  0  0  0  0  0  0  0  0  0
    7.1062    1.0785    1.3018 C   0  0  0  0  0  0  0  0  0  0  0  0
    6.6059    0.7252    0.0448 C   0  0  0  0  0  0  0  0  0  0  0  0
    0.7878    1.3533    0.0907 C   0  0  0  0  0  0  0  0  0  0  0  0
    0.4717    0.8238    1.5077 C   0  0  0  0  0  0  0  0  0  0  0  0
   -0.9880    0.3924    1.6745 C   0  0  0  0  0  0  0  0  0  0  0  0
   -1.8503    1.5008    1.4174 O   0  0  0  0  0  0  0  0  0  0  0  0
   -3.1358    1.5082    0.8370 C   0  0  0  0  0  0  0  0  0  0  0  0
   -3.6525    2.7758    0.5321 C   0  0  0  0  0  0  0  0  0  0  0  0
   -4.8985    2.9230   -0.0768 C   0  0  0  0  0  0  0  0  0  0  0  0
   -5.6612    1.7988   -0.3860 C   0  0  0  0  0  0  0  0  0  0  0  0
   -7.2313    1.9844   -1.1463 Cl  0  0  0  0  0  0  0  0  0  0  0  0
   -5.1789    0.5260   -0.0799 C   0  0  0  0  0  0  0  0  0  0  0  0
   -3.9205    0.3581    0.5248 C   0  0  0  0  0  0  0  0  0  0  0  0
   -3.5294   -1.0175    0.8738 C   0  0  0  0  0  0  0  0  0  0  0  0
   -3.4757   -1.3269    2.0956 O   0  0  0  0  0  0  0  0  0  0  0  0
   -3.9237   -3.7522    0.8622 H   0  0  0  0  0  0  0  0  0  0  0  0
   -2.8880   -4.0803   -0.5684 H   0  0  0  0  0  0  0  0  0  0  0  0
   -2.1367   -3.4631    0.9503 H   0  0  0  0  0  0  0  0  0  0  0  0
   -3.7709   -2.4230   -2.1359 H   0  0  0  0  0  0  0  0  0  0  0  0
   -3.5483   -0.6976   -1.8139 H   0  0  0  0  0  0  0  0  0  0  0  0
   -1.7278   -1.9449   -3.1927 H   0  0  0  0  0  0  0  0  0  0  0  0
   -1.2142   -2.7208   -1.6817 H   0  0  0  0  0  0  0  0  0  0  0  0
   -0.6399   -0.0114   -2.7463 H   0  0  0  0  0  0  0  0  0  0  0  0
   -1.4158    0.1620   -1.1611 H   0  0  0  0  0  0  0  0  0  0  0  0
    1.0475   -1.5600   -1.8368 H   0  0  0  0  0  0  0  0  0  0  0  0
    0.3439   -1.4992   -0.2106 H   0  0  0  0  0  0  0  0  0  0  0  0
    3.5148   -0.9100   -2.7410 H   0  0  0  0  0  0  0  0  0  0  0  0
    3.2877   -1.4604   -1.0482 H   0  0  0  0  0  0  0  0  0  0  0  0
    3.5165   -0.3555    1.0093 H   0  0  0  0  0  0  0  0  0  0  0  0
    4.4055    0.2763    3.2060 H   0  0  0  0  0  0  0  0  0  0  0  0
    8.1087    1.4767    1.3912 H   0  0  0  0  0  0  0  0  0  0  0  0
    7.2267    0.8543   -0.8326 H   0  0  0  0  0  0  0  0  0  0  0  0
   -0.0848    1.8654   -0.3649 H   0  0  0  0  0  0  0  0  0  0  0  0
    1.5633    2.1420    0.2110 H   0  0  0  0  0  0  0  0  0  0  0  0
    1.1434   -0.0253    1.7578 H   0  0  0  0  0  0  0  0  0  0  0  0
    0.6748    1.6301    2.2463 H   0  0  0  0  0  0  0  0  0  0  0  0
   -1.1538    0.0353    2.7125 H   0  0  0  0  0  0  0  0  0  0  0  0
   -1.1689   -0.4422    0.9902 H   0  0  0  0  0  0  0  0  0  0  0  0
   -3.0714    3.6605    0.7609 H   0  0  0  0  0  0  0  0  0  0  0  0
   -5.2699    3.9134   -0.3076 H   0  0  0  0  0  0  0  0  0  0  0  0
   -5.7911   -0.3390   -0.3083 H   0  0  0  0  0  0  0  0  0  0  0  0
  1  2  1  0
  2  3  1  0
  3  4  1  0
  4  5  1  0
  5  6  1  0
  6  7  1  0
  7  8  1  0
  8  9  2  0
  8 10  1  0
 10 11  1  0
 11 12  1  0
 12 13  2  0
 13 14  1  0
 14 15  2  0
 15 16  1  0
 15 17  1  0
 17 18  2  0
  7 19  1  0
 19 20  1  0
 20 21  1  0
 21 22  1  0
 22 23  1  0
 23 24  2  0
 24 25  1  0
 25 26  2  0
 26 27  1  0
 26 28  1  0
 28 29  2  0
 29 30  1  0
 30 31  2  0
 30  2  1  0
 18 12  1  0
 29 23  1  0
  1 32  1  0
  1 33  1  0
  1 34  1  0
  3 35  1  0
  3 36  1  0
  4 37  1  0
  4 38  1  0
  5 39  1  0
  5 40  1  0
  6 41  1  0
  6 42  1  0
 10 43  1  0
 10 44  1  0
 13 45  1  0
 14 46  1  0
 17 47  1  0
 18 48  1  0
 19 49  1  0
 19 50  1  0
 20 51  1  0
 20 52  1  0
 21 53  1  0
 21 54  1  0
 24 55  1  0
 25 56  1  0
 28 57  1  0
M  END
$$$$
