
     RDKit          3D

 62 64  0  0  0  0  0  0  0  0999 V2000
   -6.2896   -0.7473    2.4362 C   0  0  0  0  0  0  0  0  0  0  0  0
   -6.0475    0.3758    1.4334 C   0  0  0  0  0  0  0  0  0  0  0  0
   -5.7192   -0.1816    0.0776 C   0  0  0  0  0  0  0  0  0  0  0  0
   -6.5717   -0.9469   -0.6334 N   0  0  0  0  0  0  0  0  0  0  0  0
   -5.9576   -1.2947   -1.7279 O   0  0  0  0  0  0  0  0  0  0  0  0
   -4.7442   -0.7970   -1.7720 C   0  0  0  0  0  0  0  0  0  0  0  0
   -3.7977   -1.0000   -2.9107 C   0  0  0  0  0  0  0  0  0  0  0  0
   -4.5243   -0.0709   -0.6153 C   0  0  0  0  0  0  0  0  0  0  0  0
   -3.3168    0.6951   -0.2492 C   0  0  0  0  0  0  0  0  0  0  0  0
   -3.4498    1.8439    0.2492 O   0  0  0  0  0  0  0  0  0  0  0  0
   -1.9984    0.1652   -0.4917 N   0  0  0  0  0  0  0  0  0  0  0  0
   -0.9671    1.0246   -1.0945 C   0  0  0  0  0  0  0  0  0  0  0  0
   -0.3230    1.9463   -0.0478 C   0  0  0  0  0  0  0  0  0  0  0  0
    0.8077    2.8124   -0.6450 C   0  0  0  0  0  0  0  0  0  0  0  0
    2.1969    2.1730   -0.4932 C   0  0  0  0  0  0  0  0  0  0  0  0
    2.5984    2.1198    0.9161 N   0  0  0  0  0  0  0  0  0  0  0  0
    3.8864    1.6784    1.3769 C   0  0  0  0  0  0  0  0  0  0  0  0
    4.1982    1.8822    2.5808 O   0  0  0  0  0  0  0  0  0  0  0  0
    4.8827    1.0324    0.4960 C   0  0  0  0  0  0  0  0  0  0  0  0
    6.1588    1.6223    0.4338 C   0  0  0  0  0  0  0  0  0  0  0  0
    7.1508    1.0972   -0.3972 C   0  0  0  0  0  0  0  0  0  0  0  0
    8.7304    1.8586   -0.4695 Cl  0  0  0  0  0  0  0  0  0  0  0  0
    6.8819   -0.0267   -1.1768 C   0  0  0  0  0  0  0  0  0  0  0  0
    5.6286   -0.6361   -1.1136 C   0  0  0  0  0  0  0  0  0  0  0  0
    4.6288   -0.1432   -0.2640 C   0  0  0  0  0  0  0  0  0  0  0  0
    3.4123   -0.8399   -0.2594 O   0  0  0  0  0  0  0  0  0  0  0  0
    2.6528   -1.2131    0.8895 C   0  0  0  0  0  0  0  0  0  0  0  0
    1.3113   -1.7904    0.4167 C   0  0  0  0  0  0  0  0  0  0  0  0
    1.4505   -3.2559   -0.0001 C   0  0  0  0  0  0  0  0  0  0  0  0
    0.2987   -1.6608    1.4686 N   0  0  0  0  0  0  0  0  0  0  0  0
   -1.0771   -1.3020    1.2401 C   0  0  0  0  0  0  0  0  0  0  0  0
   -1.8111   -1.0509    2.2335 O   0  0  0  0  0  0  0  0  0  0  0  0
   -1.6912   -1.2290   -0.1340 C   0  0  0  0  0  0  0  0  0  0  0  0
   -7.1609   -1.3621    2.1258 H   0  0  0  0  0  0  0  0  0  0  0  0
   -6.5019   -0.3137    3.4359 H   0  0  0  0  0  0  0  0  0  0  0  0
   -5.3907   -1.3968    2.5143 H   0  0  0  0  0  0  0  0  0  0  0  0
   -5.2231    1.0145    1.8129 H   0  0  0  0  0  0  0  0  0  0  0  0
   -6.9614    1.0033    1.3555 H   0  0  0  0  0  0  0  0  0  0  0  0
   -3.0427   -1.7632   -2.6414 H   0  0  0  0  0  0  0  0  0  0  0  0
   -4.3525   -1.3483   -3.8044 H   0  0  0  0  0  0  0  0  0  0  0  0
   -3.2897   -0.0458   -3.1570 H   0  0  0  0  0  0  0  0  0  0  0  0
   -0.1837    0.4042   -1.5759 H   0  0  0  0  0  0  0  0  0  0  0  0
   -1.4261    1.6375   -1.9014 H   0  0  0  0  0  0  0  0  0  0  0  0
   -1.0964    2.6316    0.3553 H   0  0  0  0  0  0  0  0  0  0  0  0
    0.0483    1.3364    0.8031 H   0  0  0  0  0  0  0  0  0  0  0  0
    0.8179    3.8005   -0.1348 H   0  0  0  0  0  0  0  0  0  0  0  0
    0.6135    3.0145   -1.7210 H   0  0  0  0  0  0  0  0  0  0  0  0
    2.1715    1.1573   -0.9311 H   0  0  0  0  0  0  0  0  0  0  0  0
    2.9375    2.7794   -1.0582 H   0  0  0  0  0  0  0  0  0  0  0  0
    1.9609    2.5252    1.6378 H   0  0  0  0  0  0  0  0  0  0  0  0
    6.3785    2.5083    1.0192 H   0  0  0  0  0  0  0  0  0  0  0  0
    7.6448   -0.4325   -1.8292 H   0  0  0  0  0  0  0  0  0  0  0  0
    5.4361   -1.5146   -1.7165 H   0  0  0  0  0  0  0  0  0  0  0  0
    2.4432   -0.3435    1.5332 H   0  0  0  0  0  0  0  0  0  0  0  0
    3.2210   -1.9527    1.4936 H   0  0  0  0  0  0  0  0  0  0  0  0
    1.0107   -1.1981   -0.4680 H   0  0  0  0  0  0  0  0  0  0  0  0
    1.7748   -3.8768    0.8617 H   0  0  0  0  0  0  0  0  0  0  0  0
    2.1965   -3.3524   -0.8173 H   0  0  0  0  0  0  0  0  0  0  0  0
    0.4761   -3.6403   -0.3666 H   0  0  0  0  0  0  0  0  0  0  0  0
    0.5844   -1.8736    2.4521 H   0  0  0  0  0  0  0  0  0  0  0  0
   -1.0590   -1.6979   -0.9118 H   0  0  0  0  0  0  0  0  0  0  0  0
   -2.6170   -1.8414   -0.1189 H   0  0  0  0  0  0  0  0  0  0  0  0
  1  2  1  0
  2  3  1  0
  3  4  2  0
  4  5  1  0
  5  6  1  0
  6  7  1  0
  6  8  2  0
  8  9  1  0
  9 10  2  0
  9 11  1  0
 11 12  1  0
 12 13  1  0
 13 14  1  0
 14 15  1  0
 15 16  1  0
 16 17  1  0
 17 18  2  0
 17 19  1  0
 19 20  2  0
 20 21  1  0
 21 22  1  0
 21 23  2  0
 23 24  1  0
 24 25  2  0
 25 26  1  0
 26 27  1  0
 27 28  1  0
 28 29  1  0
 28 30  1  0
 30 31  1  0
 31 32  2  0
 31 33  1  0
  8  3  1  0
 33 11  1  0
 25 19  1  0
  1 34  1  0
  1 35  1  0
  1 36  1  0
  2 37  1  0
  2 38  1  0
  7 39  1  0
  7 40  1  0
  7 41  1  0
 12 42  1  0
 12 43  1  0
 13 44  1  0
 13 45  1  0
 14 46  1  0
 14 47  1  0
 15 48  1  0
 15 49  1  0
 16 50  1  0
 20 51  1  0
 23 52  1  0
 24 53  1  0
 27 54  1  0
 27 55  1  0
 28 56  1  0
 29 57  1  0
 29 58  1  0
 29 59  1  0
 30 60  1  0
 33 61  1  0
 33 62  1  0
M  END
$$$$
