
     RDKit          3D

 81 82  0  0  0  0  0  0  0  0999 V2000
   -2.4816    4.9716   -1.9254 C   0  0  0  0  0  0  0  0  0  0  0  0
   -2.4112    4.0657   -3.0073 O   0  0  0  0  0  0  0  0  0  0  0  0
   -1.7277    2.8897   -2.6147 C   0  0  0  0  0  0  0  0  0  0  0  0
   -2.6662    1.9269   -1.9351 C   0  0  0  0  0  0  0  0  0  0  0  0
   -3.8307    1.7896   -2.4039 O   0  0  0  0  0  0  0  0  0  0  0  0
   -2.2682    1.1661   -0.7720 N   0  0  0  0  0  0  0  0  0  0  0  0
   -3.3230    0.7570    0.1795 C   0  0  0  0  0  0  0  0  0  0  0  0
   -3.8368   -0.6777   -0.1052 C   0  0  0  0  0  0  0  0  0  0  0  0
   -5.2407   -0.7225    0.1095 O   0  0  0  0  0  0  0  0  0  0  0  0
   -5.9232   -1.0768   -1.0728 C   0  0  0  0  0  0  0  0  0  0  0  0
   -3.1398   -1.6996    0.8289 C   0  0  0  0  0  0  0  0  0  0  0  0
   -3.5430   -1.5566    2.1714 O   0  0  0  0  0  0  0  0  0  0  0  0
   -3.2607   -3.1708    0.3407 C   0  0  0  0  0  0  0  0  0  0  0  0
   -4.4241   -3.7660    0.8565 O   0  0  0  0  0  0  0  0  0  0  0  0
   -2.0193   -3.9760    0.7630 C   0  0  0  0  0  0  0  0  0  0  0  0
   -0.9104   -3.4966    0.0280 O   0  0  0  0  0  0  0  0  0  0  0  0
    0.3198   -3.9029    0.5955 C   0  0  0  0  0  0  0  0  0  0  0  0
    1.2480   -2.6862    0.6891 C   0  0  0  0  0  0  0  0  0  0  0  0
    0.8794   -1.7804    1.8742 C   0  0  0  0  0  0  0  0  0  0  0  0
    1.5815   -0.4116    1.8449 C   0  0  0  0  0  0  0  0  0  0  0  0
    1.1974    0.4109    0.6751 N   0  0  0  0  0  0  0  0  0  0  0  0
    2.1809    0.7201   -0.3517 C   0  0  0  0  0  0  0  0  0  0  0  0
    2.0377    1.7469   -1.0697 O   0  0  0  0  0  0  0  0  0  0  0  0
    3.3562   -0.1511   -0.5944 C   0  0  0  0  0  0  0  0  0  0  0  0
    4.3543    0.2014   -1.4142 C   0  0  0  0  0  0  0  0  0  0  0  0
    5.5019   -0.6915   -1.6836 C   0  0  0  0  0  0  0  0  0  0  0  0
    5.8809   -0.8973   -3.0200 C   0  0  0  0  0  0  0  0  0  0  0  0
    6.9462   -1.7450   -3.3340 C   0  0  0  0  0  0  0  0  0  0  0  0
    7.6567   -2.3828   -2.3159 C   0  0  0  0  0  0  0  0  0  0  0  0
    8.6916   -3.2038   -2.6226 F   0  0  0  0  0  0  0  0  0  0  0  0
    7.3117   -2.1631   -0.9800 C   0  0  0  0  0  0  0  0  0  0  0  0
    6.2445   -1.3166   -0.6525 C   0  0  0  0  0  0  0  0  0  0  0  0
    5.9357   -1.0030    1.0538 Cl  0  0  0  0  0  0  0  0  0  0  0  0
   -0.1698    0.9992    0.6373 C   0  0  0  0  0  0  0  0  0  0  0  0
   -0.1570    2.5363    0.8592 C   0  0  0  0  0  0  0  0  0  0  0  0
    0.5299    2.9883    2.1699 C   0  0  0  0  0  0  0  0  0  0  0  0
   -0.3144    2.6402    3.4061 C   0  0  0  0  0  0  0  0  0  0  0  0
    0.7833    4.5015    2.1323 C   0  0  0  0  0  0  0  0  0  0  0  0
   -0.8951    0.6177   -0.6813 C   0  0  0  0  0  0  0  0  0  0  0  0
   -2.9876    4.5159   -1.0460 H   0  0  0  0  0  0  0  0  0  0  0  0
   -3.0798    5.8512   -2.2373 H   0  0  0  0  0  0  0  0  0  0  0  0
   -1.4699    5.3346   -1.6425 H   0  0  0  0  0  0  0  0  0  0  0  0
   -1.3399    2.3958   -3.5305 H   0  0  0  0  0  0  0  0  0  0  0  0
   -0.8416    3.1181   -1.9844 H   0  0  0  0  0  0  0  0  0  0  0  0
   -4.1742    1.4705    0.1118 H   0  0  0  0  0  0  0  0  0  0  0  0
   -2.9659    0.8620    1.2241 H   0  0  0  0  0  0  0  0  0  0  0  0
   -3.5445   -0.9256   -1.1565 H   0  0  0  0  0  0  0  0  0  0  0  0
   -7.0115   -1.1097   -0.8583 H   0  0  0  0  0  0  0  0  0  0  0  0
   -5.7560   -0.3184   -1.8696 H   0  0  0  0  0  0  0  0  0  0  0  0
   -5.6157   -2.0874   -1.4231 H   0  0  0  0  0  0  0  0  0  0  0  0
   -2.0730   -1.4395    0.8058 H   0  0  0  0  0  0  0  0  0  0  0  0
   -4.5189   -1.7245    2.2240 H   0  0  0  0  0  0  0  0  0  0  0  0
   -3.3051   -3.1860   -0.7742 H   0  0  0  0  0  0  0  0  0  0  0  0
   -4.6032   -4.5741    0.3075 H   0  0  0  0  0  0  0  0  0  0  0  0
   -1.8828   -3.8545    1.8629 H   0  0  0  0  0  0  0  0  0  0  0  0
   -2.1738   -5.0534    0.5317 H   0  0  0  0  0  0  0  0  0  0  0  0
    0.2419   -4.3949    1.5938 H   0  0  0  0  0  0  0  0  0  0  0  0
    0.7838   -4.6428   -0.0912 H   0  0  0  0  0  0  0  0  0  0  0  0
    2.2942   -3.0395    0.8180 H   0  0  0  0  0  0  0  0  0  0  0  0
    1.1842   -2.1213   -0.2663 H   0  0  0  0  0  0  0  0  0  0  0  0
    1.1693   -2.2993    2.8137 H   0  0  0  0  0  0  0  0  0  0  0  0
   -0.2129   -1.6309    1.9282 H   0  0  0  0  0  0  0  0  0  0  0  0
    1.3102    0.1306    2.7740 H   0  0  0  0  0  0  0  0  0  0  0  0
    2.6800   -0.5507    1.9118 H   0  0  0  0  0  0  0  0  0  0  0  0
    3.4012   -1.1185   -0.1206 H   0  0  0  0  0  0  0  0  0  0  0  0
    4.2903    1.1246   -1.9776 H   0  0  0  0  0  0  0  0  0  0  0  0
    5.3387   -0.4139   -3.8236 H   0  0  0  0  0  0  0  0  0  0  0  0
    7.2203   -1.9072   -4.3689 H   0  0  0  0  0  0  0  0  0  0  0  0
    7.8855   -2.6414   -0.1965 H   0  0  0  0  0  0  0  0  0  0  0  0
   -0.7651    0.5628    1.4627 H   0  0  0  0  0  0  0  0  0  0  0  0
   -1.2022    2.9152    0.8628 H   0  0  0  0  0  0  0  0  0  0  0  0
    0.3399    3.0324    0.0036 H   0  0  0  0  0  0  0  0  0  0  0  0
    1.5201    2.4939    2.2616 H   0  0  0  0  0  0  0  0  0  0  0  0
   -1.3129    3.1245    3.3467 H   0  0  0  0  0  0  0  0  0  0  0  0
    0.1982    2.9906    4.3281 H   0  0  0  0  0  0  0  0  0  0  0  0
   -0.4565    1.5453    3.5010 H   0  0  0  0  0  0  0  0  0  0  0  0
    1.3034    4.8299    3.0578 H   0  0  0  0  0  0  0  0  0  0  0  0
    1.4318    4.7624    1.2687 H   0  0  0  0  0  0  0  0  0  0  0  0
   -0.1757    5.0574    2.0422 H   0  0  0  0  0  0  0  0  0  0  0  0
   -0.2903    0.9491   -1.5475 H   0  0  0  0  0  0  0  0  0  0  0  0
   -0.9287   -0.4845   -0.7866 H   0  0  0  0  0  0  0  0  0  0  0  0
  1  2  1  0
  2  3  1  0
  3  4  1  0
  4  5  2  0
  4  6  1  0
  6  7  1  0
  7  8  1  0
  8  9  1  0
  9 10  1  0
  8 11  1  0
 11 12  1  0
 11 13  1  0
 13 14  1  0
 13 15  1  0
 15 16  1  0
 16 17  1  0
 17 18  1  0
 18 19  1  0
 19 20  1  0
 20 21  1  0
 21 22  1  0
 22 23  2  0
 22 24  1  0
 24 25  2  0
 25 26  1  0
 26 27  2  0
 27 28  1  0
 28 29  2  0
 29 30  1  0
 29 31  1  0
 31 32  2  0
 32 33  1  0
 21 34  1  0
 34 35  1  0
 35 36  1  0
 36 37  1  0
 36 38  1  0
 34 39  1  0
 39  6  1  0
 32 26  1  0
  1 40  1  0
  1 41  1  0
  1 42  1  0
  3 43  1  0
  3 44  1  0
  7 45  1  0
  7 46  1  0
  8 47  1  0
 10 48  1  0
 10 49  1  0
 10 50  1  0
 11 51  1  0
 12 52  1  0
 13 53  1  0
 14 54  1  0
 15 55  1  0
 15 56  1  0
 17 57  1  0
 17 58  1  0
 18 59  1  0
 18 60  1  0
 19 61  1  0
 19 62  1  0
 20 63  1  0
 20 64  1  0
 24 65  1  0
 25 66  1  0
 27 67  1  0
 28 68  1  0
 31 69  1  0
 34 70  1  0
 35 71  1  0
 35 72  1  0
 36 73  1  0
 37 74  1  0
 37 75  1  0
 37 76  1  0
 38 77  1  0
 38 78  1  0
 38 79  1  0
 39 80  1  0
 39 81  1  0
M  END
$$$$
