
     RDKit          3D

 67 69  0  0  0  0  0  0  0  0999 V2000
   -5.5726   -3.7804   -0.0580 C   0  0  0  0  0  0  0  0  0  0  0  0
   -5.1755   -2.8889   -1.2305 C   0  0  0  0  0  0  0  0  0  0  0  0
   -4.4078   -1.7719   -0.7800 O   0  0  0  0  0  0  0  0  0  0  0  0
   -3.0754   -1.8032   -0.3317 C   0  0  0  0  0  0  0  0  0  0  0  0
   -2.2832   -2.9593   -0.4837 C   0  0  0  0  0  0  0  0  0  0  0  0
   -0.9653   -2.9842   -0.0337 C   0  0  0  0  0  0  0  0  0  0  0  0
   -0.4168   -1.8679    0.5890 C   0  0  0  0  0  0  0  0  0  0  0  0
   -1.1800   -0.7065    0.7661 C   0  0  0  0  0  0  0  0  0  0  0  0
   -2.5083   -0.6514    0.2792 C   0  0  0  0  0  0  0  0  0  0  0  0
   -3.2007    0.5681    0.4242 O   0  0  0  0  0  0  0  0  0  0  0  0
   -4.5511    0.8441    0.0590 C   0  0  0  0  0  0  0  0  0  0  0  0
   -4.8932    2.2975    0.4146 C   0  0  0  0  0  0  0  0  0  0  0  0
   -4.5947    3.3036   -0.7144 C   0  0  0  0  0  0  0  0  0  0  0  0
   -3.1297    3.3488   -1.1841 C   0  0  0  0  0  0  0  0  0  0  0  0
   -2.1507    3.7283   -0.0635 C   0  0  0  0  0  0  0  0  0  0  0  0
   -0.8287    4.0394   -0.6070 N   0  0  0  0  0  0  0  0  0  0  0  0
    0.1568    3.0694   -1.0061 C   0  0  0  0  0  0  0  0  0  0  0  0
    1.2180    3.4775   -1.5485 O   0  0  0  0  0  0  0  0  0  0  0  0
   -0.0060    1.5879   -0.7704 C   0  0  0  0  0  0  0  0  0  0  0  0
    0.3871    1.2000    0.5975 N   0  0  0  0  0  0  0  0  0  0  0  0
    1.6569    1.6100    1.1465 C   0  0  0  0  0  0  0  0  0  0  0  0
    1.7186    1.9982    2.3453 O   0  0  0  0  0  0  0  0  0  0  0  0
    2.9203    1.5814    0.3264 C   0  0  0  0  0  0  0  0  0  0  0  0
    4.0230    0.7496    0.9960 C   0  0  0  0  0  0  0  0  0  0  0  0
    3.6645   -0.7416    1.0621 C   0  0  0  0  0  0  0  0  0  0  0  0
    4.7383   -1.4919    1.6307 O   0  0  0  0  0  0  0  0  0  0  0  0
    5.9458   -1.8093    0.9848 C   0  0  0  0  0  0  0  0  0  0  0  0
    6.1759   -1.5330   -0.3790 C   0  0  0  0  0  0  0  0  0  0  0  0
    7.4001   -1.8649   -0.9680 C   0  0  0  0  0  0  0  0  0  0  0  0
    8.4011   -2.4766   -0.2095 C   0  0  0  0  0  0  0  0  0  0  0  0
    8.1789   -2.7608    1.1397 C   0  0  0  0  0  0  0  0  0  0  0  0
    6.9563   -2.4309    1.7339 C   0  0  0  0  0  0  0  0  0  0  0  0
    6.7531   -2.7115    3.0452 F   0  0  0  0  0  0  0  0  0  0  0  0
   -0.5516    0.4753    1.4720 C   0  0  0  0  0  0  0  0  0  0  0  0
   -6.1146   -3.1814    0.7060 H   0  0  0  0  0  0  0  0  0  0  0  0
   -4.6766   -4.2383    0.4102 H   0  0  0  0  0  0  0  0  0  0  0  0
   -6.2392   -4.5937   -0.4169 H   0  0  0  0  0  0  0  0  0  0  0  0
   -4.6275   -3.4644   -2.0058 H   0  0  0  0  0  0  0  0  0  0  0  0
   -6.1028   -2.5016   -1.7035 H   0  0  0  0  0  0  0  0  0  0  0  0
   -2.6711   -3.8499   -0.9561 H   0  0  0  0  0  0  0  0  0  0  0  0
   -0.3674   -3.8774   -0.1631 H   0  0  0  0  0  0  0  0  0  0  0  0
    0.6068   -1.9104    0.9408 H   0  0  0  0  0  0  0  0  0  0  0  0
   -5.2230    0.1730    0.6374 H   0  0  0  0  0  0  0  0  0  0  0  0
   -4.7021    0.6736   -1.0295 H   0  0  0  0  0  0  0  0  0  0  0  0
   -4.3711    2.5972    1.3489 H   0  0  0  0  0  0  0  0  0  0  0  0
   -5.9828    2.3552    0.6298 H   0  0  0  0  0  0  0  0  0  0  0  0
   -4.8925    4.3179   -0.3709 H   0  0  0  0  0  0  0  0  0  0  0  0
   -5.2358    3.0592   -1.5887 H   0  0  0  0  0  0  0  0  0  0  0  0
   -2.8569    2.3766   -1.6399 H   0  0  0  0  0  0  0  0  0  0  0  0
   -3.0556    4.1125   -1.9892 H   0  0  0  0  0  0  0  0  0  0  0  0
   -2.5364    4.6301    0.4594 H   0  0  0  0  0  0  0  0  0  0  0  0
   -2.0696    2.9243    0.6879 H   0  0  0  0  0  0  0  0  0  0  0  0
   -0.5756    5.0505   -0.6983 H   0  0  0  0  0  0  0  0  0  0  0  0
    0.6081    1.0238   -1.5031 H   0  0  0  0  0  0  0  0  0  0  0  0
   -1.0481    1.2976   -0.9804 H   0  0  0  0  0  0  0  0  0  0  0  0
    2.7327    1.1725   -0.6879 H   0  0  0  0  0  0  0  0  0  0  0  0
    3.2823    2.6248    0.2053 H   0  0  0  0  0  0  0  0  0  0  0  0
    4.9583    0.8816    0.4127 H   0  0  0  0  0  0  0  0  0  0  0  0
    4.2187    1.1297    2.0225 H   0  0  0  0  0  0  0  0  0  0  0  0
    2.7768   -0.8700    1.7165 H   0  0  0  0  0  0  0  0  0  0  0  0
    3.3972   -1.1406    0.0606 H   0  0  0  0  0  0  0  0  0  0  0  0
    5.4209   -1.0646   -0.9938 H   0  0  0  0  0  0  0  0  0  0  0  0
    7.5729   -1.6471   -2.0142 H   0  0  0  0  0  0  0  0  0  0  0  0
    9.3491   -2.7313   -0.6667 H   0  0  0  0  0  0  0  0  0  0  0  0
    8.9563   -3.2356    1.7250 H   0  0  0  0  0  0  0  0  0  0  0  0
   -0.0200    0.0877    2.3696 H   0  0  0  0  0  0  0  0  0  0  0  0
   -1.3150    1.1735    1.8657 H   0  0  0  0  0  0  0  0  0  0  0  0
  1  2  1  0
  2  3  1  0
  3  4  1  0
  4  5  2  0
  5  6  1  0
  6  7  2  0
  7  8  1  0
  8  9  2  0
  9 10  1  0
 10 11  1  0
 11 12  1  0
 12 13  1  0
 13 14  1  0
 14 15  1  0
 15 16  1  0
 16 17  1  0
 17 18  2  0
 17 19  1  0
 19 20  1  0
 20 21  1  0
 21 22  2  0
 21 23  1  0
 23 24  1  0
 24 25  1  0
 25 26  1  0
 26 27  1  0
 27 28  2  0
 28 29  1  0
 29 30  2  0
 30 31  1  0
 31 32  2  0
 32 33  1  0
 20 34  1  0
  9  4  1  0
 32 27  1  0
 34  8  1  0
  1 35  1  0
  1 36  1  0
  1 37  1  0
  2 38  1  0
  2 39  1  0
  5 40  1  0
  6 41  1  0
  7 42  1  0
 11 43  1  0
 11 44  1  0
 12 45  1  0
 12 46  1  0
 13 47  1  0
 13 48  1  0
 14 49  1  0
 14 50  1  0
 15 51  1  0
 15 52  1  0
 16 53  1  0
 19 54  1  0
 19 55  1  0
 23 56  1  0
 23 57  1  0
 24 58  1  0
 24 59  1  0
 25 60  1  0
 25 61  1  0
 28 62  1  0
 29 63  1  0
 30 64  1  0
 31 65  1  0
 34 66  1  0
 34 67  1  0
M  END
$$$$
