
     RDKit          3D

 65 69  0  0  0  0  0  0  0  0999 V2000
    1.8137   -1.8266    1.0885 O   0  0  0  0  0  0  0  0  0  0  0  0
    2.1056   -0.6023    1.1620 C   0  0  0  0  0  0  0  0  0  0  0  0
    3.4741   -0.1637    0.8153 C   0  0  0  0  0  0  0  0  0  0  0  0
    4.3614   -0.8738    0.0279 C   0  0  0  0  0  0  0  0  0  0  0  0
    5.4594   -0.0351   -0.0931 C   0  0  0  0  0  0  0  0  0  0  0  0
    6.6863   -0.2894   -0.8886 C   0  0  0  0  0  0  0  0  0  0  0  0
    6.6889   -1.2599   -1.9121 C   0  0  0  0  0  0  0  0  0  0  0  0
    7.8334   -1.4696   -2.6881 C   0  0  0  0  0  0  0  0  0  0  0  0
    8.9904   -0.7270   -2.4456 C   0  0  0  0  0  0  0  0  0  0  0  0
    9.0017    0.2355   -1.4332 C   0  0  0  0  0  0  0  0  0  0  0  0
    7.8600    0.4586   -0.6581 C   0  0  0  0  0  0  0  0  0  0  0  0
    7.9135    1.3942    0.3227 F   0  0  0  0  0  0  0  0  0  0  0  0
    5.2331    1.1036    0.5994 N   0  0  0  0  0  0  0  0  0  0  0  0
    4.0304    1.0217    1.1414 N   0  0  0  0  0  0  0  0  0  0  0  0
    1.0687    0.3411    1.4651 N   0  0  0  0  0  0  0  0  0  0  0  0
    1.1393    1.2167    2.6287 C   0  0  0  0  0  0  0  0  0  0  0  0
   -0.2374    1.3019    3.2746 C   0  0  0  0  0  0  0  0  0  0  0  0
   -1.2446    1.6260    2.3289 O   0  0  0  0  0  0  0  0  0  0  0  0
   -1.3799    0.6965    1.2472 C   0  0  0  0  0  0  0  0  0  0  0  0
   -1.9074   -0.6840    1.7779 C   0  0  0  0  0  0  0  0  0  0  0  0
   -2.1526   -1.7526    0.6851 C   0  0  0  0  0  0  0  0  0  0  0  0
   -3.5262   -2.4571    0.7556 C   0  0  0  0  0  0  0  0  0  0  0  0
   -4.4928   -2.0976   -0.3985 C   0  0  0  0  0  0  0  0  0  0  0  0
   -5.0520   -0.6917   -0.3274 C   0  0  0  0  0  0  0  0  0  0  0  0
   -5.8724   -0.3834    0.7793 C   0  0  0  0  0  0  0  0  0  0  0  0
   -6.5814    0.8160    0.8381 C   0  0  0  0  0  0  0  0  0  0  0  0
   -6.5113    1.7210   -0.2180 C   0  0  0  0  0  0  0  0  0  0  0  0
   -5.7142    1.4393   -1.3249 C   0  0  0  0  0  0  0  0  0  0  0  0
   -4.9603    0.2578   -1.3945 C   0  0  0  0  0  0  0  0  0  0  0  0
   -4.2036    0.0875   -2.5674 O   0  0  0  0  0  0  0  0  0  0  0  0
   -2.8028   -0.1876   -2.6774 C   0  0  0  0  0  0  0  0  0  0  0  0
   -1.8682    0.9329   -2.1652 C   0  0  0  0  0  0  0  0  0  0  0  0
   -2.3780    1.6967   -1.0166 N   0  0  0  0  0  0  0  0  0  0  0  0
   -2.4820    1.3096    0.3762 C   0  0  0  0  0  0  0  0  0  0  0  0
   -3.5372    1.6412    0.9817 O   0  0  0  0  0  0  0  0  0  0  0  0
   -0.0175    0.5542    0.5104 C   0  0  0  0  0  0  0  0  0  0  0  0
    4.2111   -1.8500   -0.4159 H   0  0  0  0  0  0  0  0  0  0  0  0
    5.8023   -1.8442   -2.1306 H   0  0  0  0  0  0  0  0  0  0  0  0
    7.8225   -2.2075   -3.4803 H   0  0  0  0  0  0  0  0  0  0  0  0
    9.8790   -0.8965   -3.0419 H   0  0  0  0  0  0  0  0  0  0  0  0
    9.8964    0.8133   -1.2464 H   0  0  0  0  0  0  0  0  0  0  0  0
    3.6153    1.7778    1.7274 H   0  0  0  0  0  0  0  0  0  0  0  0
    1.8654    0.8202    3.3737 H   0  0  0  0  0  0  0  0  0  0  0  0
    1.4516    2.2365    2.3066 H   0  0  0  0  0  0  0  0  0  0  0  0
   -0.4788    0.3793    3.8398 H   0  0  0  0  0  0  0  0  0  0  0  0
   -0.2088    2.1130    4.0343 H   0  0  0  0  0  0  0  0  0  0  0  0
   -1.1788   -1.1283    2.4860 H   0  0  0  0  0  0  0  0  0  0  0  0
   -2.8332   -0.5020    2.3647 H   0  0  0  0  0  0  0  0  0  0  0  0
   -1.9985   -1.3234   -0.3004 H   0  0  0  0  0  0  0  0  0  0  0  0
   -1.3575   -2.5260    0.7752 H   0  0  0  0  0  0  0  0  0  0  0  0
   -3.3440   -3.5514    0.6844 H   0  0  0  0  0  0  0  0  0  0  0  0
   -4.0148   -2.3067    1.7418 H   0  0  0  0  0  0  0  0  0  0  0  0
   -5.3578   -2.7922   -0.3330 H   0  0  0  0  0  0  0  0  0  0  0  0
   -4.0445   -2.3305   -1.3786 H   0  0  0  0  0  0  0  0  0  0  0  0
   -5.9995   -1.0903    1.5906 H   0  0  0  0  0  0  0  0  0  0  0  0
   -7.2069    1.0311    1.6950 H   0  0  0  0  0  0  0  0  0  0  0  0
   -7.0747    2.6448   -0.1768 H   0  0  0  0  0  0  0  0  0  0  0  0
   -5.6716    2.1528   -2.1407 H   0  0  0  0  0  0  0  0  0  0  0  0
   -2.5324   -1.1687   -2.2771 H   0  0  0  0  0  0  0  0  0  0  0  0
   -2.5923   -0.3043   -3.7623 H   0  0  0  0  0  0  0  0  0  0  0  0
   -0.8625    0.5267   -1.9818 H   0  0  0  0  0  0  0  0  0  0  0  0
   -1.7237    1.6508   -3.0038 H   0  0  0  0  0  0  0  0  0  0  0  0
   -2.9681    2.5169   -1.2937 H   0  0  0  0  0  0  0  0  0  0  0  0
    0.2012    1.4850   -0.0578 H   0  0  0  0  0  0  0  0  0  0  0  0
   -0.0344   -0.2973   -0.1959 H   0  0  0  0  0  0  0  0  0  0  0  0
  1  2  2  0
  2  3  1  0
  3  4  2  0
  4  5  1  0
  5  6  1  0
  6  7  2  0
  7  8  1  0
  8  9  2  0
  9 10  1  0
 10 11  2  0
 11 12  1  0
  5 13  2  0
 13 14  1  0
  2 15  1  0
 15 16  1  0
 16 17  1  0
 17 18  1  0
 18 19  1  0
 19 20  1  0
 20 21  1  0
 21 22  1  0
 22 23  1  0
 23 24  1  0
 24 25  2  0
 25 26  1  0
 26 27  2  0
 27 28  1  0
 28 29  2  0
 29 30  1  0
 30 31  1  0
 31 32  1  0
 32 33  1  0
 33 34  1  0
 34 35  2  0
 19 36  1  0
 14  3  1  0
 36 15  1  0
 11  6  1  0
 34 19  1  0
 29 24  1  0
  4 37  1  0
  7 38  1  0
  8 39  1  0
  9 40  1  0
 10 41  1  0
 14 42  1  0
 16 43  1  0
 16 44  1  0
 17 45  1  0
 17 46  1  0
 20 47  1  0
 20 48  1  0
 21 49  1  0
 21 50  1  0
 22 51  1  0
 22 52  1  0
 23 53  1  0
 23 54  1  0
 25 55  1  0
 26 56  1  0
 27 57  1  0
 28 58  1  0
 31 59  1  0
 31 60  1  0
 32 61  1  0
 32 62  1  0
 33 63  1  0
 36 64  1  0
 36 65  1  0
M  END
$$$$
