
     RDKit          3D

 71 73  0  0  0  0  0  0  0  0999 V2000
   -5.0434   -4.8861   -0.3507 C   0  0  0  0  0  0  0  0  0  0  0  0
   -3.7746   -4.1447    0.0967 C   0  0  0  0  0  0  0  0  0  0  0  0
   -3.2718   -4.7672    1.2515 O   0  0  0  0  0  0  0  0  0  0  0  0
   -4.0610   -2.6517    0.4116 C   0  0  0  0  0  0  0  0  0  0  0  0
   -2.9018   -2.0302    1.0714 N   0  0  0  0  0  0  0  0  0  0  0  0
   -1.5465   -2.1350    0.6015 C   0  0  0  0  0  0  0  0  0  0  0  0
   -0.6604   -2.5678    1.3861 O   0  0  0  0  0  0  0  0  0  0  0  0
   -1.1511   -1.6973   -0.7838 C   0  0  0  0  0  0  0  0  0  0  0  0
   -0.0354   -0.6269   -0.7499 C   0  0  0  0  0  0  0  0  0  0  0  0
    1.3300   -1.2497   -0.8727 C   0  0  0  0  0  0  0  0  0  0  0  0
    1.7612   -1.5959   -2.0071 O   0  0  0  0  0  0  0  0  0  0  0  0
    2.1267   -1.4734    0.3000 N   0  0  0  0  0  0  0  0  0  0  0  0
    3.5118   -1.9336    0.2344 C   0  0  0  0  0  0  0  0  0  0  0  0
    4.4479   -0.8028   -0.2090 C   0  0  0  0  0  0  0  0  0  0  0  0
    4.4463    0.3635    0.7896 C   0  0  0  0  0  0  0  0  0  0  0  0
    5.4596    1.4034    0.3919 C   0  0  0  0  0  0  0  0  0  0  0  0
    5.1154    2.4194   -0.5155 C   0  0  0  0  0  0  0  0  0  0  0  0
    6.0643    3.3698   -0.9019 C   0  0  0  0  0  0  0  0  0  0  0  0
    7.3666    3.3053   -0.3973 C   0  0  0  0  0  0  0  0  0  0  0  0
    7.7223    2.2870    0.4917 C   0  0  0  0  0  0  0  0  0  0  0  0
    6.7742    1.3357    0.8833 C   0  0  0  0  0  0  0  0  0  0  0  0
   -0.2419    0.3396   -1.8342 N   0  0  0  0  0  0  0  0  0  0  0  0
   -0.7849    1.6410   -1.5784 C   0  0  0  0  0  0  0  0  0  0  0  0
   -1.6427    2.1217   -2.3658 O   0  0  0  0  0  0  0  0  0  0  0  0
   -0.3551    2.4227   -0.4041 C   0  0  0  0  0  0  0  0  0  0  0  0
    1.0183    2.6108   -0.1841 C   0  0  0  0  0  0  0  0  0  0  0  0
    1.4624    3.4158    0.8671 C   0  0  0  0  0  0  0  0  0  0  0  0
    0.5381    4.0428    1.7046 C   0  0  0  0  0  0  0  0  0  0  0  0
   -0.8312    3.8443    1.5089 C   0  0  0  0  0  0  0  0  0  0  0  0
   -1.2876    3.0119    0.4798 C   0  0  0  0  0  0  0  0  0  0  0  0
   -2.6623    2.7701    0.3781 O   0  0  0  0  0  0  0  0  0  0  0  0
   -3.2170    1.4661    0.5422 C   0  0  0  0  0  0  0  0  0  0  0  0
   -4.7424    1.5470    0.5235 C   0  0  0  0  0  0  0  0  0  0  0  0
   -5.3852    0.1563    0.5771 C   0  0  0  0  0  0  0  0  0  0  0  0
   -5.1472   -0.5665   -0.6757 N   0  0  0  0  0  0  0  0  0  0  0  0
   -4.4927   -1.8419   -0.7975 C   0  0  0  0  0  0  0  0  0  0  0  0
   -4.2570   -2.2814   -1.9561 O   0  0  0  0  0  0  0  0  0  0  0  0
   -5.4194   -4.4875   -1.3154 H   0  0  0  0  0  0  0  0  0  0  0  0
   -5.8425   -4.7902    0.4138 H   0  0  0  0  0  0  0  0  0  0  0  0
   -4.8196   -5.9636   -0.4924 H   0  0  0  0  0  0  0  0  0  0  0  0
   -3.0159   -4.2063   -0.7201 H   0  0  0  0  0  0  0  0  0  0  0  0
   -2.7911   -5.5849    0.9555 H   0  0  0  0  0  0  0  0  0  0  0  0
   -4.9092   -2.6415    1.1314 H   0  0  0  0  0  0  0  0  0  0  0  0
   -3.0233   -1.7665    2.0756 H   0  0  0  0  0  0  0  0  0  0  0  0
   -2.0298   -1.2609   -1.2899 H   0  0  0  0  0  0  0  0  0  0  0  0
   -0.8423   -2.5836   -1.3782 H   0  0  0  0  0  0  0  0  0  0  0  0
   -0.0785   -0.0924    0.2257 H   0  0  0  0  0  0  0  0  0  0  0  0
    1.7151   -1.2799    1.2397 H   0  0  0  0  0  0  0  0  0  0  0  0
    3.5913   -2.7889   -0.4700 H   0  0  0  0  0  0  0  0  0  0  0  0
    3.8258   -2.2983    1.2358 H   0  0  0  0  0  0  0  0  0  0  0  0
    4.1424   -0.4333   -1.2132 H   0  0  0  0  0  0  0  0  0  0  0  0
    5.4789   -1.2147   -0.2941 H   0  0  0  0  0  0  0  0  0  0  0  0
    3.4357    0.8251    0.8259 H   0  0  0  0  0  0  0  0  0  0  0  0
    4.6746   -0.0143    1.8100 H   0  0  0  0  0  0  0  0  0  0  0  0
    4.1179    2.4711   -0.9280 H   0  0  0  0  0  0  0  0  0  0  0  0
    5.7914    4.1513   -1.5993 H   0  0  0  0  0  0  0  0  0  0  0  0
    8.1010    4.0403   -0.6990 H   0  0  0  0  0  0  0  0  0  0  0  0
    8.7340    2.2327    0.8723 H   0  0  0  0  0  0  0  0  0  0  0  0
    7.0627    0.5463    1.5664 H   0  0  0  0  0  0  0  0  0  0  0  0
   -0.2728   -0.0177   -2.8164 H   0  0  0  0  0  0  0  0  0  0  0  0
    1.7433    2.1518   -0.8441 H   0  0  0  0  0  0  0  0  0  0  0  0
    2.5236    3.5686    1.0221 H   0  0  0  0  0  0  0  0  0  0  0  0
    0.8843    4.6757    2.5121 H   0  0  0  0  0  0  0  0  0  0  0  0
   -1.5406    4.3133    2.1788 H   0  0  0  0  0  0  0  0  0  0  0  0
   -2.8835    1.0442    1.5139 H   0  0  0  0  0  0  0  0  0  0  0  0
   -2.8741    0.7992   -0.2698 H   0  0  0  0  0  0  0  0  0  0  0  0
   -5.0817    2.1358    1.4043 H   0  0  0  0  0  0  0  0  0  0  0  0
   -5.0798    2.0789   -0.3939 H   0  0  0  0  0  0  0  0  0  0  0  0
   -6.4806    0.2754    0.7124 H   0  0  0  0  0  0  0  0  0  0  0  0
   -5.0044   -0.3918    1.4599 H   0  0  0  0  0  0  0  0  0  0  0  0
   -5.4846   -0.1157   -1.5572 H   0  0  0  0  0  0  0  0  0  0  0  0
  1  2  1  0
  2  3  1  0
  2  4  1  0
  4  5  1  0
  5  6  1  0
  6  7  2  0
  6  8  1  0
  8  9  1  0
  9 10  1  0
 10 11  2  0
 10 12  1  0
 12 13  1  0
 13 14  1  0
 14 15  1  0
 15 16  1  0
 16 17  2  0
 17 18  1  0
 18 19  2  0
 19 20  1  0
 20 21  2  0
  9 22  1  0
 22 23  1  0
 23 24  2  0
 23 25  1  0
 25 26  2  0
 26 27  1  0
 27 28  2  0
 28 29  1  0
 29 30  2  0
 30 31  1  0
 31 32  1  0
 32 33  1  0
 33 34  1  0
 34 35  1  0
 35 36  1  0
 36 37  2  0
 36  4  1  0
 21 16  1  0
 30 25  1  0
  1 38  1  0
  1 39  1  0
  1 40  1  0
  2 41  1  0
  3 42  1  0
  4 43  1  0
  5 44  1  0
  8 45  1  0
  8 46  1  0
  9 47  1  0
 12 48  1  0
 13 49  1  0
 13 50  1  0
 14 51  1  0
 14 52  1  0
 15 53  1  0
 15 54  1  0
 17 55  1  0
 18 56  1  0
 19 57  1  0
 20 58  1  0
 21 59  1  0
 22 60  1  0
 26 61  1  0
 27 62  1  0
 28 63  1  0
 29 64  1  0
 32 65  1  0
 32 66  1  0
 33 67  1  0
 33 68  1  0
 34 69  1  0
 34 70  1  0
 35 71  1  0
M  END
$$$$
