
     RDKit          3D

 83 86  0  0  0  0  0  0  0  0999 V2000
   -6.1533    2.2816    1.9061 C   0  0  0  0  0  0  0  0  0  0  0  0
   -6.3565    1.5736    0.5700 C   0  0  0  0  0  0  0  0  0  0  0  0
   -5.1246    0.8876    0.1559 N   0  0  0  0  0  0  0  0  0  0  0  0
   -4.4199    1.3472   -1.0494 C   0  0  0  0  0  0  0  0  0  0  0  0
   -3.3787    2.4150   -0.7086 C   0  0  0  0  0  0  0  0  0  0  0  0
   -2.3199    2.3541   -1.6628 O   0  0  0  0  0  0  0  0  0  0  0  0
   -1.3313    3.3366   -1.8039 C   0  0  0  0  0  0  0  0  0  0  0  0
   -1.1275    3.8690   -3.0832 C   0  0  0  0  0  0  0  0  0  0  0  0
   -0.1955    4.8873   -3.2914 C   0  0  0  0  0  0  0  0  0  0  0  0
    0.5505    5.3790   -2.2212 C   0  0  0  0  0  0  0  0  0  0  0  0
    0.3834    4.8372   -0.9452 C   0  0  0  0  0  0  0  0  0  0  0  0
   -0.5345    3.7957   -0.7249 C   0  0  0  0  0  0  0  0  0  0  0  0
   -0.6012    3.1994    0.6234 C   0  0  0  0  0  0  0  0  0  0  0  0
   -0.7402    3.9603    1.6193 O   0  0  0  0  0  0  0  0  0  0  0  0
   -0.4976    1.7830    0.8388 N   0  0  0  0  0  0  0  0  0  0  0  0
    0.2953    0.8955   -0.0208 C   0  0  0  0  0  0  0  0  0  0  0  0
    1.7405    0.9275    0.4045 C   0  0  0  0  0  0  0  0  0  0  0  0
    2.0374    1.1422    1.6121 O   0  0  0  0  0  0  0  0  0  0  0  0
    2.7710    0.6431   -0.5544 N   0  0  0  0  0  0  0  0  0  0  0  0
    4.1899    0.5567   -0.1999 C   0  0  0  0  0  0  0  0  0  0  0  0
    4.6632   -0.9135   -0.0183 C   0  0  0  0  0  0  0  0  0  0  0  0
    4.4201   -1.7214   -1.3184 C   0  0  0  0  0  0  0  0  0  0  0  0
    3.8330   -1.5894    1.1036 C   0  0  0  0  0  0  0  0  0  0  0  0
    6.1749   -0.8977    0.3037 C   0  0  0  0  0  0  0  0  0  0  0  0
    6.6853   -1.2014    1.5902 C   0  0  0  0  0  0  0  0  0  0  0  0
    8.0577   -1.1520    1.8492 C   0  0  0  0  0  0  0  0  0  0  0  0
    8.9504   -0.7868    0.8429 C   0  0  0  0  0  0  0  0  0  0  0  0
   10.2806   -0.7404    1.0997 F   0  0  0  0  0  0  0  0  0  0  0  0
    8.4715   -0.4567   -0.4236 C   0  0  0  0  0  0  0  0  0  0  0  0
    7.1009   -0.5026   -0.6904 C   0  0  0  0  0  0  0  0  0  0  0  0
   -0.2375   -0.5523    0.0528 C   0  0  0  0  0  0  0  0  0  0  0  0
   -1.4594   -0.7563   -0.8026 C   0  0  0  0  0  0  0  0  0  0  0  0
   -1.3599   -0.5997   -2.0497 O   0  0  0  0  0  0  0  0  0  0  0  0
   -2.7015   -1.2285   -0.2466 N   0  0  0  0  0  0  0  0  0  0  0  0
   -3.3361   -2.4146   -0.8380 C   0  0  0  0  0  0  0  0  0  0  0  0
   -3.0574   -3.6289    0.0055 C   0  0  0  0  0  0  0  0  0  0  0  0
   -1.7678   -4.1869    0.0319 C   0  0  0  0  0  0  0  0  0  0  0  0
   -1.4996   -5.2985    0.8378 C   0  0  0  0  0  0  0  0  0  0  0  0
   -2.5130   -5.8574    1.6226 C   0  0  0  0  0  0  0  0  0  0  0  0
   -3.7968   -5.3052    1.6038 C   0  0  0  0  0  0  0  0  0  0  0  0
   -4.0689   -4.1919    0.8024 C   0  0  0  0  0  0  0  0  0  0  0  0
   -3.2270   -0.6583    1.0025 C   0  0  0  0  0  0  0  0  0  0  0  0
   -4.6834   -0.2820    0.8851 C   0  0  0  0  0  0  0  0  0  0  0  0
   -5.5341   -1.0009    1.4763 O   0  0  0  0  0  0  0  0  0  0  0  0
   -5.3349    3.0265    1.8197 H   0  0  0  0  0  0  0  0  0  0  0  0
   -5.8947    1.5499    2.6993 H   0  0  0  0  0  0  0  0  0  0  0  0
   -7.0876    2.8044    2.1984 H   0  0  0  0  0  0  0  0  0  0  0  0
   -6.6622    2.3329   -0.1830 H   0  0  0  0  0  0  0  0  0  0  0  0
   -7.1890    0.8418    0.6535 H   0  0  0  0  0  0  0  0  0  0  0  0
   -3.9532    0.4885   -1.5714 H   0  0  0  0  0  0  0  0  0  0  0  0
   -5.1411    1.7700   -1.7827 H   0  0  0  0  0  0  0  0  0  0  0  0
   -3.8580    3.4182   -0.7388 H   0  0  0  0  0  0  0  0  0  0  0  0
   -2.9921    2.2563    0.3131 H   0  0  0  0  0  0  0  0  0  0  0  0
   -1.7141    3.5067   -3.9174 H   0  0  0  0  0  0  0  0  0  0  0  0
   -0.0590    5.3016   -4.2820 H   0  0  0  0  0  0  0  0  0  0  0  0
    1.2689    6.1724   -2.3827 H   0  0  0  0  0  0  0  0  0  0  0  0
    0.9942    5.2114   -0.1322 H   0  0  0  0  0  0  0  0  0  0  0  0
   -0.7107    1.4468    1.8057 H   0  0  0  0  0  0  0  0  0  0  0  0
    0.2482    1.2427   -1.0741 H   0  0  0  0  0  0  0  0  0  0  0  0
    2.4977    0.4429   -1.5435 H   0  0  0  0  0  0  0  0  0  0  0  0
    4.3927    1.1385    0.7259 H   0  0  0  0  0  0  0  0  0  0  0  0
    4.7755    1.0478   -1.0074 H   0  0  0  0  0  0  0  0  0  0  0  0
    4.9098   -2.7171   -1.2507 H   0  0  0  0  0  0  0  0  0  0  0  0
    4.8126   -1.1924   -2.2115 H   0  0  0  0  0  0  0  0  0  0  0  0
    3.3352   -1.8891   -1.4932 H   0  0  0  0  0  0  0  0  0  0  0  0
    3.8540   -0.9853    2.0369 H   0  0  0  0  0  0  0  0  0  0  0  0
    2.7685   -1.7020    0.8068 H   0  0  0  0  0  0  0  0  0  0  0  0
    4.2228   -2.6094    1.3174 H   0  0  0  0  0  0  0  0  0  0  0  0
    6.0421   -1.4779    2.4111 H   0  0  0  0  0  0  0  0  0  0  0  0
    8.4279   -1.3952    2.8372 H   0  0  0  0  0  0  0  0  0  0  0  0
    9.1623   -0.1578   -1.2022 H   0  0  0  0  0  0  0  0  0  0  0  0
    6.7692   -0.2155   -1.6790 H   0  0  0  0  0  0  0  0  0  0  0  0
    0.5375   -1.2556   -0.3247 H   0  0  0  0  0  0  0  0  0  0  0  0
   -0.4397   -0.8417    1.1065 H   0  0  0  0  0  0  0  0  0  0  0  0
   -2.9525   -2.5965   -1.8656 H   0  0  0  0  0  0  0  0  0  0  0  0
   -4.4288   -2.2461   -0.9466 H   0  0  0  0  0  0  0  0  0  0  0  0
   -0.9732   -3.7602   -0.5678 H   0  0  0  0  0  0  0  0  0  0  0  0
   -0.5053   -5.7264    0.8560 H   0  0  0  0  0  0  0  0  0  0  0  0
   -2.3027   -6.7170    2.2463 H   0  0  0  0  0  0  0  0  0  0  0  0
   -4.5804   -5.7366    2.2130 H   0  0  0  0  0  0  0  0  0  0  0  0
   -5.0675   -3.7711    0.8022 H   0  0  0  0  0  0  0  0  0  0  0  0
   -2.6607    0.2426    1.2979 H   0  0  0  0  0  0  0  0  0  0  0  0
   -3.0943   -1.3972    1.8226 H   0  0  0  0  0  0  0  0  0  0  0  0
  1  2  1  0
  2  3  1  0
  3  4  1  0
  4  5  1  0
  5  6  1  0
  6  7  1  0
  7  8  2  0
  8  9  1  0
  9 10  2  0
 10 11  1  0
 11 12  2  0
 12 13  1  0
 13 14  2  0
 13 15  1  0
 15 16  1  0
 16 17  1  0
 17 18  2  0
 17 19  1  0
 19 20  1  0
 20 21  1  0
 21 22  1  0
 21 23  1  0
 21 24  1  0
 24 25  2  0
 25 26  1  0
 26 27  2  0
 27 28  1  0
 27 29  1  0
 29 30  2  0
 16 31  1  0
 31 32  1  0
 32 33  2  0
 32 34  1  0
 34 35  1  0
 35 36  1  0
 36 37  2  0
 37 38  1  0
 38 39  2  0
 39 40  1  0
 40 41  2  0
 34 42  1  0
 42 43  1  0
 43 44  2  0
 43  3  1  0
 12  7  1  0
 30 24  1  0
 41 36  1  0
  1 45  1  0
  1 46  1  0
  1 47  1  0
  2 48  1  0
  2 49  1  0
  4 50  1  0
  4 51  1  0
  5 52  1  0
  5 53  1  0
  8 54  1  0
  9 55  1  0
 10 56  1  0
 11 57  1  0
 15 58  1  0
 16 59  1  0
 19 60  1  0
 20 61  1  0
 20 62  1  0
 22 63  1  0
 22 64  1  0
 22 65  1  0
 23 66  1  0
 23 67  1  0
 23 68  1  0
 25 69  1  0
 26 70  1  0
 29 71  1  0
 30 72  1  0
 31 73  1  0
 31 74  1  0
 35 75  1  0
 35 76  1  0
 37 77  1  0
 38 78  1  0
 39 79  1  0
 40 80  1  0
 41 81  1  0
 42 82  1  0
 42 83  1  0
M  END
$$$$
