
     RDKit          3D

 69 72  0  0  0  0  0  0  0  0999 V2000
   -3.2535    0.2454   -3.5699 O   0  0  0  0  0  0  0  0  0  0  0  0
   -3.3662    0.5721   -2.3545 C   0  0  0  0  0  0  0  0  0  0  0  0
   -2.1903    0.8042   -1.5611 N   0  0  0  0  0  0  0  0  0  0  0  0
   -0.8375    0.7080   -2.1255 C   0  0  0  0  0  0  0  0  0  0  0  0
    0.2484    0.1705   -1.1259 C   0  0  0  0  0  0  0  0  0  0  0  0
    0.1435   -1.3898   -0.9314 C   0  0  0  0  0  0  0  0  0  0  0  0
   -1.1743   -1.9530   -0.3585 C   0  0  0  0  0  0  0  0  0  0  0  0
   -1.0652   -2.4237    1.1003 C   0  0  0  0  0  0  0  0  0  0  0  0
   -2.4588   -2.5791    1.7426 C   0  0  0  0  0  0  0  0  0  0  0  0
   -3.0312   -1.2453    2.2889 C   0  0  0  0  0  0  0  0  0  0  0  0
   -4.3505   -0.8282    1.6324 C   0  0  0  0  0  0  0  0  0  0  0  0
   -4.1261   -0.3676    0.2970 O   0  0  0  0  0  0  0  0  0  0  0  0
   -5.0852    0.2816   -0.5005 C   0  0  0  0  0  0  0  0  0  0  0  0
   -6.4052    0.4740   -0.0426 C   0  0  0  0  0  0  0  0  0  0  0  0
   -7.3494    1.1139   -0.8472 C   0  0  0  0  0  0  0  0  0  0  0  0
   -6.9956    1.5691   -2.1179 C   0  0  0  0  0  0  0  0  0  0  0  0
   -8.1789    2.3958   -3.1145 Cl  0  0  0  0  0  0  0  0  0  0  0  0
   -5.6923    1.3865   -2.5861 C   0  0  0  0  0  0  0  0  0  0  0  0
   -4.7262    0.7484   -1.7909 C   0  0  0  0  0  0  0  0  0  0  0  0
    0.1533    0.9258    0.2462 C   0  0  0  0  0  0  0  0  0  0  0  0
    1.4988    1.0468    0.9725 C   0  0  0  0  0  0  0  0  0  0  0  0
    2.4932    1.7170    0.1157 N   0  0  0  0  0  0  0  0  0  0  0  0
    3.6101    2.4261    0.6896 C   0  0  0  0  0  0  0  0  0  0  0  0
    4.1422    3.3740    0.0443 O   0  0  0  0  0  0  0  0  0  0  0  0
    4.2048    2.0407    2.0198 C   0  0  0  0  0  0  0  0  0  0  0  0
    5.6177    1.4630    1.8501 C   0  0  0  0  0  0  0  0  0  0  0  0
    5.5758    0.1179    1.2457 N   0  0  0  0  0  0  0  0  0  0  0  0
    5.3881   -0.9651    2.0650 C   0  0  0  0  0  0  0  0  0  0  0  0
    5.3721   -2.2637    1.5454 C   0  0  0  0  0  0  0  0  0  0  0  0
    5.5352   -2.4544    0.1756 C   0  0  0  0  0  0  0  0  0  0  0  0
    5.7091   -1.3507   -0.6574 C   0  0  0  0  0  0  0  0  0  0  0  0
    5.7234   -0.0606   -0.1092 C   0  0  0  0  0  0  0  0  0  0  0  0
    5.8895    0.9281   -0.8770 O   0  0  0  0  0  0  0  0  0  0  0  0
    2.2898    1.7510   -1.3400 C   0  0  0  0  0  0  0  0  0  0  0  0
    1.6462    0.4398   -1.7986 C   0  0  0  0  0  0  0  0  0  0  0  0
   -2.3246    1.2781   -0.6404 H   0  0  0  0  0  0  0  0  0  0  0  0
   -0.5504    1.7245   -2.4770 H   0  0  0  0  0  0  0  0  0  0  0  0
   -0.8413    0.0514   -3.0268 H   0  0  0  0  0  0  0  0  0  0  0  0
    0.3054   -1.8666   -1.9265 H   0  0  0  0  0  0  0  0  0  0  0  0
    0.9873   -1.7412   -0.2966 H   0  0  0  0  0  0  0  0  0  0  0  0
   -1.4841   -2.8214   -0.9755 H   0  0  0  0  0  0  0  0  0  0  0  0
   -1.9843   -1.2262   -0.4327 H   0  0  0  0  0  0  0  0  0  0  0  0
   -0.5514   -3.4105    1.1103 H   0  0  0  0  0  0  0  0  0  0  0  0
   -0.4431   -1.7362    1.7082 H   0  0  0  0  0  0  0  0  0  0  0  0
   -3.1534   -3.0527    1.0161 H   0  0  0  0  0  0  0  0  0  0  0  0
   -2.3622   -3.2948    2.5889 H   0  0  0  0  0  0  0  0  0  0  0  0
   -3.2154   -1.3600    3.3810 H   0  0  0  0  0  0  0  0  0  0  0  0
   -2.3086   -0.4077    2.1878 H   0  0  0  0  0  0  0  0  0  0  0  0
   -5.0628   -1.6840    1.6208 H   0  0  0  0  0  0  0  0  0  0  0  0
   -4.7938   -0.0161    2.2465 H   0  0  0  0  0  0  0  0  0  0  0  0
   -6.7158    0.1357    0.9349 H   0  0  0  0  0  0  0  0  0  0  0  0
   -8.3499    1.2746   -0.4698 H   0  0  0  0  0  0  0  0  0  0  0  0
   -5.4328    1.7553   -3.5719 H   0  0  0  0  0  0  0  0  0  0  0  0
   -0.5851    0.4528    0.9172 H   0  0  0  0  0  0  0  0  0  0  0  0
   -0.2013    1.9673    0.0765 H   0  0  0  0  0  0  0  0  0  0  0  0
    1.3273    1.6475    1.8955 H   0  0  0  0  0  0  0  0  0  0  0  0
    1.8761    0.0416    1.2663 H   0  0  0  0  0  0  0  0  0  0  0  0
    4.2647    2.9525    2.6528 H   0  0  0  0  0  0  0  0  0  0  0  0
    3.5793    1.3014    2.5614 H   0  0  0  0  0  0  0  0  0  0  0  0
    6.1010    1.4098    2.8543 H   0  0  0  0  0  0  0  0  0  0  0  0
    6.2498    2.1612    1.2509 H   0  0  0  0  0  0  0  0  0  0  0  0
    5.2638   -0.8289    3.1327 H   0  0  0  0  0  0  0  0  0  0  0  0
    5.2424   -3.1149    2.2022 H   0  0  0  0  0  0  0  0  0  0  0  0
    5.5240   -3.4537   -0.2409 H   0  0  0  0  0  0  0  0  0  0  0  0
    5.8328   -1.4974   -1.7242 H   0  0  0  0  0  0  0  0  0  0  0  0
    3.2616    1.8642   -1.8624 H   0  0  0  0  0  0  0  0  0  0  0  0
    1.6433    2.6107   -1.6060 H   0  0  0  0  0  0  0  0  0  0  0  0
    1.5741    0.4326   -2.9102 H   0  0  0  0  0  0  0  0  0  0  0  0
    2.3725   -0.3670   -1.5474 H   0  0  0  0  0  0  0  0  0  0  0  0
  1  2  2  0
  2  3  1  0
  3  4  1  0
  4  5  1  0
  5  6  1  0
  6  7  1  0
  7  8  1  0
  8  9  1  0
  9 10  1  0
 10 11  1  0
 11 12  1  0
 12 13  1  0
 13 14  2  0
 14 15  1  0
 15 16  2  0
 16 17  1  0
 16 18  1  0
 18 19  2  0
  5 20  1  0
 20 21  1  0
 21 22  1  0
 22 23  1  0
 23 24  2  0
 23 25  1  0
 25 26  1  0
 26 27  1  0
 27 28  1  0
 28 29  2  0
 29 30  1  0
 30 31  2  0
 31 32  1  0
 32 33  2  0
 22 34  1  0
 34 35  1  0
 19  2  1  0
 32 27  1  0
 35  5  1  0
 19 13  1  0
  3 36  1  0
  4 37  1  0
  4 38  1  0
  6 39  1  0
  6 40  1  0
  7 41  1  0
  7 42  1  0
  8 43  1  0
  8 44  1  0
  9 45  1  0
  9 46  1  0
 10 47  1  0
 10 48  1  0
 11 49  1  0
 11 50  1  0
 14 51  1  0
 15 52  1  0
 18 53  1  0
 20 54  1  0
 20 55  1  0
 21 56  1  0
 21 57  1  0
 25 58  1  0
 25 59  1  0
 26 60  1  0
 26 61  1  0
 28 62  1  0
 29 63  1  0
 30 64  1  0
 31 65  1  0
 34 66  1  0
 34 67  1  0
 35 68  1  0
 35 69  1  0
M  END
$$$$
