
     RDKit          3D

 65 68  0  0  0  0  0  0  0  0999 V2000
   -1.0000    0.6937    3.5094 C   0  0  0  0  0  0  0  0  0  0  0  0
   -1.5406    0.4654    2.1649 N   0  0  0  0  0  0  0  0  0  0  0  0
   -2.9277    0.8556    1.8726 C   0  0  0  0  0  0  0  0  0  0  0  0
   -3.8481   -0.3643    2.0208 C   0  0  0  0  0  0  0  0  0  0  0  0
   -5.1353   -0.1574    1.4389 O   0  0  0  0  0  0  0  0  0  0  0  0
   -5.3537    0.1395    0.0869 C   0  0  0  0  0  0  0  0  0  0  0  0
   -5.7960    1.4328   -0.2221 C   0  0  0  0  0  0  0  0  0  0  0  0
   -6.0714    1.7974   -1.5395 C   0  0  0  0  0  0  0  0  0  0  0  0
   -5.9305    0.8646   -2.5642 C   0  0  0  0  0  0  0  0  0  0  0  0
   -5.5062   -0.4333   -2.2755 C   0  0  0  0  0  0  0  0  0  0  0  0
   -5.1920   -0.8155   -0.9562 C   0  0  0  0  0  0  0  0  0  0  0  0
   -4.7584   -2.2479   -0.7084 C   0  0  0  0  0  0  0  0  0  0  0  0
   -3.4616   -2.6514   -1.4575 C   0  0  0  0  0  0  0  0  0  0  0  0
   -2.1444   -2.1792   -0.8090 C   0  0  0  0  0  0  0  0  0  0  0  0
   -1.8875   -0.6712   -1.0141 C   0  0  0  0  0  0  0  0  0  0  0  0
   -0.6737   -0.0724   -0.2473 C   0  0  0  0  0  0  0  0  0  0  0  0
    0.6278   -0.6772   -0.8531 C   0  0  0  0  0  0  0  0  0  0  0  0
    1.8005    0.0752   -0.4055 N   0  0  0  0  0  0  0  0  0  0  0  0
    3.0490   -0.6066   -0.1711 C   0  0  0  0  0  0  0  0  0  0  0  0
    3.0365   -1.7514    0.3582 O   0  0  0  0  0  0  0  0  0  0  0  0
    4.3398    0.0093   -0.5558 C   0  0  0  0  0  0  0  0  0  0  0  0
    5.5177   -0.5601   -0.2622 C   0  0  0  0  0  0  0  0  0  0  0  0
    6.8285    0.0164   -0.6501 C   0  0  0  0  0  0  0  0  0  0  0  0
    7.9455   -0.8345   -0.7167 C   0  0  0  0  0  0  0  0  0  0  0  0
    9.2015   -0.3321   -1.0697 C   0  0  0  0  0  0  0  0  0  0  0  0
    9.3591    1.0270   -1.3489 C   0  0  0  0  0  0  0  0  0  0  0  0
    8.2621    1.8873   -1.2691 C   0  0  0  0  0  0  0  0  0  0  0  0
    7.0028    1.3904   -0.9180 C   0  0  0  0  0  0  0  0  0  0  0  0
    1.7320    1.5307   -0.5205 C   0  0  0  0  0  0  0  0  0  0  0  0
    0.4089    2.0227    0.0602 C   0  0  0  0  0  0  0  0  0  0  0  0
   -0.7040    1.3343   -0.4906 O   0  0  0  0  0  0  0  0  0  0  0  0
   -0.7819   -0.3696    1.2583 C   0  0  0  0  0  0  0  0  0  0  0  0
   -0.1689   -1.3672    1.7304 O   0  0  0  0  0  0  0  0  0  0  0  0
   -0.8878   -0.2746    4.0409 H   0  0  0  0  0  0  0  0  0  0  0  0
   -1.6650    1.3448    4.1145 H   0  0  0  0  0  0  0  0  0  0  0  0
   -0.0077    1.1853    3.4375 H   0  0  0  0  0  0  0  0  0  0  0  0
   -2.9911    1.3155    0.8694 H   0  0  0  0  0  0  0  0  0  0  0  0
   -3.2733    1.6450    2.5742 H   0  0  0  0  0  0  0  0  0  0  0  0
   -3.9834   -0.5770    3.1019 H   0  0  0  0  0  0  0  0  0  0  0  0
   -3.3737   -1.2544    1.5888 H   0  0  0  0  0  0  0  0  0  0  0  0
   -5.9231    2.1613    0.5687 H   0  0  0  0  0  0  0  0  0  0  0  0
   -6.4062    2.8017   -1.7648 H   0  0  0  0  0  0  0  0  0  0  0  0
   -6.1602    1.1442   -3.5843 H   0  0  0  0  0  0  0  0  0  0  0  0
   -5.4324   -1.1462   -3.0870 H   0  0  0  0  0  0  0  0  0  0  0  0
   -5.5764   -2.9009   -1.0835 H   0  0  0  0  0  0  0  0  0  0  0  0
   -4.6796   -2.4901    0.3678 H   0  0  0  0  0  0  0  0  0  0  0  0
   -3.4317   -3.7628   -1.4811 H   0  0  0  0  0  0  0  0  0  0  0  0
   -3.4942   -2.3247   -2.5183 H   0  0  0  0  0  0  0  0  0  0  0  0
   -2.1342   -2.4666    0.2592 H   0  0  0  0  0  0  0  0  0  0  0  0
   -1.3155   -2.7395   -1.2917 H   0  0  0  0  0  0  0  0  0  0  0  0
   -1.7588   -0.4847   -2.1035 H   0  0  0  0  0  0  0  0  0  0  0  0
   -2.7826   -0.1044   -0.7393 H   0  0  0  0  0  0  0  0  0  0  0  0
    0.7202   -1.7524   -0.5884 H   0  0  0  0  0  0  0  0  0  0  0  0
    0.5915   -0.6219   -1.9635 H   0  0  0  0  0  0  0  0  0  0  0  0
    4.3120    0.9251   -1.1280 H   0  0  0  0  0  0  0  0  0  0  0  0
    5.5275   -1.5147    0.2513 H   0  0  0  0  0  0  0  0  0  0  0  0
    7.8436   -1.8920   -0.5040 H   0  0  0  0  0  0  0  0  0  0  0  0
   10.0535   -0.9975   -1.1255 H   0  0  0  0  0  0  0  0  0  0  0  0
   10.3326    1.4147   -1.6201 H   0  0  0  0  0  0  0  0  0  0  0  0
    8.3885    2.9430   -1.4726 H   0  0  0  0  0  0  0  0  0  0  0  0
    6.1820    2.0893   -0.8354 H   0  0  0  0  0  0  0  0  0  0  0  0
    1.8066    1.8213   -1.5907 H   0  0  0  0  0  0  0  0  0  0  0  0
    2.5593    2.0118    0.0449 H   0  0  0  0  0  0  0  0  0  0  0  0
    0.3022    3.1017   -0.1787 H   0  0  0  0  0  0  0  0  0  0  0  0
    0.4275    1.9485    1.1665 H   0  0  0  0  0  0  0  0  0  0  0  0
  1  2  1  0
  2  3  1  0
  3  4  1  0
  4  5  1  0
  5  6  1  0
  6  7  2  0
  7  8  1  0
  8  9  2  0
  9 10  1  0
 10 11  2  0
 11 12  1  0
 12 13  1  0
 13 14  1  0
 14 15  1  0
 15 16  1  0
 16 17  1  0
 17 18  1  0
 18 19  1  0
 19 20  2  0
 19 21  1  0
 21 22  2  0
 22 23  1  0
 23 24  2  0
 24 25  1  0
 25 26  2  0
 26 27  1  0
 27 28  2  0
 18 29  1  0
 29 30  1  0
 30 31  1  0
 16 32  1  0
 32 33  2  0
 32  2  1  0
 11  6  1  0
 31 16  1  0
 28 23  1  0
  1 34  1  0
  1 35  1  0
  1 36  1  0
  3 37  1  0
  3 38  1  0
  4 39  1  0
  4 40  1  0
  7 41  1  0
  8 42  1  0
  9 43  1  0
 10 44  1  0
 12 45  1  0
 12 46  1  0
 13 47  1  0
 13 48  1  0
 14 49  1  0
 14 50  1  0
 15 51  1  0
 15 52  1  0
 17 53  1  0
 17 54  1  0
 21 55  1  0
 22 56  1  0
 24 57  1  0
 25 58  1  0
 26 59  1  0
 27 60  1  0
 28 61  1  0
 29 62  1  0
 29 63  1  0
 30 64  1  0
 30 65  1  0
M  END
$$$$
