
     RDKit          3D

 76 78  0  0  0  0  0  0  0  0999 V2000
   -1.7356    3.4999    1.1892 C   0  0  0  0  0  0  0  0  0  0  0  0
   -3.0609    3.1187    0.5078 C   0  0  0  0  0  0  0  0  0  0  0  0
   -4.2183    3.3335    1.4957 C   0  0  0  0  0  0  0  0  0  0  0  0
   -3.0036    1.6584   -0.0294 C   0  0  0  0  0  0  0  0  0  0  0  0
   -1.9166    1.5354   -1.0149 N   0  0  0  0  0  0  0  0  0  0  0  0
   -1.1777    0.3286   -1.2841 C   0  0  0  0  0  0  0  0  0  0  0  0
   -0.3372    0.3210   -2.2221 O   0  0  0  0  0  0  0  0  0  0  0  0
   -1.3698   -0.9247   -0.4775 C   0  0  0  0  0  0  0  0  0  0  0  0
   -0.4888   -0.9191    0.7943 C   0  0  0  0  0  0  0  0  0  0  0  0
    0.9326   -1.2974    0.4686 C   0  0  0  0  0  0  0  0  0  0  0  0
    1.2447   -2.5141    0.3500 O   0  0  0  0  0  0  0  0  0  0  0  0
    1.9268   -0.2811    0.2798 N   0  0  0  0  0  0  0  0  0  0  0  0
    3.3474   -0.6172    0.1941 C   0  0  0  0  0  0  0  0  0  0  0  0
    4.1995    0.6429    0.0013 C   0  0  0  0  0  0  0  0  0  0  0  0
    5.6991    0.3054    0.0248 C   0  0  0  0  0  0  0  0  0  0  0  0
    6.5278    1.5271   -0.0835 N   0  0  0  0  0  0  0  0  0  0  0  0
    7.9409    1.2590    0.2825 C   0  0  0  0  0  0  0  0  0  0  0  0
    8.8203    1.0366   -0.9622 C   0  0  0  0  0  0  0  0  0  0  0  0
    8.8374    2.1400   -1.8585 O   0  0  0  0  0  0  0  0  0  0  0  0
    7.6691    2.9463   -1.7938 C   0  0  0  0  0  0  0  0  0  0  0  0
    6.4030    2.1559   -1.4225 C   0  0  0  0  0  0  0  0  0  0  0  0
   -0.9791   -1.7542    1.9093 N   0  0  0  0  0  0  0  0  0  0  0  0
   -1.9116   -2.8562    1.9097 C   0  0  0  0  0  0  0  0  0  0  0  0
   -2.2794   -3.3375    3.0154 O   0  0  0  0  0  0  0  0  0  0  0  0
   -2.4778   -3.4389    0.6849 C   0  0  0  0  0  0  0  0  0  0  0  0
   -1.6478   -4.2556   -0.1022 C   0  0  0  0  0  0  0  0  0  0  0  0
   -2.1592   -4.9248   -1.2152 C   0  0  0  0  0  0  0  0  0  0  0  0
   -3.5099   -4.8086   -1.5383 C   0  0  0  0  0  0  0  0  0  0  0  0
   -4.3511   -4.0181   -0.7539 C   0  0  0  0  0  0  0  0  0  0  0  0
   -3.8548   -3.3104    0.3498 C   0  0  0  0  0  0  0  0  0  0  0  0
   -4.7830   -2.5338    1.0736 O   0  0  0  0  0  0  0  0  0  0  0  0
   -4.5420   -1.2815    1.7248 C   0  0  0  0  0  0  0  0  0  0  0  0
   -5.3950   -0.1734    1.1024 C   0  0  0  0  0  0  0  0  0  0  0  0
   -5.0381    0.0776   -0.3049 N   0  0  0  0  0  0  0  0  0  0  0  0
   -5.6512   -0.7386   -1.3568 C   0  0  0  0  0  0  0  0  0  0  0  0
   -4.2974    1.2517   -0.7009 C   0  0  0  0  0  0  0  0  0  0  0  0
   -4.7062    1.9342   -1.6820 O   0  0  0  0  0  0  0  0  0  0  0  0
   -0.8907    3.4335    0.4722 H   0  0  0  0  0  0  0  0  0  0  0  0
   -1.5271    2.8245    2.0472 H   0  0  0  0  0  0  0  0  0  0  0  0
   -1.7786    4.5465    1.5597 H   0  0  0  0  0  0  0  0  0  0  0  0
   -3.2170    3.8127   -0.3483 H   0  0  0  0  0  0  0  0  0  0  0  0
   -4.2271    4.3861    1.8500 H   0  0  0  0  0  0  0  0  0  0  0  0
   -4.1094    2.6681    2.3775 H   0  0  0  0  0  0  0  0  0  0  0  0
   -5.1960    3.1444    1.0059 H   0  0  0  0  0  0  0  0  0  0  0  0
   -2.8023    1.0006    0.8381 H   0  0  0  0  0  0  0  0  0  0  0  0
   -1.7345    2.3485   -1.6479 H   0  0  0  0  0  0  0  0  0  0  0  0
   -1.1222   -1.7989   -1.1154 H   0  0  0  0  0  0  0  0  0  0  0  0
   -2.4394   -1.0014   -0.2369 H   0  0  0  0  0  0  0  0  0  0  0  0
   -0.4775    0.1244    1.1838 H   0  0  0  0  0  0  0  0  0  0  0  0
    1.6256    0.7198    0.2544 H   0  0  0  0  0  0  0  0  0  0  0  0
    3.5112   -1.3064   -0.6630 H   0  0  0  0  0  0  0  0  0  0  0  0
    3.6489   -1.1350    1.1313 H   0  0  0  0  0  0  0  0  0  0  0  0
    3.9816    1.3680    0.8173 H   0  0  0  0  0  0  0  0  0  0  0  0
    3.9236    1.1070   -0.9708 H   0  0  0  0  0  0  0  0  0  0  0  0
    5.9020   -0.1974    0.9970 H   0  0  0  0  0  0  0  0  0  0  0  0
    5.9483   -0.4166   -0.7863 H   0  0  0  0  0  0  0  0  0  0  0  0
    8.3332    2.1367    0.8393 H   0  0  0  0  0  0  0  0  0  0  0  0
    8.0439    0.3866    0.9650 H   0  0  0  0  0  0  0  0  0  0  0  0
    9.8623    0.8395   -0.6306 H   0  0  0  0  0  0  0  0  0  0  0  0
    8.4707    0.1316   -1.5041 H   0  0  0  0  0  0  0  0  0  0  0  0
    7.8287    3.7644   -1.0579 H   0  0  0  0  0  0  0  0  0  0  0  0
    7.5146    3.4224   -2.7851 H   0  0  0  0  0  0  0  0  0  0  0  0
    6.2241    1.3951   -2.2163 H   0  0  0  0  0  0  0  0  0  0  0  0
    5.5412    2.8576   -1.4154 H   0  0  0  0  0  0  0  0  0  0  0  0
   -0.5816   -1.5099    2.8467 H   0  0  0  0  0  0  0  0  0  0  0  0
   -0.6060   -4.3925    0.1565 H   0  0  0  0  0  0  0  0  0  0  0  0
   -1.5112   -5.5514   -1.8159 H   0  0  0  0  0  0  0  0  0  0  0  0
   -3.9083   -5.3388   -2.3941 H   0  0  0  0  0  0  0  0  0  0  0  0
   -5.3999   -3.9444   -1.0122 H   0  0  0  0  0  0  0  0  0  0  0  0
   -3.4902   -0.9689    1.6930 H   0  0  0  0  0  0  0  0  0  0  0  0
   -4.8200   -1.3854    2.7957 H   0  0  0  0  0  0  0  0  0  0  0  0
   -6.4692   -0.4540    1.1755 H   0  0  0  0  0  0  0  0  0  0  0  0
   -5.2735    0.7506    1.7009 H   0  0  0  0  0  0  0  0  0  0  0  0
   -4.8555   -1.1819   -1.9924 H   0  0  0  0  0  0  0  0  0  0  0  0
   -6.2615   -1.5605   -0.9269 H   0  0  0  0  0  0  0  0  0  0  0  0
   -6.3177   -0.1125   -1.9890 H   0  0  0  0  0  0  0  0  0  0  0  0
  1  2  1  0
  2  3  1  0
  2  4  1  0
  4  5  1  0
  5  6  1  0
  6  7  2  0
  6  8  1  0
  8  9  1  0
  9 10  1  0
 10 11  2  0
 10 12  1  0
 12 13  1  0
 13 14  1  0
 14 15  1  0
 15 16  1  0
 16 17  1  0
 17 18  1  0
 18 19  1  0
 19 20  1  0
 20 21  1  0
  9 22  1  0
 22 23  1  0
 23 24  2  0
 23 25  1  0
 25 26  2  0
 26 27  1  0
 27 28  2  0
 28 29  1  0
 29 30  2  0
 30 31  1  0
 31 32  1  0
 32 33  1  0
 33 34  1  0
 34 35  1  0
 34 36  1  0
 36 37  2  0
 36  4  1  0
 21 16  1  0
 30 25  1  0
  1 38  1  0
  1 39  1  0
  1 40  1  0
  2 41  1  0
  3 42  1  0
  3 43  1  0
  3 44  1  0
  4 45  1  0
  5 46  1  0
  8 47  1  0
  8 48  1  0
  9 49  1  0
 12 50  1  0
 13 51  1  0
 13 52  1  0
 14 53  1  0
 14 54  1  0
 15 55  1  0
 15 56  1  0
 17 57  1  0
 17 58  1  0
 18 59  1  0
 18 60  1  0
 20 61  1  0
 20 62  1  0
 21 63  1  0
 21 64  1  0
 22 65  1  0
 26 66  1  0
 27 67  1  0
 28 68  1  0
 29 69  1  0
 32 70  1  0
 32 71  1  0
 33 72  1  0
 33 73  1  0
 35 74  1  0
 35 75  1  0
 35 76  1  0
M  END
$$$$
