
     RDKit          3D

 78 81  0  0  0  0  0  0  0  0999 V2000
   -2.2630   -2.4285   -1.8686 C   0  0  0  0  0  0  0  0  0  0  0  0
   -2.6230   -1.1312   -1.1118 C   0  0  0  0  0  0  0  0  0  0  0  0
   -3.0422   -0.0243   -2.0936 C   0  0  0  0  0  0  0  0  0  0  0  0
   -3.6458   -1.3144   -0.0348 N   0  0  0  0  0  0  0  0  0  0  0  0
   -4.8481   -2.0507   -0.4983 C   0  0  0  0  0  0  0  0  0  0  0  0
   -6.0262   -1.8295    0.4162 C   0  0  0  0  0  0  0  0  0  0  0  0
   -6.2972   -2.7065    1.2799 O   0  0  0  0  0  0  0  0  0  0  0  0
   -6.8609   -0.6636    0.3336 N   0  0  0  0  0  0  0  0  0  0  0  0
   -6.6101    0.4740   -0.5537 C   0  0  0  0  0  0  0  0  0  0  0  0
   -7.2636    1.7606   -0.0042 C   0  0  0  0  0  0  0  0  0  0  0  0
   -6.2915    2.6662    0.7763 C   0  0  0  0  0  0  0  0  0  0  0  0
   -5.6326    1.9654    1.9861 C   0  0  0  0  0  0  0  0  0  0  0  0
   -4.1260    1.7617    1.7887 C   0  0  0  0  0  0  0  0  0  0  0  0
   -3.7096    0.5593    2.4206 O   0  0  0  0  0  0  0  0  0  0  0  0
   -2.3729    0.1542    2.4037 C   0  0  0  0  0  0  0  0  0  0  0  0
   -1.3734    0.9764    2.9460 C   0  0  0  0  0  0  0  0  0  0  0  0
   -0.0343    0.5819    2.8999 C   0  0  0  0  0  0  0  0  0  0  0  0
    0.3227   -0.6428    2.3132 C   0  0  0  0  0  0  0  0  0  0  0  0
    1.7699   -1.0558    2.2082 C   0  0  0  0  0  0  0  0  0  0  0  0
    2.2796   -1.0393    0.7538 C   0  0  0  0  0  0  0  0  0  0  0  0
    2.5596    0.3474    0.2310 C   0  0  0  0  0  0  0  0  0  0  0  0
    1.8169    1.3062    0.5712 O   0  0  0  0  0  0  0  0  0  0  0  0
    3.6616    0.5932   -0.6591 N   0  0  0  0  0  0  0  0  0  0  0  0
    4.4304    1.8356   -0.5081 C   0  0  0  0  0  0  0  0  0  0  0  0
    5.6562    1.8566   -1.4304 C   0  0  0  0  0  0  0  0  0  0  0  0
    6.3393    0.5482   -1.4074 N   0  0  0  0  0  0  0  0  0  0  0  0
    7.7827    0.4731   -1.2818 C   0  0  0  0  0  0  0  0  0  0  0  0
    8.4658   -0.7604   -1.3236 C   0  0  0  0  0  0  0  0  0  0  0  0
    9.8542   -0.7873   -1.1838 C   0  0  0  0  0  0  0  0  0  0  0  0
   10.5601    0.4004   -1.0037 C   0  0  0  0  0  0  0  0  0  0  0  0
    9.8625    1.6049   -0.9624 C   0  0  0  0  0  0  0  0  0  0  0  0
    8.5101    1.6127   -1.1001 N   0  0  0  0  0  0  0  0  0  0  0  0
    5.5379   -0.6780   -1.5870 C   0  0  0  0  0  0  0  0  0  0  0  0
    4.0434   -0.3712   -1.6987 C   0  0  0  0  0  0  0  0  0  0  0  0
   -0.6815   -1.4788    1.8003 C   0  0  0  0  0  0  0  0  0  0  0  0
   -2.0271   -1.0845    1.8335 C   0  0  0  0  0  0  0  0  0  0  0  0
   -3.0776   -1.9528    1.1813 C   0  0  0  0  0  0  0  0  0  0  0  0
   -3.1310   -2.8212   -2.4338 H   0  0  0  0  0  0  0  0  0  0  0  0
   -1.4474   -2.2242   -2.5934 H   0  0  0  0  0  0  0  0  0  0  0  0
   -1.8964   -3.2082   -1.1701 H   0  0  0  0  0  0  0  0  0  0  0  0
   -1.6752   -0.7611   -0.6667 H   0  0  0  0  0  0  0  0  0  0  0  0
   -2.1998    0.2051   -2.7815 H   0  0  0  0  0  0  0  0  0  0  0  0
   -3.9196   -0.3208   -2.7062 H   0  0  0  0  0  0  0  0  0  0  0  0
   -3.2849    0.9048   -1.5346 H   0  0  0  0  0  0  0  0  0  0  0  0
   -4.6371   -3.1410   -0.5552 H   0  0  0  0  0  0  0  0  0  0  0  0
   -5.1517   -1.7289   -1.5103 H   0  0  0  0  0  0  0  0  0  0  0  0
   -7.7820   -0.7130    0.8196 H   0  0  0  0  0  0  0  0  0  0  0  0
   -5.5254    0.6262   -0.7006 H   0  0  0  0  0  0  0  0  0  0  0  0
   -7.0550    0.2450   -1.5452 H   0  0  0  0  0  0  0  0  0  0  0  0
   -7.6780    2.3505   -0.8554 H   0  0  0  0  0  0  0  0  0  0  0  0
   -8.1318    1.5229    0.6543 H   0  0  0  0  0  0  0  0  0  0  0  0
   -6.8684    3.5414    1.1476 H   0  0  0  0  0  0  0  0  0  0  0  0
   -5.5323    3.0771    0.0768 H   0  0  0  0  0  0  0  0  0  0  0  0
   -5.7842    2.5863    2.8964 H   0  0  0  0  0  0  0  0  0  0  0  0
   -6.1248    0.9942    2.2049 H   0  0  0  0  0  0  0  0  0  0  0  0
   -3.8716    1.6831    0.7106 H   0  0  0  0  0  0  0  0  0  0  0  0
   -3.5769    2.6300    2.2119 H   0  0  0  0  0  0  0  0  0  0  0  0
   -1.6331    1.9232    3.4066 H   0  0  0  0  0  0  0  0  0  0  0  0
    0.7240    1.2368    3.3119 H   0  0  0  0  0  0  0  0  0  0  0  0
    2.4173   -0.4125    2.8411 H   0  0  0  0  0  0  0  0  0  0  0  0
    1.8647   -2.0894    2.6038 H   0  0  0  0  0  0  0  0  0  0  0  0
    3.2227   -1.6266    0.7272 H   0  0  0  0  0  0  0  0  0  0  0  0
    1.5590   -1.5423    0.0749 H   0  0  0  0  0  0  0  0  0  0  0  0
    4.7793    1.9180    0.5456 H   0  0  0  0  0  0  0  0  0  0  0  0
    3.7833    2.7123   -0.7296 H   0  0  0  0  0  0  0  0  0  0  0  0
    5.3366    2.0806   -2.4727 H   0  0  0  0  0  0  0  0  0  0  0  0
    6.3199    2.6829   -1.0989 H   0  0  0  0  0  0  0  0  0  0  0  0
    7.9460   -1.6999   -1.4505 H   0  0  0  0  0  0  0  0  0  0  0  0
   10.3823   -1.7318   -1.2061 H   0  0  0  0  0  0  0  0  0  0  0  0
   11.6363    0.3858   -0.8929 H   0  0  0  0  0  0  0  0  0  0  0  0
   10.3938    2.5358   -0.8229 H   0  0  0  0  0  0  0  0  0  0  0  0
    5.8625   -1.2057   -2.5087 H   0  0  0  0  0  0  0  0  0  0  0  0
    5.6933   -1.3488   -0.7137 H   0  0  0  0  0  0  0  0  0  0  0  0
    3.8331    0.0687   -2.6978 H   0  0  0  0  0  0  0  0  0  0  0  0
    3.4622   -1.3129   -1.6299 H   0  0  0  0  0  0  0  0  0  0  0  0
   -0.4079   -2.4253    1.3480 H   0  0  0  0  0  0  0  0  0  0  0  0
   -3.8742   -2.1112    1.9409 H   0  0  0  0  0  0  0  0  0  0  0  0
   -2.6743   -2.9646    0.9509 H   0  0  0  0  0  0  0  0  0  0  0  0
  1  2  1  0
  2  3  1  0
  2  4  1  0
  4  5  1  0
  5  6  1  0
  6  7  2  0
  6  8  1  0
  8  9  1  0
  9 10  1  0
 10 11  1  0
 11 12  1  0
 12 13  1  0
 13 14  1  0
 14 15  1  0
 15 16  2  0
 16 17  1  0
 17 18  2  0
 18 19  1  0
 19 20  1  0
 20 21  1  0
 21 22  2  0
 21 23  1  0
 23 24  1  0
 24 25  1  0
 25 26  1  0
 26 27  1  0
 27 28  2  0
 28 29  1  0
 29 30  2  0
 30 31  1  0
 31 32  2  0
 26 33  1  0
 33 34  1  0
 18 35  1  0
 35 36  2  0
 36 37  1  0
 37  4  1  0
 36 15  1  0
 34 23  1  0
 32 27  1  0
  1 38  1  0
  1 39  1  0
  1 40  1  0
  2 41  1  0
  3 42  1  0
  3 43  1  0
  3 44  1  0
  5 45  1  0
  5 46  1  0
  8 47  1  0
  9 48  1  0
  9 49  1  0
 10 50  1  0
 10 51  1  0
 11 52  1  0
 11 53  1  0
 12 54  1  0
 12 55  1  0
 13 56  1  0
 13 57  1  0
 16 58  1  0
 17 59  1  0
 19 60  1  0
 19 61  1  0
 20 62  1  0
 20 63  1  0
 24 64  1  0
 24 65  1  0
 25 66  1  0
 25 67  1  0
 28 68  1  0
 29 69  1  0
 30 70  1  0
 31 71  1  0
 33 72  1  0
 33 73  1  0
 34 74  1  0
 34 75  1  0
 35 76  1  0
 37 77  1  0
 37 78  1  0
M  END
$$$$
