
     RDKit          3D

 81 84  0  0  0  0  0  0  0  0999 V2000
    9.6131    1.9588   -1.8662 C   0  0  0  0  0  0  0  0  0  0  0  0
    8.9512    1.1958   -0.8650 O   0  0  0  0  0  0  0  0  0  0  0  0
    7.6438    1.4259   -0.4085 C   0  0  0  0  0  0  0  0  0  0  0  0
    6.8480    2.4296   -0.9873 C   0  0  0  0  0  0  0  0  0  0  0  0
    5.5413    2.6368   -0.5593 C   0  0  0  0  0  0  0  0  0  0  0  0
    4.9999    1.8618    0.4701 C   0  0  0  0  0  0  0  0  0  0  0  0
    3.5768    2.1088    0.9128 C   0  0  0  0  0  0  0  0  0  0  0  0
    2.6026    1.2060    0.1402 C   0  0  0  0  0  0  0  0  0  0  0  0
    1.2247    1.1815    0.7578 C   0  0  0  0  0  0  0  0  0  0  0  0
    0.8289    2.1702    1.4386 O   0  0  0  0  0  0  0  0  0  0  0  0
    0.3485    0.0499    0.5760 N   0  0  0  0  0  0  0  0  0  0  0  0
   -0.4904   -0.3629    1.7097 C   0  0  0  0  0  0  0  0  0  0  0  0
   -1.4236   -1.5219    1.3337 C   0  0  0  0  0  0  0  0  0  0  0  0
   -2.0442   -1.3346   -0.0795 C   0  0  0  0  0  0  0  0  0  0  0  0
   -2.7937    0.0427   -0.2020 C   0  0  0  0  0  0  0  0  0  0  0  0
   -3.8592    0.3320    0.8859 C   0  0  0  0  0  0  0  0  0  0  0  0
   -4.3967    1.7753    0.8301 C   0  0  0  0  0  0  0  0  0  0  0  0
   -5.3556    2.0529   -0.3356 C   0  0  0  0  0  0  0  0  0  0  0  0
   -6.6488    1.2800   -0.2079 C   0  0  0  0  0  0  0  0  0  0  0  0
   -7.6667    1.7607    0.6320 C   0  0  0  0  0  0  0  0  0  0  0  0
   -8.8533    1.0415    0.7880 C   0  0  0  0  0  0  0  0  0  0  0  0
   -9.0397   -0.1571    0.1017 C   0  0  0  0  0  0  0  0  0  0  0  0
   -8.0266   -0.6600   -0.7190 C   0  0  0  0  0  0  0  0  0  0  0  0
   -6.8189    0.0463   -0.8681 C   0  0  0  0  0  0  0  0  0  0  0  0
   -5.7603   -0.4502   -1.6388 O   0  0  0  0  0  0  0  0  0  0  0  0
   -5.6215   -1.8035   -2.0504 C   0  0  0  0  0  0  0  0  0  0  0  0
   -4.2246   -2.0178   -2.5403 C   0  0  0  0  0  0  0  0  0  0  0  0
   -3.8893   -1.5547   -3.6630 O   0  0  0  0  0  0  0  0  0  0  0  0
   -3.2764   -2.7869   -1.7836 N   0  0  0  0  0  0  0  0  0  0  0  0
   -2.6661   -3.9413   -2.4530 C   0  0  0  0  0  0  0  0  0  0  0  0
   -3.0235   -2.5332   -0.3485 C   0  0  0  0  0  0  0  0  0  0  0  0
   -0.8701   -1.3681   -1.1089 C   0  0  0  0  0  0  0  0  0  0  0  0
    0.4848   -0.8185   -0.6024 C   0  0  0  0  0  0  0  0  0  0  0  0
    5.7713    0.8426    1.0654 C   0  0  0  0  0  0  0  0  0  0  0  0
    5.1573    0.0894    2.0870 O   0  0  0  0  0  0  0  0  0  0  0  0
    5.8143   -0.7384    3.0420 C   0  0  0  0  0  0  0  0  0  0  0  0
    7.1073    0.6227    0.6307 C   0  0  0  0  0  0  0  0  0  0  0  0
    7.8501   -0.4079    1.2340 O   0  0  0  0  0  0  0  0  0  0  0  0
    9.2723   -0.4792    1.3143 C   0  0  0  0  0  0  0  0  0  0  0  0
    9.6865    3.0210   -1.5529 H   0  0  0  0  0  0  0  0  0  0  0  0
   10.6379    1.5574   -2.0031 H   0  0  0  0  0  0  0  0  0  0  0  0
    9.0713    1.8771   -2.8314 H   0  0  0  0  0  0  0  0  0  0  0  0
    7.2290    3.0525   -1.7860 H   0  0  0  0  0  0  0  0  0  0  0  0
    4.9505    3.4126   -1.0316 H   0  0  0  0  0  0  0  0  0  0  0  0
    3.4827    1.9294    2.0065 H   0  0  0  0  0  0  0  0  0  0  0  0
    3.3062    3.1746    0.7449 H   0  0  0  0  0  0  0  0  0  0  0  0
    2.9994    0.1676    0.1243 H   0  0  0  0  0  0  0  0  0  0  0  0
    2.5312    1.5641   -0.9091 H   0  0  0  0  0  0  0  0  0  0  0  0
    0.1607   -0.6744    2.5566 H   0  0  0  0  0  0  0  0  0  0  0  0
   -1.0991    0.4999    2.0532 H   0  0  0  0  0  0  0  0  0  0  0  0
   -2.2070   -1.6455    2.1113 H   0  0  0  0  0  0  0  0  0  0  0  0
   -0.8294   -2.4634    1.3477 H   0  0  0  0  0  0  0  0  0  0  0  0
   -3.2697    0.1091   -1.1980 H   0  0  0  0  0  0  0  0  0  0  0  0
   -2.0486    0.8679   -0.1834 H   0  0  0  0  0  0  0  0  0  0  0  0
   -4.6988   -0.3860    0.8274 H   0  0  0  0  0  0  0  0  0  0  0  0
   -3.4133    0.2132    1.8911 H   0  0  0  0  0  0  0  0  0  0  0  0
   -4.9256    1.9910    1.7840 H   0  0  0  0  0  0  0  0  0  0  0  0
   -3.5424    2.4834    0.7730 H   0  0  0  0  0  0  0  0  0  0  0  0
   -4.8560    1.8428   -1.3063 H   0  0  0  0  0  0  0  0  0  0  0  0
   -5.5895    3.1392   -0.3466 H   0  0  0  0  0  0  0  0  0  0  0  0
   -7.5338    2.6852    1.1758 H   0  0  0  0  0  0  0  0  0  0  0  0
   -9.6325    1.4189    1.4342 H   0  0  0  0  0  0  0  0  0  0  0  0
   -9.9640   -0.7095    0.2181 H   0  0  0  0  0  0  0  0  0  0  0  0
   -8.1914   -1.5983   -1.2358 H   0  0  0  0  0  0  0  0  0  0  0  0
   -5.8329   -2.4932   -1.2059 H   0  0  0  0  0  0  0  0  0  0  0  0
   -6.3362   -2.0195   -2.8697 H   0  0  0  0  0  0  0  0  0  0  0  0
   -2.0600   -3.6000   -3.3178 H   0  0  0  0  0  0  0  0  0  0  0  0
   -3.4630   -4.6239   -2.8169 H   0  0  0  0  0  0  0  0  0  0  0  0
   -2.0055   -4.5141   -1.7672 H   0  0  0  0  0  0  0  0  0  0  0  0
   -2.5932   -3.4566    0.1066 H   0  0  0  0  0  0  0  0  0  0  0  0
   -3.9834   -2.3952    0.1883 H   0  0  0  0  0  0  0  0  0  0  0  0
   -0.6692   -2.4153   -1.4197 H   0  0  0  0  0  0  0  0  0  0  0  0
   -1.1650   -0.8240   -2.0347 H   0  0  0  0  0  0  0  0  0  0  0  0
    1.1509   -1.6706   -0.3368 H   0  0  0  0  0  0  0  0  0  0  0  0
    0.9726   -0.2712   -1.4397 H   0  0  0  0  0  0  0  0  0  0  0  0
    6.6518   -0.1863    3.5190 H   0  0  0  0  0  0  0  0  0  0  0  0
    6.1724   -1.6717    2.5565 H   0  0  0  0  0  0  0  0  0  0  0  0
    5.0853   -1.0239    3.8306 H   0  0  0  0  0  0  0  0  0  0  0  0
    9.6994   -0.8140    0.3450 H   0  0  0  0  0  0  0  0  0  0  0  0
    9.5408   -1.2273    2.0863 H   0  0  0  0  0  0  0  0  0  0  0  0
    9.6936    0.5020    1.6193 H   0  0  0  0  0  0  0  0  0  0  0  0
  1  2  1  0
  2  3  1  0
  3  4  2  0
  4  5  1  0
  5  6  2  0
  6  7  1  0
  7  8  1  0
  8  9  1  0
  9 10  2  0
  9 11  1  0
 11 12  1  0
 12 13  1  0
 13 14  1  0
 14 15  1  0
 15 16  1  0
 16 17  1  0
 17 18  1  0
 18 19  1  0
 19 20  2  0
 20 21  1  0
 21 22  2  0
 22 23  1  0
 23 24  2  0
 24 25  1  0
 25 26  1  0
 26 27  1  0
 27 28  2  0
 27 29  1  0
 29 30  1  0
 29 31  1  0
 14 32  1  0
 32 33  1  0
  6 34  1  0
 34 35  1  0
 35 36  1  0
 34 37  2  0
 37 38  1  0
 38 39  1  0
 37  3  1  0
 33 11  1  0
 31 14  1  0
 24 19  1  0
  1 40  1  0
  1 41  1  0
  1 42  1  0
  4 43  1  0
  5 44  1  0
  7 45  1  0
  7 46  1  0
  8 47  1  0
  8 48  1  0
 12 49  1  0
 12 50  1  0
 13 51  1  0
 13 52  1  0
 15 53  1  0
 15 54  1  0
 16 55  1  0
 16 56  1  0
 17 57  1  0
 17 58  1  0
 18 59  1  0
 18 60  1  0
 20 61  1  0
 21 62  1  0
 22 63  1  0
 23 64  1  0
 26 65  1  0
 26 66  1  0
 30 67  1  0
 30 68  1  0
 30 69  1  0
 31 70  1  0
 31 71  1  0
 32 72  1  0
 32 73  1  0
 33 74  1  0
 33 75  1  0
 36 76  1  0
 36 77  1  0
 36 78  1  0
 39 79  1  0
 39 80  1  0
 39 81  1  0
M  END
$$$$
