
     RDKit          3D

 89 93  0  0  0  0  0  0  0  0999 V2000
    9.7025   -2.5525    3.3560 C   0  0  0  0  0  0  0  0  0  0  0  0
    9.7162   -1.4933    2.4020 O   0  0  0  0  0  0  0  0  0  0  0  0
    8.7769   -1.3420    1.3684 C   0  0  0  0  0  0  0  0  0  0  0  0
    8.9422   -0.2807    0.4699 C   0  0  0  0  0  0  0  0  0  0  0  0
    8.0397   -0.0911   -0.5819 C   0  0  0  0  0  0  0  0  0  0  0  0
    6.9613   -0.9660   -0.7599 C   0  0  0  0  0  0  0  0  0  0  0  0
    6.1067   -0.7530   -1.8513 O   0  0  0  0  0  0  0  0  0  0  0  0
    4.9994   -1.5813   -2.2022 C   0  0  0  0  0  0  0  0  0  0  0  0
    4.4896   -1.1951   -3.5925 C   0  0  0  0  0  0  0  0  0  0  0  0
    3.8982    0.2191   -3.6358 C   0  0  0  0  0  0  0  0  0  0  0  0
    2.5392    0.2389   -3.0987 N   0  0  0  0  0  0  0  0  0  0  0  0
    2.2054    0.8888   -1.8658 C   0  0  0  0  0  0  0  0  0  0  0  0
    3.1054    1.1242   -1.0109 O   0  0  0  0  0  0  0  0  0  0  0  0
    0.7674    1.2242   -1.5747 C   0  0  0  0  0  0  0  0  0  0  0  0
    0.6286    2.4623   -0.6603 C   0  0  0  0  0  0  0  0  0  0  0  0
   -0.8243    2.8403   -0.3235 C   0  0  0  0  0  0  0  0  0  0  0  0
   -1.6668    3.2452   -1.5059 C   0  0  0  0  0  0  0  0  0  0  0  0
   -1.1106    3.7404   -2.5245 O   0  0  0  0  0  0  0  0  0  0  0  0
   -3.1009    3.1707   -1.4712 N   0  0  0  0  0  0  0  0  0  0  0  0
   -3.8979    2.6806   -0.3396 C   0  0  0  0  0  0  0  0  0  0  0  0
   -3.7130    3.3473    1.0190 C   0  0  0  0  0  0  0  0  0  0  0  0
   -4.8700    3.7621    0.1299 C   0  0  0  0  0  0  0  0  0  0  0  0
   -4.5858    1.3456   -0.5138 C   0  0  0  0  0  0  0  0  0  0  0  0
   -5.0214    1.0430   -1.6565 O   0  0  0  0  0  0  0  0  0  0  0  0
   -4.7747    0.4245    0.5816 N   0  0  0  0  0  0  0  0  0  0  0  0
   -5.9555    0.5982    1.4357 C   0  0  0  0  0  0  0  0  0  0  0  0
   -4.0541   -0.8676    0.6250 C   0  0  0  0  0  0  0  0  0  0  0  0
   -4.4941   -1.8121   -0.5203 C   0  0  0  0  0  0  0  0  0  0  0  0
   -5.9774   -2.0987   -0.4948 C   0  0  0  0  0  0  0  0  0  0  0  0
   -6.5326   -2.8569    0.5503 C   0  0  0  0  0  0  0  0  0  0  0  0
   -7.9052   -3.1214    0.5819 C   0  0  0  0  0  0  0  0  0  0  0  0
   -8.7315   -2.6370   -0.4344 C   0  0  0  0  0  0  0  0  0  0  0  0
   -8.1894   -1.8921   -1.4842 C   0  0  0  0  0  0  0  0  0  0  0  0
   -6.8183   -1.6250   -1.5189 C   0  0  0  0  0  0  0  0  0  0  0  0
   -2.5381   -0.6563    0.5928 C   0  0  0  0  0  0  0  0  0  0  0  0
   -2.1320    0.1065    1.7248 O   0  0  0  0  0  0  0  0  0  0  0  0
   -0.8133    0.3660    2.1535 C   0  0  0  0  0  0  0  0  0  0  0  0
   -0.6876    1.0411    3.3773 C   0  0  0  0  0  0  0  0  0  0  0  0
    0.5640    1.3145    3.9274 C   0  0  0  0  0  0  0  0  0  0  0  0
    1.7184    0.9150    3.2624 C   0  0  0  0  0  0  0  0  0  0  0  0
    1.6275    0.2583    2.0350 C   0  0  0  0  0  0  0  0  0  0  0  0
    0.3765    0.0046    1.4481 C   0  0  0  0  0  0  0  0  0  0  0  0
    0.3816   -0.6635    0.1366 C   0  0  0  0  0  0  0  0  0  0  0  0
    0.6224   -1.8993    0.0889 O   0  0  0  0  0  0  0  0  0  0  0  0
    0.0652    0.0335   -1.0782 N   0  0  0  0  0  0  0  0  0  0  0  0
    6.7804   -2.0269    0.1500 C   0  0  0  0  0  0  0  0  0  0  0  0
    7.6817   -2.2148    1.2055 C   0  0  0  0  0  0  0  0  0  0  0  0
    8.7709   -2.5122    3.9593 H   0  0  0  0  0  0  0  0  0  0  0  0
    9.7867   -3.5363    2.8430 H   0  0  0  0  0  0  0  0  0  0  0  0
   10.5706   -2.4367    4.0364 H   0  0  0  0  0  0  0  0  0  0  0  0
    9.7827    0.3956    0.5853 H   0  0  0  0  0  0  0  0  0  0  0  0
    8.1897    0.7303   -1.2733 H   0  0  0  0  0  0  0  0  0  0  0  0
    5.3213   -2.6429   -2.2369 H   0  0  0  0  0  0  0  0  0  0  0  0
    4.1939   -1.4816   -1.4436 H   0  0  0  0  0  0  0  0  0  0  0  0
    3.7255   -1.9330   -3.9247 H   0  0  0  0  0  0  0  0  0  0  0  0
    5.3414   -1.2504   -4.3072 H   0  0  0  0  0  0  0  0  0  0  0  0
    3.8517    0.5471   -4.6961 H   0  0  0  0  0  0  0  0  0  0  0  0
    4.5522    0.9415   -3.1003 H   0  0  0  0  0  0  0  0  0  0  0  0
    1.7775   -0.2046   -3.6602 H   0  0  0  0  0  0  0  0  0  0  0  0
    0.3075    1.5021   -2.5485 H   0  0  0  0  0  0  0  0  0  0  0  0
    1.1706    2.3016    0.2927 H   0  0  0  0  0  0  0  0  0  0  0  0
    1.1242    3.3341   -1.1493 H   0  0  0  0  0  0  0  0  0  0  0  0
   -1.3160    2.0016    0.1881 H   0  0  0  0  0  0  0  0  0  0  0  0
   -0.7839    3.6955    0.3800 H   0  0  0  0  0  0  0  0  0  0  0  0
   -3.6216    3.4867   -2.3193 H   0  0  0  0  0  0  0  0  0  0  0  0
   -3.9963    2.7290    1.8927 H   0  0  0  0  0  0  0  0  0  0  0  0
   -2.9293    4.1318    1.0904 H   0  0  0  0  0  0  0  0  0  0  0  0
   -5.8634    3.4441    0.5094 H   0  0  0  0  0  0  0  0  0  0  0  0
   -4.7317    4.7671   -0.3224 H   0  0  0  0  0  0  0  0  0  0  0  0
   -6.8708    0.4000    0.8415 H   0  0  0  0  0  0  0  0  0  0  0  0
   -6.0107    1.6254    1.8401 H   0  0  0  0  0  0  0  0  0  0  0  0
   -5.9367   -0.0985    2.2988 H   0  0  0  0  0  0  0  0  0  0  0  0
   -4.2684   -1.3864    1.5862 H   0  0  0  0  0  0  0  0  0  0  0  0
   -3.9555   -2.7814   -0.4195 H   0  0  0  0  0  0  0  0  0  0  0  0
   -4.1915   -1.3914   -1.5041 H   0  0  0  0  0  0  0  0  0  0  0  0
   -5.9046   -3.2491    1.3387 H   0  0  0  0  0  0  0  0  0  0  0  0
   -8.3296   -3.7077    1.3869 H   0  0  0  0  0  0  0  0  0  0  0  0
   -9.7916   -2.8466   -0.4129 H   0  0  0  0  0  0  0  0  0  0  0  0
   -8.8309   -1.5210   -2.2730 H   0  0  0  0  0  0  0  0  0  0  0  0
   -6.4201   -1.0546   -2.3457 H   0  0  0  0  0  0  0  0  0  0  0  0
   -2.0385   -1.6483    0.6171 H   0  0  0  0  0  0  0  0  0  0  0  0
   -2.2852   -0.1176   -0.3398 H   0  0  0  0  0  0  0  0  0  0  0  0
   -1.5764    1.3470    3.9127 H   0  0  0  0  0  0  0  0  0  0  0  0
    0.6362    1.8366    4.8715 H   0  0  0  0  0  0  0  0  0  0  0  0
    2.6926    1.1187    3.6955 H   0  0  0  0  0  0  0  0  0  0  0  0
    2.5409   -0.0264    1.5242 H   0  0  0  0  0  0  0  0  0  0  0  0
   -0.4533   -0.5227   -1.7958 H   0  0  0  0  0  0  0  0  0  0  0  0
    5.9474   -2.7110    0.0522 H   0  0  0  0  0  0  0  0  0  0  0  0
    7.5204   -3.0437    1.8848 H   0  0  0  0  0  0  0  0  0  0  0  0
  1  2  1  0
  2  3  1  0
  3  4  2  0
  4  5  1  0
  5  6  2  0
  6  7  1  0
  7  8  1  0
  8  9  1  0
  9 10  1  0
 10 11  1  0
 11 12  1  0
 12 13  2  0
 12 14  1  0
 14 15  1  0
 15 16  1  0
 16 17  1  0
 17 18  2  0
 17 19  1  0
 19 20  1  0
 20 21  1  0
 21 22  1  0
 20 23  1  0
 23 24  2  0
 23 25  1  0
 25 26  1  0
 25 27  1  0
 27 28  1  0
 28 29  1  0
 29 30  2  0
 30 31  1  0
 31 32  2  0
 32 33  1  0
 33 34  2  0
 27 35  1  0
 35 36  1  0
 36 37  1  0
 37 38  2  0
 38 39  1  0
 39 40  2  0
 40 41  1  0
 41 42  2  0
 42 43  1  0
 43 44  2  0
 43 45  1  0
  6 46  1  0
 46 47  2  0
 47  3  1  0
 45 14  1  0
 22 20  1  0
 34 29  1  0
 42 37  1  0
  1 48  1  0
  1 49  1  0
  1 50  1  0
  4 51  1  0
  5 52  1  0
  8 53  1  0
  8 54  1  0
  9 55  1  0
  9 56  1  0
 10 57  1  0
 10 58  1  0
 11 59  1  0
 14 60  1  0
 15 61  1  0
 15 62  1  0
 16 63  1  0
 16 64  1  0
 19 65  1  0
 21 66  1  0
 21 67  1  0
 22 68  1  0
 22 69  1  0
 26 70  1  0
 26 71  1  0
 26 72  1  0
 27 73  1  0
 28 74  1  0
 28 75  1  0
 30 76  1  0
 31 77  1  0
 32 78  1  0
 33 79  1  0
 34 80  1  0
 35 81  1  0
 35 82  1  0
 38 83  1  0
 39 84  1  0
 40 85  1  0
 41 86  1  0
 45 87  1  0
 46 88  1  0
 47 89  1  0
M  END
$$$$
