
     RDKit          3D

 70 73  0  0  0  0  0  0  0  0999 V2000
   -0.8383   -2.8046   -1.6552 C   0  0  0  0  0  0  0  0  0  0  0  0
   -1.3232   -1.6579   -0.7727 C   0  0  0  0  0  0  0  0  0  0  0  0
   -1.1997   -0.3582   -1.4551 N   0  0  0  0  0  0  0  0  0  0  0  0
   -2.0114   -0.0441   -2.6449 C   0  0  0  0  0  0  0  0  0  0  0  0
   -3.5077   -0.2050   -2.3800 C   0  0  0  0  0  0  0  0  0  0  0  0
   -3.8832    0.6357   -1.2935 O   0  0  0  0  0  0  0  0  0  0  0  0
   -5.0091    0.4617   -0.4742 C   0  0  0  0  0  0  0  0  0  0  0  0
   -5.9614   -0.5494   -0.7148 C   0  0  0  0  0  0  0  0  0  0  0  0
   -7.0404   -0.7255    0.1550 C   0  0  0  0  0  0  0  0  0  0  0  0
   -7.1833    0.0991    1.2699 C   0  0  0  0  0  0  0  0  0  0  0  0
   -6.2620    1.1196    1.5073 C   0  0  0  0  0  0  0  0  0  0  0  0
   -5.1805    1.3213    0.6318 C   0  0  0  0  0  0  0  0  0  0  0  0
   -4.2241    2.4623    0.8915 C   0  0  0  0  0  0  0  0  0  0  0  0
   -3.0820    2.0720    1.8477 C   0  0  0  0  0  0  0  0  0  0  0  0
   -1.9495    1.2530    1.1969 C   0  0  0  0  0  0  0  0  0  0  0  0
   -1.1263    2.0871    0.1819 C   0  0  0  0  0  0  0  0  0  0  0  0
    0.2264    1.4829   -0.3082 C   0  0  0  0  0  0  0  0  0  0  0  0
    1.0699    0.9289    0.8890 C   0  0  0  0  0  0  0  0  0  0  0  0
    2.4980    0.9291    0.5466 N   0  0  0  0  0  0  0  0  0  0  0  0
    3.3409   -0.2041    0.8578 C   0  0  0  0  0  0  0  0  0  0  0  0
    2.8241   -1.2594    1.3224 O   0  0  0  0  0  0  0  0  0  0  0  0
    4.8403   -0.1279    0.6972 C   0  0  0  0  0  0  0  0  0  0  0  0
    5.4819   -1.4878    0.7027 C   0  0  0  0  0  0  0  0  0  0  0  0
    5.9406   -2.2086    1.7934 C   0  0  0  0  0  0  0  0  0  0  0  0
    5.9416   -1.7579    3.2175 C   0  0  0  0  0  0  0  0  0  0  0  0
    6.3648   -3.4235    1.3892 N   0  0  0  0  0  0  0  0  0  0  0  0
    6.1835   -3.4977    0.0795 N   0  0  0  0  0  0  0  0  0  0  0  0
    5.6411   -2.3490   -0.3663 C   0  0  0  0  0  0  0  0  0  0  0  0
    5.2592   -2.0883   -1.7884 C   0  0  0  0  0  0  0  0  0  0  0  0
    3.0527    2.1443   -0.0576 C   0  0  0  0  0  0  0  0  0  0  0  0
    1.9360    3.1519   -0.3334 C   0  0  0  0  0  0  0  0  0  0  0  0
    0.8868    2.5223   -1.0427 O   0  0  0  0  0  0  0  0  0  0  0  0
    0.0400    0.3482   -1.3045 C   0  0  0  0  0  0  0  0  0  0  0  0
    1.0223    0.0005   -2.0161 O   0  0  0  0  0  0  0  0  0  0  0  0
   -0.9142   -3.7602   -1.0956 H   0  0  0  0  0  0  0  0  0  0  0  0
   -1.4613   -2.8856   -2.5692 H   0  0  0  0  0  0  0  0  0  0  0  0
    0.2215   -2.6463   -1.9425 H   0  0  0  0  0  0  0  0  0  0  0  0
   -0.7239   -1.6579    0.1629 H   0  0  0  0  0  0  0  0  0  0  0  0
   -2.3728   -1.8388   -0.4652 H   0  0  0  0  0  0  0  0  0  0  0  0
   -1.7097   -0.6990   -3.4897 H   0  0  0  0  0  0  0  0  0  0  0  0
   -1.8314    1.0081   -2.9605 H   0  0  0  0  0  0  0  0  0  0  0  0
   -4.0827    0.0893   -3.2837 H   0  0  0  0  0  0  0  0  0  0  0  0
   -3.7203   -1.2706   -2.1635 H   0  0  0  0  0  0  0  0  0  0  0  0
   -5.8813   -1.2037   -1.5702 H   0  0  0  0  0  0  0  0  0  0  0  0
   -7.7646   -1.5075   -0.0338 H   0  0  0  0  0  0  0  0  0  0  0  0
   -8.0185   -0.0434    1.9437 H   0  0  0  0  0  0  0  0  0  0  0  0
   -6.3952    1.7606    2.3704 H   0  0  0  0  0  0  0  0  0  0  0  0
   -3.8363    2.8751   -0.0610 H   0  0  0  0  0  0  0  0  0  0  0  0
   -4.7892    3.2984    1.3580 H   0  0  0  0  0  0  0  0  0  0  0  0
   -3.5013    1.4923    2.6991 H   0  0  0  0  0  0  0  0  0  0  0  0
   -2.6486    2.9983    2.2835 H   0  0  0  0  0  0  0  0  0  0  0  0
   -1.2974    0.9076    2.0240 H   0  0  0  0  0  0  0  0  0  0  0  0
   -2.3734    0.3488    0.7272 H   0  0  0  0  0  0  0  0  0  0  0  0
   -1.7496    2.3123   -0.7072 H   0  0  0  0  0  0  0  0  0  0  0  0
   -0.8976    3.0663    0.6568 H   0  0  0  0  0  0  0  0  0  0  0  0
    0.7173   -0.0850    1.1748 H   0  0  0  0  0  0  0  0  0  0  0  0
    0.9370    1.5751    1.7844 H   0  0  0  0  0  0  0  0  0  0  0  0
    5.0991    0.3718   -0.2579 H   0  0  0  0  0  0  0  0  0  0  0  0
    5.2583    0.4857    1.5217 H   0  0  0  0  0  0  0  0  0  0  0  0
    4.9031   -1.5348    3.5384 H   0  0  0  0  0  0  0  0  0  0  0  0
    6.5605   -0.8420    3.3201 H   0  0  0  0  0  0  0  0  0  0  0  0
    6.3580   -2.5528    3.8721 H   0  0  0  0  0  0  0  0  0  0  0  0
    6.4187   -4.3366   -0.4972 H   0  0  0  0  0  0  0  0  0  0  0  0
    5.4785   -2.9766   -2.4173 H   0  0  0  0  0  0  0  0  0  0  0  0
    5.8347   -1.2220   -2.1760 H   0  0  0  0  0  0  0  0  0  0  0  0
    4.1733   -1.8651   -1.8487 H   0  0  0  0  0  0  0  0  0  0  0  0
    3.5325    1.8871   -1.0262 H   0  0  0  0  0  0  0  0  0  0  0  0
    3.8074    2.5974    0.6196 H   0  0  0  0  0  0  0  0  0  0  0  0
    2.3404    3.9785   -0.9542 H   0  0  0  0  0  0  0  0  0  0  0  0
    1.5614    3.6042    0.6116 H   0  0  0  0  0  0  0  0  0  0  0  0
  1  2  1  0
  2  3  1  0
  3  4  1  0
  4  5  1  0
  5  6  1  0
  6  7  1  0
  7  8  2  0
  8  9  1  0
  9 10  2  0
 10 11  1  0
 11 12  2  0
 12 13  1  0
 13 14  1  0
 14 15  1  0
 15 16  1  0
 16 17  1  0
 17 18  1  0
 18 19  1  0
 19 20  1  0
 20 21  2  0
 20 22  1  0
 22 23  1  0
 23 24  1  0
 24 25  1  0
 24 26  2  0
 26 27  1  0
 27 28  1  0
 28 29  1  0
 19 30  1  0
 30 31  1  0
 31 32  1  0
 17 33  1  0
 33 34  2  0
 33  3  1  0
 12  7  1  0
 32 17  1  0
 28 23  2  0
  1 35  1  0
  1 36  1  0
  1 37  1  0
  2 38  1  0
  2 39  1  0
  4 40  1  0
  4 41  1  0
  5 42  1  0
  5 43  1  0
  8 44  1  0
  9 45  1  0
 10 46  1  0
 11 47  1  0
 13 48  1  0
 13 49  1  0
 14 50  1  0
 14 51  1  0
 15 52  1  0
 15 53  1  0
 16 54  1  0
 16 55  1  0
 18 56  1  0
 18 57  1  0
 22 58  1  0
 22 59  1  0
 25 60  1  0
 25 61  1  0
 25 62  1  0
 27 63  1  0
 29 64  1  0
 29 65  1  0
 29 66  1  0
 30 67  1  0
 30 68  1  0
 31 69  1  0
 31 70  1  0
M  END
$$$$
