
     RDKit          3D

 70 73  0  0  0  0  0  0  0  0999 V2000
   -5.0212   -0.8847    2.2776 C   0  0  0  0  0  0  0  0  0  0  0  0
   -3.6851   -1.5022    1.7946 C   0  0  0  0  0  0  0  0  0  0  0  0
   -3.6280   -2.9408    2.3659 C   0  0  0  0  0  0  0  0  0  0  0  0
   -2.5034   -0.6255    2.3482 C   0  0  0  0  0  0  0  0  0  0  0  0
   -1.1178   -1.3041    2.5459 C   0  0  0  0  0  0  0  0  0  0  0  0
   -0.2570   -1.4975    1.2777 C   0  0  0  0  0  0  0  0  0  0  0  0
   -0.0970   -0.2626    0.4725 N   0  0  0  0  0  0  0  0  0  0  0  0
    0.6061    0.8478    1.1643 C   0  0  0  0  0  0  0  0  0  0  0  0
    2.1075    0.6925    1.2227 C   0  0  0  0  0  0  0  0  0  0  0  0
    2.6209   -0.3785    1.6474 O   0  0  0  0  0  0  0  0  0  0  0  0
    2.9505    1.7787    0.8150 N   0  0  0  0  0  0  0  0  0  0  0  0
    4.3925    1.6315    0.6404 C   0  0  0  0  0  0  0  0  0  0  0  0
    4.6938    0.8816   -0.6601 C   0  0  0  0  0  0  0  0  0  0  0  0
    6.1785    0.7869   -0.8864 C   0  0  0  0  0  0  0  0  0  0  0  0
    6.8906   -0.3522   -0.4745 C   0  0  0  0  0  0  0  0  0  0  0  0
    8.2766   -0.4174   -0.6535 C   0  0  0  0  0  0  0  0  0  0  0  0
    8.9617    0.6580   -1.2290 C   0  0  0  0  0  0  0  0  0  0  0  0
    8.2624    1.7998   -1.6283 C   0  0  0  0  0  0  0  0  0  0  0  0
    6.8759    1.8678   -1.4554 C   0  0  0  0  0  0  0  0  0  0  0  0
    0.4773   -0.5364   -0.8697 C   0  0  0  0  0  0  0  0  0  0  0  0
   -0.5998   -0.8347   -1.8883 C   0  0  0  0  0  0  0  0  0  0  0  0
   -0.3879   -1.8218   -2.8622 C   0  0  0  0  0  0  0  0  0  0  0  0
   -1.3531   -2.0603   -3.8406 C   0  0  0  0  0  0  0  0  0  0  0  0
   -2.5252   -1.3023   -3.8464 C   0  0  0  0  0  0  0  0  0  0  0  0
   -2.7151   -0.3371   -2.9095 N   0  0  0  0  0  0  0  0  0  0  0  0
   -1.7884   -0.0809   -1.9431 C   0  0  0  0  0  0  0  0  0  0  0  0
   -2.0175    0.9006   -0.9763 O   0  0  0  0  0  0  0  0  0  0  0  0
   -3.2543    1.4819   -0.6932 C   0  0  0  0  0  0  0  0  0  0  0  0
   -3.2878    2.8784   -0.5912 C   0  0  0  0  0  0  0  0  0  0  0  0
   -4.4931    3.5487   -0.3865 C   0  0  0  0  0  0  0  0  0  0  0  0
   -5.6813    2.8284   -0.2823 C   0  0  0  0  0  0  0  0  0  0  0  0
   -5.6591    1.4339   -0.3444 C   0  0  0  0  0  0  0  0  0  0  0  0
   -4.4498    0.7383   -0.4948 C   0  0  0  0  0  0  0  0  0  0  0  0
   -4.5225   -0.6656   -0.4456 O   0  0  0  0  0  0  0  0  0  0  0  0
   -3.6439   -1.5770    0.2326 C   0  0  0  0  0  0  0  0  0  0  0  0
   -5.1321   -0.9969    3.3797 H   0  0  0  0  0  0  0  0  0  0  0  0
   -5.8885   -1.3842    1.7897 H   0  0  0  0  0  0  0  0  0  0  0  0
   -5.0593    0.2036    2.0638 H   0  0  0  0  0  0  0  0  0  0  0  0
   -4.5534   -3.5026    2.1061 H   0  0  0  0  0  0  0  0  0  0  0  0
   -3.5357   -2.9235    3.4735 H   0  0  0  0  0  0  0  0  0  0  0  0
   -2.7763   -3.5104    1.9375 H   0  0  0  0  0  0  0  0  0  0  0  0
   -2.3890    0.2904    1.7319 H   0  0  0  0  0  0  0  0  0  0  0  0
   -2.7945   -0.2555    3.3578 H   0  0  0  0  0  0  0  0  0  0  0  0
   -0.5390   -0.6998    3.2744 H   0  0  0  0  0  0  0  0  0  0  0  0
   -1.2204   -2.2788    3.0623 H   0  0  0  0  0  0  0  0  0  0  0  0
   -0.7190   -2.2982    0.6630 H   0  0  0  0  0  0  0  0  0  0  0  0
    0.7318   -1.8972    1.5803 H   0  0  0  0  0  0  0  0  0  0  0  0
    0.3632    1.7860    0.6220 H   0  0  0  0  0  0  0  0  0  0  0  0
    0.2169    1.0118    2.1861 H   0  0  0  0  0  0  0  0  0  0  0  0
    2.5268    2.7200    0.6521 H   0  0  0  0  0  0  0  0  0  0  0  0
    4.8274    1.0948    1.5133 H   0  0  0  0  0  0  0  0  0  0  0  0
    4.8534    2.6436    0.5928 H   0  0  0  0  0  0  0  0  0  0  0  0
    4.2229    1.4189   -1.5110 H   0  0  0  0  0  0  0  0  0  0  0  0
    4.2463   -0.1341   -0.6230 H   0  0  0  0  0  0  0  0  0  0  0  0
    6.3750   -1.1864   -0.0132 H   0  0  0  0  0  0  0  0  0  0  0  0
    8.8224   -1.2975   -0.3393 H   0  0  0  0  0  0  0  0  0  0  0  0
   10.0337    0.6056   -1.3625 H   0  0  0  0  0  0  0  0  0  0  0  0
    8.7956    2.6344   -2.0670 H   0  0  0  0  0  0  0  0  0  0  0  0
    6.3450    2.7646   -1.7559 H   0  0  0  0  0  0  0  0  0  0  0  0
    1.0319    0.3468   -1.2597 H   0  0  0  0  0  0  0  0  0  0  0  0
    1.2116   -1.3711   -0.8149 H   0  0  0  0  0  0  0  0  0  0  0  0
    0.5276   -2.4008   -2.8693 H   0  0  0  0  0  0  0  0  0  0  0  0
   -1.1921   -2.8226   -4.5933 H   0  0  0  0  0  0  0  0  0  0  0  0
   -3.2812   -1.4760   -4.6008 H   0  0  0  0  0  0  0  0  0  0  0  0
   -2.3735    3.4493   -0.7038 H   0  0  0  0  0  0  0  0  0  0  0  0
   -4.5071    4.6295   -0.3250 H   0  0  0  0  0  0  0  0  0  0  0  0
   -6.6185    3.3497   -0.1376 H   0  0  0  0  0  0  0  0  0  0  0  0
   -6.5845    0.8834   -0.2317 H   0  0  0  0  0  0  0  0  0  0  0  0
   -2.6186   -1.4825   -0.1234 H   0  0  0  0  0  0  0  0  0  0  0  0
   -3.9546   -2.5924   -0.0981 H   0  0  0  0  0  0  0  0  0  0  0  0
  1  2  1  0
  2  3  1  0
  2  4  1  0
  4  5  1  0
  5  6  1  0
  6  7  1  0
  7  8  1  0
  8  9  1  0
  9 10  2  0
  9 11  1  0
 11 12  1  0
 12 13  1  0
 13 14  1  0
 14 15  2  0
 15 16  1  0
 16 17  2  0
 17 18  1  0
 18 19  2  0
  7 20  1  0
 20 21  1  0
 21 22  2  0
 22 23  1  0
 23 24  2  0
 24 25  1  0
 25 26  2  0
 26 27  1  0
 27 28  1  0
 28 29  2  0
 29 30  1  0
 30 31  2  0
 31 32  1  0
 32 33  2  0
 33 34  1  0
 34 35  1  0
 35  2  1  0
 19 14  1  0
 26 21  1  0
 33 28  1  0
  1 36  1  0
  1 37  1  0
  1 38  1  0
  3 39  1  0
  3 40  1  0
  3 41  1  0
  4 42  1  0
  4 43  1  0
  5 44  1  0
  5 45  1  0
  6 46  1  0
  6 47  1  0
  8 48  1  0
  8 49  1  0
 11 50  1  0
 12 51  1  0
 12 52  1  0
 13 53  1  0
 13 54  1  0
 15 55  1  0
 16 56  1  0
 17 57  1  0
 18 58  1  0
 19 59  1  0
 20 60  1  0
 20 61  1  0
 22 62  1  0
 23 63  1  0
 24 64  1  0
 29 65  1  0
 30 66  1  0
 31 67  1  0
 32 68  1  0
 35 69  1  0
 35 70  1  0
M  END
$$$$
