
     RDKit          3D

 74 77  0  0  0  0  0  0  0  0999 V2000
    6.9445    2.4194    4.3115 C   0  0  0  0  0  0  0  0  0  0  0  0
    8.0129    1.6705    3.7422 O   0  0  0  0  0  0  0  0  0  0  0  0
    7.8577    0.7055    2.7364 C   0  0  0  0  0  0  0  0  0  0  0  0
    9.0002    0.0449    2.2708 C   0  0  0  0  0  0  0  0  0  0  0  0
    8.9010   -0.9202    1.2657 C   0  0  0  0  0  0  0  0  0  0  0  0
    7.6563   -1.2401    0.7208 C   0  0  0  0  0  0  0  0  0  0  0  0
    6.4966   -0.6001    1.1851 C   0  0  0  0  0  0  0  0  0  0  0  0
    5.1589   -0.9290    0.5768 C   0  0  0  0  0  0  0  0  0  0  0  0
    4.8408    0.0185   -0.5854 C   0  0  0  0  0  0  0  0  0  0  0  0
    3.6899   -0.4713   -1.3421 N   0  0  0  0  0  0  0  0  0  0  0  0
    2.3513   -0.4479   -0.8258 C   0  0  0  0  0  0  0  0  0  0  0  0
    2.1031    0.1424    0.2608 O   0  0  0  0  0  0  0  0  0  0  0  0
    1.2633   -1.1988   -1.5575 C   0  0  0  0  0  0  0  0  0  0  0  0
   -0.0959   -0.6525   -1.3381 N   0  0  0  0  0  0  0  0  0  0  0  0
   -0.2334    0.7621   -1.7723 C   0  0  0  0  0  0  0  0  0  0  0  0
   -1.5133    0.9552   -2.6062 C   0  0  0  0  0  0  0  0  0  0  0  0
   -2.7336    1.2583   -1.7176 C   0  0  0  0  0  0  0  0  0  0  0  0
   -4.1395    1.0748   -2.3741 C   0  0  0  0  0  0  0  0  0  0  0  0
   -4.3664    2.1523   -3.4524 C   0  0  0  0  0  0  0  0  0  0  0  0
   -4.3029   -0.3261   -3.0118 C   0  0  0  0  0  0  0  0  0  0  0  0
   -5.2094    1.2391   -1.2647 C   0  0  0  0  0  0  0  0  0  0  0  0
   -4.9831    0.2667   -0.2445 O   0  0  0  0  0  0  0  0  0  0  0  0
   -5.1852    0.4986    1.1172 C   0  0  0  0  0  0  0  0  0  0  0  0
   -6.3122    1.2051    1.5705 C   0  0  0  0  0  0  0  0  0  0  0  0
   -6.4813    1.4584    2.9339 C   0  0  0  0  0  0  0  0  0  0  0  0
   -5.5238    1.0173    3.8511 C   0  0  0  0  0  0  0  0  0  0  0  0
   -4.3953    0.3215    3.4068 C   0  0  0  0  0  0  0  0  0  0  0  0
   -4.2222    0.0470    2.0446 C   0  0  0  0  0  0  0  0  0  0  0  0
   -3.0489   -0.6022    1.6296 O   0  0  0  0  0  0  0  0  0  0  0  0
   -3.0191   -1.6351    0.6835 C   0  0  0  0  0  0  0  0  0  0  0  0
   -4.1019   -2.4504    0.5400 N   0  0  0  0  0  0  0  0  0  0  0  0
   -4.1150   -3.4882   -0.3366 C   0  0  0  0  0  0  0  0  0  0  0  0
   -2.9930   -3.7547   -1.1164 C   0  0  0  0  0  0  0  0  0  0  0  0
   -1.8686   -2.9388   -0.9974 C   0  0  0  0  0  0  0  0  0  0  0  0
   -1.8697   -1.8489   -0.1096 C   0  0  0  0  0  0  0  0  0  0  0  0
   -0.6434   -0.9665    0.0087 C   0  0  0  0  0  0  0  0  0  0  0  0
    6.6020    0.3825    2.1840 C   0  0  0  0  0  0  0  0  0  0  0  0
    7.3527    3.1037    5.0824 H   0  0  0  0  0  0  0  0  0  0  0  0
    6.2129    1.7361    4.7926 H   0  0  0  0  0  0  0  0  0  0  0  0
    6.4457    3.0271    3.5282 H   0  0  0  0  0  0  0  0  0  0  0  0
    9.9697    0.2836    2.6899 H   0  0  0  0  0  0  0  0  0  0  0  0
    9.7909   -1.4208    0.9079 H   0  0  0  0  0  0  0  0  0  0  0  0
    7.5963   -1.9861   -0.0624 H   0  0  0  0  0  0  0  0  0  0  0  0
    4.3645   -0.8573    1.3519 H   0  0  0  0  0  0  0  0  0  0  0  0
    5.1609   -1.9794    0.2094 H   0  0  0  0  0  0  0  0  0  0  0  0
    4.6376    1.0438   -0.2066 H   0  0  0  0  0  0  0  0  0  0  0  0
    5.7181    0.0724   -1.2679 H   0  0  0  0  0  0  0  0  0  0  0  0
    3.8575   -0.8685   -2.2943 H   0  0  0  0  0  0  0  0  0  0  0  0
    1.3001   -2.2666   -1.2505 H   0  0  0  0  0  0  0  0  0  0  0  0
    1.4800   -1.1844   -2.6483 H   0  0  0  0  0  0  0  0  0  0  0  0
    0.6170    1.0515   -2.4309 H   0  0  0  0  0  0  0  0  0  0  0  0
   -0.1995    1.4693   -0.9143 H   0  0  0  0  0  0  0  0  0  0  0  0
   -1.3658    1.8091   -3.3009 H   0  0  0  0  0  0  0  0  0  0  0  0
   -1.6591    0.0460   -3.2225 H   0  0  0  0  0  0  0  0  0  0  0  0
   -2.6394    2.3010   -1.3385 H   0  0  0  0  0  0  0  0  0  0  0  0
   -2.6737    0.6142   -0.8277 H   0  0  0  0  0  0  0  0  0  0  0  0
   -5.3792    2.0464   -3.9019 H   0  0  0  0  0  0  0  0  0  0  0  0
   -4.2842    3.1728   -3.0160 H   0  0  0  0  0  0  0  0  0  0  0  0
   -3.6179    2.0570   -4.2689 H   0  0  0  0  0  0  0  0  0  0  0  0
   -3.9945   -1.1198   -2.3006 H   0  0  0  0  0  0  0  0  0  0  0  0
   -5.3621   -0.5060   -3.3001 H   0  0  0  0  0  0  0  0  0  0  0  0
   -3.7014   -0.4242   -3.9399 H   0  0  0  0  0  0  0  0  0  0  0  0
   -5.1377    2.2649   -0.8341 H   0  0  0  0  0  0  0  0  0  0  0  0
   -6.2353    1.1102   -1.6714 H   0  0  0  0  0  0  0  0  0  0  0  0
   -7.0568    1.5549    0.8675 H   0  0  0  0  0  0  0  0  0  0  0  0
   -7.3523    1.9994    3.2802 H   0  0  0  0  0  0  0  0  0  0  0  0
   -5.6537    1.2185    4.9072 H   0  0  0  0  0  0  0  0  0  0  0  0
   -3.6528   -0.0070    4.1224 H   0  0  0  0  0  0  0  0  0  0  0  0
   -4.9945   -4.1124   -0.4187 H   0  0  0  0  0  0  0  0  0  0  0  0
   -2.9911   -4.5896   -1.8050 H   0  0  0  0  0  0  0  0  0  0  0  0
   -1.0006   -3.1562   -1.6042 H   0  0  0  0  0  0  0  0  0  0  0  0
    0.0942   -1.5185    0.6326 H   0  0  0  0  0  0  0  0  0  0  0  0
   -0.8743   -0.0409    0.5761 H   0  0  0  0  0  0  0  0  0  0  0  0
    5.7065    0.8867    2.5213 H   0  0  0  0  0  0  0  0  0  0  0  0
  1  2  1  0
  2  3  1  0
  3  4  2  0
  4  5  1  0
  5  6  2  0
  6  7  1  0
  7  8  1  0
  8  9  1  0
  9 10  1  0
 10 11  1  0
 11 12  2  0
 11 13  1  0
 13 14  1  0
 14 15  1  0
 15 16  1  0
 16 17  1  0
 17 18  1  0
 18 19  1  0
 18 20  1  0
 18 21  1  0
 21 22  1  0
 22 23  1  0
 23 24  2  0
 24 25  1  0
 25 26  2  0
 26 27  1  0
 27 28  2  0
 28 29  1  0
 29 30  1  0
 30 31  2  0
 31 32  1  0
 32 33  2  0
 33 34  1  0
 34 35  2  0
 35 36  1  0
  7 37  2  0
 37  3  1  0
 36 14  1  0
 28 23  1  0
 35 30  1  0
  1 38  1  0
  1 39  1  0
  1 40  1  0
  4 41  1  0
  5 42  1  0
  6 43  1  0
  8 44  1  0
  8 45  1  0
  9 46  1  0
  9 47  1  0
 10 48  1  0
 13 49  1  0
 13 50  1  0
 15 51  1  0
 15 52  1  0
 16 53  1  0
 16 54  1  0
 17 55  1  0
 17 56  1  0
 19 57  1  0
 19 58  1  0
 19 59  1  0
 20 60  1  0
 20 61  1  0
 20 62  1  0
 21 63  1  0
 21 64  1  0
 24 65  1  0
 25 66  1  0
 26 67  1  0
 27 68  1  0
 32 69  1  0
 33 70  1  0
 34 71  1  0
 36 72  1  0
 36 73  1  0
 37 74  1  0
M  END
$$$$
