
     RDKit          3D

 83 86  0  0  0  0  0  0  0  0999 V2000
   12.1206   -0.6250   -0.5577 C   0  0  0  0  0  0  0  0  0  0  0  0
   11.6102    0.6563   -0.2025 O   0  0  0  0  0  0  0  0  0  0  0  0
   10.2463    0.9788   -0.1549 C   0  0  0  0  0  0  0  0  0  0  0  0
    9.2417    0.0640   -0.5206 C   0  0  0  0  0  0  0  0  0  0  0  0
    7.8940    0.4273   -0.4418 C   0  0  0  0  0  0  0  0  0  0  0  0
    7.5295    1.7090    0.0085 C   0  0  0  0  0  0  0  0  0  0  0  0
    6.1928    2.1131    0.1317 O   0  0  0  0  0  0  0  0  0  0  0  0
    5.0683    1.2828   -0.1423 C   0  0  0  0  0  0  0  0  0  0  0  0
    3.7915    2.0467    0.1902 C   0  0  0  0  0  0  0  0  0  0  0  0
    2.6054    1.2210   -0.0364 N   0  0  0  0  0  0  0  0  0  0  0  0
    1.3037    1.6720    0.3606 C   0  0  0  0  0  0  0  0  0  0  0  0
    1.1635    2.8259    0.8543 O   0  0  0  0  0  0  0  0  0  0  0  0
    0.1103    0.7581    0.2191 C   0  0  0  0  0  0  0  0  0  0  0  0
    0.1855   -0.3820    1.2612 C   0  0  0  0  0  0  0  0  0  0  0  0
   -0.7213   -1.5417    0.9179 C   0  0  0  0  0  0  0  0  0  0  0  0
   -0.4876   -2.2040   -0.1253 O   0  0  0  0  0  0  0  0  0  0  0  0
   -1.8199   -1.9440    1.7576 N   0  0  0  0  0  0  0  0  0  0  0  0
   -2.5685   -1.0251    2.6206 C   0  0  0  0  0  0  0  0  0  0  0  0
   -2.1349   -1.2398    4.0947 C   0  0  0  0  0  0  0  0  0  0  0  0
   -2.6426   -2.5614    4.6883 C   0  0  0  0  0  0  0  0  0  0  0  0
   -2.5752   -0.1618    4.8788 O   0  0  0  0  0  0  0  0  0  0  0  0
   -4.0789   -1.1351    2.4180 C   0  0  0  0  0  0  0  0  0  0  0  0
   -4.8288   -0.6168    3.2907 O   0  0  0  0  0  0  0  0  0  0  0  0
   -4.7149   -1.7643    1.2823 N   0  0  0  0  0  0  0  0  0  0  0  0
   -4.2133   -1.8316   -0.1052 C   0  0  0  0  0  0  0  0  0  0  0  0
   -5.2947   -2.3931   -1.0667 C   0  0  0  0  0  0  0  0  0  0  0  0
   -6.5102   -1.5067   -1.2087 C   0  0  0  0  0  0  0  0  0  0  0  0
   -7.6344   -1.7009   -0.3885 C   0  0  0  0  0  0  0  0  0  0  0  0
   -8.7425   -0.8571   -0.4961 C   0  0  0  0  0  0  0  0  0  0  0  0
   -8.7466    0.1770   -1.4364 C   0  0  0  0  0  0  0  0  0  0  0  0
   -7.6453    0.3620   -2.2748 C   0  0  0  0  0  0  0  0  0  0  0  0
   -6.5330   -0.4786   -2.1670 C   0  0  0  0  0  0  0  0  0  0  0  0
   -3.6591   -0.4788   -0.5854 C   0  0  0  0  0  0  0  0  0  0  0  0
   -3.0384   -0.6452   -1.8576 O   0  0  0  0  0  0  0  0  0  0  0  0
   -2.2579    0.2814   -2.5752 C   0  0  0  0  0  0  0  0  0  0  0  0
   -1.9511   -0.0772   -3.8959 C   0  0  0  0  0  0  0  0  0  0  0  0
   -1.1809    0.7564   -4.7091 C   0  0  0  0  0  0  0  0  0  0  0  0
   -0.7050    1.9682   -4.2137 C   0  0  0  0  0  0  0  0  0  0  0  0
   -0.9941    2.3478   -2.9032 C   0  0  0  0  0  0  0  0  0  0  0  0
   -1.7577    1.5181   -2.0687 C   0  0  0  0  0  0  0  0  0  0  0  0
   -1.9621    1.9792   -0.6892 C   0  0  0  0  0  0  0  0  0  0  0  0
   -2.8812    2.8076   -0.4582 O   0  0  0  0  0  0  0  0  0  0  0  0
   -1.1281    1.5307    0.3922 N   0  0  0  0  0  0  0  0  0  0  0  0
    8.5329    2.6193    0.3519 C   0  0  0  0  0  0  0  0  0  0  0  0
    9.8798    2.2569    0.2732 C   0  0  0  0  0  0  0  0  0  0  0  0
   13.2268   -0.6065   -0.4857 H   0  0  0  0  0  0  0  0  0  0  0  0
   11.8352   -0.8673   -1.6029 H   0  0  0  0  0  0  0  0  0  0  0  0
   11.7310   -1.3982    0.1382 H   0  0  0  0  0  0  0  0  0  0  0  0
    9.4919   -0.9306   -0.8628 H   0  0  0  0  0  0  0  0  0  0  0  0
    7.1438   -0.2958   -0.7271 H   0  0  0  0  0  0  0  0  0  0  0  0
    5.0662    1.0006   -1.2165 H   0  0  0  0  0  0  0  0  0  0  0  0
    5.1200    0.3619    0.4827 H   0  0  0  0  0  0  0  0  0  0  0  0
    3.8282    2.3493    1.2610 H   0  0  0  0  0  0  0  0  0  0  0  0
    3.7297    2.9613   -0.4418 H   0  0  0  0  0  0  0  0  0  0  0  0
    2.7004    0.2691   -0.4588 H   0  0  0  0  0  0  0  0  0  0  0  0
    0.1523    0.3116   -0.7967 H   0  0  0  0  0  0  0  0  0  0  0  0
   -0.0211    0.0132    2.2767 H   0  0  0  0  0  0  0  0  0  0  0  0
    1.2217   -0.7813    1.2988 H   0  0  0  0  0  0  0  0  0  0  0  0
   -2.1090   -2.9479    1.7291 H   0  0  0  0  0  0  0  0  0  0  0  0
   -2.3096    0.0191    2.3572 H   0  0  0  0  0  0  0  0  0  0  0  0
   -1.0213   -1.2654    4.1197 H   0  0  0  0  0  0  0  0  0  0  0  0
   -2.3471   -3.4243    4.0561 H   0  0  0  0  0  0  0  0  0  0  0  0
   -2.2024   -2.7076    5.6984 H   0  0  0  0  0  0  0  0  0  0  0  0
   -3.7467   -2.5489    4.7968 H   0  0  0  0  0  0  0  0  0  0  0  0
   -2.0640   -0.1955    5.7303 H   0  0  0  0  0  0  0  0  0  0  0  0
   -5.6800   -2.1155    1.4685 H   0  0  0  0  0  0  0  0  0  0  0  0
   -3.3824   -2.5642   -0.1393 H   0  0  0  0  0  0  0  0  0  0  0  0
   -5.6055   -3.3973   -0.7104 H   0  0  0  0  0  0  0  0  0  0  0  0
   -4.8454   -2.5595   -2.0694 H   0  0  0  0  0  0  0  0  0  0  0  0
   -7.6605   -2.5080    0.3313 H   0  0  0  0  0  0  0  0  0  0  0  0
   -9.5998   -1.0067    0.1467 H   0  0  0  0  0  0  0  0  0  0  0  0
   -9.6074    0.8292   -1.5194 H   0  0  0  0  0  0  0  0  0  0  0  0
   -7.6500    1.1589   -3.0079 H   0  0  0  0  0  0  0  0  0  0  0  0
   -5.6879   -0.3239   -2.8254 H   0  0  0  0  0  0  0  0  0  0  0  0
   -4.4532    0.2908   -0.6324 H   0  0  0  0  0  0  0  0  0  0  0  0
   -2.9147   -0.1574    0.1390 H   0  0  0  0  0  0  0  0  0  0  0  0
   -2.3194   -1.0163   -4.2967 H   0  0  0  0  0  0  0  0  0  0  0  0
   -0.9578    0.4622   -5.7259 H   0  0  0  0  0  0  0  0  0  0  0  0
   -0.1022    2.6131   -4.8462 H   0  0  0  0  0  0  0  0  0  0  0  0
   -0.6059    3.2900   -2.5328 H   0  0  0  0  0  0  0  0  0  0  0  0
   -1.3312    1.9182    1.3433 H   0  0  0  0  0  0  0  0  0  0  0  0
    8.2650    3.6102    0.6944 H   0  0  0  0  0  0  0  0  0  0  0  0
   10.6442    2.9698    0.5525 H   0  0  0  0  0  0  0  0  0  0  0  0
  1  2  1  0
  2  3  1  0
  3  4  2  0
  4  5  1  0
  5  6  2  0
  6  7  1  0
  7  8  1  0
  8  9  1  0
  9 10  1  0
 10 11  1  0
 11 12  2  0
 11 13  1  0
 13 14  1  0
 14 15  1  0
 15 16  2  0
 15 17  1  0
 17 18  1  0
 18 19  1  0
 19 20  1  0
 19 21  1  0
 18 22  1  0
 22 23  2  0
 22 24  1  0
 24 25  1  0
 25 26  1  0
 26 27  1  0
 27 28  2  0
 28 29  1  0
 29 30  2  0
 30 31  1  0
 31 32  2  0
 25 33  1  0
 33 34  1  0
 34 35  1  0
 35 36  2  0
 36 37  1  0
 37 38  2  0
 38 39  1  0
 39 40  2  0
 40 41  1  0
 41 42  2  0
 41 43  1  0
  6 44  1  0
 44 45  2  0
 45  3  1  0
 43 13  1  0
 32 27  1  0
 40 35  1  0
  1 46  1  0
  1 47  1  0
  1 48  1  0
  4 49  1  0
  5 50  1  0
  8 51  1  0
  8 52  1  0
  9 53  1  0
  9 54  1  0
 10 55  1  0
 13 56  1  0
 14 57  1  0
 14 58  1  0
 17 59  1  0
 18 60  1  0
 19 61  1  0
 20 62  1  0
 20 63  1  0
 20 64  1  0
 21 65  1  0
 24 66  1  0
 25 67  1  0
 26 68  1  0
 26 69  1  0
 28 70  1  0
 29 71  1  0
 30 72  1  0
 31 73  1  0
 32 74  1  0
 33 75  1  0
 33 76  1  0
 36 77  1  0
 37 78  1  0
 38 79  1  0
 39 80  1  0
 43 81  1  0
 44 82  1  0
 45 83  1  0
M  END
$$$$
