
     RDKit          3D

 61 64  0  0  0  0  0  0  0  0999 V2000
    7.2863   -0.4627   -1.6732 C   0  0  0  0  0  0  0  0  0  0  0  0
    6.4784    0.3058   -0.6678 C   0  0  0  0  0  0  0  0  0  0  0  0
    7.1176    1.2076    0.1982 C   0  0  0  0  0  0  0  0  0  0  0  0
    6.3767    1.9351    1.1288 C   0  0  0  0  0  0  0  0  0  0  0  0
    4.9919    1.7711    1.2088 C   0  0  0  0  0  0  0  0  0  0  0  0
    4.3382    0.8685    0.3489 C   0  0  0  0  0  0  0  0  0  0  0  0
    2.8677    0.7295    0.3960 C   0  0  0  0  0  0  0  0  0  0  0  0
    2.1578    1.7478    0.6114 O   0  0  0  0  0  0  0  0  0  0  0  0
    2.2406   -0.5551    0.2336 N   0  0  0  0  0  0  0  0  0  0  0  0
    2.7505   -1.7276    0.9456 C   0  0  0  0  0  0  0  0  0  0  0  0
    1.6156   -2.7452    1.1356 C   0  0  0  0  0  0  0  0  0  0  0  0
    0.4259   -2.0807    1.5276 O   0  0  0  0  0  0  0  0  0  0  0  0
   -0.1146   -1.2061    0.5255 C   0  0  0  0  0  0  0  0  0  0  0  0
   -0.7275    0.0033    1.2987 C   0  0  0  0  0  0  0  0  0  0  0  0
   -1.3599    1.1055    0.4252 C   0  0  0  0  0  0  0  0  0  0  0  0
   -2.2209    2.0859    1.2471 C   0  0  0  0  0  0  0  0  0  0  0  0
   -3.6668    1.6119    1.4751 C   0  0  0  0  0  0  0  0  0  0  0  0
   -4.4806    1.6491    0.2013 C   0  0  0  0  0  0  0  0  0  0  0  0
   -4.9111    2.8900   -0.3037 C   0  0  0  0  0  0  0  0  0  0  0  0
   -5.6098    2.9628   -1.5112 C   0  0  0  0  0  0  0  0  0  0  0  0
   -5.8853    1.7995   -2.2297 C   0  0  0  0  0  0  0  0  0  0  0  0
   -5.4762    0.5585   -1.7376 C   0  0  0  0  0  0  0  0  0  0  0  0
   -4.7615    0.4693   -0.5226 C   0  0  0  0  0  0  0  0  0  0  0  0
   -4.3266   -0.7651   -0.0125 O   0  0  0  0  0  0  0  0  0  0  0  0
   -4.2657   -1.9705   -0.7741 C   0  0  0  0  0  0  0  0  0  0  0  0
   -3.5334   -3.0480    0.0229 C   0  0  0  0  0  0  0  0  0  0  0  0
   -2.2958   -2.5328    0.6120 N   0  0  0  0  0  0  0  0  0  0  0  0
   -1.2352   -1.9606   -0.1761 C   0  0  0  0  0  0  0  0  0  0  0  0
   -1.2083   -2.1560   -1.4281 O   0  0  0  0  0  0  0  0  0  0  0  0
    0.9778   -0.7010   -0.4794 C   0  0  0  0  0  0  0  0  0  0  0  0
    5.0887    0.1321   -0.5791 C   0  0  0  0  0  0  0  0  0  0  0  0
    6.6402   -1.0237   -2.3815 H   0  0  0  0  0  0  0  0  0  0  0  0
    7.9199    0.2411   -2.2539 H   0  0  0  0  0  0  0  0  0  0  0  0
    7.9335   -1.1971   -1.1442 H   0  0  0  0  0  0  0  0  0  0  0  0
    8.1909    1.3517    0.1445 H   0  0  0  0  0  0  0  0  0  0  0  0
    6.8760    2.6412    1.7845 H   0  0  0  0  0  0  0  0  0  0  0  0
    4.4263    2.3376    1.9407 H   0  0  0  0  0  0  0  0  0  0  0  0
    3.1495   -1.4266    1.9454 H   0  0  0  0  0  0  0  0  0  0  0  0
    3.5805   -2.1914    0.3632 H   0  0  0  0  0  0  0  0  0  0  0  0
    1.9090   -3.4632    1.9344 H   0  0  0  0  0  0  0  0  0  0  0  0
    1.4493   -3.3278    0.2000 H   0  0  0  0  0  0  0  0  0  0  0  0
   -1.4882   -0.3769    2.0144 H   0  0  0  0  0  0  0  0  0  0  0  0
    0.0621    0.4685    1.9247 H   0  0  0  0  0  0  0  0  0  0  0  0
   -1.9505    0.6708   -0.4059 H   0  0  0  0  0  0  0  0  0  0  0  0
   -0.5490    1.7062   -0.0320 H   0  0  0  0  0  0  0  0  0  0  0  0
   -2.2507    3.0641    0.7130 H   0  0  0  0  0  0  0  0  0  0  0  0
   -1.7366    2.2793    2.2302 H   0  0  0  0  0  0  0  0  0  0  0  0
   -4.1416    2.2902    2.2160 H   0  0  0  0  0  0  0  0  0  0  0  0
   -3.6773    0.6028    1.9330 H   0  0  0  0  0  0  0  0  0  0  0  0
   -4.7005    3.8074    0.2355 H   0  0  0  0  0  0  0  0  0  0  0  0
   -5.9252    3.9247   -1.8952 H   0  0  0  0  0  0  0  0  0  0  0  0
   -6.4068    1.8605   -3.1766 H   0  0  0  0  0  0  0  0  0  0  0  0
   -5.7069   -0.3271   -2.3147 H   0  0  0  0  0  0  0  0  0  0  0  0
   -5.2947   -2.3243   -1.0104 H   0  0  0  0  0  0  0  0  0  0  0  0
   -3.7307   -1.7792   -1.7314 H   0  0  0  0  0  0  0  0  0  0  0  0
   -4.1994   -3.4003    0.8394 H   0  0  0  0  0  0  0  0  0  0  0  0
   -3.3074   -3.9133   -0.6363 H   0  0  0  0  0  0  0  0  0  0  0  0
   -2.1346   -2.6546    1.6348 H   0  0  0  0  0  0  0  0  0  0  0  0
    0.7010    0.2303   -1.0085 H   0  0  0  0  0  0  0  0  0  0  0  0
    1.1412   -1.4536   -1.2795 H   0  0  0  0  0  0  0  0  0  0  0  0
    4.5859   -0.5392   -1.2660 H   0  0  0  0  0  0  0  0  0  0  0  0
  1  2  1  0
  2  3  2  0
  3  4  1  0
  4  5  2  0
  5  6  1  0
  6  7  1  0
  7  8  2  0
  7  9  1  0
  9 10  1  0
 10 11  1  0
 11 12  1  0
 12 13  1  0
 13 14  1  0
 14 15  1  0
 15 16  1  0
 16 17  1  0
 17 18  1  0
 18 19  2  0
 19 20  1  0
 20 21  2  0
 21 22  1  0
 22 23  2  0
 23 24  1  0
 24 25  1  0
 25 26  1  0
 26 27  1  0
 27 28  1  0
 28 29  2  0
 13 30  1  0
  6 31  2  0
 31  2  1  0
 30  9  1  0
 28 13  1  0
 23 18  1  0
  1 32  1  0
  1 33  1  0
  1 34  1  0
  3 35  1  0
  4 36  1  0
  5 37  1  0
 10 38  1  0
 10 39  1  0
 11 40  1  0
 11 41  1  0
 14 42  1  0
 14 43  1  0
 15 44  1  0
 15 45  1  0
 16 46  1  0
 16 47  1  0
 17 48  1  0
 17 49  1  0
 19 50  1  0
 20 51  1  0
 21 52  1  0
 22 53  1  0
 25 54  1  0
 25 55  1  0
 26 56  1  0
 26 57  1  0
 27 58  1  0
 30 59  1  0
 30 60  1  0
 31 61  1  0
M  END
$$$$
