
     RDKit          3D

 84 87  0  0  0  0  0  0  0  0999 V2000
   -3.4358   -3.5806   -2.8022 C   0  0  0  0  0  0  0  0  0  0  0  0
   -4.4992   -2.5742   -2.3643 C   0  0  0  0  0  0  0  0  0  0  0  0
   -4.1102   -1.8947   -1.1168 N   0  0  0  0  0  0  0  0  0  0  0  0
   -4.8044   -2.2984    0.1163 C   0  0  0  0  0  0  0  0  0  0  0  0
   -6.0530   -1.4355    0.3606 C   0  0  0  0  0  0  0  0  0  0  0  0
   -5.6645   -0.1703    0.8869 O   0  0  0  0  0  0  0  0  0  0  0  0
   -6.4747    0.9648    1.0196 C   0  0  0  0  0  0  0  0  0  0  0  0
   -7.8002    0.9833    0.5475 C   0  0  0  0  0  0  0  0  0  0  0  0
   -8.5753    2.1391    0.6558 C   0  0  0  0  0  0  0  0  0  0  0  0
   -8.0480    3.2811    1.2576 C   0  0  0  0  0  0  0  0  0  0  0  0
   -6.7424    3.2727    1.7492 C   0  0  0  0  0  0  0  0  0  0  0  0
   -5.9384    2.1231    1.6364 C   0  0  0  0  0  0  0  0  0  0  0  0
   -4.5578    2.1283    2.2776 C   0  0  0  0  0  0  0  0  0  0  0  0
   -3.4219    1.6757    1.3278 C   0  0  0  0  0  0  0  0  0  0  0  0
   -2.8386    0.3141    1.7571 C   0  0  0  0  0  0  0  0  0  0  0  0
   -1.8841   -0.4035    0.7687 C   0  0  0  0  0  0  0  0  0  0  0  0
   -2.1064   -0.2501   -0.7675 C   0  0  0  0  0  0  0  0  0  0  0  0
   -1.1346   -1.2460   -1.4757 C   0  0  0  0  0  0  0  0  0  0  0  0
    0.2324   -0.7164   -1.4245 N   0  0  0  0  0  0  0  0  0  0  0  0
    1.3309   -1.5188   -0.9235 C   0  0  0  0  0  0  0  0  0  0  0  0
    1.0922   -2.6484   -0.4173 O   0  0  0  0  0  0  0  0  0  0  0  0
    2.7646   -1.0215   -0.9459 C   0  0  0  0  0  0  0  0  0  0  0  0
    3.7495   -2.1798   -1.1910 C   0  0  0  0  0  0  0  0  0  0  0  0
    5.1829   -1.6453   -1.2641 C   0  0  0  0  0  0  0  0  0  0  0  0
    5.4849   -0.7311   -0.1519 N   0  0  0  0  0  0  0  0  0  0  0  0
    6.8043   -0.1647   -0.0518 C   0  0  0  0  0  0  0  0  0  0  0  0
    7.6824   -0.4700   -0.9079 O   0  0  0  0  0  0  0  0  0  0  0  0
    7.1087    0.7231    0.9932 O   0  0  0  0  0  0  0  0  0  0  0  0
    8.3708    1.3688    1.2206 C   0  0  0  0  0  0  0  0  0  0  0  0
    8.2136    2.2490    2.4712 C   0  0  0  0  0  0  0  0  0  0  0  0
    9.4729    0.3225    1.4794 C   0  0  0  0  0  0  0  0  0  0  0  0
    8.7460    2.2706    0.0277 C   0  0  0  0  0  0  0  0  0  0  0  0
    4.4976   -0.5324    0.9208 C   0  0  0  0  0  0  0  0  0  0  0  0
    3.1006   -0.2318    0.3463 C   0  0  0  0  0  0  0  0  0  0  0  0
    0.4222    0.6717   -1.8684 C   0  0  0  0  0  0  0  0  0  0  0  0
   -0.9348    1.3240   -2.1587 C   0  0  0  0  0  0  0  0  0  0  0  0
   -1.8270    1.1247   -1.0769 O   0  0  0  0  0  0  0  0  0  0  0  0
   -3.5377   -0.5718   -1.2108 C   0  0  0  0  0  0  0  0  0  0  0  0
   -4.2116    0.3271   -1.7876 O   0  0  0  0  0  0  0  0  0  0  0  0
   -3.8924   -4.3110   -3.5060 H   0  0  0  0  0  0  0  0  0  0  0  0
   -2.6092   -3.0644   -3.3375 H   0  0  0  0  0  0  0  0  0  0  0  0
   -3.0261   -4.1380   -1.9271 H   0  0  0  0  0  0  0  0  0  0  0  0
   -5.4623   -3.1176   -2.2264 H   0  0  0  0  0  0  0  0  0  0  0  0
   -4.6783   -1.8376   -3.1809 H   0  0  0  0  0  0  0  0  0  0  0  0
   -5.1186   -3.3628    0.0419 H   0  0  0  0  0  0  0  0  0  0  0  0
   -4.1137   -2.2620    0.9772 H   0  0  0  0  0  0  0  0  0  0  0  0
   -6.7178   -1.9399    1.0933 H   0  0  0  0  0  0  0  0  0  0  0  0
   -6.5984   -1.3125   -0.6018 H   0  0  0  0  0  0  0  0  0  0  0  0
   -8.2402    0.1076    0.0978 H   0  0  0  0  0  0  0  0  0  0  0  0
   -9.5925    2.1390    0.2970 H   0  0  0  0  0  0  0  0  0  0  0  0
   -8.6588    4.1707    1.3606 H   0  0  0  0  0  0  0  0  0  0  0  0
   -6.3681    4.1588    2.2491 H   0  0  0  0  0  0  0  0  0  0  0  0
   -4.3100    3.1528    2.6348 H   0  0  0  0  0  0  0  0  0  0  0  0
   -4.5961    1.4957    3.1920 H   0  0  0  0  0  0  0  0  0  0  0  0
   -3.8095    1.6494    0.2950 H   0  0  0  0  0  0  0  0  0  0  0  0
   -2.6008    2.4246    1.3414 H   0  0  0  0  0  0  0  0  0  0  0  0
   -3.6430   -0.3800    2.0528 H   0  0  0  0  0  0  0  0  0  0  0  0
   -2.2751    0.4759    2.7011 H   0  0  0  0  0  0  0  0  0  0  0  0
   -1.8772   -1.4828    1.0402 H   0  0  0  0  0  0  0  0  0  0  0  0
   -0.8562   -0.0369    0.9943 H   0  0  0  0  0  0  0  0  0  0  0  0
   -1.4154   -1.3483   -2.5431 H   0  0  0  0  0  0  0  0  0  0  0  0
   -1.2112   -2.2637   -1.0335 H   0  0  0  0  0  0  0  0  0  0  0  0
    2.8879   -0.3297   -1.8063 H   0  0  0  0  0  0  0  0  0  0  0  0
    3.5063   -2.6902   -2.1489 H   0  0  0  0  0  0  0  0  0  0  0  0
    3.6771   -2.9338   -0.3741 H   0  0  0  0  0  0  0  0  0  0  0  0
    5.8928   -2.5009   -1.2517 H   0  0  0  0  0  0  0  0  0  0  0  0
    5.3093   -1.1024   -2.2251 H   0  0  0  0  0  0  0  0  0  0  0  0
    7.4108    3.0053    2.3187 H   0  0  0  0  0  0  0  0  0  0  0  0
    9.1623    2.7779    2.7068 H   0  0  0  0  0  0  0  0  0  0  0  0
    7.9357    1.6275    3.3476 H   0  0  0  0  0  0  0  0  0  0  0  0
    9.1589   -0.3729    2.2873 H   0  0  0  0  0  0  0  0  0  0  0  0
    9.6868   -0.2775    0.5707 H   0  0  0  0  0  0  0  0  0  0  0  0
   10.4201    0.8180    1.7863 H   0  0  0  0  0  0  0  0  0  0  0  0
    7.9121    2.9652   -0.2080 H   0  0  0  0  0  0  0  0  0  0  0  0
    8.9709    1.6706   -0.8788 H   0  0  0  0  0  0  0  0  0  0  0  0
    9.6521    2.8733    0.2619 H   0  0  0  0  0  0  0  0  0  0  0  0
    4.4502   -1.4541    1.5398 H   0  0  0  0  0  0  0  0  0  0  0  0
    4.7861    0.3043    1.5937 H   0  0  0  0  0  0  0  0  0  0  0  0
    3.0401    0.8589    0.1226 H   0  0  0  0  0  0  0  0  0  0  0  0
    2.3482   -0.4355    1.1451 H   0  0  0  0  0  0  0  0  0  0  0  0
    0.9241    1.2515   -1.0682 H   0  0  0  0  0  0  0  0  0  0  0  0
    1.0457    0.6971   -2.7894 H   0  0  0  0  0  0  0  0  0  0  0  0
   -1.3782    0.9360   -3.1011 H   0  0  0  0  0  0  0  0  0  0  0  0
   -0.7844    2.4163   -2.2965 H   0  0  0  0  0  0  0  0  0  0  0  0
  1  2  1  0
  2  3  1  0
  3  4  1  0
  4  5  1  0
  5  6  1  0
  6  7  1  0
  7  8  2  0
  8  9  1  0
  9 10  2  0
 10 11  1  0
 11 12  2  0
 12 13  1  0
 13 14  1  0
 14 15  1  0
 15 16  1  0
 16 17  1  0
 17 18  1  0
 18 19  1  0
 19 20  1  0
 20 21  2  0
 20 22  1  0
 22 23  1  0
 23 24  1  0
 24 25  1  0
 25 26  1  0
 26 27  2  0
 26 28  1  0
 28 29  1  0
 29 30  1  0
 29 31  1  0
 29 32  1  0
 25 33  1  0
 33 34  1  0
 19 35  1  0
 35 36  1  0
 36 37  1  0
 17 38  1  0
 38 39  2  0
 38  3  1  0
 12  7  1  0
 37 17  1  0
 34 22  1  0
  1 40  1  0
  1 41  1  0
  1 42  1  0
  2 43  1  0
  2 44  1  0
  4 45  1  0
  4 46  1  0
  5 47  1  0
  5 48  1  0
  8 49  1  0
  9 50  1  0
 10 51  1  0
 11 52  1  0
 13 53  1  0
 13 54  1  0
 14 55  1  0
 14 56  1  0
 15 57  1  0
 15 58  1  0
 16 59  1  0
 16 60  1  0
 18 61  1  0
 18 62  1  0
 22 63  1  0
 23 64  1  0
 23 65  1  0
 24 66  1  0
 24 67  1  0
 30 68  1  0
 30 69  1  0
 30 70  1  0
 31 71  1  0
 31 72  1  0
 31 73  1  0
 32 74  1  0
 32 75  1  0
 32 76  1  0
 33 77  1  0
 33 78  1  0
 34 79  1  0
 34 80  1  0
 35 81  1  0
 35 82  1  0
 36 83  1  0
 36 84  1  0
M  END
$$$$
