
     RDKit          3D

 76 80  0  0  0  0  0  0  0  0999 V2000
    1.4338   -0.1057    1.7113 O   0  0  0  0  0  0  0  0  0  0  0  0
    1.6243   -0.3306    0.4857 C   0  0  0  0  0  0  0  0  0  0  0  0
    0.6003   -1.1401   -0.2674 C   0  0  0  0  0  0  0  0  0  0  0  0
   -0.7619   -0.5936   -0.0684 N   0  0  0  0  0  0  0  0  0  0  0  0
   -0.9278    0.7272   -0.7385 C   0  0  0  0  0  0  0  0  0  0  0  0
   -1.1826    1.8403    0.2918 C   0  0  0  0  0  0  0  0  0  0  0  0
   -2.6004    1.8344    0.8955 C   0  0  0  0  0  0  0  0  0  0  0  0
   -3.6938    2.1084   -0.1563 C   0  0  0  0  0  0  0  0  0  0  0  0
   -5.0248    2.5862    0.4550 C   0  0  0  0  0  0  0  0  0  0  0  0
   -5.6385    1.5939    1.4547 C   0  0  0  0  0  0  0  0  0  0  0  0
   -5.6488    0.2704    0.9184 O   0  0  0  0  0  0  0  0  0  0  0  0
   -6.4157   -0.1649   -0.1727 C   0  0  0  0  0  0  0  0  0  0  0  0
   -7.6519    0.4281   -0.4926 C   0  0  0  0  0  0  0  0  0  0  0  0
   -8.3864   -0.0205   -1.5935 C   0  0  0  0  0  0  0  0  0  0  0  0
   -7.8926   -1.0546   -2.3904 C   0  0  0  0  0  0  0  0  0  0  0  0
   -6.6634   -1.6423   -2.0882 C   0  0  0  0  0  0  0  0  0  0  0  0
   -5.9249   -1.2181   -0.9756 C   0  0  0  0  0  0  0  0  0  0  0  0
   -4.6759   -1.8121   -0.7435 O   0  0  0  0  0  0  0  0  0  0  0  0
   -4.1036   -2.0095    0.5198 C   0  0  0  0  0  0  0  0  0  0  0  0
   -4.8957   -2.3325    1.5814 N   0  0  0  0  0  0  0  0  0  0  0  0
   -4.3873   -2.5361    2.8267 C   0  0  0  0  0  0  0  0  0  0  0  0
   -3.0133   -2.4290    3.0446 C   0  0  0  0  0  0  0  0  0  0  0  0
   -2.1728   -2.1193    1.9740 C   0  0  0  0  0  0  0  0  0  0  0  0
   -2.7083   -1.8891    0.6949 C   0  0  0  0  0  0  0  0  0  0  0  0
   -1.7937   -1.5893   -0.4668 C   0  0  0  0  0  0  0  0  0  0  0  0
    2.8378    0.1341   -0.1438 N   0  0  0  0  0  0  0  0  0  0  0  0
    3.3999   -0.5603   -1.3114 C   0  0  0  0  0  0  0  0  0  0  0  0
    4.9279   -0.4896   -1.2969 C   0  0  0  0  0  0  0  0  0  0  0  0
    5.3652    0.9064   -1.1236 N   0  0  0  0  0  0  0  0  0  0  0  0
    6.8243    1.0772   -1.3245 C   0  0  0  0  0  0  0  0  0  0  0  0
    7.6760    0.3152   -0.3288 C   0  0  0  0  0  0  0  0  0  0  0  0
    8.0442    0.9083    0.8914 C   0  0  0  0  0  0  0  0  0  0  0  0
    8.8209    0.1992    1.8131 C   0  0  0  0  0  0  0  0  0  0  0  0
    9.2431   -1.1012    1.5222 C   0  0  0  0  0  0  0  0  0  0  0  0
   10.0040   -1.7832    2.4119 F   0  0  0  0  0  0  0  0  0  0  0  0
    8.8905   -1.6959    0.3058 C   0  0  0  0  0  0  0  0  0  0  0  0
    8.1111   -0.9917   -0.6163 C   0  0  0  0  0  0  0  0  0  0  0  0
    4.8998    1.4414    0.1702 C   0  0  0  0  0  0  0  0  0  0  0  0
    3.3707    1.4608    0.2037 C   0  0  0  0  0  0  0  0  0  0  0  0
    0.6700   -2.1745    0.1347 H   0  0  0  0  0  0  0  0  0  0  0  0
    0.8238   -1.1924   -1.3567 H   0  0  0  0  0  0  0  0  0  0  0  0
   -0.0126    1.0129   -1.3066 H   0  0  0  0  0  0  0  0  0  0  0  0
   -1.7293    0.7394   -1.5029 H   0  0  0  0  0  0  0  0  0  0  0  0
   -1.0110    2.8264   -0.1953 H   0  0  0  0  0  0  0  0  0  0  0  0
   -0.4392    1.7577    1.1162 H   0  0  0  0  0  0  0  0  0  0  0  0
   -2.6350    2.6346    1.6665 H   0  0  0  0  0  0  0  0  0  0  0  0
   -2.7922    0.8663    1.4060 H   0  0  0  0  0  0  0  0  0  0  0  0
   -3.3494    2.8943   -0.8620 H   0  0  0  0  0  0  0  0  0  0  0  0
   -3.8735    1.1871   -0.7504 H   0  0  0  0  0  0  0  0  0  0  0  0
   -5.7435    2.7380   -0.3770 H   0  0  0  0  0  0  0  0  0  0  0  0
   -4.8754    3.5702    0.9478 H   0  0  0  0  0  0  0  0  0  0  0  0
   -6.6603    1.9151    1.7416 H   0  0  0  0  0  0  0  0  0  0  0  0
   -5.0275    1.5891    2.3820 H   0  0  0  0  0  0  0  0  0  0  0  0
   -8.0637    1.2230    0.1116 H   0  0  0  0  0  0  0  0  0  0  0  0
   -9.3412    0.4301   -1.8232 H   0  0  0  0  0  0  0  0  0  0  0  0
   -8.4631   -1.3999   -3.2449 H   0  0  0  0  0  0  0  0  0  0  0  0
   -6.2838   -2.4445   -2.7113 H   0  0  0  0  0  0  0  0  0  0  0  0
   -5.0498   -2.7858    3.6463 H   0  0  0  0  0  0  0  0  0  0  0  0
   -2.6040   -2.5901    4.0332 H   0  0  0  0  0  0  0  0  0  0  0  0
   -1.1061   -2.0583    2.1475 H   0  0  0  0  0  0  0  0  0  0  0  0
   -1.3464   -2.5580   -0.7778 H   0  0  0  0  0  0  0  0  0  0  0  0
   -2.3747   -1.2624   -1.3524 H   0  0  0  0  0  0  0  0  0  0  0  0
    3.0146   -0.0909   -2.2417 H   0  0  0  0  0  0  0  0  0  0  0  0
    3.1101   -1.6339   -1.3061 H   0  0  0  0  0  0  0  0  0  0  0  0
    5.3102   -1.1297   -0.4724 H   0  0  0  0  0  0  0  0  0  0  0  0
    5.3091   -0.8949   -2.2608 H   0  0  0  0  0  0  0  0  0  0  0  0
    7.0913    0.7636   -2.3596 H   0  0  0  0  0  0  0  0  0  0  0  0
    7.0773    2.1606   -1.2734 H   0  0  0  0  0  0  0  0  0  0  0  0
    7.7320    1.9178    1.1281 H   0  0  0  0  0  0  0  0  0  0  0  0
    9.1013    0.6589    2.7511 H   0  0  0  0  0  0  0  0  0  0  0  0
    9.2214   -2.7029    0.0800 H   0  0  0  0  0  0  0  0  0  0  0  0
    7.8446   -1.4652   -1.5515 H   0  0  0  0  0  0  0  0  0  0  0  0
    5.2668    2.4812    0.3109 H   0  0  0  0  0  0  0  0  0  0  0  0
    5.2697    0.8174    1.0131 H   0  0  0  0  0  0  0  0  0  0  0  0
    3.0400    1.7720    1.2197 H   0  0  0  0  0  0  0  0  0  0  0  0
    2.9902    2.2052   -0.5281 H   0  0  0  0  0  0  0  0  0  0  0  0
  1  2  2  0
  2  3  1  0
  3  4  1  0
  4  5  1  0
  5  6  1  0
  6  7  1  0
  7  8  1  0
  8  9  1  0
  9 10  1  0
 10 11  1  0
 11 12  1  0
 12 13  2  0
 13 14  1  0
 14 15  2  0
 15 16  1  0
 16 17  2  0
 17 18  1  0
 18 19  1  0
 19 20  2  0
 20 21  1  0
 21 22  2  0
 22 23  1  0
 23 24  2  0
 24 25  1  0
  2 26  1  0
 26 27  1  0
 27 28  1  0
 28 29  1  0
 29 30  1  0
 30 31  1  0
 31 32  2  0
 32 33  1  0
 33 34  2  0
 34 35  1  0
 34 36  1  0
 36 37  2  0
 29 38  1  0
 38 39  1  0
 25  4  1  0
 39 26  1  0
 17 12  1  0
 24 19  1  0
 37 31  1  0
  3 40  1  0
  3 41  1  0
  5 42  1  0
  5 43  1  0
  6 44  1  0
  6 45  1  0
  7 46  1  0
  7 47  1  0
  8 48  1  0
  8 49  1  0
  9 50  1  0
  9 51  1  0
 10 52  1  0
 10 53  1  0
 13 54  1  0
 14 55  1  0
 15 56  1  0
 16 57  1  0
 21 58  1  0
 22 59  1  0
 23 60  1  0
 25 61  1  0
 25 62  1  0
 27 63  1  0
 27 64  1  0
 28 65  1  0
 28 66  1  0
 30 67  1  0
 30 68  1  0
 32 69  1  0
 33 70  1  0
 36 71  1  0
 37 72  1  0
 38 73  1  0
 38 74  1  0
 39 75  1  0
 39 76  1  0
M  END
$$$$
