
     RDKit          3D

 73 76  0  0  0  0  0  0  0  0999 V2000
   -4.6435   -3.9969    2.9638 C   0  0  0  0  0  0  0  0  0  0  0  0
   -4.4272   -2.9886    1.9975 O   0  0  0  0  0  0  0  0  0  0  0  0
   -3.0421   -2.8961    1.7171 C   0  0  0  0  0  0  0  0  0  0  0  0
   -2.7362   -1.7049    0.7530 C   0  0  0  0  0  0  0  0  0  0  0  0
   -1.1896   -1.7747    0.4437 C   0  0  0  0  0  0  0  0  0  0  0  0
   -0.4902   -0.5146   -0.1338 C   0  0  0  0  0  0  0  0  0  0  0  0
    1.0356   -0.5675    0.1093 C   0  0  0  0  0  0  0  0  0  0  0  0
    1.7273    0.7908   -0.1211 C   0  0  0  0  0  0  0  0  0  0  0  0
    2.3191    0.8886   -1.4696 N   0  0  0  0  0  0  0  0  0  0  0  0
    3.6097    0.2935   -1.7300 C   0  0  0  0  0  0  0  0  0  0  0  0
    3.8186   -0.2980   -2.8246 O   0  0  0  0  0  0  0  0  0  0  0  0
    4.7306    0.3833   -0.7321 C   0  0  0  0  0  0  0  0  0  0  0  0
    4.6560   -0.7261    0.2431 N   0  0  0  0  0  0  0  0  0  0  0  0
    5.4647   -0.4127    1.4384 C   0  0  0  0  0  0  0  0  0  0  0  0
    5.3697   -1.5651    2.4607 C   0  0  0  0  0  0  0  0  0  0  0  0
    4.7252   -2.7124    1.9317 O   0  0  0  0  0  0  0  0  0  0  0  0
    5.3383   -3.0810    0.7134 C   0  0  0  0  0  0  0  0  0  0  0  0
    5.1139   -1.9998   -0.3624 C   0  0  0  0  0  0  0  0  0  0  0  0
    1.5515    1.4086   -2.6163 C   0  0  0  0  0  0  0  0  0  0  0  0
    0.8473    2.7325   -2.3002 C   0  0  0  0  0  0  0  0  0  0  0  0
   -0.4359    2.4454   -1.7551 O   0  0  0  0  0  0  0  0  0  0  0  0
   -1.3542    3.3924   -1.2857 C   0  0  0  0  0  0  0  0  0  0  0  0
   -0.9714    4.6904   -0.8997 C   0  0  0  0  0  0  0  0  0  0  0  0
   -1.9292    5.5838   -0.4034 C   0  0  0  0  0  0  0  0  0  0  0  0
   -3.2663    5.1911   -0.2893 C   0  0  0  0  0  0  0  0  0  0  0  0
   -3.6543    3.9081   -0.6808 C   0  0  0  0  0  0  0  0  0  0  0  0
   -2.7004    3.0072   -1.1786 C   0  0  0  0  0  0  0  0  0  0  0  0
   -3.1174    1.7003   -1.7153 C   0  0  0  0  0  0  0  0  0  0  0  0
   -3.1455    1.5660   -2.9656 O   0  0  0  0  0  0  0  0  0  0  0  0
   -3.3646    0.5578   -0.8660 N   0  0  0  0  0  0  0  0  0  0  0  0
   -3.7301    0.7218    0.5503 C   0  0  0  0  0  0  0  0  0  0  0  0
   -3.1373   -0.3745    1.4663 C   0  0  0  0  0  0  0  0  0  0  0  0
   -3.5013   -0.7530   -1.5199 C   0  0  0  0  0  0  0  0  0  0  0  0
   -3.5939   -1.9091   -0.5243 C   0  0  0  0  0  0  0  0  0  0  0  0
   -4.2361   -4.9749    2.6318 H   0  0  0  0  0  0  0  0  0  0  0  0
   -4.2052   -3.7070    3.9456 H   0  0  0  0  0  0  0  0  0  0  0  0
   -5.7335   -4.1265    3.1034 H   0  0  0  0  0  0  0  0  0  0  0  0
   -2.6944   -3.8432    1.2410 H   0  0  0  0  0  0  0  0  0  0  0  0
   -2.4690   -2.7457    2.6627 H   0  0  0  0  0  0  0  0  0  0  0  0
   -0.6728   -2.0309    1.3973 H   0  0  0  0  0  0  0  0  0  0  0  0
   -0.9889   -2.6264   -0.2442 H   0  0  0  0  0  0  0  0  0  0  0  0
   -0.8891    0.4083    0.3323 H   0  0  0  0  0  0  0  0  0  0  0  0
   -0.6621   -0.4548   -1.2280 H   0  0  0  0  0  0  0  0  0  0  0  0
    1.4951   -1.3579   -0.5262 H   0  0  0  0  0  0  0  0  0  0  0  0
    1.2242   -0.8525    1.1684 H   0  0  0  0  0  0  0  0  0  0  0  0
    2.5175    0.9169    0.6475 H   0  0  0  0  0  0  0  0  0  0  0  0
    1.0338    1.6303    0.0816 H   0  0  0  0  0  0  0  0  0  0  0  0
    4.6491    1.3686   -0.2208 H   0  0  0  0  0  0  0  0  0  0  0  0
    5.7111    0.3929   -1.2627 H   0  0  0  0  0  0  0  0  0  0  0  0
    5.0889    0.5172    1.9156 H   0  0  0  0  0  0  0  0  0  0  0  0
    6.5309   -0.2486    1.1571 H   0  0  0  0  0  0  0  0  0  0  0  0
    4.7802   -1.2200    3.3354 H   0  0  0  0  0  0  0  0  0  0  0  0
    6.3817   -1.8313    2.8374 H   0  0  0  0  0  0  0  0  0  0  0  0
    4.8938   -4.0374    0.3685 H   0  0  0  0  0  0  0  0  0  0  0  0
    6.4304   -3.2638    0.8625 H   0  0  0  0  0  0  0  0  0  0  0  0
    4.3376   -2.3602   -1.0767 H   0  0  0  0  0  0  0  0  0  0  0  0
    6.0654   -1.8602   -0.9279 H   0  0  0  0  0  0  0  0  0  0  0  0
    0.8163    0.6467   -2.9523 H   0  0  0  0  0  0  0  0  0  0  0  0
    2.2376    1.6011   -3.4716 H   0  0  0  0  0  0  0  0  0  0  0  0
    1.4605    3.3266   -1.5881 H   0  0  0  0  0  0  0  0  0  0  0  0
    0.7146    3.3190   -3.2356 H   0  0  0  0  0  0  0  0  0  0  0  0
    0.0571    5.0143   -0.9701 H   0  0  0  0  0  0  0  0  0  0  0  0
   -1.6327    6.5791   -0.0991 H   0  0  0  0  0  0  0  0  0  0  0  0
   -4.0036    5.8892    0.0910 H   0  0  0  0  0  0  0  0  0  0  0  0
   -4.7000    3.6220   -0.6195 H   0  0  0  0  0  0  0  0  0  0  0  0
   -3.3891    1.6993    0.9414 H   0  0  0  0  0  0  0  0  0  0  0  0
   -4.8371    0.7110    0.6264 H   0  0  0  0  0  0  0  0  0  0  0  0
   -2.2705    0.0280    2.0348 H   0  0  0  0  0  0  0  0  0  0  0  0
   -3.9015   -0.5651    2.2534 H   0  0  0  0  0  0  0  0  0  0  0  0
   -4.4089   -0.7509   -2.1594 H   0  0  0  0  0  0  0  0  0  0  0  0
   -2.6371   -0.9331   -2.1895 H   0  0  0  0  0  0  0  0  0  0  0  0
   -4.6663   -2.0105   -0.2429 H   0  0  0  0  0  0  0  0  0  0  0  0
   -3.3048   -2.8560   -1.0351 H   0  0  0  0  0  0  0  0  0  0  0  0
  1  2  1  0
  2  3  1  0
  3  4  1  0
  4  5  1  0
  5  6  1  0
  6  7  1  0
  7  8  1  0
  8  9  1  0
  9 10  1  0
 10 11  2  0
 10 12  1  0
 12 13  1  0
 13 14  1  0
 14 15  1  0
 15 16  1  0
 16 17  1  0
 17 18  1  0
  9 19  1  0
 19 20  1  0
 20 21  1  0
 21 22  1  0
 22 23  2  0
 23 24  1  0
 24 25  2  0
 25 26  1  0
 26 27  2  0
 27 28  1  0
 28 29  2  0
 28 30  1  0
 30 31  1  0
 31 32  1  0
 30 33  1  0
 33 34  1  0
 32  4  1  0
 34  4  1  0
 18 13  1  0
 27 22  1  0
  1 35  1  0
  1 36  1  0
  1 37  1  0
  3 38  1  0
  3 39  1  0
  5 40  1  0
  5 41  1  0
  6 42  1  0
  6 43  1  0
  7 44  1  0
  7 45  1  0
  8 46  1  0
  8 47  1  0
 12 48  1  0
 12 49  1  0
 14 50  1  0
 14 51  1  0
 15 52  1  0
 15 53  1  0
 17 54  1  0
 17 55  1  0
 18 56  1  0
 18 57  1  0
 19 58  1  0
 19 59  1  0
 20 60  1  0
 20 61  1  0
 23 62  1  0
 24 63  1  0
 25 64  1  0
 26 65  1  0
 31 66  1  0
 31 67  1  0
 32 68  1  0
 32 69  1  0
 33 70  1  0
 33 71  1  0
 34 72  1  0
 34 73  1  0
M  END
$$$$
