
     RDKit          3D

 66 69  0  0  0  0  0  0  0  0999 V2000
   -2.7456   -2.2748   -1.8835 C   0  0  0  0  0  0  0  0  0  0  0  0
   -1.7687   -1.9669   -0.7223 C   0  0  0  0  0  0  0  0  0  0  0  0
   -1.7297   -3.1926    0.2181 C   0  0  0  0  0  0  0  0  0  0  0  0
   -0.3619   -1.6855   -1.3449 C   0  0  0  0  0  0  0  0  0  0  0  0
    0.8765   -1.6699   -0.4067 C   0  0  0  0  0  0  0  0  0  0  0  0
    1.0077   -0.4659    0.5556 C   0  0  0  0  0  0  0  0  0  0  0  0
    0.6945    0.8350   -0.0942 N   0  0  0  0  0  0  0  0  0  0  0  0
    1.6688    1.2145   -1.1529 C   0  0  0  0  0  0  0  0  0  0  0  0
    3.1204    1.1479   -0.7330 C   0  0  0  0  0  0  0  0  0  0  0  0
    3.4783    1.5756    0.4004 O   0  0  0  0  0  0  0  0  0  0  0  0
    4.1036    0.6544   -1.6518 N   0  0  0  0  0  0  0  0  0  0  0  0
    5.4705    0.3406   -1.2391 C   0  0  0  0  0  0  0  0  0  0  0  0
    5.5348   -1.0739   -0.7516 C   0  0  0  0  0  0  0  0  0  0  0  0
    5.3790   -1.3739    0.6114 C   0  0  0  0  0  0  0  0  0  0  0  0
    5.4195   -2.7071    1.0283 C   0  0  0  0  0  0  0  0  0  0  0  0
    5.5880   -3.7240    0.0891 C   0  0  0  0  0  0  0  0  0  0  0  0
    5.7118   -3.3910   -1.2621 C   0  0  0  0  0  0  0  0  0  0  0  0
    5.6749   -2.0853   -1.6501 N   0  0  0  0  0  0  0  0  0  0  0  0
    0.4397    1.9225    0.8871 C   0  0  0  0  0  0  0  0  0  0  0  0
   -0.6426    2.8588    0.3830 C   0  0  0  0  0  0  0  0  0  0  0  0
   -0.2996    3.9708   -0.4123 C   0  0  0  0  0  0  0  0  0  0  0  0
   -1.2943    4.8139   -0.9109 C   0  0  0  0  0  0  0  0  0  0  0  0
   -2.6285    4.5538   -0.5978 C   0  0  0  0  0  0  0  0  0  0  0  0
   -2.9478    3.5032    0.1945 N   0  0  0  0  0  0  0  0  0  0  0  0
   -2.0046    2.6567    0.6989 C   0  0  0  0  0  0  0  0  0  0  0  0
   -2.3935    1.5858    1.5116 O   0  0  0  0  0  0  0  0  0  0  0  0
   -3.7325    1.2679    1.7620 C   0  0  0  0  0  0  0  0  0  0  0  0
   -4.4934    2.1248    2.5692 C   0  0  0  0  0  0  0  0  0  0  0  0
   -5.8331    1.8486    2.8219 C   0  0  0  0  0  0  0  0  0  0  0  0
   -6.4258    0.7028    2.2855 C   0  0  0  0  0  0  0  0  0  0  0  0
   -5.6744   -0.1682    1.4896 C   0  0  0  0  0  0  0  0  0  0  0  0
   -4.3277    0.0974    1.2165 C   0  0  0  0  0  0  0  0  0  0  0  0
   -3.6424   -0.8216    0.4001 O   0  0  0  0  0  0  0  0  0  0  0  0
   -2.2667   -0.7228    0.0467 C   0  0  0  0  0  0  0  0  0  0  0  0
   -2.8283   -1.4051   -2.5720 H   0  0  0  0  0  0  0  0  0  0  0  0
   -2.3939   -3.1564   -2.4580 H   0  0  0  0  0  0  0  0  0  0  0  0
   -3.7611   -2.5146   -1.4957 H   0  0  0  0  0  0  0  0  0  0  0  0
   -1.2898   -4.0682   -0.3124 H   0  0  0  0  0  0  0  0  0  0  0  0
   -2.7544   -3.4603    0.5583 H   0  0  0  0  0  0  0  0  0  0  0  0
   -1.1216   -2.9962    1.1291 H   0  0  0  0  0  0  0  0  0  0  0  0
   -0.1576   -2.4767   -2.1065 H   0  0  0  0  0  0  0  0  0  0  0  0
   -0.4012   -0.7358   -1.9198 H   0  0  0  0  0  0  0  0  0  0  0  0
    1.7849   -1.6720   -1.0491 H   0  0  0  0  0  0  0  0  0  0  0  0
    0.9343   -2.6156    0.1706 H   0  0  0  0  0  0  0  0  0  0  0  0
    2.0353   -0.4561    0.9756 H   0  0  0  0  0  0  0  0  0  0  0  0
    0.3621   -0.6521    1.4336 H   0  0  0  0  0  0  0  0  0  0  0  0
    1.4593    2.2321   -1.5325 H   0  0  0  0  0  0  0  0  0  0  0  0
    1.5184    0.5490   -2.0271 H   0  0  0  0  0  0  0  0  0  0  0  0
    3.8219    0.4262   -2.6342 H   0  0  0  0  0  0  0  0  0  0  0  0
    5.8115    1.0500   -0.4496 H   0  0  0  0  0  0  0  0  0  0  0  0
    6.1601    0.4686   -2.1069 H   0  0  0  0  0  0  0  0  0  0  0  0
    5.2282   -0.5914    1.3446 H   0  0  0  0  0  0  0  0  0  0  0  0
    5.3002   -2.9487    2.0775 H   0  0  0  0  0  0  0  0  0  0  0  0
    5.6136   -4.7584    0.4084 H   0  0  0  0  0  0  0  0  0  0  0  0
    5.8314   -4.1687   -2.0051 H   0  0  0  0  0  0  0  0  0  0  0  0
    0.1284    1.5152    1.8766 H   0  0  0  0  0  0  0  0  0  0  0  0
    1.3569    2.5163    1.0971 H   0  0  0  0  0  0  0  0  0  0  0  0
    0.7385    4.1923   -0.6374 H   0  0  0  0  0  0  0  0  0  0  0  0
   -1.0426    5.6603   -1.5305 H   0  0  0  0  0  0  0  0  0  0  0  0
   -3.4126    5.1942   -0.9781 H   0  0  0  0  0  0  0  0  0  0  0  0
   -4.0439    3.0149    2.9844 H   0  0  0  0  0  0  0  0  0  0  0  0
   -6.4144    2.5217    3.4349 H   0  0  0  0  0  0  0  0  0  0  0  0
   -7.4675    0.4944    2.4861 H   0  0  0  0  0  0  0  0  0  0  0  0
   -6.1398   -1.0563    1.0686 H   0  0  0  0  0  0  0  0  0  0  0  0
   -1.6953   -0.6436    0.9869 H   0  0  0  0  0  0  0  0  0  0  0  0
   -2.1162    0.1891   -0.5733 H   0  0  0  0  0  0  0  0  0  0  0  0
  1  2  1  0
  2  3  1  0
  2  4  1  0
  4  5  1  0
  5  6  1  0
  6  7  1  0
  7  8  1  0
  8  9  1  0
  9 10  2  0
  9 11  1  0
 11 12  1  0
 12 13  1  0
 13 14  2  0
 14 15  1  0
 15 16  2  0
 16 17  1  0
 17 18  2  0
  7 19  1  0
 19 20  1  0
 20 21  2  0
 21 22  1  0
 22 23  2  0
 23 24  1  0
 24 25  2  0
 25 26  1  0
 26 27  1  0
 27 28  2  0
 28 29  1  0
 29 30  2  0
 30 31  1  0
 31 32  2  0
 32 33  1  0
 33 34  1  0
 34  2  1  0
 18 13  1  0
 25 20  1  0
 32 27  1  0
  1 35  1  0
  1 36  1  0
  1 37  1  0
  3 38  1  0
  3 39  1  0
  3 40  1  0
  4 41  1  0
  4 42  1  0
  5 43  1  0
  5 44  1  0
  6 45  1  0
  6 46  1  0
  8 47  1  0
  8 48  1  0
 11 49  1  0
 12 50  1  0
 12 51  1  0
 14 52  1  0
 15 53  1  0
 16 54  1  0
 17 55  1  0
 19 56  1  0
 19 57  1  0
 21 58  1  0
 22 59  1  0
 23 60  1  0
 28 61  1  0
 29 62  1  0
 30 63  1  0
 31 64  1  0
 34 65  1  0
 34 66  1  0
M  END
$$$$
