
     RDKit          3D

 67 70  0  0  0  0  0  0  0  0999 V2000
    5.8373    1.8471    1.0392 C   0  0  0  0  0  0  0  0  0  0  0  0
    5.0542    1.1667    0.0574 O   0  0  0  0  0  0  0  0  0  0  0  0
    5.5263    0.1292   -0.7615 C   0  0  0  0  0  0  0  0  0  0  0  0
    6.8654   -0.3047   -0.7182 C   0  0  0  0  0  0  0  0  0  0  0  0
    7.2851   -1.3630   -1.5252 C   0  0  0  0  0  0  0  0  0  0  0  0
    6.3808   -2.0078   -2.3670 C   0  0  0  0  0  0  0  0  0  0  0  0
    5.0575   -1.5800   -2.4247 C   0  0  0  0  0  0  0  0  0  0  0  0
    4.6239   -0.5000   -1.6441 C   0  0  0  0  0  0  0  0  0  0  0  0
    3.1842   -0.0576   -1.7193 C   0  0  0  0  0  0  0  0  0  0  0  0
    2.3947   -0.6206   -0.5610 C   0  0  0  0  0  0  0  0  0  0  0  0
    2.2472   -1.8659   -0.4754 O   0  0  0  0  0  0  0  0  0  0  0  0
    1.7948    0.2355    0.4268 N   0  0  0  0  0  0  0  0  0  0  0  0
    1.8086   -0.1411    1.8470 C   0  0  0  0  0  0  0  0  0  0  0  0
    0.4450    0.1109    2.5368 C   0  0  0  0  0  0  0  0  0  0  0  0
   -0.6980    0.4979    1.5522 C   0  0  0  0  0  0  0  0  0  0  0  0
   -1.9394    0.9654    2.3915 C   0  0  0  0  0  0  0  0  0  0  0  0
   -3.0903    1.5560    1.5431 C   0  0  0  0  0  0  0  0  0  0  0  0
   -4.4722    1.4464    2.2146 C   0  0  0  0  0  0  0  0  0  0  0  0
   -5.0655    0.0227    2.1817 C   0  0  0  0  0  0  0  0  0  0  0  0
   -5.8385   -0.3150    0.8888 C   0  0  0  0  0  0  0  0  0  0  0  0
   -5.2829    0.2927   -0.2802 O   0  0  0  0  0  0  0  0  0  0  0  0
   -4.4556   -0.2856   -1.2671 C   0  0  0  0  0  0  0  0  0  0  0  0
   -4.5354    0.3022   -2.5422 C   0  0  0  0  0  0  0  0  0  0  0  0
   -3.7541   -0.1568   -3.6003 C   0  0  0  0  0  0  0  0  0  0  0  0
   -2.8638   -1.2183   -3.4005 C   0  0  0  0  0  0  0  0  0  0  0  0
   -1.8617   -1.7743   -4.7334 Cl  0  0  0  0  0  0  0  0  0  0  0  0
   -2.7577   -1.8153   -2.1368 C   0  0  0  0  0  0  0  0  0  0  0  0
   -3.5370   -1.3584   -1.0590 C   0  0  0  0  0  0  0  0  0  0  0  0
   -3.2786   -1.9498    0.2633 C   0  0  0  0  0  0  0  0  0  0  0  0
   -4.0498   -2.8454    0.6904 O   0  0  0  0  0  0  0  0  0  0  0  0
   -2.1798   -1.5223    1.0976 N   0  0  0  0  0  0  0  0  0  0  0  0
   -1.0415   -0.7297    0.6193 C   0  0  0  0  0  0  0  0  0  0  0  0
   -0.1950    1.7095    0.7069 C   0  0  0  0  0  0  0  0  0  0  0  0
    1.1766    1.5091    0.0386 C   0  0  0  0  0  0  0  0  0  0  0  0
    5.1911    2.5512    1.6114 H   0  0  0  0  0  0  0  0  0  0  0  0
    6.2918    1.1107    1.7365 H   0  0  0  0  0  0  0  0  0  0  0  0
    6.6425    2.4293    0.5412 H   0  0  0  0  0  0  0  0  0  0  0  0
    7.5869    0.1638   -0.0603 H   0  0  0  0  0  0  0  0  0  0  0  0
    8.3122   -1.6903   -1.4898 H   0  0  0  0  0  0  0  0  0  0  0  0
    6.7003   -2.8398   -2.9801 H   0  0  0  0  0  0  0  0  0  0  0  0
    4.3599   -2.0941   -3.0714 H   0  0  0  0  0  0  0  0  0  0  0  0
    3.1542    1.0559   -1.7188 H   0  0  0  0  0  0  0  0  0  0  0  0
    2.7141   -0.3855   -2.6763 H   0  0  0  0  0  0  0  0  0  0  0  0
    2.0845   -1.2116    1.9672 H   0  0  0  0  0  0  0  0  0  0  0  0
    2.5930    0.4546    2.3620 H   0  0  0  0  0  0  0  0  0  0  0  0
    0.1545   -0.7841    3.1350 H   0  0  0  0  0  0  0  0  0  0  0  0
    0.5927    0.9453    3.2648 H   0  0  0  0  0  0  0  0  0  0  0  0
   -1.6290    1.7577    3.1034 H   0  0  0  0  0  0  0  0  0  0  0  0
   -2.2925    0.1342    3.0388 H   0  0  0  0  0  0  0  0  0  0  0  0
   -2.8785    2.6356    1.3801 H   0  0  0  0  0  0  0  0  0  0  0  0
   -3.1099    1.0896    0.5492 H   0  0  0  0  0  0  0  0  0  0  0  0
   -4.3894    1.7864    3.2729 H   0  0  0  0  0  0  0  0  0  0  0  0
   -5.1774    2.1507    1.7179 H   0  0  0  0  0  0  0  0  0  0  0  0
   -4.2869   -0.7358    2.3746 H   0  0  0  0  0  0  0  0  0  0  0  0
   -5.7809   -0.0679    3.0323 H   0  0  0  0  0  0  0  0  0  0  0  0
   -6.8666    0.0942    0.9990 H   0  0  0  0  0  0  0  0  0  0  0  0
   -5.9653   -1.4124    0.7647 H   0  0  0  0  0  0  0  0  0  0  0  0
   -5.2158    1.1286   -2.7141 H   0  0  0  0  0  0  0  0  0  0  0  0
   -3.8311    0.3118   -4.5791 H   0  0  0  0  0  0  0  0  0  0  0  0
   -2.0436   -2.6194   -1.9922 H   0  0  0  0  0  0  0  0  0  0  0  0
   -2.1062   -1.9648    2.0475 H   0  0  0  0  0  0  0  0  0  0  0  0
   -0.1815   -1.4345    0.5629 H   0  0  0  0  0  0  0  0  0  0  0  0
   -1.2174   -0.3844   -0.4168 H   0  0  0  0  0  0  0  0  0  0  0  0
   -0.1385    2.6211    1.3477 H   0  0  0  0  0  0  0  0  0  0  0  0
   -0.9374    1.9306   -0.0949 H   0  0  0  0  0  0  0  0  0  0  0  0
    1.0275    1.5520   -1.0650 H   0  0  0  0  0  0  0  0  0  0  0  0
    1.8576    2.3419    0.3203 H   0  0  0  0  0  0  0  0  0  0  0  0
  1  2  1  0
  2  3  1  0
  3  4  2  0
  4  5  1  0
  5  6  2  0
  6  7  1  0
  7  8  2  0
  8  9  1  0
  9 10  1  0
 10 11  2  0
 10 12  1  0
 12 13  1  0
 13 14  1  0
 14 15  1  0
 15 16  1  0
 16 17  1  0
 17 18  1  0
 18 19  1  0
 19 20  1  0
 20 21  1  0
 21 22  1  0
 22 23  2  0
 23 24  1  0
 24 25  2  0
 25 26  1  0
 25 27  1  0
 27 28  2  0
 28 29  1  0
 29 30  2  0
 29 31  1  0
 31 32  1  0
 15 33  1  0
 33 34  1  0
  8  3  1  0
 34 12  1  0
 32 15  1  0
 28 22  1  0
  1 35  1  0
  1 36  1  0
  1 37  1  0
  4 38  1  0
  5 39  1  0
  6 40  1  0
  7 41  1  0
  9 42  1  0
  9 43  1  0
 13 44  1  0
 13 45  1  0
 14 46  1  0
 14 47  1  0
 16 48  1  0
 16 49  1  0
 17 50  1  0
 17 51  1  0
 18 52  1  0
 18 53  1  0
 19 54  1  0
 19 55  1  0
 20 56  1  0
 20 57  1  0
 23 58  1  0
 24 59  1  0
 27 60  1  0
 31 61  1  0
 32 62  1  0
 32 63  1  0
 33 64  1  0
 33 65  1  0
 34 66  1  0
 34 67  1  0
M  END
$$$$
