
     RDKit          3D

102104  0  0  0  0  0  0  0  0999 V2000
   -3.3000   -4.9870    1.8733 C   0  0  0  0  0  0  0  0  0  0  0  0
   -2.9070   -5.2519    0.4101 C   0  0  0  0  0  0  0  0  0  0  0  0
   -4.1401   -5.5736   -0.4461 C   0  0  0  0  0  0  0  0  0  0  0  0
   -2.0153   -4.1315   -0.1873 C   0  0  0  0  0  0  0  0  0  0  0  0
   -2.6466   -2.7162   -0.2768 C   0  0  0  0  0  0  0  0  0  0  0  0
   -1.5937   -1.7136   -0.4740 N   0  0  0  0  0  0  0  0  0  0  0  0
   -0.7929   -1.2505    0.6221 C   0  0  0  0  0  0  0  0  0  0  0  0
   -1.2569   -0.3873    1.4120 O   0  0  0  0  0  0  0  0  0  0  0  0
    0.5942   -1.7863    0.8567 C   0  0  0  0  0  0  0  0  0  0  0  0
    1.4829   -1.8132   -0.4096 C   0  0  0  0  0  0  0  0  0  0  0  0
    1.9412   -0.4345   -0.9515 C   0  0  0  0  0  0  0  0  0  0  0  0
    2.7403    0.3488    0.0727 C   0  0  0  0  0  0  0  0  0  0  0  0
    2.1538    0.8792    1.0587 O   0  0  0  0  0  0  0  0  0  0  0  0
    4.1597    0.5101   -0.0928 N   0  0  0  0  0  0  0  0  0  0  0  0
    4.9550    1.4004    0.7515 C   0  0  0  0  0  0  0  0  0  0  0  0
    6.2955    0.7444    1.0969 C   0  0  0  0  0  0  0  0  0  0  0  0
    7.3130    0.8730   -0.0458 C   0  0  0  0  0  0  0  0  0  0  0  0
    8.4735    0.0215    0.2161 N   0  0  0  0  0  0  0  0  0  0  0  0
    9.7757    0.5130    0.6300 C   0  0  0  0  0  0  0  0  0  0  0  0
   10.6631   -0.7363    0.7922 C   0  0  0  0  0  0  0  0  0  0  0  0
    9.8939   -1.9202    0.1905 C   0  0  0  0  0  0  0  0  0  0  0  0
    8.5472   -1.3644   -0.0410 C   0  0  0  0  0  0  0  0  0  0  0  0
    7.5747   -2.0407   -0.4651 O   0  0  0  0  0  0  0  0  0  0  0  0
    0.8146    0.3310   -1.5043 N   0  0  0  0  0  0  0  0  0  0  0  0
    0.9610    1.6953   -1.9209 C   0  0  0  0  0  0  0  0  0  0  0  0
    0.9852    1.9689   -3.1516 O   0  0  0  0  0  0  0  0  0  0  0  0
    1.0894    2.7810   -0.9347 C   0  0  0  0  0  0  0  0  0  0  0  0
    2.2823    3.5210   -0.9157 C   0  0  0  0  0  0  0  0  0  0  0  0
    2.5378    4.4270    0.1154 C   0  0  0  0  0  0  0  0  0  0  0  0
    1.6025    4.6101    1.1331 C   0  0  0  0  0  0  0  0  0  0  0  0
    0.4000    3.9036    1.1116 C   0  0  0  0  0  0  0  0  0  0  0  0
    0.1103    3.0168    0.0645 C   0  0  0  0  0  0  0  0  0  0  0  0
   -1.1638    2.4222    0.0577 O   0  0  0  0  0  0  0  0  0  0  0  0
   -1.9514    2.2132   -1.1153 C   0  0  0  0  0  0  0  0  0  0  0  0
   -3.4590    2.2888   -0.7698 C   0  0  0  0  0  0  0  0  0  0  0  0
   -3.9655    3.7674   -0.7057 C   0  0  0  0  0  0  0  0  0  0  0  0
   -3.1592    4.6322    0.2809 C   0  0  0  0  0  0  0  0  0  0  0  0
   -5.4550    3.8336   -0.3324 C   0  0  0  0  0  0  0  0  0  0  0  0
   -4.2112    1.5579   -1.8017 N   0  0  0  0  0  0  0  0  0  0  0  0
   -5.1945    0.5426   -1.5366 C   0  0  0  0  0  0  0  0  0  0  0  0
   -6.2346    0.5146   -2.2495 O   0  0  0  0  0  0  0  0  0  0  0  0
   -4.9660   -0.5766   -0.5362 C   0  0  0  0  0  0  0  0  0  0  0  0
   -6.1351   -0.6770    0.4883 C   0  0  0  0  0  0  0  0  0  0  0  0
   -5.8850   -1.7950    1.5101 C   0  0  0  0  0  0  0  0  0  0  0  0
   -6.3597    0.6418    1.2416 C   0  0  0  0  0  0  0  0  0  0  0  0
   -4.8573   -1.8390   -1.2803 N   0  0  0  0  0  0  0  0  0  0  0  0
   -3.6522   -2.6055   -1.4092 C   0  0  0  0  0  0  0  0  0  0  0  0
   -3.4111   -3.1778   -2.5115 O   0  0  0  0  0  0  0  0  0  0  0  0
   -3.7414   -5.9026    2.3199 H   0  0  0  0  0  0  0  0  0  0  0  0
   -2.4074   -4.7100    2.4723 H   0  0  0  0  0  0  0  0  0  0  0  0
   -4.0527   -4.1763    1.9520 H   0  0  0  0  0  0  0  0  0  0  0  0
   -2.2779   -6.1702    0.4142 H   0  0  0  0  0  0  0  0  0  0  0  0
   -3.8501   -5.7119   -1.5057 H   0  0  0  0  0  0  0  0  0  0  0  0
   -4.6093   -6.5097   -0.0857 H   0  0  0  0  0  0  0  0  0  0  0  0
   -4.8952   -4.7634   -0.3821 H   0  0  0  0  0  0  0  0  0  0  0  0
   -1.6472   -4.4487   -1.1859 H   0  0  0  0  0  0  0  0  0  0  0  0
   -1.1094   -4.0779    0.4472 H   0  0  0  0  0  0  0  0  0  0  0  0
   -3.1594   -2.4993    0.6813 H   0  0  0  0  0  0  0  0  0  0  0  0
   -1.7329   -1.0240   -1.2585 H   0  0  0  0  0  0  0  0  0  0  0  0
    0.5118   -2.8197    1.2468 H   0  0  0  0  0  0  0  0  0  0  0  0
    1.0879   -1.2159    1.6736 H   0  0  0  0  0  0  0  0  0  0  0  0
    0.9589   -2.3694   -1.2212 H   0  0  0  0  0  0  0  0  0  0  0  0
    2.3969   -2.4068   -0.1629 H   0  0  0  0  0  0  0  0  0  0  0  0
    2.6151   -0.6536   -1.8081 H   0  0  0  0  0  0  0  0  0  0  0  0
    4.6104    0.1082   -0.9446 H   0  0  0  0  0  0  0  0  0  0  0  0
    5.1084    2.3684    0.2286 H   0  0  0  0  0  0  0  0  0  0  0  0
    4.4177    1.6122    1.6981 H   0  0  0  0  0  0  0  0  0  0  0  0
    6.1270   -0.3279    1.3461 H   0  0  0  0  0  0  0  0  0  0  0  0
    6.7194    1.2333    1.9978 H   0  0  0  0  0  0  0  0  0  0  0  0
    6.8660    0.5816   -1.0188 H   0  0  0  0  0  0  0  0  0  0  0  0
    7.6316    1.9391   -0.1308 H   0  0  0  0  0  0  0  0  0  0  0  0
    9.6898    1.0635    1.5907 H   0  0  0  0  0  0  0  0  0  0  0  0
   10.1947    1.1859   -0.1508 H   0  0  0  0  0  0  0  0  0  0  0  0
   10.8508   -0.9259    1.8725 H   0  0  0  0  0  0  0  0  0  0  0  0
   11.6443   -0.6030    0.2850 H   0  0  0  0  0  0  0  0  0  0  0  0
   10.3445   -2.2333   -0.7744 H   0  0  0  0  0  0  0  0  0  0  0  0
    9.8477   -2.7776    0.8933 H   0  0  0  0  0  0  0  0  0  0  0  0
    0.1759   -0.2237   -2.1148 H   0  0  0  0  0  0  0  0  0  0  0  0
    3.0437    3.3598   -1.6676 H   0  0  0  0  0  0  0  0  0  0  0  0
    3.4778    4.9654    0.1379 H   0  0  0  0  0  0  0  0  0  0  0  0
    1.8144    5.3029    1.9385 H   0  0  0  0  0  0  0  0  0  0  0  0
   -0.3238    4.0590    1.9013 H   0  0  0  0  0  0  0  0  0  0  0  0
   -1.7220    1.2118   -1.5285 H   0  0  0  0  0  0  0  0  0  0  0  0
   -1.7046    2.9664   -1.9002 H   0  0  0  0  0  0  0  0  0  0  0  0
   -3.6157    1.8153    0.2254 H   0  0  0  0  0  0  0  0  0  0  0  0
   -3.8541    4.2234   -1.7148 H   0  0  0  0  0  0  0  0  0  0  0  0
   -3.0784    4.1344    1.2709 H   0  0  0  0  0  0  0  0  0  0  0  0
   -2.1413    4.8288   -0.1161 H   0  0  0  0  0  0  0  0  0  0  0  0
   -3.6434    5.6275    0.4185 H   0  0  0  0  0  0  0  0  0  0  0  0
   -5.8202    4.8803   -0.3797 H   0  0  0  0  0  0  0  0  0  0  0  0
   -6.0657    3.2410   -1.0423 H   0  0  0  0  0  0  0  0  0  0  0  0
   -5.6130    3.4531    0.6973 H   0  0  0  0  0  0  0  0  0  0  0  0
   -4.1924    1.9517   -2.7714 H   0  0  0  0  0  0  0  0  0  0  0  0
   -4.0225   -0.3898    0.0163 H   0  0  0  0  0  0  0  0  0  0  0  0
   -7.0729   -0.9291   -0.0598 H   0  0  0  0  0  0  0  0  0  0  0  0
   -4.9492   -1.6013    2.0779 H   0  0  0  0  0  0  0  0  0  0  0  0
   -5.8009   -2.7789    1.0018 H   0  0  0  0  0  0  0  0  0  0  0  0
   -6.7333   -1.8664    2.2311 H   0  0  0  0  0  0  0  0  0  0  0  0
   -7.1111    0.5075    2.0477 H   0  0  0  0  0  0  0  0  0  0  0  0
   -5.4125    1.0011    1.6968 H   0  0  0  0  0  0  0  0  0  0  0  0
   -6.7539    1.4064    0.5418 H   0  0  0  0  0  0  0  0  0  0  0  0
   -5.6545   -2.0925   -1.9083 H   0  0  0  0  0  0  0  0  0  0  0  0
  1  2  1  0
  2  3  1  0
  2  4  1  0
  4  5  1  0
  5  6  1  0
  6  7  1  0
  7  8  2  0
  7  9  1  0
  9 10  1  0
 10 11  1  0
 11 12  1  0
 12 13  2  0
 12 14  1  0
 14 15  1  0
 15 16  1  0
 16 17  1  0
 17 18  1  0
 18 19  1  0
 19 20  1  0
 20 21  1  0
 21 22  1  0
 22 23  2  0
 11 24  1  0
 24 25  1  0
 25 26  2  0
 25 27  1  0
 27 28  2  0
 28 29  1  0
 29 30  2  0
 30 31  1  0
 31 32  2  0
 32 33  1  0
 33 34  1  0
 34 35  1  0
 35 36  1  0
 36 37  1  0
 36 38  1  0
 35 39  1  0
 39 40  1  0
 40 41  2  0
 40 42  1  0
 42 43  1  0
 43 44  1  0
 43 45  1  0
 42 46  1  0
 46 47  1  0
 47 48  2  0
 47  5  1  0
 22 18  1  0
 32 27  1  0
  1 49  1  0
  1 50  1  0
  1 51  1  0
  2 52  1  0
  3 53  1  0
  3 54  1  0
  3 55  1  0
  4 56  1  0
  4 57  1  0
  5 58  1  0
  6 59  1  0
  9 60  1  0
  9 61  1  0
 10 62  1  0
 10 63  1  0
 11 64  1  0
 14 65  1  0
 15 66  1  0
 15 67  1  0
 16 68  1  0
 16 69  1  0
 17 70  1  0
 17 71  1  0
 19 72  1  0
 19 73  1  0
 20 74  1  0
 20 75  1  0
 21 76  1  0
 21 77  1  0
 24 78  1  0
 28 79  1  0
 29 80  1  0
 30 81  1  0
 31 82  1  0
 34 83  1  0
 34 84  1  0
 35 85  1  0
 36 86  1  0
 37 87  1  0
 37 88  1  0
 37 89  1  0
 38 90  1  0
 38 91  1  0
 38 92  1  0
 39 93  1  0
 42 94  1  0
 43 95  1  0
 44 96  1  0
 44 97  1  0
 44 98  1  0
 45 99  1  0
 45100  1  0
 45101  1  0
 46102  1  0
M  END
$$$$
