
     RDKit          3D

 75 78  0  0  0  0  0  0  0  0999 V2000
    4.8120    3.3514    1.5404 C   0  0  0  0  0  0  0  0  0  0  0  0
    3.8348    2.1969    1.3401 C   0  0  0  0  0  0  0  0  0  0  0  0
    3.4944    2.0129   -0.1440 C   0  0  0  0  0  0  0  0  0  0  0  0
    2.5501    0.9025   -0.3429 N   0  0  0  0  0  0  0  0  0  0  0  0
    1.1603    1.1900   -0.7417 C   0  0  0  0  0  0  0  0  0  0  0  0
    0.3999    1.9999    0.3241 C   0  0  0  0  0  0  0  0  0  0  0  0
    0.2697    1.2928    1.6909 C   0  0  0  0  0  0  0  0  0  0  0  0
   -1.0538    0.5323    1.8997 C   0  0  0  0  0  0  0  0  0  0  0  0
   -1.2432   -0.6167    0.9833 N   0  0  0  0  0  0  0  0  0  0  0  0
   -2.0732   -0.4643   -0.1918 C   0  0  0  0  0  0  0  0  0  0  0  0
   -1.7051   -0.9848   -1.2802 O   0  0  0  0  0  0  0  0  0  0  0  0
   -3.4039    0.2596   -0.1380 C   0  0  0  0  0  0  0  0  0  0  0  0
   -4.4898   -0.5200   -0.9125 C   0  0  0  0  0  0  0  0  0  0  0  0
   -5.8854    0.0731   -0.7123 C   0  0  0  0  0  0  0  0  0  0  0  0
   -3.2635    1.6806   -0.6543 C   0  0  0  0  0  0  0  0  0  0  0  0
   -2.7840    1.9400   -1.9537 C   0  0  0  0  0  0  0  0  0  0  0  0
   -2.6533    3.2546   -2.4104 C   0  0  0  0  0  0  0  0  0  0  0  0
   -3.0065    4.3225   -1.5828 C   0  0  0  0  0  0  0  0  0  0  0  0
   -3.4973    4.0777   -0.2987 C   0  0  0  0  0  0  0  0  0  0  0  0
   -3.6306    2.7652    0.1633 C   0  0  0  0  0  0  0  0  0  0  0  0
   -0.6870   -1.9693    1.2546 C   0  0  0  0  0  0  0  0  0  0  0  0
   -0.7203   -2.3542    2.7465 C   0  0  0  0  0  0  0  0  0  0  0  0
   -0.3542   -3.8400    2.9496 C   0  0  0  0  0  0  0  0  0  0  0  0
    0.5960   -4.3931    1.8665 C   0  0  0  0  0  0  0  0  0  0  0  0
    1.5264   -3.3065    1.3162 C   0  0  0  0  0  0  0  0  0  0  0  0
    0.7434   -2.1295    0.6812 C   0  0  0  0  0  0  0  0  0  0  0  0
    0.6478   -2.3034   -0.7335 O   0  0  0  0  0  0  0  0  0  0  0  0
    1.6516   -2.1516   -1.7092 C   0  0  0  0  0  0  0  0  0  0  0  0
    1.4671   -2.8868   -2.8891 C   0  0  0  0  0  0  0  0  0  0  0  0
    2.3833   -2.8110   -3.9383 C   0  0  0  0  0  0  0  0  0  0  0  0
    3.4996   -1.9867   -3.8294 C   0  0  0  0  0  0  0  0  0  0  0  0
    3.6984   -1.2319   -2.6738 C   0  0  0  0  0  0  0  0  0  0  0  0
    2.7859   -1.2930   -1.6068 C   0  0  0  0  0  0  0  0  0  0  0  0
    3.0831   -0.4348   -0.4475 C   0  0  0  0  0  0  0  0  0  0  0  0
    3.9124   -0.8476    0.4066 O   0  0  0  0  0  0  0  0  0  0  0  0
    4.3636    4.3027    1.1828 H   0  0  0  0  0  0  0  0  0  0  0  0
    5.7559    3.1588    0.9873 H   0  0  0  0  0  0  0  0  0  0  0  0
    5.0487    3.4553    2.6199 H   0  0  0  0  0  0  0  0  0  0  0  0
    2.9108    2.4134    1.9151 H   0  0  0  0  0  0  0  0  0  0  0  0
    4.2904    1.2714    1.7484 H   0  0  0  0  0  0  0  0  0  0  0  0
    3.0648    2.9593   -0.5401 H   0  0  0  0  0  0  0  0  0  0  0  0
    4.4243    1.8181   -0.7235 H   0  0  0  0  0  0  0  0  0  0  0  0
    1.1691    1.7637   -1.6937 H   0  0  0  0  0  0  0  0  0  0  0  0
    0.6013    0.2601   -0.9409 H   0  0  0  0  0  0  0  0  0  0  0  0
    0.9182    2.9714    0.4704 H   0  0  0  0  0  0  0  0  0  0  0  0
   -0.6039    2.2570   -0.0674 H   0  0  0  0  0  0  0  0  0  0  0  0
    0.2930    2.0879    2.4688 H   0  0  0  0  0  0  0  0  0  0  0  0
    1.1445    0.6584    1.9205 H   0  0  0  0  0  0  0  0  0  0  0  0
   -1.8815    1.2604    1.8019 H   0  0  0  0  0  0  0  0  0  0  0  0
   -1.1100    0.2037    2.9558 H   0  0  0  0  0  0  0  0  0  0  0  0
   -3.7306    0.2728    0.9256 H   0  0  0  0  0  0  0  0  0  0  0  0
   -4.2589   -0.5392   -1.9993 H   0  0  0  0  0  0  0  0  0  0  0  0
   -4.5081   -1.5724   -0.5530 H   0  0  0  0  0  0  0  0  0  0  0  0
   -6.1397    0.1105    0.3686 H   0  0  0  0  0  0  0  0  0  0  0  0
   -6.6353   -0.5603   -1.2316 H   0  0  0  0  0  0  0  0  0  0  0  0
   -5.9385    1.0975   -1.1375 H   0  0  0  0  0  0  0  0  0  0  0  0
   -2.5062    1.1285   -2.6127 H   0  0  0  0  0  0  0  0  0  0  0  0
   -2.2771    3.4450   -3.4073 H   0  0  0  0  0  0  0  0  0  0  0  0
   -2.9032    5.3394   -1.9381 H   0  0  0  0  0  0  0  0  0  0  0  0
   -3.7756    4.9060    0.3401 H   0  0  0  0  0  0  0  0  0  0  0  0
   -4.0170    2.5964    1.1610 H   0  0  0  0  0  0  0  0  0  0  0  0
   -1.3400   -2.7160    0.7441 H   0  0  0  0  0  0  0  0  0  0  0  0
    0.0134   -1.7333    3.3064 H   0  0  0  0  0  0  0  0  0  0  0  0
   -1.7328   -2.1661    3.1663 H   0  0  0  0  0  0  0  0  0  0  0  0
   -1.2830   -4.4513    2.9507 H   0  0  0  0  0  0  0  0  0  0  0  0
    0.1181   -3.9573    3.9493 H   0  0  0  0  0  0  0  0  0  0  0  0
    1.2023   -5.2208    2.2941 H   0  0  0  0  0  0  0  0  0  0  0  0
   -0.0001   -4.8148    1.0273 H   0  0  0  0  0  0  0  0  0  0  0  0
    2.2198   -3.7555    0.5728 H   0  0  0  0  0  0  0  0  0  0  0  0
    2.1525   -2.9230    2.1524 H   0  0  0  0  0  0  0  0  0  0  0  0
    1.2776   -1.2152    0.9278 H   0  0  0  0  0  0  0  0  0  0  0  0
    0.6022   -3.5309   -2.9902 H   0  0  0  0  0  0  0  0  0  0  0  0
    2.2258   -3.3921   -4.8379 H   0  0  0  0  0  0  0  0  0  0  0  0
    4.2111   -1.9282   -4.6434 H   0  0  0  0  0  0  0  0  0  0  0  0
    4.5688   -0.5885   -2.6130 H   0  0  0  0  0  0  0  0  0  0  0  0
  1  2  1  0
  2  3  1  0
  3  4  1  0
  4  5  1  0
  5  6  1  0
  6  7  1  0
  7  8  1  0
  8  9  1  0
  9 10  1  0
 10 11  2  0
 10 12  1  0
 12 13  1  0
 13 14  1  0
 12 15  1  0
 15 16  2  0
 16 17  1  0
 17 18  2  0
 18 19  1  0
 19 20  2  0
  9 21  1  0
 21 22  1  0
 22 23  1  0
 23 24  1  0
 24 25  1  0
 25 26  1  0
 26 27  1  0
 27 28  1  0
 28 29  2  0
 29 30  1  0
 30 31  2  0
 31 32  1  0
 32 33  2  0
 33 34  1  0
 34 35  2  0
 34  4  1  0
 20 15  1  0
 26 21  1  0
 33 28  1  0
  1 36  1  0
  1 37  1  0
  1 38  1  0
  2 39  1  0
  2 40  1  0
  3 41  1  0
  3 42  1  0
  5 43  1  0
  5 44  1  0
  6 45  1  0
  6 46  1  0
  7 47  1  0
  7 48  1  0
  8 49  1  0
  8 50  1  0
 12 51  1  0
 13 52  1  0
 13 53  1  0
 14 54  1  0
 14 55  1  0
 14 56  1  0
 16 57  1  0
 17 58  1  0
 18 59  1  0
 19 60  1  0
 20 61  1  0
 21 62  1  0
 22 63  1  0
 22 64  1  0
 23 65  1  0
 23 66  1  0
 24 67  1  0
 24 68  1  0
 25 69  1  0
 25 70  1  0
 26 71  1  0
 29 72  1  0
 30 73  1  0
 31 74  1  0
 32 75  1  0
M  END
$$$$
