
     RDKit          3D

 71 73  0  0  0  0  0  0  0  0999 V2000
   -1.0133    0.1714    3.3703 O   0  0  0  0  0  0  0  0  0  0  0  0
   -1.9449    0.1404    2.5221 C   0  0  0  0  0  0  0  0  0  0  0  0
   -1.7460    0.8517    1.2011 C   0  0  0  0  0  0  0  0  0  0  0  0
   -0.8640    0.1347    0.2283 N   0  0  0  0  0  0  0  0  0  0  0  0
   -1.2008    0.5444   -1.1602 C   0  0  0  0  0  0  0  0  0  0  0  0
   -0.9162    2.0093   -1.3766 C   0  0  0  0  0  0  0  0  0  0  0  0
    0.4099    2.4504   -1.5093 C   0  0  0  0  0  0  0  0  0  0  0  0
    0.6879    3.8100   -1.6784 C   0  0  0  0  0  0  0  0  0  0  0  0
   -0.3567    4.7380   -1.7149 C   0  0  0  0  0  0  0  0  0  0  0  0
   -1.6798    4.3069   -1.5835 C   0  0  0  0  0  0  0  0  0  0  0  0
   -1.9613    2.9475   -1.4142 C   0  0  0  0  0  0  0  0  0  0  0  0
   -0.8357   -1.3423    0.4394 C   0  0  0  0  0  0  0  0  0  0  0  0
   -0.3836   -2.1660   -0.7554 C   0  0  0  0  0  0  0  0  0  0  0  0
   -1.3611   -2.8547   -1.5080 C   0  0  0  0  0  0  0  0  0  0  0  0
   -0.9801   -3.6322   -2.6095 C   0  0  0  0  0  0  0  0  0  0  0  0
    0.3576   -3.6887   -2.9980 C   0  0  0  0  0  0  0  0  0  0  0  0
    1.3265   -2.9813   -2.2859 C   0  0  0  0  0  0  0  0  0  0  0  0
    0.9753   -2.2281   -1.1551 C   0  0  0  0  0  0  0  0  0  0  0  0
    2.0456   -1.5229   -0.4209 C   0  0  0  0  0  0  0  0  0  0  0  0
    2.2178   -1.7545    0.8065 O   0  0  0  0  0  0  0  0  0  0  0  0
    2.9202   -0.6201   -1.1131 N   0  0  0  0  0  0  0  0  0  0  0  0
    4.0770    0.0009   -0.4697 C   0  0  0  0  0  0  0  0  0  0  0  0
    3.6344    1.1366    0.4653 C   0  0  0  0  0  0  0  0  0  0  0  0
    4.7953    1.6958    1.3032 C   0  0  0  0  0  0  0  0  0  0  0  0
    5.7343    2.5926    0.4800 C   0  0  0  0  0  0  0  0  0  0  0  0
    6.8987    3.1256    1.3207 C   0  0  0  0  0  0  0  0  0  0  0  0
    6.4358    4.0010    2.3153 O   0  0  0  0  0  0  0  0  0  0  0  0
   -2.7102   -2.7256   -1.1551 O   0  0  0  0  0  0  0  0  0  0  0  0
   -3.5990   -3.8269   -1.0233 C   0  0  0  0  0  0  0  0  0  0  0  0
   -4.8983   -3.3797   -0.3400 C   0  0  0  0  0  0  0  0  0  0  0  0
   -4.6700   -2.6668    1.0142 C   0  0  0  0  0  0  0  0  0  0  0  0
   -4.6316   -1.1343    0.8656 C   0  0  0  0  0  0  0  0  0  0  0  0
   -4.4400   -0.4074    2.2090 C   0  0  0  0  0  0  0  0  0  0  0  0
   -3.1191   -0.6485    2.8001 N   0  0  0  0  0  0  0  0  0  0  0  0
   -2.7351    1.0853    0.7580 H   0  0  0  0  0  0  0  0  0  0  0  0
   -1.2818    1.8369    1.4232 H   0  0  0  0  0  0  0  0  0  0  0  0
   -2.2604    0.3001   -1.3973 H   0  0  0  0  0  0  0  0  0  0  0  0
   -0.5771    0.0079   -1.9039 H   0  0  0  0  0  0  0  0  0  0  0  0
    1.2237    1.7385   -1.4873 H   0  0  0  0  0  0  0  0  0  0  0  0
    1.7127    4.1437   -1.7801 H   0  0  0  0  0  0  0  0  0  0  0  0
   -0.1411    5.7909   -1.8446 H   0  0  0  0  0  0  0  0  0  0  0  0
   -2.4875    5.0268   -1.6102 H   0  0  0  0  0  0  0  0  0  0  0  0
   -2.9908    2.6285   -1.3089 H   0  0  0  0  0  0  0  0  0  0  0  0
   -1.8200   -1.7128    0.7735 H   0  0  0  0  0  0  0  0  0  0  0  0
   -0.1679   -1.5638    1.2955 H   0  0  0  0  0  0  0  0  0  0  0  0
   -1.7229   -4.1636   -3.1898 H   0  0  0  0  0  0  0  0  0  0  0  0
    0.6451   -4.2760   -3.8604 H   0  0  0  0  0  0  0  0  0  0  0  0
    2.3596   -3.0388   -2.6061 H   0  0  0  0  0  0  0  0  0  0  0  0
    2.7635   -0.4438   -2.1319 H   0  0  0  0  0  0  0  0  0  0  0  0
    4.6461   -0.7716    0.0924 H   0  0  0  0  0  0  0  0  0  0  0  0
    4.7448    0.4102   -1.2573 H   0  0  0  0  0  0  0  0  0  0  0  0
    2.8605    0.7542    1.1639 H   0  0  0  0  0  0  0  0  0  0  0  0
    3.1720    1.9533   -0.1281 H   0  0  0  0  0  0  0  0  0  0  0  0
    4.3590    2.2970    2.1305 H   0  0  0  0  0  0  0  0  0  0  0  0
    5.3691    0.8598    1.7618 H   0  0  0  0  0  0  0  0  0  0  0  0
    5.1631    3.4508    0.0614 H   0  0  0  0  0  0  0  0  0  0  0  0
    6.1606    2.0148   -0.3675 H   0  0  0  0  0  0  0  0  0  0  0  0
    7.4797    2.2811    1.7615 H   0  0  0  0  0  0  0  0  0  0  0  0
    7.5875    3.6888    0.6551 H   0  0  0  0  0  0  0  0  0  0  0  0
    6.2780    3.4558    3.1295 H   0  0  0  0  0  0  0  0  0  0  0  0
   -3.1179   -4.6211   -0.4108 H   0  0  0  0  0  0  0  0  0  0  0  0
   -3.8359   -4.2441   -2.0251 H   0  0  0  0  0  0  0  0  0  0  0  0
   -5.5137   -4.2884   -0.1625 H   0  0  0  0  0  0  0  0  0  0  0  0
   -5.4764   -2.7306   -1.0343 H   0  0  0  0  0  0  0  0  0  0  0  0
   -3.7378   -3.0347    1.4947 H   0  0  0  0  0  0  0  0  0  0  0  0
   -5.5111   -2.9280    1.6931 H   0  0  0  0  0  0  0  0  0  0  0  0
   -5.6007   -0.7978    0.4369 H   0  0  0  0  0  0  0  0  0  0  0  0
   -3.8467   -0.8336    0.1480 H   0  0  0  0  0  0  0  0  0  0  0  0
   -4.6003    0.6837    2.0758 H   0  0  0  0  0  0  0  0  0  0  0  0
   -5.2238   -0.7553    2.9173 H   0  0  0  0  0  0  0  0  0  0  0  0
   -3.0806   -1.2815    3.6301 H   0  0  0  0  0  0  0  0  0  0  0  0
  1  2  2  0
  2  3  1  0
  3  4  1  0
  4  5  1  0
  5  6  1  0
  6  7  2  0
  7  8  1  0
  8  9  2  0
  9 10  1  0
 10 11  2  0
  4 12  1  0
 12 13  1  0
 13 14  2  0
 14 15  1  0
 15 16  2  0
 16 17  1  0
 17 18  2  0
 18 19  1  0
 19 20  2  0
 19 21  1  0
 21 22  1  0
 22 23  1  0
 23 24  1  0
 24 25  1  0
 25 26  1  0
 26 27  1  0
 14 28  1  0
 28 29  1  0
 29 30  1  0
 30 31  1  0
 31 32  1  0
 32 33  1  0
 33 34  1  0
 34  2  1  0
 11  6  1  0
 18 13  1  0
  3 35  1  0
  3 36  1  0
  5 37  1  0
  5 38  1  0
  7 39  1  0
  8 40  1  0
  9 41  1  0
 10 42  1  0
 11 43  1  0
 12 44  1  0
 12 45  1  0
 15 46  1  0
 16 47  1  0
 17 48  1  0
 21 49  1  0
 22 50  1  0
 22 51  1  0
 23 52  1  0
 23 53  1  0
 24 54  1  0
 24 55  1  0
 25 56  1  0
 25 57  1  0
 26 58  1  0
 26 59  1  0
 27 60  1  0
 29 61  1  0
 29 62  1  0
 30 63  1  0
 30 64  1  0
 31 65  1  0
 31 66  1  0
 32 67  1  0
 32 68  1  0
 33 69  1  0
 33 70  1  0
 34 71  1  0
M  END
$$$$
