
     RDKit          3D

 71 74  0  0  0  0  0  0  0  0999 V2000
   -2.2865    5.4184    0.5634 C   0  0  0  0  0  0  0  0  0  0  0  0
   -2.4003    4.0155    1.1525 C   0  0  0  0  0  0  0  0  0  0  0  0
   -2.4259    2.9975    0.0952 N   0  0  0  0  0  0  0  0  0  0  0  0
   -3.7071    2.6285   -0.5219 C   0  0  0  0  0  0  0  0  0  0  0  0
   -4.4104    1.5142    0.2609 C   0  0  0  0  0  0  0  0  0  0  0  0
   -3.9805    0.2341   -0.2009 O   0  0  0  0  0  0  0  0  0  0  0  0
   -4.4486   -0.9946    0.2979 C   0  0  0  0  0  0  0  0  0  0  0  0
   -5.3930   -1.0588    1.3438 C   0  0  0  0  0  0  0  0  0  0  0  0
   -5.8240   -2.2936    1.8334 C   0  0  0  0  0  0  0  0  0  0  0  0
   -5.3191   -3.4761    1.2941 C   0  0  0  0  0  0  0  0  0  0  0  0
   -4.3852   -3.4294    0.2575 C   0  0  0  0  0  0  0  0  0  0  0  0
   -3.9565   -2.1961   -0.2599 C   0  0  0  0  0  0  0  0  0  0  0  0
   -2.9223   -2.1724   -1.3589 C   0  0  0  0  0  0  0  0  0  0  0  0
   -1.4980   -2.0435   -0.7781 C   0  0  0  0  0  0  0  0  0  0  0  0
   -0.5759   -1.1239   -1.6004 C   0  0  0  0  0  0  0  0  0  0  0  0
   -0.9553    0.3774   -1.6027 C   0  0  0  0  0  0  0  0  0  0  0  0
   -0.6517    1.1716   -0.2984 C   0  0  0  0  0  0  0  0  0  0  0  0
    0.9013    1.2361   -0.0597 C   0  0  0  0  0  0  0  0  0  0  0  0
    1.3482    0.1613    0.8397 N   0  0  0  0  0  0  0  0  0  0  0  0
    2.6418   -0.4694    0.7048 C   0  0  0  0  0  0  0  0  0  0  0  0
    3.1101   -1.1303    1.6756 O   0  0  0  0  0  0  0  0  0  0  0  0
    3.4540   -0.3428   -0.5641 C   0  0  0  0  0  0  0  0  0  0  0  0
    4.6519   -1.2613   -0.5793 C   0  0  0  0  0  0  0  0  0  0  0  0
    4.4738   -2.6436   -0.7557 C   0  0  0  0  0  0  0  0  0  0  0  0
    5.5739   -3.5027   -0.7364 C   0  0  0  0  0  0  0  0  0  0  0  0
    6.8603   -2.9909   -0.5480 C   0  0  0  0  0  0  0  0  0  0  0  0
    7.0603   -1.6158   -0.3736 C   0  0  0  0  0  0  0  0  0  0  0  0
    8.3722   -1.1518   -0.1924 O   0  0  0  0  0  0  0  0  0  0  0  0
    8.7269    0.2191   -0.0369 C   0  0  0  0  0  0  0  0  0  0  0  0
    5.9471   -0.7507   -0.3847 C   0  0  0  0  0  0  0  0  0  0  0  0
    0.5470   -0.1212    2.0357 C   0  0  0  0  0  0  0  0  0  0  0  0
   -0.7373    0.7027    2.0231 C   0  0  0  0  0  0  0  0  0  0  0  0
   -1.3767    0.5677    0.7717 O   0  0  0  0  0  0  0  0  0  0  0  0
   -1.1877    2.5787   -0.5045 C   0  0  0  0  0  0  0  0  0  0  0  0
   -0.5632    3.3836   -1.2493 O   0  0  0  0  0  0  0  0  0  0  0  0
   -2.3458    6.1698    1.3793 H   0  0  0  0  0  0  0  0  0  0  0  0
   -3.1099    5.6070   -0.1560 H   0  0  0  0  0  0  0  0  0  0  0  0
   -1.3136    5.5428    0.0453 H   0  0  0  0  0  0  0  0  0  0  0  0
   -3.3271    3.9506    1.7622 H   0  0  0  0  0  0  0  0  0  0  0  0
   -1.5433    3.8365    1.8341 H   0  0  0  0  0  0  0  0  0  0  0  0
   -4.3729    3.5187   -0.5419 H   0  0  0  0  0  0  0  0  0  0  0  0
   -3.5641    2.3265   -1.5823 H   0  0  0  0  0  0  0  0  0  0  0  0
   -5.5043    1.6043    0.0894 H   0  0  0  0  0  0  0  0  0  0  0  0
   -4.2050    1.6170    1.3491 H   0  0  0  0  0  0  0  0  0  0  0  0
   -5.7981   -0.1604    1.7888 H   0  0  0  0  0  0  0  0  0  0  0  0
   -6.5472   -2.3336    2.6392 H   0  0  0  0  0  0  0  0  0  0  0  0
   -5.6493   -4.4319    1.6821 H   0  0  0  0  0  0  0  0  0  0  0  0
   -3.9942   -4.3567   -0.1414 H   0  0  0  0  0  0  0  0  0  0  0  0
   -2.9851   -3.1070   -1.9617 H   0  0  0  0  0  0  0  0  0  0  0  0
   -3.1662   -1.3590   -2.0712 H   0  0  0  0  0  0  0  0  0  0  0  0
   -1.0420   -3.0579   -0.7646 H   0  0  0  0  0  0  0  0  0  0  0  0
   -1.5158   -1.7294    0.2823 H   0  0  0  0  0  0  0  0  0  0  0  0
    0.4634   -1.2482   -1.2386 H   0  0  0  0  0  0  0  0  0  0  0  0
   -0.5841   -1.4843   -2.6521 H   0  0  0  0  0  0  0  0  0  0  0  0
   -2.0224    0.4925   -1.8693 H   0  0  0  0  0  0  0  0  0  0  0  0
   -0.4029    0.8536   -2.4428 H   0  0  0  0  0  0  0  0  0  0  0  0
    1.1792    2.2034    0.4163 H   0  0  0  0  0  0  0  0  0  0  0  0
    1.4335    1.2133   -1.0320 H   0  0  0  0  0  0  0  0  0  0  0  0
    2.8165   -0.5923   -1.4376 H   0  0  0  0  0  0  0  0  0  0  0  0
    3.7794    0.7139   -0.6734 H   0  0  0  0  0  0  0  0  0  0  0  0
    3.4811   -3.0531   -0.8992 H   0  0  0  0  0  0  0  0  0  0  0  0
    5.4286   -4.5682   -0.8661 H   0  0  0  0  0  0  0  0  0  0  0  0
    7.7076   -3.6648   -0.5386 H   0  0  0  0  0  0  0  0  0  0  0  0
    8.2421    0.6389    0.8713 H   0  0  0  0  0  0  0  0  0  0  0  0
    9.8276    0.2984    0.0786 H   0  0  0  0  0  0  0  0  0  0  0  0
    8.4208    0.7953   -0.9368 H   0  0  0  0  0  0  0  0  0  0  0  0
    6.0796    0.3144   -0.2426 H   0  0  0  0  0  0  0  0  0  0  0  0
    0.2828   -1.2006    2.0499 H   0  0  0  0  0  0  0  0  0  0  0  0
    1.1283    0.1193    2.9522 H   0  0  0  0  0  0  0  0  0  0  0  0
   -0.5225    1.7700    2.2526 H   0  0  0  0  0  0  0  0  0  0  0  0
   -1.4185    0.3236    2.8137 H   0  0  0  0  0  0  0  0  0  0  0  0
  1  2  1  0
  2  3  1  0
  3  4  1  0
  4  5  1  0
  5  6  1  0
  6  7  1  0
  7  8  2  0
  8  9  1  0
  9 10  2  0
 10 11  1  0
 11 12  2  0
 12 13  1  0
 13 14  1  0
 14 15  1  0
 15 16  1  0
 16 17  1  0
 17 18  1  0
 18 19  1  0
 19 20  1  0
 20 21  2  0
 20 22  1  0
 22 23  1  0
 23 24  2  0
 24 25  1  0
 25 26  2  0
 26 27  1  0
 27 28  1  0
 28 29  1  0
 27 30  2  0
 19 31  1  0
 31 32  1  0
 32 33  1  0
 17 34  1  0
 34 35  2  0
 34  3  1  0
 12  7  1  0
 33 17  1  0
 30 23  1  0
  1 36  1  0
  1 37  1  0
  1 38  1  0
  2 39  1  0
  2 40  1  0
  4 41  1  0
  4 42  1  0
  5 43  1  0
  5 44  1  0
  8 45  1  0
  9 46  1  0
 10 47  1  0
 11 48  1  0
 13 49  1  0
 13 50  1  0
 14 51  1  0
 14 52  1  0
 15 53  1  0
 15 54  1  0
 16 55  1  0
 16 56  1  0
 18 57  1  0
 18 58  1  0
 22 59  1  0
 22 60  1  0
 24 61  1  0
 25 62  1  0
 26 63  1  0
 29 64  1  0
 29 65  1  0
 29 66  1  0
 30 67  1  0
 31 68  1  0
 31 69  1  0
 32 70  1  0
 32 71  1  0
M  END
$$$$
