
     RDKit          3D

 68 71  0  0  0  0  0  0  0  0999 V2000
    2.9786    2.3945   -0.4565 O   0  0  0  0  0  0  0  0  0  0  0  0
    2.7020    1.3856    0.2512 C   0  0  0  0  0  0  0  0  0  0  0  0
    3.6322    0.2041    0.2055 C   0  0  0  0  0  0  0  0  0  0  0  0
    4.8724    0.5718   -0.3965 O   0  0  0  0  0  0  0  0  0  0  0  0
    5.9497   -0.3065   -0.5884 C   0  0  0  0  0  0  0  0  0  0  0  0
    7.1148    0.1907   -1.1860 C   0  0  0  0  0  0  0  0  0  0  0  0
    8.2168   -0.6445   -1.3937 C   0  0  0  0  0  0  0  0  0  0  0  0
    8.1615   -1.9863   -1.0083 C   0  0  0  0  0  0  0  0  0  0  0  0
    7.0036   -2.4956   -0.4120 C   0  0  0  0  0  0  0  0  0  0  0  0
    6.9361   -4.1803    0.0755 Cl  0  0  0  0  0  0  0  0  0  0  0  0
    5.8990   -1.6614   -0.2020 C   0  0  0  0  0  0  0  0  0  0  0  0
    1.4783    1.3736    1.0294 N   0  0  0  0  0  0  0  0  0  0  0  0
    1.2972    0.4288    2.1495 C   0  0  0  0  0  0  0  0  0  0  0  0
    0.9072   -0.9865    1.6935 C   0  0  0  0  0  0  0  0  0  0  0  0
   -0.2774   -0.9992    0.7112 C   0  0  0  0  0  0  0  0  0  0  0  0
   -1.0154   -2.3547    0.7524 C   0  0  0  0  0  0  0  0  0  0  0  0
   -2.3854   -2.4260   -0.0025 C   0  0  0  0  0  0  0  0  0  0  0  0
   -2.8743   -3.9045    0.0629 C   0  0  0  0  0  0  0  0  0  0  0  0
   -2.9714   -4.3526    1.3895 O   0  0  0  0  0  0  0  0  0  0  0  0
   -3.4550   -1.5196    0.7066 C   0  0  0  0  0  0  0  0  0  0  0  0
   -4.3307   -0.7436   -0.2717 C   0  0  0  0  0  0  0  0  0  0  0  0
   -3.4877    0.0375   -1.1753 N   0  0  0  0  0  0  0  0  0  0  0  0
   -2.3739   -0.5954   -1.8881 C   0  0  0  0  0  0  0  0  0  0  0  0
   -2.2135   -2.0803   -1.5237 C   0  0  0  0  0  0  0  0  0  0  0  0
   -3.9480    1.3243   -1.6032 C   0  0  0  0  0  0  0  0  0  0  0  0
   -4.5177    1.4392   -2.7220 O   0  0  0  0  0  0  0  0  0  0  0  0
   -3.8191    2.5021   -0.7241 C   0  0  0  0  0  0  0  0  0  0  0  0
   -4.9522    3.2916   -0.4709 C   0  0  0  0  0  0  0  0  0  0  0  0
   -4.8525    4.4386    0.3183 C   0  0  0  0  0  0  0  0  0  0  0  0
   -3.6185    4.8184    0.8455 C   0  0  0  0  0  0  0  0  0  0  0  0
   -2.4785    4.0559    0.5813 C   0  0  0  0  0  0  0  0  0  0  0  0
   -2.5663    2.8885   -0.2021 C   0  0  0  0  0  0  0  0  0  0  0  0
   -1.4332    2.1166   -0.5057 O   0  0  0  0  0  0  0  0  0  0  0  0
   -0.0868    2.5927   -0.4975 C   0  0  0  0  0  0  0  0  0  0  0  0
    0.5429    2.5098    0.9051 C   0  0  0  0  0  0  0  0  0  0  0  0
    3.8320   -0.1636    1.2327 H   0  0  0  0  0  0  0  0  0  0  0  0
    3.1556   -0.5953   -0.4014 H   0  0  0  0  0  0  0  0  0  0  0  0
    7.1661    1.2290   -1.4893 H   0  0  0  0  0  0  0  0  0  0  0  0
    9.1139   -0.2507   -1.8540 H   0  0  0  0  0  0  0  0  0  0  0  0
    9.0175   -2.6288   -1.1714 H   0  0  0  0  0  0  0  0  0  0  0  0
    5.0121   -2.0749    0.2588 H   0  0  0  0  0  0  0  0  0  0  0  0
    2.2243    0.3828    2.7596 H   0  0  0  0  0  0  0  0  0  0  0  0
    0.5093    0.7878    2.8474 H   0  0  0  0  0  0  0  0  0  0  0  0
    0.6524   -1.5577    2.6129 H   0  0  0  0  0  0  0  0  0  0  0  0
    1.7709   -1.5096    1.2364 H   0  0  0  0  0  0  0  0  0  0  0  0
   -0.9663   -0.1686    0.9574 H   0  0  0  0  0  0  0  0  0  0  0  0
    0.1290   -0.8276   -0.3068 H   0  0  0  0  0  0  0  0  0  0  0  0
   -1.1994   -2.6165    1.8178 H   0  0  0  0  0  0  0  0  0  0  0  0
   -0.3269   -3.1283    0.3447 H   0  0  0  0  0  0  0  0  0  0  0  0
   -3.8724   -3.9916   -0.4261 H   0  0  0  0  0  0  0  0  0  0  0  0
   -2.1653   -4.5623   -0.4901 H   0  0  0  0  0  0  0  0  0  0  0  0
   -3.3511   -5.2681    1.3458 H   0  0  0  0  0  0  0  0  0  0  0  0
   -2.9877   -0.7841    1.3911 H   0  0  0  0  0  0  0  0  0  0  0  0
   -4.1263   -2.1164    1.3626 H   0  0  0  0  0  0  0  0  0  0  0  0
   -4.9568   -1.4464   -0.8630 H   0  0  0  0  0  0  0  0  0  0  0  0
   -5.0094   -0.0762    0.3048 H   0  0  0  0  0  0  0  0  0  0  0  0
   -2.5445   -0.5198   -2.9850 H   0  0  0  0  0  0  0  0  0  0  0  0
   -1.4384   -0.0492   -1.6772 H   0  0  0  0  0  0  0  0  0  0  0  0
   -1.2307   -2.4432   -1.8969 H   0  0  0  0  0  0  0  0  0  0  0  0
   -2.9816   -2.6249   -2.1187 H   0  0  0  0  0  0  0  0  0  0  0  0
   -5.9162    3.0144   -0.8800 H   0  0  0  0  0  0  0  0  0  0  0  0
   -5.7326    5.0372    0.5165 H   0  0  0  0  0  0  0  0  0  0  0  0
   -3.5425    5.7113    1.4522 H   0  0  0  0  0  0  0  0  0  0  0  0
   -1.5339    4.3848    0.9894 H   0  0  0  0  0  0  0  0  0  0  0  0
   -0.0582    3.6397   -0.8711 H   0  0  0  0  0  0  0  0  0  0  0  0
    0.4911    1.9833   -1.2218 H   0  0  0  0  0  0  0  0  0  0  0  0
   -0.2655    2.4536    1.6653 H   0  0  0  0  0  0  0  0  0  0  0  0
    1.0970    3.4523    1.1105 H   0  0  0  0  0  0  0  0  0  0  0  0
  1  2  2  0
  2  3  1  0
  3  4  1  0
  4  5  1  0
  5  6  2  0
  6  7  1  0
  7  8  2  0
  8  9  1  0
  9 10  1  0
  9 11  2  0
  2 12  1  0
 12 13  1  0
 13 14  1  0
 14 15  1  0
 15 16  1  0
 16 17  1  0
 17 18  1  0
 18 19  1  0
 17 20  1  0
 20 21  1  0
 21 22  1  0
 22 23  1  0
 23 24  1  0
 22 25  1  0
 25 26  2  0
 25 27  1  0
 27 28  2  0
 28 29  1  0
 29 30  2  0
 30 31  1  0
 31 32  2  0
 32 33  1  0
 33 34  1  0
 34 35  1  0
 11  5  1  0
 35 12  1  0
 24 17  1  0
 32 27  1  0
  3 36  1  0
  3 37  1  0
  6 38  1  0
  7 39  1  0
  8 40  1  0
 11 41  1  0
 13 42  1  0
 13 43  1  0
 14 44  1  0
 14 45  1  0
 15 46  1  0
 15 47  1  0
 16 48  1  0
 16 49  1  0
 18 50  1  0
 18 51  1  0
 19 52  1  0
 20 53  1  0
 20 54  1  0
 21 55  1  0
 21 56  1  0
 23 57  1  0
 23 58  1  0
 24 59  1  0
 24 60  1  0
 28 61  1  0
 29 62  1  0
 30 63  1  0
 31 64  1  0
 34 65  1  0
 34 66  1  0
 35 67  1  0
 35 68  1  0
M  END
$$$$
