
     RDKit          3D

 66 67  0  0  0  0  0  0  0  0999 V2000
   -5.5635   -1.4460   -1.0791 C   0  0  0  0  0  0  0  0  0  0  0  0
   -4.3441   -0.8592   -1.4826 O   0  0  0  0  0  0  0  0  0  0  0  0
   -3.7932   -0.0715   -0.4383 C   0  0  0  0  0  0  0  0  0  0  0  0
   -2.2762   -0.3144   -0.3995 C   0  0  0  0  0  0  0  0  0  0  0  0
   -1.8990   -1.7334   -0.1955 N   0  0  0  0  0  0  0  0  0  0  0  0
   -2.3654   -2.4357    0.9776 C   0  0  0  0  0  0  0  0  0  0  0  0
   -2.4229   -3.9314    1.0116 C   0  0  0  0  0  0  0  0  0  0  0  0
   -2.6906   -1.7910    2.0107 O   0  0  0  0  0  0  0  0  0  0  0  0
   -0.7485   -2.2844   -0.9517 C   0  0  0  0  0  0  0  0  0  0  0  0
    0.6059   -2.0643   -0.2170 C   0  0  0  0  0  0  0  0  0  0  0  0
    0.6820   -0.6357    0.3346 C   0  0  0  0  0  0  0  0  0  0  0  0
    1.9961   -0.1168    0.7427 N   0  0  0  0  0  0  0  0  0  0  0  0
    3.0476   -1.0207    1.1079 C   0  0  0  0  0  0  0  0  0  0  0  0
    2.8612   -1.8318    2.0534 O   0  0  0  0  0  0  0  0  0  0  0  0
    4.3277   -1.0072    0.3715 C   0  0  0  0  0  0  0  0  0  0  0  0
    4.6962    0.0624   -0.8780 S   0  0  0  0  0  0  0  0  0  0  0  0
    6.2166   -0.5978   -1.1507 C   0  0  0  0  0  0  0  0  0  0  0  0
    7.2148   -0.0725   -2.1268 C   0  0  0  0  0  0  0  0  0  0  0  0
    6.4703   -1.6199   -0.3052 N   0  0  0  0  0  0  0  0  0  0  0  0
    5.4275   -1.8623    0.5369 C   0  0  0  0  0  0  0  0  0  0  0  0
    5.4895   -2.9794    1.5311 C   0  0  0  0  0  0  0  0  0  0  0  0
    2.0950    1.2928    1.2042 C   0  0  0  0  0  0  0  0  0  0  0  0
    0.9097    2.1614    0.7196 C   0  0  0  0  0  0  0  0  0  0  0  0
    0.8577    3.5816    1.2752 C   0  0  0  0  0  0  0  0  0  0  0  0
   -0.3489    4.3386    0.6821 C   0  0  0  0  0  0  0  0  0  0  0  0
   -1.5770    3.7215    1.0544 O   0  0  0  0  0  0  0  0  0  0  0  0
   -2.2248    3.1368   -0.0682 C   0  0  0  0  0  0  0  0  0  0  0  0
   -3.5223    2.4169    0.3823 C   0  0  0  0  0  0  0  0  0  0  0  0
   -4.4796    3.3758    0.7596 O   0  0  0  0  0  0  0  0  0  0  0  0
   -4.1250    1.4356   -0.6867 C   0  0  0  0  0  0  0  0  0  0  0  0
   -3.7338    1.8202   -1.9826 O   0  0  0  0  0  0  0  0  0  0  0  0
   -5.3852   -2.2097   -0.2917 H   0  0  0  0  0  0  0  0  0  0  0  0
   -6.2876   -0.6823   -0.7194 H   0  0  0  0  0  0  0  0  0  0  0  0
   -6.0178   -1.9576   -1.9508 H   0  0  0  0  0  0  0  0  0  0  0  0
   -4.1970   -0.3390    0.5687 H   0  0  0  0  0  0  0  0  0  0  0  0
   -1.8352    0.0692   -1.3456 H   0  0  0  0  0  0  0  0  0  0  0  0
   -1.8656    0.2774    0.4382 H   0  0  0  0  0  0  0  0  0  0  0  0
   -3.0603   -4.2742    1.8546 H   0  0  0  0  0  0  0  0  0  0  0  0
   -2.8596   -4.3114    0.0633 H   0  0  0  0  0  0  0  0  0  0  0  0
   -1.3996   -4.3421    1.1428 H   0  0  0  0  0  0  0  0  0  0  0  0
   -0.6959   -1.8084   -1.9561 H   0  0  0  0  0  0  0  0  0  0  0  0
   -0.8924   -3.3692   -1.1450 H   0  0  0  0  0  0  0  0  0  0  0  0
    0.6981   -2.7929    0.6170 H   0  0  0  0  0  0  0  0  0  0  0  0
    1.4375   -2.2392   -0.9322 H   0  0  0  0  0  0  0  0  0  0  0  0
    0.0162   -0.5857    1.2222 H   0  0  0  0  0  0  0  0  0  0  0  0
    0.3235    0.0120   -0.4887 H   0  0  0  0  0  0  0  0  0  0  0  0
    7.9808    0.5182   -1.5840 H   0  0  0  0  0  0  0  0  0  0  0  0
    6.7170    0.5769   -2.8782 H   0  0  0  0  0  0  0  0  0  0  0  0
    7.7076   -0.9181   -2.6515 H   0  0  0  0  0  0  0  0  0  0  0  0
    4.6596   -3.6968    1.3393 H   0  0  0  0  0  0  0  0  0  0  0  0
    6.4532   -3.5262    1.4348 H   0  0  0  0  0  0  0  0  0  0  0  0
    5.4079   -2.5763    2.5634 H   0  0  0  0  0  0  0  0  0  0  0  0
    2.1244    1.3065    2.3151 H   0  0  0  0  0  0  0  0  0  0  0  0
    3.0382    1.7432    0.8311 H   0  0  0  0  0  0  0  0  0  0  0  0
   -0.0301    1.6852    1.0523 H   0  0  0  0  0  0  0  0  0  0  0  0
    0.9403    2.2161   -0.3911 H   0  0  0  0  0  0  0  0  0  0  0  0
    1.7941    4.1182    1.0172 H   0  0  0  0  0  0  0  0  0  0  0  0
    0.7626    3.5468    2.3821 H   0  0  0  0  0  0  0  0  0  0  0  0
   -0.3464    5.3675    1.1007 H   0  0  0  0  0  0  0  0  0  0  0  0
   -0.2114    4.4543   -0.4202 H   0  0  0  0  0  0  0  0  0  0  0  0
   -2.4918    3.9276   -0.8055 H   0  0  0  0  0  0  0  0  0  0  0  0
   -1.5523    2.4132   -0.5742 H   0  0  0  0  0  0  0  0  0  0  0  0
   -3.2878    1.8385    1.3011 H   0  0  0  0  0  0  0  0  0  0  0  0
   -4.7521    3.8688   -0.0576 H   0  0  0  0  0  0  0  0  0  0  0  0
   -5.2357    1.5179   -0.6080 H   0  0  0  0  0  0  0  0  0  0  0  0
   -4.4404    1.5031   -2.6086 H   0  0  0  0  0  0  0  0  0  0  0  0
  1  2  1  0
  2  3  1  0
  3  4  1  0
  4  5  1  0
  5  6  1  0
  6  7  1  0
  6  8  2  0
  5  9  1  0
  9 10  1  0
 10 11  1  0
 11 12  1  0
 12 13  1  0
 13 14  2  0
 13 15  1  0
 15 16  1  0
 16 17  1  0
 17 18  1  0
 17 19  2  0
 19 20  1  0
 20 21  1  0
 12 22  1  0
 22 23  1  0
 23 24  1  0
 24 25  1  0
 25 26  1  0
 26 27  1  0
 27 28  1  0
 28 29  1  0
 28 30  1  0
 30 31  1  0
 30  3  1  0
 20 15  2  0
  1 32  1  0
  1 33  1  0
  1 34  1  0
  3 35  1  0
  4 36  1  0
  4 37  1  0
  7 38  1  0
  7 39  1  0
  7 40  1  0
  9 41  1  0
  9 42  1  0
 10 43  1  0
 10 44  1  0
 11 45  1  0
 11 46  1  0
 18 47  1  0
 18 48  1  0
 18 49  1  0
 21 50  1  0
 21 51  1  0
 21 52  1  0
 22 53  1  0
 22 54  1  0
 23 55  1  0
 23 56  1  0
 24 57  1  0
 24 58  1  0
 25 59  1  0
 25 60  1  0
 27 61  1  0
 27 62  1  0
 28 63  1  0
 29 64  1  0
 30 65  1  0
 31 66  1  0
M  END
$$$$
