
     RDKit          3D

 72 73  0  0  0  0  0  0  0  0999 V2000
   -5.2314    3.2593    1.4843 C   0  0  0  0  0  0  0  0  0  0  0  0
   -4.6643    2.2216    0.5053 C   0  0  0  0  0  0  0  0  0  0  0  0
   -5.8186    1.4942   -0.1983 C   0  0  0  0  0  0  0  0  0  0  0  0
   -3.7136    1.2533    1.2618 C   0  0  0  0  0  0  0  0  0  0  0  0
   -2.9025    0.2598    0.3825 C   0  0  2  0  0  0  0  0  0  0  0  0
   -2.3244    0.9553   -0.7743 N   0  0  0  0  0  0  0  0  0  0  0  0
   -1.1650    1.7982   -0.6790 C   0  0  0  0  0  0  0  0  0  0  0  0
   -1.1887    2.9274   -1.2415 O   0  0  0  0  0  0  0  0  0  0  0  0
    0.0852    1.3573    0.0516 C   0  0  2  0  0  0  0  0  0  0  0  0
    0.1960    2.0724    1.3976 C   0  0  0  0  0  0  0  0  0  0  0  0
    1.2731    1.6399   -0.7647 N   0  0  0  0  0  0  0  0  0  0  0  0
    2.4072    0.7663   -0.8791 C   0  0  0  0  0  0  0  0  0  0  0  0
    3.0593    0.7655   -1.9583 O   0  0  0  0  0  0  0  0  0  0  0  0
    2.9196   -0.0590    0.2864 C   0  0  2  0  0  0  0  0  0  0  0  0
    3.9233    0.7678    1.1262 C   0  0  0  0  0  0  0  0  0  0  0  0
    5.1378    1.2140    0.3444 C   0  0  0  0  0  0  0  0  0  0  0  0
    5.1443    2.4644   -0.2992 C   0  0  0  0  0  0  0  0  0  0  0  0
    6.2545    2.8679   -1.0463 C   0  0  0  0  0  0  0  0  0  0  0  0
    7.3667    2.0293   -1.1548 C   0  0  0  0  0  0  0  0  0  0  0  0
    7.3719    0.7876   -0.5141 C   0  0  0  0  0  0  0  0  0  0  0  0
    6.2635    0.3797    0.2341 C   0  0  0  0  0  0  0  0  0  0  0  0
    3.5465   -1.3030   -0.2058 N   0  0  0  0  0  0  0  0  0  0  0  0
    2.5504   -2.3083   -0.6160 C   0  0  0  0  0  0  0  0  0  0  0  0
    2.0013   -3.1281    0.5813 C   0  0  0  0  0  0  0  0  0  0  0  0
    0.4723   -3.0654    0.6883 C   0  0  0  0  0  0  0  0  0  0  0  0
   -0.2293   -3.8468   -0.4378 C   0  0  0  0  0  0  0  0  0  0  0  0
   -1.7158   -3.4773   -0.5393 C   0  0  0  0  0  0  0  0  0  0  0  0
   -1.9329   -2.1889   -1.3474 C   0  0  0  0  0  0  0  0  0  0  0  0
   -3.3198   -1.7315   -1.2051 N   0  0  0  0  0  0  0  0  0  0  0  0
   -4.3612   -2.2890   -2.0715 C   0  0  0  0  0  0  0  0  0  0  0  0
   -3.7158   -0.9413   -0.0672 C   0  0  0  0  0  0  0  0  0  0  0  0
   -4.7288   -1.2953    0.5977 O   0  0  0  0  0  0  0  0  0  0  0  0
   -5.8214    2.7626    2.2854 H   0  0  0  0  0  0  0  0  0  0  0  0
   -4.4058    3.8392    1.9517 H   0  0  0  0  0  0  0  0  0  0  0  0
   -5.8875    3.9788    0.9483 H   0  0  0  0  0  0  0  0  0  0  0  0
   -4.0878    2.7825   -0.2619 H   0  0  0  0  0  0  0  0  0  0  0  0
   -6.5244    2.2307   -0.6381 H   0  0  0  0  0  0  0  0  0  0  0  0
   -6.3767    0.8566    0.5199 H   0  0  0  0  0  0  0  0  0  0  0  0
   -5.4395    0.8735   -1.0357 H   0  0  0  0  0  0  0  0  0  0  0  0
   -2.9766    1.8775    1.8116 H   0  0  0  0  0  0  0  0  0  0  0  0
   -4.2792    0.7003    2.0445 H   0  0  0  0  0  0  0  0  0  0  0  0
   -2.0874   -0.1485    1.0164 H   0  0  0  0  0  0  0  0  0  0  0  0
   -2.9417    1.1020   -1.6046 H   0  0  0  0  0  0  0  0  0  0  0  0
    0.0190    0.2676    0.2239 H   0  0  0  0  0  0  0  0  0  0  0  0
    1.0936    1.7241    1.9462 H   0  0  0  0  0  0  0  0  0  0  0  0
    0.2687    3.1710    1.2536 H   0  0  0  0  0  0  0  0  0  0  0  0
   -0.6855    1.8474    2.0302 H   0  0  0  0  0  0  0  0  0  0  0  0
    1.2789    2.4949   -1.3673 H   0  0  0  0  0  0  0  0  0  0  0  0
    2.0811   -0.3160    0.9665 H   0  0  0  0  0  0  0  0  0  0  0  0
    4.2469    0.1685    2.0052 H   0  0  0  0  0  0  0  0  0  0  0  0
    3.4086    1.6591    1.5440 H   0  0  0  0  0  0  0  0  0  0  0  0
    4.2864    3.1217   -0.2285 H   0  0  0  0  0  0  0  0  0  0  0  0
    6.2510    3.8295   -1.5444 H   0  0  0  0  0  0  0  0  0  0  0  0
    8.2236    2.3409   -1.7366 H   0  0  0  0  0  0  0  0  0  0  0  0
    8.2355    0.1404   -0.5979 H   0  0  0  0  0  0  0  0  0  0  0  0
    6.2854   -0.5832    0.7283 H   0  0  0  0  0  0  0  0  0  0  0  0
    4.1649   -1.7200    0.5282 H   0  0  0  0  0  0  0  0  0  0  0  0
    1.7323   -1.8255   -1.1959 H   0  0  0  0  0  0  0  0  0  0  0  0
    3.0433   -3.0086   -1.3240 H   0  0  0  0  0  0  0  0  0  0  0  0
    2.4219   -2.7552    1.5415 H   0  0  0  0  0  0  0  0  0  0  0  0
    2.3213   -4.1903    0.4872 H   0  0  0  0  0  0  0  0  0  0  0  0
    0.1658   -3.5022    1.6636 H   0  0  0  0  0  0  0  0  0  0  0  0
    0.1548   -2.0035    0.7000 H   0  0  0  0  0  0  0  0  0  0  0  0
    0.2627   -3.6745   -1.4201 H   0  0  0  0  0  0  0  0  0  0  0  0
   -0.1427   -4.9336   -0.2175 H   0  0  0  0  0  0  0  0  0  0  0  0
   -2.2584   -4.3049   -1.0459 H   0  0  0  0  0  0  0  0  0  0  0  0
   -2.1488   -3.3694    0.4793 H   0  0  0  0  0  0  0  0  0  0  0  0
   -1.7016   -2.3799   -2.4183 H   0  0  0  0  0  0  0  0  0  0  0  0
   -1.2322   -1.3985   -1.0172 H   0  0  0  0  0  0  0  0  0  0  0  0
   -4.9500   -1.4633   -2.5249 H   0  0  0  0  0  0  0  0  0  0  0  0
   -5.0379   -2.9409   -1.4786 H   0  0  0  0  0  0  0  0  0  0  0  0
   -3.9213   -2.8979   -2.8908 H   0  0  0  0  0  0  0  0  0  0  0  0
  1  2  1  0
  2  3  1  0
  2  4  1  0
  4  5  1  0
  5  6  1  0
  6  7  1  0
  7  8  2  0
  7  9  1  0
  9 10  1  0
  9 11  1  0
 11 12  1  0
 12 13  2  0
 12 14  1  0
 14 15  1  0
 15 16  1  0
 16 17  2  0
 17 18  1  0
 18 19  2  0
 19 20  1  0
 20 21  2  0
 14 22  1  0
 22 23  1  0
 23 24  1  0
 24 25  1  0
 25 26  1  0
 26 27  1  0
 27 28  1  0
 28 29  1  0
 29 30  1  0
 29 31  1  0
 31 32  2  0
 31  5  1  0
 21 16  1  0
  1 33  1  0
  1 34  1  0
  1 35  1  0
  2 36  1  0
  3 37  1  0
  3 38  1  0
  3 39  1  0
  4 40  1  0
  4 41  1  0
  5 42  1  1
  6 43  1  0
  9 44  1  1
 10 45  1  0
 10 46  1  0
 10 47  1  0
 11 48  1  0
 14 49  1  1
 15 50  1  0
 15 51  1  0
 17 52  1  0
 18 53  1  0
 19 54  1  0
 20 55  1  0
 21 56  1  0
 22 57  1  0
 23 58  1  0
 23 59  1  0
 24 60  1  0
 24 61  1  0
 25 62  1  0
 25 63  1  0
 26 64  1  0
 26 65  1  0
 27 66  1  0
 27 67  1  0
 28 68  1  0
 28 69  1  0
 30 70  1  0
 30 71  1  0
 30 72  1  0
M  END
$$$$
