
     RDKit          3D

119123  0  0  0  0  0  0  0  0999 V2000
   -2.8402    0.0500    1.9302 C   0  0  0  0  0  0  0  0  0  0  0  0
   -3.8591   -0.2118    0.7871 C   0  0  1  0  0  0  0  0  0  0  0  0
   -3.2029   -0.6440   -0.5537 C   0  0  0  0  0  0  0  0  0  0  0  0
   -1.9430    0.0352   -0.9173 N   0  0  0  0  0  0  0  0  0  0  0  0
   -1.8770    1.4751   -1.2723 C   0  0  2  0  0  0  0  0  0  0  0  0
   -1.9187    2.4044   -0.0531 C   0  0  0  0  0  0  0  0  0  0  0  0
   -2.9112    1.8710   -2.3511 C   0  0  0  0  0  0  0  0  0  0  0  0
   -4.2014    2.0014   -1.8163 O   0  0  0  0  0  0  0  0  0  0  0  0
   -0.9902   -0.7902   -1.6069 C   0  0  0  0  0  0  0  0  0  0  0  0
   -1.1711   -1.0296   -2.8402 O   0  0  0  0  0  0  0  0  0  0  0  0
    0.2591   -1.2609   -0.9801 C   0  0  0  0  0  0  0  0  0  0  0  0
    1.4599   -0.9946   -1.6624 C   0  0  0  0  0  0  0  0  0  0  0  0
    2.6768   -1.5299   -1.2230 C   0  0  0  0  0  0  0  0  0  0  0  0
    3.8714   -1.2724   -1.9824 N   0  0  0  0  0  0  0  0  0  0  0  0
    5.1996   -1.2200   -1.4318 C   0  0  0  0  0  0  0  0  0  0  0  0
    5.3710   -1.1303   -0.1877 O   0  0  0  0  0  0  0  0  0  0  0  0
    6.3801   -1.2787   -2.3718 C   0  0  0  0  0  0  0  0  0  0  0  0
    7.7537   -1.1219   -1.6846 C   0  0  0  0  0  0  0  0  0  0  0  0
    8.0702    0.3177   -1.2381 C   0  0  0  0  0  0  0  0  0  0  0  0
    8.3924    1.2429   -2.4278 C   0  0  0  0  0  0  0  0  0  0  0  0
    8.9523    2.5980   -1.9689 C   0  0  0  0  0  0  0  0  0  0  0  0
   10.3714    2.4861   -1.4850 C   0  0  0  0  0  0  0  0  0  0  0  0
   11.2734    2.1334   -2.2908 O   0  0  0  0  0  0  0  0  0  0  0  0
   10.7124    2.8218   -0.1326 N   0  0  0  0  0  0  0  0  0  0  0  0
   11.9566    2.4383    0.4717 C   0  0  0  0  0  0  0  0  0  0  0  0
   12.4564    1.1351    0.2823 C   0  0  0  0  0  0  0  0  0  0  0  0
   13.6379    0.7319    0.9129 C   0  0  0  0  0  0  0  0  0  0  0  0
   14.3361    1.6175    1.7324 C   0  0  0  0  0  0  0  0  0  0  0  0
   13.8479    2.9085    1.9384 C   0  0  0  0  0  0  0  0  0  0  0  0
   12.6561    3.3317    1.3231 C   0  0  0  0  0  0  0  0  0  0  0  0
   12.2057    4.6759    1.5298 N   0  0  0  0  0  0  0  0  0  0  0  0
    2.6779   -2.4085   -0.1319 C   0  0  0  0  0  0  0  0  0  0  0  0
    1.4874   -2.6971    0.5411 C   0  0  0  0  0  0  0  0  0  0  0  0
    0.2687   -2.0842    0.1731 C   0  0  0  0  0  0  0  0  0  0  0  0
   -0.9336   -2.2737    0.8969 O   0  0  0  0  0  0  0  0  0  0  0  0
   -1.2080   -3.1416    2.0137 C   0  0  2  0  0  0  0  0  0  0  0  0
   -0.1982   -3.0207    3.1713 C   0  0  0  0  0  0  0  0  0  0  0  0
   -1.4523   -4.5910    1.5554 C   0  0  0  0  0  0  0  0  0  0  0  0
   -2.6995   -4.7438    0.6444 C   0  0  0  0  0  0  0  0  0  0  0  0
   -4.0435   -4.8970    1.4101 C   0  0  0  0  0  0  0  0  0  0  0  0
   -4.9483   -3.6362    1.4910 C   0  0  0  0  0  0  0  0  0  0  0  0
   -4.1711   -2.4640    1.5019 O   0  0  0  0  0  0  0  0  0  0  0  0
   -4.9067   -1.2830    1.2122 C   0  0  1  0  0  0  0  0  0  0  0  0
   -5.7316   -0.8137    2.4339 C   0  0  0  0  0  0  0  0  0  0  0  0
   -7.1319   -1.2592    2.3574 N   0  0  0  0  0  0  0  0  0  0  0  0
   -7.6489   -2.2113    3.3507 C   0  0  0  0  0  0  0  0  0  0  0  0
   -8.0842   -0.6571    1.4404 C   0  0  0  0  0  0  0  0  0  0  0  0
   -9.2951   -1.0258    1.4783 O   0  0  0  0  0  0  0  0  0  0  0  0
   -7.7042    0.3912    0.5252 N   0  0  0  0  0  0  0  0  0  0  0  0
   -8.6448    1.0033   -0.3781 C   0  0  0  0  0  0  0  0  0  0  0  0
   -9.4311    0.1870   -1.2055 C   0  0  0  0  0  0  0  0  0  0  0  0
  -10.3562    0.7480   -2.0800 C   0  0  0  0  0  0  0  0  0  0  0  0
  -10.5028    2.1281   -2.1606 C   0  0  0  0  0  0  0  0  0  0  0  0
   -9.7234    2.9744   -1.3561 C   0  0  0  0  0  0  0  0  0  0  0  0
   -9.8911    4.3646   -1.4260 C   0  0  0  0  0  0  0  0  0  0  0  0
   -9.1164    5.2040   -0.6219 C   0  0  0  0  0  0  0  0  0  0  0  0
   -8.1713    4.6660    0.2507 C   0  0  0  0  0  0  0  0  0  0  0  0
   -7.9961    3.2796    0.3377 C   0  0  0  0  0  0  0  0  0  0  0  0
   -8.7674    2.4149   -0.4638 C   0  0  0  0  0  0  0  0  0  0  0  0
   -1.7854    0.0223    1.5980 H   0  0  0  0  0  0  0  0  0  0  0  0
   -3.0306    1.0501    2.3788 H   0  0  0  0  0  0  0  0  0  0  0  0
   -2.9348   -0.6722    2.7644 H   0  0  0  0  0  0  0  0  0  0  0  0
   -4.4048    0.7345    0.5850 H   0  0  0  0  0  0  0  0  0  0  0  0
   -3.9371   -0.5376   -1.3770 H   0  0  0  0  0  0  0  0  0  0  0  0
   -3.0084   -1.7309   -0.5074 H   0  0  0  0  0  0  0  0  0  0  0  0
   -0.8794    1.6713   -1.7303 H   0  0  0  0  0  0  0  0  0  0  0  0
   -1.1504    2.0964    0.6890 H   0  0  0  0  0  0  0  0  0  0  0  0
   -1.6881    3.4430   -0.3798 H   0  0  0  0  0  0  0  0  0  0  0  0
   -2.9255    2.4180    0.4193 H   0  0  0  0  0  0  0  0  0  0  0  0
   -2.9322    1.0943   -3.1417 H   0  0  0  0  0  0  0  0  0  0  0  0
   -2.5825    2.8150   -2.8447 H   0  0  0  0  0  0  0  0  0  0  0  0
   -4.3221    2.9565   -1.5861 H   0  0  0  0  0  0  0  0  0  0  0  0
    1.4559   -0.3664   -2.5516 H   0  0  0  0  0  0  0  0  0  0  0  0
    3.7653   -1.0573   -2.9995 H   0  0  0  0  0  0  0  0  0  0  0  0
    6.3650   -2.2654   -2.8790 H   0  0  0  0  0  0  0  0  0  0  0  0
    6.2573   -0.5036   -3.1617 H   0  0  0  0  0  0  0  0  0  0  0  0
    8.5461   -1.4604   -2.3851 H   0  0  0  0  0  0  0  0  0  0  0  0
    7.8082   -1.7913   -0.8020 H   0  0  0  0  0  0  0  0  0  0  0  0
    8.9512    0.2738   -0.5649 H   0  0  0  0  0  0  0  0  0  0  0  0
    7.2303    0.7452   -0.6499 H   0  0  0  0  0  0  0  0  0  0  0  0
    9.1163    0.7576   -3.1139 H   0  0  0  0  0  0  0  0  0  0  0  0
    7.4633    1.4425   -2.9948 H   0  0  0  0  0  0  0  0  0  0  0  0
    8.3058    3.0157   -1.1657 H   0  0  0  0  0  0  0  0  0  0  0  0
    8.9225    3.3186   -2.8175 H   0  0  0  0  0  0  0  0  0  0  0  0
   10.0117    3.3511    0.4364 H   0  0  0  0  0  0  0  0  0  0  0  0
   11.9046    0.4166   -0.3168 H   0  0  0  0  0  0  0  0  0  0  0  0
   13.9976   -0.2731    0.7652 H   0  0  0  0  0  0  0  0  0  0  0  0
   15.2519    1.2988    2.2087 H   0  0  0  0  0  0  0  0  0  0  0  0
   14.4031    3.5859    2.5801 H   0  0  0  0  0  0  0  0  0  0  0  0
   11.3890    5.0714    1.0100 H   0  0  0  0  0  0  0  0  0  0  0  0
   12.7115    5.3025    2.2020 H   0  0  0  0  0  0  0  0  0  0  0  0
    3.5833   -2.9233    0.1645 H   0  0  0  0  0  0  0  0  0  0  0  0
    1.5494   -3.4056    1.3403 H   0  0  0  0  0  0  0  0  0  0  0  0
   -2.1473   -2.7897    2.4687 H   0  0  0  0  0  0  0  0  0  0  0  0
    0.5101   -3.8754    3.1835 H   0  0  0  0  0  0  0  0  0  0  0  0
    0.3514   -2.0625    3.1159 H   0  0  0  0  0  0  0  0  0  0  0  0
   -0.7329   -3.0541    4.1438 H   0  0  0  0  0  0  0  0  0  0  0  0
   -1.5531   -5.2491    2.4457 H   0  0  0  0  0  0  0  0  0  0  0  0
   -0.5562   -4.9360    0.9974 H   0  0  0  0  0  0  0  0  0  0  0  0
   -2.7484   -3.9343   -0.1151 H   0  0  0  0  0  0  0  0  0  0  0  0
   -2.5513   -5.6888    0.0692 H   0  0  0  0  0  0  0  0  0  0  0  0
   -3.8753   -5.3316    2.4362 H   0  0  0  0  0  0  0  0  0  0  0  0
   -4.6470   -5.6724    0.8569 H   0  0  0  0  0  0  0  0  0  0  0  0
   -5.5114   -3.7023    2.4528 H   0  0  0  0  0  0  0  0  0  0  0  0
   -5.6807   -3.6601    0.6467 H   0  0  0  0  0  0  0  0  0  0  0  0
   -5.5788   -1.4402    0.3359 H   0  0  0  0  0  0  0  0  0  0  0  0
   -5.7126    0.2951    2.5399 H   0  0  0  0  0  0  0  0  0  0  0  0
   -5.2509   -1.1989    3.3631 H   0  0  0  0  0  0  0  0  0  0  0  0
   -8.4434   -1.7310    3.9573 H   0  0  0  0  0  0  0  0  0  0  0  0
   -8.0712   -3.1000    2.8304 H   0  0  0  0  0  0  0  0  0  0  0  0
   -6.8555   -2.5586    4.0415 H   0  0  0  0  0  0  0  0  0  0  0  0
   -6.7428    0.7830    0.5694 H   0  0  0  0  0  0  0  0  0  0  0  0
   -9.3171   -0.8916   -1.1728 H   0  0  0  0  0  0  0  0  0  0  0  0
  -10.9552    0.1058   -2.7144 H   0  0  0  0  0  0  0  0  0  0  0  0
  -11.2222    2.5399   -2.8521 H   0  0  0  0  0  0  0  0  0  0  0  0
  -10.6177    4.7995   -2.0994 H   0  0  0  0  0  0  0  0  0  0  0  0
   -9.2545    6.2752   -0.6791 H   0  0  0  0  0  0  0  0  0  0  0  0
   -7.5857    5.3282    0.8762 H   0  0  0  0  0  0  0  0  0  0  0  0
   -7.2601    2.9110    1.0519 H   0  0  0  0  0  0  0  0  0  0  0  0
  1  2  1  0
  2  3  1  0
  3  4  1  0
  4  5  1  0
  5  6  1  0
  5  7  1  0
  7  8  1  0
  4  9  1  0
  9 10  2  0
  9 11  1  0
 11 12  2  0
 12 13  1  0
 13 14  1  0
 14 15  1  0
 15 16  2  0
 15 17  1  0
 17 18  1  0
 18 19  1  0
 19 20  1  0
 20 21  1  0
 21 22  1  0
 22 23  2  0
 22 24  1  0
 24 25  1  0
 25 26  2  0
 26 27  1  0
 27 28  2  0
 28 29  1  0
 29 30  2  0
 30 31  1  0
 13 32  2  0
 32 33  1  0
 33 34  2  0
 34 35  1  0
 35 36  1  0
 36 37  1  0
 36 38  1  0
 38 39  1  0
 39 40  1  0
 40 41  1  0
 41 42  1  0
 42 43  1  0
 43 44  1  0
 44 45  1  0
 45 46  1  0
 45 47  1  0
 47 48  2  0
 47 49  1  0
 49 50  1  0
 50 51  2  0
 51 52  1  0
 52 53  2  0
 53 54  1  0
 54 55  2  0
 55 56  1  0
 56 57  2  0
 57 58  1  0
 58 59  2  0
 43  2  1  0
 59 50  1  0
 34 11  1  0
 59 54  1  0
 30 25  1  0
  1 60  1  0
  1 61  1  0
  1 62  1  0
  2 63  1  6
  3 64  1  0
  3 65  1  0
  5 66  1  6
  6 67  1  0
  6 68  1  0
  6 69  1  0
  7 70  1  0
  7 71  1  0
  8 72  1  0
 12 73  1  0
 14 74  1  0
 17 75  1  0
 17 76  1  0
 18 77  1  0
 18 78  1  0
 19 79  1  0
 19 80  1  0
 20 81  1  0
 20 82  1  0
 21 83  1  0
 21 84  1  0
 24 85  1  0
 26 86  1  0
 27 87  1  0
 28 88  1  0
 29 89  1  0
 31 90  1  0
 31 91  1  0
 32 92  1  0
 33 93  1  0
 36 94  1  1
 37 95  1  0
 37 96  1  0
 37 97  1  0
 38 98  1  0
 38 99  1  0
 39100  1  0
 39101  1  0
 40102  1  0
 40103  1  0
 41104  1  0
 41105  1  0
 43106  1  6
 44107  1  0
 44108  1  0
 46109  1  0
 46110  1  0
 46111  1  0
 49112  1  0
 51113  1  0
 52114  1  0
 53115  1  0
 55116  1  0
 56117  1  0
 57118  1  0
 58119  1  0
M  END
$$$$
