
     RDKit          3D

 64 67  0  0  0  0  0  0  0  0999 V2000
    3.2351   -0.3115   -0.6144 O   0  0  0  0  0  0  0  0  0  0  0  0
    2.9331   -0.2823    0.6092 C   0  0  0  0  0  0  0  0  0  0  0  0
    1.9379   -1.2701    1.1406 C   0  0  0  0  0  0  0  0  0  0  0  0
    0.6069   -1.0287    0.5432 N   0  0  0  0  0  0  0  0  0  0  0  0
   -0.2176   -2.2619    0.5606 C   0  0  0  0  0  0  0  0  0  0  0  0
   -0.1269   -2.9704   -0.8003 C   0  0  0  0  0  0  0  0  0  0  0  0
   -1.0025   -2.2914   -1.8720 C   0  0  0  0  0  0  0  0  0  0  0  0
   -2.4390   -2.8650   -1.9307 C   0  0  0  0  0  0  0  0  0  0  0  0
   -3.5126   -1.7677   -2.0634 C   0  0  0  0  0  0  0  0  0  0  0  0
   -3.9560   -1.2583   -0.6916 C   0  0  0  0  0  0  0  0  0  0  0  0
   -4.6841   -0.0415   -0.8268 O   0  0  0  0  0  0  0  0  0  0  0  0
   -5.1455    0.6816    0.2796 C   0  0  0  0  0  0  0  0  0  0  0  0
   -6.5116    0.9817    0.3497 C   0  0  0  0  0  0  0  0  0  0  0  0
   -7.0396    1.6230    1.4735 C   0  0  0  0  0  0  0  0  0  0  0  0
   -6.2052    1.9692    2.5371 C   0  0  0  0  0  0  0  0  0  0  0  0
   -4.8344    1.7082    2.4644 C   0  0  0  0  0  0  0  0  0  0  0  0
   -4.2855    1.1021    1.3271 C   0  0  0  0  0  0  0  0  0  0  0  0
   -2.8929    0.9462    1.2699 O   0  0  0  0  0  0  0  0  0  0  0  0
   -2.1090    1.3418    0.1772 C   0  0  0  0  0  0  0  0  0  0  0  0
   -2.6560    2.1062   -0.8115 N   0  0  0  0  0  0  0  0  0  0  0  0
   -1.9373    2.5304   -1.8819 C   0  0  0  0  0  0  0  0  0  0  0  0
   -0.5884    2.2015   -1.9886 C   0  0  0  0  0  0  0  0  0  0  0  0
    0.0061    1.4284   -0.9918 C   0  0  0  0  0  0  0  0  0  0  0  0
   -0.7505    0.9671    0.0985 C   0  0  0  0  0  0  0  0  0  0  0  0
   -0.0790    0.1323    1.1646 C   0  0  0  0  0  0  0  0  0  0  0  0
    3.5348    0.6851    1.4821 N   0  0  0  0  0  0  0  0  0  0  0  0
    4.3837    1.7664    0.9857 C   0  0  0  0  0  0  0  0  0  0  0  0
    5.6801    1.2223    0.4465 C   0  0  0  0  0  0  0  0  0  0  0  0
    6.5695    0.5443    1.2967 C   0  0  0  0  0  0  0  0  0  0  0  0
    7.7739    0.0378    0.7970 C   0  0  0  0  0  0  0  0  0  0  0  0
    8.0990    0.2036   -0.5535 C   0  0  0  0  0  0  0  0  0  0  0  0
    9.6098   -0.4320   -1.1794 Cl  0  0  0  0  0  0  0  0  0  0  0  0
    7.2181    0.8784   -1.4048 C   0  0  0  0  0  0  0  0  0  0  0  0
    6.0135    1.3862   -0.9086 C   0  0  0  0  0  0  0  0  0  0  0  0
    2.3143   -2.2813    0.8691 H   0  0  0  0  0  0  0  0  0  0  0  0
    1.8847   -1.2284    2.2522 H   0  0  0  0  0  0  0  0  0  0  0  0
    0.1156   -2.9613    1.3613 H   0  0  0  0  0  0  0  0  0  0  0  0
   -1.2825   -2.0558    0.7862 H   0  0  0  0  0  0  0  0  0  0  0  0
   -0.4152   -4.0371   -0.6862 H   0  0  0  0  0  0  0  0  0  0  0  0
    0.9309   -2.9650   -1.1394 H   0  0  0  0  0  0  0  0  0  0  0  0
   -0.5268   -2.4460   -2.8656 H   0  0  0  0  0  0  0  0  0  0  0  0
   -1.0098   -1.1939   -1.7079 H   0  0  0  0  0  0  0  0  0  0  0  0
   -2.5097   -3.5390   -2.8127 H   0  0  0  0  0  0  0  0  0  0  0  0
   -2.6648   -3.4953   -1.0424 H   0  0  0  0  0  0  0  0  0  0  0  0
   -3.1325   -0.9254   -2.6813 H   0  0  0  0  0  0  0  0  0  0  0  0
   -4.4008   -2.1854   -2.5839 H   0  0  0  0  0  0  0  0  0  0  0  0
   -3.0724   -1.1015   -0.0555 H   0  0  0  0  0  0  0  0  0  0  0  0
   -4.6003   -2.0205   -0.2022 H   0  0  0  0  0  0  0  0  0  0  0  0
   -7.1717    0.6857   -0.4566 H   0  0  0  0  0  0  0  0  0  0  0  0
   -8.0990    1.8359    1.5259 H   0  0  0  0  0  0  0  0  0  0  0  0
   -6.6163    2.4569    3.4119 H   0  0  0  0  0  0  0  0  0  0  0  0
   -4.1884    2.0102    3.2800 H   0  0  0  0  0  0  0  0  0  0  0  0
   -2.4132    3.1313   -2.6456 H   0  0  0  0  0  0  0  0  0  0  0  0
   -0.0076    2.5467   -2.8341 H   0  0  0  0  0  0  0  0  0  0  0  0
    1.0566    1.1845   -1.0745 H   0  0  0  0  0  0  0  0  0  0  0  0
    0.6430    0.8033    1.6797 H   0  0  0  0  0  0  0  0  0  0  0  0
   -0.7919   -0.1935    1.9540 H   0  0  0  0  0  0  0  0  0  0  0  0
    3.3033    0.6668    2.5004 H   0  0  0  0  0  0  0  0  0  0  0  0
    4.6095    2.4691    1.8166 H   0  0  0  0  0  0  0  0  0  0  0  0
    3.8307    2.3398    0.2101 H   0  0  0  0  0  0  0  0  0  0  0  0
    6.3275    0.4076    2.3437 H   0  0  0  0  0  0  0  0  0  0  0  0
    8.4524   -0.4843    1.4598 H   0  0  0  0  0  0  0  0  0  0  0  0
    7.4647    1.0088   -2.4510 H   0  0  0  0  0  0  0  0  0  0  0  0
    5.3421    1.9041   -1.5817 H   0  0  0  0  0  0  0  0  0  0  0  0
  1  2  2  0
  2  3  1  0
  3  4  1  0
  4  5  1  0
  5  6  1  0
  6  7  1  0
  7  8  1  0
  8  9  1  0
  9 10  1  0
 10 11  1  0
 11 12  1  0
 12 13  2  0
 13 14  1  0
 14 15  2  0
 15 16  1  0
 16 17  2  0
 17 18  1  0
 18 19  1  0
 19 20  2  0
 20 21  1  0
 21 22  2  0
 22 23  1  0
 23 24  2  0
 24 25  1  0
  2 26  1  0
 26 27  1  0
 27 28  1  0
 28 29  2  0
 29 30  1  0
 30 31  2  0
 31 32  1  0
 31 33  1  0
 33 34  2  0
 25  4  1  0
 34 28  1  0
 17 12  1  0
 24 19  1  0
  3 35  1  0
  3 36  1  0
  5 37  1  0
  5 38  1  0
  6 39  1  0
  6 40  1  0
  7 41  1  0
  7 42  1  0
  8 43  1  0
  8 44  1  0
  9 45  1  0
  9 46  1  0
 10 47  1  0
 10 48  1  0
 13 49  1  0
 14 50  1  0
 15 51  1  0
 16 52  1  0
 21 53  1  0
 22 54  1  0
 23 55  1  0
 25 56  1  0
 25 57  1  0
 26 58  1  0
 27 59  1  0
 27 60  1  0
 29 61  1  0
 30 62  1  0
 33 63  1  0
 34 64  1  0
M  END
$$$$
