
     RDKit          3D

195202  0  0  0  0  0  0  0  0999 V2000
   -6.6423   -3.2129    5.4922 C   0  0  0  0  0  0  0  0  0  0  0  0
   -7.9257   -2.7990    4.7687 C   0  0  0  0  0  0  0  0  0  0  0  0
   -7.8972   -3.0568    3.2319 C   0  0  0  0  0  0  0  0  0  0  0  0
   -6.7338   -2.4667    2.6124 O   0  0  0  0  0  0  0  0  0  0  0  0
   -6.2956   -1.1287    2.7062 C   0  0  0  0  0  0  0  0  0  0  0  0
   -6.7037   -0.3896    3.6353 O   0  0  0  0  0  0  0  0  0  0  0  0
   -5.1950   -0.6210    1.7956 C   0  0  0  0  0  0  0  0  0  0  0  0
   -4.8161   -1.5794    0.6443 C   0  0  0  0  0  0  0  0  0  0  0  0
   -5.3309    0.8750    1.3427 C   0  0  0  0  0  0  0  0  0  0  0  0
   -4.2785    1.1339    0.4176 O   0  0  0  0  0  0  0  0  0  0  0  0
   -3.6275    2.3801    0.6302 C   0  0  0  0  0  0  0  0  0  0  0  0
   -2.4223    2.2246    1.5830 C   0  0  0  0  0  0  0  0  0  0  0  0
   -1.1154    1.7596    0.8463 C   0  0  0  0  0  0  0  0  0  0  0  0
   -0.2269    3.0083    0.6278 C   0  0  0  0  0  0  0  0  0  0  0  0
   -0.3088    0.8705    1.6222 O   0  0  0  0  0  0  0  0  0  0  0  0
   -0.9894   -0.2323    2.1918 C   0  0  0  0  0  0  0  0  0  0  0  0
   -1.4635    1.1348   -0.5428 C   0  0  0  0  0  0  0  0  0  0  0  0
   -0.2793    0.8589   -1.2986 O   0  0  0  0  0  0  0  0  0  0  0  0
    0.4836   -0.3092   -1.1836 C   0  0  0  0  0  0  0  0  0  0  0  0
    0.0844   -1.2733   -0.4740 O   0  0  0  0  0  0  0  0  0  0  0  0
    1.7172   -0.4057   -1.9043 N   0  0  0  0  0  0  0  0  0  0  0  0
    2.6838   -1.4719   -1.6619 C   0  0  0  0  0  0  0  0  0  0  0  0
    3.3886   -1.2395   -0.3628 C   0  0  0  0  0  0  0  0  0  0  0  0
    4.0144   -0.0807    0.0406 C   0  0  0  0  0  0  0  0  0  0  0  0
    4.5346   -0.3443    1.2524 N   0  0  0  0  0  0  0  0  0  0  0  0
    5.3078    0.5694    2.0877 C   0  0  0  0  0  0  0  0  0  0  0  0
    6.8075    0.2591    2.0102 C   0  0  0  0  0  0  0  0  0  0  0  0
    7.3742    0.4527    0.5949 C   0  0  0  0  0  0  0  0  0  0  0  0
    8.9051    0.3647    0.5943 C   0  0  0  0  0  0  0  0  0  0  0  0
    9.4660    0.4645   -0.8293 C   0  0  0  0  0  0  0  0  0  0  0  0
   10.9952    0.4550   -0.8294 C   0  0  0  0  0  0  0  0  0  0  0  0
   11.4819    0.4624   -2.2279 N   0  0  0  0  0  0  0  0  0  0  0  0
   12.1737   -0.7798   -2.6156 C   0  0  0  0  0  0  0  0  0  0  0  0
   13.5154   -0.9604   -1.8825 C   0  0  0  0  0  0  0  0  0  0  0  0
   14.0143    0.3020   -1.3278 N   0  0  0  0  0  0  0  0  0  0  0  0
   15.0781    0.2544   -0.3655 C   0  0  0  0  0  0  0  0  0  0  0  0
   16.3303   -0.2529   -0.7297 C   0  0  0  0  0  0  0  0  0  0  0  0
   17.3940   -0.3115    0.2004 C   0  0  0  0  0  0  0  0  0  0  0  0
   17.1792    0.1998    1.5067 C   0  0  0  0  0  0  0  0  0  0  0  0
   15.9123    0.7052    1.8608 C   0  0  0  0  0  0  0  0  0  0  0  0
   14.8724    0.7309    0.9318 C   0  0  0  0  0  0  0  0  0  0  0  0
   13.6613    1.2181    1.2996 F   0  0  0  0  0  0  0  0  0  0  0  0
   18.2434    0.2134    2.4260 C   0  0  0  0  0  0  0  0  0  0  0  0
   18.0588    0.6561    3.5927 O   0  0  0  0  0  0  0  0  0  0  0  0
   19.5129   -0.2537    2.0379 C   0  0  0  0  0  0  0  0  0  0  0  0
   20.6855   -0.2271    2.9568 C   0  0  0  0  0  0  0  0  0  0  0  0
   20.5928    0.2775    4.1092 O   0  0  0  0  0  0  0  0  0  0  0  0
   21.9083   -0.7512    2.5448 O   0  0  0  0  0  0  0  0  0  0  0  0
   19.6740   -0.7548    0.7383 C   0  0  0  0  0  0  0  0  0  0  0  0
   18.6263   -0.8310   -0.1383 N   0  0  0  0  0  0  0  0  0  0  0  0
   18.8922   -1.3804   -1.4821 C   0  0  0  0  0  0  0  0  0  0  0  0
   19.6047   -2.7319   -1.4989 C   0  0  0  0  0  0  0  0  0  0  0  0
   18.1218   -2.6579   -1.8005 C   0  0  0  0  0  0  0  0  0  0  0  0
   13.7227    1.5907   -1.9704 C   0  0  0  0  0  0  0  0  0  0  0  0
   12.2999    1.6429   -2.5656 C   0  0  0  0  0  0  0  0  0  0  0  0
    4.2560   -1.5994    1.5673 N   0  0  0  0  0  0  0  0  0  0  0  0
    3.5577   -2.1719    0.5962 N   0  0  0  0  0  0  0  0  0  0  0  0
   -2.3603    2.1009   -1.3730 C   0  0  0  0  0  0  0  0  0  0  0  0
   -3.1440    1.3582   -2.4598 C   0  0  0  0  0  0  0  0  0  0  0  0
   -3.2292    2.9368   -0.6100 O   0  0  0  0  0  0  0  0  0  0  0  0
   -6.6870    1.4333    0.7463 C   0  0  0  0  0  0  0  0  0  0  0  0
   -7.8110    1.6551    1.7653 C   0  0  0  0  0  0  0  0  0  0  0  0
   -7.1431    0.9737   -0.6903 C   0  0  0  0  0  0  0  0  0  0  0  0
   -7.7948    2.0647   -1.3451 O   0  0  0  0  0  0  0  0  0  0  0  0
   -6.9447    2.8318   -2.1982 C   0  0  0  0  0  0  0  0  0  0  0  0
   -6.3529    3.9141   -1.4964 O   0  0  0  0  0  0  0  0  0  0  0  0
   -7.3085    4.7642   -0.8589 C   0  0  0  0  0  0  0  0  0  0  0  0
   -6.6610    6.1376   -0.6620 C   0  0  0  0  0  0  0  0  0  0  0  0
   -8.6563    4.9036   -1.6187 C   0  0  0  0  0  0  0  0  0  0  0  0
   -8.4414    4.7149   -3.1267 C   0  0  0  0  0  0  0  0  0  0  0  0
   -9.6754    5.0003   -3.9119 N   0  0  0  0  0  0  0  0  0  0  0  0
   -9.4773    4.8877   -5.3654 C   0  0  0  0  0  0  0  0  0  0  0  0
  -10.9010    4.3139   -3.4558 C   0  0  0  0  0  0  0  0  0  0  0  0
   -7.7367    3.3526   -3.4258 C   0  0  0  0  0  0  0  0  0  0  0  0
   -8.6381    2.3628   -3.8575 O   0  0  0  0  0  0  0  0  0  0  0  0
   -8.0829   -0.2961   -0.8100 C   0  0  0  0  0  0  0  0  0  0  0  0
   -7.8448   -0.9033   -2.2147 C   0  0  0  0  0  0  0  0  0  0  0  0
   -7.6726   -1.2620    0.1058 O   0  0  0  0  0  0  0  0  0  0  0  0
   -9.6313    0.0290   -0.6717 C   0  0  0  0  0  0  0  0  0  0  0  0
  -10.5840   -0.9467    0.1186 C   0  0  0  0  0  0  0  0  0  0  0  0
  -10.7227   -0.5292    1.6024 C   0  0  0  0  0  0  0  0  0  0  0  0
  -10.3651   -2.4847   -0.1562 C   0  0  0  0  0  0  0  0  0  0  0  0
  -10.5067   -3.3623    1.0395 N   0  0  0  0  0  0  0  0  0  0  0  0
  -11.9367   -3.5383    1.3904 C   0  0  0  0  0  0  0  0  0  0  0  0
   -9.8594   -4.7116    0.8934 C   0  0  0  0  0  0  0  0  0  0  0  0
  -10.0560   -5.3399   -0.5109 C   0  0  0  0  0  0  0  0  0  0  0  0
   -8.3427   -4.7707    1.3025 C   0  0  0  0  0  0  0  0  0  0  0  0
   -7.5758   -3.9151    0.4917 O   0  0  0  0  0  0  0  0  0  0  0  0
   -7.9666   -4.5756    2.8257 C   0  0  0  0  0  0  0  0  0  0  0  0
   -8.9521   -5.3791    3.7202 C   0  0  0  0  0  0  0  0  0  0  0  0
   -6.6662   -5.1014    3.0188 O   0  0  0  0  0  0  0  0  0  0  0  0
   -6.7033   -2.8944    6.5565 H   0  0  0  0  0  0  0  0  0  0  0  0
   -5.7565   -2.7257    5.0358 H   0  0  0  0  0  0  0  0  0  0  0  0
   -6.5128   -4.3121    5.4650 H   0  0  0  0  0  0  0  0  0  0  0  0
   -8.1150   -1.7243    4.9686 H   0  0  0  0  0  0  0  0  0  0  0  0
   -8.7927   -3.2987    5.2472 H   0  0  0  0  0  0  0  0  0  0  0  0
   -8.7974   -2.5755    2.8249 H   0  0  0  0  0  0  0  0  0  0  0  0
   -4.2982   -0.6389    2.4538 H   0  0  0  0  0  0  0  0  0  0  0  0
   -3.7382   -1.4651    0.4007 H   0  0  0  0  0  0  0  0  0  0  0  0
   -4.9655   -2.6438    0.9165 H   0  0  0  0  0  0  0  0  0  0  0  0
   -5.3554   -1.3592   -0.2911 H   0  0  0  0  0  0  0  0  0  0  0  0
   -5.1656    1.4453    2.2912 H   0  0  0  0  0  0  0  0  0  0  0  0
   -4.3117    3.1305    1.0886 H   0  0  0  0  0  0  0  0  0  0  0  0
   -2.2528    3.2005    2.0876 H   0  0  0  0  0  0  0  0  0  0  0  0
   -2.7262    1.5513    2.4062 H   0  0  0  0  0  0  0  0  0  0  0  0
    0.0860    3.4229    1.6092 H   0  0  0  0  0  0  0  0  0  0  0  0
   -0.7649    3.8082    0.0766 H   0  0  0  0  0  0  0  0  0  0  0  0
    0.6986    2.7500    0.0694 H   0  0  0  0  0  0  0  0  0  0  0  0
   -0.3036   -1.1034    2.2069 H   0  0  0  0  0  0  0  0  0  0  0  0
   -1.9024   -0.5363    1.6452 H   0  0  0  0  0  0  0  0  0  0  0  0
   -1.2464   -0.0042    3.2467 H   0  0  0  0  0  0  0  0  0  0  0  0
   -2.0279    0.1874   -0.4054 H   0  0  0  0  0  0  0  0  0  0  0  0
    1.9688    0.3618   -2.5682 H   0  0  0  0  0  0  0  0  0  0  0  0
    2.1692   -2.4580   -1.6601 H   0  0  0  0  0  0  0  0  0  0  0  0
    3.4364   -1.4816   -2.4777 H   0  0  0  0  0  0  0  0  0  0  0  0
    4.0923    0.8557   -0.4940 H   0  0  0  0  0  0  0  0  0  0  0  0
    4.9688    0.4703    3.1386 H   0  0  0  0  0  0  0  0  0  0  0  0
    5.1225    1.6214    1.7789 H   0  0  0  0  0  0  0  0  0  0  0  0
    6.9835   -0.7866    2.3448 H   0  0  0  0  0  0  0  0  0  0  0  0
    7.3362    0.9364    2.7159 H   0  0  0  0  0  0  0  0  0  0  0  0
    7.0647    1.4474    0.2020 H   0  0  0  0  0  0  0  0  0  0  0  0
    6.9580   -0.3339   -0.0716 H   0  0  0  0  0  0  0  0  0  0  0  0
    9.3158    1.1948    1.2121 H   0  0  0  0  0  0  0  0  0  0  0  0
    9.2214   -0.6023    1.0482 H   0  0  0  0  0  0  0  0  0  0  0  0
    9.0975   -0.3975   -1.4308 H   0  0  0  0  0  0  0  0  0  0  0  0
    9.1094    1.4038   -1.3084 H   0  0  0  0  0  0  0  0  0  0  0  0
   11.3500   -0.4418   -0.2716 H   0  0  0  0  0  0  0  0  0  0  0  0
   11.3550    1.3446   -0.2634 H   0  0  0  0  0  0  0  0  0  0  0  0
   11.5143   -1.6574   -2.4260 H   0  0  0  0  0  0  0  0  0  0  0  0
   12.3600   -0.7650   -3.7145 H   0  0  0  0  0  0  0  0  0  0  0  0
   13.3719   -1.6870   -1.0510 H   0  0  0  0  0  0  0  0  0  0  0  0
   14.2682   -1.3909   -2.5793 H   0  0  0  0  0  0  0  0  0  0  0  0
   16.4611   -0.5797   -1.7513 H   0  0  0  0  0  0  0  0  0  0  0  0
   15.7231    1.0916    2.8558 H   0  0  0  0  0  0  0  0  0  0  0  0
   22.7131   -0.7368    3.1592 H   0  0  0  0  0  0  0  0  0  0  0  0
   20.6533   -1.0987    0.4263 H   0  0  0  0  0  0  0  0  0  0  0  0
   19.1021   -0.6837   -2.3197 H   0  0  0  0  0  0  0  0  0  0  0  0
   19.8190   -3.2044   -0.5186 H   0  0  0  0  0  0  0  0  0  0  0  0
   20.2335   -2.9149   -2.3956 H   0  0  0  0  0  0  0  0  0  0  0  0
   17.8660   -2.7808   -2.8745 H   0  0  0  0  0  0  0  0  0  0  0  0
   17.4721   -3.0394   -0.9852 H   0  0  0  0  0  0  0  0  0  0  0  0
   14.4704    1.7667   -2.7761 H   0  0  0  0  0  0  0  0  0  0  0  0
   13.8336    2.4163   -1.2277 H   0  0  0  0  0  0  0  0  0  0  0  0
   11.7836    2.5736   -2.2395 H   0  0  0  0  0  0  0  0  0  0  0  0
   12.3778    1.7156   -3.6736 H   0  0  0  0  0  0  0  0  0  0  0  0
   -1.6771    2.7907   -1.9149 H   0  0  0  0  0  0  0  0  0  0  0  0
   -2.4466    0.8125   -3.1309 H   0  0  0  0  0  0  0  0  0  0  0  0
   -3.8512    0.6248   -2.0194 H   0  0  0  0  0  0  0  0  0  0  0  0
   -3.7182    2.0838   -3.0753 H   0  0  0  0  0  0  0  0  0  0  0  0
   -6.3878    2.4812    0.5649 H   0  0  0  0  0  0  0  0  0  0  0  0
   -8.2720    0.7212    2.0990 H   0  0  0  0  0  0  0  0  0  0  0  0
   -7.4185    2.1799    2.6625 H   0  0  0  0  0  0  0  0  0  0  0  0
   -8.6031    2.3006    1.3324 H   0  0  0  0  0  0  0  0  0  0  0  0
   -6.1918    0.6955   -1.1939 H   0  0  0  0  0  0  0  0  0  0  0  0
   -6.1225    2.2161   -2.6268 H   0  0  0  0  0  0  0  0  0  0  0  0
   -7.5277    4.3726    0.1560 H   0  0  0  0  0  0  0  0  0  0  0  0
   -5.7006    6.0290   -0.1116 H   0  0  0  0  0  0  0  0  0  0  0  0
   -7.3289    6.8019   -0.0703 H   0  0  0  0  0  0  0  0  0  0  0  0
   -6.4538    6.6175   -1.6439 H   0  0  0  0  0  0  0  0  0  0  0  0
   -9.1315    5.8906   -1.4214 H   0  0  0  0  0  0  0  0  0  0  0  0
   -9.3533    4.1248   -1.2375 H   0  0  0  0  0  0  0  0  0  0  0  0
   -7.7100    5.5078   -3.4076 H   0  0  0  0  0  0  0  0  0  0  0  0
  -10.2867    5.4330   -5.8941 H   0  0  0  0  0  0  0  0  0  0  0  0
   -9.4885    3.8296   -5.6959 H   0  0  0  0  0  0  0  0  0  0  0  0
   -8.5171    5.3562   -5.6659 H   0  0  0  0  0  0  0  0  0  0  0  0
  -10.7362    3.2398   -3.2484 H   0  0  0  0  0  0  0  0  0  0  0  0
  -11.2750    4.7974   -2.5281 H   0  0  0  0  0  0  0  0  0  0  0  0
  -11.7137    4.4066   -4.2092 H   0  0  0  0  0  0  0  0  0  0  0  0
   -7.0041    3.5554   -4.2473 H   0  0  0  0  0  0  0  0  0  0  0  0
   -8.1072    1.7034   -4.3713 H   0  0  0  0  0  0  0  0  0  0  0  0
   -8.4938   -1.7793   -2.4074 H   0  0  0  0  0  0  0  0  0  0  0  0
   -6.7929   -1.2400   -2.3324 H   0  0  0  0  0  0  0  0  0  0  0  0
   -8.0600   -0.1582   -3.0017 H   0  0  0  0  0  0  0  0  0  0  0  0
   -8.1127   -1.0847    0.9598 H   0  0  0  0  0  0  0  0  0  0  0  0
   -9.7528    1.0451   -0.2440 H   0  0  0  0  0  0  0  0  0  0  0  0
  -10.0618    0.1499   -1.6884 H   0  0  0  0  0  0  0  0  0  0  0  0
  -11.5967   -0.7300   -0.2899 H   0  0  0  0  0  0  0  0  0  0  0  0
  -11.6412   -0.9429    2.0637 H   0  0  0  0  0  0  0  0  0  0  0  0
  -10.8238    0.5750    1.6922 H   0  0  0  0  0  0  0  0  0  0  0  0
   -9.8718   -0.8431    2.2186 H   0  0  0  0  0  0  0  0  0  0  0  0
   -9.3834   -2.6530   -0.6115 H   0  0  0  0  0  0  0  0  0  0  0  0
  -11.0803   -2.8002   -0.9497 H   0  0  0  0  0  0  0  0  0  0  0  0
  -12.3855   -4.4250    0.8971 H   0  0  0  0  0  0  0  0  0  0  0  0
  -12.0258   -3.6613    2.4908 H   0  0  0  0  0  0  0  0  0  0  0  0
  -12.5640   -2.6760    1.0887 H   0  0  0  0  0  0  0  0  0  0  0  0
  -10.3762   -5.4286    1.5670 H   0  0  0  0  0  0  0  0  0  0  0  0
   -9.7876   -6.4182   -0.4811 H   0  0  0  0  0  0  0  0  0  0  0  0
   -9.4119   -4.8518   -1.2712 H   0  0  0  0  0  0  0  0  0  0  0  0
  -11.1125   -5.2672   -0.8408 H   0  0  0  0  0  0  0  0  0  0  0  0
   -8.0464   -5.8294    1.0841 H   0  0  0  0  0  0  0  0  0  0  0  0
   -7.0816   -4.4717   -0.1655 H   0  0  0  0  0  0  0  0  0  0  0  0
   -9.9360   -4.8647    3.7924 H   0  0  0  0  0  0  0  0  0  0  0  0
   -9.1095   -6.4004    3.3111 H   0  0  0  0  0  0  0  0  0  0  0  0
   -8.5425   -5.5127    4.7422 H   0  0  0  0  0  0  0  0  0  0  0  0
   -6.6989   -6.0861    2.9041 H   0  0  0  0  0  0  0  0  0  0  0  0
  1  2  1  0
  2  3  1  0
  3  4  1  0
  4  5  1  0
  5  6  2  0
  5  7  1  0
  7  8  1  0
  7  9  1  0
  9 10  1  0
 10 11  1  0
 11 12  1  0
 12 13  1  0
 13 14  1  0
 13 15  1  0
 15 16  1  0
 13 17  1  0
 17 18  1  0
 18 19  1  0
 19 20  2  0
 19 21  1  0
 21 22  1  0
 22 23  1  0
 23 24  2  0
 24 25  1  0
 25 26  1  0
 26 27  1  0
 27 28  1  0
 28 29  1  0
 29 30  1  0
 30 31  1  0
 31 32  1  0
 32 33  1  0
 33 34  1  0
 34 35  1  0
 35 36  1  0
 36 37  2  0
 37 38  1  0
 38 39  2  0
 39 40  1  0
 40 41  2  0
 41 42  1  0
 39 43  1  0
 43 44  2  0
 43 45  1  0
 45 46  1  0
 46 47  2  0
 46 48  1  0
 45 49  2  0
 49 50  1  0
 50 51  1  0
 51 52  1  0
 52 53  1  0
 35 54  1  0
 54 55  1  0
 25 56  1  0
 56 57  2  0
 17 58  1  0
 58 59  1  0
 58 60  1  0
  9 61  1  0
 61 62  1  0
 61 63  1  0
 63 64  1  0
 64 65  1  0
 65 66  1  0
 66 67  1  0
 67 68  1  0
 67 69  1  0
 69 70  1  0
 70 71  1  0
 71 72  1  0
 71 73  1  0
 70 74  1  0
 74 75  1  0
 63 76  1  0
 76 77  1  0
 76 78  1  0
 76 79  1  0
 79 80  1  0
 80 81  1  0
 80 82  1  0
 82 83  1  0
 83 84  1  0
 83 85  1  0
 85 86  1  0
 85 87  1  0
 87 88  1  0
 87 89  1  0
 89 90  1  0
 89 91  1  0
 89  3  1  0
 60 11  1  0
 74 65  1  0
 57 23  1  0
 55 32  1  0
 41 36  1  0
 53 51  1  0
 50 38  1  0
  1 92  1  0
  1 93  1  0
  1 94  1  0
  2 95  1  0
  2 96  1  0
  3 97  1  0
  7 98  1  0
  8 99  1  0
  8100  1  0
  8101  1  0
  9102  1  0
 11103  1  0
 12104  1  0
 12105  1  0
 14106  1  0
 14107  1  0
 14108  1  0
 16109  1  0
 16110  1  0
 16111  1  0
 17112  1  0
 21113  1  0
 22114  1  0
 22115  1  0
 24116  1  0
 26117  1  0
 26118  1  0
 27119  1  0
 27120  1  0
 28121  1  0
 28122  1  0
 29123  1  0
 29124  1  0
 30125  1  0
 30126  1  0
 31127  1  0
 31128  1  0
 33129  1  0
 33130  1  0
 34131  1  0
 34132  1  0
 37133  1  0
 40134  1  0
 48135  1  0
 49136  1  0
 51137  1  0
 52138  1  0
 52139  1  0
 53140  1  0
 53141  1  0
 54142  1  0
 54143  1  0
 55144  1  0
 55145  1  0
 58146  1  0
 59147  1  0
 59148  1  0
 59149  1  0
 61150  1  0
 62151  1  0
 62152  1  0
 62153  1  0
 63154  1  0
 65155  1  0
 67156  1  0
 68157  1  0
 68158  1  0
 68159  1  0
 69160  1  0
 69161  1  0
 70162  1  0
 72163  1  0
 72164  1  0
 72165  1  0
 73166  1  0
 73167  1  0
 73168  1  0
 74169  1  0
 75170  1  0
 77171  1  0
 77172  1  0
 77173  1  0
 78174  1  0
 79175  1  0
 79176  1  0
 80177  1  0
 81178  1  0
 81179  1  0
 81180  1  0
 82181  1  0
 82182  1  0
 84183  1  0
 84184  1  0
 84185  1  0
 85186  1  0
 86187  1  0
 86188  1  0
 86189  1  0
 87190  1  0
 88191  1  0
 90192  1  0
 90193  1  0
 90194  1  0
 91195  1  0
M  END
$$$$
