
     RDKit          3D

 67 70  0  0  0  0  0  0  0  0999 V2000
    3.2677    1.0632    0.3452 O   0  0  0  0  0  0  0  0  0  0  0  0
    3.0047    0.0179   -0.3128 C   0  0  0  0  0  0  0  0  0  0  0  0
    4.0137   -1.1089   -0.3402 C   0  0  0  0  0  0  0  0  0  0  0  0
    5.3493   -0.6951    0.2246 C   0  0  0  0  0  0  0  0  0  0  0  0
    5.6306   -0.8815    1.5889 C   0  0  0  0  0  0  0  0  0  0  0  0
    6.8533   -0.4597    2.1204 C   0  0  0  0  0  0  0  0  0  0  0  0
    7.7981    0.1607    1.2977 C   0  0  0  0  0  0  0  0  0  0  0  0
    8.9809    0.5730    1.8158 F   0  0  0  0  0  0  0  0  0  0  0  0
    7.5204    0.3608   -0.0578 C   0  0  0  0  0  0  0  0  0  0  0  0
    6.2987   -0.0604   -0.5937 C   0  0  0  0  0  0  0  0  0  0  0  0
    1.7431   -0.0773   -1.0184 N   0  0  0  0  0  0  0  0  0  0  0  0
    1.2660   -1.3633   -1.5633 C   0  0  0  0  0  0  0  0  0  0  0  0
    0.9548   -2.3880   -0.4472 C   0  0  0  0  0  0  0  0  0  0  0  0
   -0.5021   -2.8812   -0.4746 C   0  0  0  0  0  0  0  0  0  0  0  0
   -1.4485   -1.8789    0.2132 C   0  0  0  0  0  0  0  0  0  0  0  0
   -2.9729   -2.0635   -0.1042 C   0  0  0  0  0  0  0  0  0  0  0  0
   -3.3991   -3.5494    0.0538 C   0  0  0  0  0  0  0  0  0  0  0  0
   -3.0577   -4.0455    1.3241 O   0  0  0  0  0  0  0  0  0  0  0  0
   -3.3263   -1.5983   -1.5416 C   0  0  0  0  0  0  0  0  0  0  0  0
   -3.0877   -0.0983   -1.7771 C   0  0  0  0  0  0  0  0  0  0  0  0
   -3.5853    0.7407   -0.6747 N   0  0  0  0  0  0  0  0  0  0  0  0
   -3.5299    0.2895    0.7260 C   0  0  0  0  0  0  0  0  0  0  0  0
   -3.8189   -1.2058    0.8684 C   0  0  0  0  0  0  0  0  0  0  0  0
   -3.7377    2.1498   -0.9233 C   0  0  0  0  0  0  0  0  0  0  0  0
   -4.4062    2.5444   -1.9169 O   0  0  0  0  0  0  0  0  0  0  0  0
   -3.1173    3.1429   -0.0229 C   0  0  0  0  0  0  0  0  0  0  0  0
   -3.9103    4.1465    0.5524 C   0  0  0  0  0  0  0  0  0  0  0  0
   -3.3588    5.0314    1.4820 C   0  0  0  0  0  0  0  0  0  0  0  0
   -2.0154    4.9189    1.8431 C   0  0  0  0  0  0  0  0  0  0  0  0
   -1.2089    3.9411    1.2550 C   0  0  0  0  0  0  0  0  0  0  0  0
   -1.7446    3.0606    0.2936 C   0  0  0  0  0  0  0  0  0  0  0  0
   -0.9532    2.1147   -0.3844 O   0  0  0  0  0  0  0  0  0  0  0  0
    0.4419    1.8901   -0.1739 C   0  0  0  0  0  0  0  0  0  0  0  0
    1.0432    1.1656   -1.3919 C   0  0  0  0  0  0  0  0  0  0  0  0
    3.6214   -1.9706    0.2389 H   0  0  0  0  0  0  0  0  0  0  0  0
    4.1591   -1.4485   -1.3874 H   0  0  0  0  0  0  0  0  0  0  0  0
    4.9026   -1.3489    2.2401 H   0  0  0  0  0  0  0  0  0  0  0  0
    7.0650   -0.6097    3.1714 H   0  0  0  0  0  0  0  0  0  0  0  0
    8.2493    0.8474   -0.6932 H   0  0  0  0  0  0  0  0  0  0  0  0
    6.0900    0.1107   -1.6428 H   0  0  0  0  0  0  0  0  0  0  0  0
    2.0349   -1.7805   -2.2472 H   0  0  0  0  0  0  0  0  0  0  0  0
    0.3709   -1.2108   -2.2048 H   0  0  0  0  0  0  0  0  0  0  0  0
    1.1857   -1.9746    0.5596 H   0  0  0  0  0  0  0  0  0  0  0  0
    1.6174   -3.2699   -0.5901 H   0  0  0  0  0  0  0  0  0  0  0  0
   -0.5525   -3.8472    0.0732 H   0  0  0  0  0  0  0  0  0  0  0  0
   -0.8075   -3.0831   -1.5213 H   0  0  0  0  0  0  0  0  0  0  0  0
   -1.2895   -1.9654    1.3105 H   0  0  0  0  0  0  0  0  0  0  0  0
   -1.1277   -0.8539   -0.0557 H   0  0  0  0  0  0  0  0  0  0  0  0
   -4.4940   -3.6630   -0.1317 H   0  0  0  0  0  0  0  0  0  0  0  0
   -2.8965   -4.1770   -0.7118 H   0  0  0  0  0  0  0  0  0  0  0  0
   -3.8640   -3.9608    1.8964 H   0  0  0  0  0  0  0  0  0  0  0  0
   -2.7518   -2.1741   -2.2966 H   0  0  0  0  0  0  0  0  0  0  0  0
   -4.4016   -1.8053   -1.7409 H   0  0  0  0  0  0  0  0  0  0  0  0
   -3.5972    0.1838   -2.7247 H   0  0  0  0  0  0  0  0  0  0  0  0
   -2.0057    0.0932   -1.9279 H   0  0  0  0  0  0  0  0  0  0  0  0
   -4.2852    0.8433    1.3254 H   0  0  0  0  0  0  0  0  0  0  0  0
   -2.5351    0.5216    1.1590 H   0  0  0  0  0  0  0  0  0  0  0  0
   -3.6236   -1.5029    1.9223 H   0  0  0  0  0  0  0  0  0  0  0  0
   -4.9030   -1.3713    0.6765 H   0  0  0  0  0  0  0  0  0  0  0  0
   -4.9619    4.2214    0.3035 H   0  0  0  0  0  0  0  0  0  0  0  0
   -3.9775    5.7925    1.9396 H   0  0  0  0  0  0  0  0  0  0  0  0
   -1.5959    5.5960    2.5760 H   0  0  0  0  0  0  0  0  0  0  0  0
   -0.1726    3.8817    1.5550 H   0  0  0  0  0  0  0  0  0  0  0  0
    0.9732    2.8606   -0.0680 H   0  0  0  0  0  0  0  0  0  0  0  0
    0.5782    1.3000    0.7594 H   0  0  0  0  0  0  0  0  0  0  0  0
    0.2470    0.9679   -2.1410 H   0  0  0  0  0  0  0  0  0  0  0  0
    1.7627    1.8405   -1.9066 H   0  0  0  0  0  0  0  0  0  0  0  0
  1  2  2  0
  2  3  1  0
  3  4  1  0
  4  5  2  0
  5  6  1  0
  6  7  2  0
  7  8  1  0
  7  9  1  0
  9 10  2  0
  2 11  1  0
 11 12  1  0
 12 13  1  0
 13 14  1  0
 14 15  1  0
 15 16  1  0
 16 17  1  0
 17 18  1  0
 16 19  1  0
 19 20  1  0
 20 21  1  0
 21 22  1  0
 22 23  1  0
 21 24  1  0
 24 25  2  0
 24 26  1  0
 26 27  2  0
 27 28  1  0
 28 29  2  0
 29 30  1  0
 30 31  2  0
 31 32  1  0
 32 33  1  0
 33 34  1  0
 10  4  1  0
 34 11  1  0
 23 16  1  0
 31 26  1  0
  3 35  1  0
  3 36  1  0
  5 37  1  0
  6 38  1  0
  9 39  1  0
 10 40  1  0
 12 41  1  0
 12 42  1  0
 13 43  1  0
 13 44  1  0
 14 45  1  0
 14 46  1  0
 15 47  1  0
 15 48  1  0
 17 49  1  0
 17 50  1  0
 18 51  1  0
 19 52  1  0
 19 53  1  0
 20 54  1  0
 20 55  1  0
 22 56  1  0
 22 57  1  0
 23 58  1  0
 23 59  1  0
 27 60  1  0
 28 61  1  0
 29 62  1  0
 30 63  1  0
 33 64  1  0
 33 65  1  0
 34 66  1  0
 34 67  1  0
M  END
$$$$
