
     RDKit          3D

125128  0  0  0  0  0  0  0  0999 V2000
    3.6517    5.2637   -2.0259 C   0  0  0  0  0  0  0  0  0  0  0  0
    3.6316    4.2962   -0.8297 C   0  0  0  0  0  0  0  0  0  0  0  0
    4.7568    4.6868    0.1453 C   0  0  0  0  0  0  0  0  0  0  0  0
    3.7842    2.8226   -1.3133 C   0  0  1  0  0  0  0  0  0  0  0  0
    3.8431    1.7779   -0.2292 C   0  0  0  0  0  0  0  0  0  0  0  0
    3.2305    1.9260    0.8609 O   0  0  0  0  0  0  0  0  0  0  0  0
    4.5741    0.6120   -0.4760 O   0  0  0  0  0  0  0  0  0  0  0  0
    4.3936   -0.5902    0.2666 C   0  0  0  0  0  0  0  0  0  0  0  0
    5.4404   -1.6294   -0.1646 C   0  0  1  0  0  0  0  0  0  0  0  0
    6.6976   -1.3905    0.5476 N   0  0  0  0  0  0  0  0  0  0  0  0
    7.7312   -0.5408    0.0218 C   0  0  0  0  0  0  0  0  0  0  0  0
    7.7020   -0.1925   -1.1912 O   0  0  0  0  0  0  0  0  0  0  0  0
    8.8569   -0.0905    0.8631 C   0  0  0  0  0  0  0  0  0  0  0  0
    8.7598   -0.0148    2.2628 C   0  0  0  0  0  0  0  0  0  0  0  0
    9.8280    0.4135    2.9862 N   0  0  0  0  0  0  0  0  0  0  0  0
   10.9920    0.7667    2.3845 C   0  0  0  0  0  0  0  0  0  0  0  0
   11.0920    0.7011    0.9946 C   0  0  0  0  0  0  0  0  0  0  0  0
   10.0243    0.2801    0.2678 N   0  0  0  0  0  0  0  0  0  0  0  0
    5.0002   -3.0625    0.0379 C   0  0  0  0  0  0  0  0  0  0  0  0
    5.7024   -3.9804   -0.4618 O   0  0  0  0  0  0  0  0  0  0  0  0
    3.7912   -3.4032    0.7337 N   0  0  0  0  0  0  0  0  0  0  0  0
    2.8432   -4.3527    0.1488 C   0  0  1  0  0  0  0  0  0  0  0  0
    2.0963   -5.1100    1.2491 C   0  0  0  0  0  0  0  0  0  0  0  0
    1.9298   -3.6274   -0.8157 C   0  0  0  0  0  0  0  0  0  0  0  0
    2.4109   -3.2094   -1.9036 O   0  0  0  0  0  0  0  0  0  0  0  0
    0.5283   -3.4314   -0.5548 N   0  0  0  0  0  0  0  0  0  0  0  0
   -0.4208   -4.0091   -1.5124 C   0  0  0  0  0  0  0  0  0  0  0  0
    0.1089   -2.4857    0.5008 C   0  0  1  0  0  0  0  0  0  0  0  0
   -0.4464   -1.1683   -0.0641 C   0  0  0  0  0  0  0  0  0  0  0  0
    0.8857   -0.0520   -0.6230 S   0  0  0  0  0  0  0  0  0  0  0  0
   -0.2046    1.4082   -0.7377 C   0  0  0  0  0  0  0  0  0  0  0  0
    0.5767    2.7145   -0.9874 C   0  0  1  0  0  0  0  0  0  0  0  0
    1.3595    2.5826   -2.2843 C   0  0  0  0  0  0  0  0  0  0  0  0
    0.6851    2.5067   -3.3487 O   0  0  0  0  0  0  0  0  0  0  0  0
    2.8050    2.4285   -2.3615 N   0  0  0  0  0  0  0  0  0  0  0  0
    3.3258    1.8005   -3.5860 C   0  0  0  0  0  0  0  0  0  0  0  0
   -0.3532    3.8742   -1.0173 N   0  0  0  0  0  0  0  0  0  0  0  0
    0.0095    5.1202   -1.7062 C   0  0  0  0  0  0  0  0  0  0  0  0
   -1.2892    4.0352    0.0650 C   0  0  0  0  0  0  0  0  0  0  0  0
   -0.9333    4.6736    1.0925 O   0  0  0  0  0  0  0  0  0  0  0  0
   -2.7128    3.5408   -0.0699 C   0  0  2  0  0  0  0  0  0  0  0  0
   -3.5865    4.6307   -0.6930 C   0  0  0  0  0  0  0  0  0  0  0  0
   -3.2571    3.1537    1.2390 N   0  0  0  0  0  0  0  0  0  0  0  0
   -4.2820    2.1658    1.4658 C   0  0  0  0  0  0  0  0  0  0  0  0
   -4.6930    1.9948    2.6461 O   0  0  0  0  0  0  0  0  0  0  0  0
   -4.8509    1.2955    0.3629 C   0  0  2  0  0  0  0  0  0  0  0  0
   -6.2830    1.0631    0.5969 N   0  0  0  0  0  0  0  0  0  0  0  0
   -7.2974    1.3557   -0.3789 C   0  0  0  0  0  0  0  0  0  0  0  0
   -6.9706    1.8056   -1.5113 O   0  0  0  0  0  0  0  0  0  0  0  0
   -8.7245    1.1317   -0.0653 C   0  0  0  0  0  0  0  0  0  0  0  0
   -9.7272    1.3735   -1.0198 C   0  0  0  0  0  0  0  0  0  0  0  0
  -11.0307    1.1661   -0.6925 N   0  0  0  0  0  0  0  0  0  0  0  0
  -11.3870    0.7295    0.5427 C   0  0  0  0  0  0  0  0  0  0  0  0
  -10.3954    0.4894    1.4954 C   0  0  0  0  0  0  0  0  0  0  0  0
   -9.0912    0.6942    1.1710 N   0  0  0  0  0  0  0  0  0  0  0  0
   -4.1121   -0.0492    0.2938 C   0  0  0  0  0  0  0  0  0  0  0  0
   -4.1664   -0.7179    1.5559 O   0  0  0  0  0  0  0  0  0  0  0  0
   -3.6813   -2.0100    1.8123 C   0  0  0  0  0  0  0  0  0  0  0  0
   -3.6859   -2.4198    3.0024 O   0  0  0  0  0  0  0  0  0  0  0  0
   -3.2224   -2.9488    0.7129 C   0  0  2  0  0  0  0  0  0  0  0  0
   -4.4387   -3.7197    0.0995 C   0  0  0  0  0  0  0  0  0  0  0  0
   -5.3199   -4.4832    1.1168 C   0  0  0  0  0  0  0  0  0  0  0  0
   -4.0517   -4.5783   -1.1176 C   0  0  0  0  0  0  0  0  0  0  0  0
   -2.0677   -3.7813    1.1600 N   0  0  0  0  0  0  0  0  0  0  0  0
   -2.2351   -5.0963    1.7943 C   0  0  0  0  0  0  0  0  0  0  0  0
   -0.8387   -3.1099    1.5144 C   0  0  0  0  0  0  0  0  0  0  0  0
   -0.5302   -3.0287    2.7357 O   0  0  0  0  0  0  0  0  0  0  0  0
    4.6146    5.1833   -2.5756 H   0  0  0  0  0  0  0  0  0  0  0  0
    2.8231    5.0426   -2.7302 H   0  0  0  0  0  0  0  0  0  0  0  0
    3.5245    6.3087   -1.6715 H   0  0  0  0  0  0  0  0  0  0  0  0
    2.6778    4.4356   -0.2912 H   0  0  0  0  0  0  0  0  0  0  0  0
    4.7265    4.0562    1.0585 H   0  0  0  0  0  0  0  0  0  0  0  0
    4.6362    5.7427    0.4675 H   0  0  0  0  0  0  0  0  0  0  0  0
    5.7541    4.5666   -0.3336 H   0  0  0  0  0  0  0  0  0  0  0  0
    4.8049    2.7966   -1.7593 H   0  0  0  0  0  0  0  0  0  0  0  0
    4.4764   -0.3911    1.3601 H   0  0  0  0  0  0  0  0  0  0  0  0
    3.3792   -0.9689    0.0539 H   0  0  0  0  0  0  0  0  0  0  0  0
    5.5990   -1.5163   -1.2609 H   0  0  0  0  0  0  0  0  0  0  0  0
    6.8009   -1.7956    1.5053 H   0  0  0  0  0  0  0  0  0  0  0  0
    7.8405   -0.2552    2.7793 H   0  0  0  0  0  0  0  0  0  0  0  0
   11.8319    1.0996    2.9777 H   0  0  0  0  0  0  0  0  0  0  0  0
   12.0089    0.9864    0.4943 H   0  0  0  0  0  0  0  0  0  0  0  0
    3.4557   -2.7774    1.5004 H   0  0  0  0  0  0  0  0  0  0  0  0
    3.3995   -5.1169   -0.4362 H   0  0  0  0  0  0  0  0  0  0  0  0
    2.8075   -5.7608    1.7990 H   0  0  0  0  0  0  0  0  0  0  0  0
    1.3002   -5.7524    0.8084 H   0  0  0  0  0  0  0  0  0  0  0  0
    1.6413   -4.4120    1.9805 H   0  0  0  0  0  0  0  0  0  0  0  0
   -1.1464   -4.6509   -0.9876 H   0  0  0  0  0  0  0  0  0  0  0  0
    0.1012   -4.6609   -2.2428 H   0  0  0  0  0  0  0  0  0  0  0  0
   -0.9480   -3.2157   -2.0782 H   0  0  0  0  0  0  0  0  0  0  0  0
    1.0134   -2.2006    1.0840 H   0  0  0  0  0  0  0  0  0  0  0  0
   -1.1227   -1.3264   -0.9215 H   0  0  0  0  0  0  0  0  0  0  0  0
   -1.0061   -0.6619    0.7515 H   0  0  0  0  0  0  0  0  0  0  0  0
   -0.9459    1.2430   -1.5473 H   0  0  0  0  0  0  0  0  0  0  0  0
   -0.7442    1.5002    0.2258 H   0  0  0  0  0  0  0  0  0  0  0  0
    1.2478    2.8436   -0.1282 H   0  0  0  0  0  0  0  0  0  0  0  0
    3.0885    2.4351   -4.4638 H   0  0  0  0  0  0  0  0  0  0  0  0
    2.8568    0.8020   -3.7198 H   0  0  0  0  0  0  0  0  0  0  0  0
    4.4248    1.6508   -3.5556 H   0  0  0  0  0  0  0  0  0  0  0  0
    0.8227    5.6338   -1.1534 H   0  0  0  0  0  0  0  0  0  0  0  0
   -0.8642    5.8060   -1.7570 H   0  0  0  0  0  0  0  0  0  0  0  0
    0.3260    4.9325   -2.7511 H   0  0  0  0  0  0  0  0  0  0  0  0
   -2.7018    2.6647   -0.7477 H   0  0  0  0  0  0  0  0  0  0  0  0
   -4.6367    4.2772   -0.7774 H   0  0  0  0  0  0  0  0  0  0  0  0
   -3.5690    5.5476   -0.0698 H   0  0  0  0  0  0  0  0  0  0  0  0
   -3.2238    4.8763   -1.7129 H   0  0  0  0  0  0  0  0  0  0  0  0
   -3.0182    3.7531    2.0619 H   0  0  0  0  0  0  0  0  0  0  0  0
   -4.7183    1.8018   -0.6121 H   0  0  0  0  0  0  0  0  0  0  0  0
   -6.5636    0.6056    1.4943 H   0  0  0  0  0  0  0  0  0  0  0  0
   -9.4816    1.7214   -2.0163 H   0  0  0  0  0  0  0  0  0  0  0  0
  -12.4291    0.5714    0.7846 H   0  0  0  0  0  0  0  0  0  0  0  0
  -10.6586    0.1405    2.4864 H   0  0  0  0  0  0  0  0  0  0  0  0
   -3.0574    0.1340    0.0114 H   0  0  0  0  0  0  0  0  0  0  0  0
   -4.5892   -0.6734   -0.4911 H   0  0  0  0  0  0  0  0  0  0  0  0
   -2.8586   -2.3267   -0.1195 H   0  0  0  0  0  0  0  0  0  0  0  0
   -5.1085   -2.9424   -0.3297 H   0  0  0  0  0  0  0  0  0  0  0  0
   -6.2294   -3.8936    1.3446 H   0  0  0  0  0  0  0  0  0  0  0  0
   -4.8100   -4.6546    2.0832 H   0  0  0  0  0  0  0  0  0  0  0  0
   -5.6472   -5.4690    0.7185 H   0  0  0  0  0  0  0  0  0  0  0  0
   -4.9586   -5.0250   -1.5747 H   0  0  0  0  0  0  0  0  0  0  0  0
   -3.5603   -3.9476   -1.8875 H   0  0  0  0  0  0  0  0  0  0  0  0
   -3.3635   -5.4005   -0.8548 H   0  0  0  0  0  0  0  0  0  0  0  0
   -2.9510   -5.7410    1.2523 H   0  0  0  0  0  0  0  0  0  0  0  0
   -2.5681   -4.9744    2.8474 H   0  0  0  0  0  0  0  0  0  0  0  0
   -1.2654   -5.6446    1.7941 H   0  0  0  0  0  0  0  0  0  0  0  0
  1  2  1  0
  2  3  1  0
  2  4  1  0
  4  5  1  0
  5  6  2  0
  5  7  1  0
  7  8  1  0
  8  9  1  0
  9 10  1  0
 10 11  1  0
 11 12  2  0
 11 13  1  0
 13 14  2  0
 14 15  1  0
 15 16  2  0
 16 17  1  0
 17 18  2  0
  9 19  1  0
 19 20  2  0
 19 21  1  0
 21 22  1  0
 22 23  1  0
 22 24  1  0
 24 25  2  0
 24 26  1  0
 26 27  1  0
 26 28  1  0
 28 29  1  0
 29 30  1  0
 30 31  1  0
 31 32  1  0
 32 33  1  0
 33 34  2  0
 33 35  1  0
 35 36  1  0
 32 37  1  0
 37 38  1  0
 37 39  1  0
 39 40  2  0
 39 41  1  0
 41 42  1  0
 41 43  1  0
 43 44  1  0
 44 45  2  0
 44 46  1  0
 46 47  1  0
 47 48  1  0
 48 49  2  0
 48 50  1  0
 50 51  2  0
 51 52  1  0
 52 53  2  0
 53 54  1  0
 54 55  2  0
 46 56  1  0
 56 57  1  0
 57 58  1  0
 58 59  2  0
 58 60  1  0
 60 61  1  0
 61 62  1  0
 61 63  1  0
 60 64  1  0
 64 65  1  0
 64 66  1  0
 66 67  2  0
 35  4  1  0
 55 50  1  0
 18 13  1  0
 66 28  1  0
  1 68  1  0
  1 69  1  0
  1 70  1  0
  2 71  1  0
  3 72  1  0
  3 73  1  0
  3 74  1  0
  4 75  1  6
  8 76  1  0
  8 77  1  0
  9 78  1  6
 10 79  1  0
 14 80  1  0
 16 81  1  0
 17 82  1  0
 21 83  1  0
 22 84  1  6
 23 85  1  0
 23 86  1  0
 23 87  1  0
 27 88  1  0
 27 89  1  0
 27 90  1  0
 28 91  1  1
 29 92  1  0
 29 93  1  0
 31 94  1  0
 31 95  1  0
 32 96  1  1
 36 97  1  0
 36 98  1  0
 36 99  1  0
 38100  1  0
 38101  1  0
 38102  1  0
 41103  1  6
 42104  1  0
 42105  1  0
 42106  1  0
 43107  1  0
 46108  1  6
 47109  1  0
 51110  1  0
 53111  1  0
 54112  1  0
 56113  1  0
 56114  1  0
 60115  1  6
 61116  1  0
 62117  1  0
 62118  1  0
 62119  1  0
 63120  1  0
 63121  1  0
 63122  1  0
 65123  1  0
 65124  1  0
 65125  1  0
M  END
$$$$
