
     RDKit          3D

 74 77  0  0  0  0  0  0  0  0999 V2000
    5.5797    1.0505    0.4271 C   0  0  0  0  0  0  0  0  0  0  0  0
    4.0734    1.0230    0.7218 C   0  0  0  0  0  0  0  0  0  0  0  0
    3.6567    2.2548    1.5537 C   0  0  0  0  0  0  0  0  0  0  0  0
    3.2434    0.7516   -0.5749 C   0  0  2  0  0  0  0  0  0  0  0  0
    3.3788    1.7661   -1.6366 N   0  0  0  0  0  0  0  0  0  0  0  0
    3.2835    3.1870   -1.4618 C   0  0  0  0  0  0  0  0  0  0  0  0
    4.2616    3.8287   -0.9960 O   0  0  0  0  0  0  0  0  0  0  0  0
    2.1115    3.9445   -2.0160 C   0  0  0  0  0  0  0  0  0  0  0  0
    0.8315    3.4833   -1.3914 C   0  0  0  0  0  0  0  0  0  0  0  0
    0.5158    3.8028   -0.1286 C   0  0  0  0  0  0  0  0  0  0  0  0
   -0.6436    3.2480    0.6208 C   0  0  0  0  0  0  0  0  0  0  0  0
   -0.7722    3.5663    1.9839 C   0  0  0  0  0  0  0  0  0  0  0  0
   -1.7644    2.9708    2.7692 C   0  0  0  0  0  0  0  0  0  0  0  0
   -2.6268    2.0171    2.2134 C   0  0  0  0  0  0  0  0  0  0  0  0
   -3.5712    1.3508    3.0082 C   0  0  0  0  0  0  0  0  0  0  0  0
   -4.3614    0.3354    2.4605 C   0  0  0  0  0  0  0  0  0  0  0  0
   -4.2257   -0.0202    1.1085 C   0  0  0  0  0  0  0  0  0  0  0  0
   -3.3274    0.6915    0.2963 C   0  0  0  0  0  0  0  0  0  0  0  0
   -2.5190    1.6985    0.8427 C   0  0  0  0  0  0  0  0  0  0  0  0
   -1.5642    2.3482    0.0470 C   0  0  0  0  0  0  0  0  0  0  0  0
   -4.9617   -1.2168    0.5474 C   0  0  1  0  0  0  0  0  0  0  0  0
   -6.0380   -0.7755   -0.4417 C   0  0  0  0  0  0  0  0  0  0  0  0
   -4.0359   -2.0817   -0.1141 O   0  0  0  0  0  0  0  0  0  0  0  0
   -3.0207   -2.7670    0.5653 C   0  0  0  0  0  0  0  0  0  0  0  0
   -3.0578   -2.8833    1.8221 O   0  0  0  0  0  0  0  0  0  0  0  0
   -1.8379   -3.2900   -0.1974 C   0  0  2  0  0  0  0  0  0  0  0  0
   -1.6008   -4.7972    0.1063 C   0  0  0  0  0  0  0  0  0  0  0  0
   -0.3398   -5.0196    0.9461 C   0  0  0  0  0  0  0  0  0  0  0  0
    0.8670   -4.3932    0.2429 C   0  0  0  0  0  0  0  0  0  0  0  0
    0.5185   -3.0786   -0.3076 N   0  0  0  0  0  0  0  0  0  0  0  0
   -0.6711   -2.4559    0.1405 N   0  0  0  0  0  0  0  0  0  0  0  0
    1.4803   -2.3968   -1.1468 C   0  0  0  0  0  0  0  0  0  0  0  0
    2.6941   -2.7351   -1.0952 O   0  0  0  0  0  0  0  0  0  0  0  0
    1.0622   -1.2900   -2.0945 C   0  0  2  0  0  0  0  0  0  0  0  0
    1.9835   -1.1687   -3.3117 C   0  0  0  0  0  0  0  0  0  0  0  0
    0.9357   -0.0004   -1.4060 N   0  0  0  0  0  0  0  0  0  0  0  0
    1.7847    0.4277   -0.3312 C   0  0  0  0  0  0  0  0  0  0  0  0
    1.2852    0.5371    0.8194 O   0  0  0  0  0  0  0  0  0  0  0  0
    5.8949    0.1019   -0.0567 H   0  0  0  0  0  0  0  0  0  0  0  0
    5.8402    1.8920   -0.2461 H   0  0  0  0  0  0  0  0  0  0  0  0
    6.1525    1.1602    1.3735 H   0  0  0  0  0  0  0  0  0  0  0  0
    3.9101    0.1387    1.3777 H   0  0  0  0  0  0  0  0  0  0  0  0
    2.5810    2.4969    1.4477 H   0  0  0  0  0  0  0  0  0  0  0  0
    3.8558    2.0584    2.6296 H   0  0  0  0  0  0  0  0  0  0  0  0
    4.2454    3.1551    1.2904 H   0  0  0  0  0  0  0  0  0  0  0  0
    3.6734   -0.1882   -0.9817 H   0  0  0  0  0  0  0  0  0  0  0  0
    3.1929    1.4283   -2.6076 H   0  0  0  0  0  0  0  0  0  0  0  0
    2.2376    5.0369   -1.8535 H   0  0  0  0  0  0  0  0  0  0  0  0
    2.0657    3.7717   -3.1120 H   0  0  0  0  0  0  0  0  0  0  0  0
    0.1987    2.8560   -1.9958 H   0  0  0  0  0  0  0  0  0  0  0  0
    1.1963    4.4489    0.4131 H   0  0  0  0  0  0  0  0  0  0  0  0
   -0.0845    4.2596    2.4527 H   0  0  0  0  0  0  0  0  0  0  0  0
   -1.8282    3.2260    3.8203 H   0  0  0  0  0  0  0  0  0  0  0  0
   -3.6720    1.5872    4.0608 H   0  0  0  0  0  0  0  0  0  0  0  0
   -5.0517   -0.1982    3.1013 H   0  0  0  0  0  0  0  0  0  0  0  0
   -3.2147    0.4174   -0.7473 H   0  0  0  0  0  0  0  0  0  0  0  0
   -1.5303    2.1082   -1.0037 H   0  0  0  0  0  0  0  0  0  0  0  0
   -5.4625   -1.7859    1.3632 H   0  0  0  0  0  0  0  0  0  0  0  0
   -6.5763   -1.6662   -0.8283 H   0  0  0  0  0  0  0  0  0  0  0  0
   -6.7723   -0.1087    0.0579 H   0  0  0  0  0  0  0  0  0  0  0  0
   -5.5873   -0.2397   -1.3043 H   0  0  0  0  0  0  0  0  0  0  0  0
   -2.0525   -3.1872   -1.2847 H   0  0  0  0  0  0  0  0  0  0  0  0
   -1.4842   -5.3451   -0.8541 H   0  0  0  0  0  0  0  0  0  0  0  0
   -2.4712   -5.2572    0.6243 H   0  0  0  0  0  0  0  0  0  0  0  0
   -0.1675   -6.1078    1.0913 H   0  0  0  0  0  0  0  0  0  0  0  0
   -0.4754   -4.5534    1.9485 H   0  0  0  0  0  0  0  0  0  0  0  0
    1.7089   -4.2917    0.9631 H   0  0  0  0  0  0  0  0  0  0  0  0
    1.1880   -5.0630   -0.5874 H   0  0  0  0  0  0  0  0  0  0  0  0
   -0.7971   -1.5243   -0.3107 H   0  0  0  0  0  0  0  0  0  0  0  0
    0.0641   -1.5657   -2.5016 H   0  0  0  0  0  0  0  0  0  0  0  0
    1.9564   -2.1086   -3.9012 H   0  0  0  0  0  0  0  0  0  0  0  0
    3.0325   -0.9695   -3.0163 H   0  0  0  0  0  0  0  0  0  0  0  0
    1.6337   -0.3418   -3.9663 H   0  0  0  0  0  0  0  0  0  0  0  0
   -0.0081    0.4451   -1.4479 H   0  0  0  0  0  0  0  0  0  0  0  0
  1  2  1  0
  2  3  1  0
  2  4  1  0
  4  5  1  0
  5  6  1  0
  6  7  2  0
  6  8  1  0
  8  9  1  0
  9 10  2  0
 10 11  1  0
 11 12  2  0
 12 13  1  0
 13 14  2  0
 14 15  1  0
 15 16  2  0
 16 17  1  0
 17 18  2  0
 18 19  1  0
 19 20  2  0
 17 21  1  0
 21 22  1  0
 21 23  1  0
 23 24  1  0
 24 25  2  0
 24 26  1  0
 26 27  1  0
 27 28  1  0
 28 29  1  0
 29 30  1  0
 30 31  1  0
 30 32  1  0
 32 33  2  0
 32 34  1  0
 34 35  1  0
 34 36  1  0
 36 37  1  0
 37 38  2  0
 37  4  1  0
 20 11  1  0
 31 26  1  0
 19 14  1  0
  1 39  1  0
  1 40  1  0
  1 41  1  0
  2 42  1  0
  3 43  1  0
  3 44  1  0
  3 45  1  0
  4 46  1  6
  5 47  1  0
  8 48  1  0
  8 49  1  0
  9 50  1  0
 10 51  1  0
 12 52  1  0
 13 53  1  0
 15 54  1  0
 16 55  1  0
 18 56  1  0
 20 57  1  0
 21 58  1  1
 22 59  1  0
 22 60  1  0
 22 61  1  0
 26 62  1  6
 27 63  1  0
 27 64  1  0
 28 65  1  0
 28 66  1  0
 29 67  1  0
 29 68  1  0
 31 69  1  0
 34 70  1  6
 35 71  1  0
 35 72  1  0
 35 73  1  0
 36 74  1  0
M  END
$$$$
