
     RDKit          3D

116119  0  0  0  0  0  0  0  0999 V2000
   -7.1197   -1.9001   -0.8750 C   0  0  0  0  0  0  0  0  0  0  0  0
   -7.0737   -0.3680   -0.7920 C   0  0  0  0  0  0  0  0  0  0  0  0
   -7.6971    0.2455   -2.0569 C   0  0  0  0  0  0  0  0  0  0  0  0
   -5.6384    0.1455   -0.4575 C   0  0  2  0  0  0  0  0  0  0  0  0
   -5.6845    1.5700   -0.0847 N   0  0  0  0  0  0  0  0  0  0  0  0
   -5.3189    2.1507    1.1848 C   0  0  0  0  0  0  0  0  0  0  0  0
   -5.5699    3.3713    1.3729 O   0  0  0  0  0  0  0  0  0  0  0  0
   -4.5993    1.3926    2.2855 C   0  0  2  0  0  0  0  0  0  0  0  0
   -5.4021    1.2905    3.5966 C   0  0  2  0  0  0  0  0  0  0  0  0
   -6.9301    1.2846    3.4468 C   0  0  0  0  0  0  0  0  0  0  0  0
   -4.8905    2.4381    4.4728 C   0  0  0  0  0  0  0  0  0  0  0  0
   -3.4677    2.6950    3.9872 C   0  0  0  0  0  0  0  0  0  0  0  0
   -3.3857    2.1114    2.6551 N   0  0  0  0  0  0  0  0  0  0  0  0
   -2.1439    2.0406    1.9266 C   0  0  0  0  0  0  0  0  0  0  0  0
   -1.0615    2.1963    2.5467 O   0  0  0  0  0  0  0  0  0  0  0  0
   -2.0997    1.8773    0.4295 C   0  0  0  0  0  0  0  0  0  0  0  0
   -1.0764    0.9051    0.0429 N   0  0  0  0  0  0  0  0  0  0  0  0
   -1.3565   -0.3395   -0.6346 C   0  0  0  0  0  0  0  0  0  0  0  0
   -0.5117   -0.8708   -1.4782 N   0  0  0  0  0  0  0  0  0  0  0  0
    0.8301   -0.4714   -1.9492 C   0  0  2  0  0  0  0  0  0  0  0  0
    1.8619   -0.5062   -0.8308 C   0  0  0  0  0  0  0  0  0  0  0  0
    1.4928   -0.4443    0.3702 O   0  0  0  0  0  0  0  0  0  0  0  0
    3.2602   -0.6905   -1.1207 N   0  0  0  0  0  0  0  0  0  0  0  0
    4.2711   -0.6427   -0.0546 C   0  0  0  0  0  0  0  0  0  0  0  0
    4.5878    0.8035    0.2668 C   0  0  0  0  0  0  0  0  0  0  0  0
    3.7647    1.4364    0.9848 O   0  0  0  0  0  0  0  0  0  0  0  0
    5.7537    1.4882   -0.2455 N   0  0  0  0  0  0  0  0  0  0  0  0
    6.1996    2.7580    0.3303 C   0  0  2  0  0  0  0  0  0  0  0  0
    6.9508    3.5951   -0.7184 C   0  0  0  0  0  0  0  0  0  0  0  0
    7.3785    4.9230   -0.1599 C   0  0  0  0  0  0  0  0  0  0  0  0
    6.5448    5.7481    0.1816 O   0  0  0  0  0  0  0  0  0  0  0  0
    7.0454    2.4774    1.5430 C   0  0  0  0  0  0  0  0  0  0  0  0
    6.5945    2.6286    2.8063 N   0  0  0  0  0  0  0  0  0  0  0  0
    7.5430    2.3110    3.7294 C   0  0  0  0  0  0  0  0  0  0  0  0
    8.7610    1.8958    3.2001 C   0  0  0  0  0  0  0  0  0  0  0  0
    8.6400    1.9252    1.5233 S   0  0  0  0  0  0  0  0  0  0  0  0
    5.4989   -1.5347   -0.4082 C   0  0  1  0  0  0  0  0  0  0  0  0
    6.5230   -1.5934    0.7389 C   0  0  0  0  0  0  0  0  0  0  0  0
    5.0585   -2.9479   -0.7739 C   0  0  0  0  0  0  0  0  0  0  0  0
    5.4717   -3.5216   -1.9935 C   0  0  0  0  0  0  0  0  0  0  0  0
    5.0590   -4.8086   -2.3527 C   0  0  0  0  0  0  0  0  0  0  0  0
    4.2355   -5.5427   -1.4941 C   0  0  0  0  0  0  0  0  0  0  0  0
    3.8494   -5.0052   -0.2648 C   0  0  0  0  0  0  0  0  0  0  0  0
    4.2598   -3.7205    0.1001 C   0  0  0  0  0  0  0  0  0  0  0  0
    0.8398    0.7978   -2.8972 C   0  0  0  0  0  0  0  0  0  0  0  0
   -0.3715    0.7363   -3.8567 C   0  0  0  0  0  0  0  0  0  0  0  0
    0.8025    2.1441   -2.1371 C   0  0  0  0  0  0  0  0  0  0  0  0
    2.1208    0.7957   -3.7691 C   0  0  0  0  0  0  0  0  0  0  0  0
   -2.6520   -1.0903   -0.3568 C   0  0  2  0  0  0  0  0  0  0  0  0
   -2.4629   -2.5892    0.0933 C   0  0  0  0  0  0  0  0  0  0  0  0
   -2.0031   -3.5276   -1.0525 C   0  0  0  0  0  0  0  0  0  0  0  0
   -1.4386   -2.6738    1.2463 C   0  0  0  0  0  0  0  0  0  0  0  0
   -3.8147   -3.1255    0.6189 C   0  0  0  0  0  0  0  0  0  0  0  0
   -3.5521   -0.9783   -1.5143 N   0  0  0  0  0  0  0  0  0  0  0  0
   -4.6451   -0.0440   -1.5910 C   0  0  0  0  0  0  0  0  0  0  0  0
   -4.7910    0.6239   -2.6493 O   0  0  0  0  0  0  0  0  0  0  0  0
   -6.4551   -2.2685   -1.6834 H   0  0  0  0  0  0  0  0  0  0  0  0
   -6.8016   -2.3446    0.0915 H   0  0  0  0  0  0  0  0  0  0  0  0
   -8.1559   -2.2448   -1.0726 H   0  0  0  0  0  0  0  0  0  0  0  0
   -7.7267   -0.0780    0.0642 H   0  0  0  0  0  0  0  0  0  0  0  0
   -7.6689    1.3533   -2.0252 H   0  0  0  0  0  0  0  0  0  0  0  0
   -7.1803   -0.1121   -2.9713 H   0  0  0  0  0  0  0  0  0  0  0  0
   -8.7669   -0.0526   -2.1278 H   0  0  0  0  0  0  0  0  0  0  0  0
   -5.3209   -0.4686    0.3995 H   0  0  0  0  0  0  0  0  0  0  0  0
   -5.9941    2.2478   -0.8173 H   0  0  0  0  0  0  0  0  0  0  0  0
   -4.3247    0.3716    2.0001 H   0  0  0  0  0  0  0  0  0  0  0  0
   -5.1155    0.3383    4.0988 H   0  0  0  0  0  0  0  0  0  0  0  0
   -7.3110    2.2736    3.1098 H   0  0  0  0  0  0  0  0  0  0  0  0
   -7.2413    0.5105    2.7098 H   0  0  0  0  0  0  0  0  0  0  0  0
   -7.4036    1.0509    4.4272 H   0  0  0  0  0  0  0  0  0  0  0  0
   -5.5013    3.3588    4.3177 H   0  0  0  0  0  0  0  0  0  0  0  0
   -4.8998    2.1593    5.5487 H   0  0  0  0  0  0  0  0  0  0  0  0
   -3.2550    3.7842    3.9380 H   0  0  0  0  0  0  0  0  0  0  0  0
   -2.7369    2.1989    4.6635 H   0  0  0  0  0  0  0  0  0  0  0  0
   -3.0777    1.5985    0.0090 H   0  0  0  0  0  0  0  0  0  0  0  0
   -1.8410    2.8634   -0.0108 H   0  0  0  0  0  0  0  0  0  0  0  0
   -0.0952    1.2074    0.2072 H   0  0  0  0  0  0  0  0  0  0  0  0
    1.1330   -1.3159   -2.6043 H   0  0  0  0  0  0  0  0  0  0  0  0
    3.5515   -0.9386   -2.0956 H   0  0  0  0  0  0  0  0  0  0  0  0
    3.8348   -1.0732    0.8679 H   0  0  0  0  0  0  0  0  0  0  0  0
    6.3944    1.0033   -0.9171 H   0  0  0  0  0  0  0  0  0  0  0  0
    5.3099    3.3499    0.6457 H   0  0  0  0  0  0  0  0  0  0  0  0
    7.8473    3.0460   -1.0743 H   0  0  0  0  0  0  0  0  0  0  0  0
    6.2907    3.7713   -1.5920 H   0  0  0  0  0  0  0  0  0  0  0  0
    8.4309    5.1443   -0.0381 H   0  0  0  0  0  0  0  0  0  0  0  0
    7.3648    2.4005    4.7922 H   0  0  0  0  0  0  0  0  0  0  0  0
    9.6445    1.6316    3.7761 H   0  0  0  0  0  0  0  0  0  0  0  0
    6.0117   -1.1036   -1.2974 H   0  0  0  0  0  0  0  0  0  0  0  0
    7.0733   -0.6296    0.8019 H   0  0  0  0  0  0  0  0  0  0  0  0
    6.0175   -1.7769    1.7126 H   0  0  0  0  0  0  0  0  0  0  0  0
    7.2676   -2.3965    0.5551 H   0  0  0  0  0  0  0  0  0  0  0  0
    6.1036   -2.9670   -2.6774 H   0  0  0  0  0  0  0  0  0  0  0  0
    5.3710   -5.2309   -3.3010 H   0  0  0  0  0  0  0  0  0  0  0  0
    3.9099   -6.5364   -1.7759 H   0  0  0  0  0  0  0  0  0  0  0  0
    3.2190   -5.5765    0.4001 H   0  0  0  0  0  0  0  0  0  0  0  0
    3.9567   -3.3308    1.0612 H   0  0  0  0  0  0  0  0  0  0  0  0
   -0.3449    1.5772   -4.5853 H   0  0  0  0  0  0  0  0  0  0  0  0
   -1.3316    0.8116   -3.2954 H   0  0  0  0  0  0  0  0  0  0  0  0
   -0.3740   -0.2200   -4.4217 H   0  0  0  0  0  0  0  0  0  0  0  0
    1.0697    2.9821   -2.8196 H   0  0  0  0  0  0  0  0  0  0  0  0
   -0.2179    2.3751   -1.7745 H   0  0  0  0  0  0  0  0  0  0  0  0
    1.5227    2.1577   -1.2907 H   0  0  0  0  0  0  0  0  0  0  0  0
    2.2532   -0.1774   -4.2885 H   0  0  0  0  0  0  0  0  0  0  0  0
    2.0685    1.5865   -4.5526 H   0  0  0  0  0  0  0  0  0  0  0  0
    3.0232    1.0099   -3.1612 H   0  0  0  0  0  0  0  0  0  0  0  0
   -3.1086   -0.5944    0.5085 H   0  0  0  0  0  0  0  0  0  0  0  0
   -0.9998   -3.2586   -1.4351 H   0  0  0  0  0  0  0  0  0  0  0  0
   -2.7269   -3.5250   -1.8927 H   0  0  0  0  0  0  0  0  0  0  0  0
   -1.9240   -4.5731   -0.6820 H   0  0  0  0  0  0  0  0  0  0  0  0
   -1.3953   -3.7019    1.6650 H   0  0  0  0  0  0  0  0  0  0  0  0
   -0.4202   -2.4045    0.8983 H   0  0  0  0  0  0  0  0  0  0  0  0
   -1.7211   -1.9780    2.0674 H   0  0  0  0  0  0  0  0  0  0  0  0
   -4.5686   -3.1462   -0.1963 H   0  0  0  0  0  0  0  0  0  0  0  0
   -3.7074   -4.1635    1.0088 H   0  0  0  0  0  0  0  0  0  0  0  0
   -4.1989   -2.4942    1.4478 H   0  0  0  0  0  0  0  0  0  0  0  0
   -3.1976   -1.3478   -2.4280 H   0  0  0  0  0  0  0  0  0  0  0  0
  1  2  1  0
  2  3  1  0
  2  4  1  0
  4  5  1  0
  5  6  1  0
  6  7  2  0
  6  8  1  0
  8  9  1  0
  9 10  1  0
  9 11  1  0
 11 12  1  0
 12 13  1  0
 13 14  1  0
 14 15  2  0
 14 16  1  0
 16 17  1  0
 17 18  1  0
 18 19  2  0
 19 20  1  0
 20 21  1  0
 21 22  2  0
 21 23  1  0
 23 24  1  0
 24 25  1  0
 25 26  2  0
 25 27  1  0
 27 28  1  0
 28 29  1  0
 29 30  1  0
 30 31  2  0
 28 32  1  0
 32 33  2  0
 33 34  1  0
 34 35  2  0
 35 36  1  0
 24 37  1  0
 37 38  1  0
 37 39  1  0
 39 40  2  0
 40 41  1  0
 41 42  2  0
 42 43  1  0
 43 44  2  0
 20 45  1  0
 45 46  1  0
 45 47  1  0
 45 48  1  0
 18 49  1  0
 49 50  1  0
 50 51  1  0
 50 52  1  0
 50 53  1  0
 49 54  1  0
 54 55  1  0
 55 56  2  0
 55  4  1  0
 13  8  1  0
 36 32  1  0
 44 39  1  0
  1 57  1  0
  1 58  1  0
  1 59  1  0
  2 60  1  0
  3 61  1  0
  3 62  1  0
  3 63  1  0
  4 64  1  1
  5 65  1  0
  8 66  1  6
  9 67  1  1
 10 68  1  0
 10 69  1  0
 10 70  1  0
 11 71  1  0
 11 72  1  0
 12 73  1  0
 12 74  1  0
 16 75  1  0
 16 76  1  0
 17 77  1  0
 20 78  1  6
 23 79  1  0
 24 80  1  0
 27 81  1  0
 28 82  1  1
 29 83  1  0
 29 84  1  0
 30 85  1  0
 34 86  1  0
 35 87  1  0
 37 88  1  6
 38 89  1  0
 38 90  1  0
 38 91  1  0
 40 92  1  0
 41 93  1  0
 42 94  1  0
 43 95  1  0
 44 96  1  0
 46 97  1  0
 46 98  1  0
 46 99  1  0
 47100  1  0
 47101  1  0
 47102  1  0
 48103  1  0
 48104  1  0
 48105  1  0
 49106  1  1
 51107  1  0
 51108  1  0
 51109  1  0
 52110  1  0
 52111  1  0
 52112  1  0
 53113  1  0
 53114  1  0
 53115  1  0
 54116  1  0
M  END
$$$$
