
     RDKit          3D

 70 73  0  0  0  0  0  0  0  0999 V2000
    6.8536    1.3719   -1.0383 C   0  0  0  0  0  0  0  0  0  0  0  0
    7.8919    0.4152   -0.4568 C   0  0  0  0  0  0  0  0  0  0  0  0
    7.3606   -1.0196   -0.3312 C   0  0  0  0  0  0  0  0  0  0  0  0
    6.2582   -1.0936    0.6247 N   0  0  0  0  0  0  0  0  0  0  0  0
    6.3720   -1.2468    1.9569 C   0  0  0  0  0  0  0  0  0  0  0  0
    5.1055   -1.2280    2.4975 C   0  0  0  0  0  0  0  0  0  0  0  0
    4.7125   -1.3468    4.2025 Cl  0  0  0  0  0  0  0  0  0  0  0  0
    4.2505   -1.0405    1.4194 C   0  0  0  0  0  0  0  0  0  0  0  0
    2.7768   -0.8879    1.4721 C   0  0  0  0  0  0  0  0  0  0  0  0
    2.1819   -1.0711    2.5672 O   0  0  0  0  0  0  0  0  0  0  0  0
    2.0041   -0.4960    0.3188 N   0  0  0  0  0  0  0  0  0  0  0  0
    2.3816   -0.8736   -1.0408 C   0  0  0  0  0  0  0  0  0  0  0  0
    1.1246   -1.0747   -1.8819 C   0  0  0  0  0  0  0  0  0  0  0  0
    0.2298    0.0250   -1.7917 O   0  0  0  0  0  0  0  0  0  0  0  0
   -0.2205    0.2860   -0.4605 C   0  0  0  0  0  0  0  0  0  0  0  0
   -1.0763    1.5816   -0.5417 C   0  0  0  0  0  0  0  0  0  0  0  0
   -1.7722    2.0061    0.7718 C   0  0  0  0  0  0  0  0  0  0  0  0
   -2.5754    3.3113    0.6233 C   0  0  0  0  0  0  0  0  0  0  0  0
   -3.8116    3.2053   -0.2844 C   0  0  0  0  0  0  0  0  0  0  0  0
   -4.9058    2.3442    0.3060 C   0  0  0  0  0  0  0  0  0  0  0  0
   -5.8728    2.9417    1.1331 C   0  0  0  0  0  0  0  0  0  0  0  0
   -6.9439    2.1920    1.6256 C   0  0  0  0  0  0  0  0  0  0  0  0
   -7.0518    0.8392    1.3101 C   0  0  0  0  0  0  0  0  0  0  0  0
   -6.0841    0.2242    0.5116 C   0  0  0  0  0  0  0  0  0  0  0  0
   -4.9916    0.9632    0.0142 C   0  0  0  0  0  0  0  0  0  0  0  0
   -3.9679    0.3621   -0.7386 O   0  0  0  0  0  0  0  0  0  0  0  0
   -4.0332   -0.9231   -1.3444 C   0  0  0  0  0  0  0  0  0  0  0  0
   -2.6539   -1.3417   -1.8629 C   0  0  0  0  0  0  0  0  0  0  0  0
   -1.7840   -1.7981   -0.7633 N   0  0  0  0  0  0  0  0  0  0  0  0
   -1.6156   -3.2425   -0.5206 C   0  0  0  0  0  0  0  0  0  0  0  0
   -2.6049   -3.7589    0.5219 C   0  0  0  0  0  0  0  0  0  0  0  0
   -1.0703   -0.8740    0.0896 C   0  0  0  0  0  0  0  0  0  0  0  0
   -1.1133   -1.0557    1.3381 O   0  0  0  0  0  0  0  0  0  0  0  0
    1.0086    0.5675    0.4529 C   0  0  0  0  0  0  0  0  0  0  0  0
    4.9850   -0.9555    0.2904 N   0  0  0  0  0  0  0  0  0  0  0  0
    7.3209    2.3661   -1.1981 H   0  0  0  0  0  0  0  0  0  0  0  0
    6.0039    1.4977   -0.3339 H   0  0  0  0  0  0  0  0  0  0  0  0
    6.4713    0.9916   -2.0089 H   0  0  0  0  0  0  0  0  0  0  0  0
    8.2217    0.7839    0.5419 H   0  0  0  0  0  0  0  0  0  0  0  0
    8.7779    0.4057   -1.1313 H   0  0  0  0  0  0  0  0  0  0  0  0
    8.1877   -1.6819    0.0040 H   0  0  0  0  0  0  0  0  0  0  0  0
    7.0238   -1.3893   -1.3242 H   0  0  0  0  0  0  0  0  0  0  0  0
    7.3048   -1.3485    2.4970 H   0  0  0  0  0  0  0  0  0  0  0  0
    2.9522   -1.8274   -1.0413 H   0  0  0  0  0  0  0  0  0  0  0  0
    3.0070   -0.0703   -1.4893 H   0  0  0  0  0  0  0  0  0  0  0  0
    1.4319   -1.1849   -2.9419 H   0  0  0  0  0  0  0  0  0  0  0  0
    0.6330   -2.0263   -1.6076 H   0  0  0  0  0  0  0  0  0  0  0  0
   -0.4340    2.4185   -0.8906 H   0  0  0  0  0  0  0  0  0  0  0  0
   -1.8298    1.4495   -1.3386 H   0  0  0  0  0  0  0  0  0  0  0  0
   -1.0017    2.1898    1.5486 H   0  0  0  0  0  0  0  0  0  0  0  0
   -2.4342    1.2130    1.1646 H   0  0  0  0  0  0  0  0  0  0  0  0
   -1.9046    4.0991    0.2212 H   0  0  0  0  0  0  0  0  0  0  0  0
   -2.9024    3.6455    1.6303 H   0  0  0  0  0  0  0  0  0  0  0  0
   -4.2062    4.2345   -0.4416 H   0  0  0  0  0  0  0  0  0  0  0  0
   -3.5389    2.8517   -1.2973 H   0  0  0  0  0  0  0  0  0  0  0  0
   -5.8122    3.9941    1.3792 H   0  0  0  0  0  0  0  0  0  0  0  0
   -7.6966    2.6651    2.2463 H   0  0  0  0  0  0  0  0  0  0  0  0
   -7.8916    0.2605    1.6794 H   0  0  0  0  0  0  0  0  0  0  0  0
   -6.2039   -0.8272    0.2966 H   0  0  0  0  0  0  0  0  0  0  0  0
   -4.3881   -1.6784   -0.6174 H   0  0  0  0  0  0  0  0  0  0  0  0
   -4.7502   -0.8812   -2.1902 H   0  0  0  0  0  0  0  0  0  0  0  0
   -2.1795   -0.5222   -2.4371 H   0  0  0  0  0  0  0  0  0  0  0  0
   -2.8151   -2.1669   -2.5846 H   0  0  0  0  0  0  0  0  0  0  0  0
   -1.7554   -3.8139   -1.4644 H   0  0  0  0  0  0  0  0  0  0  0  0
   -0.5812   -3.4529   -0.1643 H   0  0  0  0  0  0  0  0  0  0  0  0
   -2.3931   -4.8321    0.7216 H   0  0  0  0  0  0  0  0  0  0  0  0
   -2.5047   -3.2004    1.4820 H   0  0  0  0  0  0  0  0  0  0  0  0
   -3.6503   -3.6767    0.1500 H   0  0  0  0  0  0  0  0  0  0  0  0
    0.6970    0.6809    1.5130 H   0  0  0  0  0  0  0  0  0  0  0  0
    1.4926    1.5250    0.1549 H   0  0  0  0  0  0  0  0  0  0  0  0
  1  2  1  0
  2  3  1  0
  3  4  1  0
  4  5  1  0
  5  6  2  0
  6  7  1  0
  6  8  1  0
  8  9  1  0
  9 10  2  0
  9 11  1  0
 11 12  1  0
 12 13  1  0
 13 14  1  0
 14 15  1  0
 15 16  1  0
 16 17  1  0
 17 18  1  0
 18 19  1  0
 19 20  1  0
 20 21  2  0
 21 22  1  0
 22 23  2  0
 23 24  1  0
 24 25  2  0
 25 26  1  0
 26 27  1  0
 27 28  1  0
 28 29  1  0
 29 30  1  0
 30 31  1  0
 29 32  1  0
 32 33  2  0
 15 34  1  0
  8 35  2  0
 35  4  1  0
 34 11  1  0
 32 15  1  0
 25 20  1  0
  1 36  1  0
  1 37  1  0
  1 38  1  0
  2 39  1  0
  2 40  1  0
  3 41  1  0
  3 42  1  0
  5 43  1  0
 12 44  1  0
 12 45  1  0
 13 46  1  0
 13 47  1  0
 16 48  1  0
 16 49  1  0
 17 50  1  0
 17 51  1  0
 18 52  1  0
 18 53  1  0
 19 54  1  0
 19 55  1  0
 21 56  1  0
 22 57  1  0
 23 58  1  0
 24 59  1  0
 27 60  1  0
 27 61  1  0
 28 62  1  0
 28 63  1  0
 30 64  1  0
 30 65  1  0
 31 66  1  0
 31 67  1  0
 31 68  1  0
 34 69  1  0
 34 70  1  0
M  END
$$$$
