
     RDKit          3D

 65 67  0  0  0  0  0  0  0  0999 V2000
   -3.0667    4.6325    2.0547 C   0  0  0  0  0  0  0  0  0  0  0  0
   -1.9548    3.6474    1.6918 C   0  0  0  0  0  0  0  0  0  0  0  0
   -1.9765    3.3051    0.1748 C   0  0  0  0  0  0  0  0  0  0  0  0
   -1.4535    1.9546   -0.0752 N   0  0  0  0  0  0  0  0  0  0  0  0
   -0.7836    1.6696   -1.3254 C   0  0  0  0  0  0  0  0  0  0  0  0
   -0.8084    2.5241   -2.2542 O   0  0  0  0  0  0  0  0  0  0  0  0
   -0.0406    0.3758   -1.5667 C   0  0  0  0  0  0  0  0  0  0  0  0
   -0.8242   -0.5153   -2.5531 C   0  0  0  0  0  0  0  0  0  0  0  0
   -0.0632   -1.7445   -2.9891 C   0  0  0  0  0  0  0  0  0  0  0  0
    0.8155   -1.6331   -3.8874 O   0  0  0  0  0  0  0  0  0  0  0  0
   -0.4109   -3.0547   -2.5089 N   0  0  0  0  0  0  0  0  0  0  0  0
   -0.6209   -4.1166   -3.4961 C   0  0  0  0  0  0  0  0  0  0  0  0
   -0.4852   -3.3565   -1.0750 C   0  0  0  0  0  0  0  0  0  0  0  0
    0.5949   -4.3378   -0.6973 C   0  0  0  0  0  0  0  0  0  0  0  0
    0.3812   -5.5715   -0.8435 O   0  0  0  0  0  0  0  0  0  0  0  0
    1.8914   -3.8958   -0.2641 N   0  0  0  0  0  0  0  0  0  0  0  0
    3.0804   -4.4107   -0.9399 C   0  0  0  0  0  0  0  0  0  0  0  0
    2.0234   -2.9692    0.8642 C   0  0  0  0  0  0  0  0  0  0  0  0
    2.3577   -1.5571    0.3801 C   0  0  0  0  0  0  0  0  0  0  0  0
    1.8137   -0.6247    1.3115 O   0  0  0  0  0  0  0  0  0  0  0  0
    1.8827    0.7800    1.2797 C   0  0  0  0  0  0  0  0  0  0  0  0
    1.5908    1.4334    2.4863 C   0  0  0  0  0  0  0  0  0  0  0  0
    1.6190    2.8248    2.5782 C   0  0  0  0  0  0  0  0  0  0  0  0
    1.9464    3.5893    1.4619 C   0  0  0  0  0  0  0  0  0  0  0  0
    2.2350    2.9648    0.2516 C   0  0  0  0  0  0  0  0  0  0  0  0
    2.1933    1.5649    0.1350 C   0  0  0  0  0  0  0  0  0  0  0  0
    2.4092    1.0113   -1.2116 C   0  0  0  0  0  0  0  0  0  0  0  0
    3.5833    0.9545   -1.6663 O   0  0  0  0  0  0  0  0  0  0  0  0
    1.3076    0.6717   -2.0680 N   0  0  0  0  0  0  0  0  0  0  0  0
   -1.8338    0.8717    0.8423 C   0  0  0  0  0  0  0  0  0  0  0  0
   -2.6712    1.4240    2.0023 C   0  0  0  0  0  0  0  0  0  0  0  0
   -2.8753    0.3572    3.0766 C   0  0  0  0  0  0  0  0  0  0  0  0
   -1.9986    2.5285    2.5712 O   0  0  0  0  0  0  0  0  0  0  0  0
   -2.9701    4.9350    3.1190 H   0  0  0  0  0  0  0  0  0  0  0  0
   -2.9948    5.5415    1.4212 H   0  0  0  0  0  0  0  0  0  0  0  0
   -4.0630    4.1654    1.9068 H   0  0  0  0  0  0  0  0  0  0  0  0
   -0.9914    4.1667    1.8904 H   0  0  0  0  0  0  0  0  0  0  0  0
   -3.0132    3.3548   -0.2223 H   0  0  0  0  0  0  0  0  0  0  0  0
   -1.3742    4.0676   -0.3646 H   0  0  0  0  0  0  0  0  0  0  0  0
    0.0486   -0.1876   -0.6266 H   0  0  0  0  0  0  0  0  0  0  0  0
   -1.7831   -0.8258   -2.0846 H   0  0  0  0  0  0  0  0  0  0  0  0
   -1.0784    0.0699   -3.4638 H   0  0  0  0  0  0  0  0  0  0  0  0
    0.3437   -4.3621   -3.9903 H   0  0  0  0  0  0  0  0  0  0  0  0
   -1.0270   -5.0330   -3.0184 H   0  0  0  0  0  0  0  0  0  0  0  0
   -1.3499   -3.7783   -4.2639 H   0  0  0  0  0  0  0  0  0  0  0  0
   -1.4810   -3.7918   -0.8452 H   0  0  0  0  0  0  0  0  0  0  0  0
   -0.3911   -2.4351   -0.4688 H   0  0  0  0  0  0  0  0  0  0  0  0
    3.1227   -5.5152   -0.8422 H   0  0  0  0  0  0  0  0  0  0  0  0
    3.0410   -4.1447   -2.0170 H   0  0  0  0  0  0  0  0  0  0  0  0
    4.0069   -3.9811   -0.5006 H   0  0  0  0  0  0  0  0  0  0  0  0
    2.8163   -3.3268    1.5571 H   0  0  0  0  0  0  0  0  0  0  0  0
    1.0752   -2.9548    1.4471 H   0  0  0  0  0  0  0  0  0  0  0  0
    1.9133   -1.4242   -0.6200 H   0  0  0  0  0  0  0  0  0  0  0  0
    3.4589   -1.4274    0.3090 H   0  0  0  0  0  0  0  0  0  0  0  0
    1.3340    0.8507    3.3621 H   0  0  0  0  0  0  0  0  0  0  0  0
    1.3912    3.3123    3.5184 H   0  0  0  0  0  0  0  0  0  0  0  0
    1.9699    4.6694    1.5322 H   0  0  0  0  0  0  0  0  0  0  0  0
    2.4661    3.5793   -0.6099 H   0  0  0  0  0  0  0  0  0  0  0  0
    1.4809    0.6739   -3.0982 H   0  0  0  0  0  0  0  0  0  0  0  0
   -2.4168    0.0993    0.2941 H   0  0  0  0  0  0  0  0  0  0  0  0
   -0.9197    0.4050    1.2625 H   0  0  0  0  0  0  0  0  0  0  0  0
   -3.6804    1.7224    1.6328 H   0  0  0  0  0  0  0  0  0  0  0  0
   -1.8969    0.0324    3.4949 H   0  0  0  0  0  0  0  0  0  0  0  0
   -3.3994   -0.5246    2.6496 H   0  0  0  0  0  0  0  0  0  0  0  0
   -3.4962    0.7694    3.8989 H   0  0  0  0  0  0  0  0  0  0  0  0
  1  2  1  0
  2  3  1  0
  3  4  1  0
  4  5  1  0
  5  6  2  0
  5  7  1  0
  7  8  1  0
  8  9  1  0
  9 10  2  0
  9 11  1  0
 11 12  1  0
 11 13  1  0
 13 14  1  0
 14 15  2  0
 14 16  1  0
 16 17  1  0
 16 18  1  0
 18 19  1  0
 19 20  1  0
 20 21  1  0
 21 22  2  0
 22 23  1  0
 23 24  2  0
 24 25  1  0
 25 26  2  0
 26 27  1  0
 27 28  2  0
 27 29  1  0
  4 30  1  0
 30 31  1  0
 31 32  1  0
 31 33  1  0
 33  2  1  0
 29  7  1  0
 26 21  1  0
  1 34  1  0
  1 35  1  0
  1 36  1  0
  2 37  1  0
  3 38  1  0
  3 39  1  0
  7 40  1  0
  8 41  1  0
  8 42  1  0
 12 43  1  0
 12 44  1  0
 12 45  1  0
 13 46  1  0
 13 47  1  0
 17 48  1  0
 17 49  1  0
 17 50  1  0
 18 51  1  0
 18 52  1  0
 19 53  1  0
 19 54  1  0
 22 55  1  0
 23 56  1  0
 24 57  1  0
 25 58  1  0
 29 59  1  0
 30 60  1  0
 30 61  1  0
 31 62  1  0
 32 63  1  0
 32 64  1  0
 32 65  1  0
M  END
$$$$
