
     RDKit          3D

 85 86  0  0  0  0  0  0  0  0999 V2000
    7.7444   -3.4131   -1.9863 C   0  0  0  0  0  0  0  0  0  0  0  0
    8.7910   -3.0996   -0.9162 C   0  0  0  0  0  0  0  0  0  0  0  0
    8.2514   -2.1801    0.1896 C   0  0  0  0  0  0  0  0  0  0  0  0
    7.9827   -0.7504   -0.3112 C   0  0  0  0  0  0  0  0  0  0  0  0
    7.6204    0.2196    0.8258 C   0  0  0  0  0  0  0  0  0  0  0  0
    6.2823   -0.0795    1.5289 C   0  0  0  0  0  0  0  0  0  0  0  0
    5.0485    0.0901    0.6164 C   0  0  0  0  0  0  0  0  0  0  0  0
    4.4782   -1.2602    0.1468 C   0  0  0  0  0  0  0  0  0  0  0  0
    3.2953   -1.0929   -0.8173 C   0  0  0  0  0  0  0  0  0  0  0  0
    2.1128   -0.4629   -0.1417 C   0  0  0  0  0  0  0  0  0  0  0  0
    1.4067   -1.1533    0.6444 O   0  0  0  0  0  0  0  0  0  0  0  0
    1.8161    0.9281   -0.3538 N   0  0  0  0  0  0  0  0  0  0  0  0
    0.7139    1.6003    0.3417 C   0  0  1  0  0  0  0  0  0  0  0  0
    0.8598    3.1289    0.2240 C   0  0  0  0  0  0  0  0  0  0  0  0
   -0.1974    3.8525    1.0105 C   0  0  0  0  0  0  0  0  0  0  0  0
   -0.1521    4.0001    2.4055 C   0  0  0  0  0  0  0  0  0  0  0  0
   -1.2566    4.6555    2.9298 C   0  0  0  0  0  0  0  0  0  0  0  0
   -2.2857    5.0389    1.6600 S   0  0  0  0  0  0  0  0  0  0  0  0
   -1.3445    4.3846    0.4319 C   0  0  0  0  0  0  0  0  0  0  0  0
   -0.6009    1.1424   -0.2338 C   0  0  0  0  0  0  0  0  0  0  0  0
   -0.7577    1.1125   -1.4847 O   0  0  0  0  0  0  0  0  0  0  0  0
   -1.6840    0.7875    0.6397 N   0  0  0  0  0  0  0  0  0  0  0  0
   -2.9305    0.2059    0.1298 C   0  0  1  0  0  0  0  0  0  0  0  0
   -3.7142   -0.4316    1.2556 C   0  0  0  0  0  0  0  0  0  0  0  0
   -4.2291    0.2757    2.2773 C   0  0  0  0  0  0  0  0  0  0  0  0
   -5.0016   -0.3882    3.3904 C   0  0  0  0  0  0  0  0  0  0  0  0
   -6.4715    0.0470    3.4015 C   0  0  0  0  0  0  0  0  0  0  0  0
   -7.1338   -0.3465    2.1597 N   0  0  0  0  0  0  0  0  0  0  0  0
   -7.5390    0.6343    1.1974 C   0  0  0  0  0  0  0  0  0  0  0  0
   -8.3004    1.5743    1.5524 O   0  0  0  0  0  0  0  0  0  0  0  0
   -7.0132    0.6203   -0.1804 C   0  0  0  0  0  0  0  0  0  0  0  0
   -6.2258   -0.3544   -0.6455 C   0  0  0  0  0  0  0  0  0  0  0  0
   -5.4472   -0.1783   -1.9275 C   0  0  2  0  0  0  0  0  0  0  0  0
   -4.7416   -1.4922   -2.3666 C   0  0  0  0  0  0  0  0  0  0  0  0
   -3.7600   -1.2477   -3.5249 C   0  0  0  0  0  0  0  0  0  0  0  0
   -5.7728   -2.5516   -2.7916 C   0  0  0  0  0  0  0  0  0  0  0  0
   -4.4972    0.9403   -1.7899 N   0  0  0  0  0  0  0  0  0  0  0  0
   -3.7465    1.2487   -0.5993 C   0  0  0  0  0  0  0  0  0  0  0  0
   -3.7740    2.4264   -0.1564 O   0  0  0  0  0  0  0  0  0  0  0  0
    7.5062   -2.5052   -2.5774 H   0  0  0  0  0  0  0  0  0  0  0  0
    6.8158   -3.8091   -1.5216 H   0  0  0  0  0  0  0  0  0  0  0  0
    8.1467   -4.1806   -2.6805 H   0  0  0  0  0  0  0  0  0  0  0  0
    9.1097   -4.0575   -0.4509 H   0  0  0  0  0  0  0  0  0  0  0  0
    9.6863   -2.6430   -1.3909 H   0  0  0  0  0  0  0  0  0  0  0  0
    7.3282   -2.6271    0.6134 H   0  0  0  0  0  0  0  0  0  0  0  0
    9.0071   -2.1412    1.0026 H   0  0  0  0  0  0  0  0  0  0  0  0
    8.9037   -0.3677   -0.8006 H   0  0  0  0  0  0  0  0  0  0  0  0
    7.1821   -0.7430   -1.0779 H   0  0  0  0  0  0  0  0  0  0  0  0
    7.5834    1.2504    0.4131 H   0  0  0  0  0  0  0  0  0  0  0  0
    8.4321    0.2072    1.5834 H   0  0  0  0  0  0  0  0  0  0  0  0
    6.3025   -1.0818    2.0050 H   0  0  0  0  0  0  0  0  0  0  0  0
    6.1889    0.6474    2.3649 H   0  0  0  0  0  0  0  0  0  0  0  0
    4.2599    0.6192    1.1928 H   0  0  0  0  0  0  0  0  0  0  0  0
    5.2891    0.7284   -0.2610 H   0  0  0  0  0  0  0  0  0  0  0  0
    4.1566   -1.8584    1.0291 H   0  0  0  0  0  0  0  0  0  0  0  0
    5.2648   -1.8356   -0.3809 H   0  0  0  0  0  0  0  0  0  0  0  0
    2.9963   -2.0954   -1.1964 H   0  0  0  0  0  0  0  0  0  0  0  0
    3.6065   -0.4878   -1.6976 H   0  0  0  0  0  0  0  0  0  0  0  0
    2.4410    1.4796   -0.9842 H   0  0  0  0  0  0  0  0  0  0  0  0
    0.7670    1.3341    1.4219 H   0  0  0  0  0  0  0  0  0  0  0  0
    0.8123    3.4348   -0.8437 H   0  0  0  0  0  0  0  0  0  0  0  0
    1.8577    3.4307    0.6094 H   0  0  0  0  0  0  0  0  0  0  0  0
    0.6588    3.6314    3.0173 H   0  0  0  0  0  0  0  0  0  0  0  0
   -1.4274    4.8716    3.9748 H   0  0  0  0  0  0  0  0  0  0  0  0
   -1.5918    4.3705   -0.6198 H   0  0  0  0  0  0  0  0  0  0  0  0
   -1.5514    0.9058    1.6680 H   0  0  0  0  0  0  0  0  0  0  0  0
   -2.6527   -0.5963   -0.5813 H   0  0  0  0  0  0  0  0  0  0  0  0
   -3.8475   -1.5090    1.2293 H   0  0  0  0  0  0  0  0  0  0  0  0
   -4.0975    1.3531    2.3118 H   0  0  0  0  0  0  0  0  0  0  0  0
   -4.9501   -1.4963    3.3098 H   0  0  0  0  0  0  0  0  0  0  0  0
   -4.5360   -0.1017    4.3583 H   0  0  0  0  0  0  0  0  0  0  0  0
   -6.5368    1.1483    3.5534 H   0  0  0  0  0  0  0  0  0  0  0  0
   -6.9855   -0.4446    4.2555 H   0  0  0  0  0  0  0  0  0  0  0  0
   -7.1647   -1.3589    1.9098 H   0  0  0  0  0  0  0  0  0  0  0  0
   -7.1869    1.4958   -0.7939 H   0  0  0  0  0  0  0  0  0  0  0  0
   -6.0505   -1.2418   -0.0553 H   0  0  0  0  0  0  0  0  0  0  0  0
   -6.1758    0.0872   -2.7283 H   0  0  0  0  0  0  0  0  0  0  0  0
   -4.1710   -1.9167   -1.5135 H   0  0  0  0  0  0  0  0  0  0  0  0
   -2.9387   -0.5716   -3.2067 H   0  0  0  0  0  0  0  0  0  0  0  0
   -4.2856   -0.7953   -4.3936 H   0  0  0  0  0  0  0  0  0  0  0  0
   -3.2952   -2.2032   -3.8477 H   0  0  0  0  0  0  0  0  0  0  0  0
   -5.2591   -3.4973   -3.0654 H   0  0  0  0  0  0  0  0  0  0  0  0
   -6.3584   -2.1968   -3.6678 H   0  0  0  0  0  0  0  0  0  0  0  0
   -6.4707   -2.7789   -1.9598 H   0  0  0  0  0  0  0  0  0  0  0  0
   -4.5954    1.7149   -2.4836 H   0  0  0  0  0  0  0  0  0  0  0  0
  1  2  1  0
  2  3  1  0
  3  4  1  0
  4  5  1  0
  5  6  1  0
  6  7  1  0
  7  8  1  0
  8  9  1  0
  9 10  1  0
 10 11  2  0
 10 12  1  0
 12 13  1  0
 13 14  1  0
 14 15  1  0
 15 16  1  0
 16 17  2  0
 17 18  1  0
 18 19  1  0
 13 20  1  0
 20 21  2  0
 20 22  1  0
 22 23  1  0
 23 24  1  0
 24 25  2  0
 25 26  1  0
 26 27  1  0
 27 28  1  0
 28 29  1  0
 29 30  2  0
 29 31  1  0
 31 32  2  0
 32 33  1  0
 33 34  1  0
 34 35  1  0
 34 36  1  0
 33 37  1  0
 37 38  1  0
 38 39  2  0
 19 15  2  0
 38 23  1  0
  1 40  1  0
  1 41  1  0
  1 42  1  0
  2 43  1  0
  2 44  1  0
  3 45  1  0
  3 46  1  0
  4 47  1  0
  4 48  1  0
  5 49  1  0
  5 50  1  0
  6 51  1  0
  6 52  1  0
  7 53  1  0
  7 54  1  0
  8 55  1  0
  8 56  1  0
  9 57  1  0
  9 58  1  0
 12 59  1  0
 13 60  1  1
 14 61  1  0
 14 62  1  0
 16 63  1  0
 17 64  1  0
 19 65  1  0
 22 66  1  0
 23 67  1  6
 24 68  1  0
 25 69  1  0
 26 70  1  0
 26 71  1  0
 27 72  1  0
 27 73  1  0
 28 74  1  0
 31 75  1  0
 32 76  1  0
 33 77  1  6
 34 78  1  0
 35 79  1  0
 35 80  1  0
 35 81  1  0
 36 82  1  0
 36 83  1  0
 36 84  1  0
 37 85  1  0
M  END
$$$$
