
     RDKit          3D

 74 76  0  0  0  0  0  0  0  0999 V2000
   -6.2541    3.0390    1.4518 C   0  0  0  0  0  0  0  0  0  0  0  0
   -5.1519    2.2226    0.7637 C   0  0  0  0  0  0  0  0  0  0  0  0
   -4.9402    2.7440   -0.6667 C   0  0  0  0  0  0  0  0  0  0  0  0
   -5.5199    0.7181    0.7828 C   0  0  0  0  0  0  0  0  0  0  0  0
   -4.3503   -0.2183    0.4070 C   0  0  0  0  0  0  0  0  0  0  0  0
   -3.2851   -0.1273    1.4152 N   0  0  0  0  0  0  0  0  0  0  0  0
   -2.0506    0.5930    1.2497 C   0  0  0  0  0  0  0  0  0  0  0  0
   -1.4782    1.0520    2.2750 O   0  0  0  0  0  0  0  0  0  0  0  0
   -1.4240    0.8310   -0.1014 C   0  0  0  0  0  0  0  0  0  0  0  0
    0.0968    0.6076   -0.0592 C   0  0  0  0  0  0  0  0  0  0  0  0
    0.7077    0.5301   -1.4710 C   0  0  0  0  0  0  0  0  0  0  0  0
    2.2173    0.5466   -1.4059 C   0  0  0  0  0  0  0  0  0  0  0  0
    2.8804   -0.5128   -1.5709 O   0  0  0  0  0  0  0  0  0  0  0  0
    2.8989    1.7766   -1.1181 N   0  0  0  0  0  0  0  0  0  0  0  0
    4.3478    1.8458   -0.9354 C   0  0  0  0  0  0  0  0  0  0  0  0
    4.7482    1.2754    0.4322 C   0  0  0  0  0  0  0  0  0  0  0  0
    4.1930    2.0682    1.4503 O   0  0  0  0  0  0  0  0  0  0  0  0
    6.2555    1.2351    0.5571 C   0  0  0  0  0  0  0  0  0  0  0  0
    6.9465    0.0251    0.3688 C   0  0  0  0  0  0  0  0  0  0  0  0
    8.3418   -0.0123    0.4529 C   0  0  0  0  0  0  0  0  0  0  0  0
    9.0597    1.1574    0.7152 C   0  0  0  0  0  0  0  0  0  0  0  0
    8.3837    2.3674    0.8897 C   0  0  0  0  0  0  0  0  0  0  0  0
    6.9882    2.4097    0.8064 C   0  0  0  0  0  0  0  0  0  0  0  0
    0.1933   -0.6081   -2.2580 N   0  0  0  0  0  0  0  0  0  0  0  0
    0.5074   -1.9949   -2.0346 C   0  0  0  0  0  0  0  0  0  0  0  0
    0.8352   -2.7135   -3.0159 O   0  0  0  0  0  0  0  0  0  0  0  0
    0.4300   -2.6144   -0.7005 C   0  0  0  0  0  0  0  0  0  0  0  0
    1.6029   -3.1164   -0.1143 C   0  0  0  0  0  0  0  0  0  0  0  0
    1.5763   -3.6451    1.1786 C   0  0  0  0  0  0  0  0  0  0  0  0
    0.3782   -3.6839    1.8941 C   0  0  0  0  0  0  0  0  0  0  0  0
   -0.8005   -3.2156    1.3096 C   0  0  0  0  0  0  0  0  0  0  0  0
   -0.7918   -2.7079    0.0051 C   0  0  0  0  0  0  0  0  0  0  0  0
   -2.0034   -2.2868   -0.5483 O   0  0  0  0  0  0  0  0  0  0  0  0
   -2.5976   -2.9136   -1.6798 C   0  0  0  0  0  0  0  0  0  0  0  0
   -3.9370   -2.2547   -2.0002 C   0  0  0  0  0  0  0  0  0  0  0  0
   -4.8746   -2.4080   -0.8854 N   0  0  0  0  0  0  0  0  0  0  0  0
   -4.8488   -1.6469    0.3360 C   0  0  0  0  0  0  0  0  0  0  0  0
   -5.3142   -2.1760    1.3818 O   0  0  0  0  0  0  0  0  0  0  0  0
   -5.9877    4.1173    1.4603 H   0  0  0  0  0  0  0  0  0  0  0  0
   -7.2229    2.9130    0.9229 H   0  0  0  0  0  0  0  0  0  0  0  0
   -6.3745    2.7109    2.5061 H   0  0  0  0  0  0  0  0  0  0  0  0
   -4.2150    2.3845    1.3388 H   0  0  0  0  0  0  0  0  0  0  0  0
   -4.7502    3.8387   -0.6518 H   0  0  0  0  0  0  0  0  0  0  0  0
   -4.0583    2.2667   -1.1386 H   0  0  0  0  0  0  0  0  0  0  0  0
   -5.8365    2.5476   -1.2934 H   0  0  0  0  0  0  0  0  0  0  0  0
   -6.3703    0.5438    0.0855 H   0  0  0  0  0  0  0  0  0  0  0  0
   -5.8740    0.4433    1.8020 H   0  0  0  0  0  0  0  0  0  0  0  0
   -3.9867    0.0924   -0.5801 H   0  0  0  0  0  0  0  0  0  0  0  0
   -3.5231   -0.4285    2.3884 H   0  0  0  0  0  0  0  0  0  0  0  0
   -1.6364    1.8747   -0.4166 H   0  0  0  0  0  0  0  0  0  0  0  0
   -1.8595    0.1567   -0.8591 H   0  0  0  0  0  0  0  0  0  0  0  0
    0.3489   -0.3013    0.5215 H   0  0  0  0  0  0  0  0  0  0  0  0
    0.5536    1.4635    0.4861 H   0  0  0  0  0  0  0  0  0  0  0  0
    0.4102    1.4623   -2.0018 H   0  0  0  0  0  0  0  0  0  0  0  0
    2.3496    2.6639   -1.0703 H   0  0  0  0  0  0  0  0  0  0  0  0
    4.6726    2.9081   -1.0023 H   0  0  0  0  0  0  0  0  0  0  0  0
    4.8531    1.2864   -1.7538 H   0  0  0  0  0  0  0  0  0  0  0  0
    4.3399    0.2416    0.5166 H   0  0  0  0  0  0  0  0  0  0  0  0
    4.2742    1.5493    2.2932 H   0  0  0  0  0  0  0  0  0  0  0  0
    6.4063   -0.8891    0.1559 H   0  0  0  0  0  0  0  0  0  0  0  0
    8.8663   -0.9488    0.3119 H   0  0  0  0  0  0  0  0  0  0  0  0
   10.1395    1.1255    0.7807 H   0  0  0  0  0  0  0  0  0  0  0  0
    8.9410    3.2739    1.0873 H   0  0  0  0  0  0  0  0  0  0  0  0
    6.4783    3.3561    0.9369 H   0  0  0  0  0  0  0  0  0  0  0  0
   -0.2213   -0.3750   -3.1890 H   0  0  0  0  0  0  0  0  0  0  0  0
    2.5438   -3.0780   -0.6495 H   0  0  0  0  0  0  0  0  0  0  0  0
    2.4876   -4.0166    1.6298 H   0  0  0  0  0  0  0  0  0  0  0  0
    0.3607   -4.0856    2.8991 H   0  0  0  0  0  0  0  0  0  0  0  0
   -1.7293   -3.2633    1.8642 H   0  0  0  0  0  0  0  0  0  0  0  0
   -1.9384   -2.8243   -2.5665 H   0  0  0  0  0  0  0  0  0  0  0  0
   -2.7570   -3.9927   -1.4649 H   0  0  0  0  0  0  0  0  0  0  0  0
   -4.3641   -2.7594   -2.8937 H   0  0  0  0  0  0  0  0  0  0  0  0
   -3.7982   -1.1925   -2.2803 H   0  0  0  0  0  0  0  0  0  0  0  0
   -5.4887   -3.2532   -0.9050 H   0  0  0  0  0  0  0  0  0  0  0  0
  1  2  1  0
  2  3  1  0
  2  4  1  0
  4  5  1  0
  5  6  1  0
  6  7  1  0
  7  8  2  0
  7  9  1  0
  9 10  1  0
 10 11  1  0
 11 12  1  0
 12 13  2  0
 12 14  1  0
 14 15  1  0
 15 16  1  0
 16 17  1  0
 16 18  1  0
 18 19  2  0
 19 20  1  0
 20 21  2  0
 21 22  1  0
 22 23  2  0
 11 24  1  0
 24 25  1  0
 25 26  2  0
 25 27  1  0
 27 28  2  0
 28 29  1  0
 29 30  2  0
 30 31  1  0
 31 32  2  0
 32 33  1  0
 33 34  1  0
 34 35  1  0
 35 36  1  0
 36 37  1  0
 37 38  2  0
 37  5  1  0
 23 18  1  0
 32 27  1  0
  1 39  1  0
  1 40  1  0
  1 41  1  0
  2 42  1  0
  3 43  1  0
  3 44  1  0
  3 45  1  0
  4 46  1  0
  4 47  1  0
  5 48  1  0
  6 49  1  0
  9 50  1  0
  9 51  1  0
 10 52  1  0
 10 53  1  0
 11 54  1  0
 14 55  1  0
 15 56  1  0
 15 57  1  0
 16 58  1  0
 17 59  1  0
 19 60  1  0
 20 61  1  0
 21 62  1  0
 22 63  1  0
 23 64  1  0
 24 65  1  0
 28 66  1  0
 29 67  1  0
 30 68  1  0
 31 69  1  0
 34 70  1  0
 34 71  1  0
 35 72  1  0
 35 73  1  0
 36 74  1  0
M  END
$$$$
