
     RDKit          3D

 73 75  0  0  0  0  0  0  0  0999 V2000
   -3.2435   -0.3796    2.6897 C   0  0  0  0  0  0  0  0  0  0  0  0
   -3.9019   -1.3871    1.7372 C   0  0  0  0  0  0  0  0  0  0  0  0
   -3.2728   -2.7845    1.8961 C   0  0  0  0  0  0  0  0  0  0  0  0
   -3.9403   -0.8789    0.3271 N   0  0  0  0  0  0  0  0  0  0  0  0
   -5.1279   -1.4321   -0.3792 C   0  0  0  0  0  0  0  0  0  0  0  0
   -5.3756   -0.7749   -1.7174 C   0  0  0  0  0  0  0  0  0  0  0  0
   -4.9388   -1.3442   -2.7557 O   0  0  0  0  0  0  0  0  0  0  0  0
   -6.0771    0.4726   -1.8615 N   0  0  0  0  0  0  0  0  0  0  0  0
   -6.8585    1.1266   -0.8133 C   0  0  0  0  0  0  0  0  0  0  0  0
   -5.9616    1.8767    0.1742 C   0  0  0  0  0  0  0  0  0  0  0  0
   -5.1223    2.9693   -0.5057 C   0  0  0  0  0  0  0  0  0  0  0  0
   -4.1435    3.6191    0.4909 C   0  0  0  0  0  0  0  0  0  0  0  0
   -2.6959    3.1314    0.3479 C   0  0  0  0  0  0  0  0  0  0  0  0
   -2.6222    1.7117    0.1993 O   0  0  0  0  0  0  0  0  0  0  0  0
   -1.4342    0.9617    0.2957 C   0  0  0  0  0  0  0  0  0  0  0  0
   -0.2027    1.5646    0.6325 C   0  0  0  0  0  0  0  0  0  0  0  0
    0.9563    0.7979    0.7657 C   0  0  0  0  0  0  0  0  0  0  0  0
    0.9159   -0.5864    0.5641 C   0  0  0  0  0  0  0  0  0  0  0  0
    2.1661   -1.4236    0.6828 C   0  0  0  0  0  0  0  0  0  0  0  0
    2.6715   -1.9017   -0.6873 C   0  0  0  0  0  0  0  0  0  0  0  0
    3.4504   -0.8209   -1.4000 C   0  0  0  0  0  0  0  0  0  0  0  0
    2.7525    0.2910   -1.8629 O   0  0  0  0  0  0  0  0  0  0  0  0
    4.7361   -0.8814   -1.6032 N   0  0  0  0  0  0  0  0  0  0  0  0
    5.7991   -2.1732   -1.1361 S   0  0  0  0  0  6  0  0  0  0  0  0
    5.3781   -3.4505   -1.8094 O   0  0  0  0  0  0  0  0  0  0  0  0
    5.7714   -2.3464    0.3570 O   0  0  0  0  0  0  0  0  0  0  0  0
    7.4590   -1.7848   -1.6604 C   0  0  0  0  0  0  0  0  0  0  0  0
    7.9721   -0.5730   -0.9350 C   0  0  0  0  0  0  0  0  0  0  0  0
    7.7261    0.7147   -1.4408 C   0  0  0  0  0  0  0  0  0  0  0  0
    8.1922    1.8411   -0.7542 C   0  0  0  0  0  0  0  0  0  0  0  0
    8.8984    1.6895    0.4432 C   0  0  0  0  0  0  0  0  0  0  0  0
    9.1327    0.4118    0.9604 C   0  0  0  0  0  0  0  0  0  0  0  0
    8.6676   -0.7168    0.2777 C   0  0  0  0  0  0  0  0  0  0  0  0
   -0.2974   -1.1913    0.2150 C   0  0  0  0  0  0  0  0  0  0  0  0
   -1.4730   -0.4346    0.0729 C   0  0  0  0  0  0  0  0  0  0  0  0
   -2.7066   -1.1193   -0.4683 C   0  0  0  0  0  0  0  0  0  0  0  0
   -2.1387   -0.3977    2.6109 H   0  0  0  0  0  0  0  0  0  0  0  0
   -3.6135    0.6463    2.4836 H   0  0  0  0  0  0  0  0  0  0  0  0
   -3.5008   -0.6321    3.7407 H   0  0  0  0  0  0  0  0  0  0  0  0
   -4.9438   -1.4758    2.1228 H   0  0  0  0  0  0  0  0  0  0  0  0
   -2.1752   -2.7540    1.7347 H   0  0  0  0  0  0  0  0  0  0  0  0
   -3.7287   -3.5053    1.1857 H   0  0  0  0  0  0  0  0  0  0  0  0
   -3.4523   -3.1623    2.9254 H   0  0  0  0  0  0  0  0  0  0  0  0
   -5.0024   -2.5268   -0.5396 H   0  0  0  0  0  0  0  0  0  0  0  0
   -6.0453   -1.3124    0.2340 H   0  0  0  0  0  0  0  0  0  0  0  0
   -6.1503    0.8733   -2.8263 H   0  0  0  0  0  0  0  0  0  0  0  0
   -7.4851    0.3825   -0.2798 H   0  0  0  0  0  0  0  0  0  0  0  0
   -7.5543    1.8556   -1.2818 H   0  0  0  0  0  0  0  0  0  0  0  0
   -5.3038    1.1674    0.7064 H   0  0  0  0  0  0  0  0  0  0  0  0
   -6.6121    2.3473    0.9436 H   0  0  0  0  0  0  0  0  0  0  0  0
   -4.5685    2.5622   -1.3787 H   0  0  0  0  0  0  0  0  0  0  0  0
   -5.8155    3.7485   -0.8922 H   0  0  0  0  0  0  0  0  0  0  0  0
   -4.4819    3.4585    1.5394 H   0  0  0  0  0  0  0  0  0  0  0  0
   -4.1458    4.7191    0.3291 H   0  0  0  0  0  0  0  0  0  0  0  0
   -2.2200    3.6186   -0.5281 H   0  0  0  0  0  0  0  0  0  0  0  0
   -2.1597    3.4422    1.2696 H   0  0  0  0  0  0  0  0  0  0  0  0
   -0.1227    2.6303    0.7927 H   0  0  0  0  0  0  0  0  0  0  0  0
    1.8882    1.2874    1.0220 H   0  0  0  0  0  0  0  0  0  0  0  0
    2.9706   -0.8695    1.2152 H   0  0  0  0  0  0  0  0  0  0  0  0
    1.9327   -2.3133    1.3071 H   0  0  0  0  0  0  0  0  0  0  0  0
    3.2712   -2.8185   -0.5338 H   0  0  0  0  0  0  0  0  0  0  0  0
    1.8180   -2.2063   -1.3307 H   0  0  0  0  0  0  0  0  0  0  0  0
    3.2295    1.0529   -2.3336 H   0  0  0  0  0  0  0  0  0  0  0  0
    8.1141   -2.6599   -1.4613 H   0  0  0  0  0  0  0  0  0  0  0  0
    7.4622   -1.6109   -2.7583 H   0  0  0  0  0  0  0  0  0  0  0  0
    7.1769    0.8441   -2.3653 H   0  0  0  0  0  0  0  0  0  0  0  0
    8.0065    2.8307   -1.1514 H   0  0  0  0  0  0  0  0  0  0  0  0
    9.2627    2.5612    0.9720 H   0  0  0  0  0  0  0  0  0  0  0  0
    9.6738    0.2961    1.8909 H   0  0  0  0  0  0  0  0  0  0  0  0
    8.8499   -1.7017    0.6920 H   0  0  0  0  0  0  0  0  0  0  0  0
   -0.3178   -2.2579    0.0300 H   0  0  0  0  0  0  0  0  0  0  0  0
   -2.5422   -2.2102   -0.6057 H   0  0  0  0  0  0  0  0  0  0  0  0
   -2.8256   -0.7040   -1.4887 H   0  0  0  0  0  0  0  0  0  0  0  0
  1  2  1  0
  2  3  1  0
  2  4  1  0
  4  5  1  0
  5  6  1  0
  6  7  2  0
  6  8  1  0
  8  9  1  0
  9 10  1  0
 10 11  1  0
 11 12  1  0
 12 13  1  0
 13 14  1  0
 14 15  1  0
 15 16  2  0
 16 17  1  0
 17 18  2  0
 18 19  1  0
 19 20  1  0
 20 21  1  0
 21 22  1  0
 21 23  2  3
 23 24  1  0
 24 25  2  0
 24 26  2  0
 24 27  1  0
 27 28  1  0
 28 29  2  0
 29 30  1  0
 30 31  2  0
 31 32  1  0
 32 33  2  0
 18 34  1  0
 34 35  2  0
 35 36  1  0
 36  4  1  0
 35 15  1  0
 33 28  1  0
  1 37  1  0
  1 38  1  0
  1 39  1  0
  2 40  1  0
  3 41  1  0
  3 42  1  0
  3 43  1  0
  5 44  1  0
  5 45  1  0
  8 46  1  0
  9 47  1  0
  9 48  1  0
 10 49  1  0
 10 50  1  0
 11 51  1  0
 11 52  1  0
 12 53  1  0
 12 54  1  0
 13 55  1  0
 13 56  1  0
 16 57  1  0
 17 58  1  0
 19 59  1  0
 19 60  1  0
 20 61  1  0
 20 62  1  0
 22 63  1  0
 27 64  1  0
 27 65  1  0
 29 66  1  0
 30 67  1  0
 31 68  1  0
 32 69  1  0
 33 70  1  0
 34 71  1  0
 36 72  1  0
 36 73  1  0
M  END
$$$$
