
     RDKit          3D

 82 85  0  0  0  0  0  0  0  0999 V2000
   -4.7459   -3.0014    1.2897 C   0  0  0  0  0  0  0  0  0  0  0  0
   -5.3603   -1.6636    1.7398 C   0  0  1  0  0  0  0  0  0  0  0  0
   -5.2645   -1.4647    3.2649 C   0  0  0  0  0  0  0  0  0  0  0  0
   -3.9318   -1.3654    3.6936 O   0  0  0  0  0  0  0  0  0  0  0  0
   -4.8044   -0.4921    1.0161 N   0  0  0  0  0  0  0  0  0  0  0  0
   -3.3488   -0.3993    0.7603 C   0  0  0  0  0  0  0  0  0  0  0  0
   -2.9373   -0.7760   -0.7067 C   0  0  1  0  0  0  0  0  0  0  0  0
   -4.1080   -0.7121   -1.7133 C   0  0  0  0  0  0  0  0  0  0  0  0
   -1.7015    0.0593   -1.1951 C   0  0  1  0  0  0  0  0  0  0  0  0
   -0.3739   -0.5418   -0.6862 C   0  0  0  0  0  0  0  0  0  0  0  0
   -0.3208   -0.5951    0.7905 N   0  0  0  0  0  0  0  0  0  0  0  0
    0.1326    0.6782    1.3774 C   0  0  0  0  0  0  0  0  0  0  0  0
    0.4490   -1.7545    1.2990 C   0  0  0  0  0  0  0  0  0  0  0  0
    1.9236   -1.6957    0.9538 C   0  0  0  0  0  0  0  0  0  0  0  0
    2.3988   -2.2474   -0.2468 C   0  0  0  0  0  0  0  0  0  0  0  0
    3.7526   -2.1456   -0.5850 C   0  0  0  0  0  0  0  0  0  0  0  0
    4.6564   -1.4918    0.2707 C   0  0  0  0  0  0  0  0  0  0  0  0
    6.0747   -1.3324   -0.1324 C   0  0  0  0  0  0  0  0  0  0  0  0
    6.5665   -2.1186   -0.9865 O   0  0  0  0  0  0  0  0  0  0  0  0
    6.8761   -0.2609    0.3979 N   0  0  0  0  0  0  0  0  0  0  0  0
    8.2829   -0.1235    0.1319 C   0  0  0  0  0  0  0  0  0  0  0  0
    9.1300   -1.2422    0.2346 C   0  0  0  0  0  0  0  0  0  0  0  0
   10.5061   -1.1097    0.0400 C   0  0  0  0  0  0  0  0  0  0  0  0
   11.0542    0.1420   -0.2434 C   0  0  0  0  0  0  0  0  0  0  0  0
   10.2276    1.2603   -0.3456 C   0  0  0  0  0  0  0  0  0  0  0  0
    8.8415    1.1418   -0.1617 C   0  0  0  0  0  0  0  0  0  0  0  0
    8.0156    2.3069   -0.3018 N   0  0  0  0  0  0  0  0  0  0  0  0
    4.1877   -0.9889    1.4951 C   0  0  0  0  0  0  0  0  0  0  0  0
    2.8341   -1.0866    1.8300 C   0  0  0  0  0  0  0  0  0  0  0  0
   -1.6460    0.0698   -2.6208 O   0  0  0  0  0  0  0  0  0  0  0  0
   -1.3896    1.3671   -3.1397 C   0  0  0  0  0  0  0  0  0  0  0  0
   -2.6595    2.1599   -3.2014 C   0  0  0  0  0  0  0  0  0  0  0  0
   -3.1277    3.0044   -2.2201 C   0  0  0  0  0  0  0  0  0  0  0  0
   -4.4288    3.2065   -2.4838 N   0  0  0  0  0  0  0  0  0  0  0  0
   -4.7396    2.5339   -3.5813 N   0  0  0  0  0  0  0  0  0  0  0  0
   -3.6777    1.8851   -4.0407 N   0  0  0  0  0  0  0  0  0  0  0  0
   -5.4153    3.7633   -1.5589 C   0  0  0  0  0  0  0  0  0  0  0  0
   -6.1049    2.6374   -0.7617 C   0  0  0  0  0  0  0  0  0  0  0  0
   -5.1728    1.9898    0.2827 C   0  0  0  0  0  0  0  0  0  0  0  0
   -5.6886    0.6363    0.7424 C   0  0  0  0  0  0  0  0  0  0  0  0
   -6.9347    0.5132    0.9288 O   0  0  0  0  0  0  0  0  0  0  0  0
   -3.6779   -3.0962    1.5777 H   0  0  0  0  0  0  0  0  0  0  0  0
   -5.2973   -3.8436    1.7599 H   0  0  0  0  0  0  0  0  0  0  0  0
   -4.8328   -3.1144    0.1895 H   0  0  0  0  0  0  0  0  0  0  0  0
   -6.4421   -1.7640    1.4997 H   0  0  0  0  0  0  0  0  0  0  0  0
   -5.7909   -0.5261    3.5401 H   0  0  0  0  0  0  0  0  0  0  0  0
   -5.7897   -2.2964    3.7904 H   0  0  0  0  0  0  0  0  0  0  0  0
   -3.6274   -2.2863    3.9098 H   0  0  0  0  0  0  0  0  0  0  0  0
   -2.7990   -1.0727    1.4481 H   0  0  0  0  0  0  0  0  0  0  0  0
   -2.9786    0.5985    1.0676 H   0  0  0  0  0  0  0  0  0  0  0  0
   -2.6471   -1.8520   -0.6918 H   0  0  0  0  0  0  0  0  0  0  0  0
   -4.9619   -1.3363   -1.3810 H   0  0  0  0  0  0  0  0  0  0  0  0
   -4.4580    0.3253   -1.8567 H   0  0  0  0  0  0  0  0  0  0  0  0
   -3.7925   -1.1189   -2.6960 H   0  0  0  0  0  0  0  0  0  0  0  0
   -1.7967    1.0857   -0.7756 H   0  0  0  0  0  0  0  0  0  0  0  0
   -0.2922   -1.5606   -1.1224 H   0  0  0  0  0  0  0  0  0  0  0  0
    0.4804    0.0466   -1.0921 H   0  0  0  0  0  0  0  0  0  0  0  0
    1.1337    0.9695    0.9962 H   0  0  0  0  0  0  0  0  0  0  0  0
    0.1743    0.5953    2.4837 H   0  0  0  0  0  0  0  0  0  0  0  0
   -0.5862    1.4876    1.1447 H   0  0  0  0  0  0  0  0  0  0  0  0
    0.3290   -1.8206    2.4051 H   0  0  0  0  0  0  0  0  0  0  0  0
    0.0075   -2.6982    0.9059 H   0  0  0  0  0  0  0  0  0  0  0  0
    1.7248   -2.7532   -0.9259 H   0  0  0  0  0  0  0  0  0  0  0  0
    4.0858   -2.5615   -1.5273 H   0  0  0  0  0  0  0  0  0  0  0  0
    6.4027    0.5105    0.9192 H   0  0  0  0  0  0  0  0  0  0  0  0
    8.7298   -2.2150    0.4963 H   0  0  0  0  0  0  0  0  0  0  0  0
   11.1510   -1.9752    0.1192 H   0  0  0  0  0  0  0  0  0  0  0  0
   12.1216    0.2430   -0.3919 H   0  0  0  0  0  0  0  0  0  0  0  0
   10.6647    2.2239   -0.5682 H   0  0  0  0  0  0  0  0  0  0  0  0
    8.4488    3.2527   -0.4113 H   0  0  0  0  0  0  0  0  0  0  0  0
    6.9830    2.2333   -0.4162 H   0  0  0  0  0  0  0  0  0  0  0  0
    4.8605   -0.5230    2.2009 H   0  0  0  0  0  0  0  0  0  0  0  0
    2.4941   -0.6728    2.7697 H   0  0  0  0  0  0  0  0  0  0  0  0
   -1.0018    1.2556   -4.1742 H   0  0  0  0  0  0  0  0  0  0  0  0
   -0.6057    1.9117   -2.5620 H   0  0  0  0  0  0  0  0  0  0  0  0
   -2.6094    3.3272   -1.3282 H   0  0  0  0  0  0  0  0  0  0  0  0
   -6.1839    4.3130   -2.1447 H   0  0  0  0  0  0  0  0  0  0  0  0
   -4.9301    4.4844   -0.8648 H   0  0  0  0  0  0  0  0  0  0  0  0
   -6.4728    1.8666   -1.4749 H   0  0  0  0  0  0  0  0  0  0  0  0
   -6.9918    3.0625   -0.2390 H   0  0  0  0  0  0  0  0  0  0  0  0
   -4.1754    1.8870   -0.1602 H   0  0  0  0  0  0  0  0  0  0  0  0
   -5.0779    2.6609    1.1613 H   0  0  0  0  0  0  0  0  0  0  0  0
  1  2  1  0
  2  3  1  0
  3  4  1  0
  2  5  1  0
  5  6  1  0
  6  7  1  0
  7  8  1  0
  7  9  1  0
  9 10  1  0
 10 11  1  0
 11 12  1  0
 11 13  1  0
 13 14  1  0
 14 15  2  0
 15 16  1  0
 16 17  2  0
 17 18  1  0
 18 19  2  0
 18 20  1  0
 20 21  1  0
 21 22  2  0
 22 23  1  0
 23 24  2  0
 24 25  1  0
 25 26  2  0
 26 27  1  0
 17 28  1  0
 28 29  2  0
  9 30  1  0
 30 31  1  0
 31 32  1  0
 32 33  2  0
 33 34  1  0
 34 35  1  0
 35 36  2  0
 34 37  1  0
 37 38  1  0
 38 39  1  0
 39 40  1  0
 40 41  2  0
 40  5  1  0
 29 14  1  0
 36 32  1  0
 26 21  1  0
  1 42  1  0
  1 43  1  0
  1 44  1  0
  2 45  1  1
  3 46  1  0
  3 47  1  0
  4 48  1  0
  6 49  1  0
  6 50  1  0
  7 51  1  1
  8 52  1  0
  8 53  1  0
  8 54  1  0
  9 55  1  1
 10 56  1  0
 10 57  1  0
 12 58  1  0
 12 59  1  0
 12 60  1  0
 13 61  1  0
 13 62  1  0
 15 63  1  0
 16 64  1  0
 20 65  1  0
 22 66  1  0
 23 67  1  0
 24 68  1  0
 25 69  1  0
 27 70  1  0
 27 71  1  0
 28 72  1  0
 29 73  1  0
 31 74  1  0
 31 75  1  0
 33 76  1  0
 37 77  1  0
 37 78  1  0
 38 79  1  0
 38 80  1  0
 39 81  1  0
 39 82  1  0
M  END
$$$$
