
     RDKit          3D

 69 72  0  0  0  0  0  0  0  0999 V2000
   -2.3438    2.2185    0.8791 C   0  0  0  0  0  0  0  0  0  0  0  0
   -2.4212    1.2054    1.9396 N   0  0  0  0  0  0  0  0  0  0  0  0
   -1.2179    0.8874    2.7314 C   0  0  0  0  0  0  0  0  0  0  0  0
   -0.6120   -0.4697    2.3315 C   0  0  0  0  0  0  0  0  0  0  0  0
   -0.2228   -0.5233    0.9011 N   0  0  0  0  0  0  0  0  0  0  0  0
    0.9110    0.3619    0.5341 C   0  0  0  0  0  0  0  0  0  0  0  0
    2.2071    0.0137    1.2207 C   0  0  0  0  0  0  0  0  0  0  0  0
    2.4202    0.4256    2.3922 O   0  0  0  0  0  0  0  0  0  0  0  0
    3.1908   -0.7781    0.5420 N   0  0  0  0  0  0  0  0  0  0  0  0
    4.4361   -1.2180    1.1812 C   0  0  0  0  0  0  0  0  0  0  0  0
    5.0380   -2.4134    0.4152 C   0  0  0  0  0  0  0  0  0  0  0  0
    4.1366   -3.4894    0.3914 O   0  0  0  0  0  0  0  0  0  0  0  0
    5.4389   -0.0480    1.3046 C   0  0  0  0  0  0  0  0  0  0  0  0
    5.6823    0.6671   -0.0041 C   0  0  0  0  0  0  0  0  0  0  0  0
    4.8623    1.7454   -0.3855 C   0  0  0  0  0  0  0  0  0  0  0  0
    5.0731    2.3940   -1.6063 C   0  0  0  0  0  0  0  0  0  0  0  0
    6.1031    1.9750   -2.4526 C   0  0  0  0  0  0  0  0  0  0  0  0
    6.9241    0.9062   -2.0811 C   0  0  0  0  0  0  0  0  0  0  0  0
    6.7172    0.2535   -0.8614 C   0  0  0  0  0  0  0  0  0  0  0  0
   -0.0393   -1.9128    0.4111 C   0  0  0  0  0  0  0  0  0  0  0  0
   -0.6717   -2.0580   -0.9690 C   0  0  0  0  0  0  0  0  0  0  0  0
   -2.0300   -1.6531   -0.8707 O   0  0  0  0  0  0  0  0  0  0  0  0
   -2.8787   -1.3736   -1.9464 C   0  0  0  0  0  0  0  0  0  0  0  0
   -2.5893   -1.7751   -3.2600 C   0  0  0  0  0  0  0  0  0  0  0  0
   -3.4769   -1.4686   -4.2925 C   0  0  0  0  0  0  0  0  0  0  0  0
   -4.6507   -0.7647   -4.0208 C   0  0  0  0  0  0  0  0  0  0  0  0
   -4.9415   -0.3575   -2.7152 C   0  0  0  0  0  0  0  0  0  0  0  0
   -4.0502   -0.6597   -1.6652 C   0  0  0  0  0  0  0  0  0  0  0  0
   -4.2231   -0.2764   -0.3218 O   0  0  0  0  0  0  0  0  0  0  0  0
   -5.1722    0.5633    0.2729 C   0  0  0  0  0  0  0  0  0  0  0  0
   -6.3125    0.9326   -0.3702 N   0  0  0  0  0  0  0  0  0  0  0  0
   -7.2574    1.7091    0.2224 C   0  0  0  0  0  0  0  0  0  0  0  0
   -7.0826    2.1402    1.5380 C   0  0  0  0  0  0  0  0  0  0  0  0
   -5.9232    1.7799    2.2257 C   0  0  0  0  0  0  0  0  0  0  0  0
   -4.9466    1.0021    1.5908 C   0  0  0  0  0  0  0  0  0  0  0  0
   -3.7060    0.6494    2.3153 C   0  0  0  0  0  0  0  0  0  0  0  0
   -3.7960   -0.1156    3.3145 O   0  0  0  0  0  0  0  0  0  0  0  0
   -2.5663    1.7564   -0.1036 H   0  0  0  0  0  0  0  0  0  0  0  0
   -1.3346    2.6696    0.8172 H   0  0  0  0  0  0  0  0  0  0  0  0
   -3.0676    3.0350    1.0794 H   0  0  0  0  0  0  0  0  0  0  0  0
   -0.4554    1.6893    2.6475 H   0  0  0  0  0  0  0  0  0  0  0  0
   -1.4787    0.8586    3.8115 H   0  0  0  0  0  0  0  0  0  0  0  0
    0.2510   -0.7067    2.9890 H   0  0  0  0  0  0  0  0  0  0  0  0
   -1.3899   -1.2356    2.5426 H   0  0  0  0  0  0  0  0  0  0  0  0
    1.0615    0.3309   -0.5658 H   0  0  0  0  0  0  0  0  0  0  0  0
    0.6644    1.4184    0.7473 H   0  0  0  0  0  0  0  0  0  0  0  0
    3.0170   -1.0283   -0.4602 H   0  0  0  0  0  0  0  0  0  0  0  0
    4.2040   -1.5728    2.2104 H   0  0  0  0  0  0  0  0  0  0  0  0
    5.9945   -2.7325    0.8875 H   0  0  0  0  0  0  0  0  0  0  0  0
    5.2607   -2.1236   -0.6322 H   0  0  0  0  0  0  0  0  0  0  0  0
    4.1243   -3.8700    1.3069 H   0  0  0  0  0  0  0  0  0  0  0  0
    6.4023   -0.4240    1.7150 H   0  0  0  0  0  0  0  0  0  0  0  0
    5.0559    0.6797    2.0535 H   0  0  0  0  0  0  0  0  0  0  0  0
    4.0650    2.0870    0.2644 H   0  0  0  0  0  0  0  0  0  0  0  0
    4.4400    3.2237   -1.8947 H   0  0  0  0  0  0  0  0  0  0  0  0
    6.2639    2.4777   -3.3973 H   0  0  0  0  0  0  0  0  0  0  0  0
    7.7183    0.5802   -2.7424 H   0  0  0  0  0  0  0  0  0  0  0  0
    7.3576   -0.5768   -0.5884 H   0  0  0  0  0  0  0  0  0  0  0  0
   -0.5346   -2.6542    1.0782 H   0  0  0  0  0  0  0  0  0  0  0  0
    1.0290   -2.2097    0.3641 H   0  0  0  0  0  0  0  0  0  0  0  0
   -0.6155   -3.1151   -1.3065 H   0  0  0  0  0  0  0  0  0  0  0  0
   -0.1342   -1.4125   -1.6961 H   0  0  0  0  0  0  0  0  0  0  0  0
   -1.6886   -2.3310   -3.4857 H   0  0  0  0  0  0  0  0  0  0  0  0
   -3.2549   -1.7813   -5.3036 H   0  0  0  0  0  0  0  0  0  0  0  0
   -5.3399   -0.5363   -4.8252 H   0  0  0  0  0  0  0  0  0  0  0  0
   -5.8595    0.1777   -2.5587 H   0  0  0  0  0  0  0  0  0  0  0  0
   -8.1521    1.9797   -0.3236 H   0  0  0  0  0  0  0  0  0  0  0  0
   -7.8364    2.7507    2.0190 H   0  0  0  0  0  0  0  0  0  0  0  0
   -5.7766    2.1201    3.2430 H   0  0  0  0  0  0  0  0  0  0  0  0
  1  2  1  0
  2  3  1  0
  3  4  1  0
  4  5  1  0
  5  6  1  0
  6  7  1  0
  7  8  2  0
  7  9  1  0
  9 10  1  0
 10 11  1  0
 11 12  1  0
 10 13  1  0
 13 14  1  0
 14 15  2  0
 15 16  1  0
 16 17  2  0
 17 18  1  0
 18 19  2  0
  5 20  1  0
 20 21  1  0
 21 22  1  0
 22 23  1  0
 23 24  2  0
 24 25  1  0
 25 26  2  0
 26 27  1  0
 27 28  2  0
 28 29  1  0
 29 30  1  0
 30 31  2  0
 31 32  1  0
 32 33  2  0
 33 34  1  0
 34 35  2  0
 35 36  1  0
 36 37  2  0
 36  2  1  0
 19 14  1  0
 28 23  1  0
 35 30  1  0
  1 38  1  0
  1 39  1  0
  1 40  1  0
  3 41  1  0
  3 42  1  0
  4 43  1  0
  4 44  1  0
  6 45  1  0
  6 46  1  0
  9 47  1  0
 10 48  1  0
 11 49  1  0
 11 50  1  0
 12 51  1  0
 13 52  1  0
 13 53  1  0
 15 54  1  0
 16 55  1  0
 17 56  1  0
 18 57  1  0
 19 58  1  0
 20 59  1  0
 20 60  1  0
 21 61  1  0
 21 62  1  0
 24 63  1  0
 25 64  1  0
 26 65  1  0
 27 66  1  0
 32 67  1  0
 33 68  1  0
 34 69  1  0
M  END
$$$$
