
     RDKit          3D

134140  0  0  0  0  0  0  0  0999 V2000
   -7.1398    7.5386    1.3861 C   0  0  0  0  0  0  0  0  0  0  0  0
   -6.2564    6.6614    0.5037 C   0  0  0  0  0  0  0  0  0  0  0  0
   -6.7069    5.1791    0.4178 C   0  0  2  0  0  0  0  0  0  0  0  0
   -6.7811    4.5732    1.8359 C   0  0  0  0  0  0  0  0  0  0  0  0
   -5.7289    4.4173   -0.5290 C   0  0  1  0  0  0  0  0  0  0  0  0
   -5.3317    3.1783    0.0453 O   0  0  0  0  0  0  0  0  0  0  0  0
   -4.5723    2.3111   -0.8143 C   0  0  2  0  0  0  0  0  0  0  0  0
   -4.2418    2.9102   -2.1706 C   0  0  0  0  0  0  0  0  0  0  0  0
   -5.0982    3.7709   -2.7568 C   0  0  0  0  0  0  0  0  0  0  0  0
   -6.2827    4.1752   -1.9540 C   0  0  2  0  0  0  0  0  0  0  0  0
   -6.9997    5.3324   -2.6430 C   0  0  0  0  0  0  0  0  0  0  0  0
   -5.4333    1.0395   -1.0085 C   0  0  0  0  0  0  0  0  0  0  0  0
   -5.1004    0.0527    0.0825 C   0  0  2  0  0  0  0  0  0  0  0  0
   -3.6865   -0.3938   -0.2028 C   0  0  0  0  0  0  0  0  0  0  0  0
   -2.7286    0.8134   -0.1729 C   0  0  1  0  0  0  0  0  0  0  0  0
   -1.7021    0.7488   -1.3108 C   0  0  0  0  0  0  0  0  0  0  0  0
   -0.7908   -0.4440   -1.2144 C   0  0  0  0  0  0  0  0  0  0  0  0
    0.3103   -0.5191   -0.4145 C   0  0  0  0  0  0  0  0  0  0  0  0
    0.6952    0.5637    0.5330 C   0  0  0  0  0  0  0  0  0  0  0  0
    1.3513   -1.5920   -0.6671 C   0  0  1  0  0  0  0  0  0  0  0  0
    2.5809   -0.9024   -0.7878 O   0  0  0  0  0  0  0  0  0  0  0  0
    3.3936   -1.3845   -1.8508 C   0  0  1  0  0  0  0  0  0  0  0  0
    4.0531   -0.1926   -2.5640 C   0  0  0  0  0  0  0  0  0  0  0  0
    5.4834   -0.5774   -2.9816 C   0  0  2  0  0  0  0  0  0  0  0  0
    5.3968   -1.7301   -3.7953 O   0  0  0  0  0  0  0  0  0  0  0  0
    6.4570   -1.7985   -4.7086 C   0  0  0  0  0  0  0  0  0  0  0  0
    6.2949   -0.8707   -1.6937 C   0  0  1  0  0  0  0  0  0  0  0  0
    6.6631    0.3655   -1.1251 O   0  0  0  0  0  0  0  0  0  0  0  0
    7.9471    0.3290   -0.5215 C   0  0  1  0  0  0  0  0  0  0  0  0
    8.9268    1.0977   -1.4241 C   0  0  0  0  0  0  0  0  0  0  0  0
    9.7567    2.1187   -0.6450 C   0  0  2  0  0  0  0  0  0  0  0  0
   10.8901    2.4846   -1.4156 O   0  0  0  0  0  0  0  0  0  0  0  0
   10.8683    3.8623   -1.7134 C   0  0  0  0  0  0  0  0  0  0  0  0
   10.2207    1.5049    0.6920 C   0  0  1  0  0  0  0  0  0  0  0  0
   10.9227    2.4580    1.4634 O   0  0  0  0  0  0  0  0  0  0  0  0
    9.0179    0.9613    1.5031 C   0  0  2  0  0  0  0  0  0  0  0  0
    9.3268   -0.3979    2.1541 C   0  0  0  0  0  0  0  0  0  0  0  0
    7.8097    0.9248    0.7583 O   0  0  0  0  0  0  0  0  0  0  0  0
    5.4106   -1.6846   -0.6880 C   0  0  2  0  0  0  0  0  0  0  0  0
    6.2466   -2.7553    0.0075 C   0  0  0  0  0  0  0  0  0  0  0  0
    4.3268   -2.3308   -1.3555 O   0  0  0  0  0  0  0  0  0  0  0  0
    1.4248   -2.6885    0.4444 C   0  0  1  0  0  0  0  0  0  0  0  0
    2.0867   -2.1760    1.7236 C   0  0  0  0  0  0  0  0  0  0  0  0
    0.0834   -3.2931    0.8627 C   0  0  0  0  0  0  0  0  0  0  0  0
   -0.9603   -3.5075    0.0326 C   0  0  0  0  0  0  0  0  0  0  0  0
   -2.3997   -3.5866    0.4229 C   0  0  0  0  0  0  0  0  0  0  0  0
   -2.9497   -3.8643    1.6392 C   0  0  0  0  0  0  0  0  0  0  0  0
   -2.2596   -4.3131    2.8756 C   0  0  0  0  0  0  0  0  0  0  0  0
   -3.2250   -4.8689    3.7450 O   0  0  0  0  0  0  0  0  0  0  0  0
   -4.4835   -4.3658    3.3327 C   0  0  2  0  0  0  0  0  0  0  0  0
   -5.3766   -5.5689    3.0015 C   0  0  2  0  0  0  0  0  0  0  0  0
   -4.6988   -6.4479    2.1345 O   0  0  0  0  0  0  0  0  0  0  0  0
   -6.6607   -5.1422    2.3549 C   0  0  0  0  0  0  0  0  0  0  0  0
   -7.8844   -5.9896    2.5712 C   0  0  0  0  0  0  0  0  0  0  0  0
   -6.6538   -4.2130    1.4103 C   0  0  0  0  0  0  0  0  0  0  0  0
   -5.4952   -3.2744    1.1557 C   0  0  1  0  0  0  0  0  0  0  0  0
   -6.1489   -1.9068    1.1987 C   0  0  0  0  0  0  0  0  0  0  0  0
   -6.4833   -1.4440    2.3138 O   0  0  0  0  0  0  0  0  0  0  0  0
   -5.9996   -1.0516    0.0814 O   0  0  0  0  0  0  0  0  0  0  0  0
   -4.2707   -3.3736    2.1666 C   0  0  2  0  0  0  0  0  0  0  0  0
   -4.0711   -2.0997    2.7537 O   0  0  0  0  0  0  0  0  0  0  0  0
   -3.3429    2.1063   -0.1206 O   0  0  0  0  0  0  0  0  0  0  0  0
   -8.1900    7.1855    1.4054 H   0  0  0  0  0  0  0  0  0  0  0  0
   -7.1177    8.5778    0.9956 H   0  0  0  0  0  0  0  0  0  0  0  0
   -6.6910    7.5619    2.4190 H   0  0  0  0  0  0  0  0  0  0  0  0
   -6.2359    7.0929   -0.5184 H   0  0  0  0  0  0  0  0  0  0  0  0
   -5.2201    6.7149    0.9014 H   0  0  0  0  0  0  0  0  0  0  0  0
   -7.7525    5.1274    0.0337 H   0  0  0  0  0  0  0  0  0  0  0  0
   -7.6576    5.0007    2.3887 H   0  0  0  0  0  0  0  0  0  0  0  0
   -5.8593    4.8381    2.3951 H   0  0  0  0  0  0  0  0  0  0  0  0
   -6.9213    3.4632    1.7932 H   0  0  0  0  0  0  0  0  0  0  0  0
   -4.7895    5.0264   -0.5961 H   0  0  0  0  0  0  0  0  0  0  0  0
   -3.3462    2.6118   -2.7035 H   0  0  0  0  0  0  0  0  0  0  0  0
   -4.8334    4.2569   -3.6787 H   0  0  0  0  0  0  0  0  0  0  0  0
   -6.9951    3.3365   -1.9165 H   0  0  0  0  0  0  0  0  0  0  0  0
   -7.8695    5.6980   -2.0641 H   0  0  0  0  0  0  0  0  0  0  0  0
   -7.4092    4.9222   -3.5889 H   0  0  0  0  0  0  0  0  0  0  0  0
   -6.3002    6.1664   -2.8686 H   0  0  0  0  0  0  0  0  0  0  0  0
   -5.2425    0.5798   -2.0010 H   0  0  0  0  0  0  0  0  0  0  0  0
   -6.5071    1.3028   -0.9538 H   0  0  0  0  0  0  0  0  0  0  0  0
   -5.1495    0.5556    1.0673 H   0  0  0  0  0  0  0  0  0  0  0  0
   -3.3622   -1.1152    0.5582 H   0  0  0  0  0  0  0  0  0  0  0  0
   -3.6307   -0.9231   -1.1936 H   0  0  0  0  0  0  0  0  0  0  0  0
   -2.1889    0.7260    0.7808 H   0  0  0  0  0  0  0  0  0  0  0  0
   -1.1305    1.6982   -1.3513 H   0  0  0  0  0  0  0  0  0  0  0  0
   -2.2646    0.6687   -2.2763 H   0  0  0  0  0  0  0  0  0  0  0  0
   -1.0041   -1.1982   -1.9575 H   0  0  0  0  0  0  0  0  0  0  0  0
    0.9810    1.4654   -0.0382 H   0  0  0  0  0  0  0  0  0  0  0  0
   -0.0957    0.7577    1.2943 H   0  0  0  0  0  0  0  0  0  0  0  0
    1.6067    0.2804    1.1038 H   0  0  0  0  0  0  0  0  0  0  0  0
    1.0778   -2.1460   -1.5791 H   0  0  0  0  0  0  0  0  0  0  0  0
    2.8210   -1.8863   -2.6462 H   0  0  0  0  0  0  0  0  0  0  0  0
    3.4876    0.1187   -3.4626 H   0  0  0  0  0  0  0  0  0  0  0  0
    4.1281    0.6811   -1.8812 H   0  0  0  0  0  0  0  0  0  0  0  0
    5.9425    0.2818   -3.5465 H   0  0  0  0  0  0  0  0  0  0  0  0
    6.4171   -2.7769   -5.2319 H   0  0  0  0  0  0  0  0  0  0  0  0
    7.4443   -1.7187   -4.2031 H   0  0  0  0  0  0  0  0  0  0  0  0
    6.3448   -0.9945   -5.4705 H   0  0  0  0  0  0  0  0  0  0  0  0
    7.1615   -1.4710   -2.0202 H   0  0  0  0  0  0  0  0  0  0  0  0
    8.3528   -0.6972   -0.3977 H   0  0  0  0  0  0  0  0  0  0  0  0
    8.3826    1.6285   -2.2277 H   0  0  0  0  0  0  0  0  0  0  0  0
    9.6040    0.3792   -1.9552 H   0  0  0  0  0  0  0  0  0  0  0  0
    9.0766    2.9738   -0.4195 H   0  0  0  0  0  0  0  0  0  0  0  0
    9.9268    4.1481   -2.2462 H   0  0  0  0  0  0  0  0  0  0  0  0
   11.7223    4.0947   -2.3717 H   0  0  0  0  0  0  0  0  0  0  0  0
   10.9827    4.4654   -0.7781 H   0  0  0  0  0  0  0  0  0  0  0  0
   10.9145    0.6688    0.4583 H   0  0  0  0  0  0  0  0  0  0  0  0
   10.3619    3.2692    1.5110 H   0  0  0  0  0  0  0  0  0  0  0  0
    8.8325    1.6606    2.3380 H   0  0  0  0  0  0  0  0  0  0  0  0
   10.2144   -0.3061    2.8042 H   0  0  0  0  0  0  0  0  0  0  0  0
    8.4594   -0.7038    2.7635 H   0  0  0  0  0  0  0  0  0  0  0  0
    9.5500   -1.1525    1.3836 H   0  0  0  0  0  0  0  0  0  0  0  0
    5.0202   -1.0143    0.1040 H   0  0  0  0  0  0  0  0  0  0  0  0
    7.0512   -2.2911    0.6179 H   0  0  0  0  0  0  0  0  0  0  0  0
    6.7097   -3.4286   -0.7442 H   0  0  0  0  0  0  0  0  0  0  0  0
    5.6059   -3.3554    0.6740 H   0  0  0  0  0  0  0  0  0  0  0  0
    2.0807   -3.4898    0.0520 H   0  0  0  0  0  0  0  0  0  0  0  0
    2.9411   -1.5156    1.4914 H   0  0  0  0  0  0  0  0  0  0  0  0
    2.5012   -3.0250    2.3129 H   0  0  0  0  0  0  0  0  0  0  0  0
    1.3433   -1.6270    2.3666 H   0  0  0  0  0  0  0  0  0  0  0  0
   -0.0186   -3.4804    1.9139 H   0  0  0  0  0  0  0  0  0  0  0  0
   -0.8170   -3.3889   -1.0258 H   0  0  0  0  0  0  0  0  0  0  0  0
   -3.0535   -3.2517   -0.3640 H   0  0  0  0  0  0  0  0  0  0  0  0
   -1.4562   -5.0610    2.6994 H   0  0  0  0  0  0  0  0  0  0  0  0
   -1.8228   -3.4235    3.4071 H   0  0  0  0  0  0  0  0  0  0  0  0
   -4.9607   -3.8407    4.2003 H   0  0  0  0  0  0  0  0  0  0  0  0
   -5.5960   -6.0609    3.9646 H   0  0  0  0  0  0  0  0  0  0  0  0
   -5.1433   -7.3312    2.2197 H   0  0  0  0  0  0  0  0  0  0  0  0
   -7.8871   -6.7916    1.8083 H   0  0  0  0  0  0  0  0  0  0  0  0
   -7.8623   -6.4863    3.5625 H   0  0  0  0  0  0  0  0  0  0  0  0
   -8.8179   -5.3903    2.4859 H   0  0  0  0  0  0  0  0  0  0  0  0
   -7.5444   -4.0695    0.8044 H   0  0  0  0  0  0  0  0  0  0  0  0
   -5.1757   -3.4915    0.1176 H   0  0  0  0  0  0  0  0  0  0  0  0
   -3.1269   -1.8111    2.7262 H   0  0  0  0  0  0  0  0  0  0  0  0
  1  2  1  0
  2  3  1  0
  3  4  1  0
  3  5  1  0
  5  6  1  0
  7  6  1  1
  7  8  1  0
  8  9  2  0
  9 10  1  0
 10 11  1  0
  7 12  1  0
 12 13  1  0
 13 14  1  0
 14 15  1  0
 15 16  1  0
 16 17  1  0
 17 18  2  0
 18 19  1  0
 18 20  1  0
 20 21  1  0
 21 22  1  0
 22 23  1  0
 23 24  1  0
 24 25  1  0
 25 26  1  0
 24 27  1  0
 27 28  1  0
 28 29  1  0
 29 30  1  0
 30 31  1  0
 31 32  1  0
 32 33  1  0
 31 34  1  0
 34 35  1  0
 34 36  1  0
 36 37  1  0
 36 38  1  0
 27 39  1  0
 39 40  1  0
 39 41  1  0
 20 42  1  0
 42 43  1  0
 42 44  1  0
 44 45  2  0
 45 46  1  0
 46 47  2  0
 47 48  1  0
 48 49  1  0
 49 50  1  0
 50 51  1  0
 51 52  1  0
 51 53  1  0
 53 54  1  0
 53 55  2  0
 55 56  1  0
 56 57  1  0
 57 58  2  0
 57 59  1  0
 56 60  1  0
 60 61  1  1
 15 62  1  0
 10  5  1  0
 59 13  1  0
 62  7  1  0
 41 22  1  0
 60 47  1  0
 38 29  1  0
 60 50  1  0
  1 63  1  0
  1 64  1  0
  1 65  1  0
  2 66  1  0
  2 67  1  0
  3 68  1  6
  4 69  1  0
  4 70  1  0
  4 71  1  0
  5 72  1  6
  8 73  1  0
  9 74  1  0
 10 75  1  1
 11 76  1  0
 11 77  1  0
 11 78  1  0
 12 79  1  0
 12 80  1  0
 13 81  1  1
 14 82  1  0
 14 83  1  0
 15 84  1  1
 16 85  1  0
 16 86  1  0
 17 87  1  0
 19 88  1  0
 19 89  1  0
 19 90  1  0
 20 91  1  6
 22 92  1  6
 23 93  1  0
 23 94  1  0
 24 95  1  6
 26 96  1  0
 26 97  1  0
 26 98  1  0
 27 99  1  6
 29100  1  1
 30101  1  0
 30102  1  0
 31103  1  1
 33104  1  0
 33105  1  0
 33106  1  0
 34107  1  6
 35108  1  0
 36109  1  1
 37110  1  0
 37111  1  0
 37112  1  0
 39113  1  1
 40114  1  0
 40115  1  0
 40116  1  0
 42117  1  6
 43118  1  0
 43119  1  0
 43120  1  0
 44121  1  0
 45122  1  0
 46123  1  0
 48124  1  0
 48125  1  0
 50126  1  1
 51127  1  1
 52128  1  0
 54129  1  0
 54130  1  0
 54131  1  0
 55132  1  0
 56133  1  6
 61134  1  0
M  END
$$$$
