
     RDKit          3D

 83 86  0  0  0  0  0  0  0  0999 V2000
   -5.2040   -4.2248   -1.2083 C   0  0  0  0  0  0  0  0  0  0  0  0
   -5.3709   -2.8521   -1.7854 C   0  0  0  0  0  0  0  0  0  0  0  0
   -4.7233   -2.5396   -2.8214 O   0  0  0  0  0  0  0  0  0  0  0  0
   -6.2544   -1.8905   -1.1770 N   0  0  0  0  0  0  0  0  0  0  0  0
   -7.1255   -2.1923   -0.0532 C   0  0  0  0  0  0  0  0  0  0  0  0
   -7.8165   -0.8819    0.3087 C   0  0  0  0  0  0  0  0  0  0  0  0
   -7.5253    0.0925   -0.8355 C   0  0  0  0  0  0  0  0  0  0  0  0
   -6.3675   -0.5126   -1.6351 C   0  0  1  0  0  0  0  0  0  0  0  0
   -5.0700    0.2159   -1.3987 C   0  0  0  0  0  0  0  0  0  0  0  0
   -4.4788    0.7536   -2.3761 O   0  0  0  0  0  0  0  0  0  0  0  0
   -4.4772    0.2391   -0.0902 N   0  0  0  0  0  0  0  0  0  0  0  0
   -3.0270    0.3150    0.1125 C   0  0  2  0  0  0  0  0  0  0  0  0
   -2.5422   -1.0138    0.7126 C   0  0  0  0  0  0  0  0  0  0  0  0
   -1.1228   -1.0194    0.8802 O   0  0  0  0  0  0  0  0  0  0  0  0
   -0.4344   -2.1286    1.3794 C   0  0  0  0  0  0  0  0  0  0  0  0
   -1.0552   -3.2079    1.5820 O   0  0  0  0  0  0  0  0  0  0  0  0
    0.9903   -2.0308    1.7834 C   0  0  0  0  0  0  0  0  0  0  0  0
    1.3228   -2.5752    3.0353 C   0  0  0  0  0  0  0  0  0  0  0  0
    2.6309   -2.5612    3.5004 C   0  0  0  0  0  0  0  0  0  0  0  0
    3.6434   -2.0254    2.7173 C   0  0  0  0  0  0  0  0  0  0  0  0
    3.3610   -1.4896    1.4553 C   0  0  0  0  0  0  0  0  0  0  0  0
    4.5030   -0.9793    0.6664 C   0  0  0  0  0  0  0  0  0  0  0  0
    4.9089   -1.6333   -0.4979 C   0  0  0  0  0  0  0  0  0  0  0  0
    5.9697   -1.1364   -1.2700 C   0  0  0  0  0  0  0  0  0  0  0  0
    6.3213   -1.8533   -2.5490 C   0  0  0  0  0  0  0  0  0  0  0  0
    6.6754    0.0172   -0.8366 C   0  0  0  0  0  0  0  0  0  0  0  0
    7.7975    0.5586   -1.6448 C   0  0  0  0  0  0  0  0  0  0  0  0
    7.8770    1.7940   -1.8785 O   0  0  0  0  0  0  0  0  0  0  0  0
    8.7782   -0.2965   -2.1396 O   0  0  0  0  0  0  0  0  0  0  0  0
    6.2893    0.6493    0.3754 C   0  0  0  0  0  0  0  0  0  0  0  0
    7.0049    1.8657    0.9057 C   0  0  0  0  0  0  0  0  0  0  0  0
    5.2010    0.1482    1.1034 C   0  0  0  0  0  0  0  0  0  0  0  0
    2.0188   -1.4550    0.9748 C   0  0  0  0  0  0  0  0  0  0  0  0
    1.7202   -0.8498   -0.3906 C   0  0  0  0  0  0  0  0  0  0  0  0
    2.2209    0.9173   -0.5096 S   0  0  0  0  0  0  0  0  0  0  0  0
    1.0701    1.6082    0.7348 C   0  0  0  0  0  0  0  0  0  0  0  0
   -0.3128    1.8663    0.1191 C   0  0  2  0  0  0  0  0  0  0  0  0
   -0.3251    3.0849   -0.7792 C   0  0  0  0  0  0  0  0  0  0  0  0
   -0.6277    2.9213   -1.9925 O   0  0  0  0  0  0  0  0  0  0  0  0
    0.0403    4.4042   -0.3224 N   0  0  0  0  0  0  0  0  0  0  0  0
    0.6957    5.3116   -1.2687 C   0  0  0  0  0  0  0  0  0  0  0  0
   -0.3415    4.8877    1.0080 C   0  0  0  0  0  0  0  0  0  0  0  0
   -1.3384    1.9639    1.1652 N   0  0  0  0  0  0  0  0  0  0  0  0
   -2.6828    1.4673    1.0334 C   0  0  0  0  0  0  0  0  0  0  0  0
   -3.5797    1.9469    1.7813 O   0  0  0  0  0  0  0  0  0  0  0  0
   -4.4362   -4.7954   -1.7734 H   0  0  0  0  0  0  0  0  0  0  0  0
   -4.8774   -4.1510   -0.1511 H   0  0  0  0  0  0  0  0  0  0  0  0
   -6.1666   -4.7708   -1.2621 H   0  0  0  0  0  0  0  0  0  0  0  0
   -6.5281   -2.5623    0.8091 H   0  0  0  0  0  0  0  0  0  0  0  0
   -7.8751   -2.9566   -0.3552 H   0  0  0  0  0  0  0  0  0  0  0  0
   -7.3989   -0.4806    1.2571 H   0  0  0  0  0  0  0  0  0  0  0  0
   -8.9116   -1.0304    0.4374 H   0  0  0  0  0  0  0  0  0  0  0  0
   -8.4248    0.1694   -1.4858 H   0  0  0  0  0  0  0  0  0  0  0  0
   -7.2941    1.1103   -0.4475 H   0  0  0  0  0  0  0  0  0  0  0  0
   -6.6204   -0.5002   -2.7193 H   0  0  0  0  0  0  0  0  0  0  0  0
   -5.0756   -0.0069    0.7298 H   0  0  0  0  0  0  0  0  0  0  0  0
   -2.5383    0.4630   -0.8697 H   0  0  0  0  0  0  0  0  0  0  0  0
   -3.0257   -1.1675    1.7017 H   0  0  0  0  0  0  0  0  0  0  0  0
   -2.8392   -1.8507    0.0420 H   0  0  0  0  0  0  0  0  0  0  0  0
    0.5575   -3.0069    3.6667 H   0  0  0  0  0  0  0  0  0  0  0  0
    2.8633   -2.9758    4.4733 H   0  0  0  0  0  0  0  0  0  0  0  0
    4.6609   -2.0435    3.0913 H   0  0  0  0  0  0  0  0  0  0  0  0
    4.3831   -2.5268   -0.8124 H   0  0  0  0  0  0  0  0  0  0  0  0
    5.4992   -2.5240   -2.8773 H   0  0  0  0  0  0  0  0  0  0  0  0
    6.4947   -1.1251   -3.3686 H   0  0  0  0  0  0  0  0  0  0  0  0
    7.2318   -2.4687   -2.3967 H   0  0  0  0  0  0  0  0  0  0  0  0
    9.5490    0.0583   -2.6930 H   0  0  0  0  0  0  0  0  0  0  0  0
    6.6827    2.7630    0.3384 H   0  0  0  0  0  0  0  0  0  0  0  0
    6.7776    2.0336    1.9781 H   0  0  0  0  0  0  0  0  0  0  0  0
    8.1029    1.7382    0.8163 H   0  0  0  0  0  0  0  0  0  0  0  0
    4.8876    0.6385    2.0177 H   0  0  0  0  0  0  0  0  0  0  0  0
    2.2828   -1.4101   -1.1631 H   0  0  0  0  0  0  0  0  0  0  0  0
    0.6675   -0.9600   -0.6985 H   0  0  0  0  0  0  0  0  0  0  0  0
    1.5120    2.5479    1.1246 H   0  0  0  0  0  0  0  0  0  0  0  0
    0.9847    0.9181    1.6009 H   0  0  0  0  0  0  0  0  0  0  0  0
   -0.5240    0.9888   -0.5167 H   0  0  0  0  0  0  0  0  0  0  0  0
    0.9800    6.2694   -0.7879 H   0  0  0  0  0  0  0  0  0  0  0  0
    1.6207    4.8405   -1.6591 H   0  0  0  0  0  0  0  0  0  0  0  0
    0.0116    5.5367   -2.1147 H   0  0  0  0  0  0  0  0  0  0  0  0
    0.2409    4.3677    1.7934 H   0  0  0  0  0  0  0  0  0  0  0  0
   -0.1509    5.9755    1.1171 H   0  0  0  0  0  0  0  0  0  0  0  0
   -1.4293    4.7280    1.1694 H   0  0  0  0  0  0  0  0  0  0  0  0
   -1.1116    2.4865    2.0419 H   0  0  0  0  0  0  0  0  0  0  0  0
  1  2  1  0
  2  3  2  0
  2  4  1  0
  4  5  1  0
  5  6  1  0
  6  7  1  0
  7  8  1  0
  8  9  1  0
  9 10  2  0
  9 11  1  0
 11 12  1  0
 12 13  1  0
 13 14  1  0
 14 15  1  0
 15 16  2  0
 15 17  1  0
 17 18  2  0
 18 19  1  0
 19 20  2  0
 20 21  1  0
 21 22  1  0
 22 23  2  0
 23 24  1  0
 24 25  1  0
 24 26  2  0
 26 27  1  0
 27 28  2  0
 27 29  1  0
 26 30  1  0
 30 31  1  0
 30 32  2  0
 21 33  2  0
 33 34  1  0
 34 35  1  0
 35 36  1  0
 36 37  1  0
 37 38  1  0
 38 39  2  0
 38 40  1  0
 40 41  1  0
 40 42  1  0
 37 43  1  0
 43 44  1  0
 44 45  2  0
  8  4  1  0
 44 12  1  0
 33 17  1  0
 32 22  1  0
  1 46  1  0
  1 47  1  0
  1 48  1  0
  5 49  1  0
  5 50  1  0
  6 51  1  0
  6 52  1  0
  7 53  1  0
  7 54  1  0
  8 55  1  6
 11 56  1  0
 12 57  1  6
 13 58  1  0
 13 59  1  0
 18 60  1  0
 19 61  1  0
 20 62  1  0
 23 63  1  0
 25 64  1  0
 25 65  1  0
 25 66  1  0
 29 67  1  0
 31 68  1  0
 31 69  1  0
 31 70  1  0
 32 71  1  0
 34 72  1  0
 34 73  1  0
 36 74  1  0
 36 75  1  0
 37 76  1  6
 41 77  1  0
 41 78  1  0
 41 79  1  0
 42 80  1  0
 42 81  1  0
 42 82  1  0
 43 83  1  0
M  END
$$$$
