
     RDKit          3D

142142  0  0  0  0  0  0  0  0999 V2000
    7.7309   -2.8162   -0.0950 C   0  0  0  0  0  0  0  0  0  0  0  0
    7.4710   -1.3261   -0.2997 C   0  0  0  0  0  0  0  0  0  0  0  0
    6.4747   -0.7896    0.7331 C   0  0  0  0  0  0  0  0  0  0  0  0
    6.1957    0.7012    0.4976 C   0  0  0  0  0  0  0  0  0  0  0  0
    5.2363    1.3078    1.5345 C   0  0  0  0  0  0  0  0  0  0  0  0
    3.8114    0.7122    1.5558 C   0  0  0  0  0  0  0  0  0  0  0  0
    3.0156    0.8172    0.2330 C   0  0  1  0  0  0  0  0  0  0  0  0
    3.4059    1.9812   -0.5013 O   0  0  0  0  0  0  0  0  0  0  0  0
    2.7624    2.4162   -1.6676 C   0  0  0  0  0  0  0  0  0  0  0  0
    1.8277    1.7364   -2.1715 O   0  0  0  0  0  0  0  0  0  0  0  0
    3.2007    3.6802   -2.3616 C   0  0  2  0  0  0  0  0  0  0  0  0
    4.4959    4.2897   -1.7680 C   0  0  0  0  0  0  0  0  0  0  0  0
    4.3021    5.0490   -0.4576 C   0  0  0  0  0  0  0  0  0  0  0  0
    2.1129    4.6795   -2.4934 N   0  0  0  0  0  0  0  0  0  0  0  0
    2.2539    5.7352   -3.5020 C   0  0  0  0  0  0  0  0  0  0  0  0
    0.8261    4.5665   -1.8393 C   0  0  0  0  0  0  0  0  0  0  0  0
   -0.2227    4.7578   -2.5137 O   0  0  0  0  0  0  0  0  0  0  0  0
    0.6998    4.3293   -0.3474 C   0  0  1  0  0  0  0  0  0  0  0  0
   -0.0116    5.5044    0.3516 C   0  0  0  0  0  0  0  0  0  0  0  0
    0.8440    6.7786    0.3567 C   0  0  0  0  0  0  0  0  0  0  0  0
    0.0944    7.9437    1.0192 C   0  0  0  0  0  0  0  0  0  0  0  0
    0.9486    9.2190    1.1085 C   0  0  0  0  0  0  0  0  0  0  0  0
    1.1837    9.8709   -0.2542 C   0  0  0  0  0  0  0  0  0  0  0  0
    0.0385    3.0888   -0.0625 O   0  0  0  0  0  0  0  0  0  0  0  0
   -1.2821    2.7961   -0.4269 C   0  0  0  0  0  0  0  0  0  0  0  0
   -1.5238    2.3918   -1.5974 O   0  0  0  0  0  0  0  0  0  0  0  0
   -2.4030    3.0114    0.5675 C   0  0  2  0  0  0  0  0  0  0  0  0
   -2.0329    2.4997    1.9648 C   0  0  0  0  0  0  0  0  0  0  0  0
   -3.7027    2.4714    0.1044 N   0  0  0  0  0  0  0  0  0  0  0  0
   -4.7952    3.4232   -0.1257 C   0  0  0  0  0  0  0  0  0  0  0  0
   -3.8579    1.1447   -0.4460 C   0  0  0  0  0  0  0  0  0  0  0  0
   -4.2942    1.0192   -1.6253 O   0  0  0  0  0  0  0  0  0  0  0  0
   -3.6265   -0.0985    0.3785 C   0  0  1  0  0  0  0  0  0  0  0  0
   -4.5902   -0.1608    1.5886 C   0  0  0  0  0  0  0  0  0  0  0  0
   -6.0935   -0.1687    1.2373 C   0  0  0  0  0  0  0  0  0  0  0  0
   -6.5894   -1.5312    0.7223 C   0  0  0  0  0  0  0  0  0  0  0  0
   -8.1220   -1.6121    0.6563 C   0  0  0  0  0  0  0  0  0  0  0  0
   -8.7109   -0.7150   -0.4330 C   0  0  0  0  0  0  0  0  0  0  0  0
   -3.7638   -1.2569   -0.4502 O   0  0  0  0  0  0  0  0  0  0  0  0
   -3.3661   -2.5454   -0.0735 C   0  0  0  0  0  0  0  0  0  0  0  0
   -2.7609   -2.7350    1.0162 O   0  0  0  0  0  0  0  0  0  0  0  0
   -3.6678   -3.6981   -0.9941 C   0  0  2  0  0  0  0  0  0  0  0  0
   -4.3129   -4.8770   -0.2540 C   0  0  0  0  0  0  0  0  0  0  0  0
   -2.4672   -4.0921   -1.7571 N   0  0  0  0  0  0  0  0  0  0  0  0
   -2.2860   -3.5462   -3.1040 C   0  0  0  0  0  0  0  0  0  0  0  0
   -1.5859   -5.1506   -1.3332 C   0  0  0  0  0  0  0  0  0  0  0  0
   -1.4448   -6.1628   -2.0759 O   0  0  0  0  0  0  0  0  0  0  0  0
   -0.7235   -4.9705   -0.1088 C   0  0  1  0  0  0  0  0  0  0  0  0
    0.1331   -6.2076    0.2300 C   0  0  0  0  0  0  0  0  0  0  0  0
   -0.7170   -7.3406    0.8275 C   0  0  0  0  0  0  0  0  0  0  0  0
    0.1247   -8.5994    1.0756 C   0  0  0  0  0  0  0  0  0  0  0  0
   -0.7217   -9.7040    1.7205 C   0  0  0  0  0  0  0  0  0  0  0  0
    0.1007  -10.9698    1.9502 C   0  0  0  0  0  0  0  0  0  0  0  0
    0.1173   -3.8476   -0.3534 O   0  0  0  0  0  0  0  0  0  0  0  0
    0.5610   -2.9736    0.6435 C   0  0  0  0  0  0  0  0  0  0  0  0
    0.5019   -3.2975    1.8591 O   0  0  0  0  0  0  0  0  0  0  0  0
    1.0917   -1.6203    0.2462 C   0  0  2  0  0  0  0  0  0  0  0  0
    0.1617   -1.0109   -0.8156 C   0  0  0  0  0  0  0  0  0  0  0  0
    2.4835   -1.6713   -0.2603 N   0  0  0  0  0  0  0  0  0  0  0  0
    3.0864   -2.9429   -0.6849 C   0  0  0  0  0  0  0  0  0  0  0  0
    3.1725   -0.4430   -0.6001 C   0  0  0  0  0  0  0  0  0  0  0  0
    3.9431   -0.4226   -1.6000 O   0  0  0  0  0  0  0  0  0  0  0  0
    8.1303   -3.0019    0.9244 H   0  0  0  0  0  0  0  0  0  0  0  0
    6.7932   -3.3925   -0.2347 H   0  0  0  0  0  0  0  0  0  0  0  0
    8.4789   -3.1689   -0.8360 H   0  0  0  0  0  0  0  0  0  0  0  0
    8.4325   -0.7776   -0.2158 H   0  0  0  0  0  0  0  0  0  0  0  0
    7.0667   -1.1732   -1.3250 H   0  0  0  0  0  0  0  0  0  0  0  0
    6.8902   -0.9295    1.7557 H   0  0  0  0  0  0  0  0  0  0  0  0
    5.5318   -1.3685    0.6562 H   0  0  0  0  0  0  0  0  0  0  0  0
    5.8056    0.8672   -0.5257 H   0  0  0  0  0  0  0  0  0  0  0  0
    7.1588    1.2553    0.5629 H   0  0  0  0  0  0  0  0  0  0  0  0
    5.1689    2.4012    1.3528 H   0  0  0  0  0  0  0  0  0  0  0  0
    5.6828    1.1853    2.5451 H   0  0  0  0  0  0  0  0  0  0  0  0
    3.2462    1.2708    2.3327 H   0  0  0  0  0  0  0  0  0  0  0  0
    3.8429   -0.3405    1.9134 H   0  0  0  0  0  0  0  0  0  0  0  0
    1.9487    0.9494    0.5020 H   0  0  0  0  0  0  0  0  0  0  0  0
    3.4693    3.3491   -3.3893 H   0  0  0  0  0  0  0  0  0  0  0  0
    4.9400    4.9886   -2.5065 H   0  0  0  0  0  0  0  0  0  0  0  0
    5.2478    3.4864   -1.6110 H   0  0  0  0  0  0  0  0  0  0  0  0
    5.2695    5.4934   -0.1452 H   0  0  0  0  0  0  0  0  0  0  0  0
    3.9650    4.3692    0.3500 H   0  0  0  0  0  0  0  0  0  0  0  0
    3.5719    5.8727   -0.5915 H   0  0  0  0  0  0  0  0  0  0  0  0
    2.0692    6.7261   -3.0371 H   0  0  0  0  0  0  0  0  0  0  0  0
    1.5240    5.5744   -4.3235 H   0  0  0  0  0  0  0  0  0  0  0  0
    3.2699    5.7421   -3.9468 H   0  0  0  0  0  0  0  0  0  0  0  0
    1.7065    4.2502    0.0943 H   0  0  0  0  0  0  0  0  0  0  0  0
   -0.9794    5.7155   -0.1542 H   0  0  0  0  0  0  0  0  0  0  0  0
   -0.2280    5.2177    1.4040 H   0  0  0  0  0  0  0  0  0  0  0  0
    1.0973    7.0503   -0.6884 H   0  0  0  0  0  0  0  0  0  0  0  0
    1.7858    6.5838    0.9165 H   0  0  0  0  0  0  0  0  0  0  0  0
   -0.1906    7.6453    2.0515 H   0  0  0  0  0  0  0  0  0  0  0  0
   -0.8422    8.1583    0.4578 H   0  0  0  0  0  0  0  0  0  0  0  0
    0.4159    9.9500    1.7549 H   0  0  0  0  0  0  0  0  0  0  0  0
    1.9247    8.9953    1.5888 H   0  0  0  0  0  0  0  0  0  0  0  0
    1.6784   10.8563   -0.1118 H   0  0  0  0  0  0  0  0  0  0  0  0
    0.2207   10.0348   -0.7816 H   0  0  0  0  0  0  0  0  0  0  0  0
    1.8483    9.2420   -0.8825 H   0  0  0  0  0  0  0  0  0  0  0  0
   -2.4996    4.1115    0.6742 H   0  0  0  0  0  0  0  0  0  0  0  0
   -1.2379    3.1413    2.4008 H   0  0  0  0  0  0  0  0  0  0  0  0
   -1.6417    1.4658    1.9425 H   0  0  0  0  0  0  0  0  0  0  0  0
   -2.9152    2.5528    2.6371 H   0  0  0  0  0  0  0  0  0  0  0  0
   -4.8267    4.1786    0.6874 H   0  0  0  0  0  0  0  0  0  0  0  0
   -4.6436    3.9360   -1.0980 H   0  0  0  0  0  0  0  0  0  0  0  0
   -5.7750    2.9024   -0.1383 H   0  0  0  0  0  0  0  0  0  0  0  0
   -2.5873   -0.0748    0.7525 H   0  0  0  0  0  0  0  0  0  0  0  0
   -4.3993    0.7272    2.2282 H   0  0  0  0  0  0  0  0  0  0  0  0
   -4.3487   -1.0423    2.2188 H   0  0  0  0  0  0  0  0  0  0  0  0
   -6.6534    0.0837    2.1625 H   0  0  0  0  0  0  0  0  0  0  0  0
   -6.3160    0.6213    0.4921 H   0  0  0  0  0  0  0  0  0  0  0  0
   -6.1805   -1.7349   -0.2882 H   0  0  0  0  0  0  0  0  0  0  0  0
   -6.2311   -2.3327    1.4056 H   0  0  0  0  0  0  0  0  0  0  0  0
   -8.5651   -1.3401    1.6404 H   0  0  0  0  0  0  0  0  0  0  0  0
   -8.4102   -2.6621    0.4386 H   0  0  0  0  0  0  0  0  0  0  0  0
   -9.8022   -0.9037   -0.5165 H   0  0  0  0  0  0  0  0  0  0  0  0
   -8.2403   -0.9363   -1.4158 H   0  0  0  0  0  0  0  0  0  0  0  0
   -8.5622    0.3547   -0.1838 H   0  0  0  0  0  0  0  0  0  0  0  0
   -4.4384   -3.3390   -1.7126 H   0  0  0  0  0  0  0  0  0  0  0  0
   -5.2865   -4.5636    0.1804 H   0  0  0  0  0  0  0  0  0  0  0  0
   -3.6652   -5.2495    0.5659 H   0  0  0  0  0  0  0  0  0  0  0  0
   -4.5017   -5.7101   -0.9666 H   0  0  0  0  0  0  0  0  0  0  0  0
   -2.5202   -2.4601   -3.1082 H   0  0  0  0  0  0  0  0  0  0  0  0
   -1.2319   -3.6684   -3.4391 H   0  0  0  0  0  0  0  0  0  0  0  0
   -2.9594   -4.0711   -3.8138 H   0  0  0  0  0  0  0  0  0  0  0  0
   -1.3850   -4.7567    0.7562 H   0  0  0  0  0  0  0  0  0  0  0  0
    0.9022   -5.9157    0.9784 H   0  0  0  0  0  0  0  0  0  0  0  0
    0.6736   -6.5592   -0.6765 H   0  0  0  0  0  0  0  0  0  0  0  0
   -1.5527   -7.5927    0.1373 H   0  0  0  0  0  0  0  0  0  0  0  0
   -1.1536   -6.9928    1.7895 H   0  0  0  0  0  0  0  0  0  0  0  0
    0.5334   -8.9651    0.1082 H   0  0  0  0  0  0  0  0  0  0  0  0
    0.9746   -8.3479    1.7482 H   0  0  0  0  0  0  0  0  0  0  0  0
   -1.1162   -9.3495    2.6981 H   0  0  0  0  0  0  0  0  0  0  0  0
   -1.5828   -9.9496    1.0607 H   0  0  0  0  0  0  0  0  0  0  0  0
   -0.5342  -11.7417    2.4325 H   0  0  0  0  0  0  0  0  0  0  0  0
    0.4730  -11.3683    0.9826 H   0  0  0  0  0  0  0  0  0  0  0  0
    0.9638  -10.7560    2.6178 H   0  0  0  0  0  0  0  0  0  0  0  0
    1.0545   -0.9818    1.1560 H   0  0  0  0  0  0  0  0  0  0  0  0
    0.3564    0.0701   -0.9419 H   0  0  0  0  0  0  0  0  0  0  0  0
    0.3065   -1.5179   -1.7940 H   0  0  0  0  0  0  0  0  0  0  0  0
   -0.8988   -1.1190   -0.5150 H   0  0  0  0  0  0  0  0  0  0  0  0
    4.1641   -2.8210   -0.9330 H   0  0  0  0  0  0  0  0  0  0  0  0
    2.5555   -3.3290   -1.5810 H   0  0  0  0  0  0  0  0  0  0  0  0
    3.0300   -3.6894    0.1359 H   0  0  0  0  0  0  0  0  0  0  0  0
  1  2  1  0
  2  3  1  0
  3  4  1  0
  4  5  1  0
  5  6  1  0
  6  7  1  0
  7  8  1  0
  8  9  1  0
  9 10  2  0
  9 11  1  0
 11 12  1  0
 12 13  1  0
 11 14  1  0
 14 15  1  0
 14 16  1  0
 16 17  2  0
 16 18  1  0
 18 19  1  0
 19 20  1  0
 20 21  1  0
 21 22  1  0
 22 23  1  0
 18 24  1  0
 24 25  1  0
 25 26  2  0
 25 27  1  0
 27 28  1  0
 27 29  1  0
 29 30  1  0
 29 31  1  0
 31 32  2  0
 31 33  1  0
 33 34  1  0
 34 35  1  0
 35 36  1  0
 36 37  1  0
 37 38  1  0
 33 39  1  0
 39 40  1  0
 40 41  2  0
 40 42  1  0
 42 43  1  0
 42 44  1  0
 44 45  1  0
 44 46  1  0
 46 47  2  0
 46 48  1  0
 48 49  1  0
 49 50  1  0
 50 51  1  0
 51 52  1  0
 52 53  1  0
 48 54  1  0
 54 55  1  0
 55 56  2  0
 55 57  1  0
 57 58  1  0
 57 59  1  0
 59 60  1  0
 59 61  1  0
 61 62  2  0
 61  7  1  0
  1 63  1  0
  1 64  1  0
  1 65  1  0
  2 66  1  0
  2 67  1  0
  3 68  1  0
  3 69  1  0
  4 70  1  0
  4 71  1  0
  5 72  1  0
  5 73  1  0
  6 74  1  0
  6 75  1  0
  7 76  1  1
 11 77  1  6
 12 78  1  0
 12 79  1  0
 13 80  1  0
 13 81  1  0
 13 82  1  0
 15 83  1  0
 15 84  1  0
 15 85  1  0
 18 86  1  1
 19 87  1  0
 19 88  1  0
 20 89  1  0
 20 90  1  0
 21 91  1  0
 21 92  1  0
 22 93  1  0
 22 94  1  0
 23 95  1  0
 23 96  1  0
 23 97  1  0
 27 98  1  1
 28 99  1  0
 28100  1  0
 28101  1  0
 30102  1  0
 30103  1  0
 30104  1  0
 33105  1  1
 34106  1  0
 34107  1  0
 35108  1  0
 35109  1  0
 36110  1  0
 36111  1  0
 37112  1  0
 37113  1  0
 38114  1  0
 38115  1  0
 38116  1  0
 42117  1  6
 43118  1  0
 43119  1  0
 43120  1  0
 45121  1  0
 45122  1  0
 45123  1  0
 48124  1  1
 49125  1  0
 49126  1  0
 50127  1  0
 50128  1  0
 51129  1  0
 51130  1  0
 52131  1  0
 52132  1  0
 53133  1  0
 53134  1  0
 53135  1  0
 57136  1  1
 58137  1  0
 58138  1  0
 58139  1  0
 60140  1  0
 60141  1  0
 60142  1  0
M  END
$$$$
