
     RDKit          3D

 96 99  0  0  0  0  0  0  0  0999 V2000
    7.0572   -1.4449    5.4921 C   0  0  0  0  0  0  0  0  0  0  0  0
    7.3746   -0.2669    4.7543 O   0  0  0  0  0  0  0  0  0  0  0  0
    6.9827   -0.0435    3.4261 C   0  0  0  0  0  0  0  0  0  0  0  0
    7.3049    1.1847    2.8329 C   0  0  0  0  0  0  0  0  0  0  0  0
    6.9369    1.4497    1.5147 C   0  0  0  0  0  0  0  0  0  0  0  0
    6.2292    0.4928    0.7669 C   0  0  0  0  0  0  0  0  0  0  0  0
    5.7868    0.8075   -0.6494 C   0  0  0  0  0  0  0  0  0  0  0  0
    4.4103    1.3504   -0.7361 N   0  0  0  0  0  0  0  0  0  0  0  0
    4.2623    2.5768    0.0698 C   0  0  0  0  0  0  0  0  0  0  0  0
    3.3916    0.3343   -0.3972 C   0  0  0  0  0  0  0  0  0  0  0  0
    1.9858    0.6880   -0.9620 C   0  0  1  0  0  0  0  0  0  0  0  0
    1.9609    0.5310   -2.3749 O   0  0  0  0  0  0  0  0  0  0  0  0
    2.3101    1.7021   -3.0922 C   0  0  0  0  0  0  0  0  0  0  0  0
    1.1805    2.7501   -3.1888 C   0  0  0  0  0  0  0  0  0  0  0  0
   -0.2460    2.1887   -3.2094 C   0  0  0  0  0  0  0  0  0  0  0  0
   -0.5159    1.2056   -4.3684 C   0  0  0  0  0  0  0  0  0  0  0  0
   -1.8322    0.4244   -4.1788 C   0  0  2  0  0  0  0  0  0  0  0  0
   -3.0557    1.3277   -4.3981 C   0  0  0  0  0  0  0  0  0  0  0  0
   -1.7533   -0.3109   -2.9439 O   0  0  0  0  0  0  0  0  0  0  0  0
   -2.6102   -0.4722   -1.8298 C   0  0  0  0  0  0  0  0  0  0  0  0
   -3.6595    0.4023   -1.4808 C   0  0  0  0  0  0  0  0  0  0  0  0
   -4.4361    0.1598   -0.3476 C   0  0  0  0  0  0  0  0  0  0  0  0
   -4.1508   -0.9252    0.4918 C   0  0  0  0  0  0  0  0  0  0  0  0
   -4.9693   -1.2044    1.6368 N   0  0  0  0  0  0  0  0  0  0  0  0
   -6.7008   -1.1560    1.5475 S   0  0  0  0  0  6  0  0  0  0  0  0
   -7.1369   -1.7499    0.2358 O   0  0  0  0  0  0  0  0  0  0  0  0
   -7.2816   -1.9850    2.6593 O   0  0  0  0  0  0  0  0  0  0  0  0
   -7.2867    0.4980    1.7019 C   0  0  0  0  0  0  0  0  0  0  0  0
   -8.0063    1.0996    0.6566 C   0  0  0  0  0  0  0  0  0  0  0  0
   -8.4525    2.4163    0.7826 C   0  0  0  0  0  0  0  0  0  0  0  0
   -8.1828    3.1419    1.9491 C   0  0  0  0  0  0  0  0  0  0  0  0
   -8.7477    4.7970    2.1037 Cl  0  0  0  0  0  0  0  0  0  0  0  0
   -7.4683    2.5431    2.9934 C   0  0  0  0  0  0  0  0  0  0  0  0
   -7.0247    1.2249    2.8720 C   0  0  0  0  0  0  0  0  0  0  0  0
   -3.0494   -1.7353    0.2096 C   0  0  0  0  0  0  0  0  0  0  0  0
   -2.2943   -1.5334   -0.9551 C   0  0  0  0  0  0  0  0  0  0  0  0
   -1.1772   -2.4528   -1.2857 C   0  0  0  0  0  0  0  0  0  0  0  0
   -1.1484   -3.0009   -2.4194 O   0  0  0  0  0  0  0  0  0  0  0  0
   -0.0389   -2.5982   -0.4064 N   0  0  0  0  0  0  0  0  0  0  0  0
    0.1699   -3.8287    0.4035 C   0  0  1  0  0  0  0  0  0  0  0  0
    0.0193   -3.5142    1.8951 C   0  0  0  0  0  0  0  0  0  0  0  0
   -0.6796   -5.0440   -0.0366 C   0  0  0  0  0  0  0  0  0  0  0  0
   -2.0601   -4.8261    0.1003 O   0  0  0  0  0  0  0  0  0  0  0  0
    1.1339   -1.7469   -0.6803 C   0  0  0  0  0  0  0  0  0  0  0  0
    0.8791   -0.2471   -0.3680 C   0  0  1  0  0  0  0  0  0  0  0  0
    0.6494   -0.0088    1.1329 C   0  0  0  0  0  0  0  0  0  0  0  0
    5.9143   -0.7435    1.3571 C   0  0  0  0  0  0  0  0  0  0  0  0
    6.2805   -1.0077    2.6759 C   0  0  0  0  0  0  0  0  0  0  0  0
    7.5002   -2.3393    5.0034 H   0  0  0  0  0  0  0  0  0  0  0  0
    7.4778   -1.3535    6.5118 H   0  0  0  0  0  0  0  0  0  0  0  0
    5.9547   -1.5586    5.5642 H   0  0  0  0  0  0  0  0  0  0  0  0
    7.8503    1.9306    3.3975 H   0  0  0  0  0  0  0  0  0  0  0  0
    7.1935    2.4075    1.0764 H   0  0  0  0  0  0  0  0  0  0  0  0
    6.4889    1.5391   -1.1034 H   0  0  0  0  0  0  0  0  0  0  0  0
    5.8700   -0.1082   -1.2720 H   0  0  0  0  0  0  0  0  0  0  0  0
    3.3454    3.1290   -0.2164 H   0  0  0  0  0  0  0  0  0  0  0  0
    5.1094    3.2686   -0.1340 H   0  0  0  0  0  0  0  0  0  0  0  0
    4.2219    2.3540    1.1608 H   0  0  0  0  0  0  0  0  0  0  0  0
    3.3443    0.2073    0.7040 H   0  0  0  0  0  0  0  0  0  0  0  0
    3.6911   -0.6527   -0.8243 H   0  0  0  0  0  0  0  0  0  0  0  0
    1.7042    1.7221   -0.6631 H   0  0  0  0  0  0  0  0  0  0  0  0
    3.2262    2.1763   -2.6982 H   0  0  0  0  0  0  0  0  0  0  0  0
    2.5714    1.3756   -4.1160 H   0  0  0  0  0  0  0  0  0  0  0  0
    1.3421    3.3591   -4.1006 H   0  0  0  0  0  0  0  0  0  0  0  0
    1.2583    3.4363   -2.3165 H   0  0  0  0  0  0  0  0  0  0  0  0
   -0.4544    1.7298   -2.2263 H   0  0  0  0  0  0  0  0  0  0  0  0
   -0.9395    3.0477   -3.2962 H   0  0  0  0  0  0  0  0  0  0  0  0
   -0.5208    1.7597   -5.3306 H   0  0  0  0  0  0  0  0  0  0  0  0
    0.3027    0.4622   -4.4410 H   0  0  0  0  0  0  0  0  0  0  0  0
   -1.8727   -0.3351   -4.9846 H   0  0  0  0  0  0  0  0  0  0  0  0
   -3.0593    1.6798   -5.4515 H   0  0  0  0  0  0  0  0  0  0  0  0
   -3.0157    2.2358   -3.7618 H   0  0  0  0  0  0  0  0  0  0  0  0
   -3.9979    0.7612   -4.2345 H   0  0  0  0  0  0  0  0  0  0  0  0
   -3.8848    1.2978   -2.0242 H   0  0  0  0  0  0  0  0  0  0  0  0
   -5.2474    0.8344   -0.1161 H   0  0  0  0  0  0  0  0  0  0  0  0
   -4.5468   -1.7221    2.4426 H   0  0  0  0  0  0  0  0  0  0  0  0
   -8.2076    0.5562   -0.2574 H   0  0  0  0  0  0  0  0  0  0  0  0
   -9.0043    2.8759   -0.0240 H   0  0  0  0  0  0  0  0  0  0  0  0
   -7.2451    3.1057    3.8933 H   0  0  0  0  0  0  0  0  0  0  0  0
   -6.4697    0.7681    3.6836 H   0  0  0  0  0  0  0  0  0  0  0  0
   -2.8146   -2.5451    0.8739 H   0  0  0  0  0  0  0  0  0  0  0  0
    1.2199   -4.1653    0.2650 H   0  0  0  0  0  0  0  0  0  0  0  0
    0.7512   -2.7363    2.1838 H   0  0  0  0  0  0  0  0  0  0  0  0
    0.2287   -4.4262    2.4938 H   0  0  0  0  0  0  0  0  0  0  0  0
   -1.0012   -3.1456    2.1322 H   0  0  0  0  0  0  0  0  0  0  0  0
   -0.4582   -5.2824   -1.1021 H   0  0  0  0  0  0  0  0  0  0  0  0
   -0.3784   -5.9347    0.5596 H   0  0  0  0  0  0  0  0  0  0  0  0
   -2.2536   -4.8394    1.0709 H   0  0  0  0  0  0  0  0  0  0  0  0
    2.0128   -2.0826   -0.0833 H   0  0  0  0  0  0  0  0  0  0  0  0
    1.4034   -1.8698   -1.7537 H   0  0  0  0  0  0  0  0  0  0  0  0
   -0.0660    0.0403   -0.8630 H   0  0  0  0  0  0  0  0  0  0  0  0
   -0.3022   -0.4895    1.4448 H   0  0  0  0  0  0  0  0  0  0  0  0
    1.4744   -0.4333    1.7371 H   0  0  0  0  0  0  0  0  0  0  0  0
    0.5621    1.0788    1.3451 H   0  0  0  0  0  0  0  0  0  0  0  0
    5.3689   -1.4940    0.7972 H   0  0  0  0  0  0  0  0  0  0  0  0
    6.0114   -1.9634    3.1006 H   0  0  0  0  0  0  0  0  0  0  0  0
  1  2  1  0
  2  3  1  0
  3  4  2  0
  4  5  1  0
  5  6  2  0
  6  7  1  0
  7  8  1  0
  8  9  1  0
  8 10  1  0
 10 11  1  0
 11 12  1  0
 12 13  1  0
 13 14  1  0
 14 15  1  0
 15 16  1  0
 16 17  1  0
 17 18  1  0
 17 19  1  0
 19 20  1  0
 20 21  2  0
 21 22  1  0
 22 23  2  0
 23 24  1  0
 24 25  1  0
 25 26  2  0
 25 27  2  0
 25 28  1  0
 28 29  2  0
 29 30  1  0
 30 31  2  0
 31 32  1  0
 31 33  1  0
 33 34  2  0
 23 35  1  0
 35 36  2  0
 36 37  1  0
 37 38  2  0
 37 39  1  0
 39 40  1  0
 40 41  1  0
 40 42  1  0
 42 43  1  0
 39 44  1  0
 44 45  1  0
 45 46  1  0
  6 47  1  0
 47 48  2  0
 48  3  1  0
 45 11  1  0
 36 20  1  0
 34 28  1  0
  1 49  1  0
  1 50  1  0
  1 51  1  0
  4 52  1  0
  5 53  1  0
  7 54  1  0
  7 55  1  0
  9 56  1  0
  9 57  1  0
  9 58  1  0
 10 59  1  0
 10 60  1  0
 11 61  1  6
 13 62  1  0
 13 63  1  0
 14 64  1  0
 14 65  1  0
 15 66  1  0
 15 67  1  0
 16 68  1  0
 16 69  1  0
 17 70  1  6
 18 71  1  0
 18 72  1  0
 18 73  1  0
 21 74  1  0
 22 75  1  0
 24 76  1  0
 29 77  1  0
 30 78  1  0
 33 79  1  0
 34 80  1  0
 35 81  1  0
 40 82  1  1
 41 83  1  0
 41 84  1  0
 41 85  1  0
 42 86  1  0
 42 87  1  0
 43 88  1  0
 44 89  1  0
 44 90  1  0
 45 91  1  6
 46 92  1  0
 46 93  1  0
 46 94  1  0
 47 95  1  0
 48 96  1  0
M  END
$$$$
