
     RDKit          3D

167172  0  0  0  0  0  0  0  0999 V2000
    3.9840    1.0876    3.8458 C   0  0  0  0  0  0  0  0  0  0  0  0
    3.2585    0.4723    2.6470 C   0  0  0  0  0  0  0  0  0  0  0  0
    4.2123    0.0022    1.5264 C   0  0  1  0  0  0  0  0  0  0  0  0
    3.4702   -0.7886    0.5931 O   0  0  0  0  0  0  0  0  0  0  0  0
    3.0365   -2.1020    0.8038 C   0  0  0  0  0  0  0  0  0  0  0  0
    3.4880   -2.7881    1.7576 O   0  0  0  0  0  0  0  0  0  0  0  0
    2.0537   -2.6918   -0.1652 C   0  0  0  0  0  0  0  0  0  0  0  0
    0.6655   -3.0201    0.4300 C   0  0  1  0  0  0  0  0  0  0  0  0
    0.7493   -4.2048    1.1819 O   0  0  0  0  0  0  0  0  0  0  0  0
    0.0339   -1.8426    1.2590 C   0  0  2  0  0  0  0  0  0  0  0  0
    0.2693   -2.0384    2.7720 C   0  0  0  0  0  0  0  0  0  0  0  0
   -1.4915   -1.6410    0.9325 C   0  0  1  0  0  0  0  0  0  0  0  0
   -2.1136   -0.9854    2.0430 O   0  0  0  0  0  0  0  0  0  0  0  0
   -3.4947   -1.2769    2.2238 C   0  0  2  0  0  0  0  0  0  0  0  0
   -4.0398   -0.3584    3.1671 O   0  0  0  0  0  0  0  0  0  0  0  0
   -3.8706   -0.7333    4.5274 C   0  0  2  0  0  0  0  0  0  0  0  0
   -2.3995   -0.6986    4.9685 C   0  0  0  0  0  0  0  0  0  0  0  0
   -4.5738   -2.0775    4.8760 C   0  0  1  0  0  0  0  0  0  0  0  0
   -5.7349   -1.8562    5.6431 O   0  0  0  0  0  0  0  0  0  0  0  0
   -4.9176   -2.8960    3.6153 C   0  0  2  0  0  0  0  0  0  0  0  0
   -5.2641   -4.2917    4.0094 N   0  0  0  0  0  0  0  0  0  0  0  0
   -6.3093   -4.8847    3.1594 C   0  0  0  0  0  0  0  0  0  0  0  0
   -4.1201   -5.2121    4.1444 C   0  0  0  0  0  0  0  0  0  0  0  0
   -3.7682   -2.7747    2.5841 C   0  0  1  0  0  0  0  0  0  0  0  0
   -4.0609   -3.5214    1.4263 O   0  0  0  0  0  0  0  0  0  0  0  0
   -1.6448   -0.8167   -0.4033 C   0  0  1  0  0  0  0  0  0  0  0  0
   -2.8544   -1.2869   -1.2650 C   0  0  0  0  0  0  0  0  0  0  0  0
   -2.5031   -2.4200   -2.2353 C   0  0  0  0  0  0  0  0  0  0  0  0
   -3.7035   -2.7585   -3.0307 N   0  0  0  0  0  0  0  0  0  0  0  0
   -3.7293   -2.0082   -4.3030 C   0  0  0  0  0  0  0  0  0  0  0  0
   -5.0695   -2.2363   -5.0268 C   0  0  0  0  0  0  0  0  0  0  0  0
   -5.1167   -1.4550   -6.3430 C   0  0  0  0  0  0  0  0  0  0  0  0
   -5.2816   -3.7390   -5.2755 C   0  0  0  0  0  0  0  0  0  0  0  0
   -5.1441   -4.5314   -3.9647 C   0  0  0  0  0  0  0  0  0  0  0  0
   -5.2791   -6.0346   -4.2243 C   0  0  0  0  0  0  0  0  0  0  0  0
   -3.8023   -4.2087   -3.2835 C   0  0  0  0  0  0  0  0  0  0  0  0
   -1.6963    0.7168   -0.1270 C   0  0  0  0  0  0  0  0  0  0  0  0
   -0.9864    1.5879   -1.1975 C   0  0  1  0  0  0  0  0  0  0  0  0
   -1.7558    1.6849   -2.5238 C   0  0  0  0  0  0  0  0  0  0  0  0
   -0.6758    2.9714   -0.6271 C   0  0  0  0  0  0  0  0  0  0  0  0
   -1.6261    3.7960   -0.2905 N   0  0  0  0  0  0  0  0  0  0  0  0
   -2.9622    3.5366   -0.5055 O   0  0  0  0  0  0  0  0  0  0  0  0
   -3.9584    4.4590   -0.0926 C   0  0  0  0  0  0  0  0  0  0  0  0
   -4.3689    5.3759   -1.2489 C   0  0  0  0  0  0  0  0  0  0  0  0
   -3.2178    6.2262   -1.8057 C   0  0  0  0  0  0  0  0  0  0  0  0
   -2.7400    7.2428   -0.8150 C   0  0  0  0  0  0  0  0  0  0  0  0
   -3.2261    8.5197   -0.6479 C   0  0  0  0  0  0  0  0  0  0  0  0
   -2.5328    9.0560    0.3743 N   0  0  0  0  0  0  0  0  0  0  0  0
   -2.6556   10.3815    0.9295 C   0  0  0  0  0  0  0  0  0  0  0  0
   -3.4487   11.3667    0.3147 C   0  0  0  0  0  0  0  0  0  0  0  0
   -3.5383   12.6447    0.8711 C   0  0  0  0  0  0  0  0  0  0  0  0
   -2.8330   12.9351    2.0382 C   0  0  0  0  0  0  0  0  0  0  0  0
   -2.0685   11.9782    2.6247 N   0  0  0  0  0  0  0  0  0  0  0  0
   -1.9632   10.7260    2.1035 C   0  0  0  0  0  0  0  0  0  0  0  0
   -1.6780    8.1422    0.8139 N   0  0  0  0  0  0  0  0  0  0  0  0
   -1.7846    7.0248    0.1088 N   0  0  0  0  0  0  0  0  0  0  0  0
    0.6845    3.2899   -0.1474 C   0  0  0  0  0  0  0  0  0  0  0  0
    1.8005    2.8570   -0.7486 C   0  0  0  0  0  0  0  0  0  0  0  0
    3.1024    2.8276   -0.0419 C   0  0  0  0  0  0  0  0  0  0  0  0
    3.4082    3.8450    1.0298 C   0  0  0  0  0  0  0  0  0  0  0  0
    3.8926    1.7582   -0.2602 C   0  0  0  0  0  0  0  0  0  0  0  0
    4.8719    1.1930    0.7558 C   0  0  2  0  0  0  0  0  0  0  0  0
    6.2005    0.7854    0.0723 C   0  0  0  0  0  0  0  0  0  0  0  0
    6.1984   -0.5862   -0.2932 O   0  0  0  0  0  0  0  0  0  0  0  0
    7.5212   -1.0890   -0.3920 C   0  0  2  0  0  0  0  0  0  0  0  0
    8.1288   -0.5677   -1.5658 O   0  0  0  0  0  0  0  0  0  0  0  0
    9.4619   -1.0346   -1.6642 C   0  0  2  0  0  0  0  0  0  0  0  0
   10.1867   -0.2242   -2.7398 C   0  0  0  0  0  0  0  0  0  0  0  0
    9.4827   -2.5530   -1.9937 C   0  0  1  0  0  0  0  0  0  0  0  0
   10.5521   -3.1956   -1.3416 O   0  0  0  0  0  0  0  0  0  0  0  0
    8.1208   -3.2318   -1.6756 C   0  0  1  0  0  0  0  0  0  0  0  0
    8.2771   -4.6341   -1.5152 O   0  0  0  0  0  0  0  0  0  0  0  0
    8.2331   -5.2945   -2.7615 C   0  0  0  0  0  0  0  0  0  0  0  0
    7.4702   -2.6503   -0.4004 C   0  0  1  0  0  0  0  0  0  0  0  0
    8.1452   -3.1679    0.7391 O   0  0  0  0  0  0  0  0  0  0  0  0
    7.2657   -3.2673    1.8392 C   0  0  0  0  0  0  0  0  0  0  0  0
    4.7588    0.3907    4.2294 H   0  0  0  0  0  0  0  0  0  0  0  0
    3.2481    1.2790    4.6555 H   0  0  0  0  0  0  0  0  0  0  0  0
    4.4555    2.0557    3.5837 H   0  0  0  0  0  0  0  0  0  0  0  0
    2.6924   -0.3989    3.0234 H   0  0  0  0  0  0  0  0  0  0  0  0
    2.5091    1.1858    2.2435 H   0  0  0  0  0  0  0  0  0  0  0  0
    5.0093   -0.6222    1.9885 H   0  0  0  0  0  0  0  0  0  0  0  0
    2.4946   -3.6139   -0.6016 H   0  0  0  0  0  0  0  0  0  0  0  0
    1.9156   -1.9788   -1.0056 H   0  0  0  0  0  0  0  0  0  0  0  0
    0.0213   -3.2261   -0.4589 H   0  0  0  0  0  0  0  0  0  0  0  0
   -0.1818   -4.5273    1.3083 H   0  0  0  0  0  0  0  0  0  0  0  0
    0.5594   -0.8972    0.9935 H   0  0  0  0  0  0  0  0  0  0  0  0
   -0.3957   -2.8305    3.1721 H   0  0  0  0  0  0  0  0  0  0  0  0
    1.3133   -2.3353    2.9846 H   0  0  0  0  0  0  0  0  0  0  0  0
    0.0848   -1.0878    3.3137 H   0  0  0  0  0  0  0  0  0  0  0  0
   -1.9059   -2.6563    0.7791 H   0  0  0  0  0  0  0  0  0  0  0  0
   -4.0424   -1.0301    1.3012 H   0  0  0  0  0  0  0  0  0  0  0  0
   -4.3596    0.0677    5.1233 H   0  0  0  0  0  0  0  0  0  0  0  0
   -1.8631   -1.6026    4.6236 H   0  0  0  0  0  0  0  0  0  0  0  0
   -2.3388   -0.6713    6.0783 H   0  0  0  0  0  0  0  0  0  0  0  0
   -1.8985    0.2083    4.5677 H   0  0  0  0  0  0  0  0  0  0  0  0
   -3.8879   -2.6788    5.5113 H   0  0  0  0  0  0  0  0  0  0  0  0
   -6.3451   -1.2819    5.1106 H   0  0  0  0  0  0  0  0  0  0  0  0
   -5.8084   -2.4104    3.1530 H   0  0  0  0  0  0  0  0  0  0  0  0
   -7.2035   -4.2266    3.1286 H   0  0  0  0  0  0  0  0  0  0  0  0
   -6.6418   -5.8563    3.5853 H   0  0  0  0  0  0  0  0  0  0  0  0
   -5.9456   -5.0559    2.1257 H   0  0  0  0  0  0  0  0  0  0  0  0
   -3.3204   -4.7631    4.7675 H   0  0  0  0  0  0  0  0  0  0  0  0
   -3.6997   -5.4871    3.1541 H   0  0  0  0  0  0  0  0  0  0  0  0
   -4.4436   -6.1438    4.6557 H   0  0  0  0  0  0  0  0  0  0  0  0
   -2.8390   -3.1880    3.0298 H   0  0  0  0  0  0  0  0  0  0  0  0
   -4.8914   -3.1504    1.0286 H   0  0  0  0  0  0  0  0  0  0  0  0
   -0.7356   -1.0024   -1.0187 H   0  0  0  0  0  0  0  0  0  0  0  0
   -3.6873   -1.6537   -0.6449 H   0  0  0  0  0  0  0  0  0  0  0  0
   -3.2728   -0.4427   -1.8444 H   0  0  0  0  0  0  0  0  0  0  0  0
   -1.6512   -2.1248   -2.8890 H   0  0  0  0  0  0  0  0  0  0  0  0
   -2.1598   -3.2878   -1.6283 H   0  0  0  0  0  0  0  0  0  0  0  0
   -2.8845   -2.3221   -4.9591 H   0  0  0  0  0  0  0  0  0  0  0  0
   -3.6204   -0.9197   -4.1044 H   0  0  0  0  0  0  0  0  0  0  0  0
   -5.8903   -1.8636   -4.3731 H   0  0  0  0  0  0  0  0  0  0  0  0
   -4.3018   -1.7821   -7.0241 H   0  0  0  0  0  0  0  0  0  0  0  0
   -5.0059   -0.3674   -6.1457 H   0  0  0  0  0  0  0  0  0  0  0  0
   -6.0934   -1.6174   -6.8480 H   0  0  0  0  0  0  0  0  0  0  0  0
   -4.5362   -4.1046   -6.0175 H   0  0  0  0  0  0  0  0  0  0  0  0
   -6.2981   -3.8990   -5.6993 H   0  0  0  0  0  0  0  0  0  0  0  0
   -5.9677   -4.2266   -3.2796 H   0  0  0  0  0  0  0  0  0  0  0  0
   -6.2737   -6.2541   -4.6675 H   0  0  0  0  0  0  0  0  0  0  0  0
   -5.1918   -6.5948   -3.2700 H   0  0  0  0  0  0  0  0  0  0  0  0
   -4.4877   -6.3838   -4.9219 H   0  0  0  0  0  0  0  0  0  0  0  0
   -2.9501   -4.5567   -3.9112 H   0  0  0  0  0  0  0  0  0  0  0  0
   -3.7710   -4.7581   -2.3173 H   0  0  0  0  0  0  0  0  0  0  0  0
   -2.7478    1.0450    0.0190 H   0  0  0  0  0  0  0  0  0  0  0  0
   -1.1732    0.9228    0.8335 H   0  0  0  0  0  0  0  0  0  0  0  0
   -0.0311    1.0819   -1.4407 H   0  0  0  0  0  0  0  0  0  0  0  0
   -2.8329    1.9021   -2.3615 H   0  0  0  0  0  0  0  0  0  0  0  0
   -1.3192    2.4827   -3.1649 H   0  0  0  0  0  0  0  0  0  0  0  0
   -1.6716    0.7283   -3.0836 H   0  0  0  0  0  0  0  0  0  0  0  0
   -4.8493    3.8808    0.2339 H   0  0  0  0  0  0  0  0  0  0  0  0
   -3.6055    5.0475    0.7823 H   0  0  0  0  0  0  0  0  0  0  0  0
   -5.1888    6.0420   -0.9040 H   0  0  0  0  0  0  0  0  0  0  0  0
   -4.7760    4.7483   -2.0710 H   0  0  0  0  0  0  0  0  0  0  0  0
   -3.5792    6.7544   -2.7121 H   0  0  0  0  0  0  0  0  0  0  0  0
   -2.3739    5.5781   -2.1230 H   0  0  0  0  0  0  0  0  0  0  0  0
   -4.0141    8.9947   -1.2149 H   0  0  0  0  0  0  0  0  0  0  0  0
   -3.9902   11.1629   -0.5965 H   0  0  0  0  0  0  0  0  0  0  0  0
   -4.1462   13.4041    0.3971 H   0  0  0  0  0  0  0  0  0  0  0  0
   -2.8951   13.9200    2.4779 H   0  0  0  0  0  0  0  0  0  0  0  0
   -1.3397   10.0007    2.6099 H   0  0  0  0  0  0  0  0  0  0  0  0
    0.7470    3.8184    0.7942 H   0  0  0  0  0  0  0  0  0  0  0  0
    1.7290    2.3509   -1.7053 H   0  0  0  0  0  0  0  0  0  0  0  0
    2.8792    4.7995    0.8274 H   0  0  0  0  0  0  0  0  0  0  0  0
    4.4909    4.0856    1.0471 H   0  0  0  0  0  0  0  0  0  0  0  0
    3.0912    3.4645    2.0207 H   0  0  0  0  0  0  0  0  0  0  0  0
    3.6398    1.0932   -1.0805 H   0  0  0  0  0  0  0  0  0  0  0  0
    5.1516    1.9782    1.4816 H   0  0  0  0  0  0  0  0  0  0  0  0
    7.0179    1.0294    0.7929 H   0  0  0  0  0  0  0  0  0  0  0  0
    6.3792    1.4077   -0.8323 H   0  0  0  0  0  0  0  0  0  0  0  0
    8.1126   -0.7828    0.5087 H   0  0  0  0  0  0  0  0  0  0  0  0
   10.0110   -0.8395   -0.7126 H   0  0  0  0  0  0  0  0  0  0  0  0
   11.2438   -0.5547   -2.8204 H   0  0  0  0  0  0  0  0  0  0  0  0
    9.6875   -0.3504   -3.7248 H   0  0  0  0  0  0  0  0  0  0  0  0
   10.1743    0.8527   -2.4724 H   0  0  0  0  0  0  0  0  0  0  0  0
    9.6464   -2.6836   -3.0862 H   0  0  0  0  0  0  0  0  0  0  0  0
   10.4143   -3.1002   -0.3648 H   0  0  0  0  0  0  0  0  0  0  0  0
    7.4173   -2.9882   -2.5109 H   0  0  0  0  0  0  0  0  0  0  0  0
    9.0529   -4.9561   -3.4280 H   0  0  0  0  0  0  0  0  0  0  0  0
    8.3722   -6.3802   -2.5888 H   0  0  0  0  0  0  0  0  0  0  0  0
    7.2459   -5.1595   -3.2536 H   0  0  0  0  0  0  0  0  0  0  0  0
    6.4038   -2.9896   -0.4324 H   0  0  0  0  0  0  0  0  0  0  0  0
    7.8410   -3.6248    2.7168 H   0  0  0  0  0  0  0  0  0  0  0  0
    6.4604   -4.0078    1.6424 H   0  0  0  0  0  0  0  0  0  0  0  0
    6.8318   -2.2789    2.1014 H   0  0  0  0  0  0  0  0  0  0  0  0
  1  2  1  0
  2  3  1  0
  3  4  1  0
  4  5  1  0
  5  6  2  0
  5  7  1  0
  7  8  1  0
  8  9  1  0
  8 10  1  0
 10 11  1  0
 10 12  1  0
 12 13  1  0
 13 14  1  0
 14 15  1  0
 15 16  1  0
 16 17  1  0
 16 18  1  0
 18 19  1  0
 18 20  1  0
 20 21  1  0
 21 22  1  0
 21 23  1  0
 20 24  1  0
 24 25  1  0
 12 26  1  0
 26 27  1  0
 27 28  1  0
 28 29  1  0
 29 30  1  0
 30 31  1  0
 31 32  1  0
 31 33  1  0
 33 34  1  0
 34 35  1  0
 34 36  1  0
 26 37  1  0
 37 38  1  0
 38 39  1  0
 38 40  1  0
 40 41  2  0
 41 42  1  0
 42 43  1  0
 43 44  1  0
 44 45  1  0
 45 46  1  0
 46 47  2  0
 47 48  1  0
 48 49  1  0
 49 50  2  0
 50 51  1  0
 51 52  2  0
 52 53  1  0
 53 54  2  0
 48 55  1  0
 55 56  2  0
 40 57  1  0
 57 58  2  0
 58 59  1  0
 59 60  1  0
 59 61  2  0
 61 62  1  0
 62 63  1  0
 63 64  1  0
 64 65  1  0
 65 66  1  0
 66 67  1  0
 67 68  1  0
 67 69  1  0
 69 70  1  0
 69 71  1  0
 71 72  1  0
 72 73  1  0
 71 74  1  0
 74 75  1  0
 75 76  1  0
 62  3  1  0
 74 65  1  0
 24 14  1  0
 36 29  1  0
 56 46  1  0
 54 49  1  0
  1 77  1  0
  1 78  1  0
  1 79  1  0
  2 80  1  0
  2 81  1  0
  3 82  1  1
  7 83  1  0
  7 84  1  0
  8 85  1  6
  9 86  1  0
 10 87  1  6
 11 88  1  0
 11 89  1  0
 11 90  1  0
 12 91  1  6
 14 92  1  6
 16 93  1  1
 17 94  1  0
 17 95  1  0
 17 96  1  0
 18 97  1  1
 19 98  1  0
 20 99  1  6
 22100  1  0
 22101  1  0
 22102  1  0
 23103  1  0
 23104  1  0
 23105  1  0
 24106  1  1
 25107  1  0
 26108  1  6
 27109  1  0
 27110  1  0
 28111  1  0
 28112  1  0
 30113  1  0
 30114  1  0
 31115  1  0
 32116  1  0
 32117  1  0
 32118  1  0
 33119  1  0
 33120  1  0
 34121  1  0
 35122  1  0
 35123  1  0
 35124  1  0
 36125  1  0
 36126  1  0
 37127  1  0
 37128  1  0
 38129  1  6
 39130  1  0
 39131  1  0
 39132  1  0
 43133  1  0
 43134  1  0
 44135  1  0
 44136  1  0
 45137  1  0
 45138  1  0
 47139  1  0
 50140  1  0
 51141  1  0
 52142  1  0
 54143  1  0
 57144  1  0
 58145  1  0
 60146  1  0
 60147  1  0
 60148  1  0
 61149  1  0
 62150  1  1
 63151  1  0
 63152  1  0
 65153  1  1
 67154  1  1
 68155  1  0
 68156  1  0
 68157  1  0
 69158  1  6
 70159  1  0
 71160  1  6
 73161  1  0
 73162  1  0
 73163  1  0
 74164  1  1
 76165  1  0
 76166  1  0
 76167  1  0
M  END
$$$$
