
     RDKit          3D

 62 64  0  0  0  0  0  0  0  0999 V2000
    5.4325   -0.0547    0.0039 C   0  0  0  0  0  0  0  0  0  0  0  0
    4.0888    0.3733    0.0793 O   0  0  0  0  0  0  0  0  0  0  0  0
    3.4222   -0.2534    1.1661 C   0  0  1  0  0  0  0  0  0  0  0  0
    3.5007    0.6420    2.4232 C   0  0  0  0  0  0  0  0  0  0  0  0
    2.1840    1.3732    2.7040 C   0  0  0  0  0  0  0  0  0  0  0  0
    1.4948    1.7872    1.3817 C   0  0  2  0  0  0  0  0  0  0  0  0
    0.1646    2.4950    1.7010 C   0  0  0  0  0  0  0  0  0  0  0  0
   -0.4603    3.1645    0.4660 C   0  0  0  0  0  0  0  0  0  0  0  0
   -1.8206    3.6247    0.7686 N   0  0  0  0  0  0  0  0  0  0  0  0
   -2.0497    4.7761    1.6374 C   0  0  0  0  0  0  0  0  0  0  0  0
   -2.9513    2.9056    0.2558 C   0  0  0  0  0  0  0  0  0  0  0  0
   -3.3763    3.1613   -0.8996 O   0  0  0  0  0  0  0  0  0  0  0  0
   -3.6723    1.9008    1.1125 C   0  0  0  0  0  0  0  0  0  0  0  0
   -3.7675    0.5271    0.4285 C   0  0  0  0  0  0  0  0  0  0  0  0
   -2.4082   -0.1959    0.3807 C   0  0  0  0  0  0  0  0  0  0  0  0
   -2.2384   -0.9228   -0.8813 N   0  0  0  0  0  0  0  0  0  0  0  0
   -1.9960   -0.1834   -2.1228 C   0  0  0  0  0  0  0  0  0  0  0  0
   -2.2723   -2.3608   -0.8987 C   0  0  0  0  0  0  0  0  0  0  0  0
   -3.1500   -2.9758   -0.2374 O   0  0  0  0  0  0  0  0  0  0  0  0
   -1.2754   -3.1263   -1.6716 C   0  0  0  0  0  0  0  0  0  0  0  0
   -1.6964   -4.1786   -2.4976 C   0  0  0  0  0  0  0  0  0  0  0  0
   -0.7679   -4.8866   -3.2679 C   0  0  0  0  0  0  0  0  0  0  0  0
   -1.2090   -5.9532   -4.1292 C   0  0  0  0  0  0  0  0  0  0  0  0
   -1.5603   -6.8090   -4.8216 N   0  0  0  0  0  0  0  0  0  0  0  0
    0.5873   -4.5507   -3.2106 C   0  0  0  0  0  0  0  0  0  0  0  0
    1.0202   -3.5208   -2.3722 C   0  0  0  0  0  0  0  0  0  0  0  0
    0.0968   -2.8117   -1.5789 C   0  0  0  0  0  0  0  0  0  0  0  0
    0.5054   -1.8122   -0.6773 O   0  0  0  0  0  0  0  0  0  0  0  0
    1.8643   -1.4528   -0.4266 C   0  0  0  0  0  0  0  0  0  0  0  0
    1.9432   -0.4964    0.7716 C   0  0  2  0  0  0  0  0  0  0  0  0
    1.2640    0.7171    0.4597 O   0  0  0  0  0  0  0  0  0  0  0  0
    5.4930   -1.1406   -0.2249 H   0  0  0  0  0  0  0  0  0  0  0  0
    5.9836    0.1741    0.9403 H   0  0  0  0  0  0  0  0  0  0  0  0
    5.9318    0.4918   -0.8236 H   0  0  0  0  0  0  0  0  0  0  0  0
    3.8634   -1.2496    1.4214 H   0  0  0  0  0  0  0  0  0  0  0  0
    4.3092    1.3965    2.3099 H   0  0  0  0  0  0  0  0  0  0  0  0
    3.7596    0.0212    3.3100 H   0  0  0  0  0  0  0  0  0  0  0  0
    1.5072    0.7101    3.2871 H   0  0  0  0  0  0  0  0  0  0  0  0
    2.3960    2.2706    3.3261 H   0  0  0  0  0  0  0  0  0  0  0  0
    2.1593    2.5265    0.8794 H   0  0  0  0  0  0  0  0  0  0  0  0
   -0.5458    1.7591    2.1330 H   0  0  0  0  0  0  0  0  0  0  0  0
    0.3400    3.2804    2.4704 H   0  0  0  0  0  0  0  0  0  0  0  0
   -0.4810    2.4538   -0.3905 H   0  0  0  0  0  0  0  0  0  0  0  0
    0.1634    4.0290    0.1534 H   0  0  0  0  0  0  0  0  0  0  0  0
   -1.0908    5.2558    1.9253 H   0  0  0  0  0  0  0  0  0  0  0  0
   -2.5717    4.4490    2.5580 H   0  0  0  0  0  0  0  0  0  0  0  0
   -2.6696    5.5296    1.1103 H   0  0  0  0  0  0  0  0  0  0  0  0
   -4.6979    2.2795    1.3055 H   0  0  0  0  0  0  0  0  0  0  0  0
   -3.1625    1.7969    2.0969 H   0  0  0  0  0  0  0  0  0  0  0  0
   -4.4853   -0.1030    0.9963 H   0  0  0  0  0  0  0  0  0  0  0  0
   -4.1930    0.6513   -0.5902 H   0  0  0  0  0  0  0  0  0  0  0  0
   -1.5659    0.5140    0.4812 H   0  0  0  0  0  0  0  0  0  0  0  0
   -2.3279   -0.8880    1.2485 H   0  0  0  0  0  0  0  0  0  0  0  0
   -2.7616   -0.4571   -2.8774 H   0  0  0  0  0  0  0  0  0  0  0  0
   -0.9894   -0.4154   -2.5207 H   0  0  0  0  0  0  0  0  0  0  0  0
   -2.0492    0.9130   -1.9519 H   0  0  0  0  0  0  0  0  0  0  0  0
   -2.7481   -4.4326   -2.5584 H   0  0  0  0  0  0  0  0  0  0  0  0
    1.3098   -5.0931   -3.8078 H   0  0  0  0  0  0  0  0  0  0  0  0
    2.0764   -3.2904   -2.3436 H   0  0  0  0  0  0  0  0  0  0  0  0
    2.4473   -2.3705   -0.1938 H   0  0  0  0  0  0  0  0  0  0  0  0
    2.2882   -0.9681   -1.3300 H   0  0  0  0  0  0  0  0  0  0  0  0
    1.4145   -0.9964    1.6132 H   0  0  0  0  0  0  0  0  0  0  0  0
  1  2  1  0
  2  3  1  0
  3  4  1  0
  4  5  1  0
  5  6  1  0
  6  7  1  0
  7  8  1  0
  8  9  1  0
  9 10  1  0
  9 11  1  0
 11 12  2  0
 11 13  1  0
 13 14  1  0
 14 15  1  0
 15 16  1  0
 16 17  1  0
 16 18  1  0
 18 19  2  0
 18 20  1  0
 20 21  2  0
 21 22  1  0
 22 23  1  0
 23 24  3  0
 22 25  2  0
 25 26  1  0
 26 27  2  0
 27 28  1  0
 28 29  1  0
 29 30  1  0
 30 31  1  0
 30  3  1  0
 31  6  1  0
 27 20  1  0
  1 32  1  0
  1 33  1  0
  1 34  1  0
  3 35  1  1
  4 36  1  0
  4 37  1  0
  5 38  1  0
  5 39  1  0
  6 40  1  6
  7 41  1  0
  7 42  1  0
  8 43  1  0
  8 44  1  0
 10 45  1  0
 10 46  1  0
 10 47  1  0
 13 48  1  0
 13 49  1  0
 14 50  1  0
 14 51  1  0
 15 52  1  0
 15 53  1  0
 17 54  1  0
 17 55  1  0
 17 56  1  0
 21 57  1  0
 25 58  1  0
 26 59  1  0
 29 60  1  0
 29 61  1  0
 30 62  1  1
M  END
$$$$
