
     RDKit          3D

 78 79  0  0  0  0  0  0  0  0999 V2000
   -2.7811   -1.8403   -2.4499 C   0  0  0  0  0  0  0  0  0  0  0  0
   -3.9680   -2.2589   -1.5697 C   0  0  0  0  0  0  0  0  0  0  0  0
   -3.7033   -3.6150   -0.9034 C   0  0  0  0  0  0  0  0  0  0  0  0
   -4.3812   -1.1556   -0.5625 C   0  0  0  0  0  0  0  0  0  0  0  0
   -3.3513   -0.8575    0.5567 C   0  0  2  0  0  0  0  0  0  0  0  0
   -3.4327   -1.8887    1.6013 N   0  0  0  0  0  0  0  0  0  0  0  0
   -2.3271   -2.3643    2.3909 C   0  0  0  0  0  0  0  0  0  0  0  0
   -2.5575   -2.7577    3.5684 O   0  0  0  0  0  0  0  0  0  0  0  0
   -0.9109   -2.4730    1.8577 C   0  0  2  0  0  0  0  0  0  0  0  0
   -0.4364   -3.9299    1.9633 C   0  0  0  0  0  0  0  0  0  0  0  0
   -0.0212   -1.5957    2.6297 N   0  0  0  0  0  0  0  0  0  0  0  0
    1.3697   -1.3863    2.3332 C   0  0  0  0  0  0  0  0  0  0  0  0
    2.1409   -1.0687    3.2800 O   0  0  0  0  0  0  0  0  0  0  0  0
    1.9105   -1.4069    0.9100 C   0  0  2  0  0  0  0  0  0  0  0  0
    3.3856   -1.8600    0.8676 C   0  0  0  0  0  0  0  0  0  0  0  0
    3.8958   -1.9462   -0.5480 C   0  0  0  0  0  0  0  0  0  0  0  0
    3.6491   -3.0930   -1.3215 C   0  0  0  0  0  0  0  0  0  0  0  0
    4.1073   -3.1638   -2.6416 C   0  0  0  0  0  0  0  0  0  0  0  0
    4.8038   -2.0883   -3.2014 C   0  0  0  0  0  0  0  0  0  0  0  0
    5.0381   -0.9374   -2.4432 C   0  0  0  0  0  0  0  0  0  0  0  0
    4.5845   -0.8637   -1.1221 C   0  0  0  0  0  0  0  0  0  0  0  0
    1.7333   -0.1124    0.2148 N   0  0  0  0  0  0  0  0  0  0  0  0
    2.0826    1.0628    1.0283 C   0  0  0  0  0  0  0  0  0  0  0  0
    2.2554    2.2950    0.1355 C   0  0  0  0  0  0  0  0  0  0  0  0
    2.4068    3.5640    0.9932 C   0  0  0  0  0  0  0  0  0  0  0  0
    2.3429    4.8624    0.1659 C   0  0  0  0  0  0  0  0  0  0  0  0
    0.9573    5.5460    0.1806 C   0  0  0  0  0  0  0  0  0  0  0  0
   -0.0729    4.8946   -0.7624 C   0  0  0  0  0  0  0  0  0  0  0  0
   -0.9948    3.8916   -0.0466 C   0  0  0  0  0  0  0  0  0  0  0  0
   -1.8797    3.1353   -1.0571 C   0  0  0  0  0  0  0  0  0  0  0  0
   -2.2268    1.7149   -0.5951 C   0  0  0  0  0  0  0  0  0  0  0  0
   -3.0856    1.7108    0.5913 N   0  0  0  0  0  0  0  0  0  0  0  0
   -3.6272    0.5053    1.1586 C   0  0  0  0  0  0  0  0  0  0  0  0
   -4.4019    0.5982    2.1492 O   0  0  0  0  0  0  0  0  0  0  0  0
   -2.6293   -2.5879   -3.2572 H   0  0  0  0  0  0  0  0  0  0  0  0
   -2.9829   -0.8581   -2.9271 H   0  0  0  0  0  0  0  0  0  0  0  0
   -1.8415   -1.7734   -1.8645 H   0  0  0  0  0  0  0  0  0  0  0  0
   -4.8363   -2.4015   -2.2508 H   0  0  0  0  0  0  0  0  0  0  0  0
   -3.6243   -4.4064   -1.6798 H   0  0  0  0  0  0  0  0  0  0  0  0
   -2.7528   -3.5980   -0.3301 H   0  0  0  0  0  0  0  0  0  0  0  0
   -4.5391   -3.8814   -0.2216 H   0  0  0  0  0  0  0  0  0  0  0  0
   -5.3536   -1.4369   -0.1006 H   0  0  0  0  0  0  0  0  0  0  0  0
   -4.5854   -0.2305   -1.1447 H   0  0  0  0  0  0  0  0  0  0  0  0
   -2.3436   -0.8336    0.1196 H   0  0  0  0  0  0  0  0  0  0  0  0
   -4.3854   -2.1122    1.9705 H   0  0  0  0  0  0  0  0  0  0  0  0
   -0.8738   -2.1912    0.7900 H   0  0  0  0  0  0  0  0  0  0  0  0
   -1.1463   -4.6037    1.4361 H   0  0  0  0  0  0  0  0  0  0  0  0
    0.5631   -4.0519    1.4964 H   0  0  0  0  0  0  0  0  0  0  0  0
   -0.3633   -4.2412    3.0286 H   0  0  0  0  0  0  0  0  0  0  0  0
   -0.3609   -1.2201    3.5455 H   0  0  0  0  0  0  0  0  0  0  0  0
    1.3500   -2.1726    0.3363 H   0  0  0  0  0  0  0  0  0  0  0  0
    4.0288   -1.1724    1.4569 H   0  0  0  0  0  0  0  0  0  0  0  0
    3.4725   -2.8610    1.3457 H   0  0  0  0  0  0  0  0  0  0  0  0
    3.1050   -3.9309   -0.9025 H   0  0  0  0  0  0  0  0  0  0  0  0
    3.9200   -4.0522   -3.2312 H   0  0  0  0  0  0  0  0  0  0  0  0
    5.1580   -2.1455   -4.2235 H   0  0  0  0  0  0  0  0  0  0  0  0
    5.5703   -0.1020   -2.8794 H   0  0  0  0  0  0  0  0  0  0  0  0
    4.7702    0.0348   -0.5474 H   0  0  0  0  0  0  0  0  0  0  0  0
    0.7279   -0.0288   -0.0645 H   0  0  0  0  0  0  0  0  0  0  0  0
    1.2724    1.2557    1.7682 H   0  0  0  0  0  0  0  0  0  0  0  0
    3.0339    0.8971    1.5770 H   0  0  0  0  0  0  0  0  0  0  0  0
    3.1619    2.1668   -0.4957 H   0  0  0  0  0  0  0  0  0  0  0  0
    1.3875    2.3803   -0.5480 H   0  0  0  0  0  0  0  0  0  0  0  0
    3.3969    3.5127    1.4995 H   0  0  0  0  0  0  0  0  0  0  0  0
    1.6415    3.5886    1.7990 H   0  0  0  0  0  0  0  0  0  0  0  0
    3.0647    5.5807    0.6162 H   0  0  0  0  0  0  0  0  0  0  0  0
    2.6882    4.6920   -0.8786 H   0  0  0  0  0  0  0  0  0  0  0  0
    1.1088    6.5930   -0.1639 H   0  0  0  0  0  0  0  0  0  0  0  0
    0.5642    5.6170    1.2193 H   0  0  0  0  0  0  0  0  0  0  0  0
    0.4496    4.4092   -1.6162 H   0  0  0  0  0  0  0  0  0  0  0  0
   -0.7159    5.6952   -1.1929 H   0  0  0  0  0  0  0  0  0  0  0  0
   -1.6467    4.4413    0.6654 H   0  0  0  0  0  0  0  0  0  0  0  0
   -0.3978    3.1793    0.5537 H   0  0  0  0  0  0  0  0  0  0  0  0
   -2.8119    3.7101   -1.2460 H   0  0  0  0  0  0  0  0  0  0  0  0
   -1.3533    3.0364   -2.0314 H   0  0  0  0  0  0  0  0  0  0  0  0
   -1.2893    1.1600   -0.3819 H   0  0  0  0  0  0  0  0  0  0  0  0
   -2.7520    1.2060   -1.4297 H   0  0  0  0  0  0  0  0  0  0  0  0
   -3.3537    2.6194    1.0334 H   0  0  0  0  0  0  0  0  0  0  0  0
  1  2  1  0
  2  3  1  0
  2  4  1  0
  4  5  1  0
  5  6  1  0
  6  7  1  0
  7  8  2  0
  7  9  1  0
  9 10  1  0
  9 11  1  0
 11 12  1  0
 12 13  2  0
 12 14  1  0
 14 15  1  0
 15 16  1  0
 16 17  2  0
 17 18  1  0
 18 19  2  0
 19 20  1  0
 20 21  2  0
 14 22  1  0
 22 23  1  0
 23 24  1  0
 24 25  1  0
 25 26  1  0
 26 27  1  0
 27 28  1  0
 28 29  1  0
 29 30  1  0
 30 31  1  0
 31 32  1  0
 32 33  1  0
 33 34  2  0
 33  5  1  0
 21 16  1  0
  1 35  1  0
  1 36  1  0
  1 37  1  0
  2 38  1  0
  3 39  1  0
  3 40  1  0
  3 41  1  0
  4 42  1  0
  4 43  1  0
  5 44  1  6
  6 45  1  0
  9 46  1  6
 10 47  1  0
 10 48  1  0
 10 49  1  0
 11 50  1  0
 14 51  1  6
 15 52  1  0
 15 53  1  0
 17 54  1  0
 18 55  1  0
 19 56  1  0
 20 57  1  0
 21 58  1  0
 22 59  1  0
 23 60  1  0
 23 61  1  0
 24 62  1  0
 24 63  1  0
 25 64  1  0
 25 65  1  0
 26 66  1  0
 26 67  1  0
 27 68  1  0
 27 69  1  0
 28 70  1  0
 28 71  1  0
 29 72  1  0
 29 73  1  0
 30 74  1  0
 30 75  1  0
 31 76  1  0
 31 77  1  0
 32 78  1  0
M  END
$$$$
