
     RDKit          3D

 65 69  0  0  0  0  0  0  0  0999 V2000
    6.6537   -3.6134    0.4279 C   0  0  0  0  0  0  0  0  0  0  0  0
    6.0007   -2.8362    1.4265 O   0  0  0  0  0  0  0  0  0  0  0  0
    4.9025   -1.9966    1.1868 C   0  0  0  0  0  0  0  0  0  0  0  0
    4.3581   -1.2971    2.2627 C   0  0  0  0  0  0  0  0  0  0  0  0
    3.2702   -0.4462    2.0771 C   0  0  0  0  0  0  0  0  0  0  0  0
    2.6948   -0.2741    0.8065 C   0  0  0  0  0  0  0  0  0  0  0  0
    3.2280   -0.9958   -0.2970 C   0  0  0  0  0  0  0  0  0  0  0  0
    4.3357   -1.8405   -0.0898 C   0  0  0  0  0  0  0  0  0  0  0  0
    2.6443   -0.9396   -1.6960 C   0  0  0  0  0  0  0  0  0  0  0  0
    1.9101   -2.2402   -2.0702 C   0  0  0  0  0  0  0  0  0  0  0  0
    0.4763   -2.1996   -1.6193 C   0  0  0  0  0  0  0  0  0  0  0  0
   -0.5114   -1.6864   -2.4751 C   0  0  0  0  0  0  0  0  0  0  0  0
   -1.8199   -1.5218   -2.0193 C   0  0  0  0  0  0  0  0  0  0  0  0
   -2.1447   -1.8317   -0.6920 C   0  0  0  0  0  0  0  0  0  0  0  0
   -1.1814   -2.4077    0.1429 C   0  0  0  0  0  0  0  0  0  0  0  0
    0.1288   -2.5803   -0.3135 C   0  0  0  0  0  0  0  0  0  0  0  0
   -3.4071   -1.5215   -0.1778 O   0  0  0  0  0  0  0  0  0  0  0  0
   -3.8897   -0.2069   -0.0478 C   0  0  0  0  0  0  0  0  0  0  0  0
   -3.0982    0.9094   -0.3827 C   0  0  0  0  0  0  0  0  0  0  0  0
   -3.5480    2.2109   -0.1375 C   0  0  0  0  0  0  0  0  0  0  0  0
   -4.8231    2.4018    0.4112 C   0  0  0  0  0  0  0  0  0  0  0  0
   -5.6380    1.3041    0.7007 C   0  0  0  0  0  0  0  0  0  0  0  0
   -5.1744   -0.0082    0.4800 C   0  0  0  0  0  0  0  0  0  0  0  0
   -5.9523   -1.1359    0.7859 O   0  0  0  0  0  0  0  0  0  0  0  0
   -7.2678   -1.0845    1.3281 C   0  0  0  0  0  0  0  0  0  0  0  0
   -2.6353    3.3841   -0.3995 C   0  0  0  0  0  0  0  0  0  0  0  0
   -1.6371    3.6019    0.7500 C   0  0  0  0  0  0  0  0  0  0  0  0
   -0.5157    2.5881    0.7382 C   0  0  0  0  0  0  0  0  0  0  0  0
   -0.6078    1.4196    1.5064 C   0  0  0  0  0  0  0  0  0  0  0  0
    0.4151    0.4717    1.4748 C   0  0  0  0  0  0  0  0  0  0  0  0
    1.5632    0.6812    0.6936 C   0  0  0  0  0  0  0  0  0  0  0  0
    1.6839    1.8691   -0.0570 C   0  0  0  0  0  0  0  0  0  0  0  0
    2.8714    2.1022   -0.7711 O   0  0  0  0  0  0  0  0  0  0  0  0
    3.1143    3.2434   -1.5865 C   0  0  0  0  0  0  0  0  0  0  0  0
    0.6236    2.7998   -0.0545 C   0  0  0  0  0  0  0  0  0  0  0  0
    7.0735   -2.9505   -0.3580 H   0  0  0  0  0  0  0  0  0  0  0  0
    5.9396   -4.3355   -0.0216 H   0  0  0  0  0  0  0  0  0  0  0  0
    7.4846   -4.1802    0.8955 H   0  0  0  0  0  0  0  0  0  0  0  0
    4.7856   -1.4091    3.2512 H   0  0  0  0  0  0  0  0  0  0  0  0
    2.8814    0.0954    2.9315 H   0  0  0  0  0  0  0  0  0  0  0  0
    4.7449   -2.3834   -0.9317 H   0  0  0  0  0  0  0  0  0  0  0  0
    1.9677   -0.0747   -1.8428 H   0  0  0  0  0  0  0  0  0  0  0  0
    3.4815   -0.7892   -2.4122 H   0  0  0  0  0  0  0  0  0  0  0  0
    2.4215   -3.1310   -1.6447 H   0  0  0  0  0  0  0  0  0  0  0  0
    1.9430   -2.3630   -3.1751 H   0  0  0  0  0  0  0  0  0  0  0  0
   -0.2608   -1.3825   -3.4839 H   0  0  0  0  0  0  0  0  0  0  0  0
   -2.5669   -1.0942   -2.6759 H   0  0  0  0  0  0  0  0  0  0  0  0
   -1.4314   -2.6594    1.1655 H   0  0  0  0  0  0  0  0  0  0  0  0
    0.8802   -2.9707    0.3618 H   0  0  0  0  0  0  0  0  0  0  0  0
   -2.1059    0.7789   -0.7887 H   0  0  0  0  0  0  0  0  0  0  0  0
   -5.1866    3.4009    0.6178 H   0  0  0  0  0  0  0  0  0  0  0  0
   -6.6199    1.4863    1.1155 H   0  0  0  0  0  0  0  0  0  0  0  0
   -7.2545   -0.5760    2.3152 H   0  0  0  0  0  0  0  0  0  0  0  0
   -7.6432   -2.1190    1.4668 H   0  0  0  0  0  0  0  0  0  0  0  0
   -7.9473   -0.5501    0.6313 H   0  0  0  0  0  0  0  0  0  0  0  0
   -2.0889    3.2359   -1.3571 H   0  0  0  0  0  0  0  0  0  0  0  0
   -3.2428    4.3073   -0.5223 H   0  0  0  0  0  0  0  0  0  0  0  0
   -1.2031    4.6212    0.6544 H   0  0  0  0  0  0  0  0  0  0  0  0
   -2.1715    3.5795    1.7255 H   0  0  0  0  0  0  0  0  0  0  0  0
   -1.4789    1.2371    2.1235 H   0  0  0  0  0  0  0  0  0  0  0  0
    0.3224   -0.4223    2.0795 H   0  0  0  0  0  0  0  0  0  0  0  0
    4.1248    3.1584   -2.0356 H   0  0  0  0  0  0  0  0  0  0  0  0
    2.3650    3.2937   -2.4045 H   0  0  0  0  0  0  0  0  0  0  0  0
    3.0748    4.1674   -0.9719 H   0  0  0  0  0  0  0  0  0  0  0  0
    0.6882    3.7055   -0.6425 H   0  0  0  0  0  0  0  0  0  0  0  0
  1  2  1  0
  2  3  1  0
  3  4  2  0
  4  5  1  0
  5  6  2  0
  6  7  1  0
  7  8  2  0
  7  9  1  0
  9 10  1  0
 10 11  1  0
 11 12  2  0
 12 13  1  0
 13 14  2  0
 14 15  1  0
 15 16  2  0
 14 17  1  0
 17 18  1  0
 18 19  2  0
 19 20  1  0
 20 21  2  0
 21 22  1  0
 22 23  2  0
 23 24  1  0
 24 25  1  0
 20 26  1  0
 26 27  1  0
 27 28  1  0
 28 29  2  0
 29 30  1  0
 30 31  2  0
 31 32  1  0
 32 33  1  0
 33 34  1  0
 32 35  2  0
  8  3  1  0
 16 11  1  0
 23 18  1  0
 35 28  1  0
 31  6  1  0
  1 36  1  0
  1 37  1  0
  1 38  1  0
  4 39  1  0
  5 40  1  0
  8 41  1  0
  9 42  1  0
  9 43  1  0
 10 44  1  0
 10 45  1  0
 12 46  1  0
 13 47  1  0
 15 48  1  0
 16 49  1  0
 19 50  1  0
 21 51  1  0
 22 52  1  0
 25 53  1  0
 25 54  1  0
 25 55  1  0
 26 56  1  0
 26 57  1  0
 27 58  1  0
 27 59  1  0
 29 60  1  0
 30 61  1  0
 34 62  1  0
 34 63  1  0
 34 64  1  0
 35 65  1  0
M  END
$$$$
