
     RDKit          3D

 70 74  0  0  0  0  0  0  0  0999 V2000
    3.7616    2.0862   -1.5743 C   0  0  0  0  0  0  0  0  0  0  0  0
    4.5940    1.1690   -0.7363 C   0  0  0  0  0  0  0  0  0  0  0  0
    5.7453    1.5330   -0.2102 O   0  0  0  0  0  0  0  0  0  0  0  0
    6.2429    0.5082    0.4404 C   0  0  0  0  0  0  0  0  0  0  0  0
    5.4108   -0.5822    0.3262 C   0  0  0  0  0  0  0  0  0  0  0  0
    4.3166   -0.1555   -0.4033 C   0  0  0  0  0  0  0  0  0  0  0  0
    3.1325   -0.9557   -0.7714 C   0  0  0  0  0  0  0  0  0  0  0  0
    3.2837   -2.1621   -1.1026 O   0  0  0  0  0  0  0  0  0  0  0  0
    1.8174   -0.3806   -0.7733 N   0  0  0  0  0  0  0  0  0  0  0  0
    1.3695    0.4549    0.3487 C   0  0  0  0  0  0  0  0  0  0  0  0
   -0.0653    0.0710    0.7225 C   0  0  0  0  0  0  0  0  0  0  0  0
   -1.0881    0.2489   -0.4662 C   0  0  0  0  0  0  0  0  0  0  0  0
   -1.7691    1.6545   -0.2574 C   0  0  0  0  0  0  0  0  0  0  0  0
   -2.5091    2.2651   -1.4784 C   0  0  0  0  0  0  0  0  0  0  0  0
   -3.6246    3.2821   -1.0937 C   0  0  0  0  0  0  0  0  0  0  0  0
   -4.7718    2.7492   -0.1909 C   0  0  0  0  0  0  0  0  0  0  0  0
   -5.1619    1.3228   -0.5562 C   0  0  0  0  0  0  0  0  0  0  0  0
   -6.0117    0.7059    0.3986 O   0  0  0  0  0  0  0  0  0  0  0  0
   -5.8363   -0.6164    0.8677 C   0  0  0  0  0  0  0  0  0  0  0  0
   -6.4449   -0.9261    2.0913 C   0  0  0  0  0  0  0  0  0  0  0  0
   -6.2927   -2.1833    2.6745 C   0  0  0  0  0  0  0  0  0  0  0  0
   -5.5352   -3.1626    2.0364 C   0  0  0  0  0  0  0  0  0  0  0  0
   -5.3593   -4.7483    2.7672 Cl  0  0  0  0  0  0  0  0  0  0  0  0
   -4.9331   -2.8906    0.8077 C   0  0  0  0  0  0  0  0  0  0  0  0
   -5.0702   -1.6321    0.2020 C   0  0  0  0  0  0  0  0  0  0  0  0
   -4.4927   -1.4902   -1.1596 C   0  0  0  0  0  0  0  0  0  0  0  0
   -5.2190   -1.7796   -2.1491 O   0  0  0  0  0  0  0  0  0  0  0  0
   -3.1306   -1.0541   -1.3910 N   0  0  0  0  0  0  0  0  0  0  0  0
   -2.1168   -0.9461   -0.3306 C   0  0  0  0  0  0  0  0  0  0  0  0
   -0.3253    0.2174   -1.8372 C   0  0  0  0  0  0  0  0  0  0  0  0
    0.8712   -0.7433   -1.8348 C   0  0  0  0  0  0  0  0  0  0  0  0
    5.6352   -1.8831    1.0425 C   0  0  0  0  0  0  0  0  0  0  0  0
    7.1060   -2.0037    1.4892 C   0  0  0  0  0  0  0  0  0  0  0  0
    7.6138   -0.7019    2.1450 C   0  0  0  0  0  0  0  0  0  0  0  0
    7.5529    0.4883    1.1677 C   0  0  0  0  0  0  0  0  0  0  0  0
    3.0849    1.5130   -2.2408 H   0  0  0  0  0  0  0  0  0  0  0  0
    3.1641    2.7539   -0.9222 H   0  0  0  0  0  0  0  0  0  0  0  0
    4.4293    2.7088   -2.2047 H   0  0  0  0  0  0  0  0  0  0  0  0
    2.0239    0.3031    1.2357 H   0  0  0  0  0  0  0  0  0  0  0  0
    1.4090    1.5277    0.0668 H   0  0  0  0  0  0  0  0  0  0  0  0
   -0.3756    0.6520    1.6189 H   0  0  0  0  0  0  0  0  0  0  0  0
   -0.0241   -0.9869    1.0670 H   0  0  0  0  0  0  0  0  0  0  0  0
   -2.4350    1.5903    0.6269 H   0  0  0  0  0  0  0  0  0  0  0  0
   -0.9909    2.3964    0.0299 H   0  0  0  0  0  0  0  0  0  0  0  0
   -1.7653    2.8020   -2.1071 H   0  0  0  0  0  0  0  0  0  0  0  0
   -2.9321    1.4788   -2.1356 H   0  0  0  0  0  0  0  0  0  0  0  0
   -4.0746    3.6624   -2.0369 H   0  0  0  0  0  0  0  0  0  0  0  0
   -3.1585    4.1546   -0.5875 H   0  0  0  0  0  0  0  0  0  0  0  0
   -5.6576    3.4135   -0.2784 H   0  0  0  0  0  0  0  0  0  0  0  0
   -4.4389    2.7724    0.8665 H   0  0  0  0  0  0  0  0  0  0  0  0
   -4.2264    0.8015   -0.4841 H   0  0  0  0  0  0  0  0  0  0  0  0
   -5.5866    1.2485   -1.5799 H   0  0  0  0  0  0  0  0  0  0  0  0
   -7.0273   -0.1752    2.6082 H   0  0  0  0  0  0  0  0  0  0  0  0
   -6.7629   -2.3925    3.6265 H   0  0  0  0  0  0  0  0  0  0  0  0
   -4.3699   -3.6701    0.3108 H   0  0  0  0  0  0  0  0  0  0  0  0
   -2.8207   -1.0595   -2.3835 H   0  0  0  0  0  0  0  0  0  0  0  0
   -2.6112   -0.8655    0.6590 H   0  0  0  0  0  0  0  0  0  0  0  0
   -1.5603   -1.9060   -0.3231 H   0  0  0  0  0  0  0  0  0  0  0  0
   -0.9851   -0.0215   -2.6903 H   0  0  0  0  0  0  0  0  0  0  0  0
    0.0814    1.2294   -2.0577 H   0  0  0  0  0  0  0  0  0  0  0  0
    0.5219   -1.7876   -1.6871 H   0  0  0  0  0  0  0  0  0  0  0  0
    1.3813   -0.6776   -2.8199 H   0  0  0  0  0  0  0  0  0  0  0  0
    5.3851   -2.7364    0.3792 H   0  0  0  0  0  0  0  0  0  0  0  0
    4.9715   -1.9193    1.9325 H   0  0  0  0  0  0  0  0  0  0  0  0
    7.7434   -2.2426    0.6086 H   0  0  0  0  0  0  0  0  0  0  0  0
    7.1997   -2.8397    2.2136 H   0  0  0  0  0  0  0  0  0  0  0  0
    8.6629   -0.8455    2.4838 H   0  0  0  0  0  0  0  0  0  0  0  0
    6.9945   -0.4755    3.0414 H   0  0  0  0  0  0  0  0  0  0  0  0
    8.3706    0.3951    0.4208 H   0  0  0  0  0  0  0  0  0  0  0  0
    7.6837    1.4390    1.7278 H   0  0  0  0  0  0  0  0  0  0  0  0
  1  2  1  0
  2  3  1  0
  3  4  1  0
  4  5  2  0
  5  6  1  0
  6  7  1  0
  7  8  2  0
  7  9  1  0
  9 10  1  0
 10 11  1  0
 11 12  1  0
 12 13  1  0
 13 14  1  0
 14 15  1  0
 15 16  1  0
 16 17  1  0
 17 18  1  0
 18 19  1  0
 19 20  2  0
 20 21  1  0
 21 22  2  0
 22 23  1  0
 22 24  1  0
 24 25  2  0
 25 26  1  0
 26 27  2  0
 26 28  1  0
 28 29  1  0
 12 30  1  0
 30 31  1  0
  5 32  1  0
 32 33  1  0
 33 34  1  0
 34 35  1  0
  6  2  2  0
 31  9  1  0
 35  4  1  0
 29 12  1  0
 25 19  1  0
  1 36  1  0
  1 37  1  0
  1 38  1  0
 10 39  1  0
 10 40  1  0
 11 41  1  0
 11 42  1  0
 13 43  1  0
 13 44  1  0
 14 45  1  0
 14 46  1  0
 15 47  1  0
 15 48  1  0
 16 49  1  0
 16 50  1  0
 17 51  1  0
 17 52  1  0
 20 53  1  0
 21 54  1  0
 24 55  1  0
 28 56  1  0
 29 57  1  0
 29 58  1  0
 30 59  1  0
 30 60  1  0
 31 61  1  0
 31 62  1  0
 32 63  1  0
 32 64  1  0
 33 65  1  0
 33 66  1  0
 34 67  1  0
 34 68  1  0
 35 69  1  0
 35 70  1  0
M  END
$$$$
