
     RDKit          3D

 79 82  0  0  0  0  0  0  0  0999 V2000
    8.7165   -2.0704    3.4766 N   0  0  0  0  0  0  0  0  0  0  0  0
    9.3930   -1.9307    1.8921 S   0  0  0  0  0  6  0  0  0  0  0  0
    9.6704   -3.3013    1.3407 O   0  0  0  0  0  0  0  0  0  0  0  0
   10.6865   -1.1672    1.9661 O   0  0  0  0  0  0  0  0  0  0  0  0
    8.2557   -1.0933    0.8403 C   0  0  0  0  0  0  0  0  0  0  0  0
    7.1832   -1.7915    0.2718 C   0  0  0  0  0  0  0  0  0  0  0  0
    6.2773   -1.1340   -0.5654 C   0  0  0  0  0  0  0  0  0  0  0  0
    6.4397    0.2318   -0.8473 C   0  0  0  0  0  0  0  0  0  0  0  0
    5.4553    0.9506   -1.7324 C   0  0  0  0  0  0  0  0  0  0  0  0
    4.3309    1.5878   -0.9101 C   0  0  0  0  0  0  0  0  0  0  0  0
    3.4907    0.5546   -0.3025 N   0  0  0  0  0  0  0  0  0  0  0  0
    3.0692    0.6022    1.0692 C   0  0  0  0  0  0  0  0  0  0  0  0
    3.5646    1.4462    1.8640 O   0  0  0  0  0  0  0  0  0  0  0  0
    1.9916   -0.3172    1.5539 C   0  0  0  0  0  0  0  0  0  0  0  0
    0.6458    0.2954    1.2858 C   0  0  0  0  0  0  0  0  0  0  0  0
    0.0590    1.1431    2.2293 C   0  0  0  0  0  0  0  0  0  0  0  0
   -1.1591    1.7588    1.9567 C   0  0  0  0  0  0  0  0  0  0  0  0
   -1.8317    1.5351    0.7493 C   0  0  0  0  0  0  0  0  0  0  0  0
   -1.2383    0.6808   -0.2318 C   0  0  0  0  0  0  0  0  0  0  0  0
    0.0077    0.0886    0.0555 C   0  0  0  0  0  0  0  0  0  0  0  0
   -1.8082    0.4540   -1.6247 C   0  0  0  0  0  0  0  0  0  0  0  0
   -2.9312   -0.5242   -1.6564 N   0  0  0  0  0  0  0  0  0  0  0  0
   -2.5136   -1.8618   -1.1520 C   0  0  0  0  0  0  0  0  0  0  0  0
   -2.9209   -2.0384    0.2885 C   0  0  0  0  0  0  0  0  0  0  0  0
   -1.9563   -2.2519    1.2880 C   0  0  0  0  0  0  0  0  0  0  0  0
   -2.3445   -2.3942    2.6233 C   0  0  0  0  0  0  0  0  0  0  0  0
   -3.6979   -2.3472    2.9686 C   0  0  0  0  0  0  0  0  0  0  0  0
   -4.6660   -2.1735    1.9763 C   0  0  0  0  0  0  0  0  0  0  0  0
   -4.2812   -2.0331    0.6396 C   0  0  0  0  0  0  0  0  0  0  0  0
   -3.4711   -0.6708   -3.0330 C   0  0  0  0  0  0  0  0  0  0  0  0
   -4.0045    0.6194   -3.6119 C   0  0  0  0  0  0  0  0  0  0  0  0
   -3.2872    1.2423   -4.4418 O   0  0  0  0  0  0  0  0  0  0  0  0
   -5.2919    1.1631   -3.2678 N   0  0  0  0  0  0  0  0  0  0  0  0
   -6.2280    0.5601   -2.3161 C   0  0  0  0  0  0  0  0  0  0  0  0
   -6.9883    1.6525   -1.5233 C   0  0  0  0  0  0  0  0  0  0  0  0
   -6.7459    1.6089    0.0005 C   0  0  0  0  0  0  0  0  0  0  0  0
   -5.4722    2.3494    0.4525 C   0  0  0  0  0  0  0  0  0  0  0  0
   -4.2037    1.6574   -0.0322 C   0  0  0  0  0  0  0  0  0  0  0  0
   -3.0573    2.2070    0.5961 O   0  0  0  0  0  0  0  0  0  0  0  0
    7.5035    0.9350   -0.2577 C   0  0  0  0  0  0  0  0  0  0  0  0
    8.4078    0.2748    0.5785 C   0  0  0  0  0  0  0  0  0  0  0  0
    9.4371   -2.5315    4.0774 H   0  0  0  0  0  0  0  0  0  0  0  0
    8.5968   -1.1006    3.8445 H   0  0  0  0  0  0  0  0  0  0  0  0
    7.0468   -2.8444    0.4788 H   0  0  0  0  0  0  0  0  0  0  0  0
    5.4512   -1.6892   -0.9921 H   0  0  0  0  0  0  0  0  0  0  0  0
    5.9813    1.7493   -2.3001 H   0  0  0  0  0  0  0  0  0  0  0  0
    5.0248    0.2504   -2.4834 H   0  0  0  0  0  0  0  0  0  0  0  0
    3.6996    2.2102   -1.5808 H   0  0  0  0  0  0  0  0  0  0  0  0
    4.7717    2.2597   -0.1411 H   0  0  0  0  0  0  0  0  0  0  0  0
    3.0583   -0.1594   -0.9326 H   0  0  0  0  0  0  0  0  0  0  0  0
    2.0757   -1.2987    1.0416 H   0  0  0  0  0  0  0  0  0  0  0  0
    2.1217   -0.5086    2.6414 H   0  0  0  0  0  0  0  0  0  0  0  0
    0.5518    1.3383    3.1731 H   0  0  0  0  0  0  0  0  0  0  0  0
   -1.5951    2.4157    2.6994 H   0  0  0  0  0  0  0  0  0  0  0  0
    0.4889   -0.5412   -0.6848 H   0  0  0  0  0  0  0  0  0  0  0  0
   -2.1273    1.4424   -2.0097 H   0  0  0  0  0  0  0  0  0  0  0  0
   -1.0050    0.1238   -2.3230 H   0  0  0  0  0  0  0  0  0  0  0  0
   -2.9999   -2.6931   -1.7131 H   0  0  0  0  0  0  0  0  0  0  0  0
   -1.4214   -2.0280   -1.2891 H   0  0  0  0  0  0  0  0  0  0  0  0
   -0.9055   -2.3110    1.0369 H   0  0  0  0  0  0  0  0  0  0  0  0
   -1.5942   -2.5410    3.3901 H   0  0  0  0  0  0  0  0  0  0  0  0
   -3.9973   -2.4574    4.0035 H   0  0  0  0  0  0  0  0  0  0  0  0
   -5.7157   -2.1498    2.2423 H   0  0  0  0  0  0  0  0  0  0  0  0
   -5.0419   -1.9094   -0.1208 H   0  0  0  0  0  0  0  0  0  0  0  0
   -4.3038   -1.4083   -3.0404 H   0  0  0  0  0  0  0  0  0  0  0  0
   -2.6839   -1.0751   -3.7099 H   0  0  0  0  0  0  0  0  0  0  0  0
   -5.6332    1.9670   -3.8404 H   0  0  0  0  0  0  0  0  0  0  0  0
   -6.9607   -0.0511   -2.8891 H   0  0  0  0  0  0  0  0  0  0  0  0
   -5.7036   -0.1313   -1.6278 H   0  0  0  0  0  0  0  0  0  0  0  0
   -6.7545    2.6711   -1.9050 H   0  0  0  0  0  0  0  0  0  0  0  0
   -8.0787    1.5084   -1.6978 H   0  0  0  0  0  0  0  0  0  0  0  0
   -6.7344    0.5592    0.3665 H   0  0  0  0  0  0  0  0  0  0  0  0
   -7.6090    2.1050    0.4959 H   0  0  0  0  0  0  0  0  0  0  0  0
   -5.4909    3.3997    0.0910 H   0  0  0  0  0  0  0  0  0  0  0  0
   -5.4585    2.3734    1.5633 H   0  0  0  0  0  0  0  0  0  0  0  0
   -4.1211    1.8223   -1.1162 H   0  0  0  0  0  0  0  0  0  0  0  0
   -4.2741    0.5840    0.2196 H   0  0  0  0  0  0  0  0  0  0  0  0
    7.6301    1.9941   -0.4464 H   0  0  0  0  0  0  0  0  0  0  0  0
    9.2242    0.8314    1.0214 H   0  0  0  0  0  0  0  0  0  0  0  0
  1  2  1  0
  2  3  2  0
  2  4  2  0
  2  5  1  0
  5  6  2  0
  6  7  1  0
  7  8  2  0
  8  9  1  0
  9 10  1  0
 10 11  1  0
 11 12  1  0
 12 13  2  0
 12 14  1  0
 14 15  1  0
 15 16  2  0
 16 17  1  0
 17 18  2  0
 18 19  1  0
 19 20  2  0
 19 21  1  0
 21 22  1  0
 22 23  1  0
 23 24  1  0
 24 25  2  0
 25 26  1  0
 26 27  2  0
 27 28  1  0
 28 29  2  0
 22 30  1  0
 30 31  1  0
 31 32  2  0
 31 33  1  0
 33 34  1  0
 34 35  1  0
 35 36  1  0
 36 37  1  0
 37 38  1  0
 38 39  1  0
  8 40  1  0
 40 41  2  0
 41  5  1  0
 20 15  1  0
 29 24  1  0
 39 18  1  0
  1 42  1  0
  1 43  1  0
  6 44  1  0
  7 45  1  0
  9 46  1  0
  9 47  1  0
 10 48  1  0
 10 49  1  0
 11 50  1  0
 14 51  1  0
 14 52  1  0
 16 53  1  0
 17 54  1  0
 20 55  1  0
 21 56  1  0
 21 57  1  0
 23 58  1  0
 23 59  1  0
 25 60  1  0
 26 61  1  0
 27 62  1  0
 28 63  1  0
 29 64  1  0
 30 65  1  0
 30 66  1  0
 33 67  1  0
 34 68  1  0
 34 69  1  0
 35 70  1  0
 35 71  1  0
 36 72  1  0
 36 73  1  0
 37 74  1  0
 37 75  1  0
 38 76  1  0
 38 77  1  0
 40 78  1  0
 41 79  1  0
M  END
$$$$
