
     RDKit          3D

 64 66  0  0  0  0  0  0  0  0999 V2000
   -2.2589    3.7599    2.0870 C   0  0  0  0  0  0  0  0  0  0  0  0
   -1.7300    2.6020    1.4793 O   0  0  0  0  0  0  0  0  0  0  0  0
   -2.6621    2.0352    0.5687 C   0  0  1  0  0  0  0  0  0  0  0  0
   -2.2511    2.4508   -0.8680 C   0  0  0  0  0  0  0  0  0  0  0  0
   -0.9124    1.9635   -1.2354 N   0  0  0  0  0  0  0  0  0  0  0  0
    0.2061    2.9064   -1.1878 C   0  0  0  0  0  0  0  0  0  0  0  0
   -0.8090    0.8507   -2.1387 C   0  0  0  0  0  0  0  0  0  0  0  0
   -1.0537    1.0290   -3.3625 O   0  0  0  0  0  0  0  0  0  0  0  0
   -0.3478   -0.4755   -1.6666 C   0  0  0  0  0  0  0  0  0  0  0  0
    0.6326   -0.5347   -0.6568 C   0  0  0  0  0  0  0  0  0  0  0  0
    1.1989   -1.7588   -0.2689 C   0  0  0  0  0  0  0  0  0  0  0  0
    2.1994   -1.8255    0.7604 N   0  0  0  0  0  0  0  0  0  0  0  0
    3.2776   -0.8864    0.8875 C   0  0  0  0  0  0  0  0  0  0  0  0
    3.4629   -0.0053    0.0038 O   0  0  0  0  0  0  0  0  0  0  0  0
    4.1462   -0.9596    2.0274 N   0  0  0  0  0  0  0  0  0  0  0  0
    5.4348   -0.3254    2.1005 C   0  0  0  0  0  0  0  0  0  0  0  0
    5.9172    0.1144    3.3435 C   0  0  0  0  0  0  0  0  0  0  0  0
    7.1802    0.7063    3.4438 C   0  0  0  0  0  0  0  0  0  0  0  0
    7.9797    0.8478    2.3071 C   0  0  0  0  0  0  0  0  0  0  0  0
    7.5188    0.3942    1.0670 C   0  0  0  0  0  0  0  0  0  0  0  0
    8.5355    0.5436   -0.3542 Cl  0  0  0  0  0  0  0  0  0  0  0  0
    6.2538   -0.1957    0.9629 C   0  0  0  0  0  0  0  0  0  0  0  0
    0.7619   -2.9374   -0.8777 C   0  0  0  0  0  0  0  0  0  0  0  0
   -0.2196   -2.8977   -1.8663 C   0  0  0  0  0  0  0  0  0  0  0  0
   -0.8121   -1.6864   -2.2422 C   0  0  0  0  0  0  0  0  0  0  0  0
   -1.8493   -1.7452   -3.1866 O   0  0  0  0  0  0  0  0  0  0  0  0
   -3.1754   -1.2342   -2.9956 C   0  0  0  0  0  0  0  0  0  0  0  0
   -3.9189   -1.9047   -1.8169 C   0  0  1  0  0  0  0  0  0  0  0  0
   -3.9297   -3.4326   -1.9767 C   0  0  0  0  0  0  0  0  0  0  0  0
   -3.3116   -1.5120   -0.5289 N   0  0  0  0  0  0  0  0  0  0  0  0
   -3.8047   -0.2051   -0.0586 C   0  0  0  0  0  0  0  0  0  0  0  0
   -2.7115    0.4957    0.7893 C   0  0  2  0  0  0  0  0  0  0  0  0
   -2.9217    0.1594    2.2761 C   0  0  0  0  0  0  0  0  0  0  0  0
   -3.1239    3.5022    2.7375 H   0  0  0  0  0  0  0  0  0  0  0  0
   -1.4751    4.2145    2.7273 H   0  0  0  0  0  0  0  0  0  0  0  0
   -2.5552    4.5164    1.3278 H   0  0  0  0  0  0  0  0  0  0  0  0
   -3.7050    2.4061    0.7312 H   0  0  0  0  0  0  0  0  0  0  0  0
   -2.9993    2.1314   -1.6215 H   0  0  0  0  0  0  0  0  0  0  0  0
   -2.2693    3.5616   -0.9184 H   0  0  0  0  0  0  0  0  0  0  0  0
    1.1716    2.3871   -1.3654 H   0  0  0  0  0  0  0  0  0  0  0  0
    0.0747    3.6835   -1.9699 H   0  0  0  0  0  0  0  0  0  0  0  0
    0.2492    3.3940   -0.1916 H   0  0  0  0  0  0  0  0  0  0  0  0
    0.9559    0.3708   -0.1637 H   0  0  0  0  0  0  0  0  0  0  0  0
    2.2222   -2.6748    1.3690 H   0  0  0  0  0  0  0  0  0  0  0  0
    3.7949   -1.4625    2.8739 H   0  0  0  0  0  0  0  0  0  0  0  0
    5.3087    0.0056    4.2324 H   0  0  0  0  0  0  0  0  0  0  0  0
    7.5414    1.0502    4.4044 H   0  0  0  0  0  0  0  0  0  0  0  0
    8.9592    1.3013    2.3913 H   0  0  0  0  0  0  0  0  0  0  0  0
    5.9295   -0.5767    0.0035 H   0  0  0  0  0  0  0  0  0  0  0  0
    1.1905   -3.8893   -0.5914 H   0  0  0  0  0  0  0  0  0  0  0  0
   -0.5414   -3.8222   -2.3285 H   0  0  0  0  0  0  0  0  0  0  0  0
   -3.7484   -1.4277   -3.9275 H   0  0  0  0  0  0  0  0  0  0  0  0
   -3.1653   -0.1376   -2.8723 H   0  0  0  0  0  0  0  0  0  0  0  0
   -4.9848   -1.5791   -1.8496 H   0  0  0  0  0  0  0  0  0  0  0  0
   -4.5964   -3.8888   -1.2138 H   0  0  0  0  0  0  0  0  0  0  0  0
   -2.9124   -3.8524   -1.8472 H   0  0  0  0  0  0  0  0  0  0  0  0
   -4.3133   -3.7132   -2.9813 H   0  0  0  0  0  0  0  0  0  0  0  0
   -3.5515   -2.2181    0.2072 H   0  0  0  0  0  0  0  0  0  0  0  0
   -4.7378   -0.3442    0.5341 H   0  0  0  0  0  0  0  0  0  0  0  0
   -4.1138    0.4328   -0.9066 H   0  0  0  0  0  0  0  0  0  0  0  0
   -1.7206    0.0840    0.5233 H   0  0  0  0  0  0  0  0  0  0  0  0
   -3.8563    0.6268    2.6548 H   0  0  0  0  0  0  0  0  0  0  0  0
   -2.9869   -0.9409    2.4164 H   0  0  0  0  0  0  0  0  0  0  0  0
   -2.0670    0.5225    2.8849 H   0  0  0  0  0  0  0  0  0  0  0  0
  1  2  1  0
  2  3  1  0
  3  4  1  0
  4  5  1  0
  5  6  1  0
  5  7  1  0
  7  8  2  0
  7  9  1  0
  9 10  2  0
 10 11  1  0
 11 12  1  0
 12 13  1  0
 13 14  2  0
 13 15  1  0
 15 16  1  0
 16 17  2  0
 17 18  1  0
 18 19  2  0
 19 20  1  0
 20 21  1  0
 20 22  2  0
 11 23  2  0
 23 24  1  0
 24 25  2  0
 25 26  1  0
 26 27  1  0
 27 28  1  0
 28 29  1  0
 28 30  1  0
 30 31  1  0
 31 32  1  0
 32 33  1  0
 32  3  1  0
 25  9  1  0
 22 16  1  0
  1 34  1  0
  1 35  1  0
  1 36  1  0
  3 37  1  1
  4 38  1  0
  4 39  1  0
  6 40  1  0
  6 41  1  0
  6 42  1  0
 10 43  1  0
 12 44  1  0
 15 45  1  0
 17 46  1  0
 18 47  1  0
 19 48  1  0
 22 49  1  0
 23 50  1  0
 24 51  1  0
 27 52  1  0
 27 53  1  0
 28 54  1  1
 29 55  1  0
 29 56  1  0
 29 57  1  0
 30 58  1  0
 31 59  1  0
 31 60  1  0
 32 61  1  6
 33 62  1  0
 33 63  1  0
 33 64  1  0
M  END
$$$$
