
     RDKit          3D

140146  0  0  0  0  0  0  0  0999 V2000
   -9.3103    5.6113   -0.0986 C   0  0  0  0  0  0  0  0  0  0  0  0
   -8.9367    4.5109    0.9127 C   0  0  0  0  0  0  0  0  0  0  0  0
   -7.9908    3.4088    0.3407 C   0  0  2  0  0  0  0  0  0  0  0  0
   -8.3424    2.0661    0.9929 C   0  0  0  0  0  0  0  0  0  0  0  0
   -6.4676    3.7513    0.5406 C   0  0  1  0  0  0  0  0  0  0  0  0
   -5.6106    2.6938    0.1079 O   0  0  0  0  0  0  0  0  0  0  0  0
   -5.3960    2.5715   -1.3121 C   0  0  2  0  0  0  0  0  0  0  0  0
   -6.0054    3.6995   -2.1424 C   0  0  0  0  0  0  0  0  0  0  0  0
   -6.1677    4.9180   -1.6008 C   0  0  0  0  0  0  0  0  0  0  0  0
   -6.0392    5.0858   -0.1183 C   0  0  2  0  0  0  0  0  0  0  0  0
   -4.5978    5.4575    0.2698 C   0  0  0  0  0  0  0  0  0  0  0  0
   -5.9594    1.2160   -1.7747 C   0  0  0  0  0  0  0  0  0  0  0  0
   -5.2175    0.1275   -0.9983 C   0  0  2  0  0  0  0  0  0  0  0  0
   -3.7582    0.2403   -1.3326 C   0  0  0  0  0  0  0  0  0  0  0  0
   -3.2258    1.6153   -0.9910 C   0  0  1  0  0  0  0  0  0  0  0  0
   -1.7961    1.7425   -1.5303 C   0  0  0  0  0  0  0  0  0  0  0  0
   -0.7450    1.0046   -0.7484 C   0  0  0  0  0  0  0  0  0  0  0  0
   -0.2097   -0.2046   -1.0677 C   0  0  0  0  0  0  0  0  0  0  0  0
   -0.7791   -1.2000   -2.0363 C   0  0  0  0  0  0  0  0  0  0  0  0
    1.0491   -0.7146   -0.3813 C   0  0  1  0  0  0  0  0  0  0  0  0
    1.7577    0.3524    0.2506 O   0  0  0  0  0  0  0  0  0  0  0  0
    3.1064    0.4104   -0.1915 C   0  0  1  0  0  0  0  0  0  0  0  0
    3.7463    1.6357    0.4289 C   0  0  0  0  0  0  0  0  0  0  0  0
    5.2850    1.5562    0.4311 C   0  0  2  0  0  0  0  0  0  0  0  0
    5.8205    2.8160    0.0620 O   0  0  0  0  0  0  0  0  0  0  0  0
    5.7789    3.7207    1.1553 C   0  0  0  0  0  0  0  0  0  0  0  0
    5.8388    0.4884   -0.5530 C   0  0  1  0  0  0  0  0  0  0  0  0
    7.2084    0.2245   -0.2467 O   0  0  0  0  0  0  0  0  0  0  0  0
    8.1226    0.8103   -1.1640 C   0  0  1  0  0  0  0  0  0  0  0  0
    8.8403    1.9822   -0.4501 C   0  0  0  0  0  0  0  0  0  0  0  0
   10.1402    1.5561    0.2843 C   0  0  2  0  0  0  0  0  0  0  0  0
   11.2727    1.6760   -0.5625 O   0  0  0  0  0  0  0  0  0  0  0  0
   11.6125    3.0315   -0.8159 C   0  0  0  0  0  0  0  0  0  0  0  0
    9.9698    0.1131    0.6737 C   0  0  0  0  0  0  0  0  0  0  0  0
    9.5651   -0.2116    1.9121 C   0  0  0  0  0  0  0  0  0  0  0  0
    8.9990   -1.5347    2.2512 C   0  0  0  0  0  0  0  0  0  0  0  0
    7.7690   -1.7225    2.1152 O   0  0  0  0  0  0  0  0  0  0  0  0
    9.8239   -2.6248    2.5272 O   0  0  0  0  0  0  0  0  0  0  0  0
   10.9678   -2.5499    3.3735 C   0  0  0  0  0  0  0  0  0  0  0  0
    9.7472   -0.8113   -0.5183 C   0  0  2  0  0  0  0  0  0  0  0  0
   11.0953   -1.3218   -1.0201 C   0  0  0  0  0  0  0  0  0  0  0  0
    9.0634   -0.1591   -1.6138 O   0  0  0  0  0  0  0  0  0  0  0  0
    5.0443   -0.8540   -0.4166 C   0  0  2  0  0  0  0  0  0  0  0  0
    4.8847   -1.5518   -1.7711 C   0  0  0  0  0  0  0  0  0  0  0  0
    3.7997   -0.7302    0.2575 O   0  0  0  0  0  0  0  0  0  0  0  0
    0.8174   -1.8931    0.6472 C   0  0  1  0  0  0  0  0  0  0  0  0
    1.2945   -1.5685    2.0857 C   0  0  0  0  0  0  0  0  0  0  0  0
   -0.5788   -2.5071    0.6846 C   0  0  0  0  0  0  0  0  0  0  0  0
   -1.6904   -1.8571    1.0872 C   0  0  0  0  0  0  0  0  0  0  0  0
   -3.1027   -2.3585    1.0386 C   0  0  0  0  0  0  0  0  0  0  0  0
   -3.5790   -3.5614    0.6358 C   0  0  0  0  0  0  0  0  0  0  0  0
   -2.7569   -4.7630    0.3470 C   0  0  0  0  0  0  0  0  0  0  0  0
   -3.6215   -5.8461    0.1676 O   0  0  0  0  0  0  0  0  0  0  0  0
   -4.8538   -5.5340    0.7871 C   0  0  2  0  0  0  0  0  0  0  0  0
   -6.0085   -6.3683    0.1546 C   0  0  2  0  0  0  0  0  0  0  0  0
   -5.6643   -6.8527   -1.1113 O   0  0  0  0  0  0  0  0  0  0  0  0
   -7.2878   -5.5807    0.0281 C   0  0  0  0  0  0  0  0  0  0  0  0
   -8.6043   -6.3042    0.1229 C   0  0  0  0  0  0  0  0  0  0  0  0
   -7.2499   -4.2778   -0.2984 C   0  0  0  0  0  0  0  0  0  0  0  0
   -5.9406   -3.5366   -0.3950 C   0  0  1  0  0  0  0  0  0  0  0  0
   -6.2335   -2.0552   -0.3839 C   0  0  0  0  0  0  0  0  0  0  0  0
   -6.9968   -1.5843    0.5147 O   0  0  0  0  0  0  0  0  0  0  0  0
   -5.6534   -1.1972   -1.3320 O   0  0  0  0  0  0  0  0  0  0  0  0
   -5.0160   -3.9848    0.7790 C   0  0  2  0  0  0  0  0  0  0  0  0
   -5.5698   -3.5323    2.0010 O   0  0  0  0  0  0  0  0  0  0  0  0
   -4.0034    2.6352   -1.5958 O   0  0  0  0  0  0  0  0  0  0  0  0
  -10.4127    5.6092   -0.2561 H   0  0  0  0  0  0  0  0  0  0  0  0
   -8.8327    5.4762   -1.0823 H   0  0  0  0  0  0  0  0  0  0  0  0
   -9.0399    6.6061    0.3018 H   0  0  0  0  0  0  0  0  0  0  0  0
   -9.8852    4.0490    1.2669 H   0  0  0  0  0  0  0  0  0  0  0  0
   -8.4643    4.9714    1.8024 H   0  0  0  0  0  0  0  0  0  0  0  0
   -8.1917    3.2894   -0.7388 H   0  0  0  0  0  0  0  0  0  0  0  0
   -8.2501    2.1321    2.0873 H   0  0  0  0  0  0  0  0  0  0  0  0
   -7.6757    1.2543    0.6263 H   0  0  0  0  0  0  0  0  0  0  0  0
   -9.3817    1.7953    0.7216 H   0  0  0  0  0  0  0  0  0  0  0  0
   -6.3110    3.8552    1.6262 H   0  0  0  0  0  0  0  0  0  0  0  0
   -6.1440    3.5718   -3.2230 H   0  0  0  0  0  0  0  0  0  0  0  0
   -6.5393    5.7369   -2.2179 H   0  0  0  0  0  0  0  0  0  0  0  0
   -6.6872    5.9138    0.2258 H   0  0  0  0  0  0  0  0  0  0  0  0
   -3.8503    4.7851   -0.1953 H   0  0  0  0  0  0  0  0  0  0  0  0
   -4.3776    6.5112   -0.0180 H   0  0  0  0  0  0  0  0  0  0  0  0
   -4.4706    5.3717    1.3765 H   0  0  0  0  0  0  0  0  0  0  0  0
   -7.0592    1.1659   -1.5805 H   0  0  0  0  0  0  0  0  0  0  0  0
   -5.7909    1.0778   -2.8662 H   0  0  0  0  0  0  0  0  0  0  0  0
   -5.3142    0.3161    0.0911 H   0  0  0  0  0  0  0  0  0  0  0  0
   -3.2387   -0.4796   -0.7038 H   0  0  0  0  0  0  0  0  0  0  0  0
   -3.6222    0.0098   -2.4123 H   0  0  0  0  0  0  0  0  0  0  0  0
   -3.2262    1.7347    0.1034 H   0  0  0  0  0  0  0  0  0  0  0  0
   -1.5304    2.8172   -1.4910 H   0  0  0  0  0  0  0  0  0  0  0  0
   -1.7682    1.5052   -2.6243 H   0  0  0  0  0  0  0  0  0  0  0  0
   -0.2837    1.6060    0.0250 H   0  0  0  0  0  0  0  0  0  0  0  0
   -0.2283   -2.1673   -1.9756 H   0  0  0  0  0  0  0  0  0  0  0  0
   -0.6907   -0.8135   -3.0708 H   0  0  0  0  0  0  0  0  0  0  0  0
   -1.8335   -1.4423   -1.8745 H   0  0  0  0  0  0  0  0  0  0  0  0
    1.5857   -1.1136   -1.2948 H   0  0  0  0  0  0  0  0  0  0  0  0
    3.1511    0.5501   -1.3113 H   0  0  0  0  0  0  0  0  0  0  0  0
    3.3997    1.7338    1.4881 H   0  0  0  0  0  0  0  0  0  0  0  0
    3.4004    2.5300   -0.1479 H   0  0  0  0  0  0  0  0  0  0  0  0
    5.6277    1.2460    1.4450 H   0  0  0  0  0  0  0  0  0  0  0  0
    4.7339    3.9696    1.4406 H   0  0  0  0  0  0  0  0  0  0  0  0
    6.3422    3.3338    2.0251 H   0  0  0  0  0  0  0  0  0  0  0  0
    6.2607    4.6746    0.8261 H   0  0  0  0  0  0  0  0  0  0  0  0
    5.6600    0.8765   -1.5869 H   0  0  0  0  0  0  0  0  0  0  0  0
    7.6461    1.2335   -2.0647 H   0  0  0  0  0  0  0  0  0  0  0  0
    9.0432    2.7926   -1.1889 H   0  0  0  0  0  0  0  0  0  0  0  0
    8.1761    2.4399    0.3236 H   0  0  0  0  0  0  0  0  0  0  0  0
   10.2763    2.2008    1.1934 H   0  0  0  0  0  0  0  0  0  0  0  0
   11.2266    3.7514   -0.0629 H   0  0  0  0  0  0  0  0  0  0  0  0
   11.2440    3.3158   -1.8115 H   0  0  0  0  0  0  0  0  0  0  0  0
   12.7124    3.1218   -0.8337 H   0  0  0  0  0  0  0  0  0  0  0  0
    9.5615    0.5413    2.6895 H   0  0  0  0  0  0  0  0  0  0  0  0
   10.9948   -3.4508    4.0304 H   0  0  0  0  0  0  0  0  0  0  0  0
   11.8973   -2.5578    2.7552 H   0  0  0  0  0  0  0  0  0  0  0  0
   10.9346   -1.6275    4.0041 H   0  0  0  0  0  0  0  0  0  0  0  0
    9.1638   -1.7159   -0.2645 H   0  0  0  0  0  0  0  0  0  0  0  0
   11.6007   -0.5681   -1.6554 H   0  0  0  0  0  0  0  0  0  0  0  0
   11.7973   -1.5670   -0.1794 H   0  0  0  0  0  0  0  0  0  0  0  0
   10.9340   -2.2309   -1.6267 H   0  0  0  0  0  0  0  0  0  0  0  0
    5.6416   -1.5493    0.2209 H   0  0  0  0  0  0  0  0  0  0  0  0
    4.2038   -2.4315   -1.6739 H   0  0  0  0  0  0  0  0  0  0  0  0
    4.4467   -0.8589   -2.5213 H   0  0  0  0  0  0  0  0  0  0  0  0
    5.8644   -1.8881   -2.1568 H   0  0  0  0  0  0  0  0  0  0  0  0
    1.4942   -2.7243    0.2983 H   0  0  0  0  0  0  0  0  0  0  0  0
    1.0684   -0.5183    2.3676 H   0  0  0  0  0  0  0  0  0  0  0  0
    2.3977   -1.7286    2.1795 H   0  0  0  0  0  0  0  0  0  0  0  0
    0.8210   -2.2506    2.8298 H   0  0  0  0  0  0  0  0  0  0  0  0
   -0.5904   -3.5113    0.3805 H   0  0  0  0  0  0  0  0  0  0  0  0
   -1.5769   -0.8335    1.4461 H   0  0  0  0  0  0  0  0  0  0  0  0
   -3.8101   -1.6480    1.4207 H   0  0  0  0  0  0  0  0  0  0  0  0
   -2.1662   -4.6396   -0.5868 H   0  0  0  0  0  0  0  0  0  0  0  0
   -2.0905   -4.9819    1.2218 H   0  0  0  0  0  0  0  0  0  0  0  0
   -4.8289   -5.8916    1.8379 H   0  0  0  0  0  0  0  0  0  0  0  0
   -6.2005   -7.2307    0.8397 H   0  0  0  0  0  0  0  0  0  0  0  0
   -4.9805   -7.5716   -0.9598 H   0  0  0  0  0  0  0  0  0  0  0  0
   -8.9077   -6.6435   -0.8766 H   0  0  0  0  0  0  0  0  0  0  0  0
   -8.5234   -7.1945    0.7804 H   0  0  0  0  0  0  0  0  0  0  0  0
   -9.3843   -5.6502    0.5554 H   0  0  0  0  0  0  0  0  0  0  0  0
   -8.1786   -3.7444   -0.4775 H   0  0  0  0  0  0  0  0  0  0  0  0
   -5.4550   -3.7920   -1.3795 H   0  0  0  0  0  0  0  0  0  0  0  0
   -4.9687   -3.8314    2.7417 H   0  0  0  0  0  0  0  0  0  0  0  0
  1  2  1  0
  2  3  1  0
  3  4  1  0
  3  5  1  0
  5  6  1  0
  7  6  1  1
  7  8  1  0
  8  9  2  0
  9 10  1  0
 10 11  1  0
  7 12  1  0
 12 13  1  0
 13 14  1  0
 14 15  1  0
 15 16  1  0
 16 17  1  0
 17 18  2  0
 18 19  1  0
 18 20  1  0
 20 21  1  0
 21 22  1  0
 22 23  1  0
 23 24  1  0
 24 25  1  0
 25 26  1  0
 24 27  1  0
 27 28  1  0
 28 29  1  0
 29 30  1  0
 30 31  1  0
 31 32  1  0
 32 33  1  0
 31 34  1  0
 34 35  2  0
 35 36  1  0
 36 37  2  0
 36 38  1  0
 38 39  1  0
 34 40  1  0
 40 41  1  0
 40 42  1  0
 27 43  1  0
 43 44  1  0
 43 45  1  0
 20 46  1  0
 46 47  1  0
 46 48  1  0
 48 49  2  0
 49 50  1  0
 50 51  2  0
 51 52  1  0
 52 53  1  0
 53 54  1  0
 54 55  1  0
 55 56  1  0
 55 57  1  0
 57 58  1  0
 57 59  2  0
 59 60  1  0
 60 61  1  0
 61 62  2  0
 61 63  1  0
 60 64  1  0
 64 65  1  1
 15 66  1  0
 10  5  1  0
 63 13  1  0
 66  7  1  0
 45 22  1  0
 64 51  1  0
 42 29  1  0
 64 54  1  0
  1 67  1  0
  1 68  1  0
  1 69  1  0
  2 70  1  0
  2 71  1  0
  3 72  1  6
  4 73  1  0
  4 74  1  0
  4 75  1  0
  5 76  1  1
  8 77  1  0
  9 78  1  0
 10 79  1  1
 11 80  1  0
 11 81  1  0
 11 82  1  0
 12 83  1  0
 12 84  1  0
 13 85  1  1
 14 86  1  0
 14 87  1  0
 15 88  1  1
 16 89  1  0
 16 90  1  0
 17 91  1  0
 19 92  1  0
 19 93  1  0
 19 94  1  0
 20 95  1  6
 22 96  1  6
 23 97  1  0
 23 98  1  0
 24 99  1  1
 26100  1  0
 26101  1  0
 26102  1  0
 27103  1  6
 29104  1  6
 30105  1  0
 30106  1  0
 31107  1  1
 33108  1  0
 33109  1  0
 33110  1  0
 35111  1  0
 39112  1  0
 39113  1  0
 39114  1  0
 40115  1  1
 41116  1  0
 41117  1  0
 41118  1  0
 43119  1  1
 44120  1  0
 44121  1  0
 44122  1  0
 46123  1  6
 47124  1  0
 47125  1  0
 47126  1  0
 48127  1  0
 49128  1  0
 50129  1  0
 52130  1  0
 52131  1  0
 54132  1  1
 55133  1  1
 56134  1  0
 58135  1  0
 58136  1  0
 58137  1  0
 59138  1  0
 60139  1  6
 65140  1  0
M  END
$$$$
