
     RDKit          3D

 75 78  0  0  0  0  0  0  0  0999 V2000
    8.0938   -1.0518   -1.1126 C   0  0  0  0  0  0  0  0  0  0  0  0
    7.5378   -0.7455    0.2478 C   0  0  0  0  0  0  0  0  0  0  0  0
    8.3194   -0.7848    1.2360 O   0  0  0  0  0  0  0  0  0  0  0  0
    6.1481   -0.3984    0.4475 N   0  0  0  0  0  0  0  0  0  0  0  0
    5.2941   -0.0086   -0.6897 C   0  0  0  0  0  0  0  0  0  0  0  0
    4.3519   -1.1488   -1.0958 C   0  0  0  0  0  0  0  0  0  0  0  0
    3.6527   -1.8184    0.0979 C   0  0  0  0  0  0  0  0  0  0  0  0
    3.1816   -0.8238    1.0763 N   0  0  0  0  0  0  0  0  0  0  0  0
    1.7759   -0.5144    1.1943 C   0  0  0  0  0  0  0  0  0  0  0  0
    1.3051   -0.2019    2.3227 O   0  0  0  0  0  0  0  0  0  0  0  0
    0.8508   -0.5026   -0.0031 C   0  0  0  0  0  0  0  0  0  0  0  0
   -0.1935   -1.6255    0.1509 C   0  0  0  0  0  0  0  0  0  0  0  0
   -1.0349   -1.8191   -1.0874 C   0  0  0  0  0  0  0  0  0  0  0  0
   -0.4580   -2.0779   -2.1793 O   0  0  0  0  0  0  0  0  0  0  0  0
   -2.4726   -1.8598   -1.0359 N   0  0  0  0  0  0  0  0  0  0  0  0
   -3.2859   -0.7660   -0.4808 C   0  0  0  0  0  0  0  0  0  0  0  0
   -4.7267   -0.7819   -1.0427 C   0  0  0  0  0  0  0  0  0  0  0  0
   -5.5464   -1.9797   -0.6199 C   0  0  0  0  0  0  0  0  0  0  0  0
   -6.2792   -1.9485    0.5806 C   0  0  0  0  0  0  0  0  0  0  0  0
   -7.0337   -3.0579    0.9756 C   0  0  0  0  0  0  0  0  0  0  0  0
   -7.0713   -4.2039    0.1756 C   0  0  0  0  0  0  0  0  0  0  0  0
   -6.3616   -4.2378   -1.0269 C   0  0  0  0  0  0  0  0  0  0  0  0
   -5.6037   -3.1315   -1.4248 C   0  0  0  0  0  0  0  0  0  0  0  0
   -3.2617   -0.7870    1.0282 C   0  0  0  0  0  0  0  0  0  0  0  0
   -3.4017   -1.8855    1.6350 O   0  0  0  0  0  0  0  0  0  0  0  0
   -2.9900    0.3982    1.7917 N   0  0  0  0  0  0  0  0  0  0  0  0
   -3.7411    1.6431    1.6179 C   0  0  0  0  0  0  0  0  0  0  0  0
   -3.0464    2.6238    0.6695 C   0  0  0  0  0  0  0  0  0  0  0  0
   -1.6442    2.7188    0.9393 O   0  0  0  0  0  0  0  0  0  0  0  0
   -0.8354    3.7092    0.3575 C   0  0  0  0  0  0  0  0  0  0  0  0
   -1.2572    5.0552    0.3978 C   0  0  0  0  0  0  0  0  0  0  0  0
   -0.4886    6.0660   -0.1732 C   0  0  0  0  0  0  0  0  0  0  0  0
    0.7143    5.7575   -0.7950 C   0  0  0  0  0  0  0  0  0  0  0  0
    1.1634    4.4366   -0.8301 C   0  0  0  0  0  0  0  0  0  0  0  0
    0.4114    3.3874   -0.2531 C   0  0  0  0  0  0  0  0  0  0  0  0
    0.9946    2.0107   -0.3076 C   0  0  0  0  0  0  0  0  0  0  0  0
    2.2287    1.8917   -0.5461 O   0  0  0  0  0  0  0  0  0  0  0  0
    0.2138    0.8169   -0.1185 N   0  0  0  0  0  0  0  0  0  0  0  0
    4.1163   -0.0974    1.9623 C   0  0  0  0  0  0  0  0  0  0  0  0
    5.6004   -0.5029    1.8175 C   0  0  0  0  0  0  0  0  0  0  0  0
    8.1812   -0.1182   -1.7033 H   0  0  0  0  0  0  0  0  0  0  0  0
    9.1043   -1.5075   -1.0256 H   0  0  0  0  0  0  0  0  0  0  0  0
    7.4305   -1.7670   -1.6410 H   0  0  0  0  0  0  0  0  0  0  0  0
    4.7082    0.8978   -0.4287 H   0  0  0  0  0  0  0  0  0  0  0  0
    5.8961    0.2934   -1.5705 H   0  0  0  0  0  0  0  0  0  0  0  0
    3.5956   -0.7437   -1.7986 H   0  0  0  0  0  0  0  0  0  0  0  0
    4.9281   -1.9198   -1.6497 H   0  0  0  0  0  0  0  0  0  0  0  0
    2.8110   -2.4397   -0.2724 H   0  0  0  0  0  0  0  0  0  0  0  0
    4.3468   -2.5315    0.5910 H   0  0  0  0  0  0  0  0  0  0  0  0
    1.4291   -0.6820   -0.9317 H   0  0  0  0  0  0  0  0  0  0  0  0
    0.3348   -2.5861    0.3439 H   0  0  0  0  0  0  0  0  0  0  0  0
   -0.8127   -1.4253    1.0441 H   0  0  0  0  0  0  0  0  0  0  0  0
   -2.9222   -2.5336   -1.6947 H   0  0  0  0  0  0  0  0  0  0  0  0
   -2.8371    0.1801   -0.8308 H   0  0  0  0  0  0  0  0  0  0  0  0
   -5.2503    0.1462   -0.7306 H   0  0  0  0  0  0  0  0  0  0  0  0
   -4.6770   -0.7364   -2.1532 H   0  0  0  0  0  0  0  0  0  0  0  0
   -6.2677   -1.0654    1.2084 H   0  0  0  0  0  0  0  0  0  0  0  0
   -7.5918   -3.0320    1.9032 H   0  0  0  0  0  0  0  0  0  0  0  0
   -7.6555   -5.0624    0.4831 H   0  0  0  0  0  0  0  0  0  0  0  0
   -6.3966   -5.1221   -1.6503 H   0  0  0  0  0  0  0  0  0  0  0  0
   -5.0726   -3.1714   -2.3667 H   0  0  0  0  0  0  0  0  0  0  0  0
   -2.5053    0.2669    2.7070 H   0  0  0  0  0  0  0  0  0  0  0  0
   -4.7664    1.4249    1.2424 H   0  0  0  0  0  0  0  0  0  0  0  0
   -3.8583    2.1361    2.6101 H   0  0  0  0  0  0  0  0  0  0  0  0
   -3.1967    2.3184   -0.3851 H   0  0  0  0  0  0  0  0  0  0  0  0
   -3.5439    3.6091    0.7893 H   0  0  0  0  0  0  0  0  0  0  0  0
   -2.1726    5.3362    0.9012 H   0  0  0  0  0  0  0  0  0  0  0  0
   -0.8260    7.0942   -0.1289 H   0  0  0  0  0  0  0  0  0  0  0  0
    1.3094    6.5467   -1.2412 H   0  0  0  0  0  0  0  0  0  0  0  0
    2.1109    4.2395   -1.3167 H   0  0  0  0  0  0  0  0  0  0  0  0
   -0.8193    0.8666   -0.1779 H   0  0  0  0  0  0  0  0  0  0  0  0
    4.0205    0.9970    1.7792 H   0  0  0  0  0  0  0  0  0  0  0  0
    3.8246   -0.2797    3.0206 H   0  0  0  0  0  0  0  0  0  0  0  0
    5.7307   -1.5436    2.1875 H   0  0  0  0  0  0  0  0  0  0  0  0
    6.1898    0.1605    2.4849 H   0  0  0  0  0  0  0  0  0  0  0  0
  1  2  1  0
  2  3  2  0
  2  4  1  0
  4  5  1  0
  5  6  1  0
  6  7  1  0
  7  8  1  0
  8  9  1  0
  9 10  2  0
  9 11  1  0
 11 12  1  0
 12 13  1  0
 13 14  2  0
 13 15  1  0
 15 16  1  0
 16 17  1  0
 17 18  1  0
 18 19  2  0
 19 20  1  0
 20 21  2  0
 21 22  1  0
 22 23  2  0
 16 24  1  0
 24 25  2  0
 24 26  1  0
 26 27  1  0
 27 28  1  0
 28 29  1  0
 29 30  1  0
 30 31  2  0
 31 32  1  0
 32 33  2  0
 33 34  1  0
 34 35  2  0
 35 36  1  0
 36 37  2  0
 36 38  1  0
  8 39  1  0
 39 40  1  0
 40  4  1  0
 38 11  1  0
 23 18  1  0
 35 30  1  0
  1 41  1  0
  1 42  1  0
  1 43  1  0
  5 44  1  0
  5 45  1  0
  6 46  1  0
  6 47  1  0
  7 48  1  0
  7 49  1  0
 11 50  1  0
 12 51  1  0
 12 52  1  0
 15 53  1  0
 16 54  1  0
 17 55  1  0
 17 56  1  0
 19 57  1  0
 20 58  1  0
 21 59  1  0
 22 60  1  0
 23 61  1  0
 26 62  1  0
 27 63  1  0
 27 64  1  0
 28 65  1  0
 28 66  1  0
 31 67  1  0
 32 68  1  0
 33 69  1  0
 34 70  1  0
 38 71  1  0
 39 72  1  0
 39 73  1  0
 40 74  1  0
 40 75  1  0
M  END
$$$$
