
     RDKit          3D

128132  0  0  0  0  0  0  0  0999 V2000
   -6.3894   -1.5830    3.6007 C   0  0  0  0  0  0  0  0  0  0  0  0
   -6.5907   -1.6190    2.0757 C   0  0  0  0  0  0  0  0  0  0  0  0
   -6.4075   -3.0614    1.5836 C   0  0  0  0  0  0  0  0  0  0  0  0
   -5.6215   -0.6255    1.3633 C   0  0  2  0  0  0  0  0  0  0  0  0
   -5.8558    0.7266    1.8902 N   0  0  0  0  0  0  0  0  0  0  0  0
   -4.8331    1.7248    2.0208 C   0  0  0  0  0  0  0  0  0  0  0  0
   -5.0323    2.8626    1.5054 O   0  0  0  0  0  0  0  0  0  0  0  0
   -3.6301    1.5155    2.9216 C   0  0  2  0  0  0  0  0  0  0  0  0
   -3.7856    2.1889    4.2987 C   0  0  2  0  0  0  0  0  0  0  0  0
   -5.2033    2.2197    4.8824 C   0  0  0  0  0  0  0  0  0  0  0  0
   -3.1940    3.5874    4.1243 C   0  0  0  0  0  0  0  0  0  0  0  0
   -2.1488    3.4374    3.0256 C   0  0  0  0  0  0  0  0  0  0  0  0
   -2.4694    2.1914    2.3415 N   0  0  0  0  0  0  0  0  0  0  0  0
   -1.6573    1.6927    1.2595 C   0  0  0  0  0  0  0  0  0  0  0  0
   -0.7740    2.4455    0.7521 O   0  0  0  0  0  0  0  0  0  0  0  0
   -1.7896    0.2758    0.7698 C   0  0  0  0  0  0  0  0  0  0  0  0
   -1.4867    0.1771   -0.6570 N   0  0  0  0  0  0  0  0  0  0  0  0
   -2.3650   -0.3948   -1.6542 C   0  0  0  0  0  0  0  0  0  0  0  0
   -2.1378   -0.2077   -2.9254 N   0  0  0  0  0  0  0  0  0  0  0  0
   -1.0475    0.4763   -3.6402 C   0  0  2  0  0  0  0  0  0  0  0  0
    0.3149   -0.0693   -3.2112 C   0  0  0  0  0  0  0  0  0  0  0  0
    0.4779   -1.3173   -3.3143 O   0  0  0  0  0  0  0  0  0  0  0  0
    1.3838    0.7366   -2.6683 N   0  0  0  0  0  0  0  0  0  0  0  0
    2.6990    0.2211   -2.2420 C   0  0  1  0  0  0  0  0  0  0  0  0
    2.5628   -0.5636   -0.9604 C   0  0  0  0  0  0  0  0  0  0  0  0
    1.7203   -1.5013   -0.8812 O   0  0  0  0  0  0  0  0  0  0  0  0
    3.3925   -0.2501    0.1689 N   0  0  0  0  0  0  0  0  0  0  0  0
    3.2705   -0.9768    1.4399 C   0  0  2  0  0  0  0  0  0  0  0  0
    3.6515   -0.0953    2.6494 C   0  0  0  0  0  0  0  0  0  0  0  0
    5.0204    0.4325    2.5857 N   0  0  0  0  0  0  0  0  0  0  0  0
    5.5130    1.3067    3.6141 C   0  0  0  0  0  0  0  0  0  0  0  0
    4.7238    1.7143    4.5123 O   0  0  0  0  0  0  0  0  0  0  0  0
    6.8927    1.7269    3.6441 N   0  0  0  0  0  0  0  0  0  0  0  0
    7.3923    2.5601    4.7270 C   0  0  0  0  0  0  0  0  0  0  0  0
    8.9130    2.5798    4.6643 C   0  0  0  0  0  0  0  0  0  0  0  0
    9.4481    2.1067    2.9889 S   0  0  0  0  0  0  0  0  0  0  0  0
    7.8766    1.2533    2.6775 C   0  0  0  0  0  0  0  0  0  0  0  0
    4.0428   -2.2673    1.3845 C   0  0  0  0  0  0  0  0  0  0  0  0
    3.4683   -3.4745    1.5894 N   0  0  0  0  0  0  0  0  0  0  0  0
    4.3491   -4.4959    1.4119 C   0  0  0  0  0  0  0  0  0  0  0  0
    5.6371   -4.1132    1.0563 C   0  0  0  0  0  0  0  0  0  0  0  0
    5.6633   -2.4371    0.9555 S   0  0  0  0  0  0  0  0  0  0  0  0
    3.4324   -0.5820   -3.3532 C   0  0  1  0  0  0  0  0  0  0  0  0
    3.5046    0.2054   -4.6724 C   0  0  0  0  0  0  0  0  0  0  0  0
    4.8288   -0.9979   -2.9181 C   0  0  0  0  0  0  0  0  0  0  0  0
    5.1532   -2.3606   -2.7961 C   0  0  0  0  0  0  0  0  0  0  0  0
    6.4449   -2.7523   -2.4329 C   0  0  0  0  0  0  0  0  0  0  0  0
    7.4293   -1.7901   -2.1910 C   0  0  0  0  0  0  0  0  0  0  0  0
    7.1159   -0.4336   -2.2956 C   0  0  0  0  0  0  0  0  0  0  0  0
    5.8252   -0.0360   -2.6549 C   0  0  0  0  0  0  0  0  0  0  0  0
   -1.3338    2.0169   -3.8324 C   0  0  0  0  0  0  0  0  0  0  0  0
   -2.7005    2.1683   -4.5637 C   0  0  0  0  0  0  0  0  0  0  0  0
   -0.2682    2.6700   -4.7552 C   0  0  0  0  0  0  0  0  0  0  0  0
   -1.4518    2.8037   -2.5023 C   0  0  0  0  0  0  0  0  0  0  0  0
   -3.5939   -1.2312   -1.2620 C   0  0  0  0  0  0  0  0  0  0  0  0
   -3.9353   -2.4010   -2.2840 C   0  0  0  0  0  0  0  0  0  0  0  0
   -2.6603   -3.2145   -2.6236 C   0  0  0  0  0  0  0  0  0  0  0  0
   -4.9342   -3.3854   -1.6392 C   0  0  0  0  0  0  0  0  0  0  0  0
   -4.5884   -1.8975   -3.6015 C   0  0  0  0  0  0  0  0  0  0  0  0
   -4.7431   -0.3318   -1.0615 N   0  0  0  0  0  0  0  0  0  0  0  0
   -5.8284   -0.5832   -0.1444 C   0  0  0  0  0  0  0  0  0  0  0  0
   -7.0085   -0.5808   -0.5934 O   0  0  0  0  0  0  0  0  0  0  0  0
   -6.6448   -0.5819    3.9951 H   0  0  0  0  0  0  0  0  0  0  0  0
   -5.3380   -1.8276    3.8639 H   0  0  0  0  0  0  0  0  0  0  0  0
   -7.0615   -2.3089    4.1017 H   0  0  0  0  0  0  0  0  0  0  0  0
   -7.6439   -1.3208    1.8718 H   0  0  0  0  0  0  0  0  0  0  0  0
   -6.7859   -3.1641    0.5487 H   0  0  0  0  0  0  0  0  0  0  0  0
   -5.3437   -3.3692    1.6361 H   0  0  0  0  0  0  0  0  0  0  0  0
   -7.0081   -3.7631    2.2009 H   0  0  0  0  0  0  0  0  0  0  0  0
   -4.5981   -0.9577    1.5958 H   0  0  0  0  0  0  0  0  0  0  0  0
   -6.8404    1.0837    1.8425 H   0  0  0  0  0  0  0  0  0  0  0  0
   -3.4221    0.4357    3.0787 H   0  0  0  0  0  0  0  0  0  0  0  0
   -3.1331    1.6415    5.0194 H   0  0  0  0  0  0  0  0  0  0  0  0
   -5.5930    1.1898    4.9840 H   0  0  0  0  0  0  0  0  0  0  0  0
   -5.8967    2.8122    4.2526 H   0  0  0  0  0  0  0  0  0  0  0  0
   -5.1791    2.6753    5.8947 H   0  0  0  0  0  0  0  0  0  0  0  0
   -3.9763    4.3087    3.7870 H   0  0  0  0  0  0  0  0  0  0  0  0
   -2.7368    3.9626    5.0691 H   0  0  0  0  0  0  0  0  0  0  0  0
   -2.2014    4.2914    2.3145 H   0  0  0  0  0  0  0  0  0  0  0  0
   -1.1297    3.3770    3.4633 H   0  0  0  0  0  0  0  0  0  0  0  0
   -2.8083   -0.0571    0.9616 H   0  0  0  0  0  0  0  0  0  0  0  0
   -1.0922   -0.3721    1.3379 H   0  0  0  0  0  0  0  0  0  0  0  0
   -0.5516    0.5358   -0.9352 H   0  0  0  0  0  0  0  0  0  0  0  0
   -1.1176    0.0845   -4.6815 H   0  0  0  0  0  0  0  0  0  0  0  0
    1.2025    1.7250   -2.4281 H   0  0  0  0  0  0  0  0  0  0  0  0
    3.3241    1.1134   -2.0178 H   0  0  0  0  0  0  0  0  0  0  0  0
    4.2090    0.3905    0.0181 H   0  0  0  0  0  0  0  0  0  0  0  0
    2.1984   -1.2383    1.5951 H   0  0  0  0  0  0  0  0  0  0  0  0
    3.5345   -0.6895    3.5815 H   0  0  0  0  0  0  0  0  0  0  0  0
    2.9354    0.7568    2.6972 H   0  0  0  0  0  0  0  0  0  0  0  0
    5.6507    0.1483    1.8119 H   0  0  0  0  0  0  0  0  0  0  0  0
    6.9812    3.5831    4.6252 H   0  0  0  0  0  0  0  0  0  0  0  0
    7.0786    2.1343    5.7014 H   0  0  0  0  0  0  0  0  0  0  0  0
    9.3281    1.8378    5.3841 H   0  0  0  0  0  0  0  0  0  0  0  0
    9.3036    3.5896    4.9094 H   0  0  0  0  0  0  0  0  0  0  0  0
    7.5477    1.4865    1.6415 H   0  0  0  0  0  0  0  0  0  0  0  0
    8.0239    0.1566    2.7993 H   0  0  0  0  0  0  0  0  0  0  0  0
    4.0549   -5.5268    1.5321 H   0  0  0  0  0  0  0  0  0  0  0  0
    6.4636   -4.7794    0.8642 H   0  0  0  0  0  0  0  0  0  0  0  0
    2.8531   -1.5001   -3.5701 H   0  0  0  0  0  0  0  0  0  0  0  0
    4.0708   -0.3724   -5.4326 H   0  0  0  0  0  0  0  0  0  0  0  0
    2.4881    0.3805   -5.0760 H   0  0  0  0  0  0  0  0  0  0  0  0
    4.0022    1.1845   -4.5301 H   0  0  0  0  0  0  0  0  0  0  0  0
    4.4076   -3.1254   -2.9812 H   0  0  0  0  0  0  0  0  0  0  0  0
    6.6856   -3.8026   -2.3438 H   0  0  0  0  0  0  0  0  0  0  0  0
    8.4309   -2.0980   -1.9175 H   0  0  0  0  0  0  0  0  0  0  0  0
    7.8817    0.3122   -2.1129 H   0  0  0  0  0  0  0  0  0  0  0  0
    5.6100    1.0227   -2.7390 H   0  0  0  0  0  0  0  0  0  0  0  0
   -2.9351    3.2386   -4.7449 H   0  0  0  0  0  0  0  0  0  0  0  0
   -3.5264    1.7392   -3.9588 H   0  0  0  0  0  0  0  0  0  0  0  0
   -2.6891    1.6485   -5.5445 H   0  0  0  0  0  0  0  0  0  0  0  0
    0.7562    2.5758   -4.3646 H   0  0  0  0  0  0  0  0  0  0  0  0
   -0.2894    2.2004   -5.7603 H   0  0  0  0  0  0  0  0  0  0  0  0
   -0.4828    3.7521   -4.8869 H   0  0  0  0  0  0  0  0  0  0  0  0
   -1.6912    3.8691   -2.7147 H   0  0  0  0  0  0  0  0  0  0  0  0
   -2.2775    2.4061   -1.8836 H   0  0  0  0  0  0  0  0  0  0  0  0
   -0.5275    2.7951   -1.9092 H   0  0  0  0  0  0  0  0  0  0  0  0
   -3.3553   -1.7308   -0.3000 H   0  0  0  0  0  0  0  0  0  0  0  0
   -1.9925   -2.6712   -3.3217 H   0  0  0  0  0  0  0  0  0  0  0  0
   -2.0885   -3.4594   -1.7019 H   0  0  0  0  0  0  0  0  0  0  0  0
   -2.9194   -4.1759   -3.1318 H   0  0  0  0  0  0  0  0  0  0  0  0
   -5.9186   -2.9044   -1.4965 H   0  0  0  0  0  0  0  0  0  0  0  0
   -5.1094   -4.2677   -2.2947 H   0  0  0  0  0  0  0  0  0  0  0  0
   -4.5552   -3.7538   -0.6613 H   0  0  0  0  0  0  0  0  0  0  0  0
   -5.5830   -1.4481   -3.4147 H   0  0  0  0  0  0  0  0  0  0  0  0
   -4.7323   -2.7490   -4.3012 H   0  0  0  0  0  0  0  0  0  0  0  0
   -3.9726   -1.1516   -4.1352 H   0  0  0  0  0  0  0  0  0  0  0  0
   -4.9564    0.3287   -1.8414 H   0  0  0  0  0  0  0  0  0  0  0  0
  1  2  1  0
  2  3  1  0
  2  4  1  0
  4  5  1  0
  5  6  1  0
  6  7  2  0
  6  8  1  0
  8  9  1  0
  9 10  1  0
  9 11  1  0
 11 12  1  0
 12 13  1  0
 13 14  1  0
 14 15  2  0
 14 16  1  0
 16 17  1  0
 17 18  1  0
 18 19  2  0
 19 20  1  0
 20 21  1  0
 21 22  2  0
 21 23  1  0
 23 24  1  0
 24 25  1  0
 25 26  2  0
 25 27  1  0
 27 28  1  0
 28 29  1  0
 29 30  1  0
 30 31  1  0
 31 32  2  0
 31 33  1  0
 33 34  1  0
 34 35  1  0
 35 36  1  0
 36 37  1  0
 28 38  1  0
 38 39  2  0
 39 40  1  0
 40 41  2  0
 41 42  1  0
 24 43  1  0
 43 44  1  0
 43 45  1  0
 45 46  2  0
 46 47  1  0
 47 48  2  0
 48 49  1  0
 49 50  2  0
 20 51  1  0
 51 52  1  0
 51 53  1  0
 51 54  1  0
 18 55  1  0
 55 56  1  0
 56 57  1  0
 56 58  1  0
 56 59  1  0
 55 60  1  0
 60 61  1  0
 61 62  2  0
 61  4  1  0
 13  8  1  0
 37 33  1  0
 42 38  1  0
 50 45  1  0
  1 63  1  0
  1 64  1  0
  1 65  1  0
  2 66  1  0
  3 67  1  0
  3 68  1  0
  3 69  1  0
  4 70  1  6
  5 71  1  0
  8 72  1  1
  9 73  1  1
 10 74  1  0
 10 75  1  0
 10 76  1  0
 11 77  1  0
 11 78  1  0
 12 79  1  0
 12 80  1  0
 16 81  1  0
 16 82  1  0
 17 83  1  0
 20 84  1  6
 23 85  1  0
 24 86  1  1
 27 87  1  0
 28 88  1  1
 29 89  1  0
 29 90  1  0
 30 91  1  0
 34 92  1  0
 34 93  1  0
 35 94  1  0
 35 95  1  0
 37 96  1  0
 37 97  1  0
 40 98  1  0
 41 99  1  0
 43100  1  6
 44101  1  0
 44102  1  0
 44103  1  0
 46104  1  0
 47105  1  0
 48106  1  0
 49107  1  0
 50108  1  0
 52109  1  0
 52110  1  0
 52111  1  0
 53112  1  0
 53113  1  0
 53114  1  0
 54115  1  0
 54116  1  0
 54117  1  0
 55118  1  0
 57119  1  0
 57120  1  0
 57121  1  0
 58122  1  0
 58123  1  0
 58124  1  0
 59125  1  0
 59126  1  0
 59127  1  0
 60128  1  0
M  END
$$$$
