
     RDKit          3D

125128  0  0  0  0  0  0  0  0999 V2000
   -0.9268    6.5680    2.4952 C   0  0  0  0  0  0  0  0  0  0  0  0
   -2.0581    6.1816    1.5094 C   0  0  0  0  0  0  0  0  0  0  0  0
   -1.8729    4.9293    0.6139 C   0  0  2  0  0  0  0  0  0  0  0  0
   -3.1123    4.0232    0.5808 C   0  0  0  0  0  0  0  0  0  0  0  0
   -4.4168    4.3974    0.4926 C   0  0  0  0  0  0  0  0  0  0  0  0
   -4.8910    5.7652    0.0783 C   0  0  0  0  0  0  0  0  0  0  0  0
   -5.4611    3.3895    0.9589 C   0  0  0  0  0  0  0  0  0  0  0  0
   -5.8499    2.3352   -0.1446 C   0  0  2  0  0  0  0  0  0  0  0  0
   -7.1846    2.7402   -0.8411 C   0  0  0  0  0  0  0  0  0  0  0  0
   -6.0488    0.9142    0.5126 C   0  0  0  0  0  0  0  0  0  0  0  0
   -4.7758    0.0524    0.7858 C   0  0  2  0  0  0  0  0  0  0  0  0
   -3.7358    0.8512    1.3692 O   0  0  0  0  0  0  0  0  0  0  0  0
   -3.7591    0.7540    2.7675 C   0  0  0  0  0  0  0  0  0  0  0  0
   -4.2122   -0.6266   -0.5104 C   0  0  1  0  0  0  0  0  0  0  0  0
   -2.8139   -0.9191   -0.3447 O   0  0  0  0  0  0  0  0  0  0  0  0
   -2.4664   -2.2771   -0.0109 C   0  0  1  0  0  0  0  0  0  0  0  0
   -2.2229   -2.9602   -1.2283 O   0  0  0  0  0  0  0  0  0  0  0  0
   -1.1779   -2.1959    0.8136 C   0  0  0  0  0  0  0  0  0  0  0  0
   -1.1541   -1.4477    1.8338 O   0  0  0  0  0  0  0  0  0  0  0  0
   -0.0122   -3.0576    0.5520 C   0  0  0  0  0  0  0  0  0  0  0  0
    0.6135   -3.5122    1.5440 O   0  0  0  0  0  0  0  0  0  0  0  0
    0.3941   -3.4276   -0.7829 N   0  0  0  0  0  0  0  0  0  0  0  0
    0.4167   -4.8518   -1.1113 C   0  0  0  0  0  0  0  0  0  0  0  0
    1.6012   -5.1909   -2.0243 C   0  0  0  0  0  0  0  0  0  0  0  0
    1.5736   -4.3481   -3.3312 C   0  0  0  0  0  0  0  0  0  0  0  0
    0.9384   -2.9708   -3.1579 C   0  0  0  0  0  0  0  0  0  0  0  0
    1.0674   -2.4780   -1.7119 C   0  0  1  0  0  0  0  0  0  0  0  0
    0.5117   -1.0971   -1.5701 C   0  0  0  0  0  0  0  0  0  0  0  0
   -0.4710   -0.7084   -2.2726 O   0  0  0  0  0  0  0  0  0  0  0  0
    1.0715   -0.2200   -0.6476 O   0  0  0  0  0  0  0  0  0  0  0  0
    2.3136    0.4487   -0.8581 C   0  0  2  0  0  0  0  0  0  0  0  0
    3.3649   -0.0626    0.1204 C   0  0  0  0  0  0  0  0  0  0  0  0
    2.9893   -0.2022    1.5650 C   0  0  0  0  0  0  0  0  0  0  0  0
    4.6383   -0.3143   -0.3501 C   0  0  0  0  0  0  0  0  0  0  0  0
    5.7785   -1.1294    0.2965 C   0  0  2  0  0  0  0  0  0  0  0  0
    6.1014   -0.7563    1.7664 C   0  0  0  0  0  0  0  0  0  0  0  0
    7.2798   -1.5702    2.3149 C   0  0  0  0  0  0  0  0  0  0  0  0
    8.5301   -1.3693    1.4499 C   0  0  1  0  0  0  0  0  0  0  0  0
    9.5689   -2.1654    1.9564 O   0  0  0  0  0  0  0  0  0  0  0  0
    8.2289   -1.7653   -0.0105 C   0  0  2  0  0  0  0  0  0  0  0  0
    9.3758   -1.4832   -0.7796 O   0  0  0  0  0  0  0  0  0  0  0  0
    9.6250   -2.5172   -1.7073 C   0  0  0  0  0  0  0  0  0  0  0  0
    7.0620   -0.9476   -0.5528 C   0  0  0  0  0  0  0  0  0  0  0  0
    2.0575    1.9903   -0.8593 C   0  0  2  0  0  0  0  0  0  0  0  0
    3.3591    2.7966   -1.0123 C   0  0  0  0  0  0  0  0  0  0  0  0
    1.2313    2.4778    0.3895 C   0  0  1  0  0  0  0  0  0  0  0  0
    2.0776    2.5848    1.5299 O   0  0  0  0  0  0  0  0  0  0  0  0
    0.4769    3.8094    0.1130 C   0  0  0  0  0  0  0  0  0  0  0  0
   -0.7047    4.0520    1.0322 C   0  0  0  0  0  0  0  0  0  0  0  0
   -0.7125    3.5426    2.1412 O   0  0  0  0  0  0  0  0  0  0  0  0
   -3.5827   -2.9649    0.8381 C   0  0  2  0  0  0  0  0  0  0  0  0
   -3.2250   -4.3317    1.3985 C   0  0  0  0  0  0  0  0  0  0  0  0
   -4.9049   -3.0180    0.0363 C   0  0  0  0  0  0  0  0  0  0  0  0
   -5.0509   -1.8459   -0.9693 C   0  0  2  0  0  0  0  0  0  0  0  0
   -4.5971   -2.2431   -2.2491 O   0  0  0  0  0  0  0  0  0  0  0  0
   -5.6702   -2.3168   -3.1469 C   0  0  0  0  0  0  0  0  0  0  0  0
   -1.1680    6.3786    3.5581 H   0  0  0  0  0  0  0  0  0  0  0  0
   -0.6727    7.6419    2.3531 H   0  0  0  0  0  0  0  0  0  0  0  0
    0.0382    6.0500    2.2864 H   0  0  0  0  0  0  0  0  0  0  0  0
   -2.9666    6.0498    2.1420 H   0  0  0  0  0  0  0  0  0  0  0  0
   -2.2249    7.0670    0.8372 H   0  0  0  0  0  0  0  0  0  0  0  0
   -1.6777    5.2675   -0.4043 H   0  0  0  0  0  0  0  0  0  0  0  0
   -2.9306    3.0267    0.2069 H   0  0  0  0  0  0  0  0  0  0  0  0
   -4.3600    6.1190   -0.8331 H   0  0  0  0  0  0  0  0  0  0  0  0
   -5.9567    5.7181   -0.2275 H   0  0  0  0  0  0  0  0  0  0  0  0
   -4.7960    6.5502    0.8548 H   0  0  0  0  0  0  0  0  0  0  0  0
   -5.0633    2.9060    1.8704 H   0  0  0  0  0  0  0  0  0  0  0  0
   -6.3731    3.8623    1.3704 H   0  0  0  0  0  0  0  0  0  0  0  0
   -5.0561    2.2698   -0.9050 H   0  0  0  0  0  0  0  0  0  0  0  0
   -7.4097    3.7989   -0.6591 H   0  0  0  0  0  0  0  0  0  0  0  0
   -8.0577    2.2196   -0.3828 H   0  0  0  0  0  0  0  0  0  0  0  0
   -7.2017    2.5374   -1.9155 H   0  0  0  0  0  0  0  0  0  0  0  0
   -6.6036    1.0175    1.4694 H   0  0  0  0  0  0  0  0  0  0  0  0
   -6.7255    0.2957   -0.1252 H   0  0  0  0  0  0  0  0  0  0  0  0
   -5.1528   -0.7391    1.4671 H   0  0  0  0  0  0  0  0  0  0  0  0
   -4.7782    0.9653    3.1807 H   0  0  0  0  0  0  0  0  0  0  0  0
   -3.0397    1.4797    3.1758 H   0  0  0  0  0  0  0  0  0  0  0  0
   -3.4666   -0.2685    3.0860 H   0  0  0  0  0  0  0  0  0  0  0  0
   -4.2736    0.1348   -1.3189 H   0  0  0  0  0  0  0  0  0  0  0  0
   -2.5575   -3.8850   -1.1656 H   0  0  0  0  0  0  0  0  0  0  0  0
    0.5222   -5.4586   -0.2161 H   0  0  0  0  0  0  0  0  0  0  0  0
   -0.5553   -5.1497   -1.5887 H   0  0  0  0  0  0  0  0  0  0  0  0
    1.5706   -6.3081   -2.3025 H   0  0  0  0  0  0  0  0  0  0  0  0
    2.5260   -4.9888   -1.4992 H   0  0  0  0  0  0  0  0  0  0  0  0
    0.9572   -4.9156   -4.1088 H   0  0  0  0  0  0  0  0  0  0  0  0
    2.5674   -4.2671   -3.7105 H   0  0  0  0  0  0  0  0  0  0  0  0
    1.3957   -2.2665   -3.8421 H   0  0  0  0  0  0  0  0  0  0  0  0
   -0.1670   -3.0402   -3.4127 H   0  0  0  0  0  0  0  0  0  0  0  0
    2.1597   -2.4240   -1.4674 H   0  0  0  0  0  0  0  0  0  0  0  0
    2.6635    0.2050   -1.9001 H   0  0  0  0  0  0  0  0  0  0  0  0
    1.9262   -0.0092    1.7593 H   0  0  0  0  0  0  0  0  0  0  0  0
    3.6344    0.4841    2.2155 H   0  0  0  0  0  0  0  0  0  0  0  0
    3.1183   -1.2808    1.8742 H   0  0  0  0  0  0  0  0  0  0  0  0
    4.8118   -0.0949   -1.4138 H   0  0  0  0  0  0  0  0  0  0  0  0
    5.4666   -2.1995    0.2786 H   0  0  0  0  0  0  0  0  0  0  0  0
    6.3404    0.3156    1.8609 H   0  0  0  0  0  0  0  0  0  0  0  0
    5.2404   -0.9790    2.4442 H   0  0  0  0  0  0  0  0  0  0  0  0
    7.4876   -1.2583    3.3694 H   0  0  0  0  0  0  0  0  0  0  0  0
    6.9773   -2.6575    2.3363 H   0  0  0  0  0  0  0  0  0  0  0  0
    8.8135   -0.2962    1.4945 H   0  0  0  0  0  0  0  0  0  0  0  0
   10.4294   -1.7521    1.6444 H   0  0  0  0  0  0  0  0  0  0  0  0
    7.9471   -2.8509   -0.0242 H   0  0  0  0  0  0  0  0  0  0  0  0
   10.5160   -2.2506   -2.3040 H   0  0  0  0  0  0  0  0  0  0  0  0
    9.8606   -3.4642   -1.1579 H   0  0  0  0  0  0  0  0  0  0  0  0
    8.7694   -2.6580   -2.3859 H   0  0  0  0  0  0  0  0  0  0  0  0
    7.3559    0.1375   -0.5399 H   0  0  0  0  0  0  0  0  0  0  0  0
    6.8655   -1.2191   -1.5994 H   0  0  0  0  0  0  0  0  0  0  0  0
    1.4551    2.2074   -1.7790 H   0  0  0  0  0  0  0  0  0  0  0  0
    3.1181    3.8626   -1.1418 H   0  0  0  0  0  0  0  0  0  0  0  0
    4.0111    2.7078   -0.1056 H   0  0  0  0  0  0  0  0  0  0  0  0
    3.9686    2.4635   -1.9036 H   0  0  0  0  0  0  0  0  0  0  0  0
    0.4328    1.7301    0.6115 H   0  0  0  0  0  0  0  0  0  0  0  0
    1.7582    3.3234    2.1264 H   0  0  0  0  0  0  0  0  0  0  0  0
    0.0934    3.8442   -0.9247 H   0  0  0  0  0  0  0  0  0  0  0  0
    1.1895    4.6532    0.2415 H   0  0  0  0  0  0  0  0  0  0  0  0
   -3.7336   -2.3356    1.7239 H   0  0  0  0  0  0  0  0  0  0  0  0
   -2.2411   -4.3174    1.9441 H   0  0  0  0  0  0  0  0  0  0  0  0
   -3.9834   -4.6450    2.1501 H   0  0  0  0  0  0  0  0  0  0  0  0
   -3.1761   -5.1155    0.6131 H   0  0  0  0  0  0  0  0  0  0  0  0
   -4.9983   -3.9691   -0.4877 H   0  0  0  0  0  0  0  0  0  0  0  0
   -5.7786   -2.9664    0.7560 H   0  0  0  0  0  0  0  0  0  0  0  0
   -6.1384   -1.5475   -0.9702 H   0  0  0  0  0  0  0  0  0  0  0  0
   -6.4749   -3.0108   -2.7858 H   0  0  0  0  0  0  0  0  0  0  0  0
   -5.3136   -2.7232   -4.1209 H   0  0  0  0  0  0  0  0  0  0  0  0
   -6.0899   -1.2896   -3.3432 H   0  0  0  0  0  0  0  0  0  0  0  0
  1  2  1  0
  2  3  1  0
  3  4  1  0
  4  5  2  0
  5  6  1  0
  5  7  1  0
  7  8  1  0
  8  9  1  0
  8 10  1  0
 10 11  1  0
 11 12  1  0
 12 13  1  0
 11 14  1  0
 14 15  1  0
 15 16  1  0
 16 17  1  6
 16 18  1  0
 18 19  2  0
 18 20  1  0
 20 21  2  0
 20 22  1  0
 22 23  1  0
 23 24  1  0
 24 25  1  0
 25 26  1  0
 26 27  1  0
 27 28  1  0
 28 29  2  0
 28 30  1  0
 30 31  1  0
 31 32  1  0
 32 33  1  0
 32 34  2  0
 34 35  1  0
 35 36  1  0
 36 37  1  0
 37 38  1  0
 38 39  1  0
 38 40  1  0
 40 41  1  0
 41 42  1  0
 40 43  1  0
 31 44  1  0
 44 45  1  0
 44 46  1  0
 46 47  1  0
 46 48  1  0
 48 49  1  0
 49 50  2  0
 16 51  1  0
 51 52  1  0
 51 53  1  0
 53 54  1  0
 54 55  1  0
 55 56  1  0
 49  3  1  0
 54 14  1  0
 27 22  1  0
 43 35  1  0
  1 57  1  0
  1 58  1  0
  1 59  1  0
  2 60  1  0
  2 61  1  0
  3 62  1  6
  4 63  1  0
  6 64  1  0
  6 65  1  0
  6 66  1  0
  7 67  1  0
  7 68  1  0
  8 69  1  6
  9 70  1  0
  9 71  1  0
  9 72  1  0
 10 73  1  0
 10 74  1  0
 11 75  1  1
 13 76  1  0
 13 77  1  0
 13 78  1  0
 14 79  1  6
 17 80  1  0
 23 81  1  0
 23 82  1  0
 24 83  1  0
 24 84  1  0
 25 85  1  0
 25 86  1  0
 26 87  1  0
 26 88  1  0
 27 89  1  1
 31 90  1  6
 33 91  1  0
 33 92  1  0
 33 93  1  0
 34 94  1  0
 35 95  1  1
 36 96  1  0
 36 97  1  0
 37 98  1  0
 37 99  1  0
 38100  1  6
 39101  1  0
 40102  1  1
 42103  1  0
 42104  1  0
 42105  1  0
 43106  1  0
 43107  1  0
 44108  1  6
 45109  1  0
 45110  1  0
 45111  1  0
 46112  1  1
 47113  1  0
 48114  1  0
 48115  1  0
 51116  1  1
 52117  1  0
 52118  1  0
 52119  1  0
 53120  1  0
 53121  1  0
 54122  1  6
 56123  1  0
 56124  1  0
 56125  1  0
M  END
$$$$
