
     RDKit          3D

 72 75  0  0  0  0  0  0  0  0999 V2000
    4.4951    0.3852    3.3502 C   0  0  0  0  0  0  0  0  0  0  0  0
    3.7447   -0.2891    2.3657 O   0  0  0  0  0  0  0  0  0  0  0  0
    4.4666   -0.3758    1.1441 C   0  0  1  0  0  0  0  0  0  0  0  0
    4.8024   -1.8525    0.8832 C   0  0  0  0  0  0  0  0  0  0  0  0
    3.5322   -2.6881    0.6318 C   0  0  0  0  0  0  0  0  0  0  0  0
    2.4204   -1.8295   -0.0114 C   0  0  2  0  0  0  0  0  0  0  0  0
    1.4474   -2.6660   -0.8626 C   0  0  0  0  0  0  0  0  0  0  0  0
    0.3615   -3.3437   -0.0073 C   0  0  0  0  0  0  0  0  0  0  0  0
   -0.8696   -3.5278   -0.7870 N   0  0  0  0  0  0  0  0  0  0  0  0
   -1.1738   -4.8525   -1.3403 C   0  0  0  0  0  0  0  0  0  0  0  0
   -1.8327   -2.4584   -0.9663 C   0  0  0  0  0  0  0  0  0  0  0  0
   -2.9883   -2.7440   -1.3914 O   0  0  0  0  0  0  0  0  0  0  0  0
   -1.4883   -0.9939   -0.7398 C   0  0  0  0  0  0  0  0  0  0  0  0
   -2.5536   -0.2407    0.0978 C   0  0  2  0  0  0  0  0  0  0  0  0
   -3.8724   -0.1068   -0.6537 C   0  0  0  0  0  0  0  0  0  0  0  0
   -5.0544   -0.6405   -0.1050 C   0  0  0  0  0  0  0  0  0  0  0  0
   -6.2673   -0.5321   -0.7929 C   0  0  0  0  0  0  0  0  0  0  0  0
   -6.3172    0.1126   -2.0312 C   0  0  0  0  0  0  0  0  0  0  0  0
   -5.1550    0.6563   -2.5818 C   0  0  0  0  0  0  0  0  0  0  0  0
   -3.9397    0.5537   -1.8984 C   0  0  0  0  0  0  0  0  0  0  0  0
   -2.0636    1.1685    0.5234 C   0  0  0  0  0  0  0  0  0  0  0  0
   -0.8672    1.1714    1.3937 N   0  0  0  0  0  0  0  0  0  0  0  0
   -0.7753    0.2251    2.5142 C   0  0  0  0  0  0  0  0  0  0  0  0
   -0.0717    2.3781    1.4548 C   0  0  0  0  0  0  0  0  0  0  0  0
    0.4162    2.7634    2.5520 O   0  0  0  0  0  0  0  0  0  0  0  0
    0.1632    3.2028    0.2567 C   0  0  0  0  0  0  0  0  0  0  0  0
   -0.5360    4.4158    0.1461 C   0  0  0  0  0  0  0  0  0  0  0  0
   -0.4629    5.1718   -1.0274 C   0  0  0  0  0  0  0  0  0  0  0  0
   -1.1846    6.4130   -1.1335 C   0  0  0  0  0  0  0  0  0  0  0  0
   -1.7627    7.4120   -1.2197 N   0  0  0  0  0  0  0  0  0  0  0  0
    0.3045    4.7150   -2.1024 C   0  0  0  0  0  0  0  0  0  0  0  0
    1.0219    3.5230   -1.9937 C   0  0  0  0  0  0  0  0  0  0  0  0
    0.9905    2.7733   -0.8118 C   0  0  0  0  0  0  0  0  0  0  0  0
    1.7957    1.6245   -0.7559 O   0  0  0  0  0  0  0  0  0  0  0  0
    2.5893    1.2548    0.3694 C   0  0  0  0  0  0  0  0  0  0  0  0
    3.6180    0.1851   -0.0477 C   0  0  2  0  0  0  0  0  0  0  0  0
    2.9974   -0.8304   -0.8294 O   0  0  0  0  0  0  0  0  0  0  0  0
    5.4542   -0.1425    3.5529 H   0  0  0  0  0  0  0  0  0  0  0  0
    3.9105    0.4015    4.2929 H   0  0  0  0  0  0  0  0  0  0  0  0
    4.6831    1.4403    3.0504 H   0  0  0  0  0  0  0  0  0  0  0  0
    5.4331    0.1887    1.1611 H   0  0  0  0  0  0  0  0  0  0  0  0
    5.3659   -2.2726    1.7443 H   0  0  0  0  0  0  0  0  0  0  0  0
    5.4610   -1.9168   -0.0119 H   0  0  0  0  0  0  0  0  0  0  0  0
    3.8033   -3.5482   -0.0199 H   0  0  0  0  0  0  0  0  0  0  0  0
    3.1585   -3.1021    1.5952 H   0  0  0  0  0  0  0  0  0  0  0  0
    1.8285   -1.3532    0.8023 H   0  0  0  0  0  0  0  0  0  0  0  0
    0.9683   -1.9949   -1.6079 H   0  0  0  0  0  0  0  0  0  0  0  0
    1.9921   -3.4315   -1.4575 H   0  0  0  0  0  0  0  0  0  0  0  0
    0.1193   -2.7683    0.9115 H   0  0  0  0  0  0  0  0  0  0  0  0
    0.7528   -4.3195    0.3547 H   0  0  0  0  0  0  0  0  0  0  0  0
   -1.3720   -4.7674   -2.4294 H   0  0  0  0  0  0  0  0  0  0  0  0
   -2.0694   -5.2729   -0.8378 H   0  0  0  0  0  0  0  0  0  0  0  0
   -0.3285   -5.5591   -1.2013 H   0  0  0  0  0  0  0  0  0  0  0  0
   -0.5175   -0.8906   -0.2258 H   0  0  0  0  0  0  0  0  0  0  0  0
   -1.3565   -0.5090   -1.7295 H   0  0  0  0  0  0  0  0  0  0  0  0
   -2.7411   -0.8323    1.0190 H   0  0  0  0  0  0  0  0  0  0  0  0
   -5.0363   -1.1531    0.8498 H   0  0  0  0  0  0  0  0  0  0  0  0
   -7.1685   -0.9556   -0.3675 H   0  0  0  0  0  0  0  0  0  0  0  0
   -7.2577    0.1942   -2.5625 H   0  0  0  0  0  0  0  0  0  0  0  0
   -5.1953    1.1590   -3.5401 H   0  0  0  0  0  0  0  0  0  0  0  0
   -3.0543    0.9898   -2.3445 H   0  0  0  0  0  0  0  0  0  0  0  0
   -1.8620    1.7525   -0.3988 H   0  0  0  0  0  0  0  0  0  0  0  0
   -2.8855    1.6872    1.0649 H   0  0  0  0  0  0  0  0  0  0  0  0
    0.1855    0.3380    3.0604 H   0  0  0  0  0  0  0  0  0  0  0  0
   -1.6110    0.3962    3.2203 H   0  0  0  0  0  0  0  0  0  0  0  0
   -0.8033   -0.8188    2.1525 H   0  0  0  0  0  0  0  0  0  0  0  0
   -1.1627    4.7526    0.9646 H   0  0  0  0  0  0  0  0  0  0  0  0
    0.3554    5.2856   -3.0215 H   0  0  0  0  0  0  0  0  0  0  0  0
    1.6287    3.1902   -2.8258 H   0  0  0  0  0  0  0  0  0  0  0  0
    3.1229    2.1477    0.7609 H   0  0  0  0  0  0  0  0  0  0  0  0
    1.9366    0.8544    1.1631 H   0  0  0  0  0  0  0  0  0  0  0  0
    4.3315    0.6965   -0.7317 H   0  0  0  0  0  0  0  0  0  0  0  0
  1  2  1  0
  2  3  1  0
  3  4  1  0
  4  5  1  0
  5  6  1  0
  6  7  1  0
  7  8  1  0
  8  9  1  0
  9 10  1  0
  9 11  1  0
 11 12  2  0
 11 13  1  0
 13 14  1  0
 14 15  1  0
 15 16  2  0
 16 17  1  0
 17 18  2  0
 18 19  1  0
 19 20  2  0
 14 21  1  0
 21 22  1  0
 22 23  1  0
 22 24  1  0
 24 25  2  0
 24 26  1  0
 26 27  2  0
 27 28  1  0
 28 29  1  0
 29 30  3  0
 28 31  2  0
 31 32  1  0
 32 33  2  0
 33 34  1  0
 34 35  1  0
 35 36  1  0
 36 37  1  0
 36  3  1  0
 37  6  1  0
 20 15  1  0
 33 26  1  0
  1 38  1  0
  1 39  1  0
  1 40  1  0
  3 41  1  1
  4 42  1  0
  4 43  1  0
  5 44  1  0
  5 45  1  0
  6 46  1  1
  7 47  1  0
  7 48  1  0
  8 49  1  0
  8 50  1  0
 10 51  1  0
 10 52  1  0
 10 53  1  0
 13 54  1  0
 13 55  1  0
 14 56  1  1
 16 57  1  0
 17 58  1  0
 18 59  1  0
 19 60  1  0
 20 61  1  0
 21 62  1  0
 21 63  1  0
 23 64  1  0
 23 65  1  0
 23 66  1  0
 27 67  1  0
 31 68  1  0
 32 69  1  0
 35 70  1  0
 35 71  1  0
 36 72  1  6
M  END
$$$$
