
     RDKit          3D

 69 71  0  0  0  0  0  0  0  0999 V2000
    8.5454    1.2582    2.6489 C   0  0  0  0  0  0  0  0  0  0  0  0
    7.2996    0.9453    1.8744 C   0  0  0  0  0  0  0  0  0  0  0  0
    7.3449    0.8196    0.4776 C   0  0  0  0  0  0  0  0  0  0  0  0
    6.1763    0.5632   -0.2463 C   0  0  0  0  0  0  0  0  0  0  0  0
    4.9440    0.4323    0.4200 C   0  0  0  0  0  0  0  0  0  0  0  0
    3.7443    0.1856   -0.2626 O   0  0  0  0  0  0  0  0  0  0  0  0
    3.6215   -0.5267   -1.4644 C   0  0  0  0  0  0  0  0  0  0  0  0
    4.5655   -1.2584   -1.8718 O   0  0  0  0  0  0  0  0  0  0  0  0
    2.3893   -0.4659   -2.2066 N   0  0  0  0  0  0  0  0  0  0  0  0
    2.2603   -1.2165   -3.4593 C   0  0  0  0  0  0  0  0  0  0  0  0
    1.2675    0.3424   -1.7086 C   0  0  0  0  0  0  0  0  0  0  0  0
    0.5105   -0.4062   -0.5966 C   0  0  2  0  0  0  0  0  0  0  0  0
    0.0446   -1.6344   -1.1492 O   0  0  0  0  0  0  0  0  0  0  0  0
   -0.0207   -2.7025   -0.2163 C   0  0  0  0  0  0  0  0  0  0  0  0
   -1.4398   -3.1776   -0.1268 C   0  0  0  0  0  0  0  0  0  0  0  0
   -2.3455   -2.8404    0.8565 C   0  0  0  0  0  0  0  0  0  0  0  0
   -3.5601   -3.1239    0.3641 N   0  0  0  0  0  0  0  0  0  0  0  0
   -3.4134   -3.6516   -0.8409 N   0  0  0  0  0  0  0  0  0  0  0  0
   -2.1293   -3.6835   -1.1721 N   0  0  0  0  0  0  0  0  0  0  0  0
   -4.8360   -2.7757    0.9865 C   0  0  0  0  0  0  0  0  0  0  0  0
   -5.7188   -1.8988    0.0761 C   0  0  0  0  0  0  0  0  0  0  0  0
   -5.0000   -0.7419   -0.6504 C   0  0  0  0  0  0  0  0  0  0  0  0
   -4.2523    0.2155    0.2490 C   0  0  0  0  0  0  0  0  0  0  0  0
   -4.6796    0.4448    1.4118 O   0  0  0  0  0  0  0  0  0  0  0  0
   -3.1352    0.9749   -0.2666 N   0  0  0  0  0  0  0  0  0  0  0  0
   -3.2422    2.4353   -0.4629 C   0  0  1  0  0  0  0  0  0  0  0  0
   -4.4346    2.7683   -1.3694 C   0  0  0  0  0  0  0  0  0  0  0  0
   -3.3332    3.1828    0.8806 C   0  0  0  0  0  0  0  0  0  0  0  0
   -3.2668    4.5696    0.6811 O   0  0  0  0  0  0  0  0  0  0  0  0
   -1.9848    0.2554   -0.8378 C   0  0  0  0  0  0  0  0  0  0  0  0
   -0.6641    0.4843   -0.0527 C   0  0  1  0  0  0  0  0  0  0  0  0
   -0.8103    0.3139    1.4715 C   0  0  0  0  0  0  0  0  0  0  0  0
    4.8971    0.5984    1.8088 C   0  0  0  0  0  0  0  0  0  0  0  0
    6.0652    0.8530    2.5333 C   0  0  0  0  0  0  0  0  0  0  0  0
    8.6296    2.3569    2.7849 H   0  0  0  0  0  0  0  0  0  0  0  0
    8.5149    0.7699    3.6462 H   0  0  0  0  0  0  0  0  0  0  0  0
    9.4468    0.8896    2.1138 H   0  0  0  0  0  0  0  0  0  0  0  0
    8.2834    0.9254   -0.0522 H   0  0  0  0  0  0  0  0  0  0  0  0
    6.2350    0.5010   -1.3241 H   0  0  0  0  0  0  0  0  0  0  0  0
    2.4238   -2.2978   -3.2655 H   0  0  0  0  0  0  0  0  0  0  0  0
    3.0140   -0.8566   -4.1914 H   0  0  0  0  0  0  0  0  0  0  0  0
    1.2500   -1.0964   -3.9041 H   0  0  0  0  0  0  0  0  0  0  0  0
    1.6530    1.3145   -1.3294 H   0  0  0  0  0  0  0  0  0  0  0  0
    0.5659    0.5832   -2.5367 H   0  0  0  0  0  0  0  0  0  0  0  0
    1.2608   -0.5722    0.2113 H   0  0  0  0  0  0  0  0  0  0  0  0
    0.5981   -3.5374   -0.6061 H   0  0  0  0  0  0  0  0  0  0  0  0
    0.3676   -2.4678    0.7985 H   0  0  0  0  0  0  0  0  0  0  0  0
   -2.1604   -2.3613    1.8056 H   0  0  0  0  0  0  0  0  0  0  0  0
   -4.6556   -2.2387    1.9433 H   0  0  0  0  0  0  0  0  0  0  0  0
   -5.3844   -3.7097    1.2333 H   0  0  0  0  0  0  0  0  0  0  0  0
   -6.1805   -2.5514   -0.6966 H   0  0  0  0  0  0  0  0  0  0  0  0
   -6.5519   -1.4836    0.6844 H   0  0  0  0  0  0  0  0  0  0  0  0
   -5.7675   -0.1540   -1.1975 H   0  0  0  0  0  0  0  0  0  0  0  0
   -4.3300   -1.1608   -1.4266 H   0  0  0  0  0  0  0  0  0  0  0  0
   -2.3296    2.8024   -0.9840 H   0  0  0  0  0  0  0  0  0  0  0  0
   -4.3626    2.1885   -2.3141 H   0  0  0  0  0  0  0  0  0  0  0  0
   -4.4349    3.8492   -1.6241 H   0  0  0  0  0  0  0  0  0  0  0  0
   -5.3944    2.5199   -0.8685 H   0  0  0  0  0  0  0  0  0  0  0  0
   -4.2928    2.9515    1.3866 H   0  0  0  0  0  0  0  0  0  0  0  0
   -2.5093    2.8630    1.5548 H   0  0  0  0  0  0  0  0  0  0  0  0
   -2.3159    4.7855    0.4932 H   0  0  0  0  0  0  0  0  0  0  0  0
   -2.2088   -0.8180   -0.8809 H   0  0  0  0  0  0  0  0  0  0  0  0
   -1.8453    0.5756   -1.8930 H   0  0  0  0  0  0  0  0  0  0  0  0
   -0.3993    1.5558   -0.1962 H   0  0  0  0  0  0  0  0  0  0  0  0
   -0.7078   -0.7366    1.7811 H   0  0  0  0  0  0  0  0  0  0  0  0
   -1.7773    0.6943    1.8511 H   0  0  0  0  0  0  0  0  0  0  0  0
   -0.0015    0.8783    1.9829 H   0  0  0  0  0  0  0  0  0  0  0  0
    3.9507    0.5224    2.3295 H   0  0  0  0  0  0  0  0  0  0  0  0
    6.0072    0.9769    3.6079 H   0  0  0  0  0  0  0  0  0  0  0  0
  1  2  1  0
  2  3  2  0
  3  4  1  0
  4  5  2  0
  5  6  1  0
  6  7  1  0
  7  8  2  0
  7  9  1  0
  9 10  1  0
  9 11  1  0
 11 12  1  0
 12 13  1  0
 13 14  1  0
 14 15  1  0
 15 16  2  0
 16 17  1  0
 17 18  1  0
 18 19  2  0
 17 20  1  0
 20 21  1  0
 21 22  1  0
 22 23  1  0
 23 24  2  0
 23 25  1  0
 25 26  1  0
 26 27  1  0
 26 28  1  0
 28 29  1  0
 25 30  1  0
 30 31  1  0
 31 32  1  0
  5 33  1  0
 33 34  2  0
 34  2  1  0
 31 12  1  0
 19 15  1  0
  1 35  1  0
  1 36  1  0
  1 37  1  0
  3 38  1  0
  4 39  1  0
 10 40  1  0
 10 41  1  0
 10 42  1  0
 11 43  1  0
 11 44  1  0
 12 45  1  1
 14 46  1  0
 14 47  1  0
 16 48  1  0
 20 49  1  0
 20 50  1  0
 21 51  1  0
 21 52  1  0
 22 53  1  0
 22 54  1  0
 26 55  1  6
 27 56  1  0
 27 57  1  0
 27 58  1  0
 28 59  1  0
 28 60  1  0
 29 61  1  0
 30 62  1  0
 30 63  1  0
 31 64  1  1
 32 65  1  0
 32 66  1  0
 32 67  1  0
 33 68  1  0
 34 69  1  0
M  END
$$$$
