
     RDKit          3D

 98101  0  0  0  0  0  0  0  0999 V2000
    1.5490   -2.0967    2.6151 C   0  0  0  0  0  0  0  0  0  0  0  0
    1.4967   -1.3425    1.2740 C   0  0  1  0  0  0  0  0  0  0  0  0
    0.7270   -0.0129    1.4686 C   0  0  0  0  0  0  0  0  0  0  0  0
    0.3303    0.6163    0.1944 N   0  0  0  0  0  0  0  0  0  0  0  0
    0.6592    2.0489   -0.0040 C   0  0  2  0  0  0  0  0  0  0  0  0
   -0.5503    2.9166    0.3572 C   0  0  0  0  0  0  0  0  0  0  0  0
    1.1623    2.3822   -1.4226 C   0  0  0  0  0  0  0  0  0  0  0  0
    2.1918    1.5118   -1.7922 O   0  0  0  0  0  0  0  0  0  0  0  0
   -0.6422   -0.0501   -0.6507 C   0  0  0  0  0  0  0  0  0  0  0  0
   -0.6191    0.1209   -1.8976 O   0  0  0  0  0  0  0  0  0  0  0  0
   -1.6919   -0.9314   -0.0944 C   0  0  0  0  0  0  0  0  0  0  0  0
   -2.7418   -0.3539    0.6364 C   0  0  0  0  0  0  0  0  0  0  0  0
   -3.8429   -1.1275    1.0280 C   0  0  0  0  0  0  0  0  0  0  0  0
   -4.9426   -0.5407    1.7391 N   0  0  0  0  0  0  0  0  0  0  0  0
   -5.6624    0.5977    1.2423 C   0  0  0  0  0  0  0  0  0  0  0  0
   -5.2382    1.2357    0.2398 O   0  0  0  0  0  0  0  0  0  0  0  0
   -6.8771    1.0029    1.8895 N   0  0  0  0  0  0  0  0  0  0  0  0
   -7.9979    1.5944    1.2053 C   0  0  0  0  0  0  0  0  0  0  0  0
   -8.9475    2.3175    1.9418 C   0  0  0  0  0  0  0  0  0  0  0  0
  -10.0805    2.8493    1.3174 C   0  0  0  0  0  0  0  0  0  0  0  0
  -10.3010    2.6390   -0.0548 C   0  0  0  0  0  0  0  0  0  0  0  0
  -11.5042    3.2232   -0.7509 C   0  0  0  0  0  0  0  0  0  0  0  0
  -12.0034    2.3187   -1.6740 F   0  0  0  0  0  0  0  0  0  0  0  0
  -11.1331    4.3817   -1.4106 F   0  0  0  0  0  0  0  0  0  0  0  0
  -12.5106    3.5203    0.1541 F   0  0  0  0  0  0  0  0  0  0  0  0
   -9.3450    1.9266   -0.7956 C   0  0  0  0  0  0  0  0  0  0  0  0
   -8.2099    1.3994   -0.1722 C   0  0  0  0  0  0  0  0  0  0  0  0
   -3.8809   -2.4893    0.7051 C   0  0  0  0  0  0  0  0  0  0  0  0
   -2.8426   -3.0727   -0.0241 C   0  0  0  0  0  0  0  0  0  0  0  0
   -1.7269   -2.3089   -0.4104 C   0  0  0  0  0  0  0  0  0  0  0  0
   -0.6284   -2.8717   -1.0840 O   0  0  0  0  0  0  0  0  0  0  0  0
   -0.5786   -4.1205   -1.7793 C   0  0  2  0  0  0  0  0  0  0  0  0
   -0.3535   -5.3098   -0.8296 C   0  0  0  0  0  0  0  0  0  0  0  0
    0.5061   -4.0287   -2.8817 C   0  0  0  0  0  0  0  0  0  0  0  0
    1.9847   -4.2248   -2.4575 C   0  0  0  0  0  0  0  0  0  0  0  0
    2.5269   -3.3064   -1.3433 C   0  0  0  0  0  0  0  0  0  0  0  0
    2.3275   -1.8021   -1.6314 C   0  0  0  0  0  0  0  0  0  0  0  0
    2.9377   -0.8824   -0.7330 O   0  0  0  0  0  0  0  0  0  0  0  0
    2.9322   -1.2342    0.6455 C   0  0  1  0  0  0  0  0  0  0  0  0
    3.8329   -0.2221    1.3823 C   0  0  0  0  0  0  0  0  0  0  0  0
    5.2003   -0.2605    0.8371 N   0  0  0  0  0  0  0  0  0  0  0  0
    6.0779   -1.3913    1.1530 C   0  0  0  0  0  0  0  0  0  0  0  0
    5.6114    0.6667   -0.1804 C   0  0  0  0  0  0  0  0  0  0  0  0
    6.2025    0.2393   -1.2101 O   0  0  0  0  0  0  0  0  0  0  0  0
    5.3705    2.1446   -0.0325 C   0  0  0  0  0  0  0  0  0  0  0  0
    6.6469    2.9067   -0.2570 C   0  0  0  0  0  0  0  0  0  0  0  0
    6.9080    3.5104   -1.4993 C   0  0  0  0  0  0  0  0  0  0  0  0
    8.1166    4.1783   -1.7169 C   0  0  0  0  0  0  0  0  0  0  0  0
    9.0746    4.2414   -0.6993 C   0  0  0  0  0  0  0  0  0  0  0  0
    8.8266    3.6329    0.5350 C   0  0  0  0  0  0  0  0  0  0  0  0
    7.6191    2.9640    0.7562 C   0  0  0  0  0  0  0  0  0  0  0  0
    2.0465   -1.4900    3.4002 H   0  0  0  0  0  0  0  0  0  0  0  0
    0.5171   -2.3302    2.9576 H   0  0  0  0  0  0  0  0  0  0  0  0
    2.0908   -3.0603    2.5046 H   0  0  0  0  0  0  0  0  0  0  0  0
    0.8805   -1.9793    0.6227 H   0  0  0  0  0  0  0  0  0  0  0  0
    1.3170    0.6762    2.1061 H   0  0  0  0  0  0  0  0  0  0  0  0
   -0.1948   -0.2103    2.0570 H   0  0  0  0  0  0  0  0  0  0  0  0
    1.4853    2.3426    0.6825 H   0  0  0  0  0  0  0  0  0  0  0  0
   -1.3849    2.7394   -0.3546 H   0  0  0  0  0  0  0  0  0  0  0  0
   -0.2742    3.9917    0.3249 H   0  0  0  0  0  0  0  0  0  0  0  0
   -0.8940    2.6739    1.3853 H   0  0  0  0  0  0  0  0  0  0  0  0
    1.5536    3.4253   -1.4294 H   0  0  0  0  0  0  0  0  0  0  0  0
    0.3355    2.3408   -2.1619 H   0  0  0  0  0  0  0  0  0  0  0  0
    2.4660    1.7815   -2.7081 H   0  0  0  0  0  0  0  0  0  0  0  0
   -2.7167    0.7028    0.8767 H   0  0  0  0  0  0  0  0  0  0  0  0
   -5.3912   -1.1018    2.4985 H   0  0  0  0  0  0  0  0  0  0  0  0
   -6.9680    0.8039    2.9134 H   0  0  0  0  0  0  0  0  0  0  0  0
   -8.8072    2.4721    3.0040 H   0  0  0  0  0  0  0  0  0  0  0  0
  -10.7860    3.4173    1.9105 H   0  0  0  0  0  0  0  0  0  0  0  0
   -9.4832    1.7643   -1.8572 H   0  0  0  0  0  0  0  0  0  0  0  0
   -7.5195    0.8138   -0.7639 H   0  0  0  0  0  0  0  0  0  0  0  0
   -4.7335   -3.0920    0.9960 H   0  0  0  0  0  0  0  0  0  0  0  0
   -2.9311   -4.1151   -0.2884 H   0  0  0  0  0  0  0  0  0  0  0  0
   -1.5510   -4.2721   -2.3015 H   0  0  0  0  0  0  0  0  0  0  0  0
   -1.2525   -5.5199   -0.2187 H   0  0  0  0  0  0  0  0  0  0  0  0
   -0.1303   -6.2263   -1.4178 H   0  0  0  0  0  0  0  0  0  0  0  0
    0.4845   -5.1213   -0.1287 H   0  0  0  0  0  0  0  0  0  0  0  0
    0.4014   -3.0551   -3.4068 H   0  0  0  0  0  0  0  0  0  0  0  0
    0.2836   -4.8067   -3.6450 H   0  0  0  0  0  0  0  0  0  0  0  0
    2.6190   -4.0842   -3.3603 H   0  0  0  0  0  0  0  0  0  0  0  0
    2.1314   -5.2796   -2.1433 H   0  0  0  0  0  0  0  0  0  0  0  0
    2.0572   -3.5949   -0.3872 H   0  0  0  0  0  0  0  0  0  0  0  0
    3.6170   -3.5025   -1.2453 H   0  0  0  0  0  0  0  0  0  0  0  0
    2.7546   -1.5965   -2.6374 H   0  0  0  0  0  0  0  0  0  0  0  0
    1.2620   -1.5580   -1.7191 H   0  0  0  0  0  0  0  0  0  0  0  0
    3.4436   -2.2119    0.7755 H   0  0  0  0  0  0  0  0  0  0  0  0
    3.8715   -0.4426    2.4695 H   0  0  0  0  0  0  0  0  0  0  0  0
    3.4045    0.7929    1.2688 H   0  0  0  0  0  0  0  0  0  0  0  0
    7.0700   -1.0131    1.4824 H   0  0  0  0  0  0  0  0  0  0  0  0
    5.6513   -2.0100    1.9695 H   0  0  0  0  0  0  0  0  0  0  0  0
    6.2053   -2.0333    0.2536 H   0  0  0  0  0  0  0  0  0  0  0  0
    5.0000    2.3777    0.9878 H   0  0  0  0  0  0  0  0  0  0  0  0
    4.5861    2.4618   -0.7520 H   0  0  0  0  0  0  0  0  0  0  0  0
    6.1779    3.4589   -2.2980 H   0  0  0  0  0  0  0  0  0  0  0  0
    8.3121    4.6457   -2.6738 H   0  0  0  0  0  0  0  0  0  0  0  0
   10.0097    4.7593   -0.8685 H   0  0  0  0  0  0  0  0  0  0  0  0
    9.5733    3.6732    1.3184 H   0  0  0  0  0  0  0  0  0  0  0  0
    7.4431    2.4860    1.7136 H   0  0  0  0  0  0  0  0  0  0  0  0
  1  2  1  0
  2  3  1  0
  3  4  1  0
  4  5  1  0
  5  6  1  0
  5  7  1  0
  7  8  1  0
  4  9  1  0
  9 10  2  0
  9 11  1  0
 11 12  2  0
 12 13  1  0
 13 14  1  0
 14 15  1  0
 15 16  2  0
 15 17  1  0
 17 18  1  0
 18 19  2  0
 19 20  1  0
 20 21  2  0
 21 22  1  0
 22 23  1  0
 22 24  1  0
 22 25  1  0
 21 26  1  0
 26 27  2  0
 13 28  2  0
 28 29  1  0
 29 30  2  0
 30 31  1  0
 31 32  1  0
 32 33  1  0
 32 34  1  0
 34 35  1  0
 35 36  1  0
 36 37  1  0
 37 38  1  0
 38 39  1  0
 39 40  1  0
 40 41  1  0
 41 42  1  0
 41 43  1  0
 43 44  2  0
 43 45  1  0
 45 46  1  0
 46 47  2  0
 47 48  1  0
 48 49  2  0
 49 50  1  0
 50 51  2  0
 39  2  1  0
 51 46  1  0
 30 11  1  0
 27 18  1  0
  1 52  1  0
  1 53  1  0
  1 54  1  0
  2 55  1  6
  3 56  1  0
  3 57  1  0
  5 58  1  1
  6 59  1  0
  6 60  1  0
  6 61  1  0
  7 62  1  0
  7 63  1  0
  8 64  1  0
 12 65  1  0
 14 66  1  0
 17 67  1  0
 19 68  1  0
 20 69  1  0
 26 70  1  0
 27 71  1  0
 28 72  1  0
 29 73  1  0
 32 74  1  6
 33 75  1  0
 33 76  1  0
 33 77  1  0
 34 78  1  0
 34 79  1  0
 35 80  1  0
 35 81  1  0
 36 82  1  0
 36 83  1  0
 37 84  1  0
 37 85  1  0
 39 86  1  6
 40 87  1  0
 40 88  1  0
 42 89  1  0
 42 90  1  0
 42 91  1  0
 45 92  1  0
 45 93  1  0
 47 94  1  0
 48 95  1  0
 49 96  1  0
 50 97  1  0
 51 98  1  0
M  END
$$$$
