
     RDKit          3D

101103  0  0  0  0  0  0  0  0999 V2000
   -0.1878   -6.1877    0.9642 C   0  0  0  0  0  0  0  0  0  0  0  0
   -0.3144   -4.8192    1.6356 C   0  0  1  0  0  0  0  0  0  0  0  0
    1.0391   -4.3487    2.2175 C   0  0  0  0  0  0  0  0  0  0  0  0
    2.0166   -3.8259    1.1471 C   0  0  0  0  0  0  0  0  0  0  0  0
    3.2823   -3.2015    1.7745 C   0  0  0  0  0  0  0  0  0  0  0  0
    3.6152   -1.8220    1.1807 C   0  0  0  0  0  0  0  0  0  0  0  0
    2.9241   -0.7986    1.8901 O   0  0  0  0  0  0  0  0  0  0  0  0
    2.3553    0.2019    1.0485 C   0  0  2  0  0  0  0  0  0  0  0  0
    3.1087    1.5513    1.2376 C   0  0  0  0  0  0  0  0  0  0  0  0
    4.5276    1.5684    0.8157 N   0  0  0  0  0  0  0  0  0  0  0  0
    5.4679    0.9815    1.7920 C   0  0  0  0  0  0  0  0  0  0  0  0
    4.7557    1.1468   -0.5803 C   0  0  0  0  0  0  0  0  0  0  0  0
    6.0621    1.7055   -1.0839 C   0  0  0  0  0  0  0  0  0  0  0  0
    6.2147    3.0880   -1.2698 C   0  0  0  0  0  0  0  0  0  0  0  0
    7.4452    3.6118   -1.6764 C   0  0  0  0  0  0  0  0  0  0  0  0
    8.5354    2.7608   -1.9304 C   0  0  0  0  0  0  0  0  0  0  0  0
    9.8727    3.3397   -2.3203 C   0  0  0  0  0  0  0  0  0  0  0  0
   10.6055    2.4259   -3.0561 F   0  0  0  0  0  0  0  0  0  0  0  0
   10.5801    3.6619   -1.1774 F   0  0  0  0  0  0  0  0  0  0  0  0
    9.7031    4.4823   -3.0852 F   0  0  0  0  0  0  0  0  0  0  0  0
    8.3856    1.3787   -1.7193 C   0  0  0  0  0  0  0  0  0  0  0  0
    7.1567    0.8561   -1.3088 C   0  0  0  0  0  0  0  0  0  0  0  0
    0.8395    0.4149    1.4158 C   0  0  2  0  0  0  0  0  0  0  0  0
    0.2385   -0.6998    2.2771 C   0  0  0  0  0  0  0  0  0  0  0  0
   -0.0599    0.7528    0.1947 C   0  0  0  0  0  0  0  0  0  0  0  0
   -0.0062   -0.2357   -0.9155 N   0  0  0  0  0  0  0  0  0  0  0  0
    0.6345    0.1901   -2.1869 C   0  0  1  0  0  0  0  0  0  0  0  0
    1.6635   -0.8283   -2.7167 C   0  0  0  0  0  0  0  0  0  0  0  0
   -0.4340    0.4927   -3.2527 C   0  0  0  0  0  0  0  0  0  0  0  0
   -1.3254    1.4759   -2.7974 O   0  0  0  0  0  0  0  0  0  0  0  0
   -0.7266   -1.5023   -0.8616 C   0  0  0  0  0  0  0  0  0  0  0  0
   -0.4069   -2.4351   -1.6471 O   0  0  0  0  0  0  0  0  0  0  0  0
   -1.8489   -1.7680    0.0748 C   0  0  0  0  0  0  0  0  0  0  0  0
   -2.9362   -0.8779    0.1604 C   0  0  0  0  0  0  0  0  0  0  0  0
   -3.9899   -1.1284    1.0565 C   0  0  0  0  0  0  0  0  0  0  0  0
   -5.0791   -0.2091    1.2149 N   0  0  0  0  0  0  0  0  0  0  0  0
   -5.8243    0.3477    0.1160 C   0  0  0  0  0  0  0  0  0  0  0  0
   -5.4019    0.2358   -1.0678 O   0  0  0  0  0  0  0  0  0  0  0  0
   -7.1422    1.0235    0.4024 C   0  0  0  0  0  0  0  0  0  0  0  0
   -7.8653    1.5204   -0.8624 C   0  0  0  0  0  0  0  0  0  0  0  0
   -9.3305    1.9431   -0.5816 C   0  0  0  0  0  0  0  0  0  0  0  0
   -9.5464    3.3927   -0.3669 N   0  0  0  0  0  0  0  0  0  0  0  0
   -8.7843    3.9436    0.7624 C   0  0  0  0  0  0  0  0  0  0  0  0
   -9.3572    4.1961   -1.5848 C   0  0  0  0  0  0  0  0  0  0  0  0
   -3.9626   -2.2847    1.8461 C   0  0  0  0  0  0  0  0  0  0  0  0
   -2.9281   -3.2090    1.7184 C   0  0  0  0  0  0  0  0  0  0  0  0
   -1.8593   -2.9608    0.8373 C   0  0  0  0  0  0  0  0  0  0  0  0
   -0.8047   -3.8776    0.6706 O   0  0  0  0  0  0  0  0  0  0  0  0
    0.4921   -6.1389    0.0869 H   0  0  0  0  0  0  0  0  0  0  0  0
   -1.1895   -6.5302    0.6160 H   0  0  0  0  0  0  0  0  0  0  0  0
    0.2054   -6.9372    1.6806 H   0  0  0  0  0  0  0  0  0  0  0  0
   -1.0079   -4.9406    2.4894 H   0  0  0  0  0  0  0  0  0  0  0  0
    1.5218   -5.1840    2.7744 H   0  0  0  0  0  0  0  0  0  0  0  0
    0.8393   -3.5480    2.9618 H   0  0  0  0  0  0  0  0  0  0  0  0
    1.5095   -3.0862    0.4965 H   0  0  0  0  0  0  0  0  0  0  0  0
    2.3184   -4.6679    0.4855 H   0  0  0  0  0  0  0  0  0  0  0  0
    3.1977   -3.1094    2.8837 H   0  0  0  0  0  0  0  0  0  0  0  0
    4.1396   -3.8875    1.5759 H   0  0  0  0  0  0  0  0  0  0  0  0
    3.4428   -1.8521    0.0834 H   0  0  0  0  0  0  0  0  0  0  0  0
    4.7006   -1.6616    1.3191 H   0  0  0  0  0  0  0  0  0  0  0  0
    2.4027   -0.0527   -0.0237 H   0  0  0  0  0  0  0  0  0  0  0  0
    2.5754    2.3368    0.6590 H   0  0  0  0  0  0  0  0  0  0  0  0
    3.0361    1.8664    2.3022 H   0  0  0  0  0  0  0  0  0  0  0  0
    6.0791    0.1664    1.3463 H   0  0  0  0  0  0  0  0  0  0  0  0
    6.1704    1.7780    2.1262 H   0  0  0  0  0  0  0  0  0  0  0  0
    4.9526    0.5844    2.6977 H   0  0  0  0  0  0  0  0  0  0  0  0
    3.9406    1.5274   -1.2355 H   0  0  0  0  0  0  0  0  0  0  0  0
    4.7457    0.0390   -0.6606 H   0  0  0  0  0  0  0  0  0  0  0  0
    5.3865    3.7606   -1.0836 H   0  0  0  0  0  0  0  0  0  0  0  0
    7.5503    4.6838   -1.7857 H   0  0  0  0  0  0  0  0  0  0  0  0
    9.2190    0.7027   -1.8654 H   0  0  0  0  0  0  0  0  0  0  0  0
    7.0617   -0.2113   -1.1548 H   0  0  0  0  0  0  0  0  0  0  0  0
    0.7652    1.3074    2.0766 H   0  0  0  0  0  0  0  0  0  0  0  0
    0.3068   -1.6596    1.7511 H   0  0  0  0  0  0  0  0  0  0  0  0
    0.7820   -0.7851    3.2437 H   0  0  0  0  0  0  0  0  0  0  0  0
   -0.8253   -0.4855    2.5164 H   0  0  0  0  0  0  0  0  0  0  0  0
    0.2461    1.7591   -0.1677 H   0  0  0  0  0  0  0  0  0  0  0  0
   -1.1026    0.9079    0.5348 H   0  0  0  0  0  0  0  0  0  0  0  0
    1.2101    1.1291   -2.0212 H   0  0  0  0  0  0  0  0  0  0  0  0
    1.1851   -1.6037   -3.3508 H   0  0  0  0  0  0  0  0  0  0  0  0
    2.1954   -1.3301   -1.8831 H   0  0  0  0  0  0  0  0  0  0  0  0
    2.4176   -0.3048   -3.3443 H   0  0  0  0  0  0  0  0  0  0  0  0
   -1.0119   -0.4286   -3.4825 H   0  0  0  0  0  0  0  0  0  0  0  0
    0.0510    0.8313   -4.1969 H   0  0  0  0  0  0  0  0  0  0  0  0
   -0.8325    2.3380   -2.8267 H   0  0  0  0  0  0  0  0  0  0  0  0
   -2.9523    0.0125   -0.4564 H   0  0  0  0  0  0  0  0  0  0  0  0
   -5.4995   -0.1186    2.1686 H   0  0  0  0  0  0  0  0  0  0  0  0
   -6.9518    1.8763    1.0899 H   0  0  0  0  0  0  0  0  0  0  0  0
   -7.7880    0.2887    0.9356 H   0  0  0  0  0  0  0  0  0  0  0  0
   -7.2832    2.3425   -1.3260 H   0  0  0  0  0  0  0  0  0  0  0  0
   -7.8949    0.6849   -1.5987 H   0  0  0  0  0  0  0  0  0  0  0  0
   -9.9601    1.6140   -1.4380 H   0  0  0  0  0  0  0  0  0  0  0  0
   -9.7376    1.3845    0.2889 H   0  0  0  0  0  0  0  0  0  0  0  0
   -8.9019    3.3006    1.6614 H   0  0  0  0  0  0  0  0  0  0  0  0
   -7.7043    4.0404    0.5130 H   0  0  0  0  0  0  0  0  0  0  0  0
   -9.1785    4.9513    1.0248 H   0  0  0  0  0  0  0  0  0  0  0  0
   -8.2817    4.2908   -1.8519 H   0  0  0  0  0  0  0  0  0  0  0  0
   -9.7732    5.2168   -1.4239 H   0  0  0  0  0  0  0  0  0  0  0  0
   -9.9107    3.7481   -2.4381 H   0  0  0  0  0  0  0  0  0  0  0  0
   -4.7727   -2.4907    2.5367 H   0  0  0  0  0  0  0  0  0  0  0  0
   -2.9940   -4.1250    2.2878 H   0  0  0  0  0  0  0  0  0  0  0  0
  1  2  1  0
  2  3  1  0
  3  4  1  0
  4  5  1  0
  5  6  1  0
  6  7  1  0
  7  8  1  0
  8  9  1  0
  9 10  1  0
 10 11  1  0
 10 12  1  0
 12 13  1  0
 13 14  2  0
 14 15  1  0
 15 16  2  0
 16 17  1  0
 17 18  1  0
 17 19  1  0
 17 20  1  0
 16 21  1  0
 21 22  2  0
  8 23  1  0
 23 24  1  0
 23 25  1  0
 25 26  1  0
 26 27  1  0
 27 28  1  0
 27 29  1  0
 29 30  1  0
 26 31  1  0
 31 32  2  0
 31 33  1  0
 33 34  2  0
 34 35  1  0
 35 36  1  0
 36 37  1  0
 37 38  2  0
 37 39  1  0
 39 40  1  0
 40 41  1  0
 41 42  1  0
 42 43  1  0
 42 44  1  0
 35 45  2  0
 45 46  1  0
 46 47  2  0
 47 48  1  0
 48  2  1  0
 22 13  1  0
 47 33  1  0
  1 49  1  0
  1 50  1  0
  1 51  1  0
  2 52  1  1
  3 53  1  0
  3 54  1  0
  4 55  1  0
  4 56  1  0
  5 57  1  0
  5 58  1  0
  6 59  1  0
  6 60  1  0
  8 61  1  6
  9 62  1  0
  9 63  1  0
 11 64  1  0
 11 65  1  0
 11 66  1  0
 12 67  1  0
 12 68  1  0
 14 69  1  0
 15 70  1  0
 21 71  1  0
 22 72  1  0
 23 73  1  1
 24 74  1  0
 24 75  1  0
 24 76  1  0
 25 77  1  0
 25 78  1  0
 27 79  1  1
 28 80  1  0
 28 81  1  0
 28 82  1  0
 29 83  1  0
 29 84  1  0
 30 85  1  0
 34 86  1  0
 36 87  1  0
 39 88  1  0
 39 89  1  0
 40 90  1  0
 40 91  1  0
 41 92  1  0
 41 93  1  0
 43 94  1  0
 43 95  1  0
 43 96  1  0
 44 97  1  0
 44 98  1  0
 44 99  1  0
 45100  1  0
 46101  1  0
M  END
$$$$
