
     RDKit          3D

 75 78  0  0  0  0  0  0  0  0999 V2000
    5.8778   -0.2286   -3.8257 C   0  0  0  0  0  0  0  0  0  0  0  0
    5.4796    0.4010   -2.5283 C   0  0  0  0  0  0  0  0  0  0  0  0
    6.1667    0.0922   -1.3474 C   0  0  0  0  0  0  0  0  0  0  0  0
    5.7590    0.6726   -0.1449 C   0  0  0  0  0  0  0  0  0  0  0  0
    4.6515    1.5283   -0.1222 C   0  0  0  0  0  0  0  0  0  0  0  0
    4.1981    2.1488    1.1281 C   0  0  0  0  0  0  0  0  0  0  0  0
    4.6310    3.2904    1.4371 O   0  0  0  0  0  0  0  0  0  0  0  0
    3.2716    1.4736    1.9977 N   0  0  0  0  0  0  0  0  0  0  0  0
    2.1169    2.2546    2.4901 C   0  0  0  0  0  0  0  0  0  0  0  0
    0.8204    1.4268    2.4927 C   0  0  0  0  0  0  0  0  0  0  0  0
   -0.4376    2.2488    2.2057 C   0  0  0  0  0  0  0  0  0  0  0  0
   -1.7428    1.4134    2.2749 C   0  0  0  0  0  0  0  0  0  0  0  0
   -1.8782    0.1816    1.3058 C   0  0  0  0  0  0  0  0  0  0  0  0
   -3.3744   -0.2804    1.2807 C   0  0  0  0  0  0  0  0  0  0  0  0
   -4.1641    0.3434    0.1207 C   0  0  0  0  0  0  0  0  0  0  0  0
   -3.6027   -0.0137   -1.2101 N   0  0  0  0  0  0  0  0  0  0  0  0
   -4.3150   -1.1476   -1.8323 C   0  0  0  0  0  0  0  0  0  0  0  0
   -5.7069   -0.7579   -2.2441 C   0  0  0  0  0  0  0  0  0  0  0  0
   -5.9314    0.3780   -3.0381 C   0  0  0  0  0  0  0  0  0  0  0  0
   -7.2392    0.7187   -3.3897 C   0  0  0  0  0  0  0  0  0  0  0  0
   -8.3035   -0.0787   -2.9624 C   0  0  0  0  0  0  0  0  0  0  0  0
   -8.0414   -1.2074   -2.1834 C   0  0  0  0  0  0  0  0  0  0  0  0
   -6.7620   -1.5189   -1.8451 N   0  0  0  0  0  0  0  0  0  0  0  0
   -2.1420   -0.2717   -1.1969 C   0  0  0  0  0  0  0  0  0  0  0  0
   -1.4292    0.5759   -0.1386 C   0  0  0  0  0  0  0  0  0  0  0  0
   -1.0686   -0.9957    1.8474 C   0  0  0  0  0  0  0  0  0  0  0  0
   -1.3489   -1.4579    2.9892 O   0  0  0  0  0  0  0  0  0  0  0  0
   -0.0351   -1.5772    1.0953 O   0  0  0  0  0  0  0  0  0  0  0  0
    0.6723   -2.7457    1.5165 C   0  0  0  0  0  0  0  0  0  0  0  0
    2.0918   -2.8016    0.9026 C   0  0  0  0  0  0  0  0  0  0  0  0
    2.0403   -3.2256   -0.4376 O   0  0  0  0  0  0  0  0  0  0  0  0
    2.9104   -1.4819    1.0361 C   0  0  0  0  0  0  0  0  0  0  0  0
    2.3636   -0.4891    0.2078 O   0  0  0  0  0  0  0  0  0  0  0  0
    2.9731   -0.9967    2.5060 C   0  0  0  0  0  0  0  0  0  0  0  0
    3.7702    0.3014    2.7469 C   0  0  0  0  0  0  0  0  0  0  0  0
    3.9887    1.8097   -1.3235 C   0  0  0  0  0  0  0  0  0  0  0  0
    4.4104    1.2413   -2.4860 N   0  0  0  0  0  0  0  0  0  0  0  0
    6.9813   -0.3365   -3.8822 H   0  0  0  0  0  0  0  0  0  0  0  0
    5.5406    0.3992   -4.6777 H   0  0  0  0  0  0  0  0  0  0  0  0
    5.4097   -1.2327   -3.9061 H   0  0  0  0  0  0  0  0  0  0  0  0
    7.0119   -0.5827   -1.3623 H   0  0  0  0  0  0  0  0  0  0  0  0
    6.3123    0.4574    0.7586 H   0  0  0  0  0  0  0  0  0  0  0  0
    2.3267    2.6296    3.5156 H   0  0  0  0  0  0  0  0  0  0  0  0
    1.9707    3.1439    1.8374 H   0  0  0  0  0  0  0  0  0  0  0  0
    0.9002    0.6869    1.6897 H   0  0  0  0  0  0  0  0  0  0  0  0
    0.7100    0.9166    3.4731 H   0  0  0  0  0  0  0  0  0  0  0  0
   -0.3466    2.7345    1.2122 H   0  0  0  0  0  0  0  0  0  0  0  0
   -0.5073    3.0640    2.9598 H   0  0  0  0  0  0  0  0  0  0  0  0
   -2.5781    2.1196    2.0672 H   0  0  0  0  0  0  0  0  0  0  0  0
   -1.8887    1.0798    3.3265 H   0  0  0  0  0  0  0  0  0  0  0  0
   -3.4454   -1.3862    1.1607 H   0  0  0  0  0  0  0  0  0  0  0  0
   -3.8812   -0.0395    2.2426 H   0  0  0  0  0  0  0  0  0  0  0  0
   -5.2311    0.0446    0.2141 H   0  0  0  0  0  0  0  0  0  0  0  0
   -4.1501    1.4488    0.2256 H   0  0  0  0  0  0  0  0  0  0  0  0
   -4.3464   -2.0135   -1.1319 H   0  0  0  0  0  0  0  0  0  0  0  0
   -3.7826   -1.4794   -2.7520 H   0  0  0  0  0  0  0  0  0  0  0  0
   -5.1054    0.9956   -3.3693 H   0  0  0  0  0  0  0  0  0  0  0  0
   -7.4262    1.6011   -3.9872 H   0  0  0  0  0  0  0  0  0  0  0  0
   -9.3215    0.1795   -3.2285 H   0  0  0  0  0  0  0  0  0  0  0  0
   -8.8541   -1.8339   -1.8422 H   0  0  0  0  0  0  0  0  0  0  0  0
   -1.9215   -1.3464   -1.0014 H   0  0  0  0  0  0  0  0  0  0  0  0
   -1.7253   -0.0194   -2.1967 H   0  0  0  0  0  0  0  0  0  0  0  0
   -1.6893    1.6379   -0.3447 H   0  0  0  0  0  0  0  0  0  0  0  0
   -0.3305    0.4884   -0.2721 H   0  0  0  0  0  0  0  0  0  0  0  0
    0.7649   -2.7699    2.6245 H   0  0  0  0  0  0  0  0  0  0  0  0
    0.0961   -3.6502    1.2220 H   0  0  0  0  0  0  0  0  0  0  0  0
    2.6487   -3.5868    1.4607 H   0  0  0  0  0  0  0  0  0  0  0  0
    1.4013   -2.6374   -0.9171 H   0  0  0  0  0  0  0  0  0  0  0  0
    3.9591   -1.6932    0.7154 H   0  0  0  0  0  0  0  0  0  0  0  0
    2.6889   -0.6635   -0.7136 H   0  0  0  0  0  0  0  0  0  0  0  0
    1.9664   -0.8887    2.9411 H   0  0  0  0  0  0  0  0  0  0  0  0
    3.4623   -1.7974    3.1020 H   0  0  0  0  0  0  0  0  0  0  0  0
    3.7417    0.5312    3.8338 H   0  0  0  0  0  0  0  0  0  0  0  0
    4.8360    0.1037    2.5105 H   0  0  0  0  0  0  0  0  0  0  0  0
    3.1321    2.4710   -1.3355 H   0  0  0  0  0  0  0  0  0  0  0  0
  1  2  1  0
  2  3  2  0
  3  4  1  0
  4  5  2  0
  5  6  1  0
  6  7  2  0
  6  8  1  0
  8  9  1  0
  9 10  1  0
 10 11  1  0
 11 12  1  0
 12 13  1  0
 13 14  1  0
 14 15  1  0
 15 16  1  0
 16 17  1  0
 17 18  1  0
 18 19  2  0
 19 20  1  0
 20 21  2  0
 21 22  1  0
 22 23  2  0
 16 24  1  0
 24 25  1  0
 13 26  1  0
 26 27  2  0
 26 28  1  0
 28 29  1  0
 29 30  1  0
 30 31  1  0
 30 32  1  0
 32 33  1  0
 32 34  1  0
 34 35  1  0
  5 36  1  0
 36 37  2  0
 37  2  1  0
 35  8  1  0
 25 13  1  0
 23 18  1  0
  1 38  1  0
  1 39  1  0
  1 40  1  0
  3 41  1  0
  4 42  1  0
  9 43  1  0
  9 44  1  0
 10 45  1  0
 10 46  1  0
 11 47  1  0
 11 48  1  0
 12 49  1  0
 12 50  1  0
 14 51  1  0
 14 52  1  0
 15 53  1  0
 15 54  1  0
 17 55  1  0
 17 56  1  0
 19 57  1  0
 20 58  1  0
 21 59  1  0
 22 60  1  0
 24 61  1  0
 24 62  1  0
 25 63  1  0
 25 64  1  0
 29 65  1  0
 29 66  1  0
 30 67  1  0
 31 68  1  0
 32 69  1  0
 33 70  1  0
 34 71  1  0
 34 72  1  0
 35 73  1  0
 35 74  1  0
 36 75  1  0
M  END
$$$$
