
     RDKit          3D

 60 62  0  0  0  0  0  0  0  0999 V2000
    5.9279    0.6145    1.6289 C   0  0  0  0  0  0  0  0  0  0  0  0
    4.8072   -0.2874    1.1050 C   0  0  0  0  0  0  0  0  0  0  0  0
    4.3252    0.1137   -0.2708 C   0  0  0  0  0  0  0  0  0  0  0  0
    5.1069    0.7293   -1.0492 O   0  0  0  0  0  0  0  0  0  0  0  0
    2.9894   -0.2104   -0.7184 N   0  0  0  0  0  0  0  0  0  0  0  0
    2.2693   -1.3637   -0.1454 C   0  0  0  0  0  0  0  0  0  0  0  0
    1.5611   -2.2189   -1.2212 C   0  0  0  0  0  0  0  0  0  0  0  0
    0.0374   -2.0018   -1.2306 C   0  0  0  0  0  0  0  0  0  0  0  0
   -0.6663   -2.7841   -0.0990 C   0  0  0  0  0  0  0  0  0  0  0  0
   -2.0589   -2.2187    0.3361 C   0  0  0  0  0  0  0  0  0  0  0  0
   -2.6845   -3.2289    1.3403 C   0  0  0  0  0  0  0  0  0  0  0  0
   -2.9670   -4.4540    0.7142 O   0  0  0  0  0  0  0  0  0  0  0  0
   -1.8633   -0.8569    1.0973 C   0  0  0  0  0  0  0  0  0  0  0  0
   -2.9100    0.1803    0.7115 C   0  0  0  0  0  0  0  0  0  0  0  0
   -2.8366    0.4019   -0.7388 N   0  0  0  0  0  0  0  0  0  0  0  0
   -2.9803   -0.7485   -1.6428 C   0  0  0  0  0  0  0  0  0  0  0  0
   -3.0406   -2.0907   -0.8866 C   0  0  0  0  0  0  0  0  0  0  0  0
   -2.5491    1.6998   -1.2997 C   0  0  0  0  0  0  0  0  0  0  0  0
   -2.7350    1.9113   -2.5268 O   0  0  0  0  0  0  0  0  0  0  0  0
   -1.9968    2.7866   -0.4742 C   0  0  0  0  0  0  0  0  0  0  0  0
   -2.8595    3.7626    0.0444 C   0  0  0  0  0  0  0  0  0  0  0  0
   -2.3610    4.7762    0.8653 C   0  0  0  0  0  0  0  0  0  0  0  0
   -1.0000    4.8220    1.1709 C   0  0  0  0  0  0  0  0  0  0  0  0
   -0.1310    3.8610    0.6489 C   0  0  0  0  0  0  0  0  0  0  0  0
   -0.6188    2.8350   -0.1862 C   0  0  0  0  0  0  0  0  0  0  0  0
    0.2325    1.8675   -0.7500 O   0  0  0  0  0  0  0  0  0  0  0  0
    1.6547    1.8837   -0.6408 C   0  0  0  0  0  0  0  0  0  0  0  0
    2.2697    0.7891   -1.5274 C   0  0  0  0  0  0  0  0  0  0  0  0
    6.8413    0.4981    1.0005 H   0  0  0  0  0  0  0  0  0  0  0  0
    5.5996    1.6795    1.6248 H   0  0  0  0  0  0  0  0  0  0  0  0
    6.1842    0.3282    2.6746 H   0  0  0  0  0  0  0  0  0  0  0  0
    5.1744   -1.3373    1.0737 H   0  0  0  0  0  0  0  0  0  0  0  0
    3.9557   -0.2267    1.8178 H   0  0  0  0  0  0  0  0  0  0  0  0
    1.5595   -0.9974    0.6264 H   0  0  0  0  0  0  0  0  0  0  0  0
    2.9808   -2.0360    0.3752 H   0  0  0  0  0  0  0  0  0  0  0  0
    1.9759   -1.9949   -2.2274 H   0  0  0  0  0  0  0  0  0  0  0  0
    1.7710   -3.2971   -1.0437 H   0  0  0  0  0  0  0  0  0  0  0  0
   -0.1734   -0.9176   -1.1633 H   0  0  0  0  0  0  0  0  0  0  0  0
   -0.3603   -2.3575   -2.2068 H   0  0  0  0  0  0  0  0  0  0  0  0
   -0.0090   -2.8124    0.7994 H   0  0  0  0  0  0  0  0  0  0  0  0
   -0.7711   -3.8385   -0.4392 H   0  0  0  0  0  0  0  0  0  0  0  0
   -1.9889   -3.4029    2.1916 H   0  0  0  0  0  0  0  0  0  0  0  0
   -3.6265   -2.8061    1.7594 H   0  0  0  0  0  0  0  0  0  0  0  0
   -3.3892   -5.0256    1.4074 H   0  0  0  0  0  0  0  0  0  0  0  0
   -1.8910   -0.9942    2.2028 H   0  0  0  0  0  0  0  0  0  0  0  0
   -0.8649   -0.4101    0.8940 H   0  0  0  0  0  0  0  0  0  0  0  0
   -2.7315    1.1109    1.2912 H   0  0  0  0  0  0  0  0  0  0  0  0
   -3.9271   -0.1801    0.9813 H   0  0  0  0  0  0  0  0  0  0  0  0
   -3.9131   -0.6293   -2.2373 H   0  0  0  0  0  0  0  0  0  0  0  0
   -2.1379   -0.7635   -2.3637 H   0  0  0  0  0  0  0  0  0  0  0  0
   -2.8735   -2.9187   -1.6096 H   0  0  0  0  0  0  0  0  0  0  0  0
   -4.0905   -2.2026   -0.5297 H   0  0  0  0  0  0  0  0  0  0  0  0
   -3.9197    3.7289   -0.1780 H   0  0  0  0  0  0  0  0  0  0  0  0
   -3.0301    5.5240    1.2703 H   0  0  0  0  0  0  0  0  0  0  0  0
   -0.6183    5.6035    1.8164 H   0  0  0  0  0  0  0  0  0  0  0  0
    0.9172    3.9225    0.9037 H   0  0  0  0  0  0  0  0  0  0  0  0
    1.9432    1.7452    0.4239 H   0  0  0  0  0  0  0  0  0  0  0  0
    2.0353    2.8708   -0.9812 H   0  0  0  0  0  0  0  0  0  0  0  0
    1.4884    0.3106   -2.1507 H   0  0  0  0  0  0  0  0  0  0  0  0
    2.9670    1.2562   -2.2585 H   0  0  0  0  0  0  0  0  0  0  0  0
  1  2  1  0
  2  3  1  0
  3  4  2  0
  3  5  1  0
  5  6  1  0
  6  7  1  0
  7  8  1  0
  8  9  1  0
  9 10  1  0
 10 11  1  0
 11 12  1  0
 10 13  1  0
 13 14  1  0
 14 15  1  0
 15 16  1  0
 16 17  1  0
 15 18  1  0
 18 19  2  0
 18 20  1  0
 20 21  2  0
 21 22  1  0
 22 23  2  0
 23 24  1  0
 24 25  2  0
 25 26  1  0
 26 27  1  0
 27 28  1  0
 28  5  1  0
 17 10  1  0
 25 20  1  0
  1 29  1  0
  1 30  1  0
  1 31  1  0
  2 32  1  0
  2 33  1  0
  6 34  1  0
  6 35  1  0
  7 36  1  0
  7 37  1  0
  8 38  1  0
  8 39  1  0
  9 40  1  0
  9 41  1  0
 11 42  1  0
 11 43  1  0
 12 44  1  0
 13 45  1  0
 13 46  1  0
 14 47  1  0
 14 48  1  0
 16 49  1  0
 16 50  1  0
 17 51  1  0
 17 52  1  0
 21 53  1  0
 22 54  1  0
 23 55  1  0
 24 56  1  0
 27 57  1  0
 27 58  1  0
 28 59  1  0
 28 60  1  0
M  END
$$$$
