
     RDKit          3D

 82 85  0  0  0  0  0  0  0  0999 V2000
    8.2640    2.6044    1.1479 C   0  0  0  0  0  0  0  0  0  0  0  0
    8.3526    1.2452    1.5015 O   0  0  0  0  0  0  0  0  0  0  0  0
    7.0657    0.7440    1.7852 C   0  0  0  0  0  0  0  0  0  0  0  0
    7.1865   -0.7097    2.2345 C   0  0  0  0  0  0  0  0  0  0  0  0
    5.9175   -1.2121    2.6531 O   0  0  0  0  0  0  0  0  0  0  0  0
    4.8681   -1.6019    1.8046 C   0  0  0  0  0  0  0  0  0  0  0  0
    3.6335   -1.9244    2.3881 C   0  0  0  0  0  0  0  0  0  0  0  0
    2.5636   -2.3424    1.5902 C   0  0  0  0  0  0  0  0  0  0  0  0
    2.7120   -2.4436    0.2030 C   0  0  0  0  0  0  0  0  0  0  0  0
    3.9415   -2.1369   -0.3990 C   0  0  0  0  0  0  0  0  0  0  0  0
    4.0858   -2.2126   -1.8948 C   0  0  0  0  0  0  0  0  0  0  0  0
    3.5629   -0.9890   -2.4955 N   0  0  0  0  0  0  0  0  0  0  0  0
    2.2689   -0.9280   -3.1141 C   0  0  0  0  0  0  0  0  0  0  0  0
    1.6503   -1.9899   -3.3926 O   0  0  0  0  0  0  0  0  0  0  0  0
    1.6690    0.3889   -3.5037 C   0  0  0  0  0  0  0  0  0  0  0  0
    0.2958    0.5403   -2.8995 C   0  0  0  0  0  0  0  0  0  0  0  0
   -0.8544    0.2245   -3.6391 C   0  0  0  0  0  0  0  0  0  0  0  0
   -2.1249    0.4165   -3.0869 C   0  0  0  0  0  0  0  0  0  0  0  0
   -2.2589    0.9051   -1.7766 C   0  0  0  0  0  0  0  0  0  0  0  0
   -1.1079    1.1495   -1.0039 C   0  0  0  0  0  0  0  0  0  0  0  0
    0.1644    0.9793   -1.5754 C   0  0  0  0  0  0  0  0  0  0  0  0
   -1.2283    1.7058    0.3944 C   0  0  0  0  0  0  0  0  0  0  0  0
   -1.5701    0.6670    1.3973 N   0  0  0  0  0  0  0  0  0  0  0  0
   -0.7909   -0.5856    1.4341 C   0  0  0  0  0  0  0  0  0  0  0  0
   -1.4485   -1.7022    0.6522 C   0  0  0  0  0  0  0  0  0  0  0  0
   -2.5407   -2.4132    1.1869 C   0  0  0  0  0  0  0  0  0  0  0  0
   -3.1654   -3.4197    0.4502 C   0  0  0  0  0  0  0  0  0  0  0  0
   -2.6888   -3.7492   -0.8254 C   0  0  0  0  0  0  0  0  0  0  0  0
   -1.5709   -3.0961   -1.3428 C   0  0  0  0  0  0  0  0  0  0  0  0
   -0.9503   -2.0848   -0.6059 C   0  0  0  0  0  0  0  0  0  0  0  0
   -2.9140    0.6358    2.0236 C   0  0  0  0  0  0  0  0  0  0  0  0
   -3.4235    2.0151    2.3492 C   0  0  0  0  0  0  0  0  0  0  0  0
   -2.6917    2.7870    3.0274 O   0  0  0  0  0  0  0  0  0  0  0  0
   -4.7007    2.4770    1.8885 N   0  0  0  0  0  0  0  0  0  0  0  0
   -5.8947    1.6441    1.9452 C   0  0  0  0  0  0  0  0  0  0  0  0
   -6.2712    1.0524    0.5766 C   0  0  0  0  0  0  0  0  0  0  0  0
   -6.6189    2.1211   -0.4776 C   0  0  0  0  0  0  0  0  0  0  0  0
   -5.4141    2.7061   -1.2253 C   0  0  0  0  0  0  0  0  0  0  0  0
   -4.6221    1.6635   -2.0215 C   0  0  0  0  0  0  0  0  0  0  0  0
   -3.5163    1.1966   -1.2397 O   0  0  0  0  0  0  0  0  0  0  0  0
    5.0110   -1.6953    0.4030 C   0  0  0  0  0  0  0  0  0  0  0  0
    9.2952    3.0003    1.0164 H   0  0  0  0  0  0  0  0  0  0  0  0
    7.7234    2.7178    0.1844 H   0  0  0  0  0  0  0  0  0  0  0  0
    7.7726    3.2004    1.9460 H   0  0  0  0  0  0  0  0  0  0  0  0
    6.5980    1.3166    2.6140 H   0  0  0  0  0  0  0  0  0  0  0  0
    6.4242    0.7918    0.8805 H   0  0  0  0  0  0  0  0  0  0  0  0
    7.8760   -0.7508    3.1016 H   0  0  0  0  0  0  0  0  0  0  0  0
    7.6304   -1.3501    1.4423 H   0  0  0  0  0  0  0  0  0  0  0  0
    3.5008   -1.8394    3.4642 H   0  0  0  0  0  0  0  0  0  0  0  0
    1.6141   -2.5849    2.0490 H   0  0  0  0  0  0  0  0  0  0  0  0
    1.8715   -2.7704   -0.3948 H   0  0  0  0  0  0  0  0  0  0  0  0
    5.1608   -2.3182   -2.1661 H   0  0  0  0  0  0  0  0  0  0  0  0
    3.5707   -3.1145   -2.2969 H   0  0  0  0  0  0  0  0  0  0  0  0
    4.0803   -0.0984   -2.2958 H   0  0  0  0  0  0  0  0  0  0  0  0
    1.6201    0.4539   -4.6153 H   0  0  0  0  0  0  0  0  0  0  0  0
    2.3238    1.2272   -3.1641 H   0  0  0  0  0  0  0  0  0  0  0  0
   -0.7683   -0.1453   -4.6543 H   0  0  0  0  0  0  0  0  0  0  0  0
   -3.0019    0.1958   -3.6860 H   0  0  0  0  0  0  0  0  0  0  0  0
    1.0529    1.1940   -0.9912 H   0  0  0  0  0  0  0  0  0  0  0  0
   -1.9812    2.5171    0.3579 H   0  0  0  0  0  0  0  0  0  0  0  0
   -0.2834    2.2088    0.7014 H   0  0  0  0  0  0  0  0  0  0  0  0
   -0.6656   -0.9098    2.4943 H   0  0  0  0  0  0  0  0  0  0  0  0
    0.2325   -0.4022    1.0547 H   0  0  0  0  0  0  0  0  0  0  0  0
   -2.9072   -2.1894    2.1795 H   0  0  0  0  0  0  0  0  0  0  0  0
   -4.0161   -3.9489    0.8642 H   0  0  0  0  0  0  0  0  0  0  0  0
   -3.1711   -4.5246   -1.4001 H   0  0  0  0  0  0  0  0  0  0  0  0
   -1.1946   -3.3570   -2.3241 H   0  0  0  0  0  0  0  0  0  0  0  0
   -0.0913   -1.5922   -1.0158 H   0  0  0  0  0  0  0  0  0  0  0  0
   -2.8451    0.0870    2.9941 H   0  0  0  0  0  0  0  0  0  0  0  0
   -3.6338    0.0887    1.3804 H   0  0  0  0  0  0  0  0  0  0  0  0
   -4.8635    3.5138    1.9335 H   0  0  0  0  0  0  0  0  0  0  0  0
   -5.7668    0.8196    2.6830 H   0  0  0  0  0  0  0  0  0  0  0  0
   -6.7497    2.2585    2.3084 H   0  0  0  0  0  0  0  0  0  0  0  0
   -5.4975    0.3589    0.2046 H   0  0  0  0  0  0  0  0  0  0  0  0
   -7.1818    0.4380    0.7382 H   0  0  0  0  0  0  0  0  0  0  0  0
   -7.1616    2.9567    0.0157 H   0  0  0  0  0  0  0  0  0  0  0  0
   -7.3122    1.6814   -1.2256 H   0  0  0  0  0  0  0  0  0  0  0  0
   -4.7466    3.2595   -0.5285 H   0  0  0  0  0  0  0  0  0  0  0  0
   -5.7966    3.4655   -1.9380 H   0  0  0  0  0  0  0  0  0  0  0  0
   -5.2586    0.8011   -2.3313 H   0  0  0  0  0  0  0  0  0  0  0  0
   -4.2459    2.1530   -2.9459 H   0  0  0  0  0  0  0  0  0  0  0  0
    5.9471   -1.4418   -0.0713 H   0  0  0  0  0  0  0  0  0  0  0  0
  1  2  1  0
  2  3  1  0
  3  4  1  0
  4  5  1  0
  5  6  1  0
  6  7  2  0
  7  8  1  0
  8  9  2  0
  9 10  1  0
 10 11  1  0
 11 12  1  0
 12 13  1  0
 13 14  2  0
 13 15  1  0
 15 16  1  0
 16 17  2  0
 17 18  1  0
 18 19  2  0
 19 20  1  0
 20 21  2  0
 20 22  1  0
 22 23  1  0
 23 24  1  0
 24 25  1  0
 25 26  2  0
 26 27  1  0
 27 28  2  0
 28 29  1  0
 29 30  2  0
 23 31  1  0
 31 32  1  0
 32 33  2  0
 32 34  1  0
 34 35  1  0
 35 36  1  0
 36 37  1  0
 37 38  1  0
 38 39  1  0
 39 40  1  0
 10 41  2  0
 41  6  1  0
 21 16  1  0
 30 25  1  0
 40 19  1  0
  1 42  1  0
  1 43  1  0
  1 44  1  0
  3 45  1  0
  3 46  1  0
  4 47  1  0
  4 48  1  0
  7 49  1  0
  8 50  1  0
  9 51  1  0
 11 52  1  0
 11 53  1  0
 12 54  1  0
 15 55  1  0
 15 56  1  0
 17 57  1  0
 18 58  1  0
 21 59  1  0
 22 60  1  0
 22 61  1  0
 24 62  1  0
 24 63  1  0
 26 64  1  0
 27 65  1  0
 28 66  1  0
 29 67  1  0
 30 68  1  0
 31 69  1  0
 31 70  1  0
 34 71  1  0
 35 72  1  0
 35 73  1  0
 36 74  1  0
 36 75  1  0
 37 76  1  0
 37 77  1  0
 38 78  1  0
 38 79  1  0
 39 80  1  0
 39 81  1  0
 41 82  1  0
M  END
$$$$
