
     RDKit          3D

 70 74  0  0  0  0  0  0  0  0999 V2000
   -0.9906    2.0489    0.4607 C   0  0  0  0  0  0  0  0  0  0  0  0
    0.0242    1.5436   -0.2622 C   0  0  0  0  0  0  0  0  0  0  0  0
   -0.0775    1.2111   -1.7297 C   0  0  0  0  0  0  0  0  0  0  0  0
   -0.9948    0.1476   -1.9424 O   0  0  0  0  0  0  0  0  0  0  0  0
   -0.3471   -1.1092   -2.0212 C   0  0  0  0  0  0  0  0  0  0  0  0
   -0.1258   -1.6975   -0.6472 C   0  0  0  0  0  0  0  0  0  0  0  0
   -1.1924   -2.3323    0.0139 C   0  0  0  0  0  0  0  0  0  0  0  0
   -1.0135   -2.8935    1.2917 C   0  0  0  0  0  0  0  0  0  0  0  0
    0.2501   -2.8301    1.8922 C   0  0  0  0  0  0  0  0  0  0  0  0
    1.3102   -2.1863    1.2539 C   0  0  0  0  0  0  0  0  0  0  0  0
    1.1324   -1.6068   -0.0174 C   0  0  0  0  0  0  0  0  0  0  0  0
    2.1761   -0.9377   -0.6768 O   0  0  0  0  0  0  0  0  0  0  0  0
    3.4749   -0.7183   -0.1331 C   0  0  0  0  0  0  0  0  0  0  0  0
    4.2821    0.1501   -1.1033 C   0  0  0  0  0  0  0  0  0  0  0  0
    5.7164    0.1916   -0.7416 N   0  0  0  0  0  0  0  0  0  0  0  0
    6.5278    0.7942   -1.8345 C   0  0  0  0  0  0  0  0  0  0  0  0
    6.8790    2.2660   -1.5725 C   0  0  0  0  0  0  0  0  0  0  0  0
    7.6930    2.4196   -0.2760 C   0  0  0  0  0  0  0  0  0  0  0  0
    7.3680    1.3281    0.7577 C   0  0  0  0  0  0  0  0  0  0  0  0
    5.9298    0.8240    0.5866 C   0  0  0  0  0  0  0  0  0  0  0  0
   -2.0617   -3.6210    1.9578 N   0  0  0  0  0  0  0  0  0  0  0  0
   -3.4669   -3.3575    1.8376 C   0  0  0  0  0  0  0  0  0  0  0  0
   -4.3595   -4.2553    2.3392 N   0  0  0  0  0  0  0  0  0  0  0  0
   -5.6955   -4.0210    2.2920 C   0  0  0  0  0  0  0  0  0  0  0  0
   -6.1739   -2.8405    1.7264 C   0  0  0  0  0  0  0  0  0  0  0  0
   -5.2485   -1.9122    1.2194 C   0  0  0  0  0  0  0  0  0  0  0  0
   -3.9177   -2.1906    1.2999 N   0  0  0  0  0  0  0  0  0  0  0  0
   -5.6905   -0.6301    0.6222 C   0  0  0  0  0  0  0  0  0  0  0  0
   -6.8680   -0.5576   -0.1446 C   0  0  0  0  0  0  0  0  0  0  0  0
   -7.2643    0.6528   -0.7182 C   0  0  0  0  0  0  0  0  0  0  0  0
   -6.4896    1.7999   -0.5389 C   0  0  0  0  0  0  0  0  0  0  0  0
   -5.3034    1.7481    0.2097 C   0  0  0  0  0  0  0  0  0  0  0  0
   -4.9190    0.5301    0.8027 C   0  0  0  0  0  0  0  0  0  0  0  0
   -4.5068    3.0188    0.4094 C   0  0  0  0  0  0  0  0  0  0  0  0
   -3.2057    2.7806    0.9150 O   0  0  0  0  0  0  0  0  0  0  0  0
   -2.3354    2.3862   -0.1257 C   0  0  0  0  0  0  0  0  0  0  0  0
   -0.8257    2.2295    1.5205 H   0  0  0  0  0  0  0  0  0  0  0  0
    0.9704    1.3642    0.2352 H   0  0  0  0  0  0  0  0  0  0  0  0
   -0.4477    2.1056   -2.2728 H   0  0  0  0  0  0  0  0  0  0  0  0
    0.9393    1.0164   -2.1408 H   0  0  0  0  0  0  0  0  0  0  0  0
    0.5914   -1.0770   -2.6209 H   0  0  0  0  0  0  0  0  0  0  0  0
   -1.0082   -1.7955   -2.5929 H   0  0  0  0  0  0  0  0  0  0  0  0
   -2.1460   -2.4213   -0.4903 H   0  0  0  0  0  0  0  0  0  0  0  0
    0.4128   -3.2822    2.8638 H   0  0  0  0  0  0  0  0  0  0  0  0
    2.2678   -2.1481    1.7558 H   0  0  0  0  0  0  0  0  0  0  0  0
    3.9868   -1.6959    0.0088 H   0  0  0  0  0  0  0  0  0  0  0  0
    3.3806   -0.1960    0.8442 H   0  0  0  0  0  0  0  0  0  0  0  0
    4.1634   -0.3008   -2.1140 H   0  0  0  0  0  0  0  0  0  0  0  0
    3.8537    1.1779   -1.1395 H   0  0  0  0  0  0  0  0  0  0  0  0
    7.4709    0.2122   -1.9350 H   0  0  0  0  0  0  0  0  0  0  0  0
    6.0224    0.7212   -2.8246 H   0  0  0  0  0  0  0  0  0  0  0  0
    5.9360    2.8529   -1.4934 H   0  0  0  0  0  0  0  0  0  0  0  0
    7.4598    2.6740   -2.4280 H   0  0  0  0  0  0  0  0  0  0  0  0
    7.4863    3.4222    0.1600 H   0  0  0  0  0  0  0  0  0  0  0  0
    8.7794    2.3777   -0.5108 H   0  0  0  0  0  0  0  0  0  0  0  0
    7.5093    1.7283    1.7859 H   0  0  0  0  0  0  0  0  0  0  0  0
    8.0662    0.4734    0.6260 H   0  0  0  0  0  0  0  0  0  0  0  0
    5.2346    1.6803    0.7450 H   0  0  0  0  0  0  0  0  0  0  0  0
    5.7320    0.0713    1.3786 H   0  0  0  0  0  0  0  0  0  0  0  0
   -1.7809   -4.3705    2.6284 H   0  0  0  0  0  0  0  0  0  0  0  0
   -6.3863   -4.7462    2.7087 H   0  0  0  0  0  0  0  0  0  0  0  0
   -7.2399   -2.6484    1.7099 H   0  0  0  0  0  0  0  0  0  0  0  0
   -7.4710   -1.4402   -0.3166 H   0  0  0  0  0  0  0  0  0  0  0  0
   -8.1727    0.7014   -1.3082 H   0  0  0  0  0  0  0  0  0  0  0  0
   -6.8123    2.7313   -0.9874 H   0  0  0  0  0  0  0  0  0  0  0  0
   -4.0239    0.4806    1.4085 H   0  0  0  0  0  0  0  0  0  0  0  0
   -4.4818    3.6140   -0.5341 H   0  0  0  0  0  0  0  0  0  0  0  0
   -5.0478    3.6402    1.1524 H   0  0  0  0  0  0  0  0  0  0  0  0
   -2.2051    3.2165   -0.8580 H   0  0  0  0  0  0  0  0  0  0  0  0
   -2.7296    1.4874   -0.6483 H   0  0  0  0  0  0  0  0  0  0  0  0
  1  2  2  3
  2  3  1  0
  3  4  1  0
  4  5  1  0
  5  6  1  0
  6  7  1  0
  7  8  2  0
  8  9  1  0
  9 10  2  0
 10 11  1  0
 11 12  1  0
 12 13  1  0
 13 14  1  0
 14 15  1  0
 15 16  1  0
 16 17  1  0
 17 18  1  0
 18 19  1  0
 19 20  1  0
  8 21  1  0
 21 22  1  0
 22 23  1  0
 23 24  2  0
 24 25  1  0
 25 26  2  0
 26 27  1  0
 26 28  1  0
 28 29  1  0
 29 30  2  0
 30 31  1  0
 31 32  2  0
 32 33  1  0
 32 34  1  0
 34 35  1  0
 35 36  1  0
 36  1  1  0
 11  6  2  0
 20 15  1  0
 27 22  2  0
 33 28  2  0
  1 37  1  0
  2 38  1  0
  3 39  1  0
  3 40  1  0
  5 41  1  0
  5 42  1  0
  7 43  1  0
  9 44  1  0
 10 45  1  0
 13 46  1  0
 13 47  1  0
 14 48  1  0
 14 49  1  0
 16 50  1  0
 16 51  1  0
 17 52  1  0
 17 53  1  0
 18 54  1  0
 18 55  1  0
 19 56  1  0
 19 57  1  0
 20 58  1  0
 20 59  1  0
 21 60  1  0
 24 61  1  0
 25 62  1  0
 29 63  1  0
 30 64  1  0
 31 65  1  0
 33 66  1  0
 34 67  1  0
 34 68  1  0
 36 69  1  0
 36 70  1  0
M  END
$$$$
