
     RDKit          3D

 60 63  0  0  0  0  0  0  0  0999 V2000
    0.8953   -3.5777   -0.9402 O   0  0  0  0  0  0  0  0  0  0  0  0
    1.0661   -2.5650   -0.2111 C   0  0  0  0  0  0  0  0  0  0  0  0
   -0.0142   -2.1333    0.7490 C   0  0  0  0  0  0  0  0  0  0  0  0
   -1.3930   -1.9492    0.0574 C   0  0  1  0  0  0  0  0  0  0  0  0
   -2.1635   -3.2592   -0.0335 C   0  0  0  0  0  0  0  0  0  0  0  0
   -2.5072   -3.9913    1.1219 C   0  0  0  0  0  0  0  0  0  0  0  0
   -3.2098   -5.1954    1.0168 C   0  0  0  0  0  0  0  0  0  0  0  0
   -3.5825   -5.6823   -0.2373 C   0  0  0  0  0  0  0  0  0  0  0  0
   -3.2557   -4.9645   -1.3894 C   0  0  0  0  0  0  0  0  0  0  0  0
   -2.5501   -3.7613   -1.2912 C   0  0  0  0  0  0  0  0  0  0  0  0
   -2.2189   -0.8658    0.7234 C   0  0  0  0  0  0  0  0  0  0  0  0
   -2.8287   -1.1050    1.7999 O   0  0  0  0  0  0  0  0  0  0  0  0
   -2.3438    0.4373    0.1308 N   0  0  0  0  0  0  0  0  0  0  0  0
   -1.1840    1.2904   -0.1629 C   0  0  2  0  0  0  0  0  0  0  0  0
   -1.3039    2.6088    0.5839 C   0  0  0  0  0  0  0  0  0  0  0  0
   -2.3999    3.4684    0.3684 C   0  0  0  0  0  0  0  0  0  0  0  0
   -2.4921    4.6848    1.0508 C   0  0  0  0  0  0  0  0  0  0  0  0
   -1.4965    5.0579    1.9559 C   0  0  0  0  0  0  0  0  0  0  0  0
   -0.4083    4.2126    2.1837 C   0  0  0  0  0  0  0  0  0  0  0  0
   -0.3114    2.9949    1.5035 C   0  0  0  0  0  0  0  0  0  0  0  0
   -1.0488    1.5157   -1.6867 C   0  0  0  0  0  0  0  0  0  0  0  0
    0.3226    2.0413   -2.0641 C   0  0  0  0  0  0  0  0  0  0  0  0
    1.4357    1.2832   -2.1716 C   0  0  0  0  0  0  0  0  0  0  0  0
    1.4650   -0.2147   -1.9498 C   0  0  0  0  0  0  0  0  0  0  0  0
    2.6784   -0.7579   -1.1320 C   0  0  1  0  0  0  0  0  0  0  0  0
    3.3992    0.3141   -0.3324 C   0  0  0  0  0  0  0  0  0  0  0  0
    4.6068    0.8591   -0.8067 C   0  0  0  0  0  0  0  0  0  0  0  0
    5.2568    1.8706   -0.0922 C   0  0  0  0  0  0  0  0  0  0  0  0
    4.7062    2.3528    1.0968 C   0  0  0  0  0  0  0  0  0  0  0  0
    3.5069    1.8214    1.5755 C   0  0  0  0  0  0  0  0  0  0  0  0
    2.8547    0.8091    0.8649 C   0  0  0  0  0  0  0  0  0  0  0  0
    2.3283   -1.8801   -0.2365 N   0  0  0  0  0  0  0  0  0  0  0  0
   -0.0701   -2.8737    1.5722 H   0  0  0  0  0  0  0  0  0  0  0  0
    0.2989   -1.1850    1.2252 H   0  0  0  0  0  0  0  0  0  0  0  0
   -1.2256   -1.5986   -0.9792 H   0  0  0  0  0  0  0  0  0  0  0  0
   -2.2312   -3.6354    2.1063 H   0  0  0  0  0  0  0  0  0  0  0  0
   -3.4635   -5.7526    1.9092 H   0  0  0  0  0  0  0  0  0  0  0  0
   -4.1249   -6.6159   -0.3164 H   0  0  0  0  0  0  0  0  0  0  0  0
   -3.5472   -5.3422   -2.3606 H   0  0  0  0  0  0  0  0  0  0  0  0
   -2.3037   -3.2251   -2.1991 H   0  0  0  0  0  0  0  0  0  0  0  0
   -3.3035    0.8444    0.0660 H   0  0  0  0  0  0  0  0  0  0  0  0
   -0.2707    0.7740    0.1909 H   0  0  0  0  0  0  0  0  0  0  0  0
   -3.1829    3.2021   -0.3296 H   0  0  0  0  0  0  0  0  0  0  0  0
   -3.3363    5.3385    0.8752 H   0  0  0  0  0  0  0  0  0  0  0  0
   -1.5701    6.0004    2.4823 H   0  0  0  0  0  0  0  0  0  0  0  0
    0.3610    4.5002    2.8883 H   0  0  0  0  0  0  0  0  0  0  0  0
    0.5373    2.3560    1.6981 H   0  0  0  0  0  0  0  0  0  0  0  0
   -1.2598    0.5789   -2.2459 H   0  0  0  0  0  0  0  0  0  0  0  0
   -1.8143    2.2426   -2.0324 H   0  0  0  0  0  0  0  0  0  0  0  0
    0.4020    3.0987   -2.3047 H   0  0  0  0  0  0  0  0  0  0  0  0
    2.3452    1.7615   -2.5192 H   0  0  0  0  0  0  0  0  0  0  0  0
    0.5400   -0.5082   -1.4622 H   0  0  0  0  0  0  0  0  0  0  0  0
    1.4519   -0.7064   -2.9469 H   0  0  0  0  0  0  0  0  0  0  0  0
    3.3965   -1.1655   -1.8795 H   0  0  0  0  0  0  0  0  0  0  0  0
    5.0435    0.5068   -1.7325 H   0  0  0  0  0  0  0  0  0  0  0  0
    6.1846    2.2850   -0.4647 H   0  0  0  0  0  0  0  0  0  0  0  0
    5.2084    3.1375    1.6473 H   0  0  0  0  0  0  0  0  0  0  0  0
    3.0791    2.1980    2.4955 H   0  0  0  0  0  0  0  0  0  0  0  0
    1.9288    0.4130    1.2507 H   0  0  0  0  0  0  0  0  0  0  0  0
    3.1172   -2.3490    0.2661 H   0  0  0  0  0  0  0  0  0  0  0  0
  1  2  2  0
  2  3  1  0
  3  4  1  0
  4  5  1  0
  5  6  2  0
  6  7  1  0
  7  8  2  0
  8  9  1  0
  9 10  2  0
  4 11  1  0
 11 12  2  0
 11 13  1  0
 13 14  1  0
 14 15  1  0
 15 16  2  0
 16 17  1  0
 17 18  2  0
 18 19  1  0
 19 20  2  0
 14 21  1  0
 21 22  1  0
 22 23  2  0
 23 24  1  0
 24 25  1  0
 25 26  1  0
 26 27  2  0
 27 28  1  0
 28 29  2  0
 29 30  1  0
 30 31  2  0
 25 32  1  0
 32  2  1  0
 10  5  1  0
 20 15  1  0
 31 26  1  0
  3 33  1  0
  3 34  1  0
  4 35  1  6
  6 36  1  0
  7 37  1  0
  8 38  1  0
  9 39  1  0
 10 40  1  0
 13 41  1  0
 14 42  1  1
 16 43  1  0
 17 44  1  0
 18 45  1  0
 19 46  1  0
 20 47  1  0
 21 48  1  0
 21 49  1  0
 22 50  1  0
 23 51  1  0
 24 52  1  0
 24 53  1  0
 25 54  1  6
 27 55  1  0
 28 56  1  0
 29 57  1  0
 30 58  1  0
 31 59  1  0
 32 60  1  0
M  END
$$$$
