
     RDKit          3D

 66 69  0  0  0  0  0  0  0  0999 V2000
   -1.2424    1.6479   -3.0762 O   0  0  0  0  0  0  0  0  0  0  0  0
   -1.8898    1.4957   -2.0058 C   0  0  0  0  0  0  0  0  0  0  0  0
   -1.9198    0.1354   -1.3686 C   0  0  0  0  0  0  0  0  0  0  0  0
   -1.2878    0.1709   -0.0290 N   0  0  0  0  0  0  0  0  0  0  0  0
   -1.9521   -0.7570    0.9221 C   0  0  0  0  0  0  0  0  0  0  0  0
   -1.7719   -2.2235    0.5727 C   0  0  0  0  0  0  0  0  0  0  0  0
   -0.7222   -2.9617    1.1419 C   0  0  0  0  0  0  0  0  0  0  0  0
   -0.5515   -4.3127    0.8201 C   0  0  0  0  0  0  0  0  0  0  0  0
   -1.4251   -4.9360   -0.0730 C   0  0  0  0  0  0  0  0  0  0  0  0
   -2.4846   -4.2156   -0.6288 C   0  0  0  0  0  0  0  0  0  0  0  0
   -2.6675   -2.8693   -0.2991 C   0  0  0  0  0  0  0  0  0  0  0  0
    0.1752   -0.0690   -0.0719 C   0  0  0  0  0  0  0  0  0  0  0  0
    0.9612    1.0677   -0.7124 C   0  0  0  0  0  0  0  0  0  0  0  0
    0.6626    2.4262   -0.4256 C   0  0  0  0  0  0  0  0  0  0  0  0
    1.3473    3.4507   -1.0857 C   0  0  0  0  0  0  0  0  0  0  0  0
    2.3480    3.1586   -2.0054 C   0  0  0  0  0  0  0  0  0  0  0  0
    2.6898    1.8353   -2.2641 C   0  0  0  0  0  0  0  0  0  0  0  0
    2.0290    0.7858   -1.6095 C   0  0  0  0  0  0  0  0  0  0  0  0
    2.4979   -0.5912   -1.8728 C   0  0  0  0  0  0  0  0  0  0  0  0
    2.4650   -1.0313   -3.0517 O   0  0  0  0  0  0  0  0  0  0  0  0
    3.0125   -1.4202   -0.8129 N   0  0  0  0  0  0  0  0  0  0  0  0
    2.8860   -2.8856   -0.9431 C   0  0  0  0  0  0  0  0  0  0  0  0
    3.2372   -3.6176    0.3566 C   0  0  0  0  0  0  0  0  0  0  0  0
    4.4963   -3.1116    0.8847 N   0  0  0  0  0  0  0  0  0  0  0  0
    4.7047   -1.7016    0.9330 C   0  0  0  0  0  0  0  0  0  0  0  0
    5.7386   -1.2290    1.4780 O   0  0  0  0  0  0  0  0  0  0  0  0
    3.6685   -0.7898    0.3486 C   0  0  0  0  0  0  0  0  0  0  0  0
   -0.3565    2.7994    0.4510 O   0  0  0  0  0  0  0  0  0  0  0  0
   -0.2624    2.6604    1.8619 C   0  0  0  0  0  0  0  0  0  0  0  0
   -1.3981    3.4338    2.5336 C   0  0  0  0  0  0  0  0  0  0  0  0
   -2.7960    2.9562    2.0891 C   0  0  0  0  0  0  0  0  0  0  0  0
   -3.2738    3.5922    0.7558 C   0  0  0  0  0  0  0  0  0  0  0  0
   -3.5646    2.5679   -0.3651 C   0  0  0  0  0  0  0  0  0  0  0  0
   -2.5438    2.6359   -1.4187 N   0  0  0  0  0  0  0  0  0  0  0  0
   -2.9861   -0.1640   -1.3113 H   0  0  0  0  0  0  0  0  0  0  0  0
   -1.4226   -0.6096   -2.0274 H   0  0  0  0  0  0  0  0  0  0  0  0
   -3.0370   -0.5237    0.9874 H   0  0  0  0  0  0  0  0  0  0  0  0
   -1.5643   -0.5682    1.9477 H   0  0  0  0  0  0  0  0  0  0  0  0
   -0.0292   -2.4923    1.8290 H   0  0  0  0  0  0  0  0  0  0  0  0
    0.2630   -4.8733    1.2582 H   0  0  0  0  0  0  0  0  0  0  0  0
   -1.2922   -5.9794   -0.3265 H   0  0  0  0  0  0  0  0  0  0  0  0
   -3.1698   -4.7030   -1.3078 H   0  0  0  0  0  0  0  0  0  0  0  0
   -3.5112   -2.3364   -0.7185 H   0  0  0  0  0  0  0  0  0  0  0  0
    0.5715   -0.1924    0.9556 H   0  0  0  0  0  0  0  0  0  0  0  0
    0.3638   -1.0266   -0.5971 H   0  0  0  0  0  0  0  0  0  0  0  0
    1.0938    4.4832   -0.8875 H   0  0  0  0  0  0  0  0  0  0  0  0
    2.8697    3.9619   -2.5100 H   0  0  0  0  0  0  0  0  0  0  0  0
    3.4908    1.6291   -2.9639 H   0  0  0  0  0  0  0  0  0  0  0  0
    3.5575   -3.2365   -1.7548 H   0  0  0  0  0  0  0  0  0  0  0  0
    1.8419   -3.1472   -1.2200 H   0  0  0  0  0  0  0  0  0  0  0  0
    2.4380   -3.4428    1.1070 H   0  0  0  0  0  0  0  0  0  0  0  0
    3.3089   -4.7113    0.1714 H   0  0  0  0  0  0  0  0  0  0  0  0
    5.2469   -3.7707    1.1898 H   0  0  0  0  0  0  0  0  0  0  0  0
    2.9110   -0.5585    1.1258 H   0  0  0  0  0  0  0  0  0  0  0  0
    4.1669    0.1580    0.0387 H   0  0  0  0  0  0  0  0  0  0  0  0
    0.7111    3.0704    2.2105 H   0  0  0  0  0  0  0  0  0  0  0  0
   -0.3175    1.5921    2.1537 H   0  0  0  0  0  0  0  0  0  0  0  0
   -1.2783    4.5239    2.3476 H   0  0  0  0  0  0  0  0  0  0  0  0
   -1.3086    3.2845    3.6299 H   0  0  0  0  0  0  0  0  0  0  0  0
   -3.5144    3.2584    2.8854 H   0  0  0  0  0  0  0  0  0  0  0  0
   -2.8252    1.8449    2.0742 H   0  0  0  0  0  0  0  0  0  0  0  0
   -2.5580    4.3621    0.3953 H   0  0  0  0  0  0  0  0  0  0  0  0
   -4.2125    4.1500    0.9613 H   0  0  0  0  0  0  0  0  0  0  0  0
   -4.5474    2.8115   -0.8303 H   0  0  0  0  0  0  0  0  0  0  0  0
   -3.6698    1.5453    0.0435 H   0  0  0  0  0  0  0  0  0  0  0  0
   -2.4004    3.5631   -1.8865 H   0  0  0  0  0  0  0  0  0  0  0  0
  1  2  2  0
  2  3  1  0
  3  4  1  0
  4  5  1  0
  5  6  1  0
  6  7  2  0
  7  8  1  0
  8  9  2  0
  9 10  1  0
 10 11  2  0
  4 12  1  0
 12 13  1  0
 13 14  2  0
 14 15  1  0
 15 16  2  0
 16 17  1  0
 17 18  2  0
 18 19  1  0
 19 20  2  0
 19 21  1  0
 21 22  1  0
 22 23  1  0
 23 24  1  0
 24 25  1  0
 25 26  2  0
 25 27  1  0
 14 28  1  0
 28 29  1  0
 29 30  1  0
 30 31  1  0
 31 32  1  0
 32 33  1  0
 33 34  1  0
 34  2  1  0
 11  6  1  0
 18 13  1  0
 27 21  1  0
  3 35  1  0
  3 36  1  0
  5 37  1  0
  5 38  1  0
  7 39  1  0
  8 40  1  0
  9 41  1  0
 10 42  1  0
 11 43  1  0
 12 44  1  0
 12 45  1  0
 15 46  1  0
 16 47  1  0
 17 48  1  0
 22 49  1  0
 22 50  1  0
 23 51  1  0
 23 52  1  0
 24 53  1  0
 27 54  1  0
 27 55  1  0
 29 56  1  0
 29 57  1  0
 30 58  1  0
 30 59  1  0
 31 60  1  0
 31 61  1  0
 32 62  1  0
 32 63  1  0
 33 64  1  0
 33 65  1  0
 34 66  1  0
M  END
$$$$
