
     RDKit          3D

133138  0  0  0  0  0  0  0  0999 V2000
   -4.0948   -5.7452    1.1175 C   0  0  0  0  0  0  0  0  0  0  0  0
   -2.7995   -5.2936    0.4059 C   0  0  0  0  0  0  0  0  0  0  0  0
   -2.6467   -6.0480   -0.9272 C   0  0  0  0  0  0  0  0  0  0  0  0
   -2.6173   -3.7398    0.2095 C   0  0  1  0  0  0  0  0  0  0  0  0
   -3.8554   -3.0138   -0.3237 C   0  0  0  0  0  0  0  0  0  0  0  0
   -4.6493   -3.6451   -1.0702 O   0  0  0  0  0  0  0  0  0  0  0  0
   -4.0228   -1.6225   -0.2707 O   0  0  0  0  0  0  0  0  0  0  0  0
   -4.0283   -0.8181    0.9077 C   0  0  0  0  0  0  0  0  0  0  0  0
   -4.4576    0.6091    0.5332 C   0  0  1  0  0  0  0  0  0  0  0  0
   -5.8977    0.6352    0.2764 N   0  0  0  0  0  0  0  0  0  0  0  0
   -6.4720    1.0390   -0.9769 C   0  0  0  0  0  0  0  0  0  0  0  0
   -5.7478    1.1012   -2.0078 O   0  0  0  0  0  0  0  0  0  0  0  0
   -7.9157    1.3571   -1.0799 C   0  0  0  0  0  0  0  0  0  0  0  0
   -8.5858    1.2307   -2.3238 C   0  0  0  0  0  0  0  0  0  0  0  0
   -9.9562    1.5239   -2.4364 C   0  0  0  0  0  0  0  0  0  0  0  0
  -10.6472    1.9536   -1.3055 C   0  0  0  0  0  0  0  0  0  0  0  0
  -11.9664    2.2748   -1.2881 N   0  0  0  0  0  0  0  0  0  0  0  0
  -12.3588    2.6692   -0.0513 C   0  0  0  0  0  0  0  0  0  0  0  0
  -11.0785    2.6297    1.0581 S   0  0  0  0  0  0  0  0  0  0  0  0
   -9.9913    2.0869   -0.0948 C   0  0  0  0  0  0  0  0  0  0  0  0
   -8.6379    1.8019    0.0509 C   0  0  0  0  0  0  0  0  0  0  0  0
   -4.1389    1.6003    1.6312 C   0  0  0  0  0  0  0  0  0  0  0  0
   -4.2615    1.2318    2.8319 O   0  0  0  0  0  0  0  0  0  0  0  0
   -3.7751    2.9725    1.3740 N   0  0  0  0  0  0  0  0  0  0  0  0
   -3.5653    3.5957    0.0612 C   0  0  1  0  0  0  0  0  0  0  0  0
   -4.4798    4.8181   -0.0735 C   0  0  0  0  0  0  0  0  0  0  0  0
   -2.1077    3.9649   -0.0882 C   0  0  0  0  0  0  0  0  0  0  0  0
   -1.6973    5.1039    0.2633 O   0  0  0  0  0  0  0  0  0  0  0  0
   -1.1572    2.9765   -0.5118 N   0  0  0  0  0  0  0  0  0  0  0  0
   -0.9544    2.8319   -1.9604 C   0  0  0  0  0  0  0  0  0  0  0  0
   -0.4953    2.1648    0.5332 C   0  0  1  0  0  0  0  0  0  0  0  0
    0.1152    0.8276    0.0642 C   0  0  0  0  0  0  0  0  0  0  0  0
   -1.1629   -0.2364   -0.6877 S   0  0  0  0  0  0  0  0  0  0  0  0
   -0.0979   -1.6947   -0.9657 C   0  0  0  0  0  0  0  0  0  0  0  0
    0.3080   -2.4598    0.3281 C   0  0  1  0  0  0  0  0  0  0  0  0
   -0.7468   -2.4314    1.4425 C   0  0  0  0  0  0  0  0  0  0  0  0
   -0.4340   -1.7704    2.4751 O   0  0  0  0  0  0  0  0  0  0  0  0
   -2.0451   -3.1023    1.4159 N   0  0  0  0  0  0  0  0  0  0  0  0
   -2.7901   -3.1824    2.6824 C   0  0  0  0  0  0  0  0  0  0  0  0
    0.8350   -3.8111    0.0178 N   0  0  0  0  0  0  0  0  0  0  0  0
    0.6884   -4.9691    0.9109 C   0  0  0  0  0  0  0  0  0  0  0  0
    1.8202   -3.9688   -1.0209 C   0  0  0  0  0  0  0  0  0  0  0  0
    1.5974   -4.7860   -1.9552 O   0  0  0  0  0  0  0  0  0  0  0  0
    3.1105   -3.1721   -0.9875 C   0  0  2  0  0  0  0  0  0  0  0  0
    4.1522   -3.7113   -1.9730 C   0  0  0  0  0  0  0  0  0  0  0  0
    3.6743   -3.2033    0.3668 N   0  0  0  0  0  0  0  0  0  0  0  0
    4.2432   -2.0876    1.0757 C   0  0  0  0  0  0  0  0  0  0  0  0
    4.4628   -2.2181    2.3137 O   0  0  0  0  0  0  0  0  0  0  0  0
    4.6427   -0.7860    0.4095 C   0  0  2  0  0  0  0  0  0  0  0  0
    6.1008   -0.6392    0.4859 N   0  0  0  0  0  0  0  0  0  0  0  0
    6.9417   -0.5327   -0.6766 C   0  0  0  0  0  0  0  0  0  0  0  0
    6.4234   -0.5062   -1.8281 O   0  0  0  0  0  0  0  0  0  0  0  0
    8.4176   -0.4793   -0.5493 C   0  0  0  0  0  0  0  0  0  0  0  0
    9.0370    0.0373    0.6190 C   0  0  0  0  0  0  0  0  0  0  0  0
   10.4369    0.0516    0.7464 C   0  0  0  0  0  0  0  0  0  0  0  0
   11.2119   -0.4427   -0.3001 C   0  0  0  0  0  0  0  0  0  0  0  0
   12.5695   -0.4913   -0.2952 N   0  0  0  0  0  0  0  0  0  0  0  0
   13.0472   -1.0184   -1.4496 C   0  0  0  0  0  0  0  0  0  0  0  0
   11.7979   -1.4372   -2.5153 S   0  0  0  0  0  0  0  0  0  0  0  0
   10.6092   -0.9243   -1.4482 C   0  0  0  0  0  0  0  0  0  0  0  0
    9.2264   -0.9509   -1.6064 C   0  0  0  0  0  0  0  0  0  0  0  0
    3.9704    0.3935    1.1252 C   0  0  0  0  0  0  0  0  0  0  0  0
    4.2253    1.6242    0.4488 O   0  0  0  0  0  0  0  0  0  0  0  0
    3.3895    2.0978   -0.5638 C   0  0  0  0  0  0  0  0  0  0  0  0
    3.4641    1.5856   -1.7127 O   0  0  0  0  0  0  0  0  0  0  0  0
    2.3981    3.2150   -0.3029 C   0  0  2  0  0  0  0  0  0  0  0  0
    2.9161    4.6161   -0.7445 C   0  0  0  0  0  0  0  0  0  0  0  0
    4.2558    5.0494   -0.1292 C   0  0  0  0  0  0  0  0  0  0  0  0
    1.8500    5.6984   -0.5249 C   0  0  0  0  0  0  0  0  0  0  0  0
    1.8679    3.1795    1.0816 N   0  0  0  0  0  0  0  0  0  0  0  0
    2.7353    3.4187    2.2454 C   0  0  0  0  0  0  0  0  0  0  0  0
    0.4554    3.0114    1.3623 C   0  0  0  0  0  0  0  0  0  0  0  0
   -0.0289    3.5826    2.3778 O   0  0  0  0  0  0  0  0  0  0  0  0
   -4.1953   -6.8507    1.0604 H   0  0  0  0  0  0  0  0  0  0  0  0
   -4.0664   -5.5081    2.1971 H   0  0  0  0  0  0  0  0  0  0  0  0
   -5.0070   -5.3073    0.6706 H   0  0  0  0  0  0  0  0  0  0  0  0
   -1.9735   -5.6513    1.0530 H   0  0  0  0  0  0  0  0  0  0  0  0
   -3.4750   -5.8024   -1.6258 H   0  0  0  0  0  0  0  0  0  0  0  0
   -2.6475   -7.1447   -0.7530 H   0  0  0  0  0  0  0  0  0  0  0  0
   -1.6798   -5.7919   -1.4140 H   0  0  0  0  0  0  0  0  0  0  0  0
   -1.8831   -3.6441   -0.5968 H   0  0  0  0  0  0  0  0  0  0  0  0
   -4.7296   -1.2435    1.6563 H   0  0  0  0  0  0  0  0  0  0  0  0
   -3.0106   -0.7740    1.3426 H   0  0  0  0  0  0  0  0  0  0  0  0
   -3.8868    0.8625   -0.3779 H   0  0  0  0  0  0  0  0  0  0  0  0
   -6.5348    0.3530    1.0557 H   0  0  0  0  0  0  0  0  0  0  0  0
   -8.0509    0.8933   -3.2030 H   0  0  0  0  0  0  0  0  0  0  0  0
  -10.4635    1.4196   -3.3876 H   0  0  0  0  0  0  0  0  0  0  0  0
  -13.3699    2.9735    0.1820 H   0  0  0  0  0  0  0  0  0  0  0  0
   -8.1640    1.9447    1.0134 H   0  0  0  0  0  0  0  0  0  0  0  0
   -3.5786    3.5693    2.2131 H   0  0  0  0  0  0  0  0  0  0  0  0
   -3.8384    2.9195   -0.7666 H   0  0  0  0  0  0  0  0  0  0  0  0
   -4.2998    5.5389    0.7545 H   0  0  0  0  0  0  0  0  0  0  0  0
   -4.3013    5.3287   -1.0430 H   0  0  0  0  0  0  0  0  0  0  0  0
   -5.5424    4.4952   -0.0374 H   0  0  0  0  0  0  0  0  0  0  0  0
   -0.6331    3.8056   -2.3912 H   0  0  0  0  0  0  0  0  0  0  0  0
   -0.1863    2.0794   -2.2159 H   0  0  0  0  0  0  0  0  0  0  0  0
   -1.9078    2.5288   -2.4430 H   0  0  0  0  0  0  0  0  0  0  0  0
   -1.2939    1.8415    1.2382 H   0  0  0  0  0  0  0  0  0  0  0  0
    0.9400    0.9478   -0.6545 H   0  0  0  0  0  0  0  0  0  0  0  0
    0.5204    0.3129    0.9579 H   0  0  0  0  0  0  0  0  0  0  0  0
    0.8050   -1.3398   -1.4995 H   0  0  0  0  0  0  0  0  0  0  0  0
   -0.6086   -2.3586   -1.6889 H   0  0  0  0  0  0  0  0  0  0  0  0
    1.1766   -1.8915    0.7268 H   0  0  0  0  0  0  0  0  0  0  0  0
   -2.6934   -2.2439    3.2696 H   0  0  0  0  0  0  0  0  0  0  0  0
   -3.8732   -3.3195    2.5019 H   0  0  0  0  0  0  0  0  0  0  0  0
   -2.3970   -4.0245    3.2907 H   0  0  0  0  0  0  0  0  0  0  0  0
    0.2169   -5.8065    0.3552 H   0  0  0  0  0  0  0  0  0  0  0  0
    0.0937   -4.7446    1.8168 H   0  0  0  0  0  0  0  0  0  0  0  0
    1.6848   -5.3104    1.2587 H   0  0  0  0  0  0  0  0  0  0  0  0
    2.8576   -2.1414   -1.2873 H   0  0  0  0  0  0  0  0  0  0  0  0
    3.7902   -3.5961   -3.0155 H   0  0  0  0  0  0  0  0  0  0  0  0
    5.1016   -3.1454   -1.8685 H   0  0  0  0  0  0  0  0  0  0  0  0
    4.3608   -4.7839   -1.7735 H   0  0  0  0  0  0  0  0  0  0  0  0
    3.7140   -4.1310    0.8476 H   0  0  0  0  0  0  0  0  0  0  0  0
    4.3198   -0.7624   -0.6438 H   0  0  0  0  0  0  0  0  0  0  0  0
    6.5380   -0.6945    1.4331 H   0  0  0  0  0  0  0  0  0  0  0  0
    8.4474    0.4499    1.4250 H   0  0  0  0  0  0  0  0  0  0  0  0
   10.9017    0.4437    1.6423 H   0  0  0  0  0  0  0  0  0  0  0  0
   14.0999   -1.1486   -1.6491 H   0  0  0  0  0  0  0  0  0  0  0  0
    8.7944   -1.3477   -2.5174 H   0  0  0  0  0  0  0  0  0  0  0  0
    4.3682    0.4787    2.1598 H   0  0  0  0  0  0  0  0  0  0  0  0
    2.8747    0.2247    1.2064 H   0  0  0  0  0  0  0  0  0  0  0  0
    1.5604    3.0299   -0.9972 H   0  0  0  0  0  0  0  0  0  0  0  0
    3.0843    4.5618   -1.8441 H   0  0  0  0  0  0  0  0  0  0  0  0
    4.9993    4.2279   -0.1673 H   0  0  0  0  0  0  0  0  0  0  0  0
    4.1298    5.3981    0.9159 H   0  0  0  0  0  0  0  0  0  0  0  0
    4.6696    5.9026   -0.7103 H   0  0  0  0  0  0  0  0  0  0  0  0
    0.9075    5.4190   -1.0439 H   0  0  0  0  0  0  0  0  0  0  0  0
    2.1929    6.6708   -0.9389 H   0  0  0  0  0  0  0  0  0  0  0  0
    1.6351    5.8303    0.5586 H   0  0  0  0  0  0  0  0  0  0  0  0
    2.5913    2.6084    2.9923 H   0  0  0  0  0  0  0  0  0  0  0  0
    2.4771    4.3911    2.7116 H   0  0  0  0  0  0  0  0  0  0  0  0
    3.8067    3.4349    1.9808 H   0  0  0  0  0  0  0  0  0  0  0  0
  1  2  1  0
  2  3  1  0
  2  4  1  0
  4  5  1  0
  5  6  2  0
  5  7  1  0
  7  8  1  0
  8  9  1  0
  9 10  1  0
 10 11  1  0
 11 12  2  0
 11 13  1  0
 13 14  2  0
 14 15  1  0
 15 16  2  0
 16 17  1  0
 17 18  2  0
 18 19  1  0
 19 20  1  0
 20 21  2  0
  9 22  1  0
 22 23  2  0
 22 24  1  0
 24 25  1  0
 25 26  1  0
 25 27  1  0
 27 28  2  0
 27 29  1  0
 29 30  1  0
 29 31  1  0
 31 32  1  0
 32 33  1  0
 33 34  1  0
 34 35  1  0
 35 36  1  0
 36 37  2  0
 36 38  1  0
 38 39  1  0
 35 40  1  0
 40 41  1  0
 40 42  1  0
 42 43  2  0
 42 44  1  0
 44 45  1  0
 44 46  1  0
 46 47  1  0
 47 48  2  0
 47 49  1  0
 49 50  1  0
 50 51  1  0
 51 52  2  0
 51 53  1  0
 53 54  2  0
 54 55  1  0
 55 56  2  0
 56 57  1  0
 57 58  2  0
 58 59  1  0
 59 60  1  0
 60 61  2  0
 49 62  1  0
 62 63  1  0
 63 64  1  0
 64 65  2  0
 64 66  1  0
 66 67  1  0
 67 68  1  0
 67 69  1  0
 66 70  1  0
 70 71  1  0
 70 72  1  0
 72 73  2  0
 38  4  1  0
 61 53  1  0
 21 13  1  0
 72 31  1  0
 20 16  1  0
 60 56  1  0
  1 74  1  0
  1 75  1  0
  1 76  1  0
  2 77  1  0
  3 78  1  0
  3 79  1  0
  3 80  1  0
  4 81  1  6
  8 82  1  0
  8 83  1  0
  9 84  1  6
 10 85  1  0
 14 86  1  0
 15 87  1  0
 18 88  1  0
 21 89  1  0
 24 90  1  0
 25 91  1  6
 26 92  1  0
 26 93  1  0
 26 94  1  0
 30 95  1  0
 30 96  1  0
 30 97  1  0
 31 98  1  1
 32 99  1  0
 32100  1  0
 34101  1  0
 34102  1  0
 35103  1  1
 39104  1  0
 39105  1  0
 39106  1  0
 41107  1  0
 41108  1  0
 41109  1  0
 44110  1  6
 45111  1  0
 45112  1  0
 45113  1  0
 46114  1  0
 49115  1  6
 50116  1  0
 54117  1  0
 55118  1  0
 58119  1  0
 61120  1  0
 62121  1  0
 62122  1  0
 66123  1  6
 67124  1  0
 68125  1  0
 68126  1  0
 68127  1  0
 69128  1  0
 69129  1  0
 69130  1  0
 71131  1  0
 71132  1  0
 71133  1  0
M  END
$$$$
