
     RDKit          3D

 61 63  0  0  0  0  0  0  0  0999 V2000
   -0.6017    3.3386   -0.2871 O   0  0  0  0  0  0  0  0  0  0  0  0
   -1.3285    2.3433   -0.0185 C   0  0  0  0  0  0  0  0  0  0  0  0
   -2.6824    2.6012    0.5146 C   0  0  0  0  0  0  0  0  0  0  0  0
   -2.8450    3.4074    1.6536 C   0  0  0  0  0  0  0  0  0  0  0  0
   -4.1233    3.6634    2.1605 C   0  0  0  0  0  0  0  0  0  0  0  0
   -5.2491    3.1364    1.5199 C   0  0  0  0  0  0  0  0  0  0  0  0
   -6.4884    3.3857    2.0106 F   0  0  0  0  0  0  0  0  0  0  0  0
   -5.0956    2.3550    0.3707 C   0  0  0  0  0  0  0  0  0  0  0  0
   -3.8189    2.0954   -0.1353 C   0  0  0  0  0  0  0  0  0  0  0  0
   -0.8073    1.0029   -0.2064 N   0  0  0  0  0  0  0  0  0  0  0  0
    0.5235    0.8359   -0.8162 C   0  0  0  0  0  0  0  0  0  0  0  0
    1.6384    1.0846    0.2196 C   0  0  0  0  0  0  0  0  0  0  0  0
    2.9545    0.6265   -0.2774 N   0  0  0  0  0  0  0  0  0  0  0  0
    3.9476    1.5754   -0.7531 C   0  0  0  0  0  0  0  0  0  0  0  0
    5.0815    1.1629   -1.1248 O   0  0  0  0  0  0  0  0  0  0  0  0
    3.7227    3.0313   -0.7731 C   0  0  0  0  0  0  0  0  0  0  0  0
    2.7324    3.7178   -1.4686 C   0  0  0  0  0  0  0  0  0  0  0  0
    2.8191    5.0734   -1.3947 N   0  0  0  0  0  0  0  0  0  0  0  0
    3.8804    5.4800   -0.6628 C   0  0  0  0  0  0  0  0  0  0  0  0
    4.7615    4.1654   -0.0926 S   0  0  0  0  0  0  0  0  0  0  0  0
    3.2947   -0.8155   -0.3663 C   0  0  0  0  0  0  0  0  0  0  0  0
    2.4657   -1.7332    0.5535 C   0  0  0  0  0  0  0  0  0  0  0  0
    2.9016   -3.2058    0.4338 C   0  0  0  0  0  0  0  0  0  0  0  0
    1.7611   -4.1649    0.7973 C   0  0  0  0  0  0  0  0  0  0  0  0
    0.8381   -4.2027   -0.2728 O   0  0  0  0  0  0  0  0  0  0  0  0
   -0.4340   -4.6675    0.1437 C   0  0  0  0  0  0  0  0  0  0  0  0
   -1.4107   -3.4934    0.3808 C   0  0  0  0  0  0  0  0  0  0  0  0
   -1.0967   -2.8877    1.6071 O   0  0  0  0  0  0  0  0  0  0  0  0
   -1.3803   -2.4599   -0.7886 C   0  0  0  0  0  0  0  0  0  0  0  0
   -1.9516   -3.0535   -1.9307 O   0  0  0  0  0  0  0  0  0  0  0  0
   -2.1567   -1.1421   -0.4824 C   0  0  0  0  0  0  0  0  0  0  0  0
   -2.5213   -0.4972   -1.6790 O   0  0  0  0  0  0  0  0  0  0  0  0
   -1.4156   -0.1573    0.4768 C   0  0  0  0  0  0  0  0  0  0  0  0
   -1.9825    3.8283    2.1552 H   0  0  0  0  0  0  0  0  0  0  0  0
   -4.2407    4.2771    3.0446 H   0  0  0  0  0  0  0  0  0  0  0  0
   -5.9672    1.9680   -0.1411 H   0  0  0  0  0  0  0  0  0  0  0  0
   -3.7245    1.5335   -1.0505 H   0  0  0  0  0  0  0  0  0  0  0  0
    0.6276    1.5241   -1.6777 H   0  0  0  0  0  0  0  0  0  0  0  0
    0.6216   -0.1770   -1.2481 H   0  0  0  0  0  0  0  0  0  0  0  0
    1.3998    0.5786    1.1768 H   0  0  0  0  0  0  0  0  0  0  0  0
    1.6622    2.1584    0.4868 H   0  0  0  0  0  0  0  0  0  0  0  0
    1.9917    3.2358   -2.0843 H   0  0  0  0  0  0  0  0  0  0  0  0
    4.1207    6.5167   -0.4857 H   0  0  0  0  0  0  0  0  0  0  0  0
    4.3609   -0.9620   -0.0829 H   0  0  0  0  0  0  0  0  0  0  0  0
    3.1718   -1.1424   -1.4224 H   0  0  0  0  0  0  0  0  0  0  0  0
    1.4009   -1.6481    0.2810 H   0  0  0  0  0  0  0  0  0  0  0  0
    2.5796   -1.4124    1.6114 H   0  0  0  0  0  0  0  0  0  0  0  0
    3.7648   -3.3832    1.1132 H   0  0  0  0  0  0  0  0  0  0  0  0
    3.2374   -3.4334   -0.6027 H   0  0  0  0  0  0  0  0  0  0  0  0
    2.1843   -5.1834    0.9442 H   0  0  0  0  0  0  0  0  0  0  0  0
    1.3013   -3.8315    1.7560 H   0  0  0  0  0  0  0  0  0  0  0  0
   -0.3896   -5.3239    1.0460 H   0  0  0  0  0  0  0  0  0  0  0  0
   -0.8426   -5.3115   -0.6638 H   0  0  0  0  0  0  0  0  0  0  0  0
   -2.4460   -3.9117    0.4309 H   0  0  0  0  0  0  0  0  0  0  0  0
   -1.5901   -3.3782    2.3142 H   0  0  0  0  0  0  0  0  0  0  0  0
   -0.3345   -2.1812   -1.0235 H   0  0  0  0  0  0  0  0  0  0  0  0
   -1.2663   -3.6484   -2.3278 H   0  0  0  0  0  0  0  0  0  0  0  0
   -3.1057   -1.4384    0.0181 H   0  0  0  0  0  0  0  0  0  0  0  0
   -1.6969   -0.3690   -2.2186 H   0  0  0  0  0  0  0  0  0  0  0  0
   -2.1306    0.1856    1.2547 H   0  0  0  0  0  0  0  0  0  0  0  0
   -0.6229   -0.6722    1.0496 H   0  0  0  0  0  0  0  0  0  0  0  0
  1  2  2  0
  2  3  1  0
  3  4  2  0
  4  5  1  0
  5  6  2  0
  6  7  1  0
  6  8  1  0
  8  9  2  0
  2 10  1  0
 10 11  1  0
 11 12  1  0
 12 13  1  0
 13 14  1  0
 14 15  2  0
 14 16  1  0
 16 17  2  0
 17 18  1  0
 18 19  2  0
 19 20  1  0
 13 21  1  0
 21 22  1  0
 22 23  1  0
 23 24  1  0
 24 25  1  0
 25 26  1  0
 26 27  1  0
 27 28  1  0
 27 29  1  0
 29 30  1  0
 29 31  1  0
 31 32  1  0
 31 33  1  0
  9  3  1  0
 33 10  1  0
 20 16  1  0
  4 34  1  0
  5 35  1  0
  8 36  1  0
  9 37  1  0
 11 38  1  0
 11 39  1  0
 12 40  1  0
 12 41  1  0
 17 42  1  0
 19 43  1  0
 21 44  1  0
 21 45  1  0
 22 46  1  0
 22 47  1  0
 23 48  1  0
 23 49  1  0
 24 50  1  0
 24 51  1  0
 26 52  1  0
 26 53  1  0
 27 54  1  0
 28 55  1  0
 29 56  1  0
 30 57  1  0
 31 58  1  0
 32 59  1  0
 33 60  1  0
 33 61  1  0
M  END
$$$$
