
     RDKit          3D

 69 72  0  0  0  0  0  0  0  0999 V2000
    8.2343    2.3448    1.2163 C   0  0  0  0  0  0  0  0  0  0  0  0
    8.3615    0.9858    0.5351 C   0  0  0  0  0  0  0  0  0  0  0  0
    7.2219    0.7623   -0.3495 N   0  0  0  0  0  0  0  0  0  0  0  0
    6.1185    0.0425   -0.0513 C   0  0  0  0  0  0  0  0  0  0  0  0
    5.2512    0.1563   -1.1187 C   0  0  0  0  0  0  0  0  0  0  0  0
    3.9170   -0.3582   -1.2275 N   0  0  0  0  0  0  0  0  0  0  0  0
    3.4081   -1.4560   -0.4539 C   0  0  0  0  0  0  0  0  0  0  0  0
    4.1764   -2.1561    0.2652 O   0  0  0  0  0  0  0  0  0  0  0  0
    1.9390   -1.7716   -0.4753 C   0  0  0  0  0  0  0  0  0  0  0  0
    1.3375   -1.5589    0.8637 N   0  0  0  0  0  0  0  0  0  0  0  0
    1.2198   -0.1386    1.2434 C   0  0  0  0  0  0  0  0  0  0  0  0
    0.0123    0.5196    0.5851 C   0  0  0  0  0  0  0  0  0  0  0  0
   -1.1812   -0.1588    0.9307 O   0  0  0  0  0  0  0  0  0  0  0  0
   -1.1908   -1.5157    0.4908 C   0  0  0  0  0  0  0  0  0  0  0  0
   -2.4817   -2.2220    1.0368 C   0  0  0  0  0  0  0  0  0  0  0  0
   -3.0209   -1.7026    2.3919 C   0  0  0  0  0  0  0  0  0  0  0  0
   -3.9218   -0.4517    2.2921 C   0  0  0  0  0  0  0  0  0  0  0  0
   -5.2972   -0.7206    1.6369 C   0  0  0  0  0  0  0  0  0  0  0  0
   -5.7891    0.4993    0.8885 C   0  0  0  0  0  0  0  0  0  0  0  0
   -6.1702    1.6379    1.6213 C   0  0  0  0  0  0  0  0  0  0  0  0
   -6.5474    2.8116    0.9605 C   0  0  0  0  0  0  0  0  0  0  0  0
   -6.5502    2.8583   -0.4386 C   0  0  0  0  0  0  0  0  0  0  0  0
   -6.1814    1.7323   -1.1826 C   0  0  0  0  0  0  0  0  0  0  0  0
   -5.8077    0.5508   -0.5278 C   0  0  0  0  0  0  0  0  0  0  0  0
   -5.5000   -0.5844   -1.2866 O   0  0  0  0  0  0  0  0  0  0  0  0
   -4.2674   -0.7736   -2.0165 C   0  0  0  0  0  0  0  0  0  0  0  0
   -3.1062    0.0790   -1.4839 C   0  0  0  0  0  0  0  0  0  0  0  0
   -1.8176   -0.5265   -1.8184 N   0  0  0  0  0  0  0  0  0  0  0  0
   -1.2680   -1.5967   -1.0352 C   0  0  0  0  0  0  0  0  0  0  0  0
   -0.8561   -2.6258   -1.6288 O   0  0  0  0  0  0  0  0  0  0  0  0
    0.0587   -2.2771    1.0573 C   0  0  0  0  0  0  0  0  0  0  0  0
    5.8888    0.9809   -2.0305 C   0  0  0  0  0  0  0  0  0  0  0  0
    5.3443    1.4628   -3.3346 C   0  0  0  0  0  0  0  0  0  0  0  0
    7.0881    1.3455   -1.5345 N   0  0  0  0  0  0  0  0  0  0  0  0
    9.1449    2.5575    1.8121 H   0  0  0  0  0  0  0  0  0  0  0  0
    7.3589    2.3484    1.8955 H   0  0  0  0  0  0  0  0  0  0  0  0
    8.1068    3.1377    0.4455 H   0  0  0  0  0  0  0  0  0  0  0  0
    8.4098    0.1822    1.3064 H   0  0  0  0  0  0  0  0  0  0  0  0
    9.3085    0.9562   -0.0610 H   0  0  0  0  0  0  0  0  0  0  0  0
    5.9546   -0.4811    0.8837 H   0  0  0  0  0  0  0  0  0  0  0  0
    3.2819    0.0988   -1.9162 H   0  0  0  0  0  0  0  0  0  0  0  0
    1.4365   -1.1591   -1.2498 H   0  0  0  0  0  0  0  0  0  0  0  0
    1.8390   -2.8333   -0.7841 H   0  0  0  0  0  0  0  0  0  0  0  0
    2.1379    0.4243    0.9725 H   0  0  0  0  0  0  0  0  0  0  0  0
    1.1077   -0.0604    2.3490 H   0  0  0  0  0  0  0  0  0  0  0  0
    0.1501    0.5889   -0.5109 H   0  0  0  0  0  0  0  0  0  0  0  0
   -0.0660    1.5618    0.9530 H   0  0  0  0  0  0  0  0  0  0  0  0
   -2.2780   -3.3123    1.1616 H   0  0  0  0  0  0  0  0  0  0  0  0
   -3.3011   -2.1759    0.2911 H   0  0  0  0  0  0  0  0  0  0  0  0
   -3.6099   -2.5182    2.8765 H   0  0  0  0  0  0  0  0  0  0  0  0
   -2.1655   -1.4823    3.0614 H   0  0  0  0  0  0  0  0  0  0  0  0
   -4.1047   -0.0889    3.3300 H   0  0  0  0  0  0  0  0  0  0  0  0
   -3.3888    0.3806    1.7907 H   0  0  0  0  0  0  0  0  0  0  0  0
   -6.0244   -0.9713    2.4573 H   0  0  0  0  0  0  0  0  0  0  0  0
   -5.2767   -1.6113    0.9629 H   0  0  0  0  0  0  0  0  0  0  0  0
   -6.1445    1.6205    2.7086 H   0  0  0  0  0  0  0  0  0  0  0  0
   -6.8429    3.6799    1.5330 H   0  0  0  0  0  0  0  0  0  0  0  0
   -6.8443    3.7646   -0.9506 H   0  0  0  0  0  0  0  0  0  0  0  0
   -6.2067    1.7744   -2.2656 H   0  0  0  0  0  0  0  0  0  0  0  0
   -3.9937   -1.8545   -1.9135 H   0  0  0  0  0  0  0  0  0  0  0  0
   -4.4302   -0.5659   -3.1045 H   0  0  0  0  0  0  0  0  0  0  0  0
   -3.1636    1.1019   -1.9124 H   0  0  0  0  0  0  0  0  0  0  0  0
   -3.1908    0.1902   -0.3969 H   0  0  0  0  0  0  0  0  0  0  0  0
   -1.5026   -0.4456   -2.8140 H   0  0  0  0  0  0  0  0  0  0  0  0
   -0.0835   -2.4266    2.1511 H   0  0  0  0  0  0  0  0  0  0  0  0
    0.1237   -3.3097    0.6356 H   0  0  0  0  0  0  0  0  0  0  0  0
    6.1518    1.9591   -3.9185 H   0  0  0  0  0  0  0  0  0  0  0  0
    4.9556    0.5993   -3.9275 H   0  0  0  0  0  0  0  0  0  0  0  0
    4.5272    2.1954   -3.1490 H   0  0  0  0  0  0  0  0  0  0  0  0
  1  2  1  0
  2  3  1  0
  3  4  1  0
  4  5  2  0
  5  6  1  0
  6  7  1  0
  7  8  2  0
  7  9  1  0
  9 10  1  0
 10 11  1  0
 11 12  1  0
 12 13  1  0
 13 14  1  0
 14 15  1  0
 15 16  1  0
 16 17  1  0
 17 18  1  0
 18 19  1  0
 19 20  2  0
 20 21  1  0
 21 22  2  0
 22 23  1  0
 23 24  2  0
 24 25  1  0
 25 26  1  0
 26 27  1  0
 27 28  1  0
 28 29  1  0
 29 30  2  0
 14 31  1  0
  5 32  1  0
 32 33  1  0
 32 34  2  0
 34  3  1  0
 31 10  1  0
 29 14  1  0
 24 19  1  0
  1 35  1  0
  1 36  1  0
  1 37  1  0
  2 38  1  0
  2 39  1  0
  4 40  1  0
  6 41  1  0
  9 42  1  0
  9 43  1  0
 11 44  1  0
 11 45  1  0
 12 46  1  0
 12 47  1  0
 15 48  1  0
 15 49  1  0
 16 50  1  0
 16 51  1  0
 17 52  1  0
 17 53  1  0
 18 54  1  0
 18 55  1  0
 20 56  1  0
 21 57  1  0
 22 58  1  0
 23 59  1  0
 26 60  1  0
 26 61  1  0
 27 62  1  0
 27 63  1  0
 28 64  1  0
 31 65  1  0
 31 66  1  0
 33 67  1  0
 33 68  1  0
 33 69  1  0
M  END
$$$$
