
     RDKit          3D

 69 70  0  0  0  0  0  0  0  0999 V2000
    5.5986   -1.1962   -1.3909 C   0  0  0  0  0  0  0  0  0  0  0  0
    4.5315   -1.1103   -0.2900 C   0  0  0  0  0  0  0  0  0  0  0  0
    5.1132   -0.3870    0.9329 C   0  0  0  0  0  0  0  0  0  0  0  0
    3.2604   -0.4098   -0.8450 C   0  0  0  0  0  0  0  0  0  0  0  0
    1.9964   -0.3980    0.0687 C   0  0  2  0  0  0  0  0  0  0  0  0
    1.9677    0.8542    0.8421 N   0  0  0  0  0  0  0  0  0  0  0  0
    0.7948    1.5938    1.2304 C   0  0  0  0  0  0  0  0  0  0  0  0
    0.9518    2.5776    2.0040 O   0  0  0  0  0  0  0  0  0  0  0  0
   -0.5898    1.3062    0.6666 C   0  0  2  0  0  0  0  0  0  0  0  0
   -0.7269    1.8987   -0.7553 C   0  0  0  0  0  0  0  0  0  0  0  0
   -0.5865    3.4022   -0.7788 C   0  0  0  0  0  0  0  0  0  0  0  0
   -1.6973    4.2245   -0.5217 C   0  0  0  0  0  0  0  0  0  0  0  0
   -1.5573    5.6153   -0.5125 C   0  0  0  0  0  0  0  0  0  0  0  0
   -0.3102    6.1956   -0.7625 C   0  0  0  0  0  0  0  0  0  0  0  0
    0.7995    5.3854   -1.0207 C   0  0  0  0  0  0  0  0  0  0  0  0
    0.6652    3.9938   -1.0254 C   0  0  0  0  0  0  0  0  0  0  0  0
   -1.6453    1.8383    1.5500 N   0  0  0  0  0  0  0  0  0  0  0  0
   -3.0350    1.4545    1.5416 C   0  0  0  0  0  0  0  0  0  0  0  0
   -3.8245    2.0480    2.3255 O   0  0  0  0  0  0  0  0  0  0  0  0
   -3.5999    0.3700    0.6462 C   0  0  2  0  0  0  0  0  0  0  0  0
   -4.6680    0.9778   -0.2705 C   0  0  0  0  0  0  0  0  0  0  0  0
   -4.2082   -0.7041    1.4634 N   0  0  0  0  0  0  0  0  0  0  0  0
   -4.1151   -2.0234    0.8143 C   0  0  0  0  0  0  0  0  0  0  0  0
   -2.7345   -2.6669    1.0387 C   0  0  0  0  0  0  0  0  0  0  0  0
   -2.4659   -3.8104    0.0461 C   0  0  0  0  0  0  0  0  0  0  0  0
   -0.9700   -4.1517   -0.0266 C   0  0  0  0  0  0  0  0  0  0  0  0
   -0.2075   -3.1701   -0.9366 C   0  0  0  0  0  0  0  0  0  0  0  0
    1.3089   -3.3366   -0.8131 C   0  0  0  0  0  0  0  0  0  0  0  0
    1.7748   -2.9474    0.5185 N   0  0  0  0  0  0  0  0  0  0  0  0
    1.8942   -1.5961    0.9989 C   0  0  0  0  0  0  0  0  0  0  0  0
    1.9622   -1.4117    2.2445 O   0  0  0  0  0  0  0  0  0  0  0  0
    6.5053   -1.7155   -1.0093 H   0  0  0  0  0  0  0  0  0  0  0  0
    5.8851   -0.1788   -1.7357 H   0  0  0  0  0  0  0  0  0  0  0  0
    5.2137   -1.7759   -2.2582 H   0  0  0  0  0  0  0  0  0  0  0  0
    4.2887   -2.1538    0.0034 H   0  0  0  0  0  0  0  0  0  0  0  0
    5.3273    0.6775    0.6930 H   0  0  0  0  0  0  0  0  0  0  0  0
    6.0570   -0.8764    1.2600 H   0  0  0  0  0  0  0  0  0  0  0  0
    4.4095   -0.4337    1.7888 H   0  0  0  0  0  0  0  0  0  0  0  0
    3.5180    0.6375   -1.1185 H   0  0  0  0  0  0  0  0  0  0  0  0
    2.9894   -0.8848   -1.8099 H   0  0  0  0  0  0  0  0  0  0  0  0
    1.1225   -0.4190   -0.6090 H   0  0  0  0  0  0  0  0  0  0  0  0
    2.8728    1.2103    1.2270 H   0  0  0  0  0  0  0  0  0  0  0  0
   -0.6966    0.2045    0.6197 H   0  0  0  0  0  0  0  0  0  0  0  0
   -1.7079    1.6202   -1.1903 H   0  0  0  0  0  0  0  0  0  0  0  0
    0.0336    1.4474   -1.4258 H   0  0  0  0  0  0  0  0  0  0  0  0
   -2.6692    3.7894   -0.3248 H   0  0  0  0  0  0  0  0  0  0  0  0
   -2.4153    6.2441   -0.3068 H   0  0  0  0  0  0  0  0  0  0  0  0
   -0.2033    7.2724   -0.7543 H   0  0  0  0  0  0  0  0  0  0  0  0
    1.7654    5.8358   -1.2101 H   0  0  0  0  0  0  0  0  0  0  0  0
    1.5362    3.3773   -1.2156 H   0  0  0  0  0  0  0  0  0  0  0  0
   -1.4141    2.6311    2.1896 H   0  0  0  0  0  0  0  0  0  0  0  0
   -2.8067   -0.0345   -0.0119 H   0  0  0  0  0  0  0  0  0  0  0  0
   -5.5178    1.3733    0.3280 H   0  0  0  0  0  0  0  0  0  0  0  0
   -4.2358    1.8050   -0.8731 H   0  0  0  0  0  0  0  0  0  0  0  0
   -5.0605    0.2102   -0.9702 H   0  0  0  0  0  0  0  0  0  0  0  0
   -3.7552   -0.7624    2.4068 H   0  0  0  0  0  0  0  0  0  0  0  0
   -4.8921   -2.6897    1.2472 H   0  0  0  0  0  0  0  0  0  0  0  0
   -4.3412   -1.9343   -0.2714 H   0  0  0  0  0  0  0  0  0  0  0  0
   -1.9461   -1.8945    0.9552 H   0  0  0  0  0  0  0  0  0  0  0  0
   -2.6798   -3.0612    2.0766 H   0  0  0  0  0  0  0  0  0  0  0  0
   -3.0287   -4.7087    0.3814 H   0  0  0  0  0  0  0  0  0  0  0  0
   -2.8301   -3.5485   -0.9718 H   0  0  0  0  0  0  0  0  0  0  0  0
   -0.8549   -5.1788   -0.4400 H   0  0  0  0  0  0  0  0  0  0  0  0
   -0.5419   -4.1557    1.0006 H   0  0  0  0  0  0  0  0  0  0  0  0
   -0.4993   -3.3607   -1.9919 H   0  0  0  0  0  0  0  0  0  0  0  0
   -0.4766   -2.1201   -0.7080 H   0  0  0  0  0  0  0  0  0  0  0  0
    1.5725   -4.4016   -0.9952 H   0  0  0  0  0  0  0  0  0  0  0  0
    1.8184   -2.7448   -1.5947 H   0  0  0  0  0  0  0  0  0  0  0  0
    1.9806   -3.7188    1.1944 H   0  0  0  0  0  0  0  0  0  0  0  0
  1  2  1  0
  2  3  1  0
  2  4  1  0
  4  5  1  0
  5  6  1  0
  6  7  1  0
  7  8  2  0
  7  9  1  0
  9 10  1  0
 10 11  1  0
 11 12  2  0
 12 13  1  0
 13 14  2  0
 14 15  1  0
 15 16  2  0
  9 17  1  0
 17 18  1  0
 18 19  2  0
 18 20  1  0
 20 21  1  0
 20 22  1  0
 22 23  1  0
 23 24  1  0
 24 25  1  0
 25 26  1  0
 26 27  1  0
 27 28  1  0
 28 29  1  0
 29 30  1  0
 30 31  2  0
 30  5  1  0
 16 11  1  0
  1 32  1  0
  1 33  1  0
  1 34  1  0
  2 35  1  0
  3 36  1  0
  3 37  1  0
  3 38  1  0
  4 39  1  0
  4 40  1  0
  5 41  1  6
  6 42  1  0
  9 43  1  6
 10 44  1  0
 10 45  1  0
 12 46  1  0
 13 47  1  0
 14 48  1  0
 15 49  1  0
 16 50  1  0
 17 51  1  0
 20 52  1  6
 21 53  1  0
 21 54  1  0
 21 55  1  0
 22 56  1  0
 23 57  1  0
 23 58  1  0
 24 59  1  0
 24 60  1  0
 25 61  1  0
 25 62  1  0
 26 63  1  0
 26 64  1  0
 27 65  1  0
 27 66  1  0
 28 67  1  0
 28 68  1  0
 29 69  1  0
M  END
$$$$
