
     RDKit          3D

 68 71  0  0  0  0  0  0  0  0999 V2000
    3.8025   -0.9234   -1.9578 O   0  0  0  0  0  0  0  0  0  0  0  0
    3.1225   -0.8813   -0.8967 C   0  0  0  0  0  0  0  0  0  0  0  0
    3.5927   -1.6596    0.3019 C   0  0  0  0  0  0  0  0  0  0  0  0
    5.0073   -1.8534    0.2654 O   0  0  0  0  0  0  0  0  0  0  0  0
    5.9663   -0.8441    0.4496 C   0  0  0  0  0  0  0  0  0  0  0  0
    5.6206    0.4813    0.7852 C   0  0  0  0  0  0  0  0  0  0  0  0
    6.6185    1.4467    0.9552 C   0  0  0  0  0  0  0  0  0  0  0  0
    7.9641    1.1031    0.7897 C   0  0  0  0  0  0  0  0  0  0  0  0
    9.2130    2.3161    0.9977 Cl  0  0  0  0  0  0  0  0  0  0  0  0
    8.3131   -0.2097    0.4566 C   0  0  0  0  0  0  0  0  0  0  0  0
    7.3178   -1.1782    0.2909 C   0  0  0  0  0  0  0  0  0  0  0  0
    1.8815   -0.1451   -0.8667 N   0  0  0  0  0  0  0  0  0  0  0  0
    0.7123   -0.7415   -0.1981 C   0  0  0  0  0  0  0  0  0  0  0  0
    0.0981   -1.8538   -1.0687 C   0  0  0  0  0  0  0  0  0  0  0  0
   -1.4329   -1.9145   -0.9628 C   0  0  0  0  0  0  0  0  0  0  0  0
   -1.9244   -2.4752    0.3891 C   0  0  0  0  0  0  0  0  0  0  0  0
   -3.4486   -2.2484    0.7656 C   0  0  0  0  0  0  0  0  0  0  0  0
   -3.9599   -3.5724    1.4043 C   0  0  0  0  0  0  0  0  0  0  0  0
   -5.2682   -3.4330    1.8995 O   0  0  0  0  0  0  0  0  0  0  0  0
   -3.5702   -1.1231    1.8368 C   0  0  0  0  0  0  0  0  0  0  0  0
   -3.1427    0.2446    1.2924 C   0  0  0  0  0  0  0  0  0  0  0  0
   -3.6332    0.4624   -0.0749 N   0  0  0  0  0  0  0  0  0  0  0  0
   -4.6970   -0.3958   -0.6153 C   0  0  0  0  0  0  0  0  0  0  0  0
   -4.3664   -1.8975   -0.4635 C   0  0  0  0  0  0  0  0  0  0  0  0
   -3.0672    1.5239   -0.8706 C   0  0  0  0  0  0  0  0  0  0  0  0
   -3.0248    1.4206   -2.1267 O   0  0  0  0  0  0  0  0  0  0  0  0
   -2.5039    2.7285   -0.2335 C   0  0  0  0  0  0  0  0  0  0  0  0
   -3.3422    3.5553    0.5291 C   0  0  0  0  0  0  0  0  0  0  0  0
   -2.8272    4.6867    1.1629 C   0  0  0  0  0  0  0  0  0  0  0  0
   -1.4723    5.0000    1.0431 C   0  0  0  0  0  0  0  0  0  0  0  0
   -0.6267    4.1805    0.2902 C   0  0  0  0  0  0  0  0  0  0  0  0
   -1.1319    3.0303   -0.3478 C   0  0  0  0  0  0  0  0  0  0  0  0
   -0.3018    2.1616   -1.0740 O   0  0  0  0  0  0  0  0  0  0  0  0
    1.1229    2.2251   -1.0898 C   0  0  0  0  0  0  0  0  0  0  0  0
    1.6964    0.9892   -1.7930 C   0  0  0  0  0  0  0  0  0  0  0  0
    3.0991   -2.6541    0.2893 H   0  0  0  0  0  0  0  0  0  0  0  0
    3.3073   -1.1480    1.2460 H   0  0  0  0  0  0  0  0  0  0  0  0
    4.5891    0.7770    0.9166 H   0  0  0  0  0  0  0  0  0  0  0  0
    6.3441    2.4615    1.2129 H   0  0  0  0  0  0  0  0  0  0  0  0
    9.3528   -0.4808    0.3251 H   0  0  0  0  0  0  0  0  0  0  0  0
    7.5967   -2.1930    0.0325 H   0  0  0  0  0  0  0  0  0  0  0  0
    0.9951   -1.1552    0.7922 H   0  0  0  0  0  0  0  0  0  0  0  0
   -0.0366    0.0400    0.0257 H   0  0  0  0  0  0  0  0  0  0  0  0
    0.3490   -1.6696   -2.1364 H   0  0  0  0  0  0  0  0  0  0  0  0
    0.5417   -2.8354   -0.7929 H   0  0  0  0  0  0  0  0  0  0  0  0
   -1.8346   -0.9061   -1.1574 H   0  0  0  0  0  0  0  0  0  0  0  0
   -1.7906   -2.5810   -1.7779 H   0  0  0  0  0  0  0  0  0  0  0  0
   -1.6900   -3.5629    0.3629 H   0  0  0  0  0  0  0  0  0  0  0  0
   -1.2828   -2.0782    1.2047 H   0  0  0  0  0  0  0  0  0  0  0  0
   -3.9052   -4.3886    0.6448 H   0  0  0  0  0  0  0  0  0  0  0  0
   -3.3003   -3.8634    2.2511 H   0  0  0  0  0  0  0  0  0  0  0  0
   -5.7877   -4.2249    1.5988 H   0  0  0  0  0  0  0  0  0  0  0  0
   -4.6258   -1.0363    2.1757 H   0  0  0  0  0  0  0  0  0  0  0  0
   -2.9614   -1.3658    2.7370 H   0  0  0  0  0  0  0  0  0  0  0  0
   -3.5294    1.0444    1.9589 H   0  0  0  0  0  0  0  0  0  0  0  0
   -2.0339    0.2999    1.3014 H   0  0  0  0  0  0  0  0  0  0  0  0
   -5.6333   -0.1712   -0.0581 H   0  0  0  0  0  0  0  0  0  0  0  0
   -4.9036   -0.1689   -1.6836 H   0  0  0  0  0  0  0  0  0  0  0  0
   -5.3444   -2.4181   -0.3808 H   0  0  0  0  0  0  0  0  0  0  0  0
   -3.9521   -2.2884   -1.4110 H   0  0  0  0  0  0  0  0  0  0  0  0
   -4.3969    3.3237    0.6271 H   0  0  0  0  0  0  0  0  0  0  0  0
   -3.4772    5.3196    1.7527 H   0  0  0  0  0  0  0  0  0  0  0  0
   -1.0771    5.8797    1.5349 H   0  0  0  0  0  0  0  0  0  0  0  0
    0.4192    4.4471    0.2157 H   0  0  0  0  0  0  0  0  0  0  0  0
    1.4308    3.1348   -1.6471 H   0  0  0  0  0  0  0  0  0  0  0  0
    1.5219    2.2845   -0.0536 H   0  0  0  0  0  0  0  0  0  0  0  0
    1.0347    0.6857   -2.6335 H   0  0  0  0  0  0  0  0  0  0  0  0
    2.6733    1.2863   -2.2335 H   0  0  0  0  0  0  0  0  0  0  0  0
  1  2  2  0
  2  3  1  0
  3  4  1  0
  4  5  1  0
  5  6  2  0
  6  7  1  0
  7  8  2  0
  8  9  1  0
  8 10  1  0
 10 11  2  0
  2 12  1  0
 12 13  1  0
 13 14  1  0
 14 15  1  0
 15 16  1  0
 16 17  1  0
 17 18  1  0
 18 19  1  0
 17 20  1  0
 20 21  1  0
 21 22  1  0
 22 23  1  0
 23 24  1  0
 22 25  1  0
 25 26  2  0
 25 27  1  0
 27 28  2  0
 28 29  1  0
 29 30  2  0
 30 31  1  0
 31 32  2  0
 32 33  1  0
 33 34  1  0
 34 35  1  0
 11  5  1  0
 35 12  1  0
 24 17  1  0
 32 27  1  0
  3 36  1  0
  3 37  1  0
  6 38  1  0
  7 39  1  0
 10 40  1  0
 11 41  1  0
 13 42  1  0
 13 43  1  0
 14 44  1  0
 14 45  1  0
 15 46  1  0
 15 47  1  0
 16 48  1  0
 16 49  1  0
 18 50  1  0
 18 51  1  0
 19 52  1  0
 20 53  1  0
 20 54  1  0
 21 55  1  0
 21 56  1  0
 23 57  1  0
 23 58  1  0
 24 59  1  0
 24 60  1  0
 28 61  1  0
 29 62  1  0
 30 63  1  0
 31 64  1  0
 34 65  1  0
 34 66  1  0
 35 67  1  0
 35 68  1  0
M  END
$$$$
