
     RDKit          3D

 71 74  0  0  0  0  0  0  0  0999 V2000
   -0.2465   -2.4697   -1.2159 O   0  0  0  0  0  0  0  0  0  0  0  0
   -1.1500   -1.6101   -1.0367 C   0  0  0  0  0  0  0  0  0  0  0  0
   -1.3407   -0.5293   -2.0716 C   0  0  0  0  0  0  0  0  0  0  0  0
   -0.3894    0.6691   -1.8822 C   0  0  0  0  0  0  0  0  0  0  0  0
    1.0595    0.2486   -1.9346 C   0  0  0  0  0  0  0  0  0  0  0  0
    1.6506    0.2199   -3.0474 O   0  0  0  0  0  0  0  0  0  0  0  0
    1.7537   -0.1515   -0.7430 N   0  0  0  0  0  0  0  0  0  0  0  0
    3.1879   -0.4386   -0.7602 C   0  0  0  0  0  0  0  0  0  0  0  0
    3.6908   -0.7760    0.6586 C   0  0  0  0  0  0  0  0  0  0  0  0
    5.1588   -0.9281    0.7717 N   0  0  0  0  0  0  0  0  0  0  0  0
    5.8805    0.3580    0.7679 C   0  0  0  0  0  0  0  0  0  0  0  0
    7.4042    0.1222    0.7872 C   0  0  0  0  0  0  0  0  0  0  0  0
    7.7107   -1.2140    1.1395 O   0  0  0  0  0  0  0  0  0  0  0  0
    7.2351   -2.1003    0.1394 C   0  0  0  0  0  0  0  0  0  0  0  0
    5.7458   -1.8690   -0.1969 C   0  0  0  0  0  0  0  0  0  0  0  0
   -0.6770    1.4022   -0.6427 N   0  0  0  0  0  0  0  0  0  0  0  0
   -0.2010    2.7424   -0.4390 C   0  0  0  0  0  0  0  0  0  0  0  0
    0.6277    3.2370   -1.2526 O   0  0  0  0  0  0  0  0  0  0  0  0
   -0.6408    3.5565    0.7201 C   0  0  0  0  0  0  0  0  0  0  0  0
    0.2684    4.4736    1.2802 C   0  0  0  0  0  0  0  0  0  0  0  0
   -0.1202    5.3177    2.3202 C   0  0  0  0  0  0  0  0  0  0  0  0
   -1.4264    5.2747    2.8014 C   0  0  0  0  0  0  0  0  0  0  0  0
   -2.3473    4.3814    2.2523 C   0  0  0  0  0  0  0  0  0  0  0  0
   -1.9667    3.5039    1.2143 C   0  0  0  0  0  0  0  0  0  0  0  0
   -2.8743    2.5862    0.6583 O   0  0  0  0  0  0  0  0  0  0  0  0
   -4.2952    2.6615    0.7638 C   0  0  0  0  0  0  0  0  0  0  0  0
   -4.9180    1.3640    0.2513 C   0  0  0  0  0  0  0  0  0  0  0  0
   -4.8398    0.3270    1.2799 N   0  0  0  0  0  0  0  0  0  0  0  0
   -3.7406   -0.5855    1.3879 C   0  0  0  0  0  0  0  0  0  0  0  0
   -3.1731   -0.7260    2.5051 O   0  0  0  0  0  0  0  0  0  0  0  0
   -3.3586   -1.4909    0.2439 C   0  0  0  0  0  0  0  0  0  0  0  0
   -4.0194   -2.8667    0.4345 C   0  0  0  0  0  0  0  0  0  0  0  0
   -3.7021   -3.7838   -0.7084 C   0  0  0  0  0  0  0  0  0  0  0  0
   -4.2852   -3.7539   -1.9560 C   0  0  0  0  0  0  0  0  0  0  0  0
   -3.6708   -4.6689   -2.7191 N   0  0  0  0  0  0  0  0  0  0  0  0
   -2.7323   -5.2256   -1.9289 C   0  0  0  0  0  0  0  0  0  0  0  0
   -2.7161   -4.7030   -0.6849 N   0  0  0  0  0  0  0  0  0  0  0  0
   -1.8982   -1.6359    0.1866 N   0  0  0  0  0  0  0  0  0  0  0  0
   -2.3804   -0.1505   -2.0795 H   0  0  0  0  0  0  0  0  0  0  0  0
   -1.1664   -0.9691   -3.0779 H   0  0  0  0  0  0  0  0  0  0  0  0
   -0.5819    1.3562   -2.7372 H   0  0  0  0  0  0  0  0  0  0  0  0
    1.2200   -0.2228    0.1542 H   0  0  0  0  0  0  0  0  0  0  0  0
    3.3657   -1.2994   -1.4391 H   0  0  0  0  0  0  0  0  0  0  0  0
    3.7219    0.4481   -1.1605 H   0  0  0  0  0  0  0  0  0  0  0  0
    3.3508    0.0141    1.3622 H   0  0  0  0  0  0  0  0  0  0  0  0
    3.2096   -1.7204    0.9906 H   0  0  0  0  0  0  0  0  0  0  0  0
    5.5910    0.9400    1.6698 H   0  0  0  0  0  0  0  0  0  0  0  0
    5.6254    0.9632   -0.1275 H   0  0  0  0  0  0  0  0  0  0  0  0
    7.8716    0.8013    1.5320 H   0  0  0  0  0  0  0  0  0  0  0  0
    7.8502    0.3773   -0.2027 H   0  0  0  0  0  0  0  0  0  0  0  0
    7.8590   -2.0120   -0.7788 H   0  0  0  0  0  0  0  0  0  0  0  0
    7.3616   -3.1377    0.5152 H   0  0  0  0  0  0  0  0  0  0  0  0
    5.2014   -2.8385   -0.1684 H   0  0  0  0  0  0  0  0  0  0  0  0
    5.6770   -1.4568   -1.2289 H   0  0  0  0  0  0  0  0  0  0  0  0
   -1.1516    0.9126    0.1470 H   0  0  0  0  0  0  0  0  0  0  0  0
    1.2866    4.5339    0.9136 H   0  0  0  0  0  0  0  0  0  0  0  0
    0.5906    6.0152    2.7451 H   0  0  0  0  0  0  0  0  0  0  0  0
   -1.7288    5.9394    3.5998 H   0  0  0  0  0  0  0  0  0  0  0  0
   -3.3504    4.3851    2.6513 H   0  0  0  0  0  0  0  0  0  0  0  0
   -4.6561    3.5147    0.1520 H   0  0  0  0  0  0  0  0  0  0  0  0
   -4.6159    2.8143    1.8150 H   0  0  0  0  0  0  0  0  0  0  0  0
   -5.9883    1.5460    0.0148 H   0  0  0  0  0  0  0  0  0  0  0  0
   -4.4168    1.0502   -0.6870 H   0  0  0  0  0  0  0  0  0  0  0  0
   -5.4120    0.4808    2.1413 H   0  0  0  0  0  0  0  0  0  0  0  0
   -3.7506   -1.0697   -0.6988 H   0  0  0  0  0  0  0  0  0  0  0  0
   -3.6694   -3.3308    1.3830 H   0  0  0  0  0  0  0  0  0  0  0  0
   -5.1235   -2.7449    0.5015 H   0  0  0  0  0  0  0  0  0  0  0  0
   -5.0809   -3.0996   -2.2890 H   0  0  0  0  0  0  0  0  0  0  0  0
   -3.8743   -4.8989   -3.7175 H   0  0  0  0  0  0  0  0  0  0  0  0
   -2.0564   -6.0044   -2.2570 H   0  0  0  0  0  0  0  0  0  0  0  0
   -1.4228   -2.0557    1.0175 H   0  0  0  0  0  0  0  0  0  0  0  0
  1  2  2  0
  2  3  1  0
  3  4  1  0
  4  5  1  0
  5  6  2  0
  5  7  1  0
  7  8  1  0
  8  9  1  0
  9 10  1  0
 10 11  1  0
 11 12  1  0
 12 13  1  0
 13 14  1  0
 14 15  1  0
  4 16  1  0
 16 17  1  0
 17 18  2  0
 17 19  1  0
 19 20  2  0
 20 21  1  0
 21 22  2  0
 22 23  1  0
 23 24  2  0
 24 25  1  0
 25 26  1  0
 26 27  1  0
 27 28  1  0
 28 29  1  0
 29 30  2  0
 29 31  1  0
 31 32  1  0
 32 33  1  0
 33 34  2  0
 34 35  1  0
 35 36  1  0
 36 37  2  0
 31 38  1  0
 38  2  1  0
 15 10  1  0
 24 19  1  0
 37 33  1  0
  3 39  1  0
  3 40  1  0
  4 41  1  0
  7 42  1  0
  8 43  1  0
  8 44  1  0
  9 45  1  0
  9 46  1  0
 11 47  1  0
 11 48  1  0
 12 49  1  0
 12 50  1  0
 14 51  1  0
 14 52  1  0
 15 53  1  0
 15 54  1  0
 16 55  1  0
 20 56  1  0
 21 57  1  0
 22 58  1  0
 23 59  1  0
 26 60  1  0
 26 61  1  0
 27 62  1  0
 27 63  1  0
 28 64  1  0
 31 65  1  0
 32 66  1  0
 32 67  1  0
 34 68  1  0
 35 69  1  0
 36 70  1  0
 38 71  1  0
M  END
$$$$
