
     RDKit          3D

124127  0  0  0  0  0  0  0  0999 V2000
   -7.3486   -5.0278   -1.0156 C   0  0  0  0  0  0  0  0  0  0  0  0
   -6.0068   -4.5959   -0.9442 O   0  0  0  0  0  0  0  0  0  0  0  0
   -5.9345   -3.2516   -0.4979 C   0  0  0  0  0  0  0  0  0  0  0  0
   -5.6433   -2.2945   -1.6761 C   0  0  1  0  0  0  0  0  0  0  0  0
   -5.6267   -0.8696   -1.1738 C   0  0  0  0  0  0  0  0  0  0  0  0
   -4.6170   -0.1474   -1.3644 O   0  0  0  0  0  0  0  0  0  0  0  0
   -6.7490   -0.3258   -0.4773 N   0  0  0  0  0  0  0  0  0  0  0  0
   -6.6065    0.1933    0.8878 C   0  0  0  0  0  0  0  0  0  0  0  0
   -7.1807    1.5824    0.9737 C   0  0  0  0  0  0  0  0  0  0  0  0
   -8.4360    1.7174    0.9205 O   0  0  0  0  0  0  0  0  0  0  0  0
   -6.3366    2.7457    1.1613 N   0  0  0  0  0  0  0  0  0  0  0  0
   -6.8476    3.9081    1.7871 N   0  0  0  0  0  0  0  0  0  0  0  0
   -7.1176    4.9087    0.7509 C   0  0  0  0  0  0  0  0  0  0  0  0
   -5.8156    5.2702    0.0277 C   0  0  0  0  0  0  0  0  0  0  0  0
   -5.1639    4.0137   -0.5733 C   0  0  0  0  0  0  0  0  0  0  0  0
   -5.0477    2.8716    0.4579 C   0  0  1  0  0  0  0  0  0  0  0  0
   -3.9081    3.0552    1.4378 C   0  0  0  0  0  0  0  0  0  0  0  0
   -3.9852    2.5240    2.5795 O   0  0  0  0  0  0  0  0  0  0  0  0
   -2.6972    3.7273    1.0580 N   0  0  0  0  0  0  0  0  0  0  0  0
   -2.6054    5.0555    1.3094 O   0  0  0  0  0  0  0  0  0  0  0  0
   -1.4861    3.0081    0.6285 C   0  0  2  0  0  0  0  0  0  0  0  0
   -0.8446    3.7260   -0.5618 C   0  0  0  0  0  0  0  0  0  0  0  0
   -1.7721    1.5777    0.2462 C   0  0  0  0  0  0  0  0  0  0  0  0
   -2.4850    1.3373   -0.7611 O   0  0  0  0  0  0  0  0  0  0  0  0
   -1.2652    0.5086    0.9863 O   0  0  0  0  0  0  0  0  0  0  0  0
    0.1392    0.2872    1.1622 C   0  0  1  0  0  0  0  0  0  0  0  0
    0.4127   -0.0039    2.6698 C   0  0  0  0  0  0  0  0  0  0  0  0
   -0.0639    1.1625    3.5519 C   0  0  0  0  0  0  0  0  0  0  0  0
    1.9020   -0.2689    2.9489 C   0  0  0  0  0  0  0  0  0  0  0  0
    0.6047   -0.8833    0.2366 C   0  0  2  0  0  0  0  0  0  0  0  0
    2.0321   -0.7619   -0.0713 N   0  0  0  0  0  0  0  0  0  0  0  0
    2.8371   -1.9239   -0.3390 C   0  0  0  0  0  0  0  0  0  0  0  0
    2.7022   -2.9466    0.3799 O   0  0  0  0  0  0  0  0  0  0  0  0
    3.8427   -1.9538   -1.4831 C   0  0  2  0  0  0  0  0  0  0  0  0
    3.2853   -1.1770   -2.7017 C   0  0  0  0  0  0  0  0  0  0  0  0
    4.0538   -3.2949   -1.8733 O   0  0  0  0  0  0  0  0  0  0  0  0
    5.2188   -1.3361   -1.0621 C   0  0  2  0  0  0  0  0  0  0  0  0
    6.0769   -1.3185   -2.1901 O   0  0  0  0  0  0  0  0  0  0  0  0
    5.8643   -2.1211    0.0940 C   0  0  0  0  0  0  0  0  0  0  0  0
    7.2164   -1.5054    0.4302 C   0  0  0  0  0  0  0  0  0  0  0  0
    7.1607    0.0277    0.6491 C   0  0  1  0  0  0  0  0  0  0  0  0
    8.6413    0.5255    0.5863 C   0  0  0  0  0  0  0  0  0  0  0  0
    8.9735    1.9578    1.0766 C   0  0  0  0  0  0  0  0  0  0  0  0
   10.4970    2.1553    1.1010 C   0  0  0  0  0  0  0  0  0  0  0  0
    8.3996    2.2679    2.4668 C   0  0  0  0  0  0  0  0  0  0  0  0
    6.1966    0.7214   -0.3865 C   0  0  2  0  0  0  0  0  0  0  0  0
    5.7262    2.1039    0.0873 C   0  0  0  0  0  0  0  0  0  0  0  0
    5.0008   -0.0174   -0.6009 O   0  0  0  0  0  0  0  0  0  0  0  0
   -0.1548   -0.9199   -1.0716 C   0  0  0  0  0  0  0  0  0  0  0  0
    0.0049    0.0133   -1.9037 O   0  0  0  0  0  0  0  0  0  0  0  0
   -0.9819   -2.0454   -1.4231 N   0  0  0  0  0  0  0  0  0  0  0  0
   -2.0559   -2.5017   -0.5284 C   0  0  0  0  0  0  0  0  0  0  0  0
   -2.6046   -3.8693   -0.9985 C   0  0  2  0  0  0  0  0  0  0  0  0
   -1.4006   -4.7737   -1.3522 C   0  0  0  0  0  0  0  0  0  0  0  0
   -0.4269   -4.1149   -2.3594 C   0  0  0  0  0  0  0  0  0  0  0  0
   -0.7840   -2.7186   -2.6495 N   0  0  0  0  0  0  0  0  0  0  0  0
   -3.5918   -3.7765   -2.1571 C   0  0  0  0  0  0  0  0  0  0  0  0
   -3.7677   -4.7786   -2.9064 O   0  0  0  0  0  0  0  0  0  0  0  0
   -4.3826   -2.5996   -2.3945 N   0  0  0  0  0  0  0  0  0  0  0  0
   -4.0694   -1.8574   -3.4854 O   0  0  0  0  0  0  0  0  0  0  0  0
   -7.8040   -5.0661   -0.0004 H   0  0  0  0  0  0  0  0  0  0  0  0
   -7.3678   -6.0603   -1.4234 H   0  0  0  0  0  0  0  0  0  0  0  0
   -7.9508   -4.3781   -1.6921 H   0  0  0  0  0  0  0  0  0  0  0  0
   -6.8541   -2.9174    0.0491 H   0  0  0  0  0  0  0  0  0  0  0  0
   -5.1102   -3.1690    0.2431 H   0  0  0  0  0  0  0  0  0  0  0  0
   -6.4836   -2.3864   -2.4021 H   0  0  0  0  0  0  0  0  0  0  0  0
   -7.7122   -0.5192   -0.8452 H   0  0  0  0  0  0  0  0  0  0  0  0
   -7.1640   -0.4801    1.5800 H   0  0  0  0  0  0  0  0  0  0  0  0
   -5.5417    0.1821    1.2131 H   0  0  0  0  0  0  0  0  0  0  0  0
   -7.7447    3.6874    2.2840 H   0  0  0  0  0  0  0  0  0  0  0  0
   -7.5385    5.8216    1.2210 H   0  0  0  0  0  0  0  0  0  0  0  0
   -7.8610    4.5198    0.0239 H   0  0  0  0  0  0  0  0  0  0  0  0
   -5.1160    5.7472    0.7496 H   0  0  0  0  0  0  0  0  0  0  0  0
   -6.0268    6.0024   -0.7833 H   0  0  0  0  0  0  0  0  0  0  0  0
   -4.1748    4.2665   -1.0055 H   0  0  0  0  0  0  0  0  0  0  0  0
   -5.7977    3.6663   -1.4180 H   0  0  0  0  0  0  0  0  0  0  0  0
   -4.8333    1.9549   -0.1154 H   0  0  0  0  0  0  0  0  0  0  0  0
   -2.2769    5.1247    2.2438 H   0  0  0  0  0  0  0  0  0  0  0  0
   -0.7636    3.0276    1.4623 H   0  0  0  0  0  0  0  0  0  0  0  0
   -1.5661    3.8073   -1.3975 H   0  0  0  0  0  0  0  0  0  0  0  0
    0.0546    3.1696   -0.9113 H   0  0  0  0  0  0  0  0  0  0  0  0
   -0.5181    4.7436   -0.2739 H   0  0  0  0  0  0  0  0  0  0  0  0
    0.7006    1.2062    0.8808 H   0  0  0  0  0  0  0  0  0  0  0  0
   -0.1644   -0.9106    2.9685 H   0  0  0  0  0  0  0  0  0  0  0  0
    0.0840    0.9234    4.6231 H   0  0  0  0  0  0  0  0  0  0  0  0
    0.5051    2.0907    3.3132 H   0  0  0  0  0  0  0  0  0  0  0  0
   -1.1505    1.3539    3.4021 H   0  0  0  0  0  0  0  0  0  0  0  0
    2.0961   -0.3136    4.0423 H   0  0  0  0  0  0  0  0  0  0  0  0
    2.5298    0.5373    2.5112 H   0  0  0  0  0  0  0  0  0  0  0  0
    2.2068   -1.2499    2.5239 H   0  0  0  0  0  0  0  0  0  0  0  0
    0.4289   -1.8462    0.7690 H   0  0  0  0  0  0  0  0  0  0  0  0
    2.3897    0.1705   -0.3806 H   0  0  0  0  0  0  0  0  0  0  0  0
    2.2623   -1.5208   -2.9473 H   0  0  0  0  0  0  0  0  0  0  0  0
    3.2531   -0.0791   -2.5219 H   0  0  0  0  0  0  0  0  0  0  0  0
    3.9202   -1.3555   -3.5980 H   0  0  0  0  0  0  0  0  0  0  0  0
    3.1893   -3.6613   -2.2010 H   0  0  0  0  0  0  0  0  0  0  0  0
    6.2993   -2.2522   -2.4274 H   0  0  0  0  0  0  0  0  0  0  0  0
    5.2190   -2.0855    0.9981 H   0  0  0  0  0  0  0  0  0  0  0  0
    6.0116   -3.1849   -0.1886 H   0  0  0  0  0  0  0  0  0  0  0  0
    7.6008   -1.9931    1.3562 H   0  0  0  0  0  0  0  0  0  0  0  0
    7.9269   -1.7605   -0.3880 H   0  0  0  0  0  0  0  0  0  0  0  0
    6.7596    0.1840    1.6759 H   0  0  0  0  0  0  0  0  0  0  0  0
    9.0025    0.4246   -0.4646 H   0  0  0  0  0  0  0  0  0  0  0  0
    9.2571   -0.1712    1.1938 H   0  0  0  0  0  0  0  0  0  0  0  0
    8.5955    2.7002    0.3465 H   0  0  0  0  0  0  0  0  0  0  0  0
   10.9289    1.9562    0.0958 H   0  0  0  0  0  0  0  0  0  0  0  0
   10.7494    3.2035    1.3715 H   0  0  0  0  0  0  0  0  0  0  0  0
   10.9755    1.4730    1.8352 H   0  0  0  0  0  0  0  0  0  0  0  0
    8.7617    3.2586    2.8191 H   0  0  0  0  0  0  0  0  0  0  0  0
    8.7029    1.4907    3.1987 H   0  0  0  0  0  0  0  0  0  0  0  0
    7.2974    2.3205    2.4264 H   0  0  0  0  0  0  0  0  0  0  0  0
    6.7195    0.8733   -1.3562 H   0  0  0  0  0  0  0  0  0  0  0  0
    4.8833    2.4491   -0.5558 H   0  0  0  0  0  0  0  0  0  0  0  0
    6.5091    2.8718    0.0011 H   0  0  0  0  0  0  0  0  0  0  0  0
    5.3508    2.0480    1.1318 H   0  0  0  0  0  0  0  0  0  0  0  0
   -1.6562   -2.6351    0.5009 H   0  0  0  0  0  0  0  0  0  0  0  0
   -2.8501   -1.7377   -0.4624 H   0  0  0  0  0  0  0  0  0  0  0  0
   -3.1423   -4.3408   -0.1458 H   0  0  0  0  0  0  0  0  0  0  0  0
   -0.8479   -4.9920   -0.4147 H   0  0  0  0  0  0  0  0  0  0  0  0
   -1.7492   -5.7548   -1.7399 H   0  0  0  0  0  0  0  0  0  0  0  0
    0.6023   -4.1599   -1.9509 H   0  0  0  0  0  0  0  0  0  0  0  0
   -0.4396   -4.6867   -3.3106 H   0  0  0  0  0  0  0  0  0  0  0  0
    0.0169   -2.2831   -3.1656 H   0  0  0  0  0  0  0  0  0  0  0  0
   -4.5617   -2.2781   -4.2380 H   0  0  0  0  0  0  0  0  0  0  0  0
  1  2  1  0
  2  3  1  0
  3  4  1  0
  4  5  1  0
  5  6  2  0
  5  7  1  0
  7  8  1  0
  8  9  1  0
  9 10  2  0
  9 11  1  0
 11 12  1  0
 12 13  1  0
 13 14  1  0
 14 15  1  0
 15 16  1  0
 16 17  1  0
 17 18  2  0
 17 19  1  0
 19 20  1  0
 19 21  1  0
 21 22  1  0
 21 23  1  0
 23 24  2  0
 23 25  1  0
 25 26  1  0
 26 27  1  0
 27 28  1  0
 27 29  1  0
 26 30  1  0
 30 31  1  0
 31 32  1  0
 32 33  2  0
 32 34  1  0
 34 35  1  0
 34 36  1  6
 34 37  1  0
 37 38  1  6
 37 39  1  0
 39 40  1  0
 40 41  1  0
 41 42  1  0
 42 43  1  0
 43 44  1  0
 43 45  1  0
 41 46  1  0
 46 47  1  0
 46 48  1  0
 30 49  1  0
 49 50  2  0
 49 51  1  0
 51 52  1  0
 52 53  1  0
 53 54  1  0
 54 55  1  0
 55 56  1  0
 53 57  1  0
 57 58  2  0
 57 59  1  0
 59 60  1  0
 59  4  1  0
 16 11  1  0
 48 37  1  0
 56 51  1  0
  1 61  1  0
  1 62  1  0
  1 63  1  0
  3 64  1  0
  3 65  1  0
  4 66  1  6
  7 67  1  0
  8 68  1  0
  8 69  1  0
 12 70  1  0
 13 71  1  0
 13 72  1  0
 14 73  1  0
 14 74  1  0
 15 75  1  0
 15 76  1  0
 16 77  1  6
 20 78  1  0
 21 79  1  1
 22 80  1  0
 22 81  1  0
 22 82  1  0
 26 83  1  6
 27 84  1  0
 28 85  1  0
 28 86  1  0
 28 87  1  0
 29 88  1  0
 29 89  1  0
 29 90  1  0
 30 91  1  1
 31 92  1  0
 35 93  1  0
 35 94  1  0
 35 95  1  0
 36 96  1  0
 38 97  1  0
 39 98  1  0
 39 99  1  0
 40100  1  0
 40101  1  0
 41102  1  1
 42103  1  0
 42104  1  0
 43105  1  0
 44106  1  0
 44107  1  0
 44108  1  0
 45109  1  0
 45110  1  0
 45111  1  0
 46112  1  6
 47113  1  0
 47114  1  0
 47115  1  0
 52116  1  0
 52117  1  0
 53118  1  1
 54119  1  0
 54120  1  0
 55121  1  0
 55122  1  0
 56123  1  0
 60124  1  0
M  END
$$$$
