
     RDKit          3D

137142  0  0  0  0  0  0  0  0999 V2000
   -6.4641   -0.3319   -2.8419 C   0  0  0  0  0  0  0  0  0  0  0  0
   -5.7917    0.8416   -2.1245 C   0  0  0  0  0  0  0  0  0  0  0  0
   -6.2114    0.9323   -0.6379 C   0  0  1  0  0  0  0  0  0  0  0  0
   -6.0602   -0.2900    0.1185 O   0  0  0  0  0  0  0  0  0  0  0  0
   -5.0004   -1.2193    0.1847 C   0  0  0  0  0  0  0  0  0  0  0  0
   -5.1510   -2.2037    0.9569 O   0  0  0  0  0  0  0  0  0  0  0  0
   -3.7526   -1.1576   -0.6759 C   0  0  0  0  0  0  0  0  0  0  0  0
   -2.5515   -1.9153   -0.0672 C   0  0  1  0  0  0  0  0  0  0  0  0
   -2.8180   -3.2975   -0.0506 O   0  0  0  0  0  0  0  0  0  0  0  0
   -1.2272   -1.6408   -0.8433 C   0  0  2  0  0  0  0  0  0  0  0  0
   -1.2825   -2.2123   -2.2791 C   0  0  0  0  0  0  0  0  0  0  0  0
    0.0254   -2.1468   -0.0315 C   0  0  1  0  0  0  0  0  0  0  0  0
    0.4761   -3.3920   -0.5668 O   0  0  0  0  0  0  0  0  0  0  0  0
    0.9140   -4.3239    0.4213 C   0  0  2  0  0  0  0  0  0  0  0  0
    2.3319   -4.2678    0.5450 O   0  0  0  0  0  0  0  0  0  0  0  0
    3.0597   -5.0749   -0.3686 C   0  0  2  0  0  0  0  0  0  0  0  0
    3.0388   -4.4961   -1.7901 C   0  0  0  0  0  0  0  0  0  0  0  0
    2.6758   -6.5877   -0.3396 C   0  0  1  0  0  0  0  0  0  0  0  0
    3.7251   -7.3696    0.1715 O   0  0  0  0  0  0  0  0  0  0  0  0
    1.3455   -6.8687    0.4037 C   0  0  0  0  0  0  0  0  0  0  0  0
    1.4347   -7.1763    1.8696 N   0  0  0  0  0  0  0  0  0  0  0  0
    1.6932   -8.6030    2.1317 C   0  0  0  0  0  0  0  0  0  0  0  0
    2.3108   -6.3148    2.6862 C   0  0  0  0  0  0  0  0  0  0  0  0
    0.3529   -5.7324    0.0896 C   0  0  0  0  0  0  0  0  0  0  0  0
   -0.8939   -5.9614    0.6992 O   0  0  0  0  0  0  0  0  0  0  0  0
    1.2157   -1.1227    0.0165 C   0  0  1  0  0  0  0  0  0  0  0  0
    1.7465   -0.8244   -1.4145 C   0  0  0  0  0  0  0  0  0  0  0  0
    3.1036   -0.0971   -1.5076 C   0  0  0  0  0  0  0  0  0  0  0  0
    4.2416   -1.0273   -1.3036 N   0  0  0  0  0  0  0  0  0  0  0  0
    4.8550   -0.8872    0.0301 C   0  0  0  0  0  0  0  0  0  0  0  0
    5.2567   -0.9389   -2.3809 C   0  0  0  0  0  0  0  0  0  0  0  0
    5.8930    0.4237   -2.4737 C   0  0  0  0  0  0  0  0  0  0  0  0
    6.9382    0.9023   -1.7138 C   0  0  0  0  0  0  0  0  0  0  0  0
    7.0819    2.2029   -2.0414 N   0  0  0  0  0  0  0  0  0  0  0  0
    7.9589    3.1779   -1.4432 C   0  0  0  0  0  0  0  0  0  0  0  0
    8.8802    2.8207   -0.4380 C   0  0  0  0  0  0  0  0  0  0  0  0
    9.6634    3.7651    0.1475 N   0  0  0  0  0  0  0  0  0  0  0  0
    9.6011    5.0746   -0.2135 C   0  0  0  0  0  0  0  0  0  0  0  0
   10.4169    6.0179    0.4203 C   0  0  0  0  0  0  0  0  0  0  0  0
   10.3401    7.3669    0.0585 C   0  0  0  0  0  0  0  0  0  0  0  0
    9.4452    7.7778   -0.9341 C   0  0  0  0  0  0  0  0  0  0  0  0
    8.6249    6.8414   -1.5721 C   0  0  0  0  0  0  0  0  0  0  0  0
    8.6998    5.4859   -1.2176 C   0  0  0  0  0  0  0  0  0  0  0  0
    7.8828    4.5277   -1.8308 C   0  0  0  0  0  0  0  0  0  0  0  0
    6.1707    2.4925   -2.9626 N   0  0  0  0  0  0  0  0  0  0  0  0
    5.4371    1.4267   -3.2462 N   0  0  0  0  0  0  0  0  0  0  0  0
    0.8716    0.2145    0.7482 C   0  0  0  0  0  0  0  0  0  0  0  0
    0.3573    0.1133    2.2086 C   0  0  1  0  0  0  0  0  0  0  0  0
    1.4787   -0.2705    3.1810 C   0  0  0  0  0  0  0  0  0  0  0  0
   -0.2842    1.4246    2.5735 C   0  0  0  0  0  0  0  0  0  0  0  0
    0.3814    2.3462    3.1291 O   0  0  0  0  0  0  0  0  0  0  0  0
   -1.6742    1.6618    2.1566 C   0  0  0  0  0  0  0  0  0  0  0  0
   -2.0211    2.7597    1.4693 C   0  0  0  0  0  0  0  0  0  0  0  0
   -3.3599    2.9946    0.8532 C   0  0  0  0  0  0  0  0  0  0  0  0
   -3.6286    4.3889    0.3446 C   0  0  0  0  0  0  0  0  0  0  0  0
   -4.2541    1.9951    0.6634 C   0  0  0  0  0  0  0  0  0  0  0  0
   -5.6492    2.1910    0.1015 C   0  0  2  0  0  0  0  0  0  0  0  0
   -6.6010    2.6494    1.2470 C   0  0  0  0  0  0  0  0  0  0  0  0
   -7.3040    3.8977    0.8605 N   0  0  0  0  0  0  0  0  0  0  0  0
   -7.5829    4.7941    2.0163 C   0  0  0  0  0  0  0  0  0  0  0  0
   -9.0134    4.6321    2.5440 C   0  0  0  0  0  0  0  0  0  0  0  0
  -10.0479    4.9826    1.4577 C   0  0  0  0  0  0  0  0  0  0  0  0
   -9.5082    4.7633    0.0322 C   0  0  0  0  0  0  0  0  0  0  0  0
   -8.4859    3.6198    0.0003 C   0  0  0  0  0  0  0  0  0  0  0  0
   -7.5705   -0.2227   -2.8023 H   0  0  0  0  0  0  0  0  0  0  0  0
   -6.1904   -1.3009   -2.3811 H   0  0  0  0  0  0  0  0  0  0  0  0
   -6.1461   -0.3448   -3.9077 H   0  0  0  0  0  0  0  0  0  0  0  0
   -6.1189    1.7714   -2.6380 H   0  0  0  0  0  0  0  0  0  0  0  0
   -4.6962    0.8025   -2.2582 H   0  0  0  0  0  0  0  0  0  0  0  0
   -7.3095    1.0924   -0.6981 H   0  0  0  0  0  0  0  0  0  0  0  0
   -3.4401   -0.1043   -0.8048 H   0  0  0  0  0  0  0  0  0  0  0  0
   -3.9973   -1.5812   -1.6677 H   0  0  0  0  0  0  0  0  0  0  0  0
   -2.4328   -1.5171    0.9732 H   0  0  0  0  0  0  0  0  0  0  0  0
   -2.5791   -3.6306    0.8560 H   0  0  0  0  0  0  0  0  0  0  0  0
   -1.1601   -0.5436   -0.9580 H   0  0  0  0  0  0  0  0  0  0  0  0
   -2.0720   -1.7078   -2.8670 H   0  0  0  0  0  0  0  0  0  0  0  0
   -0.3316   -2.0435   -2.8137 H   0  0  0  0  0  0  0  0  0  0  0  0
   -1.4913   -3.3030   -2.2657 H   0  0  0  0  0  0  0  0  0  0  0  0
   -0.3167   -2.2774    1.0066 H   0  0  0  0  0  0  0  0  0  0  0  0
    0.5255   -4.0849    1.4341 H   0  0  0  0  0  0  0  0  0  0  0  0
    4.1222   -5.0023   -0.0429 H   0  0  0  0  0  0  0  0  0  0  0  0
    3.3761   -3.4443   -1.7665 H   0  0  0  0  0  0  0  0  0  0  0  0
    3.7442   -5.0626   -2.4323 H   0  0  0  0  0  0  0  0  0  0  0  0
    2.0286   -4.5563   -2.2387 H   0  0  0  0  0  0  0  0  0  0  0  0
    2.5011   -6.9197   -1.3924 H   0  0  0  0  0  0  0  0  0  0  0  0
    4.4333   -7.3878   -0.5206 H   0  0  0  0  0  0  0  0  0  0  0  0
    0.9019   -7.7615   -0.0996 H   0  0  0  0  0  0  0  0  0  0  0  0
    1.6747   -8.8087    3.2232 H   0  0  0  0  0  0  0  0  0  0  0  0
    2.6868   -8.9170    1.7387 H   0  0  0  0  0  0  0  0  0  0  0  0
    0.8986   -9.2314    1.6668 H   0  0  0  0  0  0  0  0  0  0  0  0
    2.3848   -6.7014    3.7260 H   0  0  0  0  0  0  0  0  0  0  0  0
    3.3379   -6.2436    2.2778 H   0  0  0  0  0  0  0  0  0  0  0  0
    1.8704   -5.3050    2.7885 H   0  0  0  0  0  0  0  0  0  0  0  0
    0.1758   -5.7685   -1.0105 H   0  0  0  0  0  0  0  0  0  0  0  0
   -0.7767   -5.8813    1.6823 H   0  0  0  0  0  0  0  0  0  0  0  0
    2.0233   -1.6191    0.5863 H   0  0  0  0  0  0  0  0  0  0  0  0
    0.9963   -0.1962   -1.9447 H   0  0  0  0  0  0  0  0  0  0  0  0
    1.8299   -1.7639   -1.9968 H   0  0  0  0  0  0  0  0  0  0  0  0
    3.1314    0.3309   -2.5351 H   0  0  0  0  0  0  0  0  0  0  0  0
    3.1654    0.7880   -0.8419 H   0  0  0  0  0  0  0  0  0  0  0  0
    4.1560   -1.2280    0.8188 H   0  0  0  0  0  0  0  0  0  0  0  0
    5.7607   -1.5278    0.1146 H   0  0  0  0  0  0  0  0  0  0  0  0
    5.1377    0.1667    0.2447 H   0  0  0  0  0  0  0  0  0  0  0  0
    6.0443   -1.7054   -2.2214 H   0  0  0  0  0  0  0  0  0  0  0  0
    4.7815   -1.1859   -3.3559 H   0  0  0  0  0  0  0  0  0  0  0  0
    7.4768    0.3687   -0.9464 H   0  0  0  0  0  0  0  0  0  0  0  0
    8.9768    1.7976   -0.1092 H   0  0  0  0  0  0  0  0  0  0  0  0
   11.1084    5.7086    1.1977 H   0  0  0  0  0  0  0  0  0  0  0  0
   10.9726    8.0943    0.5512 H   0  0  0  0  0  0  0  0  0  0  0  0
    9.3854    8.8227   -1.2067 H   0  0  0  0  0  0  0  0  0  0  0  0
    7.9360    7.1743   -2.3410 H   0  0  0  0  0  0  0  0  0  0  0  0
    7.1823    4.8355   -2.6009 H   0  0  0  0  0  0  0  0  0  0  0  0
    0.1425    0.7881    0.1398 H   0  0  0  0  0  0  0  0  0  0  0  0
    1.7750    0.8545    0.7851 H   0  0  0  0  0  0  0  0  0  0  0  0
   -0.4350   -0.6518    2.3005 H   0  0  0  0  0  0  0  0  0  0  0  0
    2.3347    0.4336    3.0979 H   0  0  0  0  0  0  0  0  0  0  0  0
    1.1006   -0.2516    4.2259 H   0  0  0  0  0  0  0  0  0  0  0  0
    1.8363   -1.2983    2.9682 H   0  0  0  0  0  0  0  0  0  0  0  0
   -2.3699    0.8568    2.3365 H   0  0  0  0  0  0  0  0  0  0  0  0
   -1.2665    3.5244    1.3260 H   0  0  0  0  0  0  0  0  0  0  0  0
   -2.9007    5.1174    0.7603 H   0  0  0  0  0  0  0  0  0  0  0  0
   -3.5455    4.4035   -0.7662 H   0  0  0  0  0  0  0  0  0  0  0  0
   -4.6390    4.7348    0.6477 H   0  0  0  0  0  0  0  0  0  0  0  0
   -4.0456    1.0233    1.0677 H   0  0  0  0  0  0  0  0  0  0  0  0
   -5.6044    2.9997   -0.6627 H   0  0  0  0  0  0  0  0  0  0  0  0
   -6.0079    2.8047    2.1738 H   0  0  0  0  0  0  0  0  0  0  0  0
   -7.3259    1.8528    1.5268 H   0  0  0  0  0  0  0  0  0  0  0  0
   -6.8636    4.6519    2.8503 H   0  0  0  0  0  0  0  0  0  0  0  0
   -7.4408    5.8452    1.6836 H   0  0  0  0  0  0  0  0  0  0  0  0
   -9.1598    5.2940    3.4274 H   0  0  0  0  0  0  0  0  0  0  0  0
   -9.1547    3.5800    2.8757 H   0  0  0  0  0  0  0  0  0  0  0  0
  -10.9548    4.3569    1.6170 H   0  0  0  0  0  0  0  0  0  0  0  0
  -10.3518    6.0460    1.5656 H   0  0  0  0  0  0  0  0  0  0  0  0
  -10.3526    4.5380   -0.6550 H   0  0  0  0  0  0  0  0  0  0  0  0
   -9.0179    5.6951   -0.3273 H   0  0  0  0  0  0  0  0  0  0  0  0
   -8.1453    3.4831   -1.0449 H   0  0  0  0  0  0  0  0  0  0  0  0
   -9.0124    2.6890    0.3145 H   0  0  0  0  0  0  0  0  0  0  0  0
  1  2  1  0
  2  3  1  0
  3  4  1  0
  4  5  1  0
  5  6  2  0
  5  7  1  0
  7  8  1  0
  8  9  1  0
  8 10  1  0
 10 11  1  0
 10 12  1  0
 12 13  1  0
 13 14  1  0
 14 15  1  0
 15 16  1  0
 16 17  1  0
 16 18  1  0
 18 19  1  0
 18 20  1  0
 20 21  1  0
 21 22  1  0
 21 23  1  0
 20 24  1  0
 24 25  1  0
 12 26  1  0
 26 27  1  0
 27 28  1  0
 28 29  1  0
 29 30  1  0
 29 31  1  0
 31 32  1  0
 32 33  2  0
 33 34  1  0
 34 35  1  0
 35 36  2  0
 36 37  1  0
 37 38  2  0
 38 39  1  0
 39 40  2  0
 40 41  1  0
 41 42  2  0
 42 43  1  0
 43 44  2  0
 34 45  1  0
 45 46  2  0
 26 47  1  0
 47 48  1  0
 48 49  1  0
 48 50  1  0
 50 51  2  0
 50 52  1  0
 52 53  2  0
 53 54  1  0
 54 55  1  0
 54 56  2  0
 56 57  1  0
 57 58  1  0
 58 59  1  0
 59 60  1  0
 60 61  1  0
 61 62  1  0
 62 63  1  0
 63 64  1  0
 57  3  1  0
 64 59  1  0
 24 14  1  0
 46 32  1  0
 44 35  1  0
 43 38  1  0
  1 65  1  0
  1 66  1  0
  1 67  1  0
  2 68  1  0
  2 69  1  0
  3 70  1  6
  7 71  1  0
  7 72  1  0
  8 73  1  1
  9 74  1  0
 10 75  1  6
 11 76  1  0
 11 77  1  0
 11 78  1  0
 12 79  1  1
 14 80  1  1
 16 81  1  1
 17 82  1  0
 17 83  1  0
 17 84  1  0
 18 85  1  6
 19 86  1  0
 20 87  1  0
 22 88  1  0
 22 89  1  0
 22 90  1  0
 23 91  1  0
 23 92  1  0
 23 93  1  0
 24 94  1  0
 25 95  1  0
 26 96  1  1
 27 97  1  0
 27 98  1  0
 28 99  1  0
 28100  1  0
 30101  1  0
 30102  1  0
 30103  1  0
 31104  1  0
 31105  1  0
 33106  1  0
 36107  1  0
 39108  1  0
 40109  1  0
 41110  1  0
 42111  1  0
 44112  1  0
 47113  1  0
 47114  1  0
 48115  1  6
 49116  1  0
 49117  1  0
 49118  1  0
 52119  1  0
 53120  1  0
 55121  1  0
 55122  1  0
 55123  1  0
 56124  1  0
 57125  1  6
 58126  1  0
 58127  1  0
 60128  1  0
 60129  1  0
 61130  1  0
 61131  1  0
 62132  1  0
 62133  1  0
 63134  1  0
 63135  1  0
 64136  1  0
 64137  1  0
M  END
$$$$
