
     RDKit          3D

 66 68  0  0  0  0  0  0  0  0999 V2000
   -0.5300    4.0350   -0.5371 C   0  0  0  0  0  0  0  0  0  0  0  0
   -1.6489    3.0874   -0.9904 C   0  0  1  0  0  0  0  0  0  0  0  0
   -1.8434    3.1167   -2.5159 C   0  0  0  0  0  0  0  0  0  0  0  0
   -2.2030    4.4020   -2.9470 O   0  0  0  0  0  0  0  0  0  0  0  0
   -1.3911    1.7167   -0.5080 N   0  0  0  0  0  0  0  0  0  0  0  0
   -0.1829    0.9737   -0.9133 C   0  0  0  0  0  0  0  0  0  0  0  0
   -0.5353   -0.4114   -1.5245 C   0  0  1  0  0  0  0  0  0  0  0  0
   -0.7161   -0.3254   -3.0492 C   0  0  0  0  0  0  0  0  0  0  0  0
    0.4779   -1.5266   -1.1183 C   0  0  1  0  0  0  0  0  0  0  0  0
    1.9209   -1.1621   -1.5791 C   0  0  0  0  0  0  0  0  0  0  0  0
    2.9989   -2.0723   -1.1406 N   0  0  0  0  0  0  0  0  0  0  0  0
    2.8024   -3.4694   -1.5401 C   0  0  0  0  0  0  0  0  0  0  0  0
    3.4772   -1.9260    0.5401 S   0  0  0  0  0  6  0  0  0  0  0  0
    4.9618   -2.1371    0.6301 O   0  0  0  0  0  0  0  0  0  0  0  0
    2.8052   -2.9965    1.3544 O   0  0  0  0  0  0  0  0  0  0  0  0
    3.1216   -0.3259    1.2162 C   0  0  0  0  0  0  0  0  0  0  0  0
    3.7033    0.8098    0.6300 C   0  0  0  0  0  0  0  0  0  0  0  0
    3.3839    2.0872    1.0963 C   0  0  0  0  0  0  0  0  0  0  0  0
    2.5089    2.2391    2.1731 C   0  0  0  0  0  0  0  0  0  0  0  0
    1.9643    1.1152    2.7953 C   0  0  0  0  0  0  0  0  0  0  0  0
    2.2706   -0.1648    2.3267 C   0  0  0  0  0  0  0  0  0  0  0  0
    1.7218   -1.2339    2.9531 F   0  0  0  0  0  0  0  0  0  0  0  0
    0.4281   -1.6938    0.2939 O   0  0  0  0  0  0  0  0  0  0  0  0
   -0.2910   -2.8549    0.6804 C   0  0  0  0  0  0  0  0  0  0  0  0
   -1.7777   -2.6412    0.6126 C   0  0  0  0  0  0  0  0  0  0  0  0
   -2.6141   -3.0735   -0.3939 C   0  0  0  0  0  0  0  0  0  0  0  0
   -3.8598   -2.6492   -0.1027 N   0  0  0  0  0  0  0  0  0  0  0  0
   -3.7880   -1.9818    1.0407 N   0  0  0  0  0  0  0  0  0  0  0  0
   -2.5399   -1.9483    1.4834 N   0  0  0  0  0  0  0  0  0  0  0  0
   -2.1544   -1.3853    2.7782 C   0  0  0  0  0  0  0  0  0  0  0  0
   -2.4781    0.1110    2.8692 C   0  0  0  0  0  0  0  0  0  0  0  0
   -1.6138    0.9753    1.9311 C   0  0  0  0  0  0  0  0  0  0  0  0
   -2.2112    1.2144    0.5640 C   0  0  0  0  0  0  0  0  0  0  0  0
   -3.4584    1.1343    0.3922 O   0  0  0  0  0  0  0  0  0  0  0  0
   -0.8115    5.0884   -0.7483 H   0  0  0  0  0  0  0  0  0  0  0  0
    0.4231    3.8134   -1.0600 H   0  0  0  0  0  0  0  0  0  0  0  0
   -0.3669    3.9313    0.5564 H   0  0  0  0  0  0  0  0  0  0  0  0
   -2.5939    3.4649   -0.5372 H   0  0  0  0  0  0  0  0  0  0  0  0
   -0.9057    2.8258   -3.0328 H   0  0  0  0  0  0  0  0  0  0  0  0
   -2.6346    2.3893   -2.8045 H   0  0  0  0  0  0  0  0  0  0  0  0
   -3.1539    4.5321   -2.6953 H   0  0  0  0  0  0  0  0  0  0  0  0
    0.4219    1.5573   -1.6378 H   0  0  0  0  0  0  0  0  0  0  0  0
    0.4761    0.8624   -0.0305 H   0  0  0  0  0  0  0  0  0  0  0  0
   -1.5236   -0.7150   -1.1334 H   0  0  0  0  0  0  0  0  0  0  0  0
    0.1774    0.1142   -3.5387 H   0  0  0  0  0  0  0  0  0  0  0  0
   -1.5939    0.3055   -3.2924 H   0  0  0  0  0  0  0  0  0  0  0  0
   -0.9035   -1.3344   -3.4745 H   0  0  0  0  0  0  0  0  0  0  0  0
    0.1924   -2.4541   -1.6691 H   0  0  0  0  0  0  0  0  0  0  0  0
    1.9335   -1.1479   -2.6883 H   0  0  0  0  0  0  0  0  0  0  0  0
    2.1819   -0.1296   -1.2934 H   0  0  0  0  0  0  0  0  0  0  0  0
    2.5034   -3.5270   -2.6087 H   0  0  0  0  0  0  0  0  0  0  0  0
    3.7586   -4.0247   -1.4262 H   0  0  0  0  0  0  0  0  0  0  0  0
    2.0283   -3.9648   -0.9219 H   0  0  0  0  0  0  0  0  0  0  0  0
    4.3744    0.7062   -0.2115 H   0  0  0  0  0  0  0  0  0  0  0  0
    3.8148    2.9589    0.6214 H   0  0  0  0  0  0  0  0  0  0  0  0
    2.2532    3.2274    2.5286 H   0  0  0  0  0  0  0  0  0  0  0  0
    1.2950    1.2363    3.6368 H   0  0  0  0  0  0  0  0  0  0  0  0
   -0.0080   -3.7508    0.0865 H   0  0  0  0  0  0  0  0  0  0  0  0
   -0.0133   -3.1061    1.7244 H   0  0  0  0  0  0  0  0  0  0  0  0
   -2.3425   -3.6411   -1.2738 H   0  0  0  0  0  0  0  0  0  0  0  0
   -1.0739   -1.5380    2.9753 H   0  0  0  0  0  0  0  0  0  0  0  0
   -2.7113   -1.9213    3.5766 H   0  0  0  0  0  0  0  0  0  0  0  0
   -2.2599    0.4276    3.9119 H   0  0  0  0  0  0  0  0  0  0  0  0
   -3.5629    0.2865    2.7151 H   0  0  0  0  0  0  0  0  0  0  0  0
   -0.6115    0.5182    1.8403 H   0  0  0  0  0  0  0  0  0  0  0  0
   -1.4728    1.9708    2.4040 H   0  0  0  0  0  0  0  0  0  0  0  0
  1  2  1  0
  2  3  1  0
  3  4  1  0
  2  5  1  0
  5  6  1  0
  6  7  1  0
  7  8  1  0
  7  9  1  0
  9 10  1  0
 10 11  1  0
 11 12  1  0
 11 13  1  0
 13 14  2  0
 13 15  2  0
 13 16  1  0
 16 17  2  0
 17 18  1  0
 18 19  2  0
 19 20  1  0
 20 21  2  0
 21 22  1  0
  9 23  1  0
 23 24  1  0
 24 25  1  0
 25 26  2  0
 26 27  1  0
 27 28  2  0
 28 29  1  0
 29 30  1  0
 30 31  1  0
 31 32  1  0
 32 33  1  0
 33 34  2  0
 33  5  1  0
 21 16  1  0
 29 25  1  0
  1 35  1  0
  1 36  1  0
  1 37  1  0
  2 38  1  1
  3 39  1  0
  3 40  1  0
  4 41  1  0
  6 42  1  0
  6 43  1  0
  7 44  1  1
  8 45  1  0
  8 46  1  0
  8 47  1  0
  9 48  1  6
 10 49  1  0
 10 50  1  0
 12 51  1  0
 12 52  1  0
 12 53  1  0
 17 54  1  0
 18 55  1  0
 19 56  1  0
 20 57  1  0
 24 58  1  0
 24 59  1  0
 26 60  1  0
 30 61  1  0
 30 62  1  0
 31 63  1  0
 31 64  1  0
 32 65  1  0
 32 66  1  0
M  END
$$$$
