
     RDKit          3D

 95101  0  0  0  0  0  0  0  0999 V2000
    6.7404   -6.7364   -0.4829 C   0  0  0  0  0  0  0  0  0  0  0  0
    5.5207   -6.2289   -1.0134 O   0  0  0  0  0  0  0  0  0  0  0  0
    5.1201   -4.8867   -0.9323 C   0  0  0  0  0  0  0  0  0  0  0  0
    3.8547   -4.5368   -1.4251 C   0  0  0  0  0  0  0  0  0  0  0  0
    3.3999   -3.2160   -1.3479 C   0  0  0  0  0  0  0  0  0  0  0  0
    4.2033   -2.2208   -0.7628 C   0  0  0  0  0  0  0  0  0  0  0  0
    3.7986   -0.8749   -0.6469 C   0  0  0  0  0  0  0  0  0  0  0  0
    2.5191   -0.4424   -1.0162 O   0  0  0  0  0  0  0  0  0  0  0  0
    1.3117   -0.8985   -0.4002 C   0  0  2  0  0  0  0  0  0  0  0  0
    0.1665   -0.7602   -1.3823 C   0  0  0  0  0  0  0  0  0  0  0  0
   -1.0943   -0.5847   -0.5377 C   0  0  1  0  0  0  0  0  0  0  0  0
   -1.8256   -1.9103   -0.4012 C   0  0  0  0  0  0  0  0  0  0  0  0
   -1.2398   -2.8736    0.1644 O   0  0  0  0  0  0  0  0  0  0  0  0
   -3.1258   -2.1400   -0.9822 N   0  0  0  0  0  0  0  0  0  0  0  0
   -4.2986   -1.2572   -0.8515 C   0  0  2  0  0  0  0  0  0  0  0  0
   -5.2327   -1.2079   -2.0347 C   0  0  0  0  0  0  0  0  0  0  0  0
   -5.2343   -2.1793   -2.8388 O   0  0  0  0  0  0  0  0  0  0  0  0
   -6.0633   -0.0724   -2.3101 N   0  0  0  0  0  0  0  0  0  0  0  0
   -6.4827    0.3426   -3.9405 S   0  0  0  0  0  6  0  0  0  0  0  0
   -7.4214   -0.6936   -4.5077 O   0  0  0  0  0  0  0  0  0  0  0  0
   -5.2308    0.3922   -4.7702 O   0  0  0  0  0  0  0  0  0  0  0  0
   -7.2212    1.9732   -3.9487 C   0  0  0  0  0  0  0  0  0  0  0  0
   -8.7265    2.0019   -3.7476 C   0  0  0  0  0  0  0  0  0  0  0  0
   -8.1416    2.2579   -5.1280 C   0  0  0  0  0  0  0  0  0  0  0  0
   -4.1803   -0.0942    0.1257 C   0  0  0  0  0  0  0  0  0  0  0  0
   -4.9126   -1.3639    0.5601 C   0  0  1  0  0  0  0  0  0  0  0  0
   -6.3179   -0.9926    0.9324 C   0  0  0  0  0  0  0  0  0  0  0  0
   -6.6333   -0.6416    2.1967 C   0  0  0  0  0  0  0  0  0  0  0  0
   -5.6723   -0.7109    3.3717 C   0  0  0  0  0  0  0  0  0  0  0  0
   -4.5849    0.4013    3.3704 C   0  0  0  0  0  0  0  0  0  0  0  0
   -3.1528   -0.1713    3.5081 C   0  0  0  0  0  0  0  0  0  0  0  0
   -2.0339    0.8921    3.4835 C   0  0  0  0  0  0  0  0  0  0  0  0
   -2.0031    1.6872    2.2385 N   0  0  0  0  0  0  0  0  0  0  0  0
   -2.7132    2.9738    2.2108 C   0  0  0  0  0  0  0  0  0  0  0  0
   -1.1504    1.3640    1.1067 C   0  0  0  0  0  0  0  0  0  0  0  0
   -0.8846    2.2670    0.2648 O   0  0  0  0  0  0  0  0  0  0  0  0
   -0.6118   -0.0310    0.8360 C   0  0  2  0  0  0  0  0  0  0  0  0
    0.9262   -0.0333    0.7935 C   0  0  0  0  0  0  0  0  0  0  0  0
    4.6949    0.0525   -0.2093 N   0  0  0  0  0  0  0  0  0  0  0  0
    5.9587   -0.2877    0.1627 C   0  0  0  0  0  0  0  0  0  0  0  0
    6.9197    0.7561    0.5411 C   0  0  0  0  0  0  0  0  0  0  0  0
    6.6958    2.0794    0.3581 N   0  0  0  0  0  0  0  0  0  0  0  0
    7.7771    2.8311    0.7122 C   0  0  0  0  0  0  0  0  0  0  0  0
    7.7864    4.3259    0.5270 C   0  0  0  0  0  0  0  0  0  0  0  0
    8.6020    4.7036   -0.7133 C   0  0  0  0  0  0  0  0  0  0  0  0
    8.3295    5.0420    1.7710 C   0  0  0  0  0  0  0  0  0  0  0  0
    8.8823    2.0995    1.1490 C   0  0  0  0  0  0  0  0  0  0  0  0
    8.4758    0.4691    1.1066 S   0  0  0  0  0  0  0  0  0  0  0  0
    6.3474   -1.5891    0.1177 N   0  0  0  0  0  0  0  0  0  0  0  0
    5.5051   -2.5603   -0.3231 C   0  0  0  0  0  0  0  0  0  0  0  0
    5.9492   -3.8857   -0.3838 C   0  0  0  0  0  0  0  0  0  0  0  0
    7.6045   -6.2328   -0.9643 H   0  0  0  0  0  0  0  0  0  0  0  0
    6.7994   -7.8241   -0.6884 H   0  0  0  0  0  0  0  0  0  0  0  0
    6.7685   -6.5803    0.6179 H   0  0  0  0  0  0  0  0  0  0  0  0
    3.2230   -5.2988   -1.8676 H   0  0  0  0  0  0  0  0  0  0  0  0
    2.4356   -2.9827   -1.7754 H   0  0  0  0  0  0  0  0  0  0  0  0
    1.3835   -1.9585   -0.0656 H   0  0  0  0  0  0  0  0  0  0  0  0
    0.1173   -1.6360   -2.0643 H   0  0  0  0  0  0  0  0  0  0  0  0
    0.3205    0.1540   -2.0029 H   0  0  0  0  0  0  0  0  0  0  0  0
   -1.7538    0.1386   -1.0642 H   0  0  0  0  0  0  0  0  0  0  0  0
   -3.3425   -3.1400   -1.2099 H   0  0  0  0  0  0  0  0  0  0  0  0
   -6.3924    0.5607   -1.5456 H   0  0  0  0  0  0  0  0  0  0  0  0
   -6.6675    2.8442   -3.5465 H   0  0  0  0  0  0  0  0  0  0  0  0
   -9.2289    1.0206   -3.6388 H   0  0  0  0  0  0  0  0  0  0  0  0
   -9.1102    2.9186   -3.2517 H   0  0  0  0  0  0  0  0  0  0  0  0
   -8.2936    1.4233   -5.8458 H   0  0  0  0  0  0  0  0  0  0  0  0
   -8.1728    3.3261   -5.4400 H   0  0  0  0  0  0  0  0  0  0  0  0
   -4.8160    0.7949   -0.0702 H   0  0  0  0  0  0  0  0  0  0  0  0
   -3.2765    0.0249    0.7196 H   0  0  0  0  0  0  0  0  0  0  0  0
   -4.3405   -2.0162    1.2573 H   0  0  0  0  0  0  0  0  0  0  0  0
   -7.0926   -0.9774    0.1769 H   0  0  0  0  0  0  0  0  0  0  0  0
   -7.6620   -0.3773    2.4064 H   0  0  0  0  0  0  0  0  0  0  0  0
   -5.2282   -1.7316    3.4199 H   0  0  0  0  0  0  0  0  0  0  0  0
   -6.2764   -0.6047    4.3015 H   0  0  0  0  0  0  0  0  0  0  0  0
   -4.7742    1.0824    4.2294 H   0  0  0  0  0  0  0  0  0  0  0  0
   -4.6694    1.0217    2.4572 H   0  0  0  0  0  0  0  0  0  0  0  0
   -2.9615   -0.9258    2.7241 H   0  0  0  0  0  0  0  0  0  0  0  0
   -3.0885   -0.7110    4.4789 H   0  0  0  0  0  0  0  0  0  0  0  0
   -1.0491    0.3996    3.6421 H   0  0  0  0  0  0  0  0  0  0  0  0
   -2.1661    1.5652    4.3612 H   0  0  0  0  0  0  0  0  0  0  0  0
   -1.9793    3.8079    2.1591 H   0  0  0  0  0  0  0  0  0  0  0  0
   -3.3804    3.0101    1.3228 H   0  0  0  0  0  0  0  0  0  0  0  0
   -3.3365    3.1159    3.1200 H   0  0  0  0  0  0  0  0  0  0  0  0
   -0.9261   -0.7171    1.6438 H   0  0  0  0  0  0  0  0  0  0  0  0
    1.3419    0.9933    0.6557 H   0  0  0  0  0  0  0  0  0  0  0  0
    1.3544   -0.4534    1.7328 H   0  0  0  0  0  0  0  0  0  0  0  0
    6.7401    4.6676    0.3562 H   0  0  0  0  0  0  0  0  0  0  0  0
    9.6582    4.3586   -0.6106 H   0  0  0  0  0  0  0  0  0  0  0  0
    8.6086    5.8061   -0.8498 H   0  0  0  0  0  0  0  0  0  0  0  0
    8.1530    4.2397   -1.6225 H   0  0  0  0  0  0  0  0  0  0  0  0
    8.2026    6.1397    1.6700 H   0  0  0  0  0  0  0  0  0  0  0  0
    9.4114    4.8304    1.9157 H   0  0  0  0  0  0  0  0  0  0  0  0
    7.7763    4.7180    2.6738 H   0  0  0  0  0  0  0  0  0  0  0  0
    9.8451    2.4991    1.4359 H   0  0  0  0  0  0  0  0  0  0  0  0
    6.9459   -4.1236   -0.0296 H   0  0  0  0  0  0  0  0  0  0  0  0
  1  2  1  0
  2  3  1  0
  3  4  2  0
  4  5  1  0
  5  6  2  0
  6  7  1  0
  7  8  1  0
  8  9  1  0
  9 10  1  0
 10 11  1  0
 11 12  1  0
 12 13  2  0
 12 14  1  0
 14 15  1  0
 15 16  1  6
 16 17  2  0
 16 18  1  0
 18 19  1  0
 19 20  2  0
 19 21  2  0
 19 22  1  0
 22 23  1  0
 23 24  1  0
 15 25  1  0
 25 26  1  0
 26 27  1  0
 27 28  2  0
 28 29  1  0
 29 30  1  0
 30 31  1  0
 31 32  1  0
 32 33  1  0
 33 34  1  0
 33 35  1  0
 35 36  2  0
 35 37  1  0
 37 38  1  0
  7 39  2  0
 39 40  1  0
 40 41  1  0
 41 42  2  0
 42 43  1  0
 43 44  1  0
 44 45  1  0
 44 46  1  0
 43 47  2  0
 47 48  1  0
 40 49  2  0
 49 50  1  0
 50 51  2  0
 51  3  1  0
 50  6  1  0
 38  9  1  0
 48 41  1  0
 37 11  1  0
 26 15  1  0
 24 22  1  0
  1 52  1  0
  1 53  1  0
  1 54  1  0
  4 55  1  0
  5 56  1  0
  9 57  1  1
 10 58  1  0
 10 59  1  0
 11 60  1  6
 14 61  1  0
 18 62  1  0
 22 63  1  0
 23 64  1  0
 23 65  1  0
 24 66  1  0
 24 67  1  0
 25 68  1  0
 25 69  1  0
 26 70  1  1
 27 71  1  0
 28 72  1  0
 29 73  1  0
 29 74  1  0
 30 75  1  0
 30 76  1  0
 31 77  1  0
 31 78  1  0
 32 79  1  0
 32 80  1  0
 34 81  1  0
 34 82  1  0
 34 83  1  0
 37 84  1  1
 38 85  1  0
 38 86  1  0
 44 87  1  0
 45 88  1  0
 45 89  1  0
 45 90  1  0
 46 91  1  0
 46 92  1  0
 46 93  1  0
 47 94  1  0
 51 95  1  0
M  END
$$$$
