
     RDKit          3D

 65 67  0  0  0  0  0  0  0  0999 V2000
    6.4209    0.1207   -0.8983 C   0  0  0  0  0  0  0  0  0  0  0  0
    5.1114    0.8859   -0.6921 C   0  0  0  0  0  0  0  0  0  0  0  0
    5.3508    2.1455    0.1554 C   0  0  0  0  0  0  0  0  0  0  0  0
    4.1490    2.8353    0.3636 O   0  0  0  0  0  0  0  0  0  0  0  0
    4.1241    0.0158   -0.0461 N   0  0  0  0  0  0  0  0  0  0  0  0
    3.3227   -0.9170   -0.7859 C   0  0  0  0  0  0  0  0  0  0  0  0
    3.4968   -1.0612   -2.0269 O   0  0  0  0  0  0  0  0  0  0  0  0
    2.3094   -1.7304   -0.0880 C   0  0  0  0  0  0  0  0  0  0  0  0
    2.7461   -2.5561    0.9566 C   0  0  0  0  0  0  0  0  0  0  0  0
    1.8441   -3.3487    1.6579 C   0  0  0  0  0  0  0  0  0  0  0  0
    0.4936   -3.3336    1.3251 C   0  0  0  0  0  0  0  0  0  0  0  0
    0.0233   -2.5059    0.2892 C   0  0  0  0  0  0  0  0  0  0  0  0
    0.9273   -1.6801   -0.4192 C   0  0  0  0  0  0  0  0  0  0  0  0
    0.3853   -0.7001   -1.4590 C   0  0  0  0  0  0  0  0  0  0  0  0
   -0.4225    0.3820   -0.8464 N   0  0  0  0  0  0  0  0  0  0  0  0
    0.3928    1.2270    0.0610 C   0  0  0  0  0  0  0  0  0  0  0  0
   -0.5059    1.9232    1.0485 C   0  0  0  0  0  0  0  0  0  0  0  0
   -0.6423    3.3211    1.0382 C   0  0  0  0  0  0  0  0  0  0  0  0
   -1.5110    3.9470    1.9387 C   0  0  0  0  0  0  0  0  0  0  0  0
   -2.2481    3.1843    2.8488 C   0  0  0  0  0  0  0  0  0  0  0  0
   -2.1176    1.7934    2.8635 C   0  0  0  0  0  0  0  0  0  0  0  0
   -1.2485    1.1632    1.9696 C   0  0  0  0  0  0  0  0  0  0  0  0
   -1.0538    1.2197   -1.9031 C   0  0  0  0  0  0  0  0  0  0  0  0
   -2.4611    0.7751   -2.1560 C   0  0  0  0  0  0  0  0  0  0  0  0
   -2.7187    0.0779   -3.1754 O   0  0  0  0  0  0  0  0  0  0  0  0
   -3.5077    1.1549   -1.2484 N   0  0  0  0  0  0  0  0  0  0  0  0
   -4.8647    0.6072   -1.3038 C   0  0  0  0  0  0  0  0  0  0  0  0
   -4.8810   -0.9240   -1.1624 C   0  0  0  0  0  0  0  0  0  0  0  0
   -4.0578   -1.4188    0.0395 C   0  0  0  0  0  0  0  0  0  0  0  0
   -3.6992   -2.9122   -0.0841 C   0  0  0  0  0  0  0  0  0  0  0  0
   -2.3662   -3.2176    0.5945 C   0  0  0  0  0  0  0  0  0  0  0  0
   -1.3331   -2.4781   -0.0605 O   0  0  0  0  0  0  0  0  0  0  0  0
    6.8497   -0.1945    0.0768 H   0  0  0  0  0  0  0  0  0  0  0  0
    6.2400   -0.7827   -1.5195 H   0  0  0  0  0  0  0  0  0  0  0  0
    7.1570    0.7581   -1.4277 H   0  0  0  0  0  0  0  0  0  0  0  0
    4.7281    1.2111   -1.6864 H   0  0  0  0  0  0  0  0  0  0  0  0
    6.0930    2.8084   -0.3438 H   0  0  0  0  0  0  0  0  0  0  0  0
    5.7702    1.8599    1.1426 H   0  0  0  0  0  0  0  0  0  0  0  0
    3.9141    3.2672   -0.4995 H   0  0  0  0  0  0  0  0  0  0  0  0
    3.9521    0.1114    0.9799 H   0  0  0  0  0  0  0  0  0  0  0  0
    3.7955   -2.5955    1.2220 H   0  0  0  0  0  0  0  0  0  0  0  0
    2.1935   -3.9858    2.4597 H   0  0  0  0  0  0  0  0  0  0  0  0
   -0.1777   -3.9698    1.8848 H   0  0  0  0  0  0  0  0  0  0  0  0
   -0.2517   -1.2809   -2.1628 H   0  0  0  0  0  0  0  0  0  0  0  0
    1.1925   -0.2569   -2.0787 H   0  0  0  0  0  0  0  0  0  0  0  0
    1.0157    1.9483   -0.5188 H   0  0  0  0  0  0  0  0  0  0  0  0
    1.1016    0.6240    0.6645 H   0  0  0  0  0  0  0  0  0  0  0  0
   -0.0859    3.9232    0.3305 H   0  0  0  0  0  0  0  0  0  0  0  0
   -1.6187    5.0245    1.9269 H   0  0  0  0  0  0  0  0  0  0  0  0
   -2.9226    3.6711    3.5381 H   0  0  0  0  0  0  0  0  0  0  0  0
   -2.6892    1.2036    3.5684 H   0  0  0  0  0  0  0  0  0  0  0  0
   -1.1603    0.0833    1.9872 H   0  0  0  0  0  0  0  0  0  0  0  0
   -0.4726    1.2017   -2.8529 H   0  0  0  0  0  0  0  0  0  0  0  0
   -1.1081    2.2922   -1.6086 H   0  0  0  0  0  0  0  0  0  0  0  0
   -3.2813    1.8165   -0.4715 H   0  0  0  0  0  0  0  0  0  0  0  0
   -5.3392    0.8974   -2.2668 H   0  0  0  0  0  0  0  0  0  0  0  0
   -5.4701    1.0482   -0.4830 H   0  0  0  0  0  0  0  0  0  0  0  0
   -4.5054   -1.3665   -2.1107 H   0  0  0  0  0  0  0  0  0  0  0  0
   -5.9321   -1.2646   -1.0426 H   0  0  0  0  0  0  0  0  0  0  0  0
   -4.6286   -1.2470    0.9778 H   0  0  0  0  0  0  0  0  0  0  0  0
   -3.1269   -0.8266    0.1193 H   0  0  0  0  0  0  0  0  0  0  0  0
   -3.6100   -3.2155   -1.1500 H   0  0  0  0  0  0  0  0  0  0  0  0
   -4.5041   -3.5303    0.3688 H   0  0  0  0  0  0  0  0  0  0  0  0
   -2.1565   -4.3070    0.5161 H   0  0  0  0  0  0  0  0  0  0  0  0
   -2.4204   -2.9226    1.6654 H   0  0  0  0  0  0  0  0  0  0  0  0
  1  2  1  0
  2  3  1  0
  3  4  1  0
  2  5  1  0
  5  6  1  0
  6  7  2  0
  6  8  1  0
  8  9  2  0
  9 10  1  0
 10 11  2  0
 11 12  1  0
 12 13  2  0
 13 14  1  0
 14 15  1  0
 15 16  1  0
 16 17  1  0
 17 18  2  0
 18 19  1  0
 19 20  2  0
 20 21  1  0
 21 22  2  0
 15 23  1  0
 23 24  1  0
 24 25  2  0
 24 26  1  0
 26 27  1  0
 27 28  1  0
 28 29  1  0
 29 30  1  0
 30 31  1  0
 31 32  1  0
 13  8  1  0
 22 17  1  0
 32 12  1  0
  1 33  1  0
  1 34  1  0
  1 35  1  0
  2 36  1  0
  3 37  1  0
  3 38  1  0
  4 39  1  0
  5 40  1  0
  9 41  1  0
 10 42  1  0
 11 43  1  0
 14 44  1  0
 14 45  1  0
 16 46  1  0
 16 47  1  0
 18 48  1  0
 19 49  1  0
 20 50  1  0
 21 51  1  0
 22 52  1  0
 23 53  1  0
 23 54  1  0
 26 55  1  0
 27 56  1  0
 27 57  1  0
 28 58  1  0
 28 59  1  0
 29 60  1  0
 29 61  1  0
 30 62  1  0
 30 63  1  0
 31 64  1  0
 31 65  1  0
M  END
$$$$
