
     RDKit          3D

153158  0  0  0  0  0  0  0  0999 V2000
    1.6608    3.6390   -1.8117 C   0  0  0  0  0  0  0  0  0  0  0  0
    2.4351    3.2294   -3.0781 C   0  0  0  0  0  0  0  0  0  0  0  0
    3.8436    3.8431   -3.0832 C   0  0  0  0  0  0  0  0  0  0  0  0
    2.4478    1.6836   -3.3450 C   0  0  1  0  0  0  0  0  0  0  0  0
    3.2662    0.9092   -2.3228 C   0  0  0  0  0  0  0  0  0  0  0  0
    3.8702   -0.1370   -2.6871 O   0  0  0  0  0  0  0  0  0  0  0  0
    3.4123    1.3694   -1.0084 O   0  0  0  0  0  0  0  0  0  0  0  0
    4.6890    1.4383   -0.3646 C   0  0  0  0  0  0  0  0  0  0  0  0
    5.0256    0.1525    0.4110 C   0  0  1  0  0  0  0  0  0  0  0  0
    6.4548    0.1573    0.7302 N   0  0  0  0  0  0  0  0  0  0  0  0
    7.4416   -0.4651   -0.1086 C   0  0  0  0  0  0  0  0  0  0  0  0
    7.0818   -1.0983   -1.1398 O   0  0  0  0  0  0  0  0  0  0  0  0
    8.8833   -0.3494    0.2072 C   0  0  0  0  0  0  0  0  0  0  0  0
    9.3235   -0.1601    1.5297 C   0  0  0  0  0  0  0  0  0  0  0  0
   10.6812    0.0183    1.8050 C   0  0  0  0  0  0  0  0  0  0  0  0
   11.6250    0.0192    0.7668 C   0  0  0  0  0  0  0  0  0  0  0  0
   13.0541    0.2738    1.0651 C   0  0  0  0  0  0  0  0  0  0  0  0
   13.5550   -0.2262    2.1106 O   0  0  0  0  0  0  0  0  0  0  0  0
   13.8983    1.1323    0.1962 C   0  0  0  0  0  0  0  0  0  0  0  0
   15.2950    0.9607    0.1719 C   0  0  0  0  0  0  0  0  0  0  0  0
   16.0956    1.7929   -0.6160 C   0  0  0  0  0  0  0  0  0  0  0  0
   15.5148    2.8081   -1.3801 C   0  0  0  0  0  0  0  0  0  0  0  0
   14.1301    2.9920   -1.3601 C   0  0  0  0  0  0  0  0  0  0  0  0
   13.3252    2.1658   -0.5713 C   0  0  0  0  0  0  0  0  0  0  0  0
   11.1950   -0.2264   -0.5474 C   0  0  0  0  0  0  0  0  0  0  0  0
    9.8364   -0.4125   -0.8240 C   0  0  0  0  0  0  0  0  0  0  0  0
    4.2486    0.0151    1.7045 C   0  0  0  0  0  0  0  0  0  0  0  0
    3.6946    1.0283    2.2117 O   0  0  0  0  0  0  0  0  0  0  0  0
    4.2089   -1.2244    2.4384 N   0  0  0  0  0  0  0  0  0  0  0  0
    4.4321   -2.5475    1.8477 C   0  0  1  0  0  0  0  0  0  0  0  0
    5.8079   -3.0567    2.2882 C   0  0  0  0  0  0  0  0  0  0  0  0
    3.3401   -3.5345    2.2304 C   0  0  0  0  0  0  0  0  0  0  0  0
    3.5924   -4.7685    2.1136 O   0  0  0  0  0  0  0  0  0  0  0  0
    2.0098   -3.1345    2.6491 N   0  0  0  0  0  0  0  0  0  0  0  0
    1.2603   -4.0814    3.4906 C   0  0  0  0  0  0  0  0  0  0  0  0
    1.2839   -2.0090    2.0060 C   0  0  1  0  0  0  0  0  0  0  0  0
    0.4956   -2.4759    0.7699 C   0  0  0  0  0  0  0  0  0  0  0  0
    1.6827   -2.9745   -0.5366 S   0  0  0  0  0  0  0  0  0  0  0  0
    0.8078   -2.4226   -2.0481 C   0  0  0  0  0  0  0  0  0  0  0  0
    0.4807   -0.8983   -2.0836 C   0  0  1  0  0  0  0  0  0  0  0  0
    0.8202   -0.2794   -3.4247 C   0  0  0  0  0  0  0  0  0  0  0  0
    0.7469   -0.9798   -4.4752 O   0  0  0  0  0  0  0  0  0  0  0  0
    1.0799    1.1355   -3.5445 N   0  0  0  0  0  0  0  0  0  0  0  0
    0.1833    1.8636   -4.4552 C   0  0  0  0  0  0  0  0  0  0  0  0
   -0.9267   -0.5698   -1.7364 N   0  0  0  0  0  0  0  0  0  0  0  0
   -1.2146    0.7308   -1.1244 C   0  0  0  0  0  0  0  0  0  0  0  0
   -2.0337   -1.4859   -1.9077 C   0  0  0  0  0  0  0  0  0  0  0  0
   -2.0986   -2.5150   -1.1809 O   0  0  0  0  0  0  0  0  0  0  0  0
   -3.2234   -1.1813   -2.7947 C   0  0  2  0  0  0  0  0  0  0  0  0
   -2.8597   -0.3693   -4.0377 C   0  0  0  0  0  0  0  0  0  0  0  0
   -4.2469   -0.4898   -2.0125 N   0  0  0  0  0  0  0  0  0  0  0  0
   -5.2609   -1.2198   -1.2980 C   0  0  0  0  0  0  0  0  0  0  0  0
   -5.6167   -2.3575   -1.7123 O   0  0  0  0  0  0  0  0  0  0  0  0
   -5.9333   -0.6664   -0.0603 C   0  0  2  0  0  0  0  0  0  0  0  0
   -7.1849    0.0182   -0.4033 N   0  0  0  0  0  0  0  0  0  0  0  0
   -8.2535    0.1379    0.5541 C   0  0  0  0  0  0  0  0  0  0  0  0
   -8.0791   -0.2815    1.7312 O   0  0  0  0  0  0  0  0  0  0  0  0
   -9.5714    0.7059    0.1843 C   0  0  0  0  0  0  0  0  0  0  0  0
  -10.7145    0.3114    0.8970 C   0  0  0  0  0  0  0  0  0  0  0  0
  -11.9681    0.8262    0.5693 C   0  0  0  0  0  0  0  0  0  0  0  0
  -12.1071    1.7469   -0.4832 C   0  0  0  0  0  0  0  0  0  0  0  0
  -13.4401    2.3019   -0.8276 C   0  0  0  0  0  0  0  0  0  0  0  0
  -13.5211    3.4797   -1.2726 O   0  0  0  0  0  0  0  0  0  0  0  0
  -14.6868    1.5176   -0.6524 C   0  0  0  0  0  0  0  0  0  0  0  0
  -15.8722    2.1530   -0.2387 C   0  0  0  0  0  0  0  0  0  0  0  0
  -17.0469    1.4136   -0.0611 C   0  0  0  0  0  0  0  0  0  0  0  0
  -17.0527    0.0376   -0.3080 C   0  0  0  0  0  0  0  0  0  0  0  0
  -15.8869   -0.6008   -0.7384 C   0  0  0  0  0  0  0  0  0  0  0  0
  -14.7099    0.1335   -0.9114 C   0  0  0  0  0  0  0  0  0  0  0  0
  -10.9589    2.1699   -1.1754 C   0  0  0  0  0  0  0  0  0  0  0  0
   -9.7030    1.6524   -0.8480 C   0  0  0  0  0  0  0  0  0  0  0  0
   -5.0303    0.2504    0.7763 C   0  0  0  0  0  0  0  0  0  0  0  0
   -3.8273   -0.4427    1.1037 O   0  0  0  0  0  0  0  0  0  0  0  0
   -3.1941   -0.3275    2.3505 C   0  0  0  0  0  0  0  0  0  0  0  0
   -3.5993    0.5155    3.2018 O   0  0  0  0  0  0  0  0  0  0  0  0
   -2.0246   -1.2358    2.6633 C   0  0  2  0  0  0  0  0  0  0  0  0
   -2.2623   -2.0833    3.9513 C   0  0  0  0  0  0  0  0  0  0  0  0
   -2.2840   -1.2526    5.2468 C   0  0  0  0  0  0  0  0  0  0  0  0
   -3.5391   -2.9313    3.8411 C   0  0  0  0  0  0  0  0  0  0  0  0
   -0.7231   -0.5138    2.6900 N   0  0  0  0  0  0  0  0  0  0  0  0
   -0.6312    0.9540    2.6755 C   0  0  0  0  0  0  0  0  0  0  0  0
    0.4833   -1.2212    3.0279 C   0  0  0  0  0  0  0  0  0  0  0  0
    0.9975   -1.0242    4.1628 O   0  0  0  0  0  0  0  0  0  0  0  0
    0.7404    3.0386   -1.6939 H   0  0  0  0  0  0  0  0  0  0  0  0
    2.2783    3.5264   -0.8990 H   0  0  0  0  0  0  0  0  0  0  0  0
    1.3688    4.7100   -1.8795 H   0  0  0  0  0  0  0  0  0  0  0  0
    1.9229    3.7118   -3.9378 H   0  0  0  0  0  0  0  0  0  0  0  0
    3.7726    4.9517   -3.0502 H   0  0  0  0  0  0  0  0  0  0  0  0
    4.4337    3.5180   -2.2028 H   0  0  0  0  0  0  0  0  0  0  0  0
    4.3849    3.5595   -4.0099 H   0  0  0  0  0  0  0  0  0  0  0  0
    2.9812    1.5501   -4.3102 H   0  0  0  0  0  0  0  0  0  0  0  0
    5.4757    1.6273   -1.1314 H   0  0  0  0  0  0  0  0  0  0  0  0
    4.7002    2.3224    0.3140 H   0  0  0  0  0  0  0  0  0  0  0  0
    4.7852   -0.6893   -0.2641 H   0  0  0  0  0  0  0  0  0  0  0  0
    6.7729    0.8088    1.4825 H   0  0  0  0  0  0  0  0  0  0  0  0
    8.6213   -0.1527    2.3537 H   0  0  0  0  0  0  0  0  0  0  0  0
   10.9934    0.1832    2.8290 H   0  0  0  0  0  0  0  0  0  0  0  0
   15.7639    0.1784    0.7562 H   0  0  0  0  0  0  0  0  0  0  0  0
   17.1687    1.6549   -0.6300 H   0  0  0  0  0  0  0  0  0  0  0  0
   16.1367    3.4526   -1.9879 H   0  0  0  0  0  0  0  0  0  0  0  0
   13.6806    3.7851   -1.9444 H   0  0  0  0  0  0  0  0  0  0  0  0
   12.2577    2.3511   -0.5443 H   0  0  0  0  0  0  0  0  0  0  0  0
   11.9099   -0.2661   -1.3601 H   0  0  0  0  0  0  0  0  0  0  0  0
    9.5301   -0.5762   -1.8515 H   0  0  0  0  0  0  0  0  0  0  0  0
    3.9511   -1.1846    3.4508 H   0  0  0  0  0  0  0  0  0  0  0  0
    4.4217   -2.5040    0.7431 H   0  0  0  0  0  0  0  0  0  0  0  0
    5.8203   -3.2310    3.3861 H   0  0  0  0  0  0  0  0  0  0  0  0
    6.0611   -4.0059    1.7656 H   0  0  0  0  0  0  0  0  0  0  0  0
    6.5900   -2.3102    2.0393 H   0  0  0  0  0  0  0  0  0  0  0  0
    1.9378   -4.8142    3.9772 H   0  0  0  0  0  0  0  0  0  0  0  0
    0.7437   -3.5534    4.3150 H   0  0  0  0  0  0  0  0  0  0  0  0
    0.5192   -4.6354    2.8791 H   0  0  0  0  0  0  0  0  0  0  0  0
    1.9897   -1.2698    1.6000 H   0  0  0  0  0  0  0  0  0  0  0  0
   -0.1240   -1.6378    0.4104 H   0  0  0  0  0  0  0  0  0  0  0  0
   -0.1669   -3.3340    1.0138 H   0  0  0  0  0  0  0  0  0  0  0  0
    1.5281   -2.6638   -2.8574 H   0  0  0  0  0  0  0  0  0  0  0  0
   -0.0513   -3.0833   -2.2505 H   0  0  0  0  0  0  0  0  0  0  0  0
    1.1482   -0.4153   -1.3412 H   0  0  0  0  0  0  0  0  0  0  0  0
   -0.6821    1.2448   -4.7669 H   0  0  0  0  0  0  0  0  0  0  0  0
   -0.2114    2.7717   -3.9626 H   0  0  0  0  0  0  0  0  0  0  0  0
    0.7273    2.1437   -5.3824 H   0  0  0  0  0  0  0  0  0  0  0  0
   -1.6403    1.4231   -1.8764 H   0  0  0  0  0  0  0  0  0  0  0  0
   -1.9357    0.6114   -0.2916 H   0  0  0  0  0  0  0  0  0  0  0  0
   -0.2978    1.1895   -0.7004 H   0  0  0  0  0  0  0  0  0  0  0  0
   -3.6225   -2.1499   -3.1674 H   0  0  0  0  0  0  0  0  0  0  0  0
   -1.9717   -0.8105   -4.5353 H   0  0  0  0  0  0  0  0  0  0  0  0
   -2.6663    0.6927   -3.7774 H   0  0  0  0  0  0  0  0  0  0  0  0
   -3.7060   -0.3974   -4.7571 H   0  0  0  0  0  0  0  0  0  0  0  0
   -4.0965    0.5201   -1.7875 H   0  0  0  0  0  0  0  0  0  0  0  0
   -6.1758   -1.5470    0.5776 H   0  0  0  0  0  0  0  0  0  0  0  0
   -7.3324    0.3271   -1.3898 H   0  0  0  0  0  0  0  0  0  0  0  0
  -10.6421   -0.4041    1.7047 H   0  0  0  0  0  0  0  0  0  0  0  0
  -12.8271    0.5137    1.1473 H   0  0  0  0  0  0  0  0  0  0  0  0
  -15.8819    3.2171   -0.0391 H   0  0  0  0  0  0  0  0  0  0  0  0
  -17.9498    1.9075    0.2715 H   0  0  0  0  0  0  0  0  0  0  0  0
  -17.9629   -0.5326   -0.1686 H   0  0  0  0  0  0  0  0  0  0  0  0
  -15.8959   -1.6650   -0.9357 H   0  0  0  0  0  0  0  0  0  0  0  0
  -13.8192   -0.3768   -1.2580 H   0  0  0  0  0  0  0  0  0  0  0  0
  -11.0373    2.8950   -1.9770 H   0  0  0  0  0  0  0  0  0  0  0  0
   -8.8387    2.0128   -1.3930 H   0  0  0  0  0  0  0  0  0  0  0  0
   -4.7863    1.1881    0.2394 H   0  0  0  0  0  0  0  0  0  0  0  0
   -5.5796    0.5253    1.7001 H   0  0  0  0  0  0  0  0  0  0  0  0
   -1.9770   -1.9579    1.8228 H   0  0  0  0  0  0  0  0  0  0  0  0
   -1.4245   -2.8023    4.0394 H   0  0  0  0  0  0  0  0  0  0  0  0
   -2.2100   -1.9306    6.1253 H   0  0  0  0  0  0  0  0  0  0  0  0
   -1.4222   -0.5574    5.2920 H   0  0  0  0  0  0  0  0  0  0  0  0
   -3.2257   -0.6736    5.3447 H   0  0  0  0  0  0  0  0  0  0  0  0
   -3.6245   -3.6135    4.7139 H   0  0  0  0  0  0  0  0  0  0  0  0
   -4.4455   -2.2906    3.8038 H   0  0  0  0  0  0  0  0  0  0  0  0
   -3.5094   -3.5573    2.9210 H   0  0  0  0  0  0  0  0  0  0  0  0
    0.3959    1.2776    2.3975 H   0  0  0  0  0  0  0  0  0  0  0  0
   -0.8639    1.3558    3.6843 H   0  0  0  0  0  0  0  0  0  0  0  0
   -1.3203    1.3949    1.9297 H   0  0  0  0  0  0  0  0  0  0  0  0
  1  2  1  0
  2  3  1  0
  2  4  1  0
  4  5  1  0
  5  6  2  0
  5  7  1  0
  7  8  1  0
  8  9  1  0
  9 10  1  0
 10 11  1  0
 11 12  2  0
 11 13  1  0
 13 14  2  0
 14 15  1  0
 15 16  2  0
 16 17  1  0
 17 18  2  0
 17 19  1  0
 19 20  2  0
 20 21  1  0
 21 22  2  0
 22 23  1  0
 23 24  2  0
 16 25  1  0
 25 26  2  0
  9 27  1  0
 27 28  2  0
 27 29  1  0
 29 30  1  0
 30 31  1  0
 30 32  1  0
 32 33  2  0
 32 34  1  0
 34 35  1  0
 34 36  1  0
 36 37  1  0
 37 38  1  0
 38 39  1  0
 39 40  1  0
 40 41  1  0
 41 42  2  0
 41 43  1  0
 43 44  1  0
 40 45  1  0
 45 46  1  0
 45 47  1  0
 47 48  2  0
 47 49  1  0
 49 50  1  0
 49 51  1  0
 51 52  1  0
 52 53  2  0
 52 54  1  0
 54 55  1  0
 55 56  1  0
 56 57  2  0
 56 58  1  0
 58 59  2  0
 59 60  1  0
 60 61  2  0
 61 62  1  0
 62 63  2  0
 62 64  1  0
 64 65  2  0
 65 66  1  0
 66 67  2  0
 67 68  1  0
 68 69  2  0
 61 70  1  0
 70 71  2  0
 54 72  1  0
 72 73  1  0
 73 74  1  0
 74 75  2  0
 74 76  1  0
 76 77  1  0
 77 78  1  0
 77 79  1  0
 76 80  1  0
 80 81  1  0
 80 82  1  0
 82 83  2  0
 43  4  1  0
 71 58  1  0
 26 13  1  0
 82 36  1  0
 24 19  1  0
 69 64  1  0
  1 84  1  0
  1 85  1  0
  1 86  1  0
  2 87  1  0
  3 88  1  0
  3 89  1  0
  3 90  1  0
  4 91  1  6
  8 92  1  0
  8 93  1  0
  9 94  1  6
 10 95  1  0
 14 96  1  0
 15 97  1  0
 20 98  1  0
 21 99  1  0
 22100  1  0
 23101  1  0
 24102  1  0
 25103  1  0
 26104  1  0
 29105  1  0
 30106  1  6
 31107  1  0
 31108  1  0
 31109  1  0
 35110  1  0
 35111  1  0
 35112  1  0
 36113  1  6
 37114  1  0
 37115  1  0
 39116  1  0
 39117  1  0
 40118  1  1
 44119  1  0
 44120  1  0
 44121  1  0
 46122  1  0
 46123  1  0
 46124  1  0
 49125  1  6
 50126  1  0
 50127  1  0
 50128  1  0
 51129  1  0
 54130  1  1
 55131  1  0
 59132  1  0
 60133  1  0
 65134  1  0
 66135  1  0
 67136  1  0
 68137  1  0
 69138  1  0
 70139  1  0
 71140  1  0
 72141  1  0
 72142  1  0
 76143  1  6
 77144  1  0
 78145  1  0
 78146  1  0
 78147  1  0
 79148  1  0
 79149  1  0
 79150  1  0
 81151  1  0
 81152  1  0
 81153  1  0
M  END
$$$$
