
     RDKit          3D

 84 86  0  0  0  0  0  0  0  0999 V2000
   -6.2132   -0.0276    0.7840 C   0  0  0  0  0  0  0  0  0  0  0  0
   -5.6496   -0.4386   -0.5817 C   0  0  0  0  0  0  0  0  0  0  0  0
   -6.5855    0.0532   -1.6947 C   0  0  0  0  0  0  0  0  0  0  0  0
   -4.2156    0.1050   -0.8283 C   0  0  0  0  0  0  0  0  0  0  0  0
   -3.0848   -0.4248    0.1023 C   0  0  2  0  0  0  0  0  0  0  0  0
   -3.4111   -1.7483    0.6783 N   0  0  0  0  0  0  0  0  0  0  0  0
   -3.0919   -2.8636   -0.2337 C   0  0  0  0  0  0  0  0  0  0  0  0
   -1.6007   -3.2550   -0.1966 C   0  0  0  0  0  0  0  0  0  0  0  0
   -1.2599   -4.1806    0.9818 C   0  0  0  0  0  0  0  0  0  0  0  0
    0.2518   -4.4014    1.1166 C   0  0  0  0  0  0  0  0  0  0  0  0
    0.7824   -5.1207   -0.0435 N   0  0  0  0  0  0  0  0  0  0  0  0
    1.7666   -4.6017   -0.9549 C   0  0  0  0  0  0  0  0  0  0  0  0
    2.3860   -5.4110   -1.6971 O   0  0  0  0  0  0  0  0  0  0  0  0
    2.1080   -3.1267   -1.0137 C   0  0  2  0  0  0  0  0  0  0  0  0
    2.5950   -2.7171   -2.4084 C   0  0  0  0  0  0  0  0  0  0  0  0
    3.1306   -2.8157   -0.0083 N   0  0  0  0  0  0  0  0  0  0  0  0
    3.2373   -1.5775    0.7189 C   0  0  0  0  0  0  0  0  0  0  0  0
    3.9459   -1.5596    1.7622 O   0  0  0  0  0  0  0  0  0  0  0  0
    2.6045   -0.2825    0.2428 C   0  0  2  0  0  0  0  0  0  0  0  0
    3.6084    0.5611   -0.5741 C   0  0  0  0  0  0  0  0  0  0  0  0
    4.7383    1.1298    0.2503 C   0  0  0  0  0  0  0  0  0  0  0  0
    4.6025    2.3834    0.8711 C   0  0  0  0  0  0  0  0  0  0  0  0
    5.6442    2.9028    1.6449 C   0  0  0  0  0  0  0  0  0  0  0  0
    6.8278    2.1778    1.8043 C   0  0  0  0  0  0  0  0  0  0  0  0
    6.9716    0.9311    1.1902 C   0  0  0  0  0  0  0  0  0  0  0  0
    5.9326    0.4079    0.4146 C   0  0  0  0  0  0  0  0  0  0  0  0
    2.0948    0.4843    1.3895 N   0  0  0  0  0  0  0  0  0  0  0  0
    0.9342    1.3307    1.3463 C   0  0  0  0  0  0  0  0  0  0  0  0
    0.9409    2.3950    2.0233 O   0  0  0  0  0  0  0  0  0  0  0  0
   -0.2970    0.9696    0.5380 C   0  0  2  0  0  0  0  0  0  0  0  0
   -0.2979    1.6763   -0.8359 C   0  0  0  0  0  0  0  0  0  0  0  0
   -0.3846    3.1794   -0.7240 C   0  0  0  0  0  0  0  0  0  0  0  0
   -1.6333    3.8098   -0.5929 C   0  0  0  0  0  0  0  0  0  0  0  0
   -1.7118    5.1984   -0.4523 C   0  0  0  0  0  0  0  0  0  0  0  0
   -0.5467    5.9713   -0.4418 C   0  0  0  0  0  0  0  0  0  0  0  0
   -0.6393    7.3537   -0.2958 O   0  0  0  0  0  0  0  0  0  0  0  0
    0.7017    5.3489   -0.5769 C   0  0  0  0  0  0  0  0  0  0  0  0
    0.7829    3.9605   -0.7180 C   0  0  0  0  0  0  0  0  0  0  0  0
   -1.5217    1.2905    1.2887 N   0  0  0  0  0  0  0  0  0  0  0  0
   -2.7703    0.5760    1.2047 C   0  0  0  0  0  0  0  0  0  0  0  0
   -3.6425    0.8038    2.0845 O   0  0  0  0  0  0  0  0  0  0  0  0
   -5.6861   -0.5664    1.5964 H   0  0  0  0  0  0  0  0  0  0  0  0
   -6.1181    1.0685    0.9344 H   0  0  0  0  0  0  0  0  0  0  0  0
   -7.2874   -0.3016    0.8592 H   0  0  0  0  0  0  0  0  0  0  0  0
   -5.6388   -1.5484   -0.6357 H   0  0  0  0  0  0  0  0  0  0  0  0
   -6.2297   -0.3101   -2.6833 H   0  0  0  0  0  0  0  0  0  0  0  0
   -7.6147   -0.3389   -1.5398 H   0  0  0  0  0  0  0  0  0  0  0  0
   -6.6220    1.1634   -1.7135 H   0  0  0  0  0  0  0  0  0  0  0  0
   -3.9362   -0.1705   -1.8702 H   0  0  0  0  0  0  0  0  0  0  0  0
   -4.2322    1.2186   -0.8114 H   0  0  0  0  0  0  0  0  0  0  0  0
   -2.1928   -0.5150   -0.5426 H   0  0  0  0  0  0  0  0  0  0  0  0
   -2.9044   -1.8883    1.5829 H   0  0  0  0  0  0  0  0  0  0  0  0
   -3.7163   -3.7412    0.0411 H   0  0  0  0  0  0  0  0  0  0  0  0
   -3.3728   -2.5988   -1.2769 H   0  0  0  0  0  0  0  0  0  0  0  0
   -1.3504   -3.7805   -1.1439 H   0  0  0  0  0  0  0  0  0  0  0  0
   -0.9753   -2.3441   -0.1425 H   0  0  0  0  0  0  0  0  0  0  0  0
   -1.7678   -5.1608    0.8453 H   0  0  0  0  0  0  0  0  0  0  0  0
   -1.6270   -3.7393    1.9318 H   0  0  0  0  0  0  0  0  0  0  0  0
    0.4396   -5.0141    2.0244 H   0  0  0  0  0  0  0  0  0  0  0  0
    0.7663   -3.4315    1.2765 H   0  0  0  0  0  0  0  0  0  0  0  0
    0.4761   -6.1120   -0.1721 H   0  0  0  0  0  0  0  0  0  0  0  0
    1.1794   -2.5664   -0.8086 H   0  0  0  0  0  0  0  0  0  0  0  0
    1.8965   -3.0904   -3.1863 H   0  0  0  0  0  0  0  0  0  0  0  0
    3.6070   -3.1312   -2.6056 H   0  0  0  0  0  0  0  0  0  0  0  0
    2.6381   -1.6130   -2.4938 H   0  0  0  0  0  0  0  0  0  0  0  0
    3.8054   -3.5705    0.2510 H   0  0  0  0  0  0  0  0  0  0  0  0
    1.7698   -0.5161   -0.4379 H   0  0  0  0  0  0  0  0  0  0  0  0
    4.0289   -0.0531   -1.3988 H   0  0  0  0  0  0  0  0  0  0  0  0
    3.0627    1.3945   -1.0645 H   0  0  0  0  0  0  0  0  0  0  0  0
    3.6902    2.9552    0.7595 H   0  0  0  0  0  0  0  0  0  0  0  0
    5.5337    3.8672    2.1219 H   0  0  0  0  0  0  0  0  0  0  0  0
    7.6336    2.5821    2.4034 H   0  0  0  0  0  0  0  0  0  0  0  0
    7.8881    0.3692    1.3157 H   0  0  0  0  0  0  0  0  0  0  0  0
    6.0564   -0.5607   -0.0532 H   0  0  0  0  0  0  0  0  0  0  0  0
    2.7452    0.6427    2.1924 H   0  0  0  0  0  0  0  0  0  0  0  0
   -0.2599   -0.1262    0.3841 H   0  0  0  0  0  0  0  0  0  0  0  0
   -1.1528    1.3132   -1.4434 H   0  0  0  0  0  0  0  0  0  0  0  0
    0.6148    1.3926   -1.4022 H   0  0  0  0  0  0  0  0  0  0  0  0
   -2.5449    3.2254   -0.5924 H   0  0  0  0  0  0  0  0  0  0  0  0
   -2.6788    5.6737   -0.3473 H   0  0  0  0  0  0  0  0  0  0  0  0
    0.1862    7.9414   -0.2841 H   0  0  0  0  0  0  0  0  0  0  0  0
    1.6088    5.9395   -0.5698 H   0  0  0  0  0  0  0  0  0  0  0  0
    1.7552    3.4950   -0.8147 H   0  0  0  0  0  0  0  0  0  0  0  0
   -1.5040    2.0999    1.9502 H   0  0  0  0  0  0  0  0  0  0  0  0
  1  2  1  0
  2  3  1  0
  2  4  1  0
  4  5  1  0
  5  6  1  0
  6  7  1  0
  7  8  1  0
  8  9  1  0
  9 10  1  0
 10 11  1  0
 11 12  1  0
 12 13  2  0
 12 14  1  0
 14 15  1  0
 14 16  1  0
 16 17  1  0
 17 18  2  0
 17 19  1  0
 19 20  1  0
 20 21  1  0
 21 22  2  0
 22 23  1  0
 23 24  2  0
 24 25  1  0
 25 26  2  0
 19 27  1  0
 27 28  1  0
 28 29  2  0
 28 30  1  0
 30 31  1  0
 31 32  1  0
 32 33  2  0
 33 34  1  0
 34 35  2  0
 35 36  1  0
 35 37  1  0
 37 38  2  0
 30 39  1  0
 39 40  1  0
 40 41  2  0
 40  5  1  0
 26 21  1  0
 38 32  1  0
  1 42  1  0
  1 43  1  0
  1 44  1  0
  2 45  1  0
  3 46  1  0
  3 47  1  0
  3 48  1  0
  4 49  1  0
  4 50  1  0
  5 51  1  6
  6 52  1  0
  7 53  1  0
  7 54  1  0
  8 55  1  0
  8 56  1  0
  9 57  1  0
  9 58  1  0
 10 59  1  0
 10 60  1  0
 11 61  1  0
 14 62  1  1
 15 63  1  0
 15 64  1  0
 15 65  1  0
 16 66  1  0
 19 67  1  6
 20 68  1  0
 20 69  1  0
 22 70  1  0
 23 71  1  0
 24 72  1  0
 25 73  1  0
 26 74  1  0
 27 75  1  0
 30 76  1  6
 31 77  1  0
 31 78  1  0
 33 79  1  0
 34 80  1  0
 36 81  1  0
 37 82  1  0
 38 83  1  0
 39 84  1  0
M  END
$$$$
