
     RDKit          3D

 57 60  0  0  0  0  0  0  0  0999 V2000
    5.3801    0.1617    1.9442 C   0  0  0  0  0  0  0  0  0  0  0  0
    6.0592    0.4655    0.6483 C   0  0  0  0  0  0  0  0  0  0  0  0
    7.2839    1.0185    0.5732 N   0  0  0  0  0  0  0  0  0  0  0  0
    7.5373    1.0477   -0.7514 C   0  0  0  0  0  0  0  0  0  0  0  0
    6.5531    0.5504   -1.4665 O   0  0  0  0  0  0  0  0  0  0  0  0
    5.6107    0.1920   -0.6320 C   0  0  0  0  0  0  0  0  0  0  0  0
    4.3382   -0.4175   -1.0548 C   0  0  0  0  0  0  0  0  0  0  0  0
    4.3448   -1.1917   -2.0500 O   0  0  0  0  0  0  0  0  0  0  0  0
    3.0954   -0.1262   -0.3892 N   0  0  0  0  0  0  0  0  0  0  0  0
    2.7848    1.2093    0.1114 C   0  0  0  0  0  0  0  0  0  0  0  0
    1.3874    1.5886   -0.3623 C   0  0  0  0  0  0  0  0  0  0  0  0
    0.4284    0.6199    0.0380 O   0  0  0  0  0  0  0  0  0  0  0  0
    0.6679   -0.6660   -0.5336 C   0  0  0  0  0  0  0  0  0  0  0  0
   -0.3566   -1.6818    0.0607 C   0  0  0  0  0  0  0  0  0  0  0  0
   -0.6996   -1.4593    1.5549 C   0  0  0  0  0  0  0  0  0  0  0  0
   -1.9622   -0.5990    1.7512 C   0  0  0  0  0  0  0  0  0  0  0  0
   -3.2504   -1.3919    1.4540 C   0  0  0  0  0  0  0  0  0  0  0  0
   -4.3948   -0.5003    1.0338 C   0  0  0  0  0  0  0  0  0  0  0  0
   -5.5160   -0.3672    1.8706 C   0  0  0  0  0  0  0  0  0  0  0  0
   -6.6210    0.3800    1.4603 C   0  0  0  0  0  0  0  0  0  0  0  0
   -6.6246    0.9904    0.2060 C   0  0  0  0  0  0  0  0  0  0  0  0
   -5.5114    0.8825   -0.6320 C   0  0  0  0  0  0  0  0  0  0  0  0
   -4.3768    0.1536   -0.2202 C   0  0  0  0  0  0  0  0  0  0  0  0
   -3.2138    0.0763   -1.0083 O   0  0  0  0  0  0  0  0  0  0  0  0
   -2.9969    0.7748   -2.2354 C   0  0  0  0  0  0  0  0  0  0  0  0
   -1.4986    0.9454   -2.4725 C   0  0  0  0  0  0  0  0  0  0  0  0
   -0.8343   -0.3499   -2.6240 N   0  0  0  0  0  0  0  0  0  0  0  0
    0.4554   -0.6347   -2.0540 C   0  0  0  0  0  0  0  0  0  0  0  0
    1.4013   -0.9340   -2.8327 O   0  0  0  0  0  0  0  0  0  0  0  0
    2.0984   -1.1717   -0.1584 C   0  0  0  0  0  0  0  0  0  0  0  0
    6.1280   -0.2122    2.6763 H   0  0  0  0  0  0  0  0  0  0  0  0
    4.6050   -0.6221    1.8130 H   0  0  0  0  0  0  0  0  0  0  0  0
    4.9201    1.0856    2.3485 H   0  0  0  0  0  0  0  0  0  0  0  0
    8.4529    1.4340   -1.1760 H   0  0  0  0  0  0  0  0  0  0  0  0
    3.5168    1.9591   -0.2602 H   0  0  0  0  0  0  0  0  0  0  0  0
    2.8002    1.2043    1.2218 H   0  0  0  0  0  0  0  0  0  0  0  0
    1.3831    1.7371   -1.4650 H   0  0  0  0  0  0  0  0  0  0  0  0
    1.1124    2.5630    0.0943 H   0  0  0  0  0  0  0  0  0  0  0  0
    0.0389   -2.7144   -0.0590 H   0  0  0  0  0  0  0  0  0  0  0  0
   -1.2916   -1.6779   -0.5312 H   0  0  0  0  0  0  0  0  0  0  0  0
   -0.8559   -2.4436    2.0460 H   0  0  0  0  0  0  0  0  0  0  0  0
    0.1505   -0.9803    2.0819 H   0  0  0  0  0  0  0  0  0  0  0  0
   -2.0013   -0.2507    2.8052 H   0  0  0  0  0  0  0  0  0  0  0  0
   -1.8886    0.3108    1.1220 H   0  0  0  0  0  0  0  0  0  0  0  0
   -3.0950   -2.1422    0.6519 H   0  0  0  0  0  0  0  0  0  0  0  0
   -3.5206   -1.9777    2.3589 H   0  0  0  0  0  0  0  0  0  0  0  0
   -5.5386   -0.8477    2.8408 H   0  0  0  0  0  0  0  0  0  0  0  0
   -7.4804    0.4780    2.1109 H   0  0  0  0  0  0  0  0  0  0  0  0
   -7.4883    1.5597   -0.1156 H   0  0  0  0  0  0  0  0  0  0  0  0
   -5.5458    1.3759   -1.5940 H   0  0  0  0  0  0  0  0  0  0  0  0
   -3.4330    1.7937   -2.1836 H   0  0  0  0  0  0  0  0  0  0  0  0
   -3.4669    0.2200   -3.0748 H   0  0  0  0  0  0  0  0  0  0  0  0
   -1.3392    1.5437   -3.3960 H   0  0  0  0  0  0  0  0  0  0  0  0
   -1.0787    1.5208   -1.6256 H   0  0  0  0  0  0  0  0  0  0  0  0
   -1.1375   -0.9432   -3.4271 H   0  0  0  0  0  0  0  0  0  0  0  0
    2.3447   -2.0935   -0.7298 H   0  0  0  0  0  0  0  0  0  0  0  0
    2.1398   -1.4454    0.9179 H   0  0  0  0  0  0  0  0  0  0  0  0
  1  2  1  0
  2  3  1  0
  3  4  2  0
  4  5  1  0
  5  6  1  0
  6  7  1  0
  7  8  2  0
  7  9  1  0
  9 10  1  0
 10 11  1  0
 11 12  1  0
 12 13  1  0
 13 14  1  0
 14 15  1  0
 15 16  1  0
 16 17  1  0
 17 18  1  0
 18 19  2  0
 19 20  1  0
 20 21  2  0
 21 22  1  0
 22 23  2  0
 23 24  1  0
 24 25  1  0
 25 26  1  0
 26 27  1  0
 27 28  1  0
 28 29  2  0
 13 30  1  0
  6  2  2  0
 30  9  1  0
 28 13  1  0
 23 18  1  0
  1 31  1  0
  1 32  1  0
  1 33  1  0
  4 34  1  0
 10 35  1  0
 10 36  1  0
 11 37  1  0
 11 38  1  0
 14 39  1  0
 14 40  1  0
 15 41  1  0
 15 42  1  0
 16 43  1  0
 16 44  1  0
 17 45  1  0
 17 46  1  0
 19 47  1  0
 20 48  1  0
 21 49  1  0
 22 50  1  0
 25 51  1  0
 25 52  1  0
 26 53  1  0
 26 54  1  0
 27 55  1  0
 30 56  1  0
 30 57  1  0
M  END
$$$$
