
     RDKit          3D

 58 62  0  0  0  0  0  0  0  0999 V2000
   -3.4814    3.4369    1.4320 O   0  0  0  0  0  0  0  0  0  0  0  0
   -2.9964    2.2852    1.2632 C   0  0  0  0  0  0  0  0  0  0  0  0
   -3.9317    1.1152    1.1833 C   0  0  0  0  0  0  0  0  0  0  0  0
   -3.9955    0.6498   -0.1616 O   0  0  0  0  0  0  0  0  0  0  0  0
   -4.7379   -0.4648   -0.5890 C   0  0  0  0  0  0  0  0  0  0  0  0
   -5.6365   -1.1346    0.2689 C   0  0  0  0  0  0  0  0  0  0  0  0
   -6.3526   -2.2440   -0.1859 C   0  0  0  0  0  0  0  0  0  0  0  0
   -6.1820   -2.7009   -1.4935 C   0  0  0  0  0  0  0  0  0  0  0  0
   -5.2952   -2.0507   -2.3516 C   0  0  0  0  0  0  0  0  0  0  0  0
   -4.5682   -0.9300   -1.9124 C   0  0  0  0  0  0  0  0  0  0  0  0
   -3.5648   -0.2791   -2.8314 C   0  0  0  0  0  0  0  0  0  0  0  0
   -2.1711   -0.5737   -2.3481 C   0  0  0  0  0  0  0  0  0  0  0  0
   -1.3115    0.4084   -2.0367 C   0  0  0  0  0  0  0  0  0  0  0  0
    0.0182    0.1161   -1.3886 C   0  0  0  0  0  0  0  0  0  0  0  0
    0.2513    1.0288   -0.1659 C   0  0  0  0  0  0  0  0  0  0  0  0
   -0.8684    0.8729    0.9245 C   0  0  0  0  0  0  0  0  0  0  0  0
   -0.3266    0.3947    2.2760 C   0  0  0  0  0  0  0  0  0  0  0  0
    0.6113   -0.7855    2.0566 C   0  0  0  0  0  0  0  0  0  0  0  0
    1.8709   -0.3278    1.3159 C   0  0  0  0  0  0  0  0  0  0  0  0
    1.6106    0.7812    0.3724 N   0  0  0  0  0  0  0  0  0  0  0  0
    2.7158    1.6071   -0.0738 C   0  0  0  0  0  0  0  0  0  0  0  0
    2.4929    2.7339   -0.5991 O   0  0  0  0  0  0  0  0  0  0  0  0
    4.1195    1.1870    0.1002 C   0  0  0  0  0  0  0  0  0  0  0  0
    5.0378    2.0585    0.7457 C   0  0  0  0  0  0  0  0  0  0  0  0
    6.3747    1.6694    0.9460 C   0  0  0  0  0  0  0  0  0  0  0  0
    6.7574    0.4174    0.4698 C   0  0  0  0  0  0  0  0  0  0  0  0
    7.9607   -0.1625    0.5347 N   0  0  0  0  0  0  0  0  0  0  0  0
    7.7857   -1.3479   -0.0997 C   0  0  0  0  0  0  0  0  0  0  0  0
    6.5168   -1.5409   -0.5524 N   0  0  0  0  0  0  0  0  0  0  0  0
    5.8907   -0.4116   -0.1768 C   0  0  0  0  0  0  0  0  0  0  0  0
    4.5577   -0.0659   -0.3842 C   0  0  0  0  0  0  0  0  0  0  0  0
   -1.5739    2.1475    1.1131 N   0  0  0  0  0  0  0  0  0  0  0  0
   -3.5731    0.3035    1.8524 H   0  0  0  0  0  0  0  0  0  0  0  0
   -4.9453    1.4265    1.5184 H   0  0  0  0  0  0  0  0  0  0  0  0
   -5.7869   -0.8072    1.2906 H   0  0  0  0  0  0  0  0  0  0  0  0
   -7.0349   -2.7555    0.4798 H   0  0  0  0  0  0  0  0  0  0  0  0
   -6.7357   -3.5633   -1.8407 H   0  0  0  0  0  0  0  0  0  0  0  0
   -5.1680   -2.4280   -3.3582 H   0  0  0  0  0  0  0  0  0  0  0  0
   -3.7608    0.8160   -2.8684 H   0  0  0  0  0  0  0  0  0  0  0  0
   -3.6670   -0.6639   -3.8690 H   0  0  0  0  0  0  0  0  0  0  0  0
   -1.8882   -1.6125   -2.1965 H   0  0  0  0  0  0  0  0  0  0  0  0
   -1.5899    1.4449   -2.2041 H   0  0  0  0  0  0  0  0  0  0  0  0
    0.8168    0.3008   -2.1400 H   0  0  0  0  0  0  0  0  0  0  0  0
    0.0886   -0.9496   -1.0752 H   0  0  0  0  0  0  0  0  0  0  0  0
    0.1986    2.0720   -0.5514 H   0  0  0  0  0  0  0  0  0  0  0  0
   -1.5849    0.0951    0.5882 H   0  0  0  0  0  0  0  0  0  0  0  0
   -1.1720    0.0802    2.9270 H   0  0  0  0  0  0  0  0  0  0  0  0
    0.2182    1.2184    2.7917 H   0  0  0  0  0  0  0  0  0  0  0  0
    0.8967   -1.2257    3.0375 H   0  0  0  0  0  0  0  0  0  0  0  0
    0.0918   -1.5770    1.4706 H   0  0  0  0  0  0  0  0  0  0  0  0
    2.3036   -1.1957    0.7744 H   0  0  0  0  0  0  0  0  0  0  0  0
    2.6075    0.0104    2.0800 H   0  0  0  0  0  0  0  0  0  0  0  0
    4.7118    3.0264    1.1050 H   0  0  0  0  0  0  0  0  0  0  0  0
    7.0798    2.3207    1.4475 H   0  0  0  0  0  0  0  0  0  0  0  0
    8.8376    0.2121    0.9641 H   0  0  0  0  0  0  0  0  0  0  0  0
    8.5795   -2.0718   -0.2333 H   0  0  0  0  0  0  0  0  0  0  0  0
    3.8913   -0.7333   -0.9147 H   0  0  0  0  0  0  0  0  0  0  0  0
   -0.9935    3.0025    1.2730 H   0  0  0  0  0  0  0  0  0  0  0  0
  1  2  2  0
  2  3  1  0
  3  4  1  0
  4  5  1  0
  5  6  2  0
  6  7  1  0
  7  8  2  0
  8  9  1  0
  9 10  2  0
 10 11  1  0
 11 12  1  0
 12 13  2  0
 13 14  1  0
 14 15  1  0
 15 16  1  0
 16 17  1  0
 17 18  1  0
 18 19  1  0
 19 20  1  0
 20 21  1  0
 21 22  2  0
 21 23  1  0
 23 24  2  0
 24 25  1  0
 25 26  2  0
 26 27  1  0
 27 28  1  0
 28 29  2  0
 29 30  1  0
 30 31  2  0
 16 32  1  0
 32  2  1  0
 10  5  1  0
 20 15  1  0
 31 23  1  0
 30 26  1  0
  3 33  1  0
  3 34  1  0
  6 35  1  0
  7 36  1  0
  8 37  1  0
  9 38  1  0
 11 39  1  0
 11 40  1  0
 12 41  1  0
 13 42  1  0
 14 43  1  0
 14 44  1  0
 15 45  1  0
 16 46  1  0
 17 47  1  0
 17 48  1  0
 18 49  1  0
 18 50  1  0
 19 51  1  0
 19 52  1  0
 24 53  1  0
 25 54  1  0
 27 55  1  0
 28 56  1  0
 31 57  1  0
 32 58  1  0
M  END
$$$$
