
     RDKit          3D

 76 79  0  0  0  0  0  0  0  0999 V2000
   -6.9912    3.7221   -0.4141 C   0  0  0  0  0  0  0  0  0  0  0  0
   -6.9338    2.3668   -0.8531 O   0  0  0  0  0  0  0  0  0  0  0  0
   -6.0223    1.4101   -0.3790 C   0  0  0  0  0  0  0  0  0  0  0  0
   -5.0252    1.7362    0.5574 C   0  0  0  0  0  0  0  0  0  0  0  0
   -4.1363    0.7587    1.0181 C   0  0  0  0  0  0  0  0  0  0  0  0
   -3.0698    1.1032    2.0258 C   0  0  0  0  0  0  0  0  0  0  0  0
   -1.7544    0.7321    1.5110 N   0  0  0  0  0  0  0  0  0  0  0  0
   -1.1362    1.4380    0.4249 C   0  0  0  0  0  0  0  0  0  0  0  0
   -1.5678    2.5716    0.0802 O   0  0  0  0  0  0  0  0  0  0  0  0
   -0.0449    0.7944   -0.3769 C   0  0  0  0  0  0  0  0  0  0  0  0
    0.8785    0.0406    0.5096 N   0  0  0  0  0  0  0  0  0  0  0  0
    2.0876    0.8311    0.8461 C   0  0  0  0  0  0  0  0  0  0  0  0
    1.8084    2.1949    1.5007 C   0  0  0  0  0  0  0  0  0  0  0  0
    3.1188    2.8728    1.9522 C   0  0  0  0  0  0  0  0  0  0  0  0
    4.0129    3.3311    0.7712 C   0  0  0  0  0  0  0  0  0  0  0  0
    5.4508    2.7709    0.8218 C   0  0  0  0  0  0  0  0  0  0  0  0
    5.5403    1.2768    0.4851 C   0  0  0  0  0  0  0  0  0  0  0  0
    5.1161    1.0581   -0.8620 O   0  0  0  0  0  0  0  0  0  0  0  0
    5.0100   -0.1839   -1.5146 C   0  0  0  0  0  0  0  0  0  0  0  0
    5.3171   -0.2149   -2.8804 C   0  0  0  0  0  0  0  0  0  0  0  0
    5.1946   -1.3934   -3.6173 C   0  0  0  0  0  0  0  0  0  0  0  0
    4.7507   -2.5590   -2.9979 C   0  0  0  0  0  0  0  0  0  0  0  0
    4.4268   -2.5497   -1.6413 C   0  0  0  0  0  0  0  0  0  0  0  0
    4.5481   -1.3683   -0.8861 C   0  0  0  0  0  0  0  0  0  0  0  0
    4.2018   -1.3575    0.4696 O   0  0  0  0  0  0  0  0  0  0  0  0
    3.3128   -2.2510    1.0799 C   0  0  0  0  0  0  0  0  0  0  0  0
    3.8061   -3.1344    1.9898 N   0  0  0  0  0  0  0  0  0  0  0  0
    3.0059   -3.9932    2.6729 C   0  0  0  0  0  0  0  0  0  0  0  0
    1.6279   -3.9731    2.4698 C   0  0  0  0  0  0  0  0  0  0  0  0
    1.0843   -3.0708    1.5560 C   0  0  0  0  0  0  0  0  0  0  0  0
    1.9172   -2.2019    0.8333 C   0  0  0  0  0  0  0  0  0  0  0  0
    1.2862   -1.2300   -0.1445 C   0  0  0  0  0  0  0  0  0  0  0  0
   -4.2451   -0.5516    0.5366 C   0  0  0  0  0  0  0  0  0  0  0  0
   -5.2239   -0.8979   -0.4147 C   0  0  0  0  0  0  0  0  0  0  0  0
   -5.3006   -2.2024   -0.9278 O   0  0  0  0  0  0  0  0  0  0  0  0
   -4.3907   -3.2556   -0.6190 C   0  0  0  0  0  0  0  0  0  0  0  0
   -6.1321    0.0950   -0.8625 C   0  0  0  0  0  0  0  0  0  0  0  0
   -7.1636   -0.1535   -1.7871 O   0  0  0  0  0  0  0  0  0  0  0  0
   -7.5855   -1.4289   -2.2593 C   0  0  0  0  0  0  0  0  0  0  0  0
   -7.1992    3.7624    0.6763 H   0  0  0  0  0  0  0  0  0  0  0  0
   -7.8075    4.2450   -0.9534 H   0  0  0  0  0  0  0  0  0  0  0  0
   -6.0368    4.2373   -0.6440 H   0  0  0  0  0  0  0  0  0  0  0  0
   -4.9369    2.7469    0.9341 H   0  0  0  0  0  0  0  0  0  0  0  0
   -3.2717    0.5375    2.9599 H   0  0  0  0  0  0  0  0  0  0  0  0
   -3.0781    2.1844    2.2827 H   0  0  0  0  0  0  0  0  0  0  0  0
   -1.3141   -0.1438    1.8765 H   0  0  0  0  0  0  0  0  0  0  0  0
   -0.5590    0.1368   -1.1094 H   0  0  0  0  0  0  0  0  0  0  0  0
    0.4950    1.5558   -0.9862 H   0  0  0  0  0  0  0  0  0  0  0  0
    2.6992    0.9834   -0.0647 H   0  0  0  0  0  0  0  0  0  0  0  0
    2.6754    0.2619    1.5923 H   0  0  0  0  0  0  0  0  0  0  0  0
    1.2804    2.8765    0.8011 H   0  0  0  0  0  0  0  0  0  0  0  0
    1.1583    2.0401    2.3892 H   0  0  0  0  0  0  0  0  0  0  0  0
    2.8499    3.7674    2.5562 H   0  0  0  0  0  0  0  0  0  0  0  0
    3.6660    2.1917    2.6415 H   0  0  0  0  0  0  0  0  0  0  0  0
    3.5564    3.0915   -0.2118 H   0  0  0  0  0  0  0  0  0  0  0  0
    4.0817    4.4407    0.7963 H   0  0  0  0  0  0  0  0  0  0  0  0
    5.8886    2.9511    1.8283 H   0  0  0  0  0  0  0  0  0  0  0  0
    6.0719    3.3321    0.0895 H   0  0  0  0  0  0  0  0  0  0  0  0
    6.5951    0.9423    0.5912 H   0  0  0  0  0  0  0  0  0  0  0  0
    4.9315    0.7196    1.2140 H   0  0  0  0  0  0  0  0  0  0  0  0
    5.6586    0.6851   -3.3753 H   0  0  0  0  0  0  0  0  0  0  0  0
    5.4460   -1.4005   -4.6705 H   0  0  0  0  0  0  0  0  0  0  0  0
    4.6523   -3.4719   -3.5703 H   0  0  0  0  0  0  0  0  0  0  0  0
    4.0836   -3.4661   -1.1787 H   0  0  0  0  0  0  0  0  0  0  0  0
    3.4386   -4.6818    3.3858 H   0  0  0  0  0  0  0  0  0  0  0  0
    0.9869   -4.6459    3.0221 H   0  0  0  0  0  0  0  0  0  0  0  0
    0.0109   -3.0531    1.4070 H   0  0  0  0  0  0  0  0  0  0  0  0
    1.9529   -1.0327   -1.0102 H   0  0  0  0  0  0  0  0  0  0  0  0
    0.3977   -1.7458   -0.5736 H   0  0  0  0  0  0  0  0  0  0  0  0
   -3.5513   -1.2959    0.9015 H   0  0  0  0  0  0  0  0  0  0  0  0
   -3.3574   -2.9656   -0.9081 H   0  0  0  0  0  0  0  0  0  0  0  0
   -4.6783   -4.1607   -1.1911 H   0  0  0  0  0  0  0  0  0  0  0  0
   -4.4321   -3.4928    0.4653 H   0  0  0  0  0  0  0  0  0  0  0  0
   -8.5061   -1.2983   -2.8632 H   0  0  0  0  0  0  0  0  0  0  0  0
   -7.8224   -2.0995   -1.4063 H   0  0  0  0  0  0  0  0  0  0  0  0
   -6.8054   -1.8684   -2.9130 H   0  0  0  0  0  0  0  0  0  0  0  0
  1  2  1  0
  2  3  1  0
  3  4  2  0
  4  5  1  0
  5  6  1  0
  6  7  1  0
  7  8  1  0
  8  9  2  0
  8 10  1  0
 10 11  1  0
 11 12  1  0
 12 13  1  0
 13 14  1  0
 14 15  1  0
 15 16  1  0
 16 17  1  0
 17 18  1  0
 18 19  1  0
 19 20  2  0
 20 21  1  0
 21 22  2  0
 22 23  1  0
 23 24  2  0
 24 25  1  0
 25 26  1  0
 26 27  2  0
 27 28  1  0
 28 29  2  0
 29 30  1  0
 30 31  2  0
 31 32  1  0
  5 33  2  0
 33 34  1  0
 34 35  1  0
 35 36  1  0
 34 37  2  0
 37 38  1  0
 38 39  1  0
 37  3  1  0
 32 11  1  0
 24 19  1  0
 31 26  1  0
  1 40  1  0
  1 41  1  0
  1 42  1  0
  4 43  1  0
  6 44  1  0
  6 45  1  0
  7 46  1  0
 10 47  1  0
 10 48  1  0
 12 49  1  0
 12 50  1  0
 13 51  1  0
 13 52  1  0
 14 53  1  0
 14 54  1  0
 15 55  1  0
 15 56  1  0
 16 57  1  0
 16 58  1  0
 17 59  1  0
 17 60  1  0
 20 61  1  0
 21 62  1  0
 22 63  1  0
 23 64  1  0
 28 65  1  0
 29 66  1  0
 30 67  1  0
 32 68  1  0
 32 69  1  0
 33 70  1  0
 36 71  1  0
 36 72  1  0
 36 73  1  0
 39 74  1  0
 39 75  1  0
 39 76  1  0
M  END
$$$$
