
     RDKit          3D

 70 73  0  0  0  0  0  0  0  0999 V2000
   -3.0218   -0.0597   -1.4845 C   0  0  0  0  0  0  0  0  0  0  0  0
   -1.7996    0.8799   -1.5309 C   0  0  1  0  0  0  0  0  0  0  0  0
   -1.7213    1.8782   -0.3248 C   0  0  0  0  0  0  0  0  0  0  0  0
   -3.0068    2.0684    0.3859 N   0  0  0  0  0  0  0  0  0  0  0  0
   -3.7917    3.3079    0.1604 C   0  0  1  0  0  0  0  0  0  0  0  0
   -3.1933    4.4635    0.9713 C   0  0  0  0  0  0  0  0  0  0  0  0
   -3.9113    3.6743   -1.3349 C   0  0  0  0  0  0  0  0  0  0  0  0
   -4.8541    4.6991   -1.5125 O   0  0  0  0  0  0  0  0  0  0  0  0
   -3.3781    1.2088    1.5065 C   0  0  0  0  0  0  0  0  0  0  0  0
   -4.4232    1.4652    2.1673 O   0  0  0  0  0  0  0  0  0  0  0  0
   -2.5288    0.0452    1.9759 C   0  0  0  0  0  0  0  0  0  0  0  0
   -3.3774   -1.2160    2.2407 C   0  0  0  0  0  0  0  0  0  0  0  0
   -2.5244   -2.4937    2.3489 C   0  0  0  0  0  0  0  0  0  0  0  0
   -2.0221   -2.8910    1.0347 N   0  0  0  0  0  0  0  0  0  0  0  0
   -0.8597   -2.5033    0.4839 C   0  0  0  0  0  0  0  0  0  0  0  0
   -0.9552   -2.7924   -0.8597 C   0  0  0  0  0  0  0  0  0  0  0  0
   -2.1530   -3.3701   -1.0857 N   0  0  0  0  0  0  0  0  0  0  0  0
   -2.7788   -3.4173    0.0827 N   0  0  0  0  0  0  0  0  0  0  0  0
   -0.0755   -2.2337   -1.9372 C   0  0  0  0  0  0  0  0  0  0  0  0
   -0.6489   -1.0643   -2.5057 O   0  0  0  0  0  0  0  0  0  0  0  0
   -0.4584    0.0878   -1.6867 C   0  0  1  0  0  0  0  0  0  0  0  0
    0.6164    0.9854   -2.3341 C   0  0  0  0  0  0  0  0  0  0  0  0
    1.9333    0.3308   -2.3083 N   0  0  0  0  0  0  0  0  0  0  0  0
    2.4510   -0.3063   -3.5232 C   0  0  0  0  0  0  0  0  0  0  0  0
    2.6849    0.2827   -1.0747 C   0  0  0  0  0  0  0  0  0  0  0  0
    2.2758    0.9303   -0.0710 O   0  0  0  0  0  0  0  0  0  0  0  0
    3.9042   -0.4771   -0.9793 N   0  0  0  0  0  0  0  0  0  0  0  0
    4.4723   -0.9180    0.2669 C   0  0  0  0  0  0  0  0  0  0  0  0
    3.6542   -1.2145    1.3937 C   0  0  0  0  0  0  0  0  0  0  0  0
    4.2304   -1.6479    2.6017 C   0  0  0  0  0  0  0  0  0  0  0  0
    5.6126   -1.7927    2.6484 C   0  0  0  0  0  0  0  0  0  0  0  0
    6.3972   -1.5392    1.5708 C   0  0  0  0  0  0  0  0  0  0  0  0
    5.8692   -1.1067    0.3581 C   0  0  0  0  0  0  0  0  0  0  0  0
    7.7189   -1.7776    1.8964 O   0  0  0  0  0  0  0  0  0  0  0  0
    7.7672   -2.2047    3.2659 C   0  0  0  0  0  0  0  0  0  0  0  0
    6.4014   -2.1998    3.7074 O   0  0  0  0  0  0  0  0  0  0  0  0
   -2.9442   -0.7758   -0.6517 H   0  0  0  0  0  0  0  0  0  0  0  0
   -3.9666    0.5083   -1.3753 H   0  0  0  0  0  0  0  0  0  0  0  0
   -3.1072   -0.6303   -2.4334 H   0  0  0  0  0  0  0  0  0  0  0  0
   -1.9479    1.4898   -2.4511 H   0  0  0  0  0  0  0  0  0  0  0  0
   -0.9289    1.6111    0.4034 H   0  0  0  0  0  0  0  0  0  0  0  0
   -1.3518    2.8488   -0.7135 H   0  0  0  0  0  0  0  0  0  0  0  0
   -4.8345    3.1557    0.5166 H   0  0  0  0  0  0  0  0  0  0  0  0
   -3.8280    5.3700    0.8778 H   0  0  0  0  0  0  0  0  0  0  0  0
   -2.1687    4.7048    0.6200 H   0  0  0  0  0  0  0  0  0  0  0  0
   -3.1455    4.1862    2.0458 H   0  0  0  0  0  0  0  0  0  0  0  0
   -2.9408    4.0339   -1.7326 H   0  0  0  0  0  0  0  0  0  0  0  0
   -4.2071    2.7802   -1.9279 H   0  0  0  0  0  0  0  0  0  0  0  0
   -5.7460    4.2668   -1.5459 H   0  0  0  0  0  0  0  0  0  0  0  0
   -2.0056    0.3384    2.9121 H   0  0  0  0  0  0  0  0  0  0  0  0
   -1.7530   -0.1956    1.2366 H   0  0  0  0  0  0  0  0  0  0  0  0
   -4.1297   -1.3510    1.4317 H   0  0  0  0  0  0  0  0  0  0  0  0
   -3.9348   -1.0773    3.1929 H   0  0  0  0  0  0  0  0  0  0  0  0
   -3.1527   -3.3144    2.7564 H   0  0  0  0  0  0  0  0  0  0  0  0
   -1.6787   -2.3342    3.0527 H   0  0  0  0  0  0  0  0  0  0  0  0
   -0.0826   -1.9398    0.9844 H   0  0  0  0  0  0  0  0  0  0  0  0
    0.0194   -2.9964   -2.7376 H   0  0  0  0  0  0  0  0  0  0  0  0
    0.9503   -2.0550   -1.5460 H   0  0  0  0  0  0  0  0  0  0  0  0
   -0.1071   -0.1753   -0.6642 H   0  0  0  0  0  0  0  0  0  0  0  0
    0.3152    1.2206   -3.3787 H   0  0  0  0  0  0  0  0  0  0  0  0
    0.6832    1.9607   -1.8053 H   0  0  0  0  0  0  0  0  0  0  0  0
    2.6766   -1.3759   -3.3254 H   0  0  0  0  0  0  0  0  0  0  0  0
    1.7110   -0.2685   -4.3495 H   0  0  0  0  0  0  0  0  0  0  0  0
    3.3720    0.2144   -3.8570 H   0  0  0  0  0  0  0  0  0  0  0  0
    4.4579   -0.6469   -1.8477 H   0  0  0  0  0  0  0  0  0  0  0  0
    2.5775   -1.1308    1.3349 H   0  0  0  0  0  0  0  0  0  0  0  0
    3.6177   -1.8688    3.4658 H   0  0  0  0  0  0  0  0  0  0  0  0
    6.5203   -0.9136   -0.4862 H   0  0  0  0  0  0  0  0  0  0  0  0
    8.1871   -3.2307    3.3336 H   0  0  0  0  0  0  0  0  0  0  0  0
    8.3679   -1.4909    3.8689 H   0  0  0  0  0  0  0  0  0  0  0  0
  1  2  1  0
  2  3  1  0
  3  4  1  0
  4  5  1  0
  5  6  1  0
  5  7  1  0
  7  8  1  0
  4  9  1  0
  9 10  2  0
  9 11  1  0
 11 12  1  0
 12 13  1  0
 13 14  1  0
 14 15  1  0
 15 16  2  0
 16 17  1  0
 17 18  2  0
 16 19  1  0
 19 20  1  0
 20 21  1  0
 21 22  1  0
 22 23  1  0
 23 24  1  0
 23 25  1  0
 25 26  2  0
 25 27  1  0
 27 28  1  0
 28 29  2  0
 29 30  1  0
 30 31  2  0
 31 32  1  0
 32 33  2  0
 32 34  1  0
 34 35  1  0
 35 36  1  0
 21  2  1  0
 33 28  1  0
 18 14  1  0
 36 31  1  0
  1 37  1  0
  1 38  1  0
  1 39  1  0
  2 40  1  6
  3 41  1  0
  3 42  1  0
  5 43  1  1
  6 44  1  0
  6 45  1  0
  6 46  1  0
  7 47  1  0
  7 48  1  0
  8 49  1  0
 11 50  1  0
 11 51  1  0
 12 52  1  0
 12 53  1  0
 13 54  1  0
 13 55  1  0
 15 56  1  0
 19 57  1  0
 19 58  1  0
 21 59  1  1
 22 60  1  0
 22 61  1  0
 24 62  1  0
 24 63  1  0
 24 64  1  0
 27 65  1  0
 29 66  1  0
 30 67  1  0
 33 68  1  0
 35 69  1  0
 35 70  1  0
M  END
$$$$
