
     RDKit          3D

 90 92  0  0  0  0  0  0  0  0999 V2000
    3.1437   -3.4024   -1.6252 C   0  0  0  0  0  0  0  0  0  0  0  0
    1.8878   -2.7642   -2.2199 C   0  0  1  0  0  0  0  0  0  0  0  0
    0.8370   -3.8366   -2.5831 C   0  0  0  0  0  0  0  0  0  0  0  0
   -0.0624   -3.4591   -3.7754 C   0  0  0  0  0  0  0  0  0  0  0  0
   -0.7488   -2.0848   -3.6888 C   0  0  0  0  0  0  0  0  0  0  0  0
   -1.8041   -1.9483   -2.5743 C   0  0  0  0  0  0  0  0  0  0  0  0
   -1.2663   -1.1918   -1.4993 O   0  0  0  0  0  0  0  0  0  0  0  0
   -2.2322   -0.4138   -0.8063 C   0  0  2  0  0  0  0  0  0  0  0  0
   -1.7322    1.0508   -0.7649 C   0  0  0  0  0  0  0  0  0  0  0  0
   -2.7770    1.9620   -0.2655 N   0  0  0  0  0  0  0  0  0  0  0  0
   -2.5264    2.8154    0.9006 C   0  0  0  0  0  0  0  0  0  0  0  0
   -4.0101    2.1193   -0.9881 C   0  0  0  0  0  0  0  0  0  0  0  0
   -3.9946    2.1169   -2.2436 O   0  0  0  0  0  0  0  0  0  0  0  0
   -5.3158    2.3259   -0.2665 C   0  0  0  0  0  0  0  0  0  0  0  0
   -6.4437    1.5052   -0.9081 C   0  0  0  0  0  0  0  0  0  0  0  0
   -7.7605    1.6223   -0.1351 C   0  0  0  0  0  0  0  0  0  0  0  0
   -8.7338    0.8705   -0.7688 F   0  0  0  0  0  0  0  0  0  0  0  0
   -7.6020    1.1573    1.1623 F   0  0  0  0  0  0  0  0  0  0  0  0
   -8.1786    2.9427   -0.0953 F   0  0  0  0  0  0  0  0  0  0  0  0
   -2.4902   -0.9863    0.6278 C   0  0  1  0  0  0  0  0  0  0  0  0
   -3.7547   -1.8609    0.6174 C   0  0  0  0  0  0  0  0  0  0  0  0
   -1.3215   -1.7973    1.2621 C   0  0  0  0  0  0  0  0  0  0  0  0
   -0.3002   -0.9671    1.9308 N   0  0  0  0  0  0  0  0  0  0  0  0
   -0.4047   -0.6199    3.3660 C   0  0  2  0  0  0  0  0  0  0  0  0
   -0.3790   -1.8736    4.2537 C   0  0  0  0  0  0  0  0  0  0  0  0
   -1.6245    0.2642    3.6819 C   0  0  0  0  0  0  0  0  0  0  0  0
   -1.5550    0.7428    4.9962 O   0  0  0  0  0  0  0  0  0  0  0  0
    1.0401   -1.0598    1.4211 C   0  0  0  0  0  0  0  0  0  0  0  0
    1.8115   -1.9541    1.8568 O   0  0  0  0  0  0  0  0  0  0  0  0
    1.5283   -0.1411    0.3876 C   0  0  0  0  0  0  0  0  0  0  0  0
    1.9007    1.1675    0.7349 C   0  0  0  0  0  0  0  0  0  0  0  0
    2.4456    2.0319   -0.2289 C   0  0  0  0  0  0  0  0  0  0  0  0
    2.8952    3.3416    0.1329 N   0  0  0  0  0  0  0  0  0  0  0  0
    4.0971    3.5339    1.3651 S   0  0  0  0  0  6  0  0  0  0  0  0
    4.6445    4.9329    1.3013 O   0  0  0  0  0  0  0  0  0  0  0  0
    3.5021    3.3037    2.7239 O   0  0  0  0  0  0  0  0  0  0  0  0
    5.3978    2.3974    1.0785 C   0  0  0  0  0  0  0  0  0  0  0  0
    6.7228    2.7186    0.8707 C   0  0  0  0  0  0  0  0  0  0  0  0
    7.3741    1.5727    0.6088 N   0  0  0  0  0  0  0  0  0  0  0  0
    8.8060    1.4116    0.4048 C   0  0  0  0  0  0  0  0  0  0  0  0
    6.4512    0.5910    0.6798 C   0  0  0  0  0  0  0  0  0  0  0  0
    5.2174    1.0648    0.9656 N   0  0  0  0  0  0  0  0  0  0  0  0
    2.5972    1.5819   -1.5438 C   0  0  0  0  0  0  0  0  0  0  0  0
    2.2457    0.2746   -1.8888 C   0  0  0  0  0  0  0  0  0  0  0  0
    1.7155   -0.5985   -0.9249 C   0  0  0  0  0  0  0  0  0  0  0  0
    1.3127   -1.9060   -1.2340 O   0  0  0  0  0  0  0  0  0  0  0  0
    3.8802   -2.6066   -1.3783 H   0  0  0  0  0  0  0  0  0  0  0  0
    2.8924   -3.9604   -0.6962 H   0  0  0  0  0  0  0  0  0  0  0  0
    3.6210   -4.1045   -2.3418 H   0  0  0  0  0  0  0  0  0  0  0  0
    2.1865   -2.2138   -3.1386 H   0  0  0  0  0  0  0  0  0  0  0  0
    1.3377   -4.7976   -2.8466 H   0  0  0  0  0  0  0  0  0  0  0  0
    0.2071   -4.0612   -1.6970 H   0  0  0  0  0  0  0  0  0  0  0  0
    0.5684   -3.4789   -4.6954 H   0  0  0  0  0  0  0  0  0  0  0  0
   -0.8337   -4.2475   -3.9083 H   0  0  0  0  0  0  0  0  0  0  0  0
    0.0082   -1.2746   -3.6082 H   0  0  0  0  0  0  0  0  0  0  0  0
   -1.2541   -1.9109   -4.6665 H   0  0  0  0  0  0  0  0  0  0  0  0
   -2.1158   -2.9456   -2.2048 H   0  0  0  0  0  0  0  0  0  0  0  0
   -2.6999   -1.4770   -3.0451 H   0  0  0  0  0  0  0  0  0  0  0  0
   -3.2052   -0.3701   -1.3474 H   0  0  0  0  0  0  0  0  0  0  0  0
   -1.4556    1.3707   -1.7952 H   0  0  0  0  0  0  0  0  0  0  0  0
   -0.8135    1.1133   -0.1413 H   0  0  0  0  0  0  0  0  0  0  0  0
   -2.7774    3.8689    0.6620 H   0  0  0  0  0  0  0  0  0  0  0  0
   -3.1539    2.4877    1.7559 H   0  0  0  0  0  0  0  0  0  0  0  0
   -1.4636    2.7782    1.2133 H   0  0  0  0  0  0  0  0  0  0  0  0
   -5.5682    3.4055   -0.2991 H   0  0  0  0  0  0  0  0  0  0  0  0
   -5.2122    2.0155    0.7950 H   0  0  0  0  0  0  0  0  0  0  0  0
   -6.1491    0.4361   -0.9439 H   0  0  0  0  0  0  0  0  0  0  0  0
   -6.6189    1.8550   -1.9486 H   0  0  0  0  0  0  0  0  0  0  0  0
   -2.7525   -0.1435    1.2922 H   0  0  0  0  0  0  0  0  0  0  0  0
   -4.6364   -1.2803    0.2536 H   0  0  0  0  0  0  0  0  0  0  0  0
   -3.9912   -2.2048    1.6436 H   0  0  0  0  0  0  0  0  0  0  0  0
   -3.6132   -2.7572   -0.0235 H   0  0  0  0  0  0  0  0  0  0  0  0
   -0.8537   -2.4319    0.4748 H   0  0  0  0  0  0  0  0  0  0  0  0
   -1.7134   -2.5230    2.0025 H   0  0  0  0  0  0  0  0  0  0  0  0
    0.4928   -0.0075    3.6412 H   0  0  0  0  0  0  0  0  0  0  0  0
    0.2083   -1.6564    5.1688 H   0  0  0  0  0  0  0  0  0  0  0  0
    0.1005   -2.7428    3.7503 H   0  0  0  0  0  0  0  0  0  0  0  0
   -1.3955   -2.1733    4.5733 H   0  0  0  0  0  0  0  0  0  0  0  0
   -2.5539   -0.3200    3.5728 H   0  0  0  0  0  0  0  0  0  0  0  0
   -1.6478    1.1211    2.9672 H   0  0  0  0  0  0  0  0  0  0  0  0
   -0.9295    1.5121    4.9855 H   0  0  0  0  0  0  0  0  0  0  0  0
    1.7821    1.5023    1.7598 H   0  0  0  0  0  0  0  0  0  0  0  0
    2.7933    4.1114   -0.5626 H   0  0  0  0  0  0  0  0  0  0  0  0
    7.1789    3.7026    0.9126 H   0  0  0  0  0  0  0  0  0  0  0  0
    9.0083    0.4724   -0.1519 H   0  0  0  0  0  0  0  0  0  0  0  0
    9.2015    2.2572   -0.1971 H   0  0  0  0  0  0  0  0  0  0  0  0
    9.3265    1.3886    1.3876 H   0  0  0  0  0  0  0  0  0  0  0  0
    6.6682   -0.4600    0.5315 H   0  0  0  0  0  0  0  0  0  0  0  0
    3.0162    2.2356   -2.2943 H   0  0  0  0  0  0  0  0  0  0  0  0
    2.3742   -0.0388   -2.9142 H   0  0  0  0  0  0  0  0  0  0  0  0
  1  2  1  0
  2  3  1  0
  3  4  1  0
  4  5  1  0
  5  6  1  0
  6  7  1  0
  7  8  1  0
  8  9  1  0
  9 10  1  0
 10 11  1  0
 10 12  1  0
 12 13  2  0
 12 14  1  0
 14 15  1  0
 15 16  1  0
 16 17  1  0
 16 18  1  0
 16 19  1  0
  8 20  1  0
 20 21  1  0
 20 22  1  0
 22 23  1  0
 23 24  1  0
 24 25  1  0
 24 26  1  0
 26 27  1  0
 23 28  1  0
 28 29  2  0
 28 30  1  0
 30 31  2  0
 31 32  1  0
 32 33  1  0
 33 34  1  0
 34 35  2  0
 34 36  2  0
 34 37  1  0
 37 38  2  0
 38 39  1  0
 39 40  1  0
 39 41  1  0
 41 42  2  0
 32 43  2  0
 43 44  1  0
 44 45  2  0
 45 46  1  0
 46  2  1  0
 45 30  1  0
 42 37  1  0
  1 47  1  0
  1 48  1  0
  1 49  1  0
  2 50  1  6
  3 51  1  0
  3 52  1  0
  4 53  1  0
  4 54  1  0
  5 55  1  0
  5 56  1  0
  6 57  1  0
  6 58  1  0
  8 59  1  6
  9 60  1  0
  9 61  1  0
 11 62  1  0
 11 63  1  0
 11 64  1  0
 14 65  1  0
 14 66  1  0
 15 67  1  0
 15 68  1  0
 20 69  1  1
 21 70  1  0
 21 71  1  0
 21 72  1  0
 22 73  1  0
 22 74  1  0
 24 75  1  1
 25 76  1  0
 25 77  1  0
 25 78  1  0
 26 79  1  0
 26 80  1  0
 27 81  1  0
 31 82  1  0
 33 83  1  0
 38 84  1  0
 40 85  1  0
 40 86  1  0
 40 87  1  0
 41 88  1  0
 43 89  1  0
 44 90  1  0
M  END
$$$$
