
     RDKit          3D

 83 87  0  0  0  0  0  0  0  0999 V2000
   -1.8313    3.0761   -1.3236 C   0  0  0  0  0  0  0  0  0  0  0  0
   -2.9444    2.8799   -0.2861 C   0  0  0  0  0  0  0  0  0  0  0  0
   -4.0726    3.9129   -0.4692 C   0  0  0  0  0  0  0  0  0  0  0  0
   -3.4297    1.4725   -0.2900 N   0  0  0  0  0  0  0  0  0  0  0  0
   -4.3023    1.1294   -1.4411 C   0  0  0  0  0  0  0  0  0  0  0  0
   -4.1249   -0.3149   -1.8277 C   0  0  0  0  0  0  0  0  0  0  0  0
   -2.9915   -0.8480   -1.6823 O   0  0  0  0  0  0  0  0  0  0  0  0
   -5.1593   -1.0639   -2.4872 N   0  0  0  0  0  0  0  0  0  0  0  0
   -6.5929   -0.7774   -2.3921 C   0  0  0  0  0  0  0  0  0  0  0  0
   -7.1245   -1.0503   -0.9777 C   0  0  0  0  0  0  0  0  0  0  0  0
   -6.8869   -2.5077   -0.5392 C   0  0  0  0  0  0  0  0  0  0  0  0
   -6.9870   -2.7035    0.9837 C   0  0  0  0  0  0  0  0  0  0  0  0
   -5.9354   -1.9247    1.7965 C   0  0  0  0  0  0  0  0  0  0  0  0
   -4.7163   -1.7840    1.0679 O   0  0  0  0  0  0  0  0  0  0  0  0
   -3.5374   -1.3492    1.6753 C   0  0  0  0  0  0  0  0  0  0  0  0
   -2.7073   -2.2946    2.2872 C   0  0  0  0  0  0  0  0  0  0  0  0
   -1.5050   -1.9045    2.8783 C   0  0  0  0  0  0  0  0  0  0  0  0
   -1.1117   -0.5586    2.8616 C   0  0  0  0  0  0  0  0  0  0  0  0
    0.1872   -0.1299    3.5003 C   0  0  0  0  0  0  0  0  0  0  0  0
    1.2302    0.3270    2.4636 C   0  0  0  0  0  0  0  0  0  0  0  0
    1.8321   -0.7959    1.6480 C   0  0  0  0  0  0  0  0  0  0  0  0
    1.3603   -1.9609    1.7572 O   0  0  0  0  0  0  0  0  0  0  0  0
    2.9466   -0.5693    0.7532 N   0  0  0  0  0  0  0  0  0  0  0  0
    3.3979    0.7837    0.3792 C   0  0  0  0  0  0  0  0  0  0  0  0
    4.9278    0.9183    0.4992 C   0  0  0  0  0  0  0  0  0  0  0  0
    5.6870   -0.3984    0.1995 C   0  0  0  0  0  0  0  0  0  0  0  0
    7.0184   -0.1302   -0.4492 C   0  0  0  0  0  0  0  0  0  0  0  0
    8.2008   -0.4645    0.1351 N   0  0  0  0  0  0  0  0  0  0  0  0
    9.1056   -0.0689   -0.7778 C   0  0  0  0  0  0  0  0  0  0  0  0
   10.4927   -0.1744   -0.7050 C   0  0  0  0  0  0  0  0  0  0  0  0
   11.2429    0.3058   -1.7956 C   0  0  0  0  0  0  0  0  0  0  0  0
   10.5940    0.8716   -2.9178 C   0  0  0  0  0  0  0  0  0  0  0  0
    9.1893    0.9615   -2.9582 C   0  0  0  0  0  0  0  0  0  0  0  0
    8.4825    0.4763   -1.8604 C   0  0  0  0  0  0  0  0  0  0  0  0
    7.1582    0.4457   -1.6709 N   0  0  0  0  0  0  0  0  0  0  0  0
    4.8467   -1.3564   -0.6584 C   0  0  0  0  0  0  0  0  0  0  0  0
    3.5648   -1.7343    0.0954 C   0  0  0  0  0  0  0  0  0  0  0  0
   -1.9470    0.3930    2.2565 C   0  0  0  0  0  0  0  0  0  0  0  0
   -3.1603    0.0118    1.6594 C   0  0  0  0  0  0  0  0  0  0  0  0
   -4.0180    1.0697    1.0129 C   0  0  0  0  0  0  0  0  0  0  0  0
   -2.2203    3.0352   -2.3614 H   0  0  0  0  0  0  0  0  0  0  0  0
   -1.0565    2.2893   -1.1981 H   0  0  0  0  0  0  0  0  0  0  0  0
   -1.3490    4.0661   -1.1761 H   0  0  0  0  0  0  0  0  0  0  0  0
   -2.4632    3.0962    0.6945 H   0  0  0  0  0  0  0  0  0  0  0  0
   -4.8929    3.7245    0.2545 H   0  0  0  0  0  0  0  0  0  0  0  0
   -3.6779    4.9350   -0.2862 H   0  0  0  0  0  0  0  0  0  0  0  0
   -4.4883    3.8837   -1.4978 H   0  0  0  0  0  0  0  0  0  0  0  0
   -4.0316    1.7169   -2.3412 H   0  0  0  0  0  0  0  0  0  0  0  0
   -5.3612    1.3759   -1.2189 H   0  0  0  0  0  0  0  0  0  0  0  0
   -4.8754   -1.9246   -3.0084 H   0  0  0  0  0  0  0  0  0  0  0  0
   -6.7915    0.2754   -2.6845 H   0  0  0  0  0  0  0  0  0  0  0  0
   -7.1419   -1.4250   -3.1104 H   0  0  0  0  0  0  0  0  0  0  0  0
   -6.6471   -0.3447   -0.2766 H   0  0  0  0  0  0  0  0  0  0  0  0
   -8.2152   -0.8383   -0.9543 H   0  0  0  0  0  0  0  0  0  0  0  0
   -5.8936   -2.8747   -0.8737 H   0  0  0  0  0  0  0  0  0  0  0  0
   -7.6452   -3.1534   -1.0327 H   0  0  0  0  0  0  0  0  0  0  0  0
   -8.0045   -2.4206    1.3309 H   0  0  0  0  0  0  0  0  0  0  0  0
   -6.8580   -3.7874    1.1939 H   0  0  0  0  0  0  0  0  0  0  0  0
   -6.3309   -0.9190    2.0520 H   0  0  0  0  0  0  0  0  0  0  0  0
   -5.7455   -2.4636    2.7506 H   0  0  0  0  0  0  0  0  0  0  0  0
   -2.9949   -3.3382    2.2984 H   0  0  0  0  0  0  0  0  0  0  0  0
   -0.8794   -2.6545    3.3457 H   0  0  0  0  0  0  0  0  0  0  0  0
   -0.0257    0.7196    4.1852 H   0  0  0  0  0  0  0  0  0  0  0  0
    0.6132   -0.9428    4.1293 H   0  0  0  0  0  0  0  0  0  0  0  0
    0.7749    1.0736    1.7783 H   0  0  0  0  0  0  0  0  0  0  0  0
    2.0527    0.8273    3.0182 H   0  0  0  0  0  0  0  0  0  0  0  0
    3.0951    0.9756   -0.6730 H   0  0  0  0  0  0  0  0  0  0  0  0
    2.9279    1.5758    0.9929 H   0  0  0  0  0  0  0  0  0  0  0  0
    5.2512    1.7317   -0.1868 H   0  0  0  0  0  0  0  0  0  0  0  0
    5.1825    1.2473    1.5302 H   0  0  0  0  0  0  0  0  0  0  0  0
    5.8821   -0.9079    1.1712 H   0  0  0  0  0  0  0  0  0  0  0  0
   10.9778   -0.6106    0.1585 H   0  0  0  0  0  0  0  0  0  0  0  0
   12.3230    0.2407   -1.7748 H   0  0  0  0  0  0  0  0  0  0  0  0
   11.1803    1.2363   -3.7510 H   0  0  0  0  0  0  0  0  0  0  0  0
    8.6792    1.3907   -3.8112 H   0  0  0  0  0  0  0  0  0  0  0  0
    6.4098    0.7828   -2.3174 H   0  0  0  0  0  0  0  0  0  0  0  0
    4.5820   -0.8738   -1.6255 H   0  0  0  0  0  0  0  0  0  0  0  0
    5.4248   -2.2804   -0.8815 H   0  0  0  0  0  0  0  0  0  0  0  0
    2.8407   -2.1941   -0.6110 H   0  0  0  0  0  0  0  0  0  0  0  0
    3.8269   -2.4907    0.8674 H   0  0  0  0  0  0  0  0  0  0  0  0
   -1.6519    1.4350    2.2560 H   0  0  0  0  0  0  0  0  0  0  0  0
   -5.0585    0.7118    0.9086 H   0  0  0  0  0  0  0  0  0  0  0  0
   -4.1039    1.9268    1.7180 H   0  0  0  0  0  0  0  0  0  0  0  0
  1  2  1  0
  2  3  1  0
  2  4  1  0
  4  5  1  0
  5  6  1  0
  6  7  2  0
  6  8  1  0
  8  9  1  0
  9 10  1  0
 10 11  1  0
 11 12  1  0
 12 13  1  0
 13 14  1  0
 14 15  1  0
 15 16  2  0
 16 17  1  0
 17 18  2  0
 18 19  1  0
 19 20  1  0
 20 21  1  0
 21 22  2  0
 21 23  1  0
 23 24  1  0
 24 25  1  0
 25 26  1  0
 26 27  1  0
 27 28  2  0
 28 29  1  0
 29 30  2  0
 30 31  1  0
 31 32  2  0
 32 33  1  0
 33 34  2  0
 34 35  1  0
 26 36  1  0
 36 37  1  0
 18 38  1  0
 38 39  2  0
 39 40  1  0
 40  4  1  0
 39 15  1  0
 37 23  1  0
 35 27  1  0
 34 29  1  0
  1 41  1  0
  1 42  1  0
  1 43  1  0
  2 44  1  0
  3 45  1  0
  3 46  1  0
  3 47  1  0
  5 48  1  0
  5 49  1  0
  8 50  1  0
  9 51  1  0
  9 52  1  0
 10 53  1  0
 10 54  1  0
 11 55  1  0
 11 56  1  0
 12 57  1  0
 12 58  1  0
 13 59  1  0
 13 60  1  0
 16 61  1  0
 17 62  1  0
 19 63  1  0
 19 64  1  0
 20 65  1  0
 20 66  1  0
 24 67  1  0
 24 68  1  0
 25 69  1  0
 25 70  1  0
 26 71  1  0
 30 72  1  0
 31 73  1  0
 32 74  1  0
 33 75  1  0
 35 76  1  0
 36 77  1  0
 36 78  1  0
 37 79  1  0
 37 80  1  0
 38 81  1  0
 40 82  1  0
 40 83  1  0
M  END
$$$$
