
     RDKit          3D

 92 98  0  0  0  0  0  0  0  0999 V2000
    8.0370   -2.1469    5.4627 C   0  0  0  0  0  0  0  0  0  0  0  0
    8.1052   -1.2865    4.3307 O   0  0  0  0  0  0  0  0  0  0  0  0
    7.0052   -0.9253    3.5320 C   0  0  0  0  0  0  0  0  0  0  0  0
    5.7111   -1.4142    3.7936 C   0  0  0  0  0  0  0  0  0  0  0  0
    4.6351   -1.0600    2.9783 C   0  0  0  0  0  0  0  0  0  0  0  0
    4.8365   -0.2209    1.8751 C   0  0  0  0  0  0  0  0  0  0  0  0
    3.7863    0.1427    1.0204 C   0  0  0  0  0  0  0  0  0  0  0  0
    2.4877   -0.3262    1.2551 O   0  0  0  0  0  0  0  0  0  0  0  0
    1.3597    0.0671    0.4733 C   0  0  2  0  0  0  0  0  0  0  0  0
    0.0793   -0.5350    1.0457 C   0  0  0  0  0  0  0  0  0  0  0  0
   -0.8229   -0.7918   -0.1644 C   0  0  1  0  0  0  0  0  0  0  0  0
   -1.7826    0.3551   -0.3896 C   0  0  0  0  0  0  0  0  0  0  0  0
   -1.8749    0.9027   -1.5221 O   0  0  0  0  0  0  0  0  0  0  0  0
   -2.6243    0.8042    0.6757 N   0  0  0  0  0  0  0  0  0  0  0  0
   -4.0075    0.3548    0.7706 C   0  0  2  0  0  0  0  0  0  0  0  0
   -5.0138    1.0229   -0.1295 C   0  0  0  0  0  0  0  0  0  0  0  0
   -5.0348    0.7284   -1.3568 O   0  0  0  0  0  0  0  0  0  0  0  0
   -5.8993    2.0239    0.3847 N   0  0  0  0  0  0  0  0  0  0  0  0
   -7.1251    2.7599   -0.5949 S   0  0  0  0  0  6  0  0  0  0  0  0
   -6.5134    3.8672   -1.4082 O   0  0  0  0  0  0  0  0  0  0  0  0
   -7.7280    1.7347   -1.5157 O   0  0  0  0  0  0  0  0  0  0  0  0
   -8.4182    3.3743    0.4822 C   0  0  0  0  0  0  0  0  0  0  0  0
   -8.0632    4.6559    1.2135 C   0  0  0  0  0  0  0  0  0  0  0  0
   -9.0586    4.6874    0.0632 C   0  0  0  0  0  0  0  0  0  0  0  0
   -4.4500    0.0018    2.1859 C   0  0  0  0  0  0  0  0  0  0  0  0
   -4.1856   -1.1085    1.1714 C   0  0  1  0  0  0  0  0  0  0  0  0
   -5.4321   -1.7960    0.6770 C   0  0  0  0  0  0  0  0  0  0  0  0
   -5.4665   -2.5148   -0.4562 C   0  0  0  0  0  0  0  0  0  0  0  0
   -4.2753   -2.7468   -1.3551 C   0  0  0  0  0  0  0  0  0  0  0  0
   -3.4006   -3.8976   -0.8378 C   0  0  0  0  0  0  0  0  0  0  0  0
   -2.4594   -4.4720   -1.9116 C   0  0  0  0  0  0  0  0  0  0  0  0
   -1.1465   -3.6893   -2.1204 C   0  0  0  0  0  0  0  0  0  0  0  0
   -1.3087   -2.3767   -2.7689 N   0  0  0  0  0  0  0  0  0  0  0  0
   -2.0343   -2.2941   -4.0436 C   0  0  0  0  0  0  0  0  0  0  0  0
   -0.2335   -1.4353   -2.5836 C   0  0  0  0  0  0  0  0  0  0  0  0
    0.4488   -1.0653   -3.5818 O   0  0  0  0  0  0  0  0  0  0  0  0
    0.1050   -0.9308   -1.2814 N   0  0  0  0  0  0  0  0  0  0  0  0
    1.4416   -0.4592   -0.9595 C   0  0  0  0  0  0  0  0  0  0  0  0
    4.0414    0.9488   -0.0447 N   0  0  0  0  0  0  0  0  0  0  0  0
    5.2902    1.4127   -0.3119 C   0  0  0  0  0  0  0  0  0  0  0  0
    5.5332    2.2662   -1.5003 C   0  0  0  0  0  0  0  0  0  0  0  0
    4.4988    2.5278   -2.4212 C   0  0  0  0  0  0  0  0  0  0  0  0
    4.7360    3.3208   -3.5484 C   0  0  0  0  0  0  0  0  0  0  0  0
    6.0025    3.8665   -3.7679 C   0  0  0  0  0  0  0  0  0  0  0  0
    7.0369    3.6149   -2.8630 C   0  0  0  0  0  0  0  0  0  0  0  0
    6.8068    2.8205   -1.7357 C   0  0  0  0  0  0  0  0  0  0  0  0
    6.3158    1.0753    0.5135 N   0  0  0  0  0  0  0  0  0  0  0  0
    6.1271    0.2788    1.6002 C   0  0  0  0  0  0  0  0  0  0  0  0
    7.2106   -0.0531    2.4420 C   0  0  0  0  0  0  0  0  0  0  0  0
    8.6005    0.4524    2.1391 C   0  0  0  0  0  0  0  0  0  0  0  0
    7.6813   -3.1532    5.1558 H   0  0  0  0  0  0  0  0  0  0  0  0
    7.3552   -1.7171    6.2251 H   0  0  0  0  0  0  0  0  0  0  0  0
    9.0496   -2.2431    5.9039 H   0  0  0  0  0  0  0  0  0  0  0  0
    5.5267   -2.0781    4.6260 H   0  0  0  0  0  0  0  0  0  0  0  0
    3.6527   -1.4557    3.2067 H   0  0  0  0  0  0  0  0  0  0  0  0
    1.2694    1.1775    0.4668 H   0  0  0  0  0  0  0  0  0  0  0  0
   -0.3722    0.1274    1.8141 H   0  0  0  0  0  0  0  0  0  0  0  0
    0.3119   -1.5091    1.5289 H   0  0  0  0  0  0  0  0  0  0  0  0
   -1.3952   -1.7249   -0.0103 H   0  0  0  0  0  0  0  0  0  0  0  0
   -2.3248    1.6352    1.2318 H   0  0  0  0  0  0  0  0  0  0  0  0
   -5.8148    2.3304    1.3798 H   0  0  0  0  0  0  0  0  0  0  0  0
   -9.0579    2.6681    1.0529 H   0  0  0  0  0  0  0  0  0  0  0  0
   -7.0770    5.1074    0.9646 H   0  0  0  0  0  0  0  0  0  0  0  0
   -8.5324    4.7556    2.2156 H   0  0  0  0  0  0  0  0  0  0  0  0
   -8.6659    5.1752   -0.8525 H   0  0  0  0  0  0  0  0  0  0  0  0
  -10.1106    4.8141    0.3916 H   0  0  0  0  0  0  0  0  0  0  0  0
   -3.6589    0.0999    2.9598 H   0  0  0  0  0  0  0  0  0  0  0  0
   -5.5199    0.1817    2.4243 H   0  0  0  0  0  0  0  0  0  0  0  0
   -3.2880   -1.7063    1.4193 H   0  0  0  0  0  0  0  0  0  0  0  0
   -6.3528   -1.6969    1.2450 H   0  0  0  0  0  0  0  0  0  0  0  0
   -6.4174   -2.9480   -0.7555 H   0  0  0  0  0  0  0  0  0  0  0  0
   -4.6807   -3.0193   -2.3508 H   0  0  0  0  0  0  0  0  0  0  0  0
   -3.6787   -1.8166   -1.4686 H   0  0  0  0  0  0  0  0  0  0  0  0
   -4.0695   -4.7255   -0.5066 H   0  0  0  0  0  0  0  0  0  0  0  0
   -2.8185   -3.5808    0.0512 H   0  0  0  0  0  0  0  0  0  0  0  0
   -2.1656   -5.4852   -1.5655 H   0  0  0  0  0  0  0  0  0  0  0  0
   -2.9917   -4.6373   -2.8698 H   0  0  0  0  0  0  0  0  0  0  0  0
   -0.6333   -3.5836   -1.1419 H   0  0  0  0  0  0  0  0  0  0  0  0
   -0.4745   -4.3086   -2.7545 H   0  0  0  0  0  0  0  0  0  0  0  0
   -2.1219   -1.2362   -4.3707 H   0  0  0  0  0  0  0  0  0  0  0  0
   -3.0642   -2.6855   -3.9491 H   0  0  0  0  0  0  0  0  0  0  0  0
   -1.4940   -2.8734   -4.8241 H   0  0  0  0  0  0  0  0  0  0  0  0
    1.7420    0.3544   -1.6536 H   0  0  0  0  0  0  0  0  0  0  0  0
    2.1575   -1.3045   -1.0349 H   0  0  0  0  0  0  0  0  0  0  0  0
    3.5063    2.1181   -2.2774 H   0  0  0  0  0  0  0  0  0  0  0  0
    3.9363    3.5114   -4.2519 H   0  0  0  0  0  0  0  0  0  0  0  0
    6.1827    4.4853   -4.6377 H   0  0  0  0  0  0  0  0  0  0  0  0
    8.0194    4.0365   -3.0344 H   0  0  0  0  0  0  0  0  0  0  0  0
    7.6265    2.6419   -1.0508 H   0  0  0  0  0  0  0  0  0  0  0  0
    8.5734    1.4372    1.6264 H   0  0  0  0  0  0  0  0  0  0  0  0
    9.1209   -0.2816    1.4885 H   0  0  0  0  0  0  0  0  0  0  0  0
    9.1895    0.5912    3.0708 H   0  0  0  0  0  0  0  0  0  0  0  0
  1  2  1  0
  2  3  1  0
  3  4  2  0
  4  5  1  0
  5  6  2  0
  6  7  1  0
  7  8  1  0
  8  9  1  0
  9 10  1  0
 10 11  1  0
 11 12  1  0
 12 13  2  0
 12 14  1  0
 14 15  1  0
 15 16  1  6
 16 17  2  0
 16 18  1  0
 18 19  1  0
 19 20  2  0
 19 21  2  0
 19 22  1  0
 22 23  1  0
 23 24  1  0
 15 25  1  0
 25 26  1  0
 26 27  1  0
 27 28  2  0
 28 29  1  0
 29 30  1  0
 30 31  1  0
 31 32  1  0
 32 33  1  0
 33 34  1  0
 33 35  1  0
 35 36  2  0
 35 37  1  0
 37 38  1  0
  7 39  2  0
 39 40  1  0
 40 41  1  0
 41 42  2  0
 42 43  1  0
 43 44  2  0
 44 45  1  0
 45 46  2  0
 40 47  2  0
 47 48  1  0
 48 49  2  0
 49 50  1  0
 49  3  1  0
 48  6  1  0
 38  9  1  0
 46 41  1  0
 37 11  1  0
 26 15  1  0
 24 22  1  0
  1 51  1  0
  1 52  1  0
  1 53  1  0
  4 54  1  0
  5 55  1  0
  9 56  1  6
 10 57  1  0
 10 58  1  0
 11 59  1  1
 14 60  1  0
 18 61  1  0
 22 62  1  0
 23 63  1  0
 23 64  1  0
 24 65  1  0
 24 66  1  0
 25 67  1  0
 25 68  1  0
 26 69  1  1
 27 70  1  0
 28 71  1  0
 29 72  1  0
 29 73  1  0
 30 74  1  0
 30 75  1  0
 31 76  1  0
 31 77  1  0
 32 78  1  0
 32 79  1  0
 34 80  1  0
 34 81  1  0
 34 82  1  0
 38 83  1  0
 38 84  1  0
 42 85  1  0
 43 86  1  0
 44 87  1  0
 45 88  1  0
 46 89  1  0
 50 90  1  0
 50 91  1  0
 50 92  1  0
M  END
$$$$
