
     RDKit          3D

140145  0  0  0  0  0  0  0  0999 V2000
   -7.8044   -2.0214    4.3972 C   0  0  0  0  0  0  0  0  0  0  0  0
   -8.5089   -1.7130    3.0648 C   0  0  0  0  0  0  0  0  0  0  0  0
   -9.3460   -2.9206    2.5938 C   0  0  0  0  0  0  0  0  0  0  0  0
   -7.5334   -1.1468    1.9907 C   0  0  2  0  0  0  0  0  0  0  0  0
   -8.2847   -0.8807    0.7530 N   0  0  0  0  0  0  0  0  0  0  0  0
   -8.6578    0.3998    0.1948 C   0  0  0  0  0  0  0  0  0  0  0  0
   -9.1035    0.4300   -0.9864 O   0  0  0  0  0  0  0  0  0  0  0  0
   -8.5250    1.7231    0.9334 C   0  0  0  0  0  0  0  0  0  0  0  0
   -9.8634    2.4934    1.0985 C   0  0  2  0  0  0  0  0  0  0  0  0
  -11.1453    1.6388    1.0744 C   0  0  0  0  0  0  0  0  0  0  0  0
   -9.8438    3.5633   -0.0028 C   0  0  0  0  0  0  0  0  0  0  0  0
   -8.3663    3.8250   -0.2845 C   0  0  0  0  0  0  0  0  0  0  0  0
   -7.6631    2.6389    0.1696 N   0  0  0  0  0  0  0  0  0  0  0  0
   -6.2273    2.5032    0.0663 C   0  0  0  0  0  0  0  0  0  0  0  0
   -5.5178    3.4919   -0.2919 O   0  0  0  0  0  0  0  0  0  0  0  0
   -5.5909    1.2042    0.4416 C   0  0  0  0  0  0  0  0  0  0  0  0
   -4.1898    1.0828    0.0587 N   0  0  0  0  0  0  0  0  0  0  0  0
   -3.5560   -0.1842   -0.2657 C   0  0  0  0  0  0  0  0  0  0  0  0
   -2.4580   -0.2408   -0.9853 N   0  0  0  0  0  0  0  0  0  0  0  0
   -1.7528    0.6012   -1.9748 C   0  0  2  0  0  0  0  0  0  0  0  0
   -0.3861   -0.0320   -2.2092 C   0  0  0  0  0  0  0  0  0  0  0  0
   -0.2348   -0.7972   -3.2026 O   0  0  0  0  0  0  0  0  0  0  0  0
    0.7119    0.1775   -1.2933 N   0  0  0  0  0  0  0  0  0  0  0  0
    1.9779   -0.5838   -1.3517 C   0  0  0  0  0  0  0  0  0  0  0  0
    2.4612   -0.9460    0.0464 C   0  0  0  0  0  0  0  0  0  0  0  0
    1.7595   -0.6443    1.0477 O   0  0  0  0  0  0  0  0  0  0  0  0
    3.6798   -1.6909    0.2340 N   0  0  0  0  0  0  0  0  0  0  0  0
    4.1737   -2.0333    1.5774 C   0  0  2  0  0  0  0  0  0  0  0  0
    4.6688   -0.7885    2.3528 C   0  0  0  0  0  0  0  0  0  0  0  0
    5.8922   -0.1284    1.7730 C   0  0  0  0  0  0  0  0  0  0  0  0
    6.1300   -0.2068    0.5392 O   0  0  0  0  0  0  0  0  0  0  0  0
    6.7486    0.6488    2.6186 N   0  0  0  0  0  0  0  0  0  0  0  0
    7.8963    1.3823    2.0949 C   0  0  0  0  0  0  0  0  0  0  0  0
    8.9909    0.4309    1.7201 C   0  0  0  0  0  0  0  0  0  0  0  0
    9.4651    0.1698    0.4553 C   0  0  0  0  0  0  0  0  0  0  0  0
   10.4560   -0.7251    0.6036 N   0  0  0  0  0  0  0  0  0  0  0  0
   11.3158   -1.2569   -0.4475 C   0  0  0  0  0  0  0  0  0  0  0  0
   12.4399   -0.2942   -0.7236 C   0  0  0  0  0  0  0  0  0  0  0  0
   12.3259    0.6512   -1.7583 C   0  0  0  0  0  0  0  0  0  0  0  0
   13.3589    1.5679   -1.9937 C   0  0  0  0  0  0  0  0  0  0  0  0
   14.5042    1.5571   -1.1886 C   0  0  0  0  0  0  0  0  0  0  0  0
   14.6167    0.6317   -0.1465 C   0  0  0  0  0  0  0  0  0  0  0  0
   13.5872   -0.2874    0.0913 C   0  0  0  0  0  0  0  0  0  0  0  0
   10.5810   -1.0056    1.8911 N   0  0  0  0  0  0  0  0  0  0  0  0
    9.6921   -0.3168    2.5986 N   0  0  0  0  0  0  0  0  0  0  0  0
    5.2466   -3.0887    1.5094 C   0  0  0  0  0  0  0  0  0  0  0  0
    6.2816   -3.0787    0.6359 N   0  0  0  0  0  0  0  0  0  0  0  0
    7.1616   -4.0922    0.8597 C   0  0  0  0  0  0  0  0  0  0  0  0
    6.8547   -4.9107    1.9393 C   0  0  0  0  0  0  0  0  0  0  0  0
    5.4191   -4.3452    2.6253 S   0  0  0  0  0  0  0  0  0  0  0  0
    3.0907    0.1299   -2.1936 C   0  0  1  0  0  0  0  0  0  0  0  0
    2.6273    0.5641   -3.5922 C   0  0  0  0  0  0  0  0  0  0  0  0
    3.8398    1.2677   -1.5065 C   0  0  0  0  0  0  0  0  0  0  0  0
    3.1877    2.2364   -0.7093 C   0  0  0  0  0  0  0  0  0  0  0  0
    3.9168    3.2525   -0.0907 C   0  0  0  0  0  0  0  0  0  0  0  0
    5.2908    3.3668   -0.3125 C   0  0  0  0  0  0  0  0  0  0  0  0
    5.9365    2.4709   -1.1653 C   0  0  0  0  0  0  0  0  0  0  0  0
    5.2171    1.4278   -1.7561 C   0  0  0  0  0  0  0  0  0  0  0  0
   -1.7334    2.1770   -1.8021 C   0  0  0  0  0  0  0  0  0  0  0  0
   -3.0966    2.7696   -2.2667 C   0  0  0  0  0  0  0  0  0  0  0  0
   -0.7050    2.8117   -2.7756 C   0  0  0  0  0  0  0  0  0  0  0  0
   -1.3484    2.6324   -0.3674 C   0  0  0  0  0  0  0  0  0  0  0  0
   -4.1570   -1.5486    0.1708 C   0  0  2  0  0  0  0  0  0  0  0  0
   -4.7377   -2.3820   -1.0693 C   0  0  0  0  0  0  0  0  0  0  0  0
   -5.2877   -3.7739   -0.6372 C   0  0  0  0  0  0  0  0  0  0  0  0
   -3.6114   -2.6642   -2.1074 C   0  0  0  0  0  0  0  0  0  0  0  0
   -5.8509   -1.6176   -1.8151 C   0  0  0  0  0  0  0  0  0  0  0  0
   -5.0404   -1.3676    1.3531 N   0  0  0  0  0  0  0  0  0  0  0  0
   -6.2937   -1.9969    1.7009 C   0  0  0  0  0  0  0  0  0  0  0  0
   -6.3164   -3.2331    1.9410 O   0  0  0  0  0  0  0  0  0  0  0  0
   -7.2372   -1.1366    4.7649 H   0  0  0  0  0  0  0  0  0  0  0  0
   -7.1109   -2.8899    4.3271 H   0  0  0  0  0  0  0  0  0  0  0  0
   -8.5616   -2.2768    5.1703 H   0  0  0  0  0  0  0  0  0  0  0  0
   -9.2439   -0.9092    3.2857 H   0  0  0  0  0  0  0  0  0  0  0  0
   -9.9754   -2.6408    1.7317 H   0  0  0  0  0  0  0  0  0  0  0  0
   -8.7036   -3.7822    2.3047 H   0  0  0  0  0  0  0  0  0  0  0  0
  -10.0262   -3.2448    3.4102 H   0  0  0  0  0  0  0  0  0  0  0  0
   -7.1517   -0.2116    2.4176 H   0  0  0  0  0  0  0  0  0  0  0  0
   -8.5599   -1.7118    0.1866 H   0  0  0  0  0  0  0  0  0  0  0  0
   -8.0950    1.5919    1.9442 H   0  0  0  0  0  0  0  0  0  0  0  0
   -9.8310    3.0251    2.0792 H   0  0  0  0  0  0  0  0  0  0  0  0
  -12.0055    2.2474    1.4103 H   0  0  0  0  0  0  0  0  0  0  0  0
  -11.3648    1.2743    0.0524 H   0  0  0  0  0  0  0  0  0  0  0  0
  -11.0462    0.7755    1.7539 H   0  0  0  0  0  0  0  0  0  0  0  0
  -10.3150    3.1711   -0.9244 H   0  0  0  0  0  0  0  0  0  0  0  0
  -10.3693    4.4939    0.3226 H   0  0  0  0  0  0  0  0  0  0  0  0
   -8.2108    3.9748   -1.3722 H   0  0  0  0  0  0  0  0  0  0  0  0
   -8.0098    4.7078    0.2898 H   0  0  0  0  0  0  0  0  0  0  0  0
   -6.1584    0.4114   -0.0611 H   0  0  0  0  0  0  0  0  0  0  0  0
   -5.6564    1.1263    1.5498 H   0  0  0  0  0  0  0  0  0  0  0  0
   -3.5913    1.8460    0.4423 H   0  0  0  0  0  0  0  0  0  0  0  0
   -2.2970    0.4289   -2.9224 H   0  0  0  0  0  0  0  0  0  0  0  0
    0.5164    0.7484   -0.4470 H   0  0  0  0  0  0  0  0  0  0  0  0
    1.7623   -1.5526   -1.8403 H   0  0  0  0  0  0  0  0  0  0  0  0
    4.1884   -2.0534   -0.6074 H   0  0  0  0  0  0  0  0  0  0  0  0
    3.3210   -2.4747    2.1498 H   0  0  0  0  0  0  0  0  0  0  0  0
    3.8537   -0.0387    2.4079 H   0  0  0  0  0  0  0  0  0  0  0  0
    4.9006   -1.0939    3.3965 H   0  0  0  0  0  0  0  0  0  0  0  0
    6.5063    0.7443    3.6350 H   0  0  0  0  0  0  0  0  0  0  0  0
    7.5964    1.9961    1.2171 H   0  0  0  0  0  0  0  0  0  0  0  0
    8.2783    2.0756    2.8797 H   0  0  0  0  0  0  0  0  0  0  0  0
    9.1457    0.6124   -0.4761 H   0  0  0  0  0  0  0  0  0  0  0  0
   11.7287   -2.2376   -0.1239 H   0  0  0  0  0  0  0  0  0  0  0  0
   10.7152   -1.4386   -1.3639 H   0  0  0  0  0  0  0  0  0  0  0  0
   11.4405    0.6876   -2.3805 H   0  0  0  0  0  0  0  0  0  0  0  0
   13.2752    2.2891   -2.8012 H   0  0  0  0  0  0  0  0  0  0  0  0
   15.3070    2.2625   -1.3741 H   0  0  0  0  0  0  0  0  0  0  0  0
   15.5017    0.6239    0.4775 H   0  0  0  0  0  0  0  0  0  0  0  0
   13.6816   -0.9859    0.9102 H   0  0  0  0  0  0  0  0  0  0  0  0
    8.0599   -4.2163    0.2621 H   0  0  0  0  0  0  0  0  0  0  0  0
    7.4452   -5.7486    2.2814 H   0  0  0  0  0  0  0  0  0  0  0  0
    3.8373   -0.6749   -2.3857 H   0  0  0  0  0  0  0  0  0  0  0  0
    2.1285   -0.2749   -4.1151 H   0  0  0  0  0  0  0  0  0  0  0  0
    3.5043    0.8715   -4.2017 H   0  0  0  0  0  0  0  0  0  0  0  0
    1.9320    1.4209   -3.5356 H   0  0  0  0  0  0  0  0  0  0  0  0
    2.1236    2.2311   -0.5663 H   0  0  0  0  0  0  0  0  0  0  0  0
    3.4140    3.9806    0.5342 H   0  0  0  0  0  0  0  0  0  0  0  0
    5.8592    4.1609    0.1535 H   0  0  0  0  0  0  0  0  0  0  0  0
    6.9908    2.5949   -1.3726 H   0  0  0  0  0  0  0  0  0  0  0  0
    5.7435    0.7306   -2.4043 H   0  0  0  0  0  0  0  0  0  0  0  0
   -3.2420    3.8069   -1.8769 H   0  0  0  0  0  0  0  0  0  0  0  0
   -3.1480    2.8271   -3.3803 H   0  0  0  0  0  0  0  0  0  0  0  0
   -3.9684    2.1466   -2.0041 H   0  0  0  0  0  0  0  0  0  0  0  0
   -0.7504    3.9251   -2.7232 H   0  0  0  0  0  0  0  0  0  0  0  0
   -0.9113    2.5054   -3.8223 H   0  0  0  0  0  0  0  0  0  0  0  0
    0.3295    2.5265   -2.5104 H   0  0  0  0  0  0  0  0  0  0  0  0
   -1.3836    1.7873    0.3660 H   0  0  0  0  0  0  0  0  0  0  0  0
   -2.0118    3.4456   -0.0023 H   0  0  0  0  0  0  0  0  0  0  0  0
   -0.3111    3.0417   -0.3122 H   0  0  0  0  0  0  0  0  0  0  0  0
   -3.2962   -2.1448    0.5543 H   0  0  0  0  0  0  0  0  0  0  0  0
   -5.2798   -4.5134   -1.4700 H   0  0  0  0  0  0  0  0  0  0  0  0
   -6.3617   -3.7245   -0.3439 H   0  0  0  0  0  0  0  0  0  0  0  0
   -4.6763   -4.2012    0.1868 H   0  0  0  0  0  0  0  0  0  0  0  0
   -3.9334   -3.3992   -2.8763 H   0  0  0  0  0  0  0  0  0  0  0  0
   -2.7016   -3.0645   -1.6110 H   0  0  0  0  0  0  0  0  0  0  0  0
   -3.3537   -1.7543   -2.6877 H   0  0  0  0  0  0  0  0  0  0  0  0
   -6.7489   -1.5123   -1.1858 H   0  0  0  0  0  0  0  0  0  0  0  0
   -5.5025   -0.6019   -2.1217 H   0  0  0  0  0  0  0  0  0  0  0  0
   -6.1457   -2.1598   -2.7409 H   0  0  0  0  0  0  0  0  0  0  0  0
   -4.6062   -0.8453    2.1465 H   0  0  0  0  0  0  0  0  0  0  0  0
  1  2  1  0
  2  3  1  0
  2  4  1  0
  4  5  1  0
  5  6  1  0
  6  7  2  0
  6  8  1  0
  8  9  1  0
  9 10  1  0
  9 11  1  0
 11 12  1  0
 12 13  1  0
 13 14  1  0
 14 15  2  0
 14 16  1  0
 16 17  1  0
 17 18  1  0
 18 19  2  0
 19 20  1  0
 20 21  1  0
 21 22  2  0
 21 23  1  0
 23 24  1  0
 24 25  1  0
 25 26  2  0
 25 27  1  0
 27 28  1  0
 28 29  1  0
 29 30  1  0
 30 31  2  0
 30 32  1  0
 32 33  1  0
 33 34  1  0
 34 35  2  0
 35 36  1  0
 36 37  1  0
 37 38  1  0
 38 39  2  0
 39 40  1  0
 40 41  2  0
 41 42  1  0
 42 43  2  0
 36 44  1  0
 44 45  2  0
 28 46  1  0
 46 47  2  0
 47 48  1  0
 48 49  2  0
 49 50  1  0
 24 51  1  0
 51 52  1  0
 51 53  1  0
 53 54  2  0
 54 55  1  0
 55 56  2  0
 56 57  1  0
 57 58  2  0
 20 59  1  0
 59 60  1  0
 59 61  1  0
 59 62  1  0
 18 63  1  0
 63 64  1  0
 64 65  1  0
 64 66  1  0
 64 67  1  0
 63 68  1  0
 68 69  1  0
 69 70  2  0
 69  4  1  0
 13  8  1  0
 45 34  1  0
 50 46  1  0
 58 53  1  0
 43 38  1  0
  1 71  1  0
  1 72  1  0
  1 73  1  0
  2 74  1  0
  3 75  1  0
  3 76  1  0
  3 77  1  0
  4 78  1  1
  5 79  1  0
  8 80  1  0
  9 81  1  1
 10 82  1  0
 10 83  1  0
 10 84  1  0
 11 85  1  0
 11 86  1  0
 12 87  1  0
 12 88  1  0
 16 89  1  0
 16 90  1  0
 17 91  1  0
 20 92  1  6
 23 93  1  0
 24 94  1  0
 27 95  1  0
 28 96  1  1
 29 97  1  0
 29 98  1  0
 32 99  1  0
 33100  1  0
 33101  1  0
 35102  1  0
 37103  1  0
 37104  1  0
 39105  1  0
 40106  1  0
 41107  1  0
 42108  1  0
 43109  1  0
 48110  1  0
 49111  1  0
 51112  1  6
 52113  1  0
 52114  1  0
 52115  1  0
 54116  1  0
 55117  1  0
 56118  1  0
 57119  1  0
 58120  1  0
 60121  1  0
 60122  1  0
 60123  1  0
 61124  1  0
 61125  1  0
 61126  1  0
 62127  1  0
 62128  1  0
 62129  1  0
 63130  1  1
 65131  1  0
 65132  1  0
 65133  1  0
 66134  1  0
 66135  1  0
 66136  1  0
 67137  1  0
 67138  1  0
 67139  1  0
 68140  1  0
M  END
$$$$
