
     RDKit          3D

 63 66  0  0  0  0  0  0  0  0999 V2000
    6.0113   -0.1613    2.2821 C   0  0  0  0  0  0  0  0  0  0  0  0
    6.0639   -0.8977    0.9715 C   0  0  0  0  0  0  0  0  0  0  0  0
    7.2736   -1.4616    0.5396 C   0  0  0  0  0  0  0  0  0  0  0  0
    7.3211   -2.1446   -0.6757 C   0  0  0  0  0  0  0  0  0  0  0  0
    6.2007   -2.2683   -1.4316 N   0  0  0  0  0  0  0  0  0  0  0  0
    5.0135   -1.7351   -1.0435 C   0  0  0  0  0  0  0  0  0  0  0  0
    4.9113   -1.0389    0.1697 C   0  0  0  0  0  0  0  0  0  0  0  0
    3.6435   -0.5245    0.6086 N   0  0  0  0  0  0  0  0  0  0  0  0
    2.7486    0.1983   -0.2500 C   0  0  0  0  0  0  0  0  0  0  0  0
    3.1363    0.5832   -1.3855 O   0  0  0  0  0  0  0  0  0  0  0  0
    1.3907    0.5996    0.2730 C   0  0  0  0  0  0  0  0  0  0  0  0
    0.3425    0.7212   -0.7695 N   0  0  0  0  0  0  0  0  0  0  0  0
    0.3861    2.0045   -1.5080 C   0  0  0  0  0  0  0  0  0  0  0  0
   -0.5317    3.0304   -0.8172 C   0  0  0  0  0  0  0  0  0  0  0  0
   -2.0240    2.6920   -1.0251 C   0  0  0  0  0  0  0  0  0  0  0  0
   -2.9559    3.0516    0.1526 C   0  0  0  0  0  0  0  0  0  0  0  0
   -2.5921    2.4604    1.5352 C   0  0  0  0  0  0  0  0  0  0  0  0
   -2.2914    0.9527    1.5626 C   0  0  0  0  0  0  0  0  0  0  0  0
   -3.4788    0.1612    1.6431 O   0  0  0  0  0  0  0  0  0  0  0  0
   -4.3907   -0.0659    0.6024 C   0  0  0  0  0  0  0  0  0  0  0  0
   -5.7521    0.0725    0.9041 C   0  0  0  0  0  0  0  0  0  0  0  0
   -6.7230   -0.1002   -0.0822 C   0  0  0  0  0  0  0  0  0  0  0  0
   -6.3438   -0.4146   -1.3861 C   0  0  0  0  0  0  0  0  0  0  0  0
   -4.9932   -0.5821   -1.6986 C   0  0  0  0  0  0  0  0  0  0  0  0
   -4.0095   -0.4473   -0.7099 C   0  0  0  0  0  0  0  0  0  0  0  0
   -2.6812   -0.6765   -1.0806 O   0  0  0  0  0  0  0  0  0  0  0  0
   -1.8394   -1.6275   -0.4975 C   0  0  0  0  0  0  0  0  0  0  0  0
   -2.3423   -2.5842    0.3313 N   0  0  0  0  0  0  0  0  0  0  0  0
   -1.5518   -3.5368    0.8913 C   0  0  0  0  0  0  0  0  0  0  0  0
   -0.1871   -3.5629    0.6120 C   0  0  0  0  0  0  0  0  0  0  0  0
    0.3602   -2.5887   -0.2233 C   0  0  0  0  0  0  0  0  0  0  0  0
   -0.4613   -1.6034   -0.7882 C   0  0  0  0  0  0  0  0  0  0  0  0
    0.1473   -0.4854   -1.6072 C   0  0  0  0  0  0  0  0  0  0  0  0
    7.0306    0.0655    2.6564 H   0  0  0  0  0  0  0  0  0  0  0  0
    5.4836   -0.7819    3.0382 H   0  0  0  0  0  0  0  0  0  0  0  0
    5.4744    0.8029    2.1552 H   0  0  0  0  0  0  0  0  0  0  0  0
    8.1732   -1.3723    1.1355 H   0  0  0  0  0  0  0  0  0  0  0  0
    8.2485   -2.5866   -1.0161 H   0  0  0  0  0  0  0  0  0  0  0  0
    4.1406   -1.8836   -1.6670 H   0  0  0  0  0  0  0  0  0  0  0  0
    3.3885   -0.6149    1.6173 H   0  0  0  0  0  0  0  0  0  0  0  0
    1.0590   -0.1441    1.0276 H   0  0  0  0  0  0  0  0  0  0  0  0
    1.4974    1.5573    0.8266 H   0  0  0  0  0  0  0  0  0  0  0  0
    0.0659    1.8889   -2.5674 H   0  0  0  0  0  0  0  0  0  0  0  0
    1.4159    2.4199   -1.5356 H   0  0  0  0  0  0  0  0  0  0  0  0
   -0.2661    3.0748    0.2564 H   0  0  0  0  0  0  0  0  0  0  0  0
   -0.3288    4.0413   -1.2390 H   0  0  0  0  0  0  0  0  0  0  0  0
   -2.3839    3.2389   -1.9235 H   0  0  0  0  0  0  0  0  0  0  0  0
   -2.1473    1.6265   -1.2701 H   0  0  0  0  0  0  0  0  0  0  0  0
   -2.9870    4.1586    0.2464 H   0  0  0  0  0  0  0  0  0  0  0  0
   -3.9866    2.7267   -0.1077 H   0  0  0  0  0  0  0  0  0  0  0  0
   -1.7135    3.0007    1.9451 H   0  0  0  0  0  0  0  0  0  0  0  0
   -3.4283    2.6707    2.2381 H   0  0  0  0  0  0  0  0  0  0  0  0
   -1.7015    0.7481    2.4828 H   0  0  0  0  0  0  0  0  0  0  0  0
   -1.6498    0.6483    0.7305 H   0  0  0  0  0  0  0  0  0  0  0  0
   -6.0569    0.3363    1.9082 H   0  0  0  0  0  0  0  0  0  0  0  0
   -7.7700    0.0207    0.1645 H   0  0  0  0  0  0  0  0  0  0  0  0
   -7.0966   -0.5381   -2.1534 H   0  0  0  0  0  0  0  0  0  0  0  0
   -4.7081   -0.8460   -2.7086 H   0  0  0  0  0  0  0  0  0  0  0  0
   -1.9860   -4.2839    1.5426 H   0  0  0  0  0  0  0  0  0  0  0  0
    0.4438   -4.3222    1.0541 H   0  0  0  0  0  0  0  0  0  0  0  0
    1.4290   -2.5885   -0.4133 H   0  0  0  0  0  0  0  0  0  0  0  0
   -0.5426   -0.2686   -2.4521 H   0  0  0  0  0  0  0  0  0  0  0  0
    1.1019   -0.8157   -2.0706 H   0  0  0  0  0  0  0  0  0  0  0  0
  1  2  1  0
  2  3  2  0
  3  4  1  0
  4  5  2  0
  5  6  1  0
  6  7  2  0
  7  8  1  0
  8  9  1  0
  9 10  2  0
  9 11  1  0
 11 12  1  0
 12 13  1  0
 13 14  1  0
 14 15  1  0
 15 16  1  0
 16 17  1  0
 17 18  1  0
 18 19  1  0
 19 20  1  0
 20 21  2  0
 21 22  1  0
 22 23  2  0
 23 24  1  0
 24 25  2  0
 25 26  1  0
 26 27  1  0
 27 28  2  0
 28 29  1  0
 29 30  2  0
 30 31  1  0
 31 32  2  0
 32 33  1  0
  7  2  1  0
 33 12  1  0
 25 20  1  0
 32 27  1  0
  1 34  1  0
  1 35  1  0
  1 36  1  0
  3 37  1  0
  4 38  1  0
  6 39  1  0
  8 40  1  0
 11 41  1  0
 11 42  1  0
 13 43  1  0
 13 44  1  0
 14 45  1  0
 14 46  1  0
 15 47  1  0
 15 48  1  0
 16 49  1  0
 16 50  1  0
 17 51  1  0
 17 52  1  0
 18 53  1  0
 18 54  1  0
 21 55  1  0
 22 56  1  0
 23 57  1  0
 24 58  1  0
 29 59  1  0
 30 60  1  0
 31 61  1  0
 33 62  1  0
 33 63  1  0
M  END
$$$$
