
     RDKit          3D

 77 80  0  0  0  0  0  0  0  0999 V2000
   -5.8987   -2.8775    1.1893 C   0  0  0  0  0  0  0  0  0  0  0  0
   -5.4913   -3.0363   -0.2823 C   0  0  0  0  0  0  0  0  0  0  0  0
   -6.1140   -1.9331   -1.1472 C   0  0  0  0  0  0  0  0  0  0  0  0
   -3.9575   -3.1796   -0.4702 C   0  0  0  0  0  0  0  0  0  0  0  0
   -3.0861   -1.9818   -0.0051 C   0  0  0  0  0  0  0  0  0  0  0  0
   -1.6770   -2.3924    0.0854 N   0  0  0  0  0  0  0  0  0  0  0  0
   -0.6829   -1.5629    0.6979 C   0  0  0  0  0  0  0  0  0  0  0  0
   -0.2083   -1.9004    1.8153 O   0  0  0  0  0  0  0  0  0  0  0  0
   -0.1837   -0.3333   -0.0215 C   0  0  0  0  0  0  0  0  0  0  0  0
    1.0537    0.3601    0.5864 C   0  0  0  0  0  0  0  0  0  0  0  0
    2.2089   -0.5947    0.8242 C   0  0  0  0  0  0  0  0  0  0  0  0
    2.7864   -0.5886    1.9457 O   0  0  0  0  0  0  0  0  0  0  0  0
    2.6661   -1.5113   -0.1953 N   0  0  0  0  0  0  0  0  0  0  0  0
    3.3233   -2.7611    0.2137 C   0  0  0  0  0  0  0  0  0  0  0  0
    4.8661   -2.6286    0.3030 C   0  0  0  0  0  0  0  0  0  0  0  0
    5.4257   -1.2617   -0.0585 C   0  0  0  0  0  0  0  0  0  0  0  0
    6.3197   -0.6274    0.8222 C   0  0  0  0  0  0  0  0  0  0  0  0
    6.8624    0.6203    0.5066 C   0  0  0  0  0  0  0  0  0  0  0  0
    6.5242    1.2492   -0.6918 C   0  0  0  0  0  0  0  0  0  0  0  0
    5.6435    0.6330   -1.5816 C   0  0  0  0  0  0  0  0  0  0  0  0
    5.0986   -0.6274   -1.2845 C   0  0  0  0  0  0  0  0  0  0  0  0
    4.0856   -1.2400   -2.2200 C   0  0  0  0  0  0  0  0  0  0  0  0
    2.6741   -1.1453   -1.6233 C   0  0  0  0  0  0  0  0  0  0  0  0
    0.6754    1.0494    1.8298 N   0  0  0  0  0  0  0  0  0  0  0  0
    0.6377    2.4786    1.9739 C   0  0  0  0  0  0  0  0  0  0  0  0
    0.6077    2.9817    3.1292 O   0  0  0  0  0  0  0  0  0  0  0  0
    0.6605    3.3785    0.8075 C   0  0  0  0  0  0  0  0  0  0  0  0
    1.8406    4.0936    0.5482 C   0  0  0  0  0  0  0  0  0  0  0  0
    1.9641    4.8586   -0.6136 C   0  0  0  0  0  0  0  0  0  0  0  0
    0.9141    4.9093   -1.5312 C   0  0  0  0  0  0  0  0  0  0  0  0
   -0.2708    4.2146   -1.2776 C   0  0  0  0  0  0  0  0  0  0  0  0
   -0.4239    3.4693   -0.1018 C   0  0  0  0  0  0  0  0  0  0  0  0
   -1.6583    2.8395    0.1115 O   0  0  0  0  0  0  0  0  0  0  0  0
   -2.4188    2.9759    1.3098 C   0  0  0  0  0  0  0  0  0  0  0  0
   -3.8208    2.3876    1.1225 C   0  0  0  0  0  0  0  0  0  0  0  0
   -3.7937    0.8662    0.8986 C   0  0  0  0  0  0  0  0  0  0  0  0
   -3.5071    0.5268   -0.4980 N   0  0  0  0  0  0  0  0  0  0  0  0
   -3.2084   -0.8061   -0.9529 C   0  0  0  0  0  0  0  0  0  0  0  0
   -2.9803   -0.9892   -2.1799 O   0  0  0  0  0  0  0  0  0  0  0  0
   -5.6212   -1.8770    1.5799 H   0  0  0  0  0  0  0  0  0  0  0  0
   -5.4146   -3.6595    1.8124 H   0  0  0  0  0  0  0  0  0  0  0  0
   -6.9988   -2.9908    1.2874 H   0  0  0  0  0  0  0  0  0  0  0  0
   -5.9335   -3.9963   -0.6316 H   0  0  0  0  0  0  0  0  0  0  0  0
   -5.8839   -0.9268   -0.7441 H   0  0  0  0  0  0  0  0  0  0  0  0
   -5.7464   -2.0048   -2.1929 H   0  0  0  0  0  0  0  0  0  0  0  0
   -7.2196   -2.0483   -1.1631 H   0  0  0  0  0  0  0  0  0  0  0  0
   -3.7393   -3.4111   -1.5363 H   0  0  0  0  0  0  0  0  0  0  0  0
   -3.6467   -4.0811    0.1038 H   0  0  0  0  0  0  0  0  0  0  0  0
   -3.4130   -1.7087    1.0142 H   0  0  0  0  0  0  0  0  0  0  0  0
   -1.4199   -3.3915   -0.0703 H   0  0  0  0  0  0  0  0  0  0  0  0
    0.0229   -0.6100   -1.0755 H   0  0  0  0  0  0  0  0  0  0  0  0
   -0.9955    0.4101   -0.0503 H   0  0  0  0  0  0  0  0  0  0  0  0
    1.4075    1.1114   -0.1486 H   0  0  0  0  0  0  0  0  0  0  0  0
    2.9183   -3.1001    1.1931 H   0  0  0  0  0  0  0  0  0  0  0  0
    3.0631   -3.5637   -0.5109 H   0  0  0  0  0  0  0  0  0  0  0  0
    5.1779   -2.9107    1.3316 H   0  0  0  0  0  0  0  0  0  0  0  0
    5.3327   -3.3768   -0.3720 H   0  0  0  0  0  0  0  0  0  0  0  0
    6.5982   -1.0974    1.7575 H   0  0  0  0  0  0  0  0  0  0  0  0
    7.5458    1.1015    1.1937 H   0  0  0  0  0  0  0  0  0  0  0  0
    6.9412    2.2194   -0.9300 H   0  0  0  0  0  0  0  0  0  0  0  0
    5.3810    1.1440   -2.4998 H   0  0  0  0  0  0  0  0  0  0  0  0
    4.3467   -2.3036   -2.4087 H   0  0  0  0  0  0  0  0  0  0  0  0
    4.0968   -0.7342   -3.2104 H   0  0  0  0  0  0  0  0  0  0  0  0
    1.9951   -1.8257   -2.1804 H   0  0  0  0  0  0  0  0  0  0  0  0
    2.3106   -0.1095   -1.7764 H   0  0  0  0  0  0  0  0  0  0  0  0
    0.4462    0.4737    2.6720 H   0  0  0  0  0  0  0  0  0  0  0  0
    2.6789    4.0334    1.2320 H   0  0  0  0  0  0  0  0  0  0  0  0
    2.8812    5.3993   -0.8106 H   0  0  0  0  0  0  0  0  0  0  0  0
    1.0156    5.4933   -2.4367 H   0  0  0  0  0  0  0  0  0  0  0  0
   -1.0856    4.2730   -1.9878 H   0  0  0  0  0  0  0  0  0  0  0  0
   -2.5142    4.0545    1.5629 H   0  0  0  0  0  0  0  0  0  0  0  0
   -1.9244    2.4585    2.1551 H   0  0  0  0  0  0  0  0  0  0  0  0
   -4.3439    2.9001    0.2859 H   0  0  0  0  0  0  0  0  0  0  0  0
   -4.4014    2.5926    2.0479 H   0  0  0  0  0  0  0  0  0  0  0  0
   -3.0283    0.4181    1.5689 H   0  0  0  0  0  0  0  0  0  0  0  0
   -4.7851    0.4449    1.1699 H   0  0  0  0  0  0  0  0  0  0  0  0
   -3.5007    1.2865   -1.2164 H   0  0  0  0  0  0  0  0  0  0  0  0
  1  2  1  0
  2  3  1  0
  2  4  1  0
  4  5  1  0
  5  6  1  0
  6  7  1  0
  7  8  2  0
  7  9  1  0
  9 10  1  0
 10 11  1  0
 11 12  2  0
 11 13  1  0
 13 14  1  0
 14 15  1  0
 15 16  1  0
 16 17  2  0
 17 18  1  0
 18 19  2  0
 19 20  1  0
 20 21  2  0
 21 22  1  0
 22 23  1  0
 10 24  1  0
 24 25  1  0
 25 26  2  0
 25 27  1  0
 27 28  2  0
 28 29  1  0
 29 30  2  0
 30 31  1  0
 31 32  2  0
 32 33  1  0
 33 34  1  0
 34 35  1  0
 35 36  1  0
 36 37  1  0
 37 38  1  0
 38 39  2  0
 38  5  1  0
 23 13  1  0
 32 27  1  0
 21 16  1  0
  1 40  1  0
  1 41  1  0
  1 42  1  0
  2 43  1  0
  3 44  1  0
  3 45  1  0
  3 46  1  0
  4 47  1  0
  4 48  1  0
  5 49  1  0
  6 50  1  0
  9 51  1  0
  9 52  1  0
 10 53  1  0
 14 54  1  0
 14 55  1  0
 15 56  1  0
 15 57  1  0
 17 58  1  0
 18 59  1  0
 19 60  1  0
 20 61  1  0
 22 62  1  0
 22 63  1  0
 23 64  1  0
 23 65  1  0
 24 66  1  0
 28 67  1  0
 29 68  1  0
 30 69  1  0
 31 70  1  0
 34 71  1  0
 34 72  1  0
 35 73  1  0
 35 74  1  0
 36 75  1  0
 36 76  1  0
 37 77  1  0
M  END
$$$$
