
     RDKit          3D

 56 59  0  0  0  0  0  0  0  0999 V2000
    0.0790   -4.4290   -0.5991 C   0  0  0  0  0  0  0  0  0  0  0  0
   -0.1324   -3.0267   -0.0103 C   0  0  1  0  0  0  0  0  0  0  0  0
   -1.5588   -2.8669    0.5696 C   0  0  0  0  0  0  0  0  0  0  0  0
   -2.6035   -2.7010   -0.5127 C   0  0  0  0  0  0  0  0  0  0  0  0
   -3.1036   -3.7449   -1.0118 O   0  0  0  0  0  0  0  0  0  0  0  0
   -3.0393   -1.4220   -1.0236 N   0  0  0  0  0  0  0  0  0  0  0  0
   -2.5945   -0.0994   -0.5572 C   0  0  2  0  0  0  0  0  0  0  0  0
   -3.7496    0.8900   -0.5920 C   0  0  0  0  0  0  0  0  0  0  0  0
   -4.1413    1.5569    0.5850 C   0  0  0  0  0  0  0  0  0  0  0  0
   -5.1921    2.4786    0.5623 C   0  0  0  0  0  0  0  0  0  0  0  0
   -5.8623    2.7484   -0.6325 C   0  0  0  0  0  0  0  0  0  0  0  0
   -5.4821    2.0980   -1.8081 C   0  0  0  0  0  0  0  0  0  0  0  0
   -4.4319    1.1754   -1.7919 C   0  0  0  0  0  0  0  0  0  0  0  0
   -1.4143    0.3934   -1.4210 C   0  0  0  0  0  0  0  0  0  0  0  0
   -0.7237    1.6110   -0.8526 C   0  0  0  0  0  0  0  0  0  0  0  0
    0.1840    1.6055    0.1453 C   0  0  0  0  0  0  0  0  0  0  0  0
    0.6232    0.3915    0.9310 C   0  0  0  0  0  0  0  0  0  0  0  0
    1.7029   -0.4467    0.2157 C   0  0  1  0  0  0  0  0  0  0  0  0
    3.0076    0.3273    0.1133 C   0  0  0  0  0  0  0  0  0  0  0  0
    3.5010    0.7226   -1.1600 C   0  0  0  0  0  0  0  0  0  0  0  0
    4.6955    1.4567   -1.2716 C   0  0  0  0  0  0  0  0  0  0  0  0
    5.3690    1.7841   -0.1005 C   0  0  0  0  0  0  0  0  0  0  0  0
    4.9056    1.4190    1.1203 C   0  0  0  0  0  0  0  0  0  0  0  0
    3.7295    0.6923    1.2767 C   0  0  0  0  0  0  0  0  0  0  0  0
    5.7667    1.8811    2.0969 O   0  0  0  0  0  0  0  0  0  0  0  0
    6.8388    2.5794    1.4478 C   0  0  0  0  0  0  0  0  0  0  0  0
    6.5461    2.4925    0.0461 O   0  0  0  0  0  0  0  0  0  0  0  0
    1.9063   -1.7183    0.9307 N   0  0  0  0  0  0  0  0  0  0  0  0
    0.9171   -2.7610    1.0515 C   0  0  0  0  0  0  0  0  0  0  0  0
    0.9602   -3.5181    2.0596 O   0  0  0  0  0  0  0  0  0  0  0  0
   -0.0879   -5.2129    0.1705 H   0  0  0  0  0  0  0  0  0  0  0  0
    1.1155   -4.5266   -0.9880 H   0  0  0  0  0  0  0  0  0  0  0  0
   -0.6179   -4.6041   -1.4450 H   0  0  0  0  0  0  0  0  0  0  0  0
   -0.0033   -2.3271   -0.8478 H   0  0  0  0  0  0  0  0  0  0  0  0
   -1.6064   -2.0354    1.2941 H   0  0  0  0  0  0  0  0  0  0  0  0
   -1.8120   -3.7684    1.1704 H   0  0  0  0  0  0  0  0  0  0  0  0
   -3.6612   -1.4570   -1.8630 H   0  0  0  0  0  0  0  0  0  0  0  0
   -2.2718   -0.1795    0.4910 H   0  0  0  0  0  0  0  0  0  0  0  0
   -3.6338    1.3664    1.5225 H   0  0  0  0  0  0  0  0  0  0  0  0
   -5.4875    2.9835    1.4732 H   0  0  0  0  0  0  0  0  0  0  0  0
   -6.6753    3.4626   -0.6476 H   0  0  0  0  0  0  0  0  0  0  0  0
   -6.0010    2.3096   -2.7342 H   0  0  0  0  0  0  0  0  0  0  0  0
   -4.1532    0.6880   -2.7169 H   0  0  0  0  0  0  0  0  0  0  0  0
   -1.7821    0.6472   -2.4377 H   0  0  0  0  0  0  0  0  0  0  0  0
   -0.6829   -0.4108   -1.5810 H   0  0  0  0  0  0  0  0  0  0  0  0
   -0.9467    2.5646   -1.3227 H   0  0  0  0  0  0  0  0  0  0  0  0
    0.6070    2.5606    0.4439 H   0  0  0  0  0  0  0  0  0  0  0  0
   -0.2431   -0.2357    1.1803 H   0  0  0  0  0  0  0  0  0  0  0  0
    1.0159    0.7373    1.9109 H   0  0  0  0  0  0  0  0  0  0  0  0
    1.3749   -0.6750   -0.8142 H   0  0  0  0  0  0  0  0  0  0  0  0
    2.9606    0.4663   -2.0626 H   0  0  0  0  0  0  0  0  0  0  0  0
    5.0769    1.7604   -2.2374 H   0  0  0  0  0  0  0  0  0  0  0  0
    3.3873    0.4213    2.2672 H   0  0  0  0  0  0  0  0  0  0  0  0
    6.8548    3.6416    1.7707 H   0  0  0  0  0  0  0  0  0  0  0  0
    7.8075    2.0840    1.6686 H   0  0  0  0  0  0  0  0  0  0  0  0
    2.7626   -1.8308    1.5196 H   0  0  0  0  0  0  0  0  0  0  0  0
  1  2  1  0
  2  3  1  0
  3  4  1  0
  4  5  2  0
  4  6  1  0
  6  7  1  0
  7  8  1  0
  8  9  2  0
  9 10  1  0
 10 11  2  0
 11 12  1  0
 12 13  2  0
  7 14  1  0
 14 15  1  0
 15 16  2  0
 16 17  1  0
 17 18  1  0
 18 19  1  0
 19 20  2  0
 20 21  1  0
 21 22  2  0
 22 23  1  0
 23 24  2  0
 23 25  1  0
 25 26  1  0
 26 27  1  0
 18 28  1  0
 28 29  1  0
 29 30  2  0
 29  2  1  0
 13  8  1  0
 24 19  1  0
 27 22  1  0
  1 31  1  0
  1 32  1  0
  1 33  1  0
  2 34  1  6
  3 35  1  0
  3 36  1  0
  6 37  1  0
  7 38  1  1
  9 39  1  0
 10 40  1  0
 11 41  1  0
 12 42  1  0
 13 43  1  0
 14 44  1  0
 14 45  1  0
 15 46  1  0
 16 47  1  0
 17 48  1  0
 17 49  1  0
 18 50  1  6
 20 51  1  0
 21 52  1  0
 24 53  1  0
 26 54  1  0
 26 55  1  0
 28 56  1  0
M  END
$$$$
