
     RDKit          3D

 67 70  0  0  0  0  0  0  0  0999 V2000
   -4.9951   -2.6739    2.9618 C   0  0  0  0  0  0  0  0  0  0  0  0
   -3.7698   -2.1840    2.4605 O   0  0  0  0  0  0  0  0  0  0  0  0
   -3.9245   -1.8296    1.0998 C   0  0  0  0  0  0  0  0  0  0  0  0
   -2.5507   -1.4129    0.4857 C   0  0  0  0  0  0  0  0  0  0  0  0
   -1.5619   -2.6159    0.7209 C   0  0  0  0  0  0  0  0  0  0  0  0
   -0.2919   -2.7570   -0.1567 C   0  0  0  0  0  0  0  0  0  0  0  0
    0.8715   -1.7944    0.1592 C   0  0  0  0  0  0  0  0  0  0  0  0
    1.0695   -0.7179   -0.9208 C   0  0  0  0  0  0  0  0  0  0  0  0
    2.3838   -0.0746   -0.7760 N   0  0  0  0  0  0  0  0  0  0  0  0
    3.4966   -0.6409   -1.4958 C   0  0  0  0  0  0  0  0  0  0  0  0
    3.4336   -0.7147   -2.7542 O   0  0  0  0  0  0  0  0  0  0  0  0
    4.6741   -1.2146   -0.7921 C   0  0  0  0  0  0  0  0  0  0  0  0
    5.8174   -1.5856   -1.5217 C   0  0  0  0  0  0  0  0  0  0  0  0
    6.8925   -2.2166   -0.8859 C   0  0  0  0  0  0  0  0  0  0  0  0
    6.8522   -2.4568    0.4915 C   0  0  0  0  0  0  0  0  0  0  0  0
    8.1907   -3.2691    1.2789 Cl  0  0  0  0  0  0  0  0  0  0  0  0
    5.7297   -2.0795    1.2290 C   0  0  0  0  0  0  0  0  0  0  0  0
    4.6420   -1.4760    0.5921 C   0  0  0  0  0  0  0  0  0  0  0  0
    2.6003    1.0099    0.1961 C   0  0  0  0  0  0  0  0  0  0  0  0
    2.0966    2.3581   -0.3229 C   0  0  0  0  0  0  0  0  0  0  0  0
    0.6708    2.3734   -0.3346 O   0  0  0  0  0  0  0  0  0  0  0  0
   -0.1509    3.5130   -0.3423 C   0  0  0  0  0  0  0  0  0  0  0  0
    0.2945    4.7750    0.1067 C   0  0  0  0  0  0  0  0  0  0  0  0
   -0.5936    5.8506    0.1722 C   0  0  0  0  0  0  0  0  0  0  0  0
   -1.9278    5.6842   -0.2031 C   0  0  0  0  0  0  0  0  0  0  0  0
   -2.3750    4.4471   -0.6732 C   0  0  0  0  0  0  0  0  0  0  0  0
   -1.4870    3.3666   -0.7606 C   0  0  0  0  0  0  0  0  0  0  0  0
   -1.9507    2.0908   -1.3220 C   0  0  0  0  0  0  0  0  0  0  0  0
   -1.5077    1.7349   -2.4484 O   0  0  0  0  0  0  0  0  0  0  0  0
   -2.8964    1.2582   -0.6190 N   0  0  0  0  0  0  0  0  0  0  0  0
   -2.8310    1.1392    0.8417 C   0  0  0  0  0  0  0  0  0  0  0  0
   -2.0396   -0.1258    1.2157 C   0  0  0  0  0  0  0  0  0  0  0  0
   -3.5437    0.1444   -1.3155 C   0  0  0  0  0  0  0  0  0  0  0  0
   -2.7473   -1.1378   -1.0410 C   0  0  0  0  0  0  0  0  0  0  0  0
   -4.8568   -2.9407    4.0296 H   0  0  0  0  0  0  0  0  0  0  0  0
   -5.7898   -1.8981    2.9100 H   0  0  0  0  0  0  0  0  0  0  0  0
   -5.3136   -3.5964    2.4257 H   0  0  0  0  0  0  0  0  0  0  0  0
   -4.3286   -2.6912    0.5171 H   0  0  0  0  0  0  0  0  0  0  0  0
   -4.6619   -1.0051    1.0152 H   0  0  0  0  0  0  0  0  0  0  0  0
   -2.1250   -3.5516    0.5245 H   0  0  0  0  0  0  0  0  0  0  0  0
   -1.2716   -2.6648    1.7908 H   0  0  0  0  0  0  0  0  0  0  0  0
   -0.5396   -2.7796   -1.2378 H   0  0  0  0  0  0  0  0  0  0  0  0
    0.0910   -3.7844    0.0376 H   0  0  0  0  0  0  0  0  0  0  0  0
    1.8034   -2.3947    0.2148 H   0  0  0  0  0  0  0  0  0  0  0  0
    0.7523   -1.3332    1.1610 H   0  0  0  0  0  0  0  0  0  0  0  0
    0.2654    0.0327   -0.8703 H   0  0  0  0  0  0  0  0  0  0  0  0
    0.9925   -1.1790   -1.9293 H   0  0  0  0  0  0  0  0  0  0  0  0
    5.8717   -1.4182   -2.5899 H   0  0  0  0  0  0  0  0  0  0  0  0
    7.7558   -2.5170   -1.4635 H   0  0  0  0  0  0  0  0  0  0  0  0
    5.6860   -2.2808    2.2922 H   0  0  0  0  0  0  0  0  0  0  0  0
    3.7676   -1.2473    1.1818 H   0  0  0  0  0  0  0  0  0  0  0  0
    2.0974    0.7678    1.1557 H   0  0  0  0  0  0  0  0  0  0  0  0
    3.6846    1.1199    0.4105 H   0  0  0  0  0  0  0  0  0  0  0  0
    2.4966    3.1379    0.3562 H   0  0  0  0  0  0  0  0  0  0  0  0
    2.4750    2.5423   -1.3502 H   0  0  0  0  0  0  0  0  0  0  0  0
    1.3097    4.9371    0.4374 H   0  0  0  0  0  0  0  0  0  0  0  0
   -0.2477    6.8126    0.5284 H   0  0  0  0  0  0  0  0  0  0  0  0
   -2.6117    6.5209   -0.1436 H   0  0  0  0  0  0  0  0  0  0  0  0
   -3.4063    4.3338   -0.9776 H   0  0  0  0  0  0  0  0  0  0  0  0
   -3.8586    1.0961    1.2595 H   0  0  0  0  0  0  0  0  0  0  0  0
   -2.3409    2.0240    1.3012 H   0  0  0  0  0  0  0  0  0  0  0  0
   -2.0724   -0.2621    2.3196 H   0  0  0  0  0  0  0  0  0  0  0  0
   -0.9856    0.0757    0.9629 H   0  0  0  0  0  0  0  0  0  0  0  0
   -4.5910    0.0404   -0.9672 H   0  0  0  0  0  0  0  0  0  0  0  0
   -3.5982    0.3328   -2.4077 H   0  0  0  0  0  0  0  0  0  0  0  0
   -1.7704   -0.9995   -1.5390 H   0  0  0  0  0  0  0  0  0  0  0  0
   -3.2506   -1.9983   -1.5316 H   0  0  0  0  0  0  0  0  0  0  0  0
  1  2  1  0
  2  3  1  0
  3  4  1  0
  4  5  1  0
  5  6  1  0
  6  7  1  0
  7  8  1  0
  8  9  1  0
  9 10  1  0
 10 11  2  0
 10 12  1  0
 12 13  2  0
 13 14  1  0
 14 15  2  0
 15 16  1  0
 15 17  1  0
 17 18  2  0
  9 19  1  0
 19 20  1  0
 20 21  1  0
 21 22  1  0
 22 23  2  0
 23 24  1  0
 24 25  2  0
 25 26  1  0
 26 27  2  0
 27 28  1  0
 28 29  2  0
 28 30  1  0
 30 31  1  0
 31 32  1  0
 30 33  1  0
 33 34  1  0
 32  4  1  0
 34  4  1  0
 18 12  1  0
 27 22  1  0
  1 35  1  0
  1 36  1  0
  1 37  1  0
  3 38  1  0
  3 39  1  0
  5 40  1  0
  5 41  1  0
  6 42  1  0
  6 43  1  0
  7 44  1  0
  7 45  1  0
  8 46  1  0
  8 47  1  0
 13 48  1  0
 14 49  1  0
 17 50  1  0
 18 51  1  0
 19 52  1  0
 19 53  1  0
 20 54  1  0
 20 55  1  0
 23 56  1  0
 24 57  1  0
 25 58  1  0
 26 59  1  0
 31 60  1  0
 31 61  1  0
 32 62  1  0
 32 63  1  0
 33 64  1  0
 33 65  1  0
 34 66  1  0
 34 67  1  0
M  END
$$$$
