
     RDKit          3D

 83 87  0  0  0  0  0  0  0  0999 V2000
    5.4067   -1.4727    0.5941 O   0  0  0  0  0  0  0  0  0  0  0  0
    5.2125   -0.8488   -0.4828 C   0  0  0  0  0  0  0  0  0  0  0  0
    3.9279   -1.0634   -1.2313 C   0  0  0  0  0  0  0  0  0  0  0  0
    2.7837   -0.4869   -0.4986 N   0  0  0  0  0  0  0  0  0  0  0  0
    2.8117    0.9921   -0.5726 C   0  0  0  0  0  0  0  0  0  0  0  0
    1.6440    1.6046    0.2143 C   0  0  0  0  0  0  0  0  0  0  0  0
    0.3113    1.0553   -0.3141 C   0  0  0  0  0  0  0  0  0  0  0  0
   -0.8280    1.6089    0.4295 N   0  0  0  0  0  0  0  0  0  0  0  0
   -2.1205    1.7416   -0.1854 C   0  0  0  0  0  0  0  0  0  0  0  0
   -2.2110    1.8388   -1.4392 O   0  0  0  0  0  0  0  0  0  0  0  0
   -3.3742    1.6490    0.6487 C   0  0  0  0  0  0  0  0  0  0  0  0
   -4.3117    2.8617    0.4809 C   0  0  0  0  0  0  0  0  0  0  0  0
   -4.9194    2.9877   -0.8955 C   0  0  0  0  0  0  0  0  0  0  0  0
   -4.3758    3.8844   -1.8323 C   0  0  0  0  0  0  0  0  0  0  0  0
   -4.9519    4.0114   -3.1023 C   0  0  0  0  0  0  0  0  0  0  0  0
   -6.0721    3.2469   -3.4432 C   0  0  0  0  0  0  0  0  0  0  0  0
   -6.6183    2.3538   -2.5175 C   0  0  0  0  0  0  0  0  0  0  0  0
   -6.0491    2.2275   -1.2457 C   0  0  0  0  0  0  0  0  0  0  0  0
   -4.0656    0.3955    0.3421 N   0  0  0  0  0  0  0  0  0  0  0  0
   -4.6109   -0.4384    1.3783 C   0  0  0  0  0  0  0  0  0  0  0  0
   -5.0943    0.1124    2.4038 O   0  0  0  0  0  0  0  0  0  0  0  0
   -4.4212   -1.9610    1.3680 C   0  0  0  0  0  0  0  0  0  0  0  0
   -3.2362   -2.3017    2.3291 C   0  0  0  0  0  0  0  0  0  0  0  0
   -1.9899   -1.4780    2.0959 C   0  0  0  0  0  0  0  0  0  0  0  0
   -0.9505   -1.9376    1.3809 C   0  0  0  0  0  0  0  0  0  0  0  0
    0.2810   -1.1011    1.1502 C   0  0  0  0  0  0  0  0  0  0  0  0
    0.3029   -0.4956   -0.2873 C   0  0  0  0  0  0  0  0  0  0  0  0
    1.5227   -1.0054   -1.0793 C   0  0  0  0  0  0  0  0  0  0  0  0
   -5.7161   -2.6693    1.9016 C   0  0  0  0  0  0  0  0  0  0  0  0
   -6.5435   -3.2994    0.7682 C   0  0  0  0  0  0  0  0  0  0  0  0
   -5.8326   -4.3105    0.0677 O   0  0  0  0  0  0  0  0  0  0  0  0
   -4.4701   -3.9868   -0.1954 C   0  0  0  0  0  0  0  0  0  0  0  0
   -4.1186   -2.4923   -0.0670 C   0  0  0  0  0  0  0  0  0  0  0  0
    6.2116    0.0341   -1.0119 N   0  0  0  0  0  0  0  0  0  0  0  0
    7.5221    0.1917   -0.4456 C   0  0  0  0  0  0  0  0  0  0  0  0
    7.7089    0.3302    0.9402 C   0  0  0  0  0  0  0  0  0  0  0  0
    8.9948    0.4976    1.4654 C   0  0  0  0  0  0  0  0  0  0  0  0
   10.1108    0.5605    0.6125 C   0  0  0  0  0  0  0  0  0  0  0  0
   11.5041    0.7052    1.1793 C   0  0  0  0  0  0  0  0  0  0  0  0
   12.3468    1.3164    0.2652 F   0  0  0  0  0  0  0  0  0  0  0  0
   11.4855    1.4807    2.3301 F   0  0  0  0  0  0  0  0  0  0  0  0
   12.0045   -0.5479    1.4856 F   0  0  0  0  0  0  0  0  0  0  0  0
    9.9185    0.4136   -0.7726 C   0  0  0  0  0  0  0  0  0  0  0  0
    8.6344    0.2520   -1.2966 C   0  0  0  0  0  0  0  0  0  0  0  0
    3.8025   -2.1638   -1.3471 H   0  0  0  0  0  0  0  0  0  0  0  0
    3.9945   -0.6399   -2.2606 H   0  0  0  0  0  0  0  0  0  0  0  0
    2.7655    1.3348   -1.6299 H   0  0  0  0  0  0  0  0  0  0  0  0
    3.7565    1.3795   -0.1344 H   0  0  0  0  0  0  0  0  0  0  0  0
    1.6592    2.7088    0.0954 H   0  0  0  0  0  0  0  0  0  0  0  0
    1.7702    1.3822    1.2945 H   0  0  0  0  0  0  0  0  0  0  0  0
    0.2343    1.3827   -1.3759 H   0  0  0  0  0  0  0  0  0  0  0  0
   -0.7744    1.6314    1.4695 H   0  0  0  0  0  0  0  0  0  0  0  0
   -3.0675    1.6396    1.7169 H   0  0  0  0  0  0  0  0  0  0  0  0
   -5.1322    2.7849    1.2270 H   0  0  0  0  0  0  0  0  0  0  0  0
   -3.7529    3.7890    0.7354 H   0  0  0  0  0  0  0  0  0  0  0  0
   -3.5065    4.4805   -1.5825 H   0  0  0  0  0  0  0  0  0  0  0  0
   -4.5302    4.7027   -3.8221 H   0  0  0  0  0  0  0  0  0  0  0  0
   -6.5192    3.3451   -4.4247 H   0  0  0  0  0  0  0  0  0  0  0  0
   -7.4876    1.7630   -2.7807 H   0  0  0  0  0  0  0  0  0  0  0  0
   -6.4902    1.5386   -0.5358 H   0  0  0  0  0  0  0  0  0  0  0  0
   -4.1162    0.1021   -0.6577 H   0  0  0  0  0  0  0  0  0  0  0  0
   -3.5543   -2.1096    3.3773 H   0  0  0  0  0  0  0  0  0  0  0  0
   -2.9893   -3.3844    2.2823 H   0  0  0  0  0  0  0  0  0  0  0  0
   -1.9505   -0.4790    2.5213 H   0  0  0  0  0  0  0  0  0  0  0  0
   -0.9955   -2.9209    0.9174 H   0  0  0  0  0  0  0  0  0  0  0  0
    1.1630   -1.7585    1.3203 H   0  0  0  0  0  0  0  0  0  0  0  0
    0.3550   -0.3165    1.9326 H   0  0  0  0  0  0  0  0  0  0  0  0
   -0.6045   -0.8295   -0.8422 H   0  0  0  0  0  0  0  0  0  0  0  0
    1.5165   -2.1176   -1.0532 H   0  0  0  0  0  0  0  0  0  0  0  0
    1.4292   -0.7004   -2.1488 H   0  0  0  0  0  0  0  0  0  0  0  0
   -6.3685   -1.9736    2.4732 H   0  0  0  0  0  0  0  0  0  0  0  0
   -5.4556   -3.4944    2.6031 H   0  0  0  0  0  0  0  0  0  0  0  0
   -7.4532   -3.7602    1.2075 H   0  0  0  0  0  0  0  0  0  0  0  0
   -6.8937   -2.5188    0.0553 H   0  0  0  0  0  0  0  0  0  0  0  0
   -3.8267   -4.5832    0.4821 H   0  0  0  0  0  0  0  0  0  0  0  0
   -4.2298   -4.3156   -1.2284 H   0  0  0  0  0  0  0  0  0  0  0  0
   -4.7452   -1.9701   -0.8197 H   0  0  0  0  0  0  0  0  0  0  0  0
   -3.0595   -2.3255   -0.3518 H   0  0  0  0  0  0  0  0  0  0  0  0
    6.0483    0.4435   -1.9603 H   0  0  0  0  0  0  0  0  0  0  0  0
    6.8609    0.3233    1.6137 H   0  0  0  0  0  0  0  0  0  0  0  0
    9.1160    0.5851    2.5383 H   0  0  0  0  0  0  0  0  0  0  0  0
   10.7612    0.4332   -1.4537 H   0  0  0  0  0  0  0  0  0  0  0  0
    8.5054    0.1550   -2.3690 H   0  0  0  0  0  0  0  0  0  0  0  0
  1  2  2  0
  2  3  1  0
  3  4  1  0
  4  5  1  0
  5  6  1  0
  6  7  1  0
  7  8  1  0
  8  9  1  0
  9 10  2  0
  9 11  1  0
 11 12  1  0
 12 13  1  0
 13 14  2  0
 14 15  1  0
 15 16  2  0
 16 17  1  0
 17 18  2  0
 11 19  1  0
 19 20  1  0
 20 21  2  0
 20 22  1  0
 22 23  1  0
 23 24  1  0
 24 25  2  0
 25 26  1  0
 26 27  1  0
 27 28  1  0
 22 29  1  0
 29 30  1  0
 30 31  1  0
 31 32  1  0
 32 33  1  0
  2 34  1  0
 34 35  1  0
 35 36  2  0
 36 37  1  0
 37 38  2  0
 38 39  1  0
 39 40  1  0
 39 41  1  0
 39 42  1  0
 38 43  1  0
 43 44  2  0
 28  4  1  0
 44 35  1  0
 27  7  1  0
 18 13  1  0
 33 22  1  0
  3 45  1  0
  3 46  1  0
  5 47  1  0
  5 48  1  0
  6 49  1  0
  6 50  1  0
  7 51  1  0
  8 52  1  0
 11 53  1  0
 12 54  1  0
 12 55  1  0
 14 56  1  0
 15 57  1  0
 16 58  1  0
 17 59  1  0
 18 60  1  0
 19 61  1  0
 23 62  1  0
 23 63  1  0
 24 64  1  0
 25 65  1  0
 26 66  1  0
 26 67  1  0
 27 68  1  0
 28 69  1  0
 28 70  1  0
 29 71  1  0
 29 72  1  0
 30 73  1  0
 30 74  1  0
 32 75  1  0
 32 76  1  0
 33 77  1  0
 33 78  1  0
 34 79  1  0
 36 80  1  0
 37 81  1  0
 43 82  1  0
 44 83  1  0
M  END
$$$$
