
     RDKit          3D

110114  0  0  0  0  0  0  0  0999 V2000
   -6.4360    0.6429   -3.3600 C   0  0  0  0  0  0  0  0  0  0  0  0
   -7.7500    0.9415   -2.7095 C   0  0  0  0  0  0  0  0  0  0  0  0
   -8.2826    2.1758   -2.6610 N   0  0  0  0  0  0  0  0  0  0  0  0
   -9.3839    2.0945   -1.9663 O   0  0  0  0  0  0  0  0  0  0  0  0
   -9.6052    0.8543   -1.5808 C   0  0  0  0  0  0  0  0  0  0  0  0
  -10.7850    0.4189   -0.7796 C   0  0  0  0  0  0  0  0  0  0  0  0
   -8.5803    0.0578   -2.0486 C   0  0  0  0  0  0  0  0  0  0  0  0
   -8.3603   -1.6650   -1.7634 S   0  0  0  0  0  6  0  0  0  0  0  0
   -9.6625   -2.3636   -2.0270 O   0  0  0  0  0  0  0  0  0  0  0  0
   -7.3196   -2.2527   -2.6750 O   0  0  0  0  0  0  0  0  0  0  0  0
   -7.9013   -1.9207   -0.1119 N   0  0  0  0  0  0  0  0  0  0  0  0
   -6.7647   -1.2492    0.4455 C   0  0  0  0  0  0  0  0  0  0  0  0
   -6.8896   -0.5618    1.6527 C   0  0  0  0  0  0  0  0  0  0  0  0
   -5.8041    0.1381    2.1797 C   0  0  0  0  0  0  0  0  0  0  0  0
   -4.5710    0.1670    1.5108 C   0  0  0  0  0  0  0  0  0  0  0  0
   -4.4047   -0.6208    0.3449 C   0  0  0  0  0  0  0  0  0  0  0  0
   -5.5181   -1.2889   -0.1915 C   0  0  0  0  0  0  0  0  0  0  0  0
   -3.1364   -0.6762   -0.4269 C   0  0  0  0  0  0  0  0  0  0  0  0
   -3.0577    0.0116   -1.4771 O   0  0  0  0  0  0  0  0  0  0  0  0
   -2.0761   -1.6110   -0.0974 N   0  0  0  0  0  0  0  0  0  0  0  0
   -1.6227   -2.5940   -1.1147 C   0  0  2  0  0  0  0  0  0  0  0  0
   -1.0830   -1.9137   -2.3853 C   0  0  0  0  0  0  0  0  0  0  0  0
   -2.7345   -3.5913   -1.4731 C   0  0  0  0  0  0  0  0  0  0  0  0
   -3.1237   -4.3295   -0.3416 O   0  0  0  0  0  0  0  0  0  0  0  0
   -1.7117   -1.8120    1.3214 C   0  0  0  0  0  0  0  0  0  0  0  0
   -0.1879   -1.8805    1.6256 C   0  0  2  0  0  0  0  0  0  0  0  0
   -0.0226   -1.9837    3.1585 C   0  0  0  0  0  0  0  0  0  0  0  0
    0.6394   -0.7083    0.9979 C   0  0  2  0  0  0  0  0  0  0  0  0
    2.1553   -1.0373    0.8861 C   0  0  0  0  0  0  0  0  0  0  0  0
    2.7846   -1.2174    2.2173 N   0  0  0  0  0  0  0  0  0  0  0  0
    3.4980   -2.5037    2.3240 C   0  0  0  0  0  0  0  0  0  0  0  0
    3.6015   -0.0683    2.6809 C   0  0  0  0  0  0  0  0  0  0  0  0
    4.9697    0.0279    2.0321 C   0  0  0  0  0  0  0  0  0  0  0  0
    5.1749    0.7921    0.8713 C   0  0  0  0  0  0  0  0  0  0  0  0
    6.4461    0.8919    0.3001 C   0  0  0  0  0  0  0  0  0  0  0  0
    7.5372    0.2062    0.8610 C   0  0  0  0  0  0  0  0  0  0  0  0
    8.9003    0.3211    0.2855 C   0  0  0  0  0  0  0  0  0  0  0  0
    9.8937   -0.0679    0.9491 O   0  0  0  0  0  0  0  0  0  0  0  0
    9.1061    0.8408   -1.0404 N   0  0  0  0  0  0  0  0  0  0  0  0
   10.3505    1.4361   -1.4443 C   0  0  0  0  0  0  0  0  0  0  0  0
   11.0475    2.2791   -0.5575 C   0  0  0  0  0  0  0  0  0  0  0  0
   12.2416    2.8883   -0.9487 C   0  0  0  0  0  0  0  0  0  0  0  0
   12.7362    2.6973   -2.2378 C   0  0  0  0  0  0  0  0  0  0  0  0
   12.0576    1.8656   -3.1268 C   0  0  0  0  0  0  0  0  0  0  0  0
   10.8674    1.2297   -2.7466 C   0  0  0  0  0  0  0  0  0  0  0  0
   10.2402    0.3390   -3.6750 N   0  0  0  0  0  0  0  0  0  0  0  0
    7.3310   -0.5537    2.0229 C   0  0  0  0  0  0  0  0  0  0  0  0
    6.0638   -0.6436    2.5990 C   0  0  0  0  0  0  0  0  0  0  0  0
    0.4112    0.5139    1.6892 O   0  0  0  0  0  0  0  0  0  0  0  0
    0.7523    1.6485    0.8984 C   0  0  0  0  0  0  0  0  0  0  0  0
   -0.3336    2.7120    1.0792 C   0  0  0  0  0  0  0  0  0  0  0  0
   -1.6159    2.3229    0.3267 C   0  0  0  0  0  0  0  0  0  0  0  0
   -2.9108    2.9381    0.8969 C   0  0  0  0  0  0  0  0  0  0  0  0
   -3.3502    2.2880    2.2177 C   0  0  1  0  0  0  0  0  0  0  0  0
   -4.5964    2.9816    2.7822 C   0  0  0  0  0  0  0  0  0  0  0  0
   -3.4876    0.8673    2.0706 O   0  0  0  0  0  0  0  0  0  0  0  0
   -6.0591    1.5405   -3.9047 H   0  0  0  0  0  0  0  0  0  0  0  0
   -6.5357   -0.1908   -4.0813 H   0  0  0  0  0  0  0  0  0  0  0  0
   -5.7032    0.3859   -2.5758 H   0  0  0  0  0  0  0  0  0  0  0  0
  -11.4914   -0.1361   -1.4244 H   0  0  0  0  0  0  0  0  0  0  0  0
  -10.4611   -0.2265    0.0616 H   0  0  0  0  0  0  0  0  0  0  0  0
  -11.2939    1.3087   -0.3648 H   0  0  0  0  0  0  0  0  0  0  0  0
   -8.6354   -2.2829    0.5374 H   0  0  0  0  0  0  0  0  0  0  0  0
   -7.8379   -0.5363    2.1737 H   0  0  0  0  0  0  0  0  0  0  0  0
   -5.9228    0.6360    3.1268 H   0  0  0  0  0  0  0  0  0  0  0  0
   -5.4139   -1.8569   -1.1041 H   0  0  0  0  0  0  0  0  0  0  0  0
   -0.7802   -3.1854   -0.7120 H   0  0  0  0  0  0  0  0  0  0  0  0
   -1.9044   -1.6226   -3.0707 H   0  0  0  0  0  0  0  0  0  0  0  0
   -0.4930   -1.0033   -2.1609 H   0  0  0  0  0  0  0  0  0  0  0  0
   -0.4185   -2.6093   -2.9358 H   0  0  0  0  0  0  0  0  0  0  0  0
   -2.3639   -4.2957   -2.2583 H   0  0  0  0  0  0  0  0  0  0  0  0
   -3.6047   -3.0469   -1.8973 H   0  0  0  0  0  0  0  0  0  0  0  0
   -3.9222   -4.8436   -0.6161 H   0  0  0  0  0  0  0  0  0  0  0  0
   -2.1937   -2.7449    1.6749 H   0  0  0  0  0  0  0  0  0  0  0  0
   -2.1148   -0.9977    1.9354 H   0  0  0  0  0  0  0  0  0  0  0  0
    0.1995   -2.8337    1.2187 H   0  0  0  0  0  0  0  0  0  0  0  0
   -0.7053   -2.7600    3.5677 H   0  0  0  0  0  0  0  0  0  0  0  0
    0.9901   -2.2932    3.4583 H   0  0  0  0  0  0  0  0  0  0  0  0
   -0.2584   -1.0114    3.6463 H   0  0  0  0  0  0  0  0  0  0  0  0
    0.2764   -0.6250   -0.0460 H   0  0  0  0  0  0  0  0  0  0  0  0
    2.2419   -1.9677    0.2629 H   0  0  0  0  0  0  0  0  0  0  0  0
    2.6610   -0.2422    0.2992 H   0  0  0  0  0  0  0  0  0  0  0  0
    4.3206   -2.5738    1.5785 H   0  0  0  0  0  0  0  0  0  0  0  0
    3.9110   -2.6336    3.3469 H   0  0  0  0  0  0  0  0  0  0  0  0
    2.7953   -3.3446    2.1446 H   0  0  0  0  0  0  0  0  0  0  0  0
    3.0477    0.8746    2.5376 H   0  0  0  0  0  0  0  0  0  0  0  0
    3.7295   -0.1464    3.7806 H   0  0  0  0  0  0  0  0  0  0  0  0
    4.3573    1.3394    0.4257 H   0  0  0  0  0  0  0  0  0  0  0  0
    6.5709    1.5310   -0.5608 H   0  0  0  0  0  0  0  0  0  0  0  0
    8.3417    0.7492   -1.7414 H   0  0  0  0  0  0  0  0  0  0  0  0
   10.6533    2.4739    0.4313 H   0  0  0  0  0  0  0  0  0  0  0  0
   12.7673    3.5275   -0.2571 H   0  0  0  0  0  0  0  0  0  0  0  0
   13.6552    3.1789   -2.5449 H   0  0  0  0  0  0  0  0  0  0  0  0
   12.4718    1.7025   -4.1145 H   0  0  0  0  0  0  0  0  0  0  0  0
    9.4303   -0.2593   -3.4026 H   0  0  0  0  0  0  0  0  0  0  0  0
   10.6902    0.1413   -4.5970 H   0  0  0  0  0  0  0  0  0  0  0  0
    8.1545   -1.0784    2.4873 H   0  0  0  0  0  0  0  0  0  0  0  0
    5.9467   -1.2147    3.5107 H   0  0  0  0  0  0  0  0  0  0  0  0
    1.7087    2.0816    1.2697 H   0  0  0  0  0  0  0  0  0  0  0  0
    0.8927    1.4435   -0.1930 H   0  0  0  0  0  0  0  0  0  0  0  0
    0.0367    3.6830    0.6836 H   0  0  0  0  0  0  0  0  0  0  0  0
   -0.5142    2.8403    2.1670 H   0  0  0  0  0  0  0  0  0  0  0  0
   -1.5188    2.6241   -0.7425 H   0  0  0  0  0  0  0  0  0  0  0  0
   -1.7060    1.2288    0.3354 H   0  0  0  0  0  0  0  0  0  0  0  0
   -3.7225    2.7988    0.1469 H   0  0  0  0  0  0  0  0  0  0  0  0
   -2.7674    4.0289    1.0446 H   0  0  0  0  0  0  0  0  0  0  0  0
   -2.5423    2.4638    2.9604 H   0  0  0  0  0  0  0  0  0  0  0  0
   -4.8464    2.5531    3.7735 H   0  0  0  0  0  0  0  0  0  0  0  0
   -4.3923    4.0600    2.9392 H   0  0  0  0  0  0  0  0  0  0  0  0
   -5.4636    2.8925    2.0992 H   0  0  0  0  0  0  0  0  0  0  0  0
  1  2  1  0
  2  3  2  0
  3  4  1  0
  4  5  1  0
  5  6  1  0
  5  7  2  0
  7  8  1  0
  8  9  2  0
  8 10  2  0
  8 11  1  0
 11 12  1  0
 12 13  2  0
 13 14  1  0
 14 15  2  0
 15 16  1  0
 16 17  2  0
 16 18  1  0
 18 19  2  0
 18 20  1  0
 20 21  1  0
 21 22  1  0
 21 23  1  0
 23 24  1  0
 20 25  1  0
 25 26  1  0
 26 27  1  0
 26 28  1  0
 28 29  1  0
 29 30  1  0
 30 31  1  0
 30 32  1  0
 32 33  1  0
 33 34  2  0
 34 35  1  0
 35 36  2  0
 36 37  1  0
 37 38  2  0
 37 39  1  0
 39 40  1  0
 40 41  2  0
 41 42  1  0
 42 43  2  0
 43 44  1  0
 44 45  2  0
 45 46  1  0
 36 47  1  0
 47 48  2  0
 28 49  1  0
 49 50  1  0
 50 51  1  0
 51 52  1  0
 52 53  1  0
 53 54  1  0
 54 55  1  0
 54 56  1  0
  7  2  1  0
 17 12  1  0
 48 33  1  0
 56 15  1  0
 45 40  1  0
  1 57  1  0
  1 58  1  0
  1 59  1  0
  6 60  1  0
  6 61  1  0
  6 62  1  0
 11 63  1  0
 13 64  1  0
 14 65  1  0
 17 66  1  0
 21 67  1  1
 22 68  1  0
 22 69  1  0
 22 70  1  0
 23 71  1  0
 23 72  1  0
 24 73  1  0
 25 74  1  0
 25 75  1  0
 26 76  1  6
 27 77  1  0
 27 78  1  0
 27 79  1  0
 28 80  1  6
 29 81  1  0
 29 82  1  0
 31 83  1  0
 31 84  1  0
 31 85  1  0
 32 86  1  0
 32 87  1  0
 34 88  1  0
 35 89  1  0
 39 90  1  0
 41 91  1  0
 42 92  1  0
 43 93  1  0
 44 94  1  0
 46 95  1  0
 46 96  1  0
 47 97  1  0
 48 98  1  0
 50 99  1  0
 50100  1  0
 51101  1  0
 51102  1  0
 52103  1  0
 52104  1  0
 53105  1  0
 53106  1  0
 54107  1  1
 55108  1  0
 55109  1  0
 55110  1  0
M  END
$$$$
