
     RDKit          3D

 91 92  0  0  0  0  0  0  0  0999 V2000
   11.3683   -1.1843    3.2569 C   0  0  0  0  0  0  0  0  0  0  0  0
   10.1922   -0.6773    2.4262 C   0  0  0  0  0  0  0  0  0  0  0  0
    8.9721   -1.5993    2.5752 C   0  0  0  0  0  0  0  0  0  0  0  0
    7.7939   -1.1584    1.6901 C   0  0  0  0  0  0  0  0  0  0  0  0
    6.9971    0.0045    2.3044 C   0  0  0  0  0  0  0  0  0  0  0  0
    6.0230    0.6592    1.3094 C   0  0  0  0  0  0  0  0  0  0  0  0
    4.8553   -0.2514    0.8771 C   0  0  0  0  0  0  0  0  0  0  0  0
    5.1159   -0.9401   -0.4740 C   0  0  0  0  0  0  0  0  0  0  0  0
    3.8960   -1.7390   -0.9574 C   0  0  0  0  0  0  0  0  0  0  0  0
    2.7574   -0.8536   -1.3931 C   0  0  0  0  0  0  0  0  0  0  0  0
    2.9912    0.1478   -2.1210 O   0  0  0  0  0  0  0  0  0  0  0  0
    1.4058   -1.1890   -1.0428 N   0  0  0  0  0  0  0  0  0  0  0  0
    0.2554   -0.4517   -1.5805 C   0  0  1  0  0  0  0  0  0  0  0  0
    0.0327   -0.8306   -3.0605 C   0  0  0  0  0  0  0  0  0  0  0  0
   -1.0879   -0.0321   -3.6963 C   0  0  0  0  0  0  0  0  0  0  0  0
   -2.3857   -0.5755   -3.6917 C   0  0  0  0  0  0  0  0  0  0  0  0
   -3.4548    0.1269   -4.2473 C   0  0  0  0  0  0  0  0  0  0  0  0
   -3.2494    1.3869   -4.8055 C   0  0  0  0  0  0  0  0  0  0  0  0
   -1.9692    1.9441   -4.8226 C   0  0  0  0  0  0  0  0  0  0  0  0
   -0.8769    1.2504   -4.2703 C   0  0  0  0  0  0  0  0  0  0  0  0
    0.4971    1.8645   -4.3628 C   0  0  0  0  0  0  0  0  0  0  0  0
   -0.9775   -0.7388   -0.7590 C   0  0  0  0  0  0  0  0  0  0  0  0
   -1.3917   -1.9263   -0.6522 O   0  0  0  0  0  0  0  0  0  0  0  0
   -1.6927    0.3362   -0.1308 N   0  0  0  0  0  0  0  0  0  0  0  0
   -3.1113    0.2332    0.2240 C   0  0  1  0  0  0  0  0  0  0  0  0
   -3.3261    0.7359    1.6306 C   0  0  0  0  0  0  0  0  0  0  0  0
   -3.2308    2.0307    1.9861 C   0  0  0  0  0  0  0  0  0  0  0  0
   -3.4517    2.4633    3.4167 C   0  0  0  0  0  0  0  0  0  0  0  0
   -4.6933    3.3559    3.5801 C   0  0  0  0  0  0  0  0  0  0  0  0
   -5.8791    2.7731    2.9511 N   0  0  0  0  0  0  0  0  0  0  0  0
   -6.2913    1.4250    3.2117 C   0  0  0  0  0  0  0  0  0  0  0  0
   -6.4091    1.0306    4.4029 O   0  0  0  0  0  0  0  0  0  0  0  0
   -6.4487    0.4535    2.1114 C   0  0  0  0  0  0  0  0  0  0  0  0
   -6.4499    0.8303    0.8236 C   0  0  0  0  0  0  0  0  0  0  0  0
   -6.2894   -0.0787   -0.3794 C   0  0  2  0  0  0  0  0  0  0  0  0
   -6.0948   -1.6035   -0.0977 C   0  0  0  0  0  0  0  0  0  0  0  0
   -5.5125   -2.3427   -1.3163 C   0  0  0  0  0  0  0  0  0  0  0  0
   -7.4329   -2.2675    0.2783 C   0  0  0  0  0  0  0  0  0  0  0  0
   -5.2322    0.4705   -1.2448 N   0  0  0  0  0  0  0  0  0  0  0  0
   -3.9539    0.9634   -0.7979 C   0  0  0  0  0  0  0  0  0  0  0  0
   -3.5039    2.0210   -1.3167 O   0  0  0  0  0  0  0  0  0  0  0  0
   11.6655   -2.2029    2.9284 H   0  0  0  0  0  0  0  0  0  0  0  0
   12.2354   -0.5035    3.1256 H   0  0  0  0  0  0  0  0  0  0  0  0
   11.0940   -1.2094    4.3333 H   0  0  0  0  0  0  0  0  0  0  0  0
   10.5013   -0.6352    1.3581 H   0  0  0  0  0  0  0  0  0  0  0  0
    9.9417    0.3521    2.7605 H   0  0  0  0  0  0  0  0  0  0  0  0
    9.2673   -2.6283    2.2702 H   0  0  0  0  0  0  0  0  0  0  0  0
    8.6538   -1.6430    3.6405 H   0  0  0  0  0  0  0  0  0  0  0  0
    7.1127   -2.0296    1.5786 H   0  0  0  0  0  0  0  0  0  0  0  0
    8.1669   -0.8827    0.6784 H   0  0  0  0  0  0  0  0  0  0  0  0
    7.6950    0.7941    2.6525 H   0  0  0  0  0  0  0  0  0  0  0  0
    6.4380   -0.3546    3.1958 H   0  0  0  0  0  0  0  0  0  0  0  0
    6.5827    1.0433    0.4287 H   0  0  0  0  0  0  0  0  0  0  0  0
    5.5915    1.5501    1.8153 H   0  0  0  0  0  0  0  0  0  0  0  0
    3.9458    0.3802    0.7791 H   0  0  0  0  0  0  0  0  0  0  0  0
    4.6418   -1.0135    1.6580 H   0  0  0  0  0  0  0  0  0  0  0  0
    5.9683   -1.6421   -0.3768 H   0  0  0  0  0  0  0  0  0  0  0  0
    5.3986   -0.1871   -1.2422 H   0  0  0  0  0  0  0  0  0  0  0  0
    3.5662   -2.4306   -0.1512 H   0  0  0  0  0  0  0  0  0  0  0  0
    4.1979   -2.3621   -1.8263 H   0  0  0  0  0  0  0  0  0  0  0  0
    1.2457   -2.0150   -0.4221 H   0  0  0  0  0  0  0  0  0  0  0  0
    0.4732    0.6352   -1.5100 H   0  0  0  0  0  0  0  0  0  0  0  0
   -0.1884   -1.9189   -3.1330 H   0  0  0  0  0  0  0  0  0  0  0  0
    0.9701   -0.6812   -3.6335 H   0  0  0  0  0  0  0  0  0  0  0  0
   -2.5704   -1.5502   -3.2579 H   0  0  0  0  0  0  0  0  0  0  0  0
   -4.4463   -0.3067   -4.2394 H   0  0  0  0  0  0  0  0  0  0  0  0
   -4.0824    1.9322   -5.2318 H   0  0  0  0  0  0  0  0  0  0  0  0
   -1.8309    2.9197   -5.2746 H   0  0  0  0  0  0  0  0  0  0  0  0
    1.1251    1.2693   -5.0570 H   0  0  0  0  0  0  0  0  0  0  0  0
    0.9787    1.9007   -3.3665 H   0  0  0  0  0  0  0  0  0  0  0  0
    0.4551    2.9054   -4.7477 H   0  0  0  0  0  0  0  0  0  0  0  0
   -1.2376    1.2766   -0.0797 H   0  0  0  0  0  0  0  0  0  0  0  0
   -3.4030   -0.8326    0.2168 H   0  0  0  0  0  0  0  0  0  0  0  0
   -3.5510   -0.0074    2.3926 H   0  0  0  0  0  0  0  0  0  0  0  0
   -3.0062    2.7884    1.2411 H   0  0  0  0  0  0  0  0  0  0  0  0
   -3.5525    1.5829    4.0878 H   0  0  0  0  0  0  0  0  0  0  0  0
   -2.5567    3.0284    3.7564 H   0  0  0  0  0  0  0  0  0  0  0  0
   -4.8924    3.5136    4.6619 H   0  0  0  0  0  0  0  0  0  0  0  0
   -4.4888    4.3507    3.1267 H   0  0  0  0  0  0  0  0  0  0  0  0
   -6.3622    3.3286    2.2106 H   0  0  0  0  0  0  0  0  0  0  0  0
   -6.4380   -0.5905    2.3871 H   0  0  0  0  0  0  0  0  0  0  0  0
   -6.4949    1.8825    0.5796 H   0  0  0  0  0  0  0  0  0  0  0  0
   -7.2423    0.0185   -0.9459 H   0  0  0  0  0  0  0  0  0  0  0  0
   -5.3874   -1.7483    0.7444 H   0  0  0  0  0  0  0  0  0  0  0  0
   -4.4939   -1.9760   -1.5554 H   0  0  0  0  0  0  0  0  0  0  0  0
   -6.1609   -2.1973   -2.2076 H   0  0  0  0  0  0  0  0  0  0  0  0
   -5.4272   -3.4302   -1.1032 H   0  0  0  0  0  0  0  0  0  0  0  0
   -7.2676   -3.3290    0.5536 H   0  0  0  0  0  0  0  0  0  0  0  0
   -8.1385   -2.2331   -0.5772 H   0  0  0  0  0  0  0  0  0  0  0  0
   -7.9145   -1.7635    1.1369 H   0  0  0  0  0  0  0  0  0  0  0  0
   -5.5350    0.7846   -2.1950 H   0  0  0  0  0  0  0  0  0  0  0  0
  1  2  1  0
  2  3  1  0
  3  4  1  0
  4  5  1  0
  5  6  1  0
  6  7  1  0
  7  8  1  0
  8  9  1  0
  9 10  1  0
 10 11  2  0
 10 12  1  0
 12 13  1  0
 13 14  1  0
 14 15  1  0
 15 16  2  0
 16 17  1  0
 17 18  2  0
 18 19  1  0
 19 20  2  0
 20 21  1  0
 13 22  1  0
 22 23  2  0
 22 24  1  0
 24 25  1  0
 25 26  1  0
 26 27  2  0
 27 28  1  0
 28 29  1  0
 29 30  1  0
 30 31  1  0
 31 32  2  0
 31 33  1  0
 33 34  2  0
 34 35  1  0
 35 36  1  0
 36 37  1  0
 36 38  1  0
 35 39  1  0
 39 40  1  0
 40 41  2  0
 20 15  1  0
 40 25  1  0
  1 42  1  0
  1 43  1  0
  1 44  1  0
  2 45  1  0
  2 46  1  0
  3 47  1  0
  3 48  1  0
  4 49  1  0
  4 50  1  0
  5 51  1  0
  5 52  1  0
  6 53  1  0
  6 54  1  0
  7 55  1  0
  7 56  1  0
  8 57  1  0
  8 58  1  0
  9 59  1  0
  9 60  1  0
 12 61  1  0
 13 62  1  6
 14 63  1  0
 14 64  1  0
 16 65  1  0
 17 66  1  0
 18 67  1  0
 19 68  1  0
 21 69  1  0
 21 70  1  0
 21 71  1  0
 24 72  1  0
 25 73  1  1
 26 74  1  0
 27 75  1  0
 28 76  1  0
 28 77  1  0
 29 78  1  0
 29 79  1  0
 30 80  1  0
 33 81  1  0
 34 82  1  0
 35 83  1  6
 36 84  1  0
 37 85  1  0
 37 86  1  0
 37 87  1  0
 38 88  1  0
 38 89  1  0
 38 90  1  0
 39 91  1  0
M  END
$$$$
