
     RDKit          3D

 69 73  0  0  0  0  0  0  0  0999 V2000
    3.1968   -0.1940    4.5384 C   0  0  0  0  0  0  0  0  0  0  0  0
    3.6022   -0.6177    3.1650 C   0  0  0  0  0  0  0  0  0  0  0  0
    4.5092   -1.5323    2.9160 O   0  0  0  0  0  0  0  0  0  0  0  0
    4.6407   -1.7313    1.6349 N   0  0  0  0  0  0  0  0  0  0  0  0
    3.7738   -0.9074    1.0122 C   0  0  0  0  0  0  0  0  0  0  0  0
    3.6660   -0.8001   -0.4556 C   0  0  0  0  0  0  0  0  0  0  0  0
    3.7184    0.4678   -1.0564 C   0  0  0  0  0  0  0  0  0  0  0  0
    3.6437    0.5968   -2.4459 C   0  0  0  0  0  0  0  0  0  0  0  0
    3.5190   -0.5384   -3.2474 C   0  0  0  0  0  0  0  0  0  0  0  0
    3.4748   -1.8070   -2.6611 C   0  0  0  0  0  0  0  0  0  0  0  0
    3.5591   -1.9484   -1.2722 C   0  0  0  0  0  0  0  0  0  0  0  0
    3.4515   -3.5666   -0.5870 Cl  0  0  0  0  0  0  0  0  0  0  0  0
    3.0957   -0.1592    1.9621 C   0  0  0  0  0  0  0  0  0  0  0  0
    1.9441    0.7452    1.7749 C   0  0  0  0  0  0  0  0  0  0  0  0
    1.8243    1.7392    2.5393 O   0  0  0  0  0  0  0  0  0  0  0  0
    0.8982    0.4266    0.8244 N   0  0  0  0  0  0  0  0  0  0  0  0
    0.2713   -0.8991    1.0110 C   0  0  0  0  0  0  0  0  0  0  0  0
   -0.0939   -1.5933   -0.3115 C   0  0  0  0  0  0  0  0  0  0  0  0
   -0.4382   -3.0825   -0.1037 C   0  0  0  0  0  0  0  0  0  0  0  0
   -1.6100   -3.3333    0.8657 C   0  0  0  0  0  0  0  0  0  0  0  0
   -2.8734   -2.8035    0.3333 N   0  0  0  0  0  0  0  0  0  0  0  0
   -3.5890   -3.5774   -0.6863 C   0  0  0  0  0  0  0  0  0  0  0  0
   -3.3565   -1.5182    0.7802 C   0  0  0  0  0  0  0  0  0  0  0  0
   -3.3614   -1.2530    2.0107 O   0  0  0  0  0  0  0  0  0  0  0  0
   -3.6760   -0.4413   -0.1834 C   0  0  0  0  0  0  0  0  0  0  0  0
   -4.6329   -0.6514   -1.1915 C   0  0  0  0  0  0  0  0  0  0  0  0
   -4.7992    0.2772   -2.2187 C   0  0  0  0  0  0  0  0  0  0  0  0
   -3.9893    1.4074   -2.2670 C   0  0  0  0  0  0  0  0  0  0  0  0
   -3.0518    1.6429   -1.2576 C   0  0  0  0  0  0  0  0  0  0  0  0
   -2.9527    0.7728   -0.1523 C   0  0  0  0  0  0  0  0  0  0  0  0
   -2.1631    1.0635    0.9849 O   0  0  0  0  0  0  0  0  0  0  0  0
   -1.0539    1.9745    1.0978 C   0  0  0  0  0  0  0  0  0  0  0  0
   -1.5268    3.4551    1.0225 C   0  0  0  0  0  0  0  0  0  0  0  0
   -0.5145    4.4456    0.4322 C   0  0  0  0  0  0  0  0  0  0  0  0
    0.2312    3.8716   -0.7674 C   0  0  0  0  0  0  0  0  0  0  0  0
    1.0344    2.6531   -0.3309 C   0  0  0  0  0  0  0  0  0  0  0  0
    0.1159    1.5121    0.1679 C   0  0  0  0  0  0  0  0  0  0  0  0
    3.5978    0.8192    4.7451 H   0  0  0  0  0  0  0  0  0  0  0  0
    3.6021   -0.9070    5.2843 H   0  0  0  0  0  0  0  0  0  0  0  0
    2.0899   -0.1727    4.6208 H   0  0  0  0  0  0  0  0  0  0  0  0
    3.8356    1.3583   -0.4473 H   0  0  0  0  0  0  0  0  0  0  0  0
    3.6866    1.5798   -2.9002 H   0  0  0  0  0  0  0  0  0  0  0  0
    3.4566   -0.4351   -4.3238 H   0  0  0  0  0  0  0  0  0  0  0  0
    3.3746   -2.6803   -3.2896 H   0  0  0  0  0  0  0  0  0  0  0  0
    0.9383   -1.5792    1.5818 H   0  0  0  0  0  0  0  0  0  0  0  0
   -0.6318   -0.7773    1.6328 H   0  0  0  0  0  0  0  0  0  0  0  0
    0.7684   -1.5241   -1.0099 H   0  0  0  0  0  0  0  0  0  0  0  0
   -0.9517   -1.0893   -0.7984 H   0  0  0  0  0  0  0  0  0  0  0  0
   -0.6784   -3.5352   -1.0890 H   0  0  0  0  0  0  0  0  0  0  0  0
    0.4606   -3.6017    0.2872 H   0  0  0  0  0  0  0  0  0  0  0  0
   -1.7048   -4.4299    1.0285 H   0  0  0  0  0  0  0  0  0  0  0  0
   -1.3866   -2.9143    1.8649 H   0  0  0  0  0  0  0  0  0  0  0  0
   -3.2150   -4.6204   -0.7398 H   0  0  0  0  0  0  0  0  0  0  0  0
   -3.4483   -3.1124   -1.6827 H   0  0  0  0  0  0  0  0  0  0  0  0
   -4.6682   -3.6264   -0.4366 H   0  0  0  0  0  0  0  0  0  0  0  0
   -5.2656   -1.5254   -1.1795 H   0  0  0  0  0  0  0  0  0  0  0  0
   -5.5418    0.1101   -2.9873 H   0  0  0  0  0  0  0  0  0  0  0  0
   -4.0867    2.1094   -3.0856 H   0  0  0  0  0  0  0  0  0  0  0  0
   -2.4348    2.5133   -1.3555 H   0  0  0  0  0  0  0  0  0  0  0  0
   -0.6788    1.8617    2.1367 H   0  0  0  0  0  0  0  0  0  0  0  0
   -2.5012    3.5540    0.5021 H   0  0  0  0  0  0  0  0  0  0  0  0
   -1.7599    3.8009    2.0563 H   0  0  0  0  0  0  0  0  0  0  0  0
    0.2115    4.7477    1.2209 H   0  0  0  0  0  0  0  0  0  0  0  0
   -1.0543    5.3612    0.1074 H   0  0  0  0  0  0  0  0  0  0  0  0
    0.9277    4.6378   -1.1670 H   0  0  0  0  0  0  0  0  0  0  0  0
   -0.4747    3.6069   -1.5806 H   0  0  0  0  0  0  0  0  0  0  0  0
    1.6198    2.2896   -1.1967 H   0  0  0  0  0  0  0  0  0  0  0  0
    1.7617    2.9799    0.4388 H   0  0  0  0  0  0  0  0  0  0  0  0
   -0.3362    1.1043   -0.7582 H   0  0  0  0  0  0  0  0  0  0  0  0
  1  2  1  0
  2  3  1  0
  3  4  1  0
  4  5  2  0
  5  6  1  0
  6  7  2  0
  7  8  1  0
  8  9  2  0
  9 10  1  0
 10 11  2  0
 11 12  1  0
  5 13  1  0
 13 14  1  0
 14 15  2  0
 14 16  1  0
 16 17  1  0
 17 18  1  0
 18 19  1  0
 19 20  1  0
 20 21  1  0
 21 22  1  0
 21 23  1  0
 23 24  2  0
 23 25  1  0
 25 26  2  0
 26 27  1  0
 27 28  2  0
 28 29  1  0
 29 30  2  0
 30 31  1  0
 31 32  1  0
 32 33  1  0
 33 34  1  0
 34 35  1  0
 35 36  1  0
 36 37  1  0
 13  2  2  0
 37 16  1  0
 11  6  1  0
 30 25  1  0
 37 32  1  0
  1 38  1  0
  1 39  1  0
  1 40  1  0
  7 41  1  0
  8 42  1  0
  9 43  1  0
 10 44  1  0
 17 45  1  0
 17 46  1  0
 18 47  1  0
 18 48  1  0
 19 49  1  0
 19 50  1  0
 20 51  1  0
 20 52  1  0
 22 53  1  0
 22 54  1  0
 22 55  1  0
 26 56  1  0
 27 57  1  0
 28 58  1  0
 29 59  1  0
 32 60  1  0
 33 61  1  0
 33 62  1  0
 34 63  1  0
 34 64  1  0
 35 65  1  0
 35 66  1  0
 36 67  1  0
 36 68  1  0
 37 69  1  0
M  END
$$$$
