
     RDKit          3D

 79 83  0  0  0  0  0  0  0  0999 V2000
   -0.1439    1.4872   -1.0190 O   0  0  0  0  0  0  0  0  0  0  0  0
   -0.0151    1.5164    0.2356 C   0  0  0  0  0  0  0  0  0  0  0  0
    1.3656    1.4193    0.8413 C   0  0  0  0  0  0  0  0  0  0  0  0
    1.7686   -0.0035    1.3041 C   0  0  0  0  0  0  0  0  0  0  0  0
    2.0309   -0.9312    0.1393 C   0  0  0  0  0  0  0  0  0  0  0  0
    1.3514   -0.8334   -0.9177 O   0  0  0  0  0  0  0  0  0  0  0  0
    3.0354   -1.9510    0.2516 N   0  0  0  0  0  0  0  0  0  0  0  0
    3.5417   -2.6964   -0.9014 C   0  0  0  0  0  0  0  0  0  0  0  0
    5.0249   -2.3893   -1.1307 C   0  0  0  0  0  0  0  0  0  0  0  0
    5.2694   -0.9452   -1.1552 N   0  0  0  0  0  0  0  0  0  0  0  0
    4.8408   -0.0580   -2.2227 C   0  0  0  0  0  0  0  0  0  0  0  0
    5.2189    1.3651   -1.7696 C   0  0  0  0  0  0  0  0  0  0  0  0
    5.6122    1.2790   -0.2868 C   0  0  0  0  0  0  0  0  0  0  0  0
    5.6753   -0.1741   -0.0393 C   0  0  0  0  0  0  0  0  0  0  0  0
    6.0423   -0.6819    1.0532 O   0  0  0  0  0  0  0  0  0  0  0  0
    0.7888   -0.5399    2.2605 N   0  0  0  0  0  0  0  0  0  0  0  0
    0.8255   -1.8763    2.7857 C   0  0  0  0  0  0  0  0  0  0  0  0
    0.9488   -2.0358    4.0312 O   0  0  0  0  0  0  0  0  0  0  0  0
    0.6990   -3.0695    1.9213 C   0  0  0  0  0  0  0  0  0  0  0  0
    1.4762   -4.2035    2.2218 C   0  0  0  0  0  0  0  0  0  0  0  0
    1.4707   -5.3126    1.3732 C   0  0  0  0  0  0  0  0  0  0  0  0
    0.6872   -5.3080    0.2202 C   0  0  0  0  0  0  0  0  0  0  0  0
   -0.1106   -4.2026   -0.0753 C   0  0  0  0  0  0  0  0  0  0  0  0
   -0.1341   -3.0895    0.7768 C   0  0  0  0  0  0  0  0  0  0  0  0
   -0.9765   -2.0213    0.4452 O   0  0  0  0  0  0  0  0  0  0  0  0
   -2.0668   -1.6020    1.2646 C   0  0  0  0  0  0  0  0  0  0  0  0
   -3.2267   -1.1170    0.3834 C   0  0  0  0  0  0  0  0  0  0  0  0
   -3.7372   -2.2346   -0.5296 C   0  0  0  0  0  0  0  0  0  0  0  0
   -3.0689   -1.9983   -1.8771 C   0  0  0  0  0  0  0  0  0  0  0  0
   -2.6789   -0.5270   -1.8923 C   0  0  0  0  0  0  0  0  0  0  0  0
   -2.7895   -0.0506   -0.5157 N   0  0  0  0  0  0  0  0  0  0  0  0
   -3.2090    1.3049   -0.2855 C   0  0  0  0  0  0  0  0  0  0  0  0
   -4.2921    1.6959   -0.7996 O   0  0  0  0  0  0  0  0  0  0  0  0
   -2.4482    2.2513    0.6191 C   0  0  0  0  0  0  0  0  0  0  0  0
   -2.2107    3.6309   -0.0424 C   0  0  0  0  0  0  0  0  0  0  0  0
   -3.4641    4.4689   -0.1147 C   0  0  0  0  0  0  0  0  0  0  0  0
   -4.1405    4.6402   -1.3360 C   0  0  0  0  0  0  0  0  0  0  0  0
   -5.3152    5.3958   -1.3911 C   0  0  0  0  0  0  0  0  0  0  0  0
   -5.8195    5.9926   -0.2316 C   0  0  0  0  0  0  0  0  0  0  0  0
   -5.1496    5.8349    0.9844 C   0  0  0  0  0  0  0  0  0  0  0  0
   -3.9762    5.0756    1.0452 C   0  0  0  0  0  0  0  0  0  0  0  0
   -1.1703    1.6886    1.0761 N   0  0  0  0  0  0  0  0  0  0  0  0
    1.4144    2.1083    1.7130 H   0  0  0  0  0  0  0  0  0  0  0  0
    2.1160    1.7942    0.1088 H   0  0  0  0  0  0  0  0  0  0  0  0
    2.7329    0.1139    1.8462 H   0  0  0  0  0  0  0  0  0  0  0  0
    3.4873   -2.1161    1.1779 H   0  0  0  0  0  0  0  0  0  0  0  0
    2.9696   -2.4504   -1.8218 H   0  0  0  0  0  0  0  0  0  0  0  0
    3.4160   -3.7850   -0.7143 H   0  0  0  0  0  0  0  0  0  0  0  0
    5.6272   -2.8656   -0.3276 H   0  0  0  0  0  0  0  0  0  0  0  0
    5.3465   -2.8309   -2.0994 H   0  0  0  0  0  0  0  0  0  0  0  0
    5.3503   -0.3255   -3.1740 H   0  0  0  0  0  0  0  0  0  0  0  0
    3.7403   -0.1278   -2.3553 H   0  0  0  0  0  0  0  0  0  0  0  0
    4.3651    2.0639   -1.9102 H   0  0  0  0  0  0  0  0  0  0  0  0
    6.0842    1.7278   -2.3685 H   0  0  0  0  0  0  0  0  0  0  0  0
    4.8307    1.7372    0.3578 H   0  0  0  0  0  0  0  0  0  0  0  0
    6.6014    1.7477   -0.1034 H   0  0  0  0  0  0  0  0  0  0  0  0
    0.4145    0.1565    2.9418 H   0  0  0  0  0  0  0  0  0  0  0  0
    2.1202   -4.2141    3.0935 H   0  0  0  0  0  0  0  0  0  0  0  0
    2.0896   -6.1697    1.6012 H   0  0  0  0  0  0  0  0  0  0  0  0
    0.6919   -6.1637   -0.4432 H   0  0  0  0  0  0  0  0  0  0  0  0
   -0.7276   -4.2195   -0.9627 H   0  0  0  0  0  0  0  0  0  0  0  0
   -2.4198   -2.4454    1.8987 H   0  0  0  0  0  0  0  0  0  0  0  0
   -1.7488   -0.7862    1.9382 H   0  0  0  0  0  0  0  0  0  0  0  0
   -4.0588   -0.7667    1.0385 H   0  0  0  0  0  0  0  0  0  0  0  0
   -3.5160   -3.2544   -0.1407 H   0  0  0  0  0  0  0  0  0  0  0  0
   -4.8366   -2.1329   -0.6483 H   0  0  0  0  0  0  0  0  0  0  0  0
   -2.1570   -2.6230   -1.9607 H   0  0  0  0  0  0  0  0  0  0  0  0
   -3.7543   -2.2476   -2.7179 H   0  0  0  0  0  0  0  0  0  0  0  0
   -3.3710    0.0311   -2.5613 H   0  0  0  0  0  0  0  0  0  0  0  0
   -1.6354   -0.3991   -2.2538 H   0  0  0  0  0  0  0  0  0  0  0  0
   -3.0836    2.4057    1.5206 H   0  0  0  0  0  0  0  0  0  0  0  0
   -1.4555    4.1939    0.5496 H   0  0  0  0  0  0  0  0  0  0  0  0
   -1.7789    3.4988   -1.0594 H   0  0  0  0  0  0  0  0  0  0  0  0
   -3.7656    4.1757   -2.2414 H   0  0  0  0  0  0  0  0  0  0  0  0
   -5.8381    5.5169   -2.3319 H   0  0  0  0  0  0  0  0  0  0  0  0
   -6.7301    6.5760   -0.2746 H   0  0  0  0  0  0  0  0  0  0  0  0
   -5.5424    6.2982    1.8808 H   0  0  0  0  0  0  0  0  0  0  0  0
   -3.4683    4.9578    1.9951 H   0  0  0  0  0  0  0  0  0  0  0  0
   -1.0403    1.6258    2.1082 H   0  0  0  0  0  0  0  0  0  0  0  0
  1  2  2  0
  2  3  1  0
  3  4  1  0
  4  5  1  0
  5  6  2  0
  5  7  1  0
  7  8  1  0
  8  9  1  0
  9 10  1  0
 10 11  1  0
 11 12  1  0
 12 13  1  0
 13 14  1  0
 14 15  2  0
  4 16  1  0
 16 17  1  0
 17 18  2  0
 17 19  1  0
 19 20  2  0
 20 21  1  0
 21 22  2  0
 22 23  1  0
 23 24  2  0
 24 25  1  0
 25 26  1  0
 26 27  1  0
 27 28  1  0
 28 29  1  0
 29 30  1  0
 30 31  1  0
 31 32  1  0
 32 33  2  0
 32 34  1  0
 34 35  1  0
 35 36  1  0
 36 37  2  0
 37 38  1  0
 38 39  2  0
 39 40  1  0
 40 41  2  0
 34 42  1  0
 42  2  1  0
 14 10  1  0
 24 19  1  0
 31 27  1  0
 41 36  1  0
  3 43  1  0
  3 44  1  0
  4 45  1  0
  7 46  1  0
  8 47  1  0
  8 48  1  0
  9 49  1  0
  9 50  1  0
 11 51  1  0
 11 52  1  0
 12 53  1  0
 12 54  1  0
 13 55  1  0
 13 56  1  0
 16 57  1  0
 20 58  1  0
 21 59  1  0
 22 60  1  0
 23 61  1  0
 26 62  1  0
 26 63  1  0
 27 64  1  0
 28 65  1  0
 28 66  1  0
 29 67  1  0
 29 68  1  0
 30 69  1  0
 30 70  1  0
 34 71  1  0
 35 72  1  0
 35 73  1  0
 37 74  1  0
 38 75  1  0
 39 76  1  0
 40 77  1  0
 41 78  1  0
 42 79  1  0
M  END
$$$$
