
     RDKit          3D

 72 75  0  0  0  0  0  0  0  0999 V2000
   -2.0973    0.4444    2.3159 O   0  0  0  0  0  0  0  0  0  0  0  0
   -1.1149    0.5518    1.5338 C   0  0  0  0  0  0  0  0  0  0  0  0
   -1.2830    0.1715    0.0810 C   0  0  0  0  0  0  0  0  0  0  0  0
   -2.3204   -0.8620   -0.1100 N   0  0  0  0  0  0  0  0  0  0  0  0
   -3.4767   -0.5375   -0.9083 C   0  0  0  0  0  0  0  0  0  0  0  0
   -3.3440    0.1776   -1.9388 O   0  0  0  0  0  0  0  0  0  0  0  0
   -4.8459   -1.0583   -0.5555 C   0  0  0  0  0  0  0  0  0  0  0  0
   -5.8593    0.0033   -0.7087 N   0  0  0  0  0  0  0  0  0  0  0  0
   -5.7384    1.0498    0.3152 C   0  0  0  0  0  0  0  0  0  0  0  0
   -7.1306    1.6359    0.5153 C   0  0  0  0  0  0  0  0  0  0  0  0
   -8.0865    0.6442   -0.1287 C   0  0  0  0  0  0  0  0  0  0  0  0
   -7.2160   -0.5250   -0.5558 C   0  0  0  0  0  0  0  0  0  0  0  0
   -2.2562   -2.1742    0.5689 C   0  0  0  0  0  0  0  0  0  0  0  0
   -0.8351   -2.7504    0.6614 C   0  0  0  0  0  0  0  0  0  0  0  0
   -0.2529   -3.1708   -0.7088 C   0  0  0  0  0  0  0  0  0  0  0  0
    1.2383   -2.8177   -0.8755 C   0  0  0  0  0  0  0  0  0  0  0  0
    2.0250   -3.1640    0.3125 N   0  0  0  0  0  0  0  0  0  0  0  0
    3.2782   -2.5384    0.6263 C   0  0  0  0  0  0  0  0  0  0  0  0
    3.7582   -2.6676    1.7833 O   0  0  0  0  0  0  0  0  0  0  0  0
    4.0693   -1.8300   -0.3941 C   0  0  0  0  0  0  0  0  0  0  0  0
    5.1019   -2.5579   -1.0088 C   0  0  0  0  0  0  0  0  0  0  0  0
    5.8858   -1.9811   -2.0098 C   0  0  0  0  0  0  0  0  0  0  0  0
    7.1667   -2.9097   -2.7673 Cl  0  0  0  0  0  0  0  0  0  0  0  0
    5.6454   -0.6681   -2.4104 C   0  0  0  0  0  0  0  0  0  0  0  0
    4.6276    0.0704   -1.8073 C   0  0  0  0  0  0  0  0  0  0  0  0
    3.8376   -0.4809   -0.7887 C   0  0  0  0  0  0  0  0  0  0  0  0
    2.8526    0.3662   -0.2520 O   0  0  0  0  0  0  0  0  0  0  0  0
    2.1840    0.2472    1.0014 C   0  0  0  0  0  0  0  0  0  0  0  0
    1.2581    1.4651    1.1884 C   0  0  0  0  0  0  0  0  0  0  0  0
    2.0092    2.6687    1.7959 C   0  0  0  0  0  0  0  0  0  0  0  0
    3.1356    3.1369    0.9073 C   0  0  0  0  0  0  0  0  0  0  0  0
    2.8589    3.8868   -0.2488 C   0  0  0  0  0  0  0  0  0  0  0  0
    3.8958    4.2655   -1.1077 C   0  0  0  0  0  0  0  0  0  0  0  0
    5.2134    3.8966   -0.8206 C   0  0  0  0  0  0  0  0  0  0  0  0
    5.4964    3.1506    0.3267 C   0  0  0  0  0  0  0  0  0  0  0  0
    4.4630    2.7700    1.1881 C   0  0  0  0  0  0  0  0  0  0  0  0
    0.1154    1.1038    2.0379 N   0  0  0  0  0  0  0  0  0  0  0  0
   -1.5408    1.0985   -0.4740 H   0  0  0  0  0  0  0  0  0  0  0  0
   -0.3309   -0.1946   -0.3454 H   0  0  0  0  0  0  0  0  0  0  0  0
   -5.0751   -1.8953   -1.2519 H   0  0  0  0  0  0  0  0  0  0  0  0
   -4.8589   -1.4645    0.4807 H   0  0  0  0  0  0  0  0  0  0  0  0
   -5.0300    1.8360   -0.0268 H   0  0  0  0  0  0  0  0  0  0  0  0
   -5.3756    0.6364    1.2855 H   0  0  0  0  0  0  0  0  0  0  0  0
   -7.3537    1.7565    1.5983 H   0  0  0  0  0  0  0  0  0  0  0  0
   -7.2104    2.6267    0.0156 H   0  0  0  0  0  0  0  0  0  0  0  0
   -8.8745    0.3174    0.5843 H   0  0  0  0  0  0  0  0  0  0  0  0
   -8.5674    1.1050   -1.0203 H   0  0  0  0  0  0  0  0  0  0  0  0
   -7.5737   -0.9506   -1.5168 H   0  0  0  0  0  0  0  0  0  0  0  0
   -7.2581   -1.3130    0.2322 H   0  0  0  0  0  0  0  0  0  0  0  0
   -2.6679   -2.0684    1.5953 H   0  0  0  0  0  0  0  0  0  0  0  0
   -2.8887   -2.9166    0.0338 H   0  0  0  0  0  0  0  0  0  0  0  0
   -0.1832   -2.0322    1.1913 H   0  0  0  0  0  0  0  0  0  0  0  0
   -0.8747   -3.6510    1.3122 H   0  0  0  0  0  0  0  0  0  0  0  0
   -0.3817   -4.2684   -0.8351 H   0  0  0  0  0  0  0  0  0  0  0  0
   -0.8126   -2.6835   -1.5375 H   0  0  0  0  0  0  0  0  0  0  0  0
    1.6529   -3.3530   -1.7564 H   0  0  0  0  0  0  0  0  0  0  0  0
    1.3154   -1.7311   -1.0808 H   0  0  0  0  0  0  0  0  0  0  0  0
    1.6319   -3.8349    1.0114 H   0  0  0  0  0  0  0  0  0  0  0  0
    5.2925   -3.5833   -0.7141 H   0  0  0  0  0  0  0  0  0  0  0  0
    6.2470   -0.2166   -3.1894 H   0  0  0  0  0  0  0  0  0  0  0  0
    4.4566    1.0908   -2.1277 H   0  0  0  0  0  0  0  0  0  0  0  0
    1.5703   -0.6639    1.0098 H   0  0  0  0  0  0  0  0  0  0  0  0
    2.9245    0.1762    1.8274 H   0  0  0  0  0  0  0  0  0  0  0  0
    0.8725    1.7873    0.1955 H   0  0  0  0  0  0  0  0  0  0  0  0
    2.3977    2.4023    2.8036 H   0  0  0  0  0  0  0  0  0  0  0  0
    1.2938    3.5077    1.9396 H   0  0  0  0  0  0  0  0  0  0  0  0
    1.8401    4.1677   -0.4874 H   0  0  0  0  0  0  0  0  0  0  0  0
    3.6777    4.8403   -1.9992 H   0  0  0  0  0  0  0  0  0  0  0  0
    6.0147    4.1855   -1.4891 H   0  0  0  0  0  0  0  0  0  0  0  0
    6.5159    2.8612    0.5451 H   0  0  0  0  0  0  0  0  0  0  0  0
    4.6956    2.1771    2.0642 H   0  0  0  0  0  0  0  0  0  0  0  0
    0.1996    1.2357    3.0724 H   0  0  0  0  0  0  0  0  0  0  0  0
  1  2  2  0
  2  3  1  0
  3  4  1  0
  4  5  1  0
  5  6  2  0
  5  7  1  0
  7  8  1  0
  8  9  1  0
  9 10  1  0
 10 11  1  0
 11 12  1  0
  4 13  1  0
 13 14  1  0
 14 15  1  0
 15 16  1  0
 16 17  1  0
 17 18  1  0
 18 19  2  0
 18 20  1  0
 20 21  2  0
 21 22  1  0
 22 23  1  0
 22 24  2  0
 24 25  1  0
 25 26  2  0
 26 27  1  0
 27 28  1  0
 28 29  1  0
 29 30  1  0
 30 31  1  0
 31 32  2  0
 32 33  1  0
 33 34  2  0
 34 35  1  0
 35 36  2  0
 29 37  1  0
 37  2  1  0
 12  8  1  0
 26 20  1  0
 36 31  1  0
  3 38  1  0
  3 39  1  0
  7 40  1  0
  7 41  1  0
  9 42  1  0
  9 43  1  0
 10 44  1  0
 10 45  1  0
 11 46  1  0
 11 47  1  0
 12 48  1  0
 12 49  1  0
 13 50  1  0
 13 51  1  0
 14 52  1  0
 14 53  1  0
 15 54  1  0
 15 55  1  0
 16 56  1  0
 16 57  1  0
 17 58  1  0
 21 59  1  0
 24 60  1  0
 25 61  1  0
 28 62  1  0
 28 63  1  0
 29 64  1  0
 30 65  1  0
 30 66  1  0
 32 67  1  0
 33 68  1  0
 34 69  1  0
 35 70  1  0
 36 71  1  0
 37 72  1  0
M  END
$$$$
