
     RDKit          3D

 72 73  0  0  0  0  0  0  0  0999 V2000
   -5.0298   -1.6989    2.9903 C   0  0  0  0  0  0  0  0  0  0  0  0
   -5.1343   -0.5023    2.1466 N   0  0  0  0  0  0  0  0  0  0  0  0
   -4.5568   -0.7401    0.8129 C   0  0  0  0  0  0  0  0  0  0  0  0
   -3.0392   -0.4277    0.8174 C   0  0  2  0  0  0  0  0  0  0  0  0
   -2.8071    0.8831    0.3311 O   0  0  0  0  0  0  0  0  0  0  0  0
   -2.9284    1.8658    1.3373 C   0  0  0  0  0  0  0  0  0  0  0  0
   -2.3080    3.1582    0.8052 C   0  0  0  0  0  0  0  0  0  0  0  0
   -0.7684    3.0540    0.7233 C   0  0  0  0  0  0  0  0  0  0  0  0
   -0.1770    3.7773   -0.4978 C   0  0  0  0  0  0  0  0  0  0  0  0
   -0.2518    2.9442   -1.8058 C   0  0  1  0  0  0  0  0  0  0  0  0
    0.3294    3.6892   -3.0107 C   0  0  0  0  0  0  0  0  0  0  0  0
    0.2852    1.6098   -1.6984 O   0  0  0  0  0  0  0  0  0  0  0  0
    1.5835    1.1871   -1.3404 C   0  0  0  0  0  0  0  0  0  0  0  0
    2.6301    2.0809   -1.0429 C   0  0  0  0  0  0  0  0  0  0  0  0
    3.8544    1.6147   -0.5603 C   0  0  0  0  0  0  0  0  0  0  0  0
    4.0709    0.2451   -0.3818 C   0  0  0  0  0  0  0  0  0  0  0  0
    5.3086   -0.2535    0.1499 N   0  0  0  0  0  0  0  0  0  0  0  0
    6.2198    0.5960    1.3584 S   0  0  0  0  0  6  0  0  0  0  0  0
    5.1402    1.1183    2.6728 C   0  0  0  0  0  0  0  0  0  0  0  0
    6.9089    1.7827    0.7458 O   0  0  0  0  0  0  0  0  0  0  0  0
    7.2561   -0.3284    1.9305 O   0  0  0  0  0  0  0  0  0  0  0  0
    3.0677   -0.6561   -0.7563 C   0  0  0  0  0  0  0  0  0  0  0  0
    1.8358   -0.2011   -1.2477 C   0  0  0  0  0  0  0  0  0  0  0  0
    0.8321   -1.1904   -1.6938 C   0  0  0  0  0  0  0  0  0  0  0  0
    0.5489   -1.2652   -2.9167 O   0  0  0  0  0  0  0  0  0  0  0  0
    0.1114   -1.9963   -0.7415 N   0  0  0  0  0  0  0  0  0  0  0  0
    0.2180   -3.4727   -0.6978 C   0  0  1  0  0  0  0  0  0  0  0  0
    0.0645   -4.1166   -2.0850 C   0  0  0  0  0  0  0  0  0  0  0  0
    1.5420   -3.8966   -0.0433 C   0  0  0  0  0  0  0  0  0  0  0  0
    1.4662   -5.2328    0.3795 O   0  0  0  0  0  0  0  0  0  0  0  0
   -0.7341   -1.3039    0.2400 C   0  0  0  0  0  0  0  0  0  0  0  0
   -2.2453   -1.4163   -0.0803 C   0  0  2  0  0  0  0  0  0  0  0  0
   -2.5461   -1.1654   -1.5731 C   0  0  0  0  0  0  0  0  0  0  0  0
   -3.9715   -2.0350    3.0698 H   0  0  0  0  0  0  0  0  0  0  0  0
   -5.6493   -2.5273    2.5760 H   0  0  0  0  0  0  0  0  0  0  0  0
   -5.3917   -1.4627    4.0143 H   0  0  0  0  0  0  0  0  0  0  0  0
   -6.1535   -0.2869    2.0350 H   0  0  0  0  0  0  0  0  0  0  0  0
   -5.0604   -0.0743    0.0752 H   0  0  0  0  0  0  0  0  0  0  0  0
   -4.7645   -1.7814    0.4771 H   0  0  0  0  0  0  0  0  0  0  0  0
   -2.6417   -0.5625    1.8497 H   0  0  0  0  0  0  0  0  0  0  0  0
   -4.0053    2.0457    1.5564 H   0  0  0  0  0  0  0  0  0  0  0  0
   -2.4045    1.5825    2.2799 H   0  0  0  0  0  0  0  0  0  0  0  0
   -2.5819    4.0004    1.4799 H   0  0  0  0  0  0  0  0  0  0  0  0
   -2.7533    3.3786   -0.1894 H   0  0  0  0  0  0  0  0  0  0  0  0
   -0.4261    2.0003    0.7171 H   0  0  0  0  0  0  0  0  0  0  0  0
   -0.3440    3.5013    1.6453 H   0  0  0  0  0  0  0  0  0  0  0  0
   -0.7157    4.7388   -0.6465 H   0  0  0  0  0  0  0  0  0  0  0  0
    0.8618    4.0614   -0.2608 H   0  0  0  0  0  0  0  0  0  0  0  0
   -1.3332    2.8175   -2.0329 H   0  0  0  0  0  0  0  0  0  0  0  0
    1.3889    3.9694   -2.8587 H   0  0  0  0  0  0  0  0  0  0  0  0
    0.2541    3.0512   -3.9180 H   0  0  0  0  0  0  0  0  0  0  0  0
   -0.2496    4.6207   -3.1911 H   0  0  0  0  0  0  0  0  0  0  0  0
    2.5329    3.1401   -1.1754 H   0  0  0  0  0  0  0  0  0  0  0  0
    4.6304    2.3316   -0.3335 H   0  0  0  0  0  0  0  0  0  0  0  0
    5.5481   -1.2579    0.0029 H   0  0  0  0  0  0  0  0  0  0  0  0
    5.7384    1.5819    3.4842 H   0  0  0  0  0  0  0  0  0  0  0  0
    4.5952    0.2395    3.0729 H   0  0  0  0  0  0  0  0  0  0  0  0
    4.4079    1.8604    2.2898 H   0  0  0  0  0  0  0  0  0  0  0  0
    3.2581   -1.7144   -0.6706 H   0  0  0  0  0  0  0  0  0  0  0  0
   -0.6051   -3.8769   -0.0669 H   0  0  0  0  0  0  0  0  0  0  0  0
   -0.9098   -3.8506   -2.5353 H   0  0  0  0  0  0  0  0  0  0  0  0
    0.0980   -5.2225   -1.9901 H   0  0  0  0  0  0  0  0  0  0  0  0
    0.8832   -3.8067   -2.7673 H   0  0  0  0  0  0  0  0  0  0  0  0
    1.7442   -3.2408    0.8338 H   0  0  0  0  0  0  0  0  0  0  0  0
    2.3744   -3.7914   -0.7718 H   0  0  0  0  0  0  0  0  0  0  0  0
    2.3239   -5.4207    0.8402 H   0  0  0  0  0  0  0  0  0  0  0  0
   -0.5411   -1.7251    1.2496 H   0  0  0  0  0  0  0  0  0  0  0  0
   -0.4484   -0.2350    0.2941 H   0  0  0  0  0  0  0  0  0  0  0  0
   -2.5607   -2.4556    0.1672 H   0  0  0  0  0  0  0  0  0  0  0  0
   -2.1377   -1.9830   -2.1953 H   0  0  0  0  0  0  0  0  0  0  0  0
   -3.6395   -1.1470   -1.7584 H   0  0  0  0  0  0  0  0  0  0  0  0
   -2.0987   -0.2059   -1.9161 H   0  0  0  0  0  0  0  0  0  0  0  0
  1  2  1  0
  2  3  1  0
  3  4  1  0
  4  5  1  0
  5  6  1  0
  6  7  1  0
  7  8  1  0
  8  9  1  0
  9 10  1  0
 10 11  1  0
 10 12  1  0
 12 13  1  0
 13 14  2  0
 14 15  1  0
 15 16  2  0
 16 17  1  0
 17 18  1  0
 18 19  1  0
 18 20  2  0
 18 21  2  0
 16 22  1  0
 22 23  2  0
 23 24  1  0
 24 25  2  0
 24 26  1  0
 26 27  1  0
 27 28  1  0
 27 29  1  0
 29 30  1  0
 26 31  1  0
 31 32  1  0
 32 33  1  0
 32  4  1  0
 23 13  1  0
  1 34  1  0
  1 35  1  0
  1 36  1  0
  2 37  1  0
  3 38  1  0
  3 39  1  0
  4 40  1  1
  6 41  1  0
  6 42  1  0
  7 43  1  0
  7 44  1  0
  8 45  1  0
  8 46  1  0
  9 47  1  0
  9 48  1  0
 10 49  1  6
 11 50  1  0
 11 51  1  0
 11 52  1  0
 14 53  1  0
 15 54  1  0
 17 55  1  0
 19 56  1  0
 19 57  1  0
 19 58  1  0
 22 59  1  0
 27 60  1  1
 28 61  1  0
 28 62  1  0
 28 63  1  0
 29 64  1  0
 29 65  1  0
 30 66  1  0
 31 67  1  0
 31 68  1  0
 32 69  1  1
 33 70  1  0
 33 71  1  0
 33 72  1  0
M  END
$$$$
