
     RDKit          3D

 65 67  0  0  0  0  0  0  0  0999 V2000
    0.0858    3.2081   -3.5272 C   0  0  0  0  0  0  0  0  0  0  0  0
    0.1988    3.4496   -2.0565 C   0  0  0  0  0  0  0  0  0  0  0  0
    1.3250    3.7330   -1.5651 O   0  0  0  0  0  0  0  0  0  0  0  0
   -0.9523    3.3249   -1.2072 N   0  0  0  0  0  0  0  0  0  0  0  0
   -0.8452    3.3786    0.2558 C   0  0  0  0  0  0  0  0  0  0  0  0
   -2.2271    3.5975    0.9230 C   0  0  0  0  0  0  0  0  0  0  0  0
   -3.1245    2.3874    0.8509 C   0  0  0  0  0  0  0  0  0  0  0  0
   -2.9837    1.3671    1.8021 C   0  0  0  0  0  0  0  0  0  0  0  0
   -3.6245    0.1457    1.6159 C   0  0  0  0  0  0  0  0  0  0  0  0
   -4.4145   -0.0701    0.4775 C   0  0  0  0  0  0  0  0  0  0  0  0
   -4.6866    0.9932   -0.3893 C   0  0  0  0  0  0  0  0  0  0  0  0
   -4.0307    2.2172   -0.2119 C   0  0  0  0  0  0  0  0  0  0  0  0
   -4.7929   -1.3717    0.1388 O   0  0  0  0  0  0  0  0  0  0  0  0
   -3.7788   -2.3203   -0.0038 C   0  0  0  0  0  0  0  0  0  0  0  0
   -2.7434   -2.0859   -0.9186 C   0  0  0  0  0  0  0  0  0  0  0  0
   -1.5579   -2.8084   -0.8291 C   0  0  0  0  0  0  0  0  0  0  0  0
   -1.3956   -3.7707    0.1780 C   0  0  0  0  0  0  0  0  0  0  0  0
   -2.5025   -4.1293    0.9693 C   0  0  0  0  0  0  0  0  0  0  0  0
   -3.7006   -3.4112    0.8674 C   0  0  0  0  0  0  0  0  0  0  0  0
   -0.0525   -4.2902    0.5004 C   0  0  0  0  0  0  0  0  0  0  0  0
    0.0807   -5.4827    0.8852 O   0  0  0  0  0  0  0  0  0  0  0  0
    1.1424   -3.3730    0.5080 C   0  0  0  0  0  0  0  0  0  0  0  0
    1.0090   -2.3887    1.5879 N   0  0  0  0  0  0  0  0  0  0  0  0
    0.5545   -1.0258    1.4505 C   0  0  0  0  0  0  0  0  0  0  0  0
    0.0274   -0.4736    2.4536 O   0  0  0  0  0  0  0  0  0  0  0  0
    0.7810   -0.1991    0.1959 C   0  0  0  0  0  0  0  0  0  0  0  0
    2.2210    0.3613    0.1237 C   0  0  0  0  0  0  0  0  0  0  0  0
    3.2606   -0.7072   -0.2580 C   0  0  0  0  0  0  0  0  0  0  0  0
    4.6593   -0.1092   -0.5306 C   0  0  0  0  0  0  0  0  0  0  0  0
    5.5713   -1.1719   -1.1577 C   0  0  0  0  0  0  0  0  0  0  0  0
    5.3061    0.4420    0.7493 C   0  0  0  0  0  0  0  0  0  0  0  0
   -0.2095    0.8887    0.0918 N   0  0  0  0  0  0  0  0  0  0  0  0
   -0.1241    2.1536    0.7827 C   0  0  0  0  0  0  0  0  0  0  0  0
    0.5434    2.2519    1.8469 O   0  0  0  0  0  0  0  0  0  0  0  0
   -0.9780    3.1548   -3.8421 H   0  0  0  0  0  0  0  0  0  0  0  0
    0.5845    2.2488   -3.7806 H   0  0  0  0  0  0  0  0  0  0  0  0
    0.5815    4.0322   -4.0811 H   0  0  0  0  0  0  0  0  0  0  0  0
   -1.8807    3.1613   -1.6549 H   0  0  0  0  0  0  0  0  0  0  0  0
   -0.2331    4.2712    0.5166 H   0  0  0  0  0  0  0  0  0  0  0  0
   -2.0717    3.8715    1.9899 H   0  0  0  0  0  0  0  0  0  0  0  0
   -2.7288    4.4690    0.4487 H   0  0  0  0  0  0  0  0  0  0  0  0
   -2.3141    1.4888    2.6446 H   0  0  0  0  0  0  0  0  0  0  0  0
   -3.4327   -0.6653    2.3073 H   0  0  0  0  0  0  0  0  0  0  0  0
   -5.3118    0.8386   -1.2590 H   0  0  0  0  0  0  0  0  0  0  0  0
   -4.1814    3.0070   -0.9367 H   0  0  0  0  0  0  0  0  0  0  0  0
   -2.8162   -1.2708   -1.6272 H   0  0  0  0  0  0  0  0  0  0  0  0
   -0.7503   -2.5688   -1.5070 H   0  0  0  0  0  0  0  0  0  0  0  0
   -2.4077   -4.8894    1.7351 H   0  0  0  0  0  0  0  0  0  0  0  0
   -4.5104   -3.6162    1.5554 H   0  0  0  0  0  0  0  0  0  0  0  0
    2.0622   -3.9705    0.6879 H   0  0  0  0  0  0  0  0  0  0  0  0
    1.2760   -2.8987   -0.4793 H   0  0  0  0  0  0  0  0  0  0  0  0
    1.0554   -2.7700    2.5605 H   0  0  0  0  0  0  0  0  0  0  0  0
    0.6226   -0.8420   -0.6897 H   0  0  0  0  0  0  0  0  0  0  0  0
    2.2489    1.1657   -0.6437 H   0  0  0  0  0  0  0  0  0  0  0  0
    2.4936    0.8081    1.1022 H   0  0  0  0  0  0  0  0  0  0  0  0
    3.3354   -1.4663    0.5496 H   0  0  0  0  0  0  0  0  0  0  0  0
    2.9115   -1.2193   -1.1814 H   0  0  0  0  0  0  0  0  0  0  0  0
    4.5621    0.7238   -1.2620 H   0  0  0  0  0  0  0  0  0  0  0  0
    5.1354   -1.5396   -2.1114 H   0  0  0  0  0  0  0  0  0  0  0  0
    6.5688   -0.7377   -1.3842 H   0  0  0  0  0  0  0  0  0  0  0  0
    5.7020   -2.0325   -0.4663 H   0  0  0  0  0  0  0  0  0  0  0  0
    5.3469   -0.3401    1.5376 H   0  0  0  0  0  0  0  0  0  0  0  0
    6.3402    0.7890    0.5387 H   0  0  0  0  0  0  0  0  0  0  0  0
    4.7379    1.3143    1.1315 H   0  0  0  0  0  0  0  0  0  0  0  0
   -0.9675    0.7721   -0.6190 H   0  0  0  0  0  0  0  0  0  0  0  0
  1  2  1  0
  2  3  2  0
  2  4  1  0
  4  5  1  0
  5  6  1  0
  6  7  1  0
  7  8  2  0
  8  9  1  0
  9 10  2  0
 10 11  1  0
 11 12  2  0
 10 13  1  0
 13 14  1  0
 14 15  2  0
 15 16  1  0
 16 17  2  0
 17 18  1  0
 18 19  2  0
 17 20  1  0
 20 21  2  0
 20 22  1  0
 22 23  1  0
 23 24  1  0
 24 25  2  0
 24 26  1  0
 26 27  1  0
 27 28  1  0
 28 29  1  0
 29 30  1  0
 29 31  1  0
 26 32  1  0
 32 33  1  0
 33 34  2  0
 33  5  1  0
 12  7  1  0
 19 14  1  0
  1 35  1  0
  1 36  1  0
  1 37  1  0
  4 38  1  0
  5 39  1  0
  6 40  1  0
  6 41  1  0
  8 42  1  0
  9 43  1  0
 11 44  1  0
 12 45  1  0
 15 46  1  0
 16 47  1  0
 18 48  1  0
 19 49  1  0
 22 50  1  0
 22 51  1  0
 23 52  1  0
 26 53  1  0
 27 54  1  0
 27 55  1  0
 28 56  1  0
 28 57  1  0
 29 58  1  0
 30 59  1  0
 30 60  1  0
 30 61  1  0
 31 62  1  0
 31 63  1  0
 31 64  1  0
 32 65  1  0
M  END
$$$$
