
     RDKit          3D

 74 77  0  0  0  0  0  0  0  0999 V2000
   -7.0163    2.7300   -0.3874 C   0  0  0  0  0  0  0  0  0  0  0  0
   -6.8103    1.2547    0.0330 C   0  0  0  0  0  0  0  0  0  0  0  0
   -8.1363    0.5067   -0.2552 C   0  0  0  0  0  0  0  0  0  0  0  0
   -5.6525    0.6161   -0.6804 N   0  0  0  0  0  0  0  0  0  0  0  0
   -5.4594   -0.8095   -0.2762 C   0  0  0  0  0  0  0  0  0  0  0  0
   -4.5900   -1.6191   -1.2579 C   0  0  0  0  0  0  0  0  0  0  0  0
   -4.0136   -2.7014   -0.5514 O   0  0  0  0  0  0  0  0  0  0  0  0
   -3.2092   -3.5011   -1.3993 C   0  0  0  0  0  0  0  0  0  0  0  0
   -1.7864   -2.9462   -1.5242 C   0  0  0  0  0  0  0  0  0  0  0  0
   -1.2913   -2.5489   -0.2448 O   0  0  0  0  0  0  0  0  0  0  0  0
   -0.1294   -1.7777   -0.0574 C   0  0  0  0  0  0  0  0  0  0  0  0
    0.8520   -1.6771   -1.0598 C   0  0  0  0  0  0  0  0  0  0  0  0
    1.9725   -0.8655   -0.8776 C   0  0  0  0  0  0  0  0  0  0  0  0
    2.1456   -0.1462    0.3139 C   0  0  0  0  0  0  0  0  0  0  0  0
    3.3070    0.7575    0.4899 C   0  0  0  0  0  0  0  0  0  0  0  0
    3.1689    1.8069    1.1764 O   0  0  0  0  0  0  0  0  0  0  0  0
    4.5828    0.4794   -0.1169 N   0  0  0  0  0  0  0  0  0  0  0  0
    5.1055   -0.8923   -0.1812 C   0  0  0  0  0  0  0  0  0  0  0  0
    6.6153   -0.9430    0.1482 C   0  0  0  0  0  0  0  0  0  0  0  0
    7.3173    0.3485   -0.0522 N   0  0  0  0  0  0  0  0  0  0  0  0
    8.7663    0.1341   -0.2548 C   0  0  0  0  0  0  0  0  0  0  0  0
    9.5663    1.3302    0.2731 C   0  0  0  0  0  0  0  0  0  0  0  0
   10.9401    1.0930    0.1299 O   0  0  0  0  0  0  0  0  0  0  0  0
    6.7233    1.1178   -1.1614 C   0  0  0  0  0  0  0  0  0  0  0  0
    5.3289    1.5782   -0.7405 C   0  0  0  0  0  0  0  0  0  0  0  0
    1.1685   -0.2426    1.3171 C   0  0  0  0  0  0  0  0  0  0  0  0
    0.0414   -1.0640    1.1497 C   0  0  0  0  0  0  0  0  0  0  0  0
   -1.0201   -1.0810    2.2261 C   0  0  0  0  0  0  0  0  0  0  0  0
   -1.9875    0.0718    2.0772 C   0  0  0  0  0  0  0  0  0  0  0  0
   -2.3153    0.8787    3.1777 C   0  0  0  0  0  0  0  0  0  0  0  0
   -3.2859    1.8785    3.0542 C   0  0  0  0  0  0  0  0  0  0  0  0
   -3.9561    2.0668    1.8411 C   0  0  0  0  0  0  0  0  0  0  0  0
   -3.6461    1.2645    0.7334 C   0  0  0  0  0  0  0  0  0  0  0  0
   -2.6450    0.2912    0.8572 C   0  0  0  0  0  0  0  0  0  0  0  0
   -4.3849    1.4091   -0.5838 C   0  0  0  0  0  0  0  0  0  0  0  0
   -6.2835    3.3957    0.1114 H   0  0  0  0  0  0  0  0  0  0  0  0
   -8.0102    3.1125   -0.0689 H   0  0  0  0  0  0  0  0  0  0  0  0
   -6.9335    2.8383   -1.4905 H   0  0  0  0  0  0  0  0  0  0  0  0
   -6.6377    1.2302    1.1338 H   0  0  0  0  0  0  0  0  0  0  0  0
   -8.2365   -0.3912    0.3882 H   0  0  0  0  0  0  0  0  0  0  0  0
   -9.0262    1.1274   -0.0136 H   0  0  0  0  0  0  0  0  0  0  0  0
   -8.1915    0.2160   -1.3274 H   0  0  0  0  0  0  0  0  0  0  0  0
   -6.4184   -1.3586   -0.2416 H   0  0  0  0  0  0  0  0  0  0  0  0
   -5.0618   -0.8770    0.7584 H   0  0  0  0  0  0  0  0  0  0  0  0
   -3.7985   -0.9973   -1.7101 H   0  0  0  0  0  0  0  0  0  0  0  0
   -5.2399   -1.9866   -2.0841 H   0  0  0  0  0  0  0  0  0  0  0  0
   -3.6575   -3.6429   -2.4101 H   0  0  0  0  0  0  0  0  0  0  0  0
   -3.1400   -4.5099   -0.9379 H   0  0  0  0  0  0  0  0  0  0  0  0
   -1.1260   -3.7297   -1.9556 H   0  0  0  0  0  0  0  0  0  0  0  0
   -1.7914   -2.0734   -2.2114 H   0  0  0  0  0  0  0  0  0  0  0  0
    0.7483   -2.2136   -1.9927 H   0  0  0  0  0  0  0  0  0  0  0  0
    2.6854   -0.7737   -1.6862 H   0  0  0  0  0  0  0  0  0  0  0  0
    4.9528   -1.2818   -1.2105 H   0  0  0  0  0  0  0  0  0  0  0  0
    4.5552   -1.5595    0.5186 H   0  0  0  0  0  0  0  0  0  0  0  0
    7.0723   -1.7485   -0.4710 H   0  0  0  0  0  0  0  0  0  0  0  0
    6.7341   -1.2357    1.2136 H   0  0  0  0  0  0  0  0  0  0  0  0
    8.9999   -0.0409   -1.3311 H   0  0  0  0  0  0  0  0  0  0  0  0
    9.1136   -0.7623    0.3116 H   0  0  0  0  0  0  0  0  0  0  0  0
    9.2850    2.2672   -0.2543 H   0  0  0  0  0  0  0  0  0  0  0  0
    9.3425    1.4686    1.3521 H   0  0  0  0  0  0  0  0  0  0  0  0
   11.1556    1.2462   -0.8269 H   0  0  0  0  0  0  0  0  0  0  0  0
    7.3270    2.0205   -1.3954 H   0  0  0  0  0  0  0  0  0  0  0  0
    6.6616    0.4970   -2.0847 H   0  0  0  0  0  0  0  0  0  0  0  0
    5.4421    2.4089   -0.0099 H   0  0  0  0  0  0  0  0  0  0  0  0
    4.7732    1.9568   -1.6255 H   0  0  0  0  0  0  0  0  0  0  0  0
    1.2798    0.3251    2.2330 H   0  0  0  0  0  0  0  0  0  0  0  0
   -1.5903   -2.0334    2.1976 H   0  0  0  0  0  0  0  0  0  0  0  0
   -0.5270   -1.0491    3.2216 H   0  0  0  0  0  0  0  0  0  0  0  0
   -1.8322    0.7258    4.1344 H   0  0  0  0  0  0  0  0  0  0  0  0
   -3.5306    2.4992    3.9059 H   0  0  0  0  0  0  0  0  0  0  0  0
   -4.7115    2.8358    1.7708 H   0  0  0  0  0  0  0  0  0  0  0  0
   -2.3990   -0.3106    0.0011 H   0  0  0  0  0  0  0  0  0  0  0  0
   -3.7098    1.1247   -1.4151 H   0  0  0  0  0  0  0  0  0  0  0  0
   -4.5417    2.4813   -0.8017 H   0  0  0  0  0  0  0  0  0  0  0  0
  1  2  1  0
  2  3  1  0
  2  4  1  0
  4  5  1  0
  5  6  1  0
  6  7  1  0
  7  8  1  0
  8  9  1  0
  9 10  1  0
 10 11  1  0
 11 12  2  0
 12 13  1  0
 13 14  2  0
 14 15  1  0
 15 16  2  0
 15 17  1  0
 17 18  1  0
 18 19  1  0
 19 20  1  0
 20 21  1  0
 21 22  1  0
 22 23  1  0
 20 24  1  0
 24 25  1  0
 14 26  1  0
 26 27  2  0
 27 28  1  0
 28 29  1  0
 29 30  1  0
 30 31  2  0
 31 32  1  0
 32 33  2  0
 33 34  1  0
 33 35  1  0
 35  4  1  0
 27 11  1  0
 34 29  2  0
 25 17  1  0
  1 36  1  0
  1 37  1  0
  1 38  1  0
  2 39  1  0
  3 40  1  0
  3 41  1  0
  3 42  1  0
  5 43  1  0
  5 44  1  0
  6 45  1  0
  6 46  1  0
  8 47  1  0
  8 48  1  0
  9 49  1  0
  9 50  1  0
 12 51  1  0
 13 52  1  0
 18 53  1  0
 18 54  1  0
 19 55  1  0
 19 56  1  0
 21 57  1  0
 21 58  1  0
 22 59  1  0
 22 60  1  0
 23 61  1  0
 24 62  1  0
 24 63  1  0
 25 64  1  0
 25 65  1  0
 26 66  1  0
 28 67  1  0
 28 68  1  0
 30 69  1  0
 31 70  1  0
 32 71  1  0
 34 72  1  0
 35 73  1  0
 35 74  1  0
M  END
$$$$
