
     RDKit          3D

 62 64  0  0  0  0  0  0  0  0999 V2000
    4.5712   -3.1203    0.8337 C   0  0  0  0  0  0  0  0  0  0  0  0
    3.3889   -2.3812    1.0470 O   0  0  0  0  0  0  0  0  0  0  0  0
    3.6498   -0.9877    0.9859 C   0  0  2  0  0  0  0  0  0  0  0  0
    3.8387   -0.4312    2.4158 C   0  0  0  0  0  0  0  0  0  0  0  0
    2.5437    0.1742    2.9598 C   0  0  0  0  0  0  0  0  0  0  0  0
    2.0205    1.2693    1.9926 C   0  0  2  0  0  0  0  0  0  0  0  0
    0.4968    1.4493    2.1125 C   0  0  0  0  0  0  0  0  0  0  0  0
   -0.0181    2.5996    1.2354 C   0  0  0  0  0  0  0  0  0  0  0  0
   -1.4039    2.9321    1.5997 N   0  0  0  0  0  0  0  0  0  0  0  0
   -1.6320    3.9470    2.6336 C   0  0  0  0  0  0  0  0  0  0  0  0
   -2.5481    2.2087    1.0825 C   0  0  0  0  0  0  0  0  0  0  0  0
   -3.6997    2.5021    1.5119 O   0  0  0  0  0  0  0  0  0  0  0  0
   -2.4399    1.1803   -0.0295 C   0  0  1  0  0  0  0  0  0  0  0  0
   -3.4465    0.0401    0.1986 C   0  0  0  0  0  0  0  0  0  0  0  0
   -2.6688    1.8770   -1.3851 C   0  0  0  0  0  0  0  0  0  0  0  0
   -2.5869    0.9339   -2.5100 N   0  0  0  0  0  0  0  0  0  0  0  0
   -3.7546    0.7207   -3.3715 C   0  0  0  0  0  0  0  0  0  0  0  0
   -1.3154    0.3651   -2.8596 C   0  0  0  0  0  0  0  0  0  0  0  0
   -0.4652    1.0814   -3.4535 O   0  0  0  0  0  0  0  0  0  0  0  0
   -0.9685   -1.0168   -2.4575 C   0  0  0  0  0  0  0  0  0  0  0  0
   -1.9271   -2.0387   -2.5670 C   0  0  0  0  0  0  0  0  0  0  0  0
   -1.6376   -3.3349   -2.1322 C   0  0  0  0  0  0  0  0  0  0  0  0
   -2.6151   -4.3827   -2.2913 C   0  0  0  0  0  0  0  0  0  0  0  0
   -3.3958   -5.2279   -2.4318 N   0  0  0  0  0  0  0  0  0  0  0  0
   -0.3878   -3.6204   -1.5786 C   0  0  0  0  0  0  0  0  0  0  0  0
    0.5798   -2.6226   -1.4826 C   0  0  0  0  0  0  0  0  0  0  0  0
    0.3093   -1.3117   -1.9286 C   0  0  0  0  0  0  0  0  0  0  0  0
    1.2715   -0.2837   -1.8438 O   0  0  0  0  0  0  0  0  0  0  0  0
    2.5629   -0.4119   -1.2453 C   0  0  0  0  0  0  0  0  0  0  0  0
    2.4515   -0.3011    0.2842 C   0  0  2  0  0  0  0  0  0  0  0  0
    2.4055    1.0703    0.6366 O   0  0  0  0  0  0  0  0  0  0  0  0
    4.9334   -2.9896   -0.2102 H   0  0  0  0  0  0  0  0  0  0  0  0
    5.3614   -2.8368    1.5623 H   0  0  0  0  0  0  0  0  0  0  0  0
    4.3419   -4.1955    0.9793 H   0  0  0  0  0  0  0  0  0  0  0  0
    4.5734   -0.7378    0.4030 H   0  0  0  0  0  0  0  0  0  0  0  0
    4.6237    0.3582    2.4044 H   0  0  0  0  0  0  0  0  0  0  0  0
    4.1860   -1.2344    3.1025 H   0  0  0  0  0  0  0  0  0  0  0  0
    1.7926   -0.6389    3.0757 H   0  0  0  0  0  0  0  0  0  0  0  0
    2.7276    0.6116    3.9652 H   0  0  0  0  0  0  0  0  0  0  0  0
    2.4922    2.2244    2.3160 H   0  0  0  0  0  0  0  0  0  0  0  0
   -0.0186    0.5104    1.8236 H   0  0  0  0  0  0  0  0  0  0  0  0
    0.2430    1.6593    3.1732 H   0  0  0  0  0  0  0  0  0  0  0  0
    0.0613    2.3472    0.1574 H   0  0  0  0  0  0  0  0  0  0  0  0
    0.6316    3.4900    1.3778 H   0  0  0  0  0  0  0  0  0  0  0  0
   -2.1280    3.4821    3.5107 H   0  0  0  0  0  0  0  0  0  0  0  0
   -2.2775    4.7545    2.2293 H   0  0  0  0  0  0  0  0  0  0  0  0
   -0.6791    4.4015    2.9846 H   0  0  0  0  0  0  0  0  0  0  0  0
   -1.4347    0.7160   -0.0300 H   0  0  0  0  0  0  0  0  0  0  0  0
   -3.3219   -0.7555   -0.5643 H   0  0  0  0  0  0  0  0  0  0  0  0
   -3.2741   -0.4200    1.1950 H   0  0  0  0  0  0  0  0  0  0  0  0
   -4.4917    0.4140    0.1445 H   0  0  0  0  0  0  0  0  0  0  0  0
   -1.9159    2.6802   -1.5295 H   0  0  0  0  0  0  0  0  0  0  0  0
   -3.6628    2.3822   -1.3716 H   0  0  0  0  0  0  0  0  0  0  0  0
   -4.4414   -0.0101   -2.8900 H   0  0  0  0  0  0  0  0  0  0  0  0
   -3.4425    0.3349   -4.3670 H   0  0  0  0  0  0  0  0  0  0  0  0
   -4.3081    1.6755   -3.5260 H   0  0  0  0  0  0  0  0  0  0  0  0
   -2.8961   -1.8345   -3.0027 H   0  0  0  0  0  0  0  0  0  0  0  0
   -0.1550   -4.6220   -1.2367 H   0  0  0  0  0  0  0  0  0  0  0  0
    1.5321   -2.8833   -1.0419 H   0  0  0  0  0  0  0  0  0  0  0  0
    3.0465   -1.3597   -1.5681 H   0  0  0  0  0  0  0  0  0  0  0  0
    3.2116    0.4090   -1.6219 H   0  0  0  0  0  0  0  0  0  0  0  0
    1.5098   -0.8116    0.5937 H   0  0  0  0  0  0  0  0  0  0  0  0
  1  2  1  0
  2  3  1  0
  3  4  1  0
  4  5  1  0
  5  6  1  0
  6  7  1  0
  7  8  1  0
  8  9  1  0
  9 10  1  0
  9 11  1  0
 11 12  2  0
 11 13  1  0
 13 14  1  0
 13 15  1  0
 15 16  1  0
 16 17  1  0
 16 18  1  0
 18 19  2  0
 18 20  1  0
 20 21  2  0
 21 22  1  0
 22 23  1  0
 23 24  3  0
 22 25  2  0
 25 26  1  0
 26 27  2  0
 27 28  1  0
 28 29  1  0
 29 30  1  0
 30 31  1  0
 30  3  1  0
 31  6  1  0
 27 20  1  0
  1 32  1  0
  1 33  1  0
  1 34  1  0
  3 35  1  6
  4 36  1  0
  4 37  1  0
  5 38  1  0
  5 39  1  0
  6 40  1  1
  7 41  1  0
  7 42  1  0
  8 43  1  0
  8 44  1  0
 10 45  1  0
 10 46  1  0
 10 47  1  0
 13 48  1  6
 14 49  1  0
 14 50  1  0
 14 51  1  0
 15 52  1  0
 15 53  1  0
 17 54  1  0
 17 55  1  0
 17 56  1  0
 21 57  1  0
 25 58  1  0
 26 59  1  0
 29 60  1  0
 29 61  1  0
 30 62  1  1
M  END
$$$$
