
     RDKit          3D

 96 99  0  0  0  0  0  0  0  0999 V2000
   -3.1898   -3.3144   -2.6869 C   0  0  0  0  0  0  0  0  0  0  0  0
   -1.6762   -3.1055   -2.5029 C   0  0  2  0  0  0  0  0  0  0  0  0
   -1.1015   -4.2094   -1.5906 C   0  0  0  0  0  0  0  0  0  0  0  0
    0.4475   -4.2645   -1.6217 C   0  0  0  0  0  0  0  0  0  0  0  0
    1.0775   -3.6576   -0.3581 C   0  0  0  0  0  0  0  0  0  0  0  0
    2.5797   -3.3630   -0.5342 C   0  0  0  0  0  0  0  0  0  0  0  0
    2.8056   -2.1292   -1.2102 O   0  0  0  0  0  0  0  0  0  0  0  0
    2.6003   -1.0062   -0.3547 C   0  0  1  0  0  0  0  0  0  0  0  0
    3.9324   -0.2507   -0.1429 C   0  0  0  0  0  0  0  0  0  0  0  0
    4.8094   -1.0230    0.7670 N   0  0  0  0  0  0  0  0  0  0  0  0
    5.7798   -1.8383    0.0194 C   0  0  0  0  0  0  0  0  0  0  0  0
    5.4460   -0.2047    1.8238 C   0  0  0  0  0  0  0  0  0  0  0  0
    6.4699    0.7871    1.2908 C   0  0  0  0  0  0  0  0  0  0  0  0
    7.8257    0.4236    1.2129 C   0  0  0  0  0  0  0  0  0  0  0  0
    8.7701    1.3225    0.7207 C   0  0  0  0  0  0  0  0  0  0  0  0
    8.3906    2.6089    0.3091 C   0  0  0  0  0  0  0  0  0  0  0  0
    9.4079    3.5520   -0.2043 C   0  0  0  0  0  0  0  0  0  0  0  0
    9.0832    4.7253   -0.5324 O   0  0  0  0  0  0  0  0  0  0  0  0
   10.7486    3.1566   -0.2951 O   0  0  0  0  0  0  0  0  0  0  0  0
    7.0423    2.9850    0.4142 C   0  0  0  0  0  0  0  0  0  0  0  0
    6.0893    2.0831    0.8993 C   0  0  0  0  0  0  0  0  0  0  0  0
    1.4830   -0.1194   -0.9885 C   0  0  2  0  0  0  0  0  0  0  0  0
    1.9857    0.7115   -2.1868 C   0  0  0  0  0  0  0  0  0  0  0  0
    0.7478    0.7703    0.0391 C   0  0  0  0  0  0  0  0  0  0  0  0
    0.0232   -0.0299    1.0557 N   0  0  0  0  0  0  0  0  0  0  0  0
    0.3728    0.1538    2.4865 C   0  0  2  0  0  0  0  0  0  0  0  0
    0.5705   -1.1819    3.2259 C   0  0  0  0  0  0  0  0  0  0  0  0
   -0.6945    1.0191    3.1873 C   0  0  0  0  0  0  0  0  0  0  0  0
   -0.8615    2.2383    2.5103 O   0  0  0  0  0  0  0  0  0  0  0  0
   -1.1722   -0.7555    0.6810 C   0  0  0  0  0  0  0  0  0  0  0  0
   -1.4334   -1.8669    1.2079 O   0  0  0  0  0  0  0  0  0  0  0  0
   -2.1240   -0.2236   -0.3083 C   0  0  0  0  0  0  0  0  0  0  0  0
   -3.0314    0.7728    0.0882 C   0  0  0  0  0  0  0  0  0  0  0  0
   -4.0327    1.2171   -0.7898 C   0  0  0  0  0  0  0  0  0  0  0  0
   -5.0196    2.1507   -0.3115 N   0  0  0  0  0  0  0  0  0  0  0  0
   -6.4250    2.0091   -0.5629 C   0  0  0  0  0  0  0  0  0  0  0  0
   -6.8397    1.1034   -1.3447 O   0  0  0  0  0  0  0  0  0  0  0  0
   -7.3521    2.9142    0.0695 N   0  0  0  0  0  0  0  0  0  0  0  0
   -8.7782    2.6904    0.0890 C   0  0  0  0  0  0  0  0  0  0  0  0
   -9.3148    1.3989    0.2323 C   0  0  0  0  0  0  0  0  0  0  0  0
  -10.7042    1.2098    0.2429 C   0  0  0  0  0  0  0  0  0  0  0  0
  -11.5612    2.3004    0.1199 C   0  0  0  0  0  0  0  0  0  0  0  0
  -11.0389    3.5890   -0.0104 C   0  0  0  0  0  0  0  0  0  0  0  0
   -9.6513    3.7893   -0.0191 C   0  0  0  0  0  0  0  0  0  0  0  0
   -4.0441    0.7432   -2.1159 C   0  0  0  0  0  0  0  0  0  0  0  0
   -3.1232   -0.2319   -2.5224 C   0  0  0  0  0  0  0  0  0  0  0  0
   -2.2093   -0.7746   -1.6041 C   0  0  0  0  0  0  0  0  0  0  0  0
   -1.3315   -1.8142   -1.9722 O   0  0  0  0  0  0  0  0  0  0  0  0
   -3.7526   -3.0333   -1.7580 H   0  0  0  0  0  0  0  0  0  0  0  0
   -3.5652   -2.7242   -3.5510 H   0  0  0  0  0  0  0  0  0  0  0  0
   -3.4164   -4.3807   -2.9209 H   0  0  0  0  0  0  0  0  0  0  0  0
   -1.2162   -3.1964   -3.5125 H   0  0  0  0  0  0  0  0  0  0  0  0
   -1.4782   -4.0467   -0.5523 H   0  0  0  0  0  0  0  0  0  0  0  0
   -1.4877   -5.2059   -1.9154 H   0  0  0  0  0  0  0  0  0  0  0  0
    0.7643   -5.3325   -1.6642 H   0  0  0  0  0  0  0  0  0  0  0  0
    0.8469   -3.7779   -2.5401 H   0  0  0  0  0  0  0  0  0  0  0  0
    0.9503   -4.3678    0.4956 H   0  0  0  0  0  0  0  0  0  0  0  0
    0.5592   -2.7194   -0.0980 H   0  0  0  0  0  0  0  0  0  0  0  0
    3.0911   -3.3777    0.4551 H   0  0  0  0  0  0  0  0  0  0  0  0
    3.0382   -4.1722   -1.1351 H   0  0  0  0  0  0  0  0  0  0  0  0
    2.2542   -1.2980    0.6671 H   0  0  0  0  0  0  0  0  0  0  0  0
    3.6795    0.7402    0.2963 H   0  0  0  0  0  0  0  0  0  0  0  0
    4.4336   -0.0430   -1.1224 H   0  0  0  0  0  0  0  0  0  0  0  0
    5.2527   -2.5397   -0.6502 H   0  0  0  0  0  0  0  0  0  0  0  0
    6.3964   -2.4350    0.7160 H   0  0  0  0  0  0  0  0  0  0  0  0
    6.4424   -1.2005   -0.5982 H   0  0  0  0  0  0  0  0  0  0  0  0
    5.9276   -0.8861    2.5521 H   0  0  0  0  0  0  0  0  0  0  0  0
    4.6623    0.3289    2.4071 H   0  0  0  0  0  0  0  0  0  0  0  0
    8.1534   -0.5571    1.5390 H   0  0  0  0  0  0  0  0  0  0  0  0
    9.8038    1.0089    0.6805 H   0  0  0  0  0  0  0  0  0  0  0  0
   11.4596    3.8036   -0.6015 H   0  0  0  0  0  0  0  0  0  0  0  0
    6.7115    3.9738    0.1010 H   0  0  0  0  0  0  0  0  0  0  0  0
    5.0622    2.4069    0.9818 H   0  0  0  0  0  0  0  0  0  0  0  0
    0.7350   -0.8062   -1.4101 H   0  0  0  0  0  0  0  0  0  0  0  0
    2.6116    1.5617   -1.8461 H   0  0  0  0  0  0  0  0  0  0  0  0
    1.1263    1.1284   -2.7670 H   0  0  0  0  0  0  0  0  0  0  0  0
    2.5611    0.0625   -2.8752 H   0  0  0  0  0  0  0  0  0  0  0  0
    0.0237    1.4391   -0.4841 H   0  0  0  0  0  0  0  0  0  0  0  0
    1.4971    1.4400    0.5172 H   0  0  0  0  0  0  0  0  0  0  0  0
    1.3519    0.6859    2.5640 H   0  0  0  0  0  0  0  0  0  0  0  0
   -0.3965   -1.6698    3.4561 H   0  0  0  0  0  0  0  0  0  0  0  0
    1.0916   -0.9952    4.1807 H   0  0  0  0  0  0  0  0  0  0  0  0
    1.1850   -1.8756    2.6250 H   0  0  0  0  0  0  0  0  0  0  0  0
   -0.4000    1.2140    4.2446 H   0  0  0  0  0  0  0  0  0  0  0  0
   -1.6765    0.4799    3.2022 H   0  0  0  0  0  0  0  0  0  0  0  0
   -0.0793    2.8104    2.7405 H   0  0  0  0  0  0  0  0  0  0  0  0
   -2.9909    1.1514    1.1029 H   0  0  0  0  0  0  0  0  0  0  0  0
   -4.7296    2.8329    0.4265 H   0  0  0  0  0  0  0  0  0  0  0  0
   -6.9855    3.8018    0.4634 H   0  0  0  0  0  0  0  0  0  0  0  0
   -8.6738    0.5325    0.3706 H   0  0  0  0  0  0  0  0  0  0  0  0
  -11.1095    0.2092    0.3616 H   0  0  0  0  0  0  0  0  0  0  0  0
  -12.6360    2.1622    0.1456 H   0  0  0  0  0  0  0  0  0  0  0  0
  -11.7099    4.4423   -0.1158 H   0  0  0  0  0  0  0  0  0  0  0  0
   -9.2641    4.7934   -0.1249 H   0  0  0  0  0  0  0  0  0  0  0  0
   -4.7635    1.1293   -2.8267 H   0  0  0  0  0  0  0  0  0  0  0  0
   -3.1193   -0.5596   -3.5549 H   0  0  0  0  0  0  0  0  0  0  0  0
  1  2  1  0
  2  3  1  0
  3  4  1  0
  4  5  1  0
  5  6  1  0
  6  7  1  0
  7  8  1  0
  8  9  1  0
  9 10  1  0
 10 11  1  0
 10 12  1  0
 12 13  1  0
 13 14  2  0
 14 15  1  0
 15 16  2  0
 16 17  1  0
 17 18  2  0
 17 19  1  0
 16 20  1  0
 20 21  2  0
  8 22  1  0
 22 23  1  0
 22 24  1  0
 24 25  1  0
 25 26  1  0
 26 27  1  0
 26 28  1  0
 28 29  1  0
 25 30  1  0
 30 31  2  0
 30 32  1  0
 32 33  2  0
 33 34  1  0
 34 35  1  0
 35 36  1  0
 36 37  2  0
 36 38  1  0
 38 39  1  0
 39 40  2  0
 40 41  1  0
 41 42  2  0
 42 43  1  0
 43 44  2  0
 34 45  2  0
 45 46  1  0
 46 47  2  0
 47 48  1  0
 48  2  1  0
 21 13  1  0
 47 32  1  0
 44 39  1  0
  1 49  1  0
  1 50  1  0
  1 51  1  0
  2 52  1  6
  3 53  1  0
  3 54  1  0
  4 55  1  0
  4 56  1  0
  5 57  1  0
  5 58  1  0
  6 59  1  0
  6 60  1  0
  8 61  1  1
  9 62  1  0
  9 63  1  0
 11 64  1  0
 11 65  1  0
 11 66  1  0
 12 67  1  0
 12 68  1  0
 14 69  1  0
 15 70  1  0
 19 71  1  0
 20 72  1  0
 21 73  1  0
 22 74  1  6
 23 75  1  0
 23 76  1  0
 23 77  1  0
 24 78  1  0
 24 79  1  0
 26 80  1  6
 27 81  1  0
 27 82  1  0
 27 83  1  0
 28 84  1  0
 28 85  1  0
 29 86  1  0
 33 87  1  0
 35 88  1  0
 38 89  1  0
 40 90  1  0
 41 91  1  0
 42 92  1  0
 43 93  1  0
 44 94  1  0
 45 95  1  0
 46 96  1  0
M  END
$$$$
