
     RDKit          3D

 64 67  0  0  0  0  0  0  0  0999 V2000
    5.1938    3.8783   -0.1227 C   0  0  0  0  0  0  0  0  0  0  0  0
    5.6722    2.8023    0.8445 C   0  0  0  0  0  0  0  0  0  0  0  0
    4.6133    1.8263    1.0779 N   0  0  0  0  0  0  0  0  0  0  0  0
    4.3375    0.7619    0.3010 C   0  0  0  0  0  0  0  0  0  0  0  0
    3.2188    0.1503    0.8176 C   0  0  0  0  0  0  0  0  0  0  0  0
    2.3629   -1.2350    0.1631 S   0  0  0  0  0  6  0  0  0  0  0  0
    3.1718   -1.8235   -0.9584 O   0  0  0  0  0  0  0  0  0  0  0  0
    2.2431   -2.2350    1.2737 O   0  0  0  0  0  0  0  0  0  0  0  0
    0.7888   -0.7166   -0.4092 N   0  0  0  0  0  0  0  0  0  0  0  0
    0.8941    0.3908   -1.3833 C   0  0  0  0  0  0  0  0  0  0  0  0
   -0.2817    1.3694   -1.2199 C   0  0  0  0  0  0  0  0  0  0  0  0
   -0.3834    1.9259    0.2132 C   0  0  0  0  0  0  0  0  0  0  0  0
   -1.7628    2.5524    0.4949 C   0  0  0  0  0  0  0  0  0  0  0  0
   -2.5050    1.7700    1.5052 N   0  0  0  0  0  0  0  0  0  0  0  0
   -2.5339    2.2438    2.8942 C   0  0  0  0  0  0  0  0  0  0  0  0
   -3.0969    0.4810    1.2081 C   0  0  0  0  0  0  0  0  0  0  0  0
   -3.3093   -0.3354    2.1479 O   0  0  0  0  0  0  0  0  0  0  0  0
   -3.5314    0.1031   -0.1553 C   0  0  0  0  0  0  0  0  0  0  0  0
   -4.3364    1.0037   -0.8771 C   0  0  0  0  0  0  0  0  0  0  0  0
   -4.8511    0.6579   -2.1273 C   0  0  0  0  0  0  0  0  0  0  0  0
   -4.5964   -0.6040   -2.6612 C   0  0  0  0  0  0  0  0  0  0  0  0
   -3.8326   -1.5252   -1.9432 C   0  0  0  0  0  0  0  0  0  0  0  0
   -3.2901   -1.1898   -0.6964 C   0  0  0  0  0  0  0  0  0  0  0  0
   -2.5391   -2.1796   -0.0399 O   0  0  0  0  0  0  0  0  0  0  0  0
   -1.1841   -2.0333    0.4099 C   0  0  0  0  0  0  0  0  0  0  0  0
   -0.8125   -3.2840    1.2199 C   0  0  0  0  0  0  0  0  0  0  0  0
   -0.5633   -4.4940    0.3209 C   0  0  0  0  0  0  0  0  0  0  0  0
    0.5968   -4.2259   -0.6349 C   0  0  0  0  0  0  0  0  0  0  0  0
    0.3190   -3.0094   -1.5249 C   0  0  0  0  0  0  0  0  0  0  0  0
   -0.2194   -1.7532   -0.7834 C   0  0  0  0  0  0  0  0  0  0  0  0
    2.8510    0.9046    1.9126 C   0  0  0  0  0  0  0  0  0  0  0  0
    3.7165    1.9286    2.0483 N   0  0  0  0  0  0  0  0  0  0  0  0
    6.0024    4.6212   -0.2837 H   0  0  0  0  0  0  0  0  0  0  0  0
    4.3073    4.4007    0.2954 H   0  0  0  0  0  0  0  0  0  0  0  0
    4.9264    3.4215   -1.1002 H   0  0  0  0  0  0  0  0  0  0  0  0
    5.9639    3.2734    1.8081 H   0  0  0  0  0  0  0  0  0  0  0  0
    6.5668    2.2943    0.4227 H   0  0  0  0  0  0  0  0  0  0  0  0
    4.8906    0.4743   -0.5836 H   0  0  0  0  0  0  0  0  0  0  0  0
    1.8297    0.9726   -1.2440 H   0  0  0  0  0  0  0  0  0  0  0  0
    0.9162   -0.0063   -2.4237 H   0  0  0  0  0  0  0  0  0  0  0  0
   -0.1446    2.2164   -1.9272 H   0  0  0  0  0  0  0  0  0  0  0  0
   -1.2271    0.8680   -1.5068 H   0  0  0  0  0  0  0  0  0  0  0  0
    0.4100    2.6930    0.3481 H   0  0  0  0  0  0  0  0  0  0  0  0
   -0.1804    1.1345    0.9649 H   0  0  0  0  0  0  0  0  0  0  0  0
   -1.6058    3.5914    0.8576 H   0  0  0  0  0  0  0  0  0  0  0  0
   -2.3587    2.6735   -0.4308 H   0  0  0  0  0  0  0  0  0  0  0  0
   -2.0415    1.5003    3.5555 H   0  0  0  0  0  0  0  0  0  0  0  0
   -1.9977    3.2103    3.0148 H   0  0  0  0  0  0  0  0  0  0  0  0
   -3.5881    2.3819    3.2191 H   0  0  0  0  0  0  0  0  0  0  0  0
   -4.5899    1.9698   -0.4596 H   0  0  0  0  0  0  0  0  0  0  0  0
   -5.4604    1.3650   -2.6761 H   0  0  0  0  0  0  0  0  0  0  0  0
   -4.9980   -0.8725   -3.6289 H   0  0  0  0  0  0  0  0  0  0  0  0
   -3.6480   -2.5065   -2.3625 H   0  0  0  0  0  0  0  0  0  0  0  0
   -1.1279   -1.1796    1.1122 H   0  0  0  0  0  0  0  0  0  0  0  0
   -1.6403   -3.5233    1.9202 H   0  0  0  0  0  0  0  0  0  0  0  0
    0.0763   -3.0903    1.8499 H   0  0  0  0  0  0  0  0  0  0  0  0
   -0.3170   -5.3755    0.9530 H   0  0  0  0  0  0  0  0  0  0  0  0
   -1.4830   -4.7338   -0.2572 H   0  0  0  0  0  0  0  0  0  0  0  0
    1.5393   -4.1016   -0.0720 H   0  0  0  0  0  0  0  0  0  0  0  0
    0.7362   -5.1179   -1.2839 H   0  0  0  0  0  0  0  0  0  0  0  0
   -0.4503   -3.3296   -2.2653 H   0  0  0  0  0  0  0  0  0  0  0  0
    1.2154   -2.7607   -2.1268 H   0  0  0  0  0  0  0  0  0  0  0  0
   -0.8703   -1.3043   -1.5617 H   0  0  0  0  0  0  0  0  0  0  0  0
    1.9980    0.7335    2.5567 H   0  0  0  0  0  0  0  0  0  0  0  0
  1  2  1  0
  2  3  1  0
  3  4  1  0
  4  5  2  0
  5  6  1  0
  6  7  2  0
  6  8  2  0
  6  9  1  0
  9 10  1  0
 10 11  1  0
 11 12  1  0
 12 13  1  0
 13 14  1  0
 14 15  1  0
 14 16  1  0
 16 17  2  0
 16 18  1  0
 18 19  2  0
 19 20  1  0
 20 21  2  0
 21 22  1  0
 22 23  2  0
 23 24  1  0
 24 25  1  0
 25 26  1  0
 26 27  1  0
 27 28  1  0
 28 29  1  0
 29 30  1  0
  5 31  1  0
 31 32  2  0
 32  3  1  0
 30  9  1  0
 23 18  1  0
 30 25  1  0
  1 33  1  0
  1 34  1  0
  1 35  1  0
  2 36  1  0
  2 37  1  0
  4 38  1  0
 10 39  1  0
 10 40  1  0
 11 41  1  0
 11 42  1  0
 12 43  1  0
 12 44  1  0
 13 45  1  0
 13 46  1  0
 15 47  1  0
 15 48  1  0
 15 49  1  0
 19 50  1  0
 20 51  1  0
 21 52  1  0
 22 53  1  0
 25 54  1  0
 26 55  1  0
 26 56  1  0
 27 57  1  0
 27 58  1  0
 28 59  1  0
 28 60  1  0
 29 61  1  0
 29 62  1  0
 30 63  1  0
 31 64  1  0
M  END
$$$$
