
     RDKit          3D

 63 65  0  0  0  0  0  0  0  0999 V2000
   -4.2186    2.3692    2.9505 C   0  0  0  0  0  0  0  0  0  0  0  0
   -3.6951    1.1757    2.4076 O   0  0  0  0  0  0  0  0  0  0  0  0
   -2.9926    1.4219    1.1979 C   0  0  1  0  0  0  0  0  0  0  0  0
   -1.6289    0.6630    1.2267 C   0  0  0  0  0  0  0  0  0  0  0  0
   -1.7196   -0.8008    1.0669 N   0  0  0  0  0  0  0  0  0  0  0  0
   -2.2555   -1.6104    2.1693 C   0  0  0  0  0  0  0  0  0  0  0  0
   -0.9364   -1.4963    0.0661 C   0  0  0  0  0  0  0  0  0  0  0  0
   -1.3109   -2.6293   -0.3415 O   0  0  0  0  0  0  0  0  0  0  0  0
    0.3752   -1.0021   -0.3894 C   0  0  0  0  0  0  0  0  0  0  0  0
    1.5190   -1.4506    0.2843 C   0  0  0  0  0  0  0  0  0  0  0  0
    2.7901   -1.0455   -0.1247 C   0  0  0  0  0  0  0  0  0  0  0  0
    2.9413   -0.1736   -1.2164 C   0  0  0  0  0  0  0  0  0  0  0  0
    4.2352    0.2761   -1.6556 N   0  0  0  0  0  0  0  0  0  0  0  0
    5.7306   -0.4598   -1.1773 S   0  0  0  0  0  6  0  0  0  0  0  0
    5.6452   -1.9420   -1.4209 O   0  0  0  0  0  0  0  0  0  0  0  0
    6.8484    0.1023   -2.0113 O   0  0  0  0  0  0  0  0  0  0  0  0
    6.0618   -0.1215    0.5205 C   0  0  0  0  0  0  0  0  0  0  0  0
    6.4549   -1.1563    1.3842 C   0  0  0  0  0  0  0  0  0  0  0  0
    6.7094   -0.8891    2.7334 C   0  0  0  0  0  0  0  0  0  0  0  0
    6.5797    0.4119    3.2262 C   0  0  0  0  0  0  0  0  0  0  0  0
    6.1945    1.4479    2.3703 C   0  0  0  0  0  0  0  0  0  0  0  0
    5.9342    1.1854    1.0196 C   0  0  0  0  0  0  0  0  0  0  0  0
    5.5662    2.2046    0.2017 F   0  0  0  0  0  0  0  0  0  0  0  0
    1.7959    0.2794   -1.8874 C   0  0  0  0  0  0  0  0  0  0  0  0
    0.5190   -0.1420   -1.4995 C   0  0  0  0  0  0  0  0  0  0  0  0
   -0.5829    0.3589   -2.1996 O   0  0  0  0  0  0  0  0  0  0  0  0
   -1.3630   -0.4043   -3.1157 C   0  0  0  0  0  0  0  0  0  0  0  0
   -2.8148   -0.5641   -2.6205 C   0  0  2  0  0  0  0  0  0  0  0  0
   -3.5592   -1.5443   -3.5392 C   0  0  0  0  0  0  0  0  0  0  0  0
   -3.5345    0.7283   -2.5712 N   0  0  0  0  0  0  0  0  0  0  0  0
   -3.2449    1.5653   -1.3896 C   0  0  0  0  0  0  0  0  0  0  0  0
   -3.9262    1.1634   -0.0329 C   0  0  1  0  0  0  0  0  0  0  0  0
   -4.6802   -0.1833    0.0428 C   0  0  0  0  0  0  0  0  0  0  0  0
   -3.3968    3.0442    3.2784 H   0  0  0  0  0  0  0  0  0  0  0  0
   -4.8240    2.1169    3.8446 H   0  0  0  0  0  0  0  0  0  0  0  0
   -4.8861    2.8892    2.2280 H   0  0  0  0  0  0  0  0  0  0  0  0
   -2.6851    2.4950    1.1205 H   0  0  0  0  0  0  0  0  0  0  0  0
   -0.9594    1.1012    0.4613 H   0  0  0  0  0  0  0  0  0  0  0  0
   -1.1272    0.8819    2.1949 H   0  0  0  0  0  0  0  0  0  0  0  0
   -1.4532   -1.8013    2.9128 H   0  0  0  0  0  0  0  0  0  0  0  0
   -3.0980   -1.1075    2.6751 H   0  0  0  0  0  0  0  0  0  0  0  0
   -2.6412   -2.5827    1.7960 H   0  0  0  0  0  0  0  0  0  0  0  0
    1.4266   -2.1219    1.1299 H   0  0  0  0  0  0  0  0  0  0  0  0
    3.6437   -1.4135    0.4241 H   0  0  0  0  0  0  0  0  0  0  0  0
    4.2893    1.0415   -2.3658 H   0  0  0  0  0  0  0  0  0  0  0  0
    6.5642   -2.1693    1.0175 H   0  0  0  0  0  0  0  0  0  0  0  0
    7.0098   -1.6904    3.3967 H   0  0  0  0  0  0  0  0  0  0  0  0
    6.7800    0.6177    4.2707 H   0  0  0  0  0  0  0  0  0  0  0  0
    6.0981    2.4547    2.7559 H   0  0  0  0  0  0  0  0  0  0  0  0
    1.8937    0.9567   -2.7266 H   0  0  0  0  0  0  0  0  0  0  0  0
   -1.3652    0.1174   -4.0962 H   0  0  0  0  0  0  0  0  0  0  0  0
   -0.8950   -1.4030   -3.2653 H   0  0  0  0  0  0  0  0  0  0  0  0
   -2.7854   -1.0273   -1.6312 H   0  0  0  0  0  0  0  0  0  0  0  0
   -3.0364   -2.5245   -3.5664 H   0  0  0  0  0  0  0  0  0  0  0  0
   -4.5888   -1.7195   -3.1614 H   0  0  0  0  0  0  0  0  0  0  0  0
   -3.6198   -1.1389   -4.5715 H   0  0  0  0  0  0  0  0  0  0  0  0
   -4.5689    0.6048   -2.6580 H   0  0  0  0  0  0  0  0  0  0  0  0
   -3.5960    2.5909   -1.6381 H   0  0  0  0  0  0  0  0  0  0  0  0
   -2.1655    1.7201   -1.2728 H   0  0  0  0  0  0  0  0  0  0  0  0
   -4.7509    1.9030    0.0791 H   0  0  0  0  0  0  0  0  0  0  0  0
   -4.0157   -1.0601    0.1014 H   0  0  0  0  0  0  0  0  0  0  0  0
   -5.3750   -0.3092   -0.8107 H   0  0  0  0  0  0  0  0  0  0  0  0
   -5.3090   -0.2038    0.9581 H   0  0  0  0  0  0  0  0  0  0  0  0
  1  2  1  0
  2  3  1  0
  3  4  1  0
  4  5  1  0
  5  6  1  0
  5  7  1  0
  7  8  2  0
  7  9  1  0
  9 10  2  0
 10 11  1  0
 11 12  2  0
 12 13  1  0
 13 14  1  0
 14 15  2  0
 14 16  2  0
 14 17  1  0
 17 18  2  0
 18 19  1  0
 19 20  2  0
 20 21  1  0
 21 22  2  0
 22 23  1  0
 12 24  1  0
 24 25  2  0
 25 26  1  0
 26 27  1  0
 27 28  1  0
 28 29  1  0
 28 30  1  0
 30 31  1  0
 31 32  1  0
 32 33  1  0
 32  3  1  0
 25  9  1  0
 22 17  1  0
  1 34  1  0
  1 35  1  0
  1 36  1  0
  3 37  1  1
  4 38  1  0
  4 39  1  0
  6 40  1  0
  6 41  1  0
  6 42  1  0
 10 43  1  0
 11 44  1  0
 13 45  1  0
 18 46  1  0
 19 47  1  0
 20 48  1  0
 21 49  1  0
 24 50  1  0
 27 51  1  0
 27 52  1  0
 28 53  1  1
 29 54  1  0
 29 55  1  0
 29 56  1  0
 30 57  1  0
 31 58  1  0
 31 59  1  0
 32 60  1  1
 33 61  1  0
 33 62  1  0
 33 63  1  0
M  END
$$$$
