
     RDKit          3D

 84 87  0  0  0  0  0  0  0  0999 V2000
   10.1170   -0.1151    3.2144 C   0  0  0  0  0  0  0  0  0  0  0  0
    9.3804   -0.0961    1.9132 C   0  0  0  0  0  0  0  0  0  0  0  0
    9.9385   -0.6864    0.7749 C   0  0  0  0  0  0  0  0  0  0  0  0
    9.2195   -0.6441   -0.4250 C   0  0  0  0  0  0  0  0  0  0  0  0
    9.7718   -1.2819   -1.6653 C   0  0  0  0  0  0  0  0  0  0  0  0
   11.0012   -0.7254   -1.9672 F   0  0  0  0  0  0  0  0  0  0  0  0
    9.9256   -2.6403   -1.4588 F   0  0  0  0  0  0  0  0  0  0  0  0
    8.9165   -1.0862   -2.7357 F   0  0  0  0  0  0  0  0  0  0  0  0
    8.0058   -0.0316   -0.4547 N   0  0  0  0  0  0  0  0  0  0  0  0
    7.4805    0.5544    0.6562 C   0  0  0  0  0  0  0  0  0  0  0  0
    6.1161    1.1928    0.6055 C   0  0  0  0  0  0  0  0  0  0  0  0
    6.0126    2.2312   -0.5468 C   0  0  0  0  0  0  0  0  0  0  0  0
    5.0887    1.7679   -1.6781 C   0  0  0  0  0  0  0  0  0  0  0  0
    3.6879    1.4647   -1.1277 C   0  0  0  0  0  0  0  0  0  0  0  0
    3.7453    0.6617    0.1060 N   0  0  0  0  0  0  0  0  0  0  0  0
    2.5423    0.3810    0.8580 C   0  0  0  0  0  0  0  0  0  0  0  0
    2.6251    0.0067    2.0593 O   0  0  0  0  0  0  0  0  0  0  0  0
    1.1762    0.4613    0.2311 C   0  0  0  0  0  0  0  0  0  0  0  0
    0.8656   -0.8319   -0.5268 C   0  0  0  0  0  0  0  0  0  0  0  0
   -0.5237   -0.7892   -1.1042 C   0  0  0  0  0  0  0  0  0  0  0  0
   -0.7313   -0.3558   -2.4209 C   0  0  0  0  0  0  0  0  0  0  0  0
   -2.0210   -0.3234   -2.9544 C   0  0  0  0  0  0  0  0  0  0  0  0
   -3.1195   -0.6988   -2.1734 C   0  0  0  0  0  0  0  0  0  0  0  0
   -2.9326   -1.0843   -0.8289 C   0  0  0  0  0  0  0  0  0  0  0  0
   -1.6263   -1.1464   -0.3128 C   0  0  0  0  0  0  0  0  0  0  0  0
   -4.0953   -1.5392    0.0258 C   0  0  0  0  0  0  0  0  0  0  0  0
   -3.9888   -1.0000    1.3994 N   0  0  0  0  0  0  0  0  0  0  0  0
   -4.2737   -1.9854    2.4793 C   0  0  0  0  0  0  0  0  0  0  0  0
   -3.9798   -1.4289    3.8802 C   0  0  0  0  0  0  0  0  0  0  0  0
   -5.6822   -2.6087    2.4055 C   0  0  0  0  0  0  0  0  0  0  0  0
   -4.4274    0.4120    1.5551 C   0  0  0  0  0  0  0  0  0  0  0  0
   -5.9206    0.5968    1.6232 C   0  0  0  0  0  0  0  0  0  0  0  0
   -6.5169    0.4979    2.7273 O   0  0  0  0  0  0  0  0  0  0  0  0
   -6.6572    0.9889    0.4640 N   0  0  0  0  0  0  0  0  0  0  0  0
   -7.7775    0.1781   -0.0078 C   0  0  0  0  0  0  0  0  0  0  0  0
   -8.5074    0.8015   -1.2141 C   0  0  0  0  0  0  0  0  0  0  0  0
   -7.6301    1.2167   -2.4167 C   0  0  0  0  0  0  0  0  0  0  0  0
   -6.6715    0.1175   -2.9267 C   0  0  0  0  0  0  0  0  0  0  0  0
   -5.2050    0.4814   -2.6705 C   0  0  0  0  0  0  0  0  0  0  0  0
   -4.3942   -0.6838   -2.7398 O   0  0  0  0  0  0  0  0  0  0  0  0
    5.0341    0.0949    0.5323 C   0  0  0  0  0  0  0  0  0  0  0  0
    8.1673    0.5120    1.8295 N   0  0  0  0  0  0  0  0  0  0  0  0
   10.4144   -1.1557    3.4651 H   0  0  0  0  0  0  0  0  0  0  0  0
    9.4752    0.2759    4.0326 H   0  0  0  0  0  0  0  0  0  0  0  0
   11.0264    0.5185    3.1380 H   0  0  0  0  0  0  0  0  0  0  0  0
   10.9070   -1.1701    0.8234 H   0  0  0  0  0  0  0  0  0  0  0  0
    5.9591    1.7457    1.5594 H   0  0  0  0  0  0  0  0  0  0  0  0
    5.6108    3.1859   -0.1383 H   0  0  0  0  0  0  0  0  0  0  0  0
    7.0126    2.4718   -0.9706 H   0  0  0  0  0  0  0  0  0  0  0  0
    5.0201    2.5615   -2.4537 H   0  0  0  0  0  0  0  0  0  0  0  0
    5.5126    0.8578   -2.1578 H   0  0  0  0  0  0  0  0  0  0  0  0
    3.1834    2.4316   -0.9088 H   0  0  0  0  0  0  0  0  0  0  0  0
    3.1037    0.9273   -1.9047 H   0  0  0  0  0  0  0  0  0  0  0  0
    1.1034    1.3329   -0.4520 H   0  0  0  0  0  0  0  0  0  0  0  0
    0.4195    0.6114    1.0312 H   0  0  0  0  0  0  0  0  0  0  0  0
    0.9547   -1.7005    0.1627 H   0  0  0  0  0  0  0  0  0  0  0  0
    1.6111   -0.9819   -1.3387 H   0  0  0  0  0  0  0  0  0  0  0  0
    0.1061   -0.0545   -3.0380 H   0  0  0  0  0  0  0  0  0  0  0  0
   -2.1694   -0.0074   -3.9788 H   0  0  0  0  0  0  0  0  0  0  0  0
   -1.4645   -1.4795    0.7058 H   0  0  0  0  0  0  0  0  0  0  0  0
   -5.0713   -1.2557   -0.4149 H   0  0  0  0  0  0  0  0  0  0  0  0
   -4.0588   -2.6502    0.0280 H   0  0  0  0  0  0  0  0  0  0  0  0
   -3.5574   -2.8267    2.3462 H   0  0  0  0  0  0  0  0  0  0  0  0
   -2.9612   -0.9875    3.9072 H   0  0  0  0  0  0  0  0  0  0  0  0
   -4.7192   -0.6564    4.1728 H   0  0  0  0  0  0  0  0  0  0  0  0
   -4.0234   -2.2474    4.6292 H   0  0  0  0  0  0  0  0  0  0  0  0
   -5.8757   -3.0545    1.4099 H   0  0  0  0  0  0  0  0  0  0  0  0
   -6.4810   -1.8822    2.6250 H   0  0  0  0  0  0  0  0  0  0  0  0
   -5.7636   -3.4249    3.1550 H   0  0  0  0  0  0  0  0  0  0  0  0
   -4.0336    1.0169    0.7089 H   0  0  0  0  0  0  0  0  0  0  0  0
   -3.9607    0.8536    2.4610 H   0  0  0  0  0  0  0  0  0  0  0  0
   -6.3709    1.8638   -0.0252 H   0  0  0  0  0  0  0  0  0  0  0  0
   -7.4167   -0.8392   -0.2607 H   0  0  0  0  0  0  0  0  0  0  0  0
   -8.5121    0.0630    0.8188 H   0  0  0  0  0  0  0  0  0  0  0  0
   -9.0624    1.6988   -0.8635 H   0  0  0  0  0  0  0  0  0  0  0  0
   -9.2691    0.0718   -1.5686 H   0  0  0  0  0  0  0  0  0  0  0  0
   -8.3214    1.4875   -3.2465 H   0  0  0  0  0  0  0  0  0  0  0  0
   -7.0830    2.1547   -2.1786 H   0  0  0  0  0  0  0  0  0  0  0  0
   -6.9072   -0.8668   -2.4693 H   0  0  0  0  0  0  0  0  0  0  0  0
   -6.8092   -0.0110   -4.0232 H   0  0  0  0  0  0  0  0  0  0  0  0
   -4.8604    1.2201   -3.4261 H   0  0  0  0  0  0  0  0  0  0  0  0
   -5.0901    0.9392   -1.6682 H   0  0  0  0  0  0  0  0  0  0  0  0
    5.3276   -0.6890   -0.2005 H   0  0  0  0  0  0  0  0  0  0  0  0
    4.9583   -0.4036    1.5227 H   0  0  0  0  0  0  0  0  0  0  0  0
  1  2  1  0
  2  3  2  0
  3  4  1  0
  4  5  1  0
  5  6  1  0
  5  7  1  0
  5  8  1  0
  4  9  2  0
  9 10  1  0
 10 11  1  0
 11 12  1  0
 12 13  1  0
 13 14  1  0
 14 15  1  0
 15 16  1  0
 16 17  2  0
 16 18  1  0
 18 19  1  0
 19 20  1  0
 20 21  2  0
 21 22  1  0
 22 23  2  0
 23 24  1  0
 24 25  2  0
 24 26  1  0
 26 27  1  0
 27 28  1  0
 28 29  1  0
 28 30  1  0
 27 31  1  0
 31 32  1  0
 32 33  2  0
 32 34  1  0
 34 35  1  0
 35 36  1  0
 36 37  1  0
 37 38  1  0
 38 39  1  0
 39 40  1  0
 15 41  1  0
 10 42  2  0
 42  2  1  0
 41 11  1  0
 25 20  1  0
 40 23  1  0
  1 43  1  0
  1 44  1  0
  1 45  1  0
  3 46  1  0
 11 47  1  0
 12 48  1  0
 12 49  1  0
 13 50  1  0
 13 51  1  0
 14 52  1  0
 14 53  1  0
 18 54  1  0
 18 55  1  0
 19 56  1  0
 19 57  1  0
 21 58  1  0
 22 59  1  0
 25 60  1  0
 26 61  1  0
 26 62  1  0
 28 63  1  0
 29 64  1  0
 29 65  1  0
 29 66  1  0
 30 67  1  0
 30 68  1  0
 30 69  1  0
 31 70  1  0
 31 71  1  0
 34 72  1  0
 35 73  1  0
 35 74  1  0
 36 75  1  0
 36 76  1  0
 37 77  1  0
 37 78  1  0
 38 79  1  0
 38 80  1  0
 39 81  1  0
 39 82  1  0
 41 83  1  0
 41 84  1  0
M  END
$$$$
