
     RDKit          3D

 99101  0  0  0  0  0  0  0  0999 V2000
    0.5594    4.9963   -1.5438 C   0  0  0  0  0  0  0  0  0  0  0  0
    1.6790    3.9473   -1.4480 C   0  0  0  0  0  0  0  0  0  0  0  0
    2.9787    4.5327   -2.0169 C   0  0  0  0  0  0  0  0  0  0  0  0
    1.9060    3.4614    0.0070 C   0  0  0  0  0  0  0  0  0  0  0  0
    0.7839    2.5429    0.5360 C   0  0  2  0  0  0  0  0  0  0  0  0
   -0.3704    3.3704    0.9643 N   0  0  0  0  0  0  0  0  0  0  0  0
   -1.6340    2.6953    0.6519 C   0  0  0  0  0  0  0  0  0  0  0  0
   -2.8439    3.4380    1.2314 C   0  0  0  0  0  0  0  0  0  0  0  0
   -4.1681    2.8106    0.7541 C   0  0  0  0  0  0  0  0  0  0  0  0
   -4.4424    1.4313    1.3806 C   0  0  0  0  0  0  0  0  0  0  0  0
   -5.5620    0.7773    0.7071 N   0  0  0  0  0  0  0  0  0  0  0  0
   -5.3813    0.1265   -0.5583 C   0  0  0  0  0  0  0  0  0  0  0  0
   -5.8416    0.6777   -1.5935 O   0  0  0  0  0  0  0  0  0  0  0  0
   -4.7630   -1.2521   -0.6838 C   0  0  2  0  0  0  0  0  0  0  0  0
   -5.8473   -2.3220   -0.9289 C   0  0  0  0  0  0  0  0  0  0  0  0
   -6.7992   -2.4840    0.2343 C   0  0  0  0  0  0  0  0  0  0  0  0
   -7.9286   -1.6550    0.3521 C   0  0  0  0  0  0  0  0  0  0  0  0
   -8.7938   -1.7928    1.4423 C   0  0  0  0  0  0  0  0  0  0  0  0
   -8.5404   -2.7568    2.4218 C   0  0  0  0  0  0  0  0  0  0  0  0
   -7.4197   -3.5848    2.3118 C   0  0  0  0  0  0  0  0  0  0  0  0
   -6.5536   -3.4527    1.2221 C   0  0  0  0  0  0  0  0  0  0  0  0
   -3.9388   -1.6071    0.4777 N   0  0  0  0  0  0  0  0  0  0  0  0
   -2.9311   -2.6324    0.4262 C   0  0  0  0  0  0  0  0  0  0  0  0
   -3.0530   -3.6354    1.1810 O   0  0  0  0  0  0  0  0  0  0  0  0
   -1.6880   -2.5335   -0.4367 C   0  0  1  0  0  0  0  0  0  0  0  0
   -1.8819   -3.1733   -1.8194 C   0  0  0  0  0  0  0  0  0  0  0  0
   -1.1486   -1.1593   -0.4851 N   0  0  0  0  0  0  0  0  0  0  0  0
   -1.5827   -0.1603   -1.4668 C   0  0  0  0  0  0  0  0  0  0  0  0
   -0.3828   -0.7107    0.6463 C   0  0  0  0  0  0  0  0  0  0  0  0
   -0.9675   -0.5442    1.7499 O   0  0  0  0  0  0  0  0  0  0  0  0
    1.1293   -0.7077    0.6216 C   0  0  1  0  0  0  0  0  0  0  0  0
    1.7714   -0.6504   -0.7833 C   0  0  0  0  0  0  0  0  0  0  0  0
    3.2295   -1.0374   -0.7154 C   0  0  0  0  0  0  0  0  0  0  0  0
    4.2268   -0.0545   -0.6452 C   0  0  0  0  0  0  0  0  0  0  0  0
    5.5710   -0.4132   -0.5050 C   0  0  0  0  0  0  0  0  0  0  0  0
    5.9426   -1.7707   -0.4252 C   0  0  0  0  0  0  0  0  0  0  0  0
    7.2668   -2.2282   -0.2645 O   0  0  0  0  0  0  0  0  0  0  0  0
    8.4817   -1.5029   -0.0033 C   0  0  0  0  0  0  0  0  0  0  0  0
    8.8905   -0.6407   -1.2148 C   0  0  0  0  0  0  0  0  0  0  0  0
    8.3739   -0.6614    1.2857 C   0  0  0  0  0  0  0  0  0  0  0  0
    9.5784   -2.5619    0.2145 C   0  0  0  0  0  0  0  0  0  0  0  0
    4.9402   -2.7469   -0.5098 C   0  0  0  0  0  0  0  0  0  0  0  0
    3.5971   -2.3891   -0.6487 C   0  0  0  0  0  0  0  0  0  0  0  0
    1.6971    0.3035    1.5312 N   0  0  0  0  0  0  0  0  0  0  0  0
    1.3208    1.6916    1.6779 C   0  0  0  0  0  0  0  0  0  0  0  0
    1.5715    2.2571    2.7763 O   0  0  0  0  0  0  0  0  0  0  0  0
   -0.4237    4.5426   -1.3059 H   0  0  0  0  0  0  0  0  0  0  0  0
    0.7534    5.8460   -0.8524 H   0  0  0  0  0  0  0  0  0  0  0  0
    0.4925    5.3921   -2.5785 H   0  0  0  0  0  0  0  0  0  0  0  0
    1.4031    3.0782   -2.0874 H   0  0  0  0  0  0  0  0  0  0  0  0
    3.7858    3.7666   -2.0013 H   0  0  0  0  0  0  0  0  0  0  0  0
    3.3044    5.4146   -1.4186 H   0  0  0  0  0  0  0  0  0  0  0  0
    2.8315    4.8443   -3.0743 H   0  0  0  0  0  0  0  0  0  0  0  0
    2.8639    2.8977    0.0347 H   0  0  0  0  0  0  0  0  0  0  0  0
    2.0338    4.3326    0.6874 H   0  0  0  0  0  0  0  0  0  0  0  0
    0.4880    1.8739   -0.2908 H   0  0  0  0  0  0  0  0  0  0  0  0
   -0.3307    3.5820    1.9891 H   0  0  0  0  0  0  0  0  0  0  0  0
   -1.6068    1.6776    1.0703 H   0  0  0  0  0  0  0  0  0  0  0  0
   -1.7478    2.6400   -0.4529 H   0  0  0  0  0  0  0  0  0  0  0  0
   -2.8014    3.4310    2.3439 H   0  0  0  0  0  0  0  0  0  0  0  0
   -2.8122    4.4953    0.8876 H   0  0  0  0  0  0  0  0  0  0  0  0
   -5.0047    3.4931    1.0226 H   0  0  0  0  0  0  0  0  0  0  0  0
   -4.1564    2.7265   -0.3557 H   0  0  0  0  0  0  0  0  0  0  0  0
   -3.5527    0.7798    1.3221 H   0  0  0  0  0  0  0  0  0  0  0  0
   -4.6872    1.5587    2.4568 H   0  0  0  0  0  0  0  0  0  0  0  0
   -6.5131    1.1650    0.9003 H   0  0  0  0  0  0  0  0  0  0  0  0
   -4.1240   -1.2218   -1.5849 H   0  0  0  0  0  0  0  0  0  0  0  0
   -6.4208   -2.0633   -1.8468 H   0  0  0  0  0  0  0  0  0  0  0  0
   -5.3500   -3.2941   -1.1428 H   0  0  0  0  0  0  0  0  0  0  0  0
   -8.1396   -0.9045   -0.3996 H   0  0  0  0  0  0  0  0  0  0  0  0
   -9.6610   -1.1516    1.5291 H   0  0  0  0  0  0  0  0  0  0  0  0
   -9.2099   -2.8573    3.2672 H   0  0  0  0  0  0  0  0  0  0  0  0
   -7.2253   -4.3320    3.0697 H   0  0  0  0  0  0  0  0  0  0  0  0
   -5.6943   -4.1059    1.1459 H   0  0  0  0  0  0  0  0  0  0  0  0
   -4.3800   -1.4703    1.4156 H   0  0  0  0  0  0  0  0  0  0  0  0
   -0.9112   -3.1653    0.0533 H   0  0  0  0  0  0  0  0  0  0  0  0
   -2.0362   -4.2653   -1.7032 H   0  0  0  0  0  0  0  0  0  0  0  0
   -0.9782   -3.0154   -2.4412 H   0  0  0  0  0  0  0  0  0  0  0  0
   -2.7591   -2.7718   -2.3531 H   0  0  0  0  0  0  0  0  0  0  0  0
   -2.4092    0.4435   -1.0466 H   0  0  0  0  0  0  0  0  0  0  0  0
   -0.7419    0.5116   -1.7281 H   0  0  0  0  0  0  0  0  0  0  0  0
   -1.9216   -0.6255   -2.4114 H   0  0  0  0  0  0  0  0  0  0  0  0
    1.4002   -1.7062    1.0335 H   0  0  0  0  0  0  0  0  0  0  0  0
    1.2538   -1.3640   -1.4619 H   0  0  0  0  0  0  0  0  0  0  0  0
    1.6734    0.3523   -1.2395 H   0  0  0  0  0  0  0  0  0  0  0  0
    3.9627    0.9942   -0.6916 H   0  0  0  0  0  0  0  0  0  0  0  0
    6.2866    0.3858   -0.4590 H   0  0  0  0  0  0  0  0  0  0  0  0
    9.9127   -0.2240   -1.0644 H   0  0  0  0  0  0  0  0  0  0  0  0
    8.2130    0.2193   -1.3814 H   0  0  0  0  0  0  0  0  0  0  0  0
    8.8971   -1.2608   -2.1402 H   0  0  0  0  0  0  0  0  0  0  0  0
    8.0348   -1.2958    2.1312 H   0  0  0  0  0  0  0  0  0  0  0  0
    7.6671    0.1815    1.1903 H   0  0  0  0  0  0  0  0  0  0  0  0
    9.3626   -0.2264    1.5494 H   0  0  0  0  0  0  0  0  0  0  0  0
    9.3170   -3.2224    1.0694 H   0  0  0  0  0  0  0  0  0  0  0  0
   10.5603   -2.0867    0.4326 H   0  0  0  0  0  0  0  0  0  0  0  0
    9.6855   -3.2032   -0.6869 H   0  0  0  0  0  0  0  0  0  0  0  0
    5.2066   -3.7952   -0.4550 H   0  0  0  0  0  0  0  0  0  0  0  0
    2.8416   -3.1656   -0.6921 H   0  0  0  0  0  0  0  0  0  0  0  0
    2.3353   -0.0696    2.2721 H   0  0  0  0  0  0  0  0  0  0  0  0
  1  2  1  0
  2  3  1  0
  2  4  1  0
  4  5  1  0
  5  6  1  0
  6  7  1  0
  7  8  1  0
  8  9  1  0
  9 10  1  0
 10 11  1  0
 11 12  1  0
 12 13  2  0
 12 14  1  0
 14 15  1  0
 15 16  1  0
 16 17  2  0
 17 18  1  0
 18 19  2  0
 19 20  1  0
 20 21  2  0
 14 22  1  0
 22 23  1  0
 23 24  2  0
 23 25  1  0
 25 26  1  0
 25 27  1  0
 27 28  1  0
 27 29  1  0
 29 30  2  0
 29 31  1  0
 31 32  1  0
 32 33  1  0
 33 34  2  0
 34 35  1  0
 35 36  2  0
 36 37  1  0
 37 38  1  0
 38 39  1  0
 38 40  1  0
 38 41  1  0
 36 42  1  0
 42 43  2  0
 31 44  1  0
 44 45  1  0
 45 46  2  0
 45  5  1  0
 21 16  1  0
 43 33  1  0
  1 47  1  0
  1 48  1  0
  1 49  1  0
  2 50  1  0
  3 51  1  0
  3 52  1  0
  3 53  1  0
  4 54  1  0
  4 55  1  0
  5 56  1  6
  6 57  1  0
  7 58  1  0
  7 59  1  0
  8 60  1  0
  8 61  1  0
  9 62  1  0
  9 63  1  0
 10 64  1  0
 10 65  1  0
 11 66  1  0
 14 67  1  6
 15 68  1  0
 15 69  1  0
 17 70  1  0
 18 71  1  0
 19 72  1  0
 20 73  1  0
 21 74  1  0
 22 75  1  0
 25 76  1  1
 26 77  1  0
 26 78  1  0
 26 79  1  0
 28 80  1  0
 28 81  1  0
 28 82  1  0
 31 83  1  1
 32 84  1  0
 32 85  1  0
 34 86  1  0
 35 87  1  0
 39 88  1  0
 39 89  1  0
 39 90  1  0
 40 91  1  0
 40 92  1  0
 40 93  1  0
 41 94  1  0
 41 95  1  0
 41 96  1  0
 42 97  1  0
 43 98  1  0
 44 99  1  0
M  END
$$$$
