
     RDKit          3D

 76 78  0  0  0  0  0  0  0  0999 V2000
   -1.9678    4.1177    2.7160 C   0  0  0  0  0  0  0  0  0  0  0  0
   -1.7282    3.1015    1.7669 O   0  0  0  0  0  0  0  0  0  0  0  0
   -1.6620    1.8268    2.3924 C   0  0  2  0  0  0  0  0  0  0  0  0
   -0.1691    1.4466    2.5935 C   0  0  0  0  0  0  0  0  0  0  0  0
    0.0037    0.1114    3.1961 N   0  0  0  0  0  0  0  0  0  0  0  0
   -0.5353   -0.1495    4.5353 C   0  0  0  0  0  0  0  0  0  0  0  0
    0.7990   -0.9212    2.5676 C   0  0  0  0  0  0  0  0  0  0  0  0
    0.7634   -2.1005    3.0174 O   0  0  0  0  0  0  0  0  0  0  0  0
    1.7137   -0.6371    1.4496 C   0  0  0  0  0  0  0  0  0  0  0  0
    2.9502   -0.0639    1.7924 C   0  0  0  0  0  0  0  0  0  0  0  0
    3.9321    0.1693    0.8244 C   0  0  0  0  0  0  0  0  0  0  0  0
    5.1903    0.7376    1.2100 N   0  0  0  0  0  0  0  0  0  0  0  0
    6.6911   -0.0013    0.7547 S   0  0  0  0  0  6  0  0  0  0  0  0
    6.6244   -1.4728    1.0611 O   0  0  0  0  0  0  0  0  0  0  0  0
    7.8062    0.6044    1.5609 O   0  0  0  0  0  0  0  0  0  0  0  0
    7.0287    0.2583   -0.9554 C   0  0  0  0  0  0  0  0  0  0  0  0
    7.2115    1.5617   -1.4406 C   0  0  0  0  0  0  0  0  0  0  0  0
    7.4691    1.7745   -2.7998 C   0  0  0  0  0  0  0  0  0  0  0  0
    7.5530    0.6875   -3.6761 C   0  0  0  0  0  0  0  0  0  0  0  0
    7.3743   -0.6140   -3.1961 C   0  0  0  0  0  0  0  0  0  0  0  0
    7.1119   -0.8298   -1.8394 C   0  0  0  0  0  0  0  0  0  0  0  0
    3.6623   -0.1425   -0.5112 C   0  0  0  0  0  0  0  0  0  0  0  0
    2.4273   -0.6774   -0.8728 C   0  0  0  0  0  0  0  0  0  0  0  0
    1.4352   -0.9355    0.0815 C   0  0  0  0  0  0  0  0  0  0  0  0
    0.2126   -1.4120   -0.4376 O   0  0  0  0  0  0  0  0  0  0  0  0
   -0.8842   -2.0204    0.2438 C   0  0  0  0  0  0  0  0  0  0  0  0
   -2.1872   -1.8000   -0.5504 C   0  0  1  0  0  0  0  0  0  0  0  0
   -3.3315   -2.5891    0.1029 C   0  0  0  0  0  0  0  0  0  0  0  0
   -2.5839   -0.3705   -0.7090 N   0  0  0  0  0  0  0  0  0  0  0  0
   -3.6520   -0.0264   -1.6310 C   0  0  0  0  0  0  0  0  0  0  0  0
   -4.2883    1.0523   -1.4771 O   0  0  0  0  0  0  0  0  0  0  0  0
   -4.0085   -0.8933   -2.7235 N   0  0  0  0  0  0  0  0  0  0  0  0
   -5.3052   -0.7883   -3.4032 C   0  0  0  0  0  0  0  0  0  0  0  0
   -6.4287   -1.2430   -2.4648 C   0  0  0  0  0  0  0  0  0  0  0  0
   -5.3095   -1.6309   -4.6840 C   0  0  0  0  0  0  0  0  0  0  0  0
   -1.9679    0.7318    0.0704 C   0  0  0  0  0  0  0  0  0  0  0  0
   -2.4673    0.8000    1.5413 C   0  0  2  0  0  0  0  0  0  0  0  0
   -3.9655    1.1382    1.5938 C   0  0  0  0  0  0  0  0  0  0  0  0
   -1.9184    5.1019    2.2059 H   0  0  0  0  0  0  0  0  0  0  0  0
   -1.1966    4.1154    3.5173 H   0  0  0  0  0  0  0  0  0  0  0  0
   -2.9832    4.0108    3.1568 H   0  0  0  0  0  0  0  0  0  0  0  0
   -2.1372    1.8260    3.4044 H   0  0  0  0  0  0  0  0  0  0  0  0
    0.3698    1.5352    1.6304 H   0  0  0  0  0  0  0  0  0  0  0  0
    0.3032    2.1942    3.2658 H   0  0  0  0  0  0  0  0  0  0  0  0
   -1.3852   -0.8595    4.4620 H   0  0  0  0  0  0  0  0  0  0  0  0
   -0.8834    0.7852    5.0223 H   0  0  0  0  0  0  0  0  0  0  0  0
    0.2526   -0.5841    5.1876 H   0  0  0  0  0  0  0  0  0  0  0  0
    3.1657    0.1764    2.8282 H   0  0  0  0  0  0  0  0  0  0  0  0
    5.2162    1.3851    2.0303 H   0  0  0  0  0  0  0  0  0  0  0  0
    7.1566    2.4102   -0.7677 H   0  0  0  0  0  0  0  0  0  0  0  0
    7.6108    2.7814   -3.1732 H   0  0  0  0  0  0  0  0  0  0  0  0
    7.7588    0.8537   -4.7263 H   0  0  0  0  0  0  0  0  0  0  0  0
    7.4432   -1.4564   -3.8732 H   0  0  0  0  0  0  0  0  0  0  0  0
    6.9692   -1.8418   -1.4818 H   0  0  0  0  0  0  0  0  0  0  0  0
    4.3873    0.0617   -1.2845 H   0  0  0  0  0  0  0  0  0  0  0  0
    2.2310   -0.8858   -1.9176 H   0  0  0  0  0  0  0  0  0  0  0  0
   -1.0407   -1.6341    1.2478 H   0  0  0  0  0  0  0  0  0  0  0  0
   -0.6718   -3.1081    0.3372 H   0  0  0  0  0  0  0  0  0  0  0  0
   -1.9909   -2.2432   -1.5468 H   0  0  0  0  0  0  0  0  0  0  0  0
   -4.2554   -2.5190   -0.5064 H   0  0  0  0  0  0  0  0  0  0  0  0
   -3.0623   -3.6632    0.1853 H   0  0  0  0  0  0  0  0  0  0  0  0
   -3.5485   -2.1918    1.1166 H   0  0  0  0  0  0  0  0  0  0  0  0
   -3.3013   -1.5638   -3.0965 H   0  0  0  0  0  0  0  0  0  0  0  0
   -5.4836    0.2710   -3.6932 H   0  0  0  0  0  0  0  0  0  0  0  0
   -6.4523   -0.6079   -1.5541 H   0  0  0  0  0  0  0  0  0  0  0  0
   -7.4132   -1.1540   -2.9718 H   0  0  0  0  0  0  0  0  0  0  0  0
   -6.2735   -2.3003   -2.1580 H   0  0  0  0  0  0  0  0  0  0  0  0
   -5.1381   -2.7032   -4.4489 H   0  0  0  0  0  0  0  0  0  0  0  0
   -6.2844   -1.5283   -5.2054 H   0  0  0  0  0  0  0  0  0  0  0  0
   -4.5088   -1.2824   -5.3697 H   0  0  0  0  0  0  0  0  0  0  0  0
   -0.8727    0.6467    0.0291 H   0  0  0  0  0  0  0  0  0  0  0  0
   -2.1673    1.7086   -0.4214 H   0  0  0  0  0  0  0  0  0  0  0  0
   -2.3714   -0.1872    2.0279 H   0  0  0  0  0  0  0  0  0  0  0  0
   -4.5588    0.3395    1.1008 H   0  0  0  0  0  0  0  0  0  0  0  0
   -4.1706    2.1087    1.0934 H   0  0  0  0  0  0  0  0  0  0  0  0
   -4.3123    1.2026    2.6470 H   0  0  0  0  0  0  0  0  0  0  0  0
  1  2  1  0
  2  3  1  0
  3  4  1  0
  4  5  1  0
  5  6  1  0
  5  7  1  0
  7  8  2  0
  7  9  1  0
  9 10  2  0
 10 11  1  0
 11 12  1  0
 12 13  1  0
 13 14  2  0
 13 15  2  0
 13 16  1  0
 16 17  2  0
 17 18  1  0
 18 19  2  0
 19 20  1  0
 20 21  2  0
 11 22  2  0
 22 23  1  0
 23 24  2  0
 24 25  1  0
 25 26  1  0
 26 27  1  0
 27 28  1  0
 27 29  1  0
 29 30  1  0
 30 31  2  0
 30 32  1  0
 32 33  1  0
 33 34  1  0
 33 35  1  0
 29 36  1  0
 36 37  1  0
 37 38  1  0
 37  3  1  0
 24  9  1  0
 21 16  1  0
  1 39  1  0
  1 40  1  0
  1 41  1  0
  3 42  1  1
  4 43  1  0
  4 44  1  0
  6 45  1  0
  6 46  1  0
  6 47  1  0
 10 48  1  0
 12 49  1  0
 17 50  1  0
 18 51  1  0
 19 52  1  0
 20 53  1  0
 21 54  1  0
 22 55  1  0
 23 56  1  0
 26 57  1  0
 26 58  1  0
 27 59  1  6
 28 60  1  0
 28 61  1  0
 28 62  1  0
 32 63  1  0
 33 64  1  0
 34 65  1  0
 34 66  1  0
 34 67  1  0
 35 68  1  0
 35 69  1  0
 35 70  1  0
 36 71  1  0
 36 72  1  0
 37 73  1  1
 38 74  1  0
 38 75  1  0
 38 76  1  0
M  END
$$$$
