
     RDKit          3D

 77 79  0  0  0  0  0  0  0  0999 V2000
   -0.2388    4.0943    3.1187 C   0  0  0  0  0  0  0  0  0  0  0  0
   -0.2768    3.5865    1.6791 C   0  0  0  0  0  0  0  0  0  0  0  0
   -0.7855    2.2074    1.6227 N   0  0  0  0  0  0  0  0  0  0  0  0
   -2.2409    1.9916    1.5403 C   0  0  0  0  0  0  0  0  0  0  0  0
   -2.6800    1.8062    0.1066 C   0  0  0  0  0  0  0  0  0  0  0  0
   -2.4257    2.7327   -0.7125 O   0  0  0  0  0  0  0  0  0  0  0  0
   -3.3940    0.6465   -0.3707 N   0  0  0  0  0  0  0  0  0  0  0  0
   -3.8065   -0.5129    0.4362 C   0  0  0  0  0  0  0  0  0  0  0  0
   -5.2617   -0.3278    0.9493 C   0  0  0  0  0  0  0  0  0  0  0  0
   -6.3049   -0.2224   -0.1744 C   0  0  0  0  0  0  0  0  0  0  0  0
   -5.6619   -1.4242    1.9467 C   0  0  0  0  0  0  0  0  0  0  0  0
   -3.5604   -1.8159   -0.3502 C   0  0  0  0  0  0  0  0  0  0  0  0
   -2.2535   -1.7780   -0.9282 O   0  0  0  0  0  0  0  0  0  0  0  0
   -1.5605   -2.8722   -1.4681 C   0  0  0  0  0  0  0  0  0  0  0  0
   -1.9406   -4.2031   -1.1960 C   0  0  0  0  0  0  0  0  0  0  0  0
   -1.2320   -5.2705   -1.7518 C   0  0  0  0  0  0  0  0  0  0  0  0
   -0.1512   -5.0280   -2.5971 C   0  0  0  0  0  0  0  0  0  0  0  0
    0.2268   -3.7176   -2.8894 C   0  0  0  0  0  0  0  0  0  0  0  0
   -0.4572   -2.6323   -2.3167 C   0  0  0  0  0  0  0  0  0  0  0  0
   -0.0792   -1.2612   -2.7169 C   0  0  0  0  0  0  0  0  0  0  0  0
    0.0822   -1.0036   -3.9395 O   0  0  0  0  0  0  0  0  0  0  0  0
    0.1119   -0.2122   -1.7569 N   0  0  0  0  0  0  0  0  0  0  0  0
    1.2533   -0.1379   -0.8268 C   0  0  0  0  0  0  0  0  0  0  0  0
    2.5476   -0.6013   -1.4693 C   0  0  0  0  0  0  0  0  0  0  0  0
    2.6128   -1.7570   -1.9740 O   0  0  0  0  0  0  0  0  0  0  0  0
    3.7033    0.2546   -1.5383 N   0  0  0  0  0  0  0  0  0  0  0  0
    4.5849    0.2568   -2.6937 C   0  0  0  0  0  0  0  0  0  0  0  0
    5.7260    1.2025   -2.3437 C   0  0  0  0  0  0  0  0  0  0  0  0
    5.2467    2.0071   -1.1374 C   0  0  0  0  0  0  0  0  0  0  0  0
    4.1450    1.1647   -0.4837 C   0  0  0  0  0  0  0  0  0  0  0  0
    4.6694    0.3676    0.7384 C   0  0  0  0  0  0  0  0  0  0  0  0
    4.2496    0.9555    1.9561 O   0  0  0  0  0  0  0  0  0  0  0  0
    5.1215    2.0033    2.3279 C   0  0  0  0  0  0  0  0  0  0  0  0
    0.9718   -0.9090    0.4775 C   0  0  0  0  0  0  0  0  0  0  0  0
   -0.1753   -0.2835    1.2895 C   0  0  0  0  0  0  0  0  0  0  0  0
    0.1407    1.1065    1.7861 C   0  0  0  0  0  0  0  0  0  0  0  0
    1.2438    1.3008    2.3657 O   0  0  0  0  0  0  0  0  0  0  0  0
   -1.2615    4.0998    3.5510 H   0  0  0  0  0  0  0  0  0  0  0  0
    0.4136    3.4484    3.7426 H   0  0  0  0  0  0  0  0  0  0  0  0
    0.1600    5.1306    3.1406 H   0  0  0  0  0  0  0  0  0  0  0  0
    0.7429    3.6368    1.2371 H   0  0  0  0  0  0  0  0  0  0  0  0
   -0.9279    4.2572    1.0764 H   0  0  0  0  0  0  0  0  0  0  0  0
   -2.5355    1.1746    2.2224 H   0  0  0  0  0  0  0  0  0  0  0  0
   -2.7759    2.8864    1.9291 H   0  0  0  0  0  0  0  0  0  0  0  0
   -3.6836    0.6555   -1.3758 H   0  0  0  0  0  0  0  0  0  0  0  0
   -3.1603   -0.6059    1.3270 H   0  0  0  0  0  0  0  0  0  0  0  0
   -5.2890    0.6353    1.5065 H   0  0  0  0  0  0  0  0  0  0  0  0
   -7.2997    0.0174    0.2590 H   0  0  0  0  0  0  0  0  0  0  0  0
   -6.0420    0.5909   -0.8812 H   0  0  0  0  0  0  0  0  0  0  0  0
   -6.3959   -1.1766   -0.7328 H   0  0  0  0  0  0  0  0  0  0  0  0
   -5.7717   -2.4063    1.4398 H   0  0  0  0  0  0  0  0  0  0  0  0
   -6.6311   -1.1668    2.4230 H   0  0  0  0  0  0  0  0  0  0  0  0
   -4.8998   -1.5131    2.7495 H   0  0  0  0  0  0  0  0  0  0  0  0
   -3.6435   -2.6609    0.3614 H   0  0  0  0  0  0  0  0  0  0  0  0
   -4.3018   -1.9491   -1.1635 H   0  0  0  0  0  0  0  0  0  0  0  0
   -2.7778   -4.4336   -0.5536 H   0  0  0  0  0  0  0  0  0  0  0  0
   -1.5256   -6.2895   -1.5304 H   0  0  0  0  0  0  0  0  0  0  0  0
    0.3911   -5.8569   -3.0327 H   0  0  0  0  0  0  0  0  0  0  0  0
    1.0590   -3.5487   -3.5622 H   0  0  0  0  0  0  0  0  0  0  0  0
   -0.3860    0.6858   -1.9562 H   0  0  0  0  0  0  0  0  0  0  0  0
    1.3763    0.9306   -0.5631 H   0  0  0  0  0  0  0  0  0  0  0  0
    4.9725   -0.7660   -2.8908 H   0  0  0  0  0  0  0  0  0  0  0  0
    4.0294    0.6313   -3.5813 H   0  0  0  0  0  0  0  0  0  0  0  0
    5.9773    1.8708   -3.1985 H   0  0  0  0  0  0  0  0  0  0  0  0
    6.6273    0.6104   -2.0601 H   0  0  0  0  0  0  0  0  0  0  0  0
    4.8099    2.9691   -1.4914 H   0  0  0  0  0  0  0  0  0  0  0  0
    6.0934    2.2401   -0.4536 H   0  0  0  0  0  0  0  0  0  0  0  0
    3.3188    1.8386   -0.1767 H   0  0  0  0  0  0  0  0  0  0  0  0
    5.7716    0.2064    0.6962 H   0  0  0  0  0  0  0  0  0  0  0  0
    4.2436   -0.6571    0.7167 H   0  0  0  0  0  0  0  0  0  0  0  0
    4.8139    2.3747    3.3270 H   0  0  0  0  0  0  0  0  0  0  0  0
    6.1728    1.6517    2.4216 H   0  0  0  0  0  0  0  0  0  0  0  0
    5.0499    2.8575    1.6182 H   0  0  0  0  0  0  0  0  0  0  0  0
    1.8847   -0.9320    1.1095 H   0  0  0  0  0  0  0  0  0  0  0  0
    0.7150   -1.9631    0.2384 H   0  0  0  0  0  0  0  0  0  0  0  0
   -1.0578   -0.2564    0.6422 H   0  0  0  0  0  0  0  0  0  0  0  0
   -0.4072   -0.9319    2.1600 H   0  0  0  0  0  0  0  0  0  0  0  0
  1  2  1  0
  2  3  1  0
  3  4  1  0
  4  5  1  0
  5  6  2  0
  5  7  1  0
  7  8  1  0
  8  9  1  0
  9 10  1  0
  9 11  1  0
  8 12  1  0
 12 13  1  0
 13 14  1  0
 14 15  2  0
 15 16  1  0
 16 17  2  0
 17 18  1  0
 18 19  2  0
 19 20  1  0
 20 21  2  0
 20 22  1  0
 22 23  1  0
 23 24  1  0
 24 25  2  0
 24 26  1  0
 26 27  1  0
 27 28  1  0
 28 29  1  0
 29 30  1  0
 30 31  1  0
 31 32  1  0
 32 33  1  0
 23 34  1  0
 34 35  1  0
 35 36  1  0
 36 37  2  0
 36  3  1  0
 19 14  1  0
 30 26  1  0
  1 38  1  0
  1 39  1  0
  1 40  1  0
  2 41  1  0
  2 42  1  0
  4 43  1  0
  4 44  1  0
  7 45  1  0
  8 46  1  0
  9 47  1  0
 10 48  1  0
 10 49  1  0
 10 50  1  0
 11 51  1  0
 11 52  1  0
 11 53  1  0
 12 54  1  0
 12 55  1  0
 15 56  1  0
 16 57  1  0
 17 58  1  0
 18 59  1  0
 22 60  1  0
 23 61  1  0
 27 62  1  0
 27 63  1  0
 28 64  1  0
 28 65  1  0
 29 66  1  0
 29 67  1  0
 30 68  1  0
 31 69  1  0
 31 70  1  0
 33 71  1  0
 33 72  1  0
 33 73  1  0
 34 74  1  0
 34 75  1  0
 35 76  1  0
 35 77  1  0
M  END
$$$$
