
     RDKit          3D

 93 94  0  0  0  0  0  0  0  0999 V2000
    3.5344    3.7466   -2.0772 C   0  0  0  0  0  0  0  0  0  0  0  0
    3.7168    4.0728   -0.5918 C   0  0  0  0  0  0  0  0  0  0  0  0
    3.5001    2.8646    0.3471 C   0  0  1  0  0  0  0  0  0  0  0  0
    2.2185    2.2739    0.1131 O   0  0  0  0  0  0  0  0  0  0  0  0
    1.0449    2.7300    0.7167 C   0  0  0  0  0  0  0  0  0  0  0  0
    0.9702    3.9029    1.1694 O   0  0  0  0  0  0  0  0  0  0  0  0
   -0.0962    1.7794    0.9153 C   0  0  0  0  0  0  0  0  0  0  0  0
    0.1433    0.8346    2.1221 C   0  0  1  0  0  0  0  0  0  0  0  0
    0.7558    1.5756    3.1544 O   0  0  0  0  0  0  0  0  0  0  0  0
   -1.1842    0.2016    2.6519 C   0  0  2  0  0  0  0  0  0  0  0  0
   -1.0609   -0.2424    4.1265 C   0  0  0  0  0  0  0  0  0  0  0  0
   -1.8372   -0.9166    1.7639 C   0  0  1  0  0  0  0  0  0  0  0  0
   -1.8709   -0.5006    0.4042 O   0  0  0  0  0  0  0  0  0  0  0  0
   -3.1296   -0.6834   -0.2299 C   0  0  2  0  0  0  0  0  0  0  0  0
   -2.9925   -1.6128   -1.3014 O   0  0  0  0  0  0  0  0  0  0  0  0
   -2.6032   -1.0437   -2.5456 C   0  0  2  0  0  0  0  0  0  0  0  0
   -1.1504   -0.5398   -2.5241 C   0  0  0  0  0  0  0  0  0  0  0  0
   -3.6154    0.0203   -3.0756 C   0  0  1  0  0  0  0  0  0  0  0  0
   -4.4029   -0.5236   -4.1067 O   0  0  0  0  0  0  0  0  0  0  0  0
   -4.5191    0.5738   -1.9358 C   0  0  2  0  0  0  0  0  0  0  0  0
   -5.2167    1.8533   -2.2493 N   0  0  0  0  0  0  0  0  0  0  0  0
   -6.3983    1.6560   -3.1037 C   0  0  0  0  0  0  0  0  0  0  0  0
   -4.3667    2.9296   -2.7906 C   0  0  0  0  0  0  0  0  0  0  0  0
   -3.6888    0.7024   -0.6485 C   0  0  1  0  0  0  0  0  0  0  0  0
   -4.4386    1.2780    0.3958 O   0  0  0  0  0  0  0  0  0  0  0  0
   -1.2143   -2.3621    1.8819 C   0  0  1  0  0  0  0  0  0  0  0  0
   -2.3662   -3.4109    1.8356 C   0  0  0  0  0  0  0  0  0  0  0  0
   -1.9552   -4.7707    2.3166 C   0  0  0  0  0  0  0  0  0  0  0  0
   -2.0788   -5.7470    1.5944 O   0  0  0  0  0  0  0  0  0  0  0  0
   -0.1509   -2.6438    0.7718 C   0  0  0  0  0  0  0  0  0  0  0  0
    0.9331   -3.6858    1.1608 C   0  0  1  0  0  0  0  0  0  0  0  0
    1.6220   -4.2387   -0.0927 C   0  0  0  0  0  0  0  0  0  0  0  0
    1.9181   -3.1351    2.1798 C   0  0  0  0  0  0  0  0  0  0  0  0
    1.9035   -3.6082    3.3471 O   0  0  0  0  0  0  0  0  0  0  0  0
    2.7934   -1.9769    1.9167 C   0  0  0  0  0  0  0  0  0  0  0  0
    3.6725   -1.9455    0.9058 C   0  0  0  0  0  0  0  0  0  0  0  0
    4.4458   -0.7488    0.4691 C   0  0  0  0  0  0  0  0  0  0  0  0
    5.4452   -0.9629   -0.6390 C   0  0  0  0  0  0  0  0  0  0  0  0
    4.1276    0.4955    0.8914 C   0  0  0  0  0  0  0  0  0  0  0  0
    4.6027    1.7755    0.2228 C   0  0  2  0  0  0  0  0  0  0  0  0
    5.9500    2.2426    0.8343 C   0  0  0  0  0  0  0  0  0  0  0  0
    6.9657    2.2355   -0.1319 O   0  0  0  0  0  0  0  0  0  0  0  0
    3.5662    4.6899   -2.6637 H   0  0  0  0  0  0  0  0  0  0  0  0
    2.5546    3.2537   -2.2553 H   0  0  0  0  0  0  0  0  0  0  0  0
    4.3534    3.0959   -2.4458 H   0  0  0  0  0  0  0  0  0  0  0  0
    4.7274    4.5055   -0.4354 H   0  0  0  0  0  0  0  0  0  0  0  0
    2.9840    4.8640   -0.3228 H   0  0  0  0  0  0  0  0  0  0  0  0
    3.5237    3.2410    1.3944 H   0  0  0  0  0  0  0  0  0  0  0  0
   -0.1929    1.1856   -0.0118 H   0  0  0  0  0  0  0  0  0  0  0  0
   -1.0277    2.3684    1.0513 H   0  0  0  0  0  0  0  0  0  0  0  0
    0.8269    0.0273    1.7895 H   0  0  0  0  0  0  0  0  0  0  0  0
    1.4470    0.9970    3.5695 H   0  0  0  0  0  0  0  0  0  0  0  0
   -1.9289    1.0302    2.6780 H   0  0  0  0  0  0  0  0  0  0  0  0
   -1.9516   -0.8274    4.4418 H   0  0  0  0  0  0  0  0  0  0  0  0
   -0.9975    0.6470    4.7912 H   0  0  0  0  0  0  0  0  0  0  0  0
   -0.1472   -0.8526    4.2871 H   0  0  0  0  0  0  0  0  0  0  0  0
   -2.8597   -0.9533    2.2052 H   0  0  0  0  0  0  0  0  0  0  0  0
   -3.8964   -1.1463    0.4289 H   0  0  0  0  0  0  0  0  0  0  0  0
   -2.5937   -1.8859   -3.2730 H   0  0  0  0  0  0  0  0  0  0  0  0
   -0.7945   -0.3833   -3.5654 H   0  0  0  0  0  0  0  0  0  0  0  0
   -0.4928   -1.2910   -2.0389 H   0  0  0  0  0  0  0  0  0  0  0  0
   -1.0636    0.4247   -1.9904 H   0  0  0  0  0  0  0  0  0  0  0  0
   -3.0259    0.8453   -3.5234 H   0  0  0  0  0  0  0  0  0  0  0  0
   -4.9069   -1.2905   -3.7280 H   0  0  0  0  0  0  0  0  0  0  0  0
   -5.2897   -0.2020   -1.7118 H   0  0  0  0  0  0  0  0  0  0  0  0
   -7.0718    0.8879   -2.6690 H   0  0  0  0  0  0  0  0  0  0  0  0
   -6.9818    2.5999   -3.1668 H   0  0  0  0  0  0  0  0  0  0  0  0
   -6.1080    1.3501   -4.1298 H   0  0  0  0  0  0  0  0  0  0  0  0
   -4.8971    3.8994   -2.6874 H   0  0  0  0  0  0  0  0  0  0  0  0
   -3.4173    3.0224   -2.2266 H   0  0  0  0  0  0  0  0  0  0  0  0
   -4.1434    2.7725   -3.8684 H   0  0  0  0  0  0  0  0  0  0  0  0
   -2.8303    1.3792   -0.8427 H   0  0  0  0  0  0  0  0  0  0  0  0
   -5.2585    0.7322    0.5200 H   0  0  0  0  0  0  0  0  0  0  0  0
   -0.7235   -2.4700    2.8674 H   0  0  0  0  0  0  0  0  0  0  0  0
   -3.1964   -3.0959    2.5036 H   0  0  0  0  0  0  0  0  0  0  0  0
   -2.7846   -3.4806    0.8084 H   0  0  0  0  0  0  0  0  0  0  0  0
   -1.5565   -4.8926    3.3193 H   0  0  0  0  0  0  0  0  0  0  0  0
   -0.6804   -2.9910   -0.1428 H   0  0  0  0  0  0  0  0  0  0  0  0
    0.3634   -1.7084    0.4722 H   0  0  0  0  0  0  0  0  0  0  0  0
    0.4480   -4.5640    1.6241 H   0  0  0  0  0  0  0  0  0  0  0  0
    2.4967   -4.8638    0.1853 H   0  0  0  0  0  0  0  0  0  0  0  0
    0.9110   -4.8800   -0.6553 H   0  0  0  0  0  0  0  0  0  0  0  0
    1.9380   -3.4192   -0.7715 H   0  0  0  0  0  0  0  0  0  0  0  0
    2.7369   -1.1686    2.6279 H   0  0  0  0  0  0  0  0  0  0  0  0
    3.8282   -2.8468    0.3336 H   0  0  0  0  0  0  0  0  0  0  0  0
    4.9564   -0.7835   -1.6165 H   0  0  0  0  0  0  0  0  0  0  0  0
    5.8350   -2.0027   -0.6236 H   0  0  0  0  0  0  0  0  0  0  0  0
    6.3188   -0.2909   -0.5258 H   0  0  0  0  0  0  0  0  0  0  0  0
    3.4085    0.6254    1.6843 H   0  0  0  0  0  0  0  0  0  0  0  0
    4.7337    1.5628   -0.8559 H   0  0  0  0  0  0  0  0  0  0  0  0
    6.2659    1.5721    1.6642 H   0  0  0  0  0  0  0  0  0  0  0  0
    5.8771    3.2581    1.2848 H   0  0  0  0  0  0  0  0  0  0  0  0
    6.7912    3.0077   -0.7322 H   0  0  0  0  0  0  0  0  0  0  0  0
  1  2  1  0
  2  3  1  0
  3  4  1  0
  4  5  1  0
  5  6  2  0
  5  7  1  0
  7  8  1  0
  8  9  1  0
  8 10  1  0
 10 11  1  0
 10 12  1  0
 12 13  1  0
 13 14  1  0
 14 15  1  0
 15 16  1  0
 16 17  1  0
 16 18  1  0
 18 19  1  0
 18 20  1  0
 20 21  1  0
 21 22  1  0
 21 23  1  0
 20 24  1  0
 24 25  1  0
 12 26  1  0
 26 27  1  0
 27 28  1  0
 28 29  2  0
 26 30  1  0
 30 31  1  0
 31 32  1  0
 31 33  1  0
 33 34  2  0
 33 35  1  0
 35 36  2  0
 36 37  1  0
 37 38  1  0
 37 39  2  0
 39 40  1  0
 40 41  1  0
 41 42  1  0
 40  3  1  0
 24 14  1  0
  1 43  1  0
  1 44  1  0
  1 45  1  0
  2 46  1  0
  2 47  1  0
  3 48  1  1
  7 49  1  0
  7 50  1  0
  8 51  1  6
  9 52  1  0
 10 53  1  1
 11 54  1  0
 11 55  1  0
 11 56  1  0
 12 57  1  1
 14 58  1  1
 16 59  1  6
 17 60  1  0
 17 61  1  0
 17 62  1  0
 18 63  1  6
 19 64  1  0
 20 65  1  1
 22 66  1  0
 22 67  1  0
 22 68  1  0
 23 69  1  0
 23 70  1  0
 23 71  1  0
 24 72  1  6
 25 73  1  0
 26 74  1  1
 27 75  1  0
 27 76  1  0
 28 77  1  0
 30 78  1  0
 30 79  1  0
 31 80  1  1
 32 81  1  0
 32 82  1  0
 32 83  1  0
 35 84  1  0
 36 85  1  0
 38 86  1  0
 38 87  1  0
 38 88  1  0
 39 89  1  0
 40 90  1  6
 41 91  1  0
 41 92  1  0
 42 93  1  0
M  END
$$$$
