
     RDKit          3D

 70 73  0  0  0  0  0  0  0  0999 V2000
   -0.8170   -4.2209    0.7846 C   0  0  0  0  0  0  0  0  0  0  0  0
   -1.5931   -2.9223    1.0037 C   0  0  0  0  0  0  0  0  0  0  0  0
   -1.8937   -2.2503   -0.2754 N   0  0  0  0  0  0  0  0  0  0  0  0
   -3.2387   -2.4318   -0.8487 C   0  0  0  0  0  0  0  0  0  0  0  0
   -4.2909   -1.6120   -0.1023 C   0  0  0  0  0  0  0  0  0  0  0  0
   -4.1255   -0.2326   -0.4057 O   0  0  0  0  0  0  0  0  0  0  0  0
   -4.8325    0.8125    0.2084 C   0  0  0  0  0  0  0  0  0  0  0  0
   -5.8195    0.5696    1.1853 C   0  0  0  0  0  0  0  0  0  0  0  0
   -6.4745    1.6342    1.8078 C   0  0  0  0  0  0  0  0  0  0  0  0
   -6.1556    2.9484    1.4665 C   0  0  0  0  0  0  0  0  0  0  0  0
   -5.1898    3.2026    0.4912 C   0  0  0  0  0  0  0  0  0  0  0  0
   -4.5329    2.1416   -0.1556 C   0  0  0  0  0  0  0  0  0  0  0  0
   -3.5050    2.4461   -1.2195 C   0  0  0  0  0  0  0  0  0  0  0  0
   -2.1059    2.6798   -0.6252 C   0  0  0  0  0  0  0  0  0  0  0  0
   -1.3671    1.3960   -0.1971 C   0  0  0  0  0  0  0  0  0  0  0  0
   -0.8696    0.5647   -1.4012 C   0  0  0  0  0  0  0  0  0  0  0  0
    0.0422   -0.6799   -1.0722 C   0  0  0  0  0  0  0  0  0  0  0  0
    0.7232   -0.6672    0.3267 C   0  0  0  0  0  0  0  0  0  0  0  0
    1.8681    0.2454    0.3861 N   0  0  0  0  0  0  0  0  0  0  0  0
    2.5459    0.4264    1.6489 C   0  0  0  0  0  0  0  0  0  0  0  0
    1.9662    0.0974    2.7201 O   0  0  0  0  0  0  0  0  0  0  0  0
    3.9584    0.9477    1.7340 C   0  0  0  0  0  0  0  0  0  0  0  0
    4.9384    0.0844    0.9569 C   0  0  0  0  0  0  0  0  0  0  0  0
    4.8384   -1.3196    1.0433 C   0  0  0  0  0  0  0  0  0  0  0  0
    5.7205   -2.1437    0.3445 C   0  0  0  0  0  0  0  0  0  0  0  0
    6.7315   -1.5847   -0.4332 C   0  0  0  0  0  0  0  0  0  0  0  0
    6.8773   -0.1987   -0.4998 C   0  0  0  0  0  0  0  0  0  0  0  0
    6.0044    0.6495    0.2055 C   0  0  0  0  0  0  0  0  0  0  0  0
    6.2258    2.1379    0.1325 C   0  0  0  0  0  0  0  0  0  0  0  0
    2.2063    1.0388   -0.7957 C   0  0  0  0  0  0  0  0  0  0  0  0
    2.0641    0.1981   -2.0736 C   0  0  0  0  0  0  0  0  0  0  0  0
    1.0545   -0.8073   -2.0689 O   0  0  0  0  0  0  0  0  0  0  0  0
   -0.8173   -1.9428   -1.1872 C   0  0  0  0  0  0  0  0  0  0  0  0
   -0.6307   -2.7179   -2.1661 O   0  0  0  0  0  0  0  0  0  0  0  0
   -1.3910   -4.8971    0.1145 H   0  0  0  0  0  0  0  0  0  0  0  0
    0.1770   -4.0144    0.3357 H   0  0  0  0  0  0  0  0  0  0  0  0
   -0.6618   -4.7309    1.7589 H   0  0  0  0  0  0  0  0  0  0  0  0
   -1.0269   -2.2556    1.6796 H   0  0  0  0  0  0  0  0  0  0  0  0
   -2.5295   -3.1823    1.5413 H   0  0  0  0  0  0  0  0  0  0  0  0
   -3.5139   -3.5084   -0.8094 H   0  0  0  0  0  0  0  0  0  0  0  0
   -3.2575   -2.1299   -1.9202 H   0  0  0  0  0  0  0  0  0  0  0  0
   -5.3028   -1.9378   -0.4268 H   0  0  0  0  0  0  0  0  0  0  0  0
   -4.2008   -1.7720    0.9922 H   0  0  0  0  0  0  0  0  0  0  0  0
   -6.0863   -0.4380    1.4730 H   0  0  0  0  0  0  0  0  0  0  0  0
   -7.2268    1.4396    2.5609 H   0  0  0  0  0  0  0  0  0  0  0  0
   -6.6602    3.7714    1.9556 H   0  0  0  0  0  0  0  0  0  0  0  0
   -4.9559    4.2286    0.2354 H   0  0  0  0  0  0  0  0  0  0  0  0
   -3.4882    1.6516   -1.9926 H   0  0  0  0  0  0  0  0  0  0  0  0
   -3.8111    3.3711   -1.7564 H   0  0  0  0  0  0  0  0  0  0  0  0
   -2.1945    3.3539    0.2549 H   0  0  0  0  0  0  0  0  0  0  0  0
   -1.4857    3.2199   -1.3733 H   0  0  0  0  0  0  0  0  0  0  0  0
   -0.4942    1.7310    0.4003 H   0  0  0  0  0  0  0  0  0  0  0  0
   -2.0032    0.7803    0.4691 H   0  0  0  0  0  0  0  0  0  0  0  0
   -1.7481    0.2295   -1.9909 H   0  0  0  0  0  0  0  0  0  0  0  0
   -0.3377    1.2537   -2.0876 H   0  0  0  0  0  0  0  0  0  0  0  0
    1.1034   -1.6874    0.5540 H   0  0  0  0  0  0  0  0  0  0  0  0
   -0.0029   -0.3988    1.1187 H   0  0  0  0  0  0  0  0  0  0  0  0
    3.9480    1.9987    1.3837 H   0  0  0  0  0  0  0  0  0  0  0  0
    4.2874    0.9696    2.7955 H   0  0  0  0  0  0  0  0  0  0  0  0
    4.0682   -1.7818    1.6481 H   0  0  0  0  0  0  0  0  0  0  0  0
    5.6184   -3.2200    0.4073 H   0  0  0  0  0  0  0  0  0  0  0  0
    7.4125   -2.2265   -0.9768 H   0  0  0  0  0  0  0  0  0  0  0  0
    7.6806    0.2116   -1.0991 H   0  0  0  0  0  0  0  0  0  0  0  0
    5.4088    2.6139   -0.4486 H   0  0  0  0  0  0  0  0  0  0  0  0
    6.2589    2.5686    1.1551 H   0  0  0  0  0  0  0  0  0  0  0  0
    7.1895    2.3845   -0.3623 H   0  0  0  0  0  0  0  0  0  0  0  0
    3.2434    1.4220   -0.7535 H   0  0  0  0  0  0  0  0  0  0  0  0
    1.5447    1.9283   -0.8417 H   0  0  0  0  0  0  0  0  0  0  0  0
    3.0344   -0.3122   -2.2555 H   0  0  0  0  0  0  0  0  0  0  0  0
    1.8978    0.8755   -2.9388 H   0  0  0  0  0  0  0  0  0  0  0  0
  1  2  1  0
  2  3  1  0
  3  4  1  0
  4  5  1  0
  5  6  1  0
  6  7  1  0
  7  8  2  0
  8  9  1  0
  9 10  2  0
 10 11  1  0
 11 12  2  0
 12 13  1  0
 13 14  1  0
 14 15  1  0
 15 16  1  0
 16 17  1  0
 17 18  1  0
 18 19  1  0
 19 20  1  0
 20 21  2  0
 20 22  1  0
 22 23  1  0
 23 24  2  0
 24 25  1  0
 25 26  2  0
 26 27  1  0
 27 28  2  0
 28 29  1  0
 19 30  1  0
 30 31  1  0
 31 32  1  0
 17 33  1  0
 33 34  2  0
 33  3  1  0
 12  7  1  0
 32 17  1  0
 28 23  1  0
  1 35  1  0
  1 36  1  0
  1 37  1  0
  2 38  1  0
  2 39  1  0
  4 40  1  0
  4 41  1  0
  5 42  1  0
  5 43  1  0
  8 44  1  0
  9 45  1  0
 10 46  1  0
 11 47  1  0
 13 48  1  0
 13 49  1  0
 14 50  1  0
 14 51  1  0
 15 52  1  0
 15 53  1  0
 16 54  1  0
 16 55  1  0
 18 56  1  0
 18 57  1  0
 22 58  1  0
 22 59  1  0
 24 60  1  0
 25 61  1  0
 26 62  1  0
 27 63  1  0
 29 64  1  0
 29 65  1  0
 29 66  1  0
 30 67  1  0
 30 68  1  0
 31 69  1  0
 31 70  1  0
M  END
$$$$
