
     RDKit          3D

 61 64  0  0  0  0  0  0  0  0999 V2000
    4.1385    2.3667    1.9801 O   0  0  0  0  0  0  0  0  0  0  0  0
    3.7871    1.6554    0.9994 C   0  0  0  0  0  0  0  0  0  0  0  0
    2.3460    1.2674    0.8437 C   0  0  0  0  0  0  0  0  0  0  0  0
    2.2205   -0.2003    0.7322 N   0  0  0  0  0  0  0  0  0  0  0  0
    2.3674   -0.8895    2.0337 C   0  0  0  0  0  0  0  0  0  0  0  0
    1.0139   -1.1945    2.6928 C   0  0  0  0  0  0  0  0  0  0  0  0
    0.0395   -0.2547    2.2884 O   0  0  0  0  0  0  0  0  0  0  0  0
   -0.3066   -0.4065    0.9126 C   0  0  0  0  0  0  0  0  0  0  0  0
   -1.0334    0.9187    0.4859 C   0  0  0  0  0  0  0  0  0  0  0  0
   -2.1938    0.7466   -0.4676 C   0  0  0  0  0  0  0  0  0  0  0  0
   -2.0309    0.2895   -1.7220 C   0  0  0  0  0  0  0  0  0  0  0  0
   -3.1537   -0.1884   -2.6178 C   0  0  0  0  0  0  0  0  0  0  0  0
   -4.5569    0.1065   -2.1314 C   0  0  0  0  0  0  0  0  0  0  0  0
   -5.3228    1.0912   -2.7792 C   0  0  0  0  0  0  0  0  0  0  0  0
   -6.6361    1.3446   -2.3781 C   0  0  0  0  0  0  0  0  0  0  0  0
   -7.1999    0.6170   -1.3304 C   0  0  0  0  0  0  0  0  0  0  0  0
   -6.4468   -0.3519   -0.6634 C   0  0  0  0  0  0  0  0  0  0  0  0
   -5.1143   -0.6066   -1.0447 C   0  0  0  0  0  0  0  0  0  0  0  0
   -4.3115   -1.5228   -0.3455 O   0  0  0  0  0  0  0  0  0  0  0  0
   -4.6276   -2.0434    0.9445 C   0  0  0  0  0  0  0  0  0  0  0  0
   -3.4080   -2.7387    1.5461 C   0  0  0  0  0  0  0  0  0  0  0  0
   -2.3187   -1.7805    1.7440 N   0  0  0  0  0  0  0  0  0  0  0  0
   -1.2715   -1.5904    0.7797 C   0  0  0  0  0  0  0  0  0  0  0  0
   -1.2037   -2.3554   -0.2231 O   0  0  0  0  0  0  0  0  0  0  0  0
    0.9878   -0.6171    0.0340 C   0  0  0  0  0  0  0  0  0  0  0  0
    4.7494    1.2441    0.0184 N   0  0  0  0  0  0  0  0  0  0  0  0
    6.1658    1.6152    0.1082 C   0  0  0  0  0  0  0  0  0  0  0  0
    6.8916    1.4200   -1.2287 C   0  0  0  0  0  0  0  0  0  0  0  0
    8.3275    0.9989   -0.9227 C   0  0  0  0  0  0  0  0  0  0  0  0
    8.2656   -0.1827    0.4562 S   0  0  0  0  0  0  0  0  0  0  0  0
    6.8851    0.7490    1.0894 C   0  0  0  0  0  0  0  0  0  0  0  0
    6.6292    0.7702    2.2828 O   0  0  0  0  0  0  0  0  0  0  0  0
    1.9883    1.7634   -0.0845 H   0  0  0  0  0  0  0  0  0  0  0  0
    1.7424    1.6575    1.6946 H   0  0  0  0  0  0  0  0  0  0  0  0
    2.9061   -1.8466    1.8686 H   0  0  0  0  0  0  0  0  0  0  0  0
    2.9965   -0.2972    2.7345 H   0  0  0  0  0  0  0  0  0  0  0  0
    1.1237   -1.1390    3.7962 H   0  0  0  0  0  0  0  0  0  0  0  0
    0.6929   -2.2345    2.4581 H   0  0  0  0  0  0  0  0  0  0  0  0
   -0.3279    1.6562    0.0537 H   0  0  0  0  0  0  0  0  0  0  0  0
   -1.4455    1.4043    1.3980 H   0  0  0  0  0  0  0  0  0  0  0  0
   -3.1836    0.9450   -0.0719 H   0  0  0  0  0  0  0  0  0  0  0  0
   -1.0264    0.1185   -2.0911 H   0  0  0  0  0  0  0  0  0  0  0  0
   -2.9982    0.2485   -3.6275 H   0  0  0  0  0  0  0  0  0  0  0  0
   -3.0474   -1.2875   -2.7400 H   0  0  0  0  0  0  0  0  0  0  0  0
   -4.9056    1.6589   -3.6029 H   0  0  0  0  0  0  0  0  0  0  0  0
   -7.2221    2.0973   -2.8883 H   0  0  0  0  0  0  0  0  0  0  0  0
   -8.2221    0.8075   -1.0300 H   0  0  0  0  0  0  0  0  0  0  0  0
   -6.9087   -0.8967    0.1490 H   0  0  0  0  0  0  0  0  0  0  0  0
   -5.4603   -2.7727    0.8578 H   0  0  0  0  0  0  0  0  0  0  0  0
   -4.9367   -1.2156    1.6197 H   0  0  0  0  0  0  0  0  0  0  0  0
   -3.0879   -3.5783    0.8919 H   0  0  0  0  0  0  0  0  0  0  0  0
   -3.6887   -3.1706    2.5306 H   0  0  0  0  0  0  0  0  0  0  0  0
   -2.3980   -1.1187    2.5497 H   0  0  0  0  0  0  0  0  0  0  0  0
    1.1170   -1.6908   -0.2208 H   0  0  0  0  0  0  0  0  0  0  0  0
    0.9178   -0.1028   -0.9468 H   0  0  0  0  0  0  0  0  0  0  0  0
    4.4142    0.6563   -0.7787 H   0  0  0  0  0  0  0  0  0  0  0  0
    6.2641    2.6799    0.4154 H   0  0  0  0  0  0  0  0  0  0  0  0
    6.4156    0.6128   -1.8273 H   0  0  0  0  0  0  0  0  0  0  0  0
    6.8780    2.3555   -1.8278 H   0  0  0  0  0  0  0  0  0  0  0  0
    8.9274    1.8853   -0.6202 H   0  0  0  0  0  0  0  0  0  0  0  0
    8.7965    0.5262   -1.8119 H   0  0  0  0  0  0  0  0  0  0  0  0
  1  2  2  0
  2  3  1  0
  3  4  1  0
  4  5  1  0
  5  6  1  0
  6  7  1  0
  7  8  1  0
  8  9  1  0
  9 10  1  0
 10 11  2  0
 11 12  1  0
 12 13  1  0
 13 14  2  0
 14 15  1  0
 15 16  2  0
 16 17  1  0
 17 18  2  0
 18 19  1  0
 19 20  1  0
 20 21  1  0
 21 22  1  0
 22 23  1  0
 23 24  2  0
  8 25  1  0
  2 26  1  0
 26 27  1  0
 27 28  1  0
 28 29  1  0
 29 30  1  0
 30 31  1  0
 31 32  2  0
 25  4  1  0
 31 27  1  0
 23  8  1  0
 18 13  1  0
  3 33  1  0
  3 34  1  0
  5 35  1  0
  5 36  1  0
  6 37  1  0
  6 38  1  0
  9 39  1  0
  9 40  1  0
 10 41  1  0
 11 42  1  0
 12 43  1  0
 12 44  1  0
 14 45  1  0
 15 46  1  0
 16 47  1  0
 17 48  1  0
 20 49  1  0
 20 50  1  0
 21 51  1  0
 21 52  1  0
 22 53  1  0
 25 54  1  0
 25 55  1  0
 26 56  1  0
 27 57  1  0
 28 58  1  0
 28 59  1  0
 29 60  1  0
 29 61  1  0
M  END
$$$$
