
     RDKit          3D

 82 86  0  0  0  0  0  0  0  0999 V2000
   -5.4498   -1.6214   -2.1211 C   0  0  0  0  0  0  0  0  0  0  0  0
   -3.9249   -1.7838   -2.2181 C   0  0  0  0  0  0  0  0  0  0  0  0
   -3.5748   -3.2571   -2.5257 C   0  0  0  0  0  0  0  0  0  0  0  0
   -3.2419   -1.3116   -0.9080 C   0  0  2  0  0  0  0  0  0  0  0  0
   -3.5598    0.0539   -0.6249 O   0  0  0  0  0  0  0  0  0  0  0  0
   -4.3366    0.4614    0.4682 C   0  0  0  0  0  0  0  0  0  0  0  0
   -5.4118   -0.1514    0.7355 O   0  0  0  0  0  0  0  0  0  0  0  0
   -3.8763    1.6128    1.3558 C   0  0  0  0  0  0  0  0  0  0  0  0
   -2.4954    2.0844    0.9209 C   0  0  0  0  0  0  0  0  0  0  0  0
   -2.2524    2.6220   -0.2875 C   0  0  0  0  0  0  0  0  0  0  0  0
   -0.8824    2.8809   -0.7901 C   0  0  0  0  0  0  0  0  0  0  0  0
   -0.6815    3.8901   -1.7502 C   0  0  0  0  0  0  0  0  0  0  0  0
    0.5890    4.1042   -2.3030 C   0  0  0  0  0  0  0  0  0  0  0  0
    1.6676    3.2884   -1.9310 C   0  0  0  0  0  0  0  0  0  0  0  0
    2.9433    3.4718   -2.4794 C   0  0  0  0  0  0  0  0  0  0  0  0
    3.9871    2.6208   -2.1115 C   0  0  0  0  0  0  0  0  0  0  0  0
    3.7455    1.5673   -1.2006 C   0  0  0  0  0  0  0  0  0  0  0  0
    2.5008    1.4270   -0.6658 N   0  0  0  0  0  0  0  0  0  0  0  0
    1.4666    2.2526   -0.9957 C   0  0  0  0  0  0  0  0  0  0  0  0
    0.2054    2.0632   -0.4112 C   0  0  0  0  0  0  0  0  0  0  0  0
    4.8265    0.6038   -0.7445 C   0  0  1  0  0  0  0  0  0  0  0  0
    6.1051    0.6503   -1.5905 C   0  0  0  0  0  0  0  0  0  0  0  0
    5.1526    0.8597    0.6623 N   0  0  0  0  0  0  0  0  0  0  0  0
    4.8804   -0.0252    1.7713 C   0  0  0  0  0  0  0  0  0  0  0  0
    5.1135    0.3891    2.9418 O   0  0  0  0  0  0  0  0  0  0  0  0
    4.3143   -1.4236    1.6132 C   0  0  2  0  0  0  0  0  0  0  0  0
    5.3202   -2.3805    0.9221 C   0  0  0  0  0  0  0  0  0  0  0  0
    4.6474   -3.3468   -0.0624 C   0  0  0  0  0  0  0  0  0  0  0  0
    3.3039   -3.8349    0.4750 C   0  0  0  0  0  0  0  0  0  0  0  0
    2.4699   -2.6931    0.8785 N   0  0  0  0  0  0  0  0  0  0  0  0
    3.0208   -1.3855    0.9171 N   0  0  0  0  0  0  0  0  0  0  0  0
    1.0480   -2.9072    0.9947 C   0  0  0  0  0  0  0  0  0  0  0  0
    0.6176   -4.0251    1.3971 O   0  0  0  0  0  0  0  0  0  0  0  0
    0.0622   -1.8128    0.6753 C   0  0  2  0  0  0  0  0  0  0  0  0
   -0.5251   -1.2344    1.9683 C   0  0  0  0  0  0  0  0  0  0  0  0
   -1.0217   -2.3028   -0.1856 N   0  0  0  0  0  0  0  0  0  0  0  0
   -1.7488   -1.3927   -1.0063 C   0  0  0  0  0  0  0  0  0  0  0  0
   -1.1256   -0.6099   -1.7756 O   0  0  0  0  0  0  0  0  0  0  0  0
   -3.7995    1.1037    2.8224 C   0  0  0  0  0  0  0  0  0  0  0  0
   -5.0536    1.2333    3.4466 O   0  0  0  0  0  0  0  0  0  0  0  0
   -5.3909    2.6060    3.6034 C   0  0  0  0  0  0  0  0  0  0  0  0
   -4.8920    3.4543    2.5757 O   0  0  0  0  0  0  0  0  0  0  0  0
   -4.9065    2.7768    1.3339 C   0  0  0  0  0  0  0  0  0  0  0  0
   -5.8380   -2.1267   -1.2064 H   0  0  0  0  0  0  0  0  0  0  0  0
   -5.9621   -2.0617   -3.0178 H   0  0  0  0  0  0  0  0  0  0  0  0
   -5.7203   -0.5403   -2.0765 H   0  0  0  0  0  0  0  0  0  0  0  0
   -3.5680   -1.1514   -3.0663 H   0  0  0  0  0  0  0  0  0  0  0  0
   -4.1798   -3.6624   -3.3730 H   0  0  0  0  0  0  0  0  0  0  0  0
   -2.5128   -3.3539   -2.8025 H   0  0  0  0  0  0  0  0  0  0  0  0
   -3.7576   -3.8894   -1.6279 H   0  0  0  0  0  0  0  0  0  0  0  0
   -3.5731   -1.9663   -0.0678 H   0  0  0  0  0  0  0  0  0  0  0  0
   -1.6622    1.9284    1.5971 H   0  0  0  0  0  0  0  0  0  0  0  0
   -3.0784    2.8421   -0.9512 H   0  0  0  0  0  0  0  0  0  0  0  0
   -1.5039    4.5218   -2.0613 H   0  0  0  0  0  0  0  0  0  0  0  0
    0.7335    4.8934   -3.0260 H   0  0  0  0  0  0  0  0  0  0  0  0
    3.1330    4.2717   -3.1907 H   0  0  0  0  0  0  0  0  0  0  0  0
    4.9630    2.7915   -2.5370 H   0  0  0  0  0  0  0  0  0  0  0  0
    0.0680    1.2580    0.3051 H   0  0  0  0  0  0  0  0  0  0  0  0
    4.4181   -0.4142   -0.8698 H   0  0  0  0  0  0  0  0  0  0  0  0
    6.7894   -0.1599   -1.2744 H   0  0  0  0  0  0  0  0  0  0  0  0
    5.8545    0.4905   -2.6602 H   0  0  0  0  0  0  0  0  0  0  0  0
    6.6356    1.6156   -1.4571 H   0  0  0  0  0  0  0  0  0  0  0  0
    5.5758    1.7907    0.8905 H   0  0  0  0  0  0  0  0  0  0  0  0
    4.1393   -1.8191    2.6428 H   0  0  0  0  0  0  0  0  0  0  0  0
    6.1092   -1.8201    0.3797 H   0  0  0  0  0  0  0  0  0  0  0  0
    5.8491   -2.9703    1.7013 H   0  0  0  0  0  0  0  0  0  0  0  0
    4.4865   -2.8229   -1.0321 H   0  0  0  0  0  0  0  0  0  0  0  0
    5.3147   -4.2118   -0.2511 H   0  0  0  0  0  0  0  0  0  0  0  0
    2.7950   -4.4102   -0.3304 H   0  0  0  0  0  0  0  0  0  0  0  0
    3.4628   -4.5059    1.3487 H   0  0  0  0  0  0  0  0  0  0  0  0
    2.3993   -0.7765    1.4998 H   0  0  0  0  0  0  0  0  0  0  0  0
    0.5909   -1.0037    0.1317 H   0  0  0  0  0  0  0  0  0  0  0  0
    0.2616   -0.7316    2.5539 H   0  0  0  0  0  0  0  0  0  0  0  0
   -1.3025   -0.4901    1.7195 H   0  0  0  0  0  0  0  0  0  0  0  0
   -0.9901   -2.0233    2.5851 H   0  0  0  0  0  0  0  0  0  0  0  0
   -1.1230   -3.3211   -0.4018 H   0  0  0  0  0  0  0  0  0  0  0  0
   -3.5032    0.0375    2.8433 H   0  0  0  0  0  0  0  0  0  0  0  0
   -3.0340    1.6427    3.4163 H   0  0  0  0  0  0  0  0  0  0  0  0
   -4.9922    2.9551    4.5833 H   0  0  0  0  0  0  0  0  0  0  0  0
   -6.4960    2.6978    3.6372 H   0  0  0  0  0  0  0  0  0  0  0  0
   -4.6834    3.5134    0.5374 H   0  0  0  0  0  0  0  0  0  0  0  0
   -5.9353    2.4047    1.1181 H   0  0  0  0  0  0  0  0  0  0  0  0
  1  2  1  0
  2  3  1  0
  2  4  1  0
  4  5  1  0
  5  6  1  0
  6  7  2  0
  6  8  1  0
  8  9  1  0
  9 10  2  0
 10 11  1  0
 11 12  2  0
 12 13  1  0
 13 14  2  0
 14 15  1  0
 15 16  2  0
 16 17  1  0
 17 18  2  0
 18 19  1  0
 19 20  2  0
 17 21  1  0
 21 22  1  0
 21 23  1  0
 23 24  1  0
 24 25  2  0
 24 26  1  0
 26 27  1  0
 27 28  1  0
 28 29  1  0
 29 30  1  0
 30 31  1  0
 30 32  1  0
 32 33  2  0
 32 34  1  0
 34 35  1  0
 34 36  1  0
 36 37  1  0
 37 38  2  0
  8 39  1  0
 39 40  1  0
 40 41  1  0
 41 42  1  0
 42 43  1  0
 37  4  1  0
 43  8  1  0
 20 11  1  0
 31 26  1  0
 19 14  1  0
  1 44  1  0
  1 45  1  0
  1 46  1  0
  2 47  1  0
  3 48  1  0
  3 49  1  0
  3 50  1  0
  4 51  1  1
  9 52  1  0
 10 53  1  0
 12 54  1  0
 13 55  1  0
 15 56  1  0
 16 57  1  0
 20 58  1  0
 21 59  1  1
 22 60  1  0
 22 61  1  0
 22 62  1  0
 23 63  1  0
 26 64  1  1
 27 65  1  0
 27 66  1  0
 28 67  1  0
 28 68  1  0
 29 69  1  0
 29 70  1  0
 31 71  1  0
 34 72  1  6
 35 73  1  0
 35 74  1  0
 35 75  1  0
 36 76  1  0
 39 77  1  0
 39 78  1  0
 41 79  1  0
 41 80  1  0
 43 81  1  0
 43 82  1  0
M  END
$$$$
