
     RDKit          3D

 79 80  0  0  0  0  0  0  0  0999 V2000
    9.7680   -2.8967   -0.2517 C   0  0  0  0  0  0  0  0  0  0  0  0
    9.7603   -1.4903   -0.8489 C   0  0  0  0  0  0  0  0  0  0  0  0
    8.3773   -0.8235   -0.7832 C   0  0  0  0  0  0  0  0  0  0  0  0
    7.3663   -1.4582   -1.7527 C   0  0  0  0  0  0  0  0  0  0  0  0
    6.0385   -0.6846   -1.8014 C   0  0  0  0  0  0  0  0  0  0  0  0
    5.1298   -1.0009   -0.6009 C   0  0  0  0  0  0  0  0  0  0  0  0
    3.8604   -0.1939   -0.5954 C   0  0  0  0  0  0  0  0  0  0  0  0
    3.5411    0.4865   -1.6066 O   0  0  0  0  0  0  0  0  0  0  0  0
    3.0083   -0.2306    0.5654 N   0  0  0  0  0  0  0  0  0  0  0  0
    1.8163    0.6049    0.7748 C   0  0  1  0  0  0  0  0  0  0  0  0
    2.1438    2.1051    0.6327 C   0  0  0  0  0  0  0  0  0  0  0  0
    0.9842    2.9726    1.0639 C   0  0  0  0  0  0  0  0  0  0  0  0
    0.7450    3.2179    2.4283 C   0  0  0  0  0  0  0  0  0  0  0  0
   -0.3397    4.0106    2.8196 C   0  0  0  0  0  0  0  0  0  0  0  0
   -1.1899    4.5627    1.8555 C   0  0  0  0  0  0  0  0  0  0  0  0
   -0.9616    4.3169    0.4979 C   0  0  0  0  0  0  0  0  0  0  0  0
    0.1155    3.5191    0.1020 C   0  0  0  0  0  0  0  0  0  0  0  0
    0.6839    0.1719   -0.1289 C   0  0  0  0  0  0  0  0  0  0  0  0
    0.8139    0.2564   -1.3821 O   0  0  0  0  0  0  0  0  0  0  0  0
   -0.5444   -0.3180    0.4362 N   0  0  0  0  0  0  0  0  0  0  0  0
   -1.6872   -0.7288   -0.3891 C   0  0  1  0  0  0  0  0  0  0  0  0
   -2.3742   -1.9338    0.2115 C   0  0  0  0  0  0  0  0  0  0  0  0
   -2.9323   -1.9168    1.4345 C   0  0  0  0  0  0  0  0  0  0  0  0
   -3.7198   -3.0903    1.9529 C   0  0  0  0  0  0  0  0  0  0  0  0
   -5.1368   -3.1448    1.3477 C   0  0  0  0  0  0  0  0  0  0  0  0
   -6.1152   -2.4454    2.1930 N   0  0  0  0  0  0  0  0  0  0  0  0
   -6.0727   -1.0376    2.4851 C   0  0  0  0  0  0  0  0  0  0  0  0
   -6.4418   -0.6379    3.6211 O   0  0  0  0  0  0  0  0  0  0  0  0
   -5.5581   -0.0487    1.5212 C   0  0  0  0  0  0  0  0  0  0  0  0
   -5.8546   -0.1009    0.2194 C   0  0  0  0  0  0  0  0  0  0  0  0
   -5.1648    0.8066   -0.7725 C   0  0  2  0  0  0  0  0  0  0  0  0
   -6.0819    1.1772   -1.9759 C   0  0  0  0  0  0  0  0  0  0  0  0
   -5.4645    2.3205   -2.7923 C   0  0  0  0  0  0  0  0  0  0  0  0
   -6.4133   -0.0039   -2.9073 C   0  0  0  0  0  0  0  0  0  0  0  0
   -3.9271    0.1573   -1.2145 N   0  0  0  0  0  0  0  0  0  0  0  0
   -2.6755    0.3981   -0.5561 C   0  0  0  0  0  0  0  0  0  0  0  0
   -2.3861    1.5634   -0.1628 O   0  0  0  0  0  0  0  0  0  0  0  0
   10.8088   -3.2854   -0.2395 H   0  0  0  0  0  0  0  0  0  0  0  0
    9.3906   -2.8764    0.7943 H   0  0  0  0  0  0  0  0  0  0  0  0
    9.1471   -3.5886   -0.8635 H   0  0  0  0  0  0  0  0  0  0  0  0
   10.1166   -1.5313   -1.9001 H   0  0  0  0  0  0  0  0  0  0  0  0
   10.4806   -0.8653   -0.2754 H   0  0  0  0  0  0  0  0  0  0  0  0
    7.9992   -0.8631    0.2594 H   0  0  0  0  0  0  0  0  0  0  0  0
    8.5057    0.2458   -1.0545 H   0  0  0  0  0  0  0  0  0  0  0  0
    7.1716   -2.5122   -1.4684 H   0  0  0  0  0  0  0  0  0  0  0  0
    7.8019   -1.4583   -2.7760 H   0  0  0  0  0  0  0  0  0  0  0  0
    6.2430    0.4076   -1.8426 H   0  0  0  0  0  0  0  0  0  0  0  0
    5.5017   -0.9694   -2.7339 H   0  0  0  0  0  0  0  0  0  0  0  0
    4.8617   -2.0792   -0.6176 H   0  0  0  0  0  0  0  0  0  0  0  0
    5.6693   -0.7962    0.3452 H   0  0  0  0  0  0  0  0  0  0  0  0
    3.2690   -0.8880    1.3319 H   0  0  0  0  0  0  0  0  0  0  0  0
    1.4942    0.4428    1.8270 H   0  0  0  0  0  0  0  0  0  0  0  0
    3.0288    2.3436    1.2644 H   0  0  0  0  0  0  0  0  0  0  0  0
    2.4232    2.3523   -0.4146 H   0  0  0  0  0  0  0  0  0  0  0  0
    1.3983    2.7977    3.1845 H   0  0  0  0  0  0  0  0  0  0  0  0
   -0.5192    4.1975    3.8705 H   0  0  0  0  0  0  0  0  0  0  0  0
   -2.0256    5.1784    2.1578 H   0  0  0  0  0  0  0  0  0  0  0  0
   -1.6241    4.7372   -0.2490 H   0  0  0  0  0  0  0  0  0  0  0  0
    0.2706    3.3247   -0.9531 H   0  0  0  0  0  0  0  0  0  0  0  0
   -0.6722   -0.2483    1.4723 H   0  0  0  0  0  0  0  0  0  0  0  0
   -1.3341   -1.0190   -1.4002 H   0  0  0  0  0  0  0  0  0  0  0  0
   -2.4786   -2.8190   -0.4086 H   0  0  0  0  0  0  0  0  0  0  0  0
   -2.8291   -1.0390    2.0685 H   0  0  0  0  0  0  0  0  0  0  0  0
   -3.1726   -4.0301    1.7126 H   0  0  0  0  0  0  0  0  0  0  0  0
   -3.7855   -3.0297    3.0593 H   0  0  0  0  0  0  0  0  0  0  0  0
   -5.4401   -4.2135    1.2816 H   0  0  0  0  0  0  0  0  0  0  0  0
   -5.1582   -2.7512    0.3091 H   0  0  0  0  0  0  0  0  0  0  0  0
   -6.7692   -3.0388    2.7542 H   0  0  0  0  0  0  0  0  0  0  0  0
   -4.9385    0.7544    1.9014 H   0  0  0  0  0  0  0  0  0  0  0  0
   -6.5100   -0.8849   -0.1383 H   0  0  0  0  0  0  0  0  0  0  0  0
   -4.9176    1.7629   -0.2543 H   0  0  0  0  0  0  0  0  0  0  0  0
   -7.0448    1.5559   -1.5637 H   0  0  0  0  0  0  0  0  0  0  0  0
   -5.3098    3.2166   -2.1500 H   0  0  0  0  0  0  0  0  0  0  0  0
   -6.1461    2.6139   -3.6193 H   0  0  0  0  0  0  0  0  0  0  0  0
   -4.4887    2.0142   -3.2225 H   0  0  0  0  0  0  0  0  0  0  0  0
   -6.8610   -0.8528   -2.3507 H   0  0  0  0  0  0  0  0  0  0  0  0
   -5.5076   -0.3633   -3.4423 H   0  0  0  0  0  0  0  0  0  0  0  0
   -7.1552    0.3173   -3.6698 H   0  0  0  0  0  0  0  0  0  0  0  0
   -4.0050   -0.7217   -1.7750 H   0  0  0  0  0  0  0  0  0  0  0  0
  1  2  1  0
  2  3  1  0
  3  4  1  0
  4  5  1  0
  5  6  1  0
  6  7  1  0
  7  8  2  0
  7  9  1  0
  9 10  1  0
 10 11  1  0
 11 12  1  0
 12 13  2  0
 13 14  1  0
 14 15  2  0
 15 16  1  0
 16 17  2  0
 10 18  1  0
 18 19  2  0
 18 20  1  0
 20 21  1  0
 21 22  1  0
 22 23  2  0
 23 24  1  0
 24 25  1  0
 25 26  1  0
 26 27  1  0
 27 28  2  0
 27 29  1  0
 29 30  2  0
 30 31  1  0
 31 32  1  0
 32 33  1  0
 32 34  1  0
 31 35  1  0
 35 36  1  0
 36 37  2  0
 17 12  1  0
 36 21  1  0
  1 38  1  0
  1 39  1  0
  1 40  1  0
  2 41  1  0
  2 42  1  0
  3 43  1  0
  3 44  1  0
  4 45  1  0
  4 46  1  0
  5 47  1  0
  5 48  1  0
  6 49  1  0
  6 50  1  0
  9 51  1  0
 10 52  1  1
 11 53  1  0
 11 54  1  0
 13 55  1  0
 14 56  1  0
 15 57  1  0
 16 58  1  0
 17 59  1  0
 20 60  1  0
 21 61  1  6
 22 62  1  0
 23 63  1  0
 24 64  1  0
 24 65  1  0
 25 66  1  0
 25 67  1  0
 26 68  1  0
 29 69  1  0
 30 70  1  0
 31 71  1  1
 32 72  1  0
 33 73  1  0
 33 74  1  0
 33 75  1  0
 34 76  1  0
 34 77  1  0
 34 78  1  0
 35 79  1  0
M  END
$$$$
