
     RDKit          3D

 87 89  0  0  0  0  0  0  0  0999 V2000
   -4.1228   -3.7169   -2.6731 C   0  0  0  0  0  0  0  0  0  0  0  0
   -4.0935   -2.9395   -1.3497 C   0  0  0  0  0  0  0  0  0  0  0  0
   -4.5239   -3.8670   -0.2041 C   0  0  0  0  0  0  0  0  0  0  0  0
   -2.6836   -2.3224   -1.1381 C   0  0  0  0  0  0  0  0  0  0  0  0
   -2.4990   -1.3894    0.0939 C   0  0  2  0  0  0  0  0  0  0  0  0
   -2.5037   -2.1043    1.3901 N   0  0  0  0  0  0  0  0  0  0  0  0
   -1.4780   -3.1516    1.5582 C   0  0  0  0  0  0  0  0  0  0  0  0
   -0.0407   -2.6610    1.3038 C   0  0  0  0  0  0  0  0  0  0  0  0
    0.9838   -3.6512    1.8734 C   0  0  0  0  0  0  0  0  0  0  0  0
    2.4105   -3.3262    1.4168 C   0  0  0  0  0  0  0  0  0  0  0  0
    2.5887   -3.6958    0.0122 N   0  0  0  0  0  0  0  0  0  0  0  0
    2.7668   -2.7820   -1.0824 C   0  0  0  0  0  0  0  0  0  0  0  0
    2.4066   -3.1496   -2.2320 O   0  0  0  0  0  0  0  0  0  0  0  0
    3.4525   -1.4408   -0.9455 C   0  0  2  0  0  0  0  0  0  0  0  0
    4.8566   -1.5979   -0.3187 C   0  0  0  0  0  0  0  0  0  0  0  0
    5.7112   -0.3815   -0.5767 C   0  0  0  0  0  0  0  0  0  0  0  0
    5.7285    0.6929    0.3305 C   0  0  0  0  0  0  0  0  0  0  0  0
    6.4998    1.8289    0.0626 C   0  0  0  0  0  0  0  0  0  0  0  0
    7.2659    1.8955   -1.1059 C   0  0  0  0  0  0  0  0  0  0  0  0
    7.2544    0.8318   -2.0121 C   0  0  0  0  0  0  0  0  0  0  0  0
    6.4718   -0.2968   -1.7564 C   0  0  0  0  0  0  0  0  0  0  0  0
    2.6265   -0.4951   -0.1894 N   0  0  0  0  0  0  0  0  0  0  0  0
    1.4699    0.1272   -0.7698 C   0  0  0  0  0  0  0  0  0  0  0  0
    0.8098   -0.4859   -1.6515 O   0  0  0  0  0  0  0  0  0  0  0  0
    1.0329    1.5179   -0.3679 C   0  0  2  0  0  0  0  0  0  0  0  0
    2.2165    2.4719   -0.1420 C   0  0  0  0  0  0  0  0  0  0  0  0
    0.1136    1.4892    0.7921 N   0  0  0  0  0  0  0  0  0  0  0  0
    0.6234    1.2617    2.1524 C   0  0  0  0  0  0  0  0  0  0  0  0
   -1.3097    1.7244    0.6582 C   0  0  0  0  0  0  0  0  0  0  0  0
   -1.9833    2.0077    1.6889 O   0  0  0  0  0  0  0  0  0  0  0  0
   -2.0465    1.6156   -0.6653 C   0  0  2  0  0  0  0  0  0  0  0  0
   -2.1839    2.9977   -1.3582 C   0  0  0  0  0  0  0  0  0  0  0  0
   -2.8949    4.0401   -0.5241 C   0  0  0  0  0  0  0  0  0  0  0  0
   -4.2706    4.2753   -0.6896 C   0  0  0  0  0  0  0  0  0  0  0  0
   -4.9294    5.2115    0.1144 C   0  0  0  0  0  0  0  0  0  0  0  0
   -4.2205    5.9331    1.0804 C   0  0  0  0  0  0  0  0  0  0  0  0
   -4.8932    6.8520    1.8837 O   0  0  0  0  0  0  0  0  0  0  0  0
   -2.8433    5.7240    1.2328 C   0  0  0  0  0  0  0  0  0  0  0  0
   -2.1832    4.7876    0.4306 C   0  0  0  0  0  0  0  0  0  0  0  0
   -3.3636    0.9947   -0.4577 N   0  0  0  0  0  0  0  0  0  0  0  0
   -3.5657   -0.3107    0.1120 C   0  0  0  0  0  0  0  0  0  0  0  0
   -4.6921   -0.5793    0.6100 O   0  0  0  0  0  0  0  0  0  0  0  0
   -5.1442   -4.1141   -2.8634 H   0  0  0  0  0  0  0  0  0  0  0  0
   -3.8541   -3.0504   -3.5211 H   0  0  0  0  0  0  0  0  0  0  0  0
   -3.4093   -4.5717   -2.6448 H   0  0  0  0  0  0  0  0  0  0  0  0
   -4.8423   -2.1239   -1.4396 H   0  0  0  0  0  0  0  0  0  0  0  0
   -4.6465   -3.2992    0.7389 H   0  0  0  0  0  0  0  0  0  0  0  0
   -5.5066   -4.3297   -0.4337 H   0  0  0  0  0  0  0  0  0  0  0  0
   -3.7814   -4.6782   -0.0552 H   0  0  0  0  0  0  0  0  0  0  0  0
   -1.9189   -3.1267   -1.1316 H   0  0  0  0  0  0  0  0  0  0  0  0
   -2.4490   -1.7081   -2.0367 H   0  0  0  0  0  0  0  0  0  0  0  0
   -1.5155   -0.8969   -0.0218 H   0  0  0  0  0  0  0  0  0  0  0  0
   -2.3559   -1.3994    2.1531 H   0  0  0  0  0  0  0  0  0  0  0  0
   -1.7023   -4.0224    0.9085 H   0  0  0  0  0  0  0  0  0  0  0  0
   -1.5498   -3.5274    2.6042 H   0  0  0  0  0  0  0  0  0  0  0  0
    0.1173   -2.5573    0.2105 H   0  0  0  0  0  0  0  0  0  0  0  0
    0.1141   -1.6721    1.7822 H   0  0  0  0  0  0  0  0  0  0  0  0
    0.9448   -3.6080    2.9831 H   0  0  0  0  0  0  0  0  0  0  0  0
    0.7272   -4.6887    1.5662 H   0  0  0  0  0  0  0  0  0  0  0  0
    2.6316   -2.2598    1.6073 H   0  0  0  0  0  0  0  0  0  0  0  0
    3.1233   -3.9220    2.0261 H   0  0  0  0  0  0  0  0  0  0  0  0
    2.4178   -4.6971   -0.2336 H   0  0  0  0  0  0  0  0  0  0  0  0
    3.5951   -1.0279   -1.9710 H   0  0  0  0  0  0  0  0  0  0  0  0
    5.3613   -2.4885   -0.7553 H   0  0  0  0  0  0  0  0  0  0  0  0
    4.7843   -1.7804    0.7743 H   0  0  0  0  0  0  0  0  0  0  0  0
    5.1538    0.6517    1.2464 H   0  0  0  0  0  0  0  0  0  0  0  0
    6.5086    2.6549    0.7636 H   0  0  0  0  0  0  0  0  0  0  0  0
    7.8698    2.7712   -1.3064 H   0  0  0  0  0  0  0  0  0  0  0  0
    7.8495    0.8841   -2.9171 H   0  0  0  0  0  0  0  0  0  0  0  0
    6.4634   -1.1079   -2.4732 H   0  0  0  0  0  0  0  0  0  0  0  0
    2.9945   -0.1204    0.7093 H   0  0  0  0  0  0  0  0  0  0  0  0
    0.5170    1.9467   -1.2479 H   0  0  0  0  0  0  0  0  0  0  0  0
    2.8747    2.4737   -1.0353 H   0  0  0  0  0  0  0  0  0  0  0  0
    2.8297    2.1930    0.7365 H   0  0  0  0  0  0  0  0  0  0  0  0
    1.8371    3.5011    0.0149 H   0  0  0  0  0  0  0  0  0  0  0  0
    1.6521    0.8612    2.1519 H   0  0  0  0  0  0  0  0  0  0  0  0
   -0.0171    0.5265    2.6851 H   0  0  0  0  0  0  0  0  0  0  0  0
    0.6145    2.2194    2.7153 H   0  0  0  0  0  0  0  0  0  0  0  0
   -1.4833    0.9598   -1.3602 H   0  0  0  0  0  0  0  0  0  0  0  0
   -1.1800    3.3873   -1.6284 H   0  0  0  0  0  0  0  0  0  0  0  0
   -2.7215    2.8627   -2.3217 H   0  0  0  0  0  0  0  0  0  0  0  0
   -4.8364    3.7280   -1.4332 H   0  0  0  0  0  0  0  0  0  0  0  0
   -5.9926    5.3707   -0.0091 H   0  0  0  0  0  0  0  0  0  0  0  0
   -4.4105    7.3826    2.5992 H   0  0  0  0  0  0  0  0  0  0  0  0
   -2.2855    6.2803    1.9756 H   0  0  0  0  0  0  0  0  0  0  0  0
   -1.1182    4.6344    0.5649 H   0  0  0  0  0  0  0  0  0  0  0  0
   -4.2252    1.5526   -0.6445 H   0  0  0  0  0  0  0  0  0  0  0  0
  1  2  1  0
  2  3  1  0
  2  4  1  0
  4  5  1  0
  5  6  1  0
  6  7  1  0
  7  8  1  0
  8  9  1  0
  9 10  1  0
 10 11  1  0
 11 12  1  0
 12 13  2  0
 12 14  1  0
 14 15  1  0
 15 16  1  0
 16 17  2  0
 17 18  1  0
 18 19  2  0
 19 20  1  0
 20 21  2  0
 14 22  1  0
 22 23  1  0
 23 24  2  0
 23 25  1  0
 25 26  1  0
 25 27  1  0
 27 28  1  0
 27 29  1  0
 29 30  2  0
 29 31  1  0
 31 32  1  0
 32 33  1  0
 33 34  2  0
 34 35  1  0
 35 36  2  0
 36 37  1  0
 36 38  1  0
 38 39  2  0
 31 40  1  0
 40 41  1  0
 41 42  2  0
 41  5  1  0
 21 16  1  0
 39 33  1  0
  1 43  1  0
  1 44  1  0
  1 45  1  0
  2 46  1  0
  3 47  1  0
  3 48  1  0
  3 49  1  0
  4 50  1  0
  4 51  1  0
  5 52  1  6
  6 53  1  0
  7 54  1  0
  7 55  1  0
  8 56  1  0
  8 57  1  0
  9 58  1  0
  9 59  1  0
 10 60  1  0
 10 61  1  0
 11 62  1  0
 14 63  1  6
 15 64  1  0
 15 65  1  0
 17 66  1  0
 18 67  1  0
 19 68  1  0
 20 69  1  0
 21 70  1  0
 22 71  1  0
 25 72  1  6
 26 73  1  0
 26 74  1  0
 26 75  1  0
 28 76  1  0
 28 77  1  0
 28 78  1  0
 31 79  1  6
 32 80  1  0
 32 81  1  0
 34 82  1  0
 35 83  1  0
 37 84  1  0
 38 85  1  0
 39 86  1  0
 40 87  1  0
M  END
$$$$
