
     RDKit          3D

 96 99  0  0  0  0  0  0  0  0999 V2000
    1.6162   -2.9307    4.5960 C   0  0  0  0  0  0  0  0  0  0  0  0
    1.9544   -3.1402    3.1149 C   0  0  1  0  0  0  0  0  0  0  0  0
    0.9236   -4.0189    2.3367 C   0  0  0  0  0  0  0  0  0  0  0  0
   -0.5468   -3.8773    2.8086 C   0  0  0  0  0  0  0  0  0  0  0  0
   -1.6042   -4.4384    1.8345 C   0  0  0  0  0  0  0  0  0  0  0  0
   -1.4978   -3.9597    0.3704 C   0  0  0  0  0  0  0  0  0  0  0  0
   -0.9569   -2.6557    0.2799 O   0  0  0  0  0  0  0  0  0  0  0  0
   -1.9197   -1.6470    0.0124 C   0  0  2  0  0  0  0  0  0  0  0  0
   -2.0017   -1.4487   -1.5087 C   0  0  0  0  0  0  0  0  0  0  0  0
   -3.2104   -0.6551   -1.8318 N   0  0  0  0  0  0  0  0  0  0  0  0
   -4.3239   -1.5312   -2.2512 C   0  0  0  0  0  0  0  0  0  0  0  0
   -2.9266    0.3859   -2.8441 C   0  0  0  0  0  0  0  0  0  0  0  0
   -3.9810    1.5141   -2.8041 C   0  0  0  0  0  0  0  0  0  0  0  0
   -4.0432    2.1827   -1.4124 C   0  0  0  0  0  0  0  0  0  0  0  0
   -5.2017    3.1998   -1.3350 C   0  0  0  0  0  0  0  0  0  0  0  0
   -5.5296    3.8578   -2.6904 C   0  0  0  0  0  0  0  0  0  0  0  0
   -4.2858    3.9601   -3.5821 C   0  0  0  0  0  0  0  0  0  0  0  0
   -3.6891    2.5729   -3.8994 C   0  0  0  0  0  0  0  0  0  0  0  0
   -1.5252   -0.2851    0.7363 C   0  0  1  0  0  0  0  0  0  0  0  0
   -2.6301    0.0545    1.7603 C   0  0  0  0  0  0  0  0  0  0  0  0
   -0.1073   -0.3965    1.3977 C   0  0  0  0  0  0  0  0  0  0  0  0
    0.6883    0.8255    1.6722 N   0  0  0  0  0  0  0  0  0  0  0  0
    0.2529    1.8502    2.6585 C   0  0  2  0  0  0  0  0  0  0  0  0
   -0.2697    1.2391    3.9775 C   0  0  0  0  0  0  0  0  0  0  0  0
   -0.6365    2.9254    1.9983 C   0  0  0  0  0  0  0  0  0  0  0  0
   -1.5064    3.5214    2.9246 O   0  0  0  0  0  0  0  0  0  0  0  0
    2.0934    0.8675    1.2680 C   0  0  0  0  0  0  0  0  0  0  0  0
    2.7124    1.9724    1.3120 O   0  0  0  0  0  0  0  0  0  0  0  0
    2.8596   -0.2973    0.7264 C   0  0  0  0  0  0  0  0  0  0  0  0
    3.7318   -0.0394   -0.3487 C   0  0  0  0  0  0  0  0  0  0  0  0
    4.5127   -1.0641   -0.9040 C   0  0  0  0  0  0  0  0  0  0  0  0
    5.5464   -0.7695   -1.8545 N   0  0  0  0  0  0  0  0  0  0  0  0
    5.3722    0.1824   -2.9097 C   0  0  0  0  0  0  0  0  0  0  0  0
    4.4958   -0.0158   -3.7993 O   0  0  0  0  0  0  0  0  0  0  0  0
    6.2211    1.3863   -2.9552 C   0  0  0  0  0  0  0  0  0  0  0  0
    6.7392    1.9399   -1.7670 C   0  0  0  0  0  0  0  0  0  0  0  0
    7.5452    3.0768   -1.8279 C   0  0  0  0  0  0  0  0  0  0  0  0
    7.8242    3.6549   -3.0233 N   0  0  0  0  0  0  0  0  0  0  0  0
    7.3367    3.1383   -4.1932 C   0  0  0  0  0  0  0  0  0  0  0  0
    6.5162    2.0086   -4.1757 C   0  0  0  0  0  0  0  0  0  0  0  0
    4.3890   -2.3714   -0.4215 C   0  0  0  0  0  0  0  0  0  0  0  0
    3.5489   -2.6509    0.6444 C   0  0  0  0  0  0  0  0  0  0  0  0
    2.8346   -1.6139    1.2893 C   0  0  0  0  0  0  0  0  0  0  0  0
    2.1277   -1.8551    2.4815 O   0  0  0  0  0  0  0  0  0  0  0  0
    2.4758   -2.4467    5.1134 H   0  0  0  0  0  0  0  0  0  0  0  0
    1.4013   -3.9107    5.0697 H   0  0  0  0  0  0  0  0  0  0  0  0
    0.7240   -2.2722    4.7126 H   0  0  0  0  0  0  0  0  0  0  0  0
    2.9288   -3.6720    3.1189 H   0  0  0  0  0  0  0  0  0  0  0  0
    1.0080   -3.7514    1.2646 H   0  0  0  0  0  0  0  0  0  0  0  0
    1.2111   -5.0809    2.4190 H   0  0  0  0  0  0  0  0  0  0  0  0
   -0.6492   -4.4069    3.7774 H   0  0  0  0  0  0  0  0  0  0  0  0
   -0.8099   -2.8307    3.0166 H   0  0  0  0  0  0  0  0  0  0  0  0
   -2.5994   -4.1387    2.2177 H   0  0  0  0  0  0  0  0  0  0  0  0
   -1.5605   -5.5471    1.8548 H   0  0  0  0  0  0  0  0  0  0  0  0
   -2.4814   -4.0664   -0.1300 H   0  0  0  0  0  0  0  0  0  0  0  0
   -0.7976   -4.6380   -0.1526 H   0  0  0  0  0  0  0  0  0  0  0  0
   -2.9299   -1.9661    0.3681 H   0  0  0  0  0  0  0  0  0  0  0  0
   -1.0621   -0.9481   -1.8366 H   0  0  0  0  0  0  0  0  0  0  0  0
   -2.0108   -2.4341   -2.0356 H   0  0  0  0  0  0  0  0  0  0  0  0
   -5.2874   -0.9609   -2.2813 H   0  0  0  0  0  0  0  0  0  0  0  0
   -4.1265   -1.9920   -3.2494 H   0  0  0  0  0  0  0  0  0  0  0  0
   -4.4781   -2.3398   -1.5050 H   0  0  0  0  0  0  0  0  0  0  0  0
   -2.8808   -0.0618   -3.8677 H   0  0  0  0  0  0  0  0  0  0  0  0
   -1.9416    0.8607   -2.6365 H   0  0  0  0  0  0  0  0  0  0  0  0
   -4.9815    1.0744   -3.0254 H   0  0  0  0  0  0  0  0  0  0  0  0
   -4.1716    1.4254   -0.6104 H   0  0  0  0  0  0  0  0  0  0  0  0
   -3.0825    2.7121   -1.2218 H   0  0  0  0  0  0  0  0  0  0  0  0
   -4.9294    3.9816   -0.5933 H   0  0  0  0  0  0  0  0  0  0  0  0
   -6.1094    2.6891   -0.9515 H   0  0  0  0  0  0  0  0  0  0  0  0
   -5.9405    4.8727   -2.5151 H   0  0  0  0  0  0  0  0  0  0  0  0
   -6.3098    3.2595   -3.2155 H   0  0  0  0  0  0  0  0  0  0  0  0
   -3.5235    4.5795   -3.0564 H   0  0  0  0  0  0  0  0  0  0  0  0
   -4.5447    4.4726   -4.5252 H   0  0  0  0  0  0  0  0  0  0  0  0
   -4.0977    2.2029   -4.8644 H   0  0  0  0  0  0  0  0  0  0  0  0
   -2.5905    2.6968   -4.0290 H   0  0  0  0  0  0  0  0  0  0  0  0
   -1.4771    0.5461   -0.0052 H   0  0  0  0  0  0  0  0  0  0  0  0
   -2.5590    1.0786    2.1518 H   0  0  0  0  0  0  0  0  0  0  0  0
   -3.6275    0.0091    1.2838 H   0  0  0  0  0  0  0  0  0  0  0  0
   -2.6093   -0.6755    2.5830 H   0  0  0  0  0  0  0  0  0  0  0  0
    0.4692   -0.9778    0.6642 H   0  0  0  0  0  0  0  0  0  0  0  0
   -0.1817   -0.9692    2.3284 H   0  0  0  0  0  0  0  0  0  0  0  0
    1.1448    2.4064    3.0170 H   0  0  0  0  0  0  0  0  0  0  0  0
   -0.2155    2.0017    4.7834 H   0  0  0  0  0  0  0  0  0  0  0  0
   -1.3120    0.8834    3.9243 H   0  0  0  0  0  0  0  0  0  0  0  0
    0.3857    0.4014    4.2727 H   0  0  0  0  0  0  0  0  0  0  0  0
   -1.2221    2.5107    1.1542 H   0  0  0  0  0  0  0  0  0  0  0  0
    0.0150    3.7018    1.5361 H   0  0  0  0  0  0  0  0  0  0  0  0
   -0.9582    4.1421    3.4748 H   0  0  0  0  0  0  0  0  0  0  0  0
    3.8248    0.9626   -0.7475 H   0  0  0  0  0  0  0  0  0  0  0  0
    6.3691   -1.4180   -1.9105 H   0  0  0  0  0  0  0  0  0  0  0  0
    6.5249    1.4887   -0.8076 H   0  0  0  0  0  0  0  0  0  0  0  0
    7.9564    3.4906   -0.9109 H   0  0  0  0  0  0  0  0  0  0  0  0
    7.5772    3.6296   -5.1230 H   0  0  0  0  0  0  0  0  0  0  0  0
    6.1301    1.6152   -5.1066 H   0  0  0  0  0  0  0  0  0  0  0  0
    4.9735   -3.1756   -0.8588 H   0  0  0  0  0  0  0  0  0  0  0  0
    3.4907   -3.6692    0.9913 H   0  0  0  0  0  0  0  0  0  0  0  0
  1  2  1  0
  2  3  1  0
  3  4  1  0
  4  5  1  0
  5  6  1  0
  6  7  1  0
  7  8  1  0
  8  9  1  0
  9 10  1  0
 10 11  1  0
 10 12  1  0
 12 13  1  0
 13 14  1  0
 14 15  1  0
 15 16  1  0
 16 17  1  0
 17 18  1  0
  8 19  1  0
 19 20  1  0
 19 21  1  0
 21 22  1  0
 22 23  1  0
 23 24  1  0
 23 25  1  0
 25 26  1  0
 22 27  1  0
 27 28  2  0
 27 29  1  0
 29 30  2  0
 30 31  1  0
 31 32  1  0
 32 33  1  0
 33 34  2  0
 33 35  1  0
 35 36  2  0
 36 37  1  0
 37 38  2  0
 38 39  1  0
 39 40  2  0
 31 41  2  0
 41 42  1  0
 42 43  2  0
 43 44  1  0
 44  2  1  0
 18 13  1  0
 43 29  1  0
 40 35  1  0
  1 45  1  0
  1 46  1  0
  1 47  1  0
  2 48  1  1
  3 49  1  0
  3 50  1  0
  4 51  1  0
  4 52  1  0
  5 53  1  0
  5 54  1  0
  6 55  1  0
  6 56  1  0
  8 57  1  1
  9 58  1  0
  9 59  1  0
 11 60  1  0
 11 61  1  0
 11 62  1  0
 12 63  1  0
 12 64  1  0
 13 65  1  0
 14 66  1  0
 14 67  1  0
 15 68  1  0
 15 69  1  0
 16 70  1  0
 16 71  1  0
 17 72  1  0
 17 73  1  0
 18 74  1  0
 18 75  1  0
 19 76  1  6
 20 77  1  0
 20 78  1  0
 20 79  1  0
 21 80  1  0
 21 81  1  0
 23 82  1  1
 24 83  1  0
 24 84  1  0
 24 85  1  0
 25 86  1  0
 25 87  1  0
 26 88  1  0
 30 89  1  0
 32 90  1  0
 36 91  1  0
 37 92  1  0
 39 93  1  0
 40 94  1  0
 41 95  1  0
 42 96  1  0
M  END
$$$$
