
     RDKit          3D

 63 67  0  0  0  0  0  0  0  0999 V2000
   -2.7741   -3.0386    1.3249 O   0  0  0  0  0  0  0  0  0  0  0  0
   -2.7368   -2.0072    0.5989 C   0  0  0  0  0  0  0  0  0  0  0  0
   -3.8518   -1.0526    0.7023 C   0  0  0  0  0  0  0  0  0  0  0  0
   -3.7275    0.1031    1.4822 C   0  0  0  0  0  0  0  0  0  0  0  0
   -4.7876    0.9416    1.6363 N   0  0  0  0  0  0  0  0  0  0  0  0
   -5.9958    0.6851    1.0633 C   0  0  0  0  0  0  0  0  0  0  0  0
   -7.0653    1.5714    1.2460 C   0  0  0  0  0  0  0  0  0  0  0  0
   -8.3117    1.2901    0.6759 C   0  0  0  0  0  0  0  0  0  0  0  0
   -8.4935    0.1253   -0.0810 C   0  0  0  0  0  0  0  0  0  0  0  0
   -7.4287   -0.7600   -0.2763 C   0  0  0  0  0  0  0  0  0  0  0  0
   -6.1743   -0.4835    0.2893 C   0  0  0  0  0  0  0  0  0  0  0  0
   -5.0899   -1.3532    0.1152 C   0  0  0  0  0  0  0  0  0  0  0  0
   -1.6300   -1.8004   -0.3124 N   0  0  0  0  0  0  0  0  0  0  0  0
   -0.6351   -2.8396   -0.5476 C   0  0  0  0  0  0  0  0  0  0  0  0
    0.7264   -2.2652   -0.1946 C   0  0  0  0  0  0  0  0  0  0  0  0
    1.0081   -1.0750   -0.9227 O   0  0  0  0  0  0  0  0  0  0  0  0
    0.0572   -0.0219   -0.7405 C   0  0  0  0  0  0  0  0  0  0  0  0
    0.3472    1.0771   -1.8200 C   0  0  0  0  0  0  0  0  0  0  0  0
    1.6102    1.9449   -1.6234 C   0  0  0  0  0  0  0  0  0  0  0  0
    2.9258    1.2277   -1.9770 C   0  0  0  0  0  0  0  0  0  0  0  0
    4.1626    1.8848   -1.3136 C   0  0  0  0  0  0  0  0  0  0  0  0
    5.0964    0.8456   -0.7341 C   0  0  0  0  0  0  0  0  0  0  0  0
    5.8287    0.0526   -1.6363 C   0  0  0  0  0  0  0  0  0  0  0  0
    6.7159   -0.9204   -1.1752 C   0  0  0  0  0  0  0  0  0  0  0  0
    6.9011   -1.1068    0.1938 C   0  0  0  0  0  0  0  0  0  0  0  0
    6.1853   -0.3301    1.1072 C   0  0  0  0  0  0  0  0  0  0  0  0
    5.2750    0.6390    0.6627 C   0  0  0  0  0  0  0  0  0  0  0  0
    4.5975    1.3664    1.6562 O   0  0  0  0  0  0  0  0  0  0  0  0
    3.1769    1.4196    1.8430 C   0  0  0  0  0  0  0  0  0  0  0  0
    2.4852    0.0930    1.5087 C   0  0  0  0  0  0  0  0  0  0  0  0
    1.0375    0.2044    1.6942 N   0  0  0  0  0  0  0  0  0  0  0  0
    0.1136    0.6099    0.6606 C   0  0  0  0  0  0  0  0  0  0  0  0
   -0.7164    1.5241    0.9349 O   0  0  0  0  0  0  0  0  0  0  0  0
   -1.3914   -0.5429   -1.0225 C   0  0  0  0  0  0  0  0  0  0  0  0
   -2.7912    0.3305    1.9780 H   0  0  0  0  0  0  0  0  0  0  0  0
   -6.9343    2.4774    1.8279 H   0  0  0  0  0  0  0  0  0  0  0  0
   -9.1383    1.9748    0.8209 H   0  0  0  0  0  0  0  0  0  0  0  0
   -9.4593   -0.0925   -0.5166 H   0  0  0  0  0  0  0  0  0  0  0  0
   -7.5882   -1.6593   -0.8628 H   0  0  0  0  0  0  0  0  0  0  0  0
   -5.2090   -2.2628   -0.4639 H   0  0  0  0  0  0  0  0  0  0  0  0
   -0.6533   -3.1354   -1.6221 H   0  0  0  0  0  0  0  0  0  0  0  0
   -0.8233   -3.7493    0.0622 H   0  0  0  0  0  0  0  0  0  0  0  0
    1.5020   -3.0175   -0.4535 H   0  0  0  0  0  0  0  0  0  0  0  0
    0.7896   -2.1092    0.9012 H   0  0  0  0  0  0  0  0  0  0  0  0
   -0.5141    1.7794   -1.8383 H   0  0  0  0  0  0  0  0  0  0  0  0
    0.3872    0.6073   -2.8266 H   0  0  0  0  0  0  0  0  0  0  0  0
    1.6197    2.3566   -0.6013 H   0  0  0  0  0  0  0  0  0  0  0  0
    1.5274    2.8278   -2.2953 H   0  0  0  0  0  0  0  0  0  0  0  0
    3.0556    1.2615   -3.0848 H   0  0  0  0  0  0  0  0  0  0  0  0
    2.8773    0.1533   -1.7227 H   0  0  0  0  0  0  0  0  0  0  0  0
    3.8960    2.6417   -0.5572 H   0  0  0  0  0  0  0  0  0  0  0  0
    4.7150    2.4610   -2.0887 H   0  0  0  0  0  0  0  0  0  0  0  0
    5.7107    0.1930   -2.7060 H   0  0  0  0  0  0  0  0  0  0  0  0
    7.2759   -1.5165   -1.8853 H   0  0  0  0  0  0  0  0  0  0  0  0
    7.5936   -1.8588    0.5493 H   0  0  0  0  0  0  0  0  0  0  0  0
    6.3366   -0.4850    2.1699 H   0  0  0  0  0  0  0  0  0  0  0  0
    2.9849    1.6650    2.9096 H   0  0  0  0  0  0  0  0  0  0  0  0
    2.7463    2.2535    1.2661 H   0  0  0  0  0  0  0  0  0  0  0  0
    2.7288   -0.2061    0.4804 H   0  0  0  0  0  0  0  0  0  0  0  0
    2.8752   -0.7062    2.1760 H   0  0  0  0  0  0  0  0  0  0  0  0
    0.7069    0.3203    2.6807 H   0  0  0  0  0  0  0  0  0  0  0  0
   -2.1435    0.2289   -0.7622 H   0  0  0  0  0  0  0  0  0  0  0  0
   -1.5149   -0.7413   -2.1107 H   0  0  0  0  0  0  0  0  0  0  0  0
  1  2  2  0
  2  3  1  0
  3  4  2  0
  4  5  1  0
  5  6  2  0
  6  7  1  0
  7  8  2  0
  8  9  1  0
  9 10  2  0
 10 11  1  0
 11 12  2  0
  2 13  1  0
 13 14  1  0
 14 15  1  0
 15 16  1  0
 16 17  1  0
 17 18  1  0
 18 19  1  0
 19 20  1  0
 20 21  1  0
 21 22  1  0
 22 23  2  0
 23 24  1  0
 24 25  2  0
 25 26  1  0
 26 27  2  0
 27 28  1  0
 28 29  1  0
 29 30  1  0
 30 31  1  0
 31 32  1  0
 32 33  2  0
 17 34  1  0
 12  3  1  0
 34 13  1  0
 11  6  1  0
 32 17  1  0
 27 22  1  0
  4 35  1  0
  7 36  1  0
  8 37  1  0
  9 38  1  0
 10 39  1  0
 12 40  1  0
 14 41  1  0
 14 42  1  0
 15 43  1  0
 15 44  1  0
 18 45  1  0
 18 46  1  0
 19 47  1  0
 19 48  1  0
 20 49  1  0
 20 50  1  0
 21 51  1  0
 21 52  1  0
 23 53  1  0
 24 54  1  0
 25 55  1  0
 26 56  1  0
 29 57  1  0
 29 58  1  0
 30 59  1  0
 30 60  1  0
 31 61  1  0
 34 62  1  0
 34 63  1  0
M  END
$$$$
