
     RDKit          3D

 67 71  0  0  0  0  0  0  0  0999 V2000
   -4.4465   -4.6990    0.0633 C   0  0  0  0  0  0  0  0  0  0  0  0
   -3.1549   -4.7017   -0.0766 N   0  0  0  0  0  0  0  0  0  0  0  0
   -2.4071   -3.4816   -0.0823 C   0  0  0  0  0  0  0  0  0  0  0  0
   -1.1100   -3.5364   -0.1822 N   0  0  0  0  0  0  0  0  0  0  0  0
   -0.1920   -2.4378   -0.0843 C   0  0  0  0  0  0  0  0  0  0  0  0
    0.8735   -2.3601   -0.9839 C   0  0  0  0  0  0  0  0  0  0  0  0
    1.8218   -1.3410   -0.8727 C   0  0  0  0  0  0  0  0  0  0  0  0
    1.7361   -0.3923    0.1662 C   0  0  0  0  0  0  0  0  0  0  0  0
    2.6635    0.6573    0.2967 O   0  0  0  0  0  0  0  0  0  0  0  0
    3.8854    0.7908   -0.4293 C   0  0  0  0  0  0  0  0  0  0  0  0
    4.9329   -0.1941    0.1006 C   0  0  0  0  0  0  0  0  0  0  0  0
    6.1871   -0.0975   -0.6721 N   0  0  0  0  0  0  0  0  0  0  0  0
    7.1014   -1.1909   -0.3366 C   0  0  0  0  0  0  0  0  0  0  0  0
    8.4988   -0.6975   -0.6550 C   0  0  0  0  0  0  0  0  0  0  0  0
    8.4198    0.8118   -0.5204 C   0  0  0  0  0  0  0  0  0  0  0  0
    6.9349    1.1375   -0.3984 C   0  0  0  0  0  0  0  0  0  0  0  0
    0.6866   -0.4954    1.1037 C   0  0  0  0  0  0  0  0  0  0  0  0
   -0.2649   -1.5202    0.9747 C   0  0  0  0  0  0  0  0  0  0  0  0
    0.5532    0.4808    2.2469 C   0  0  0  0  0  0  0  0  0  0  0  0
   -0.5769    1.3066    2.0494 O   0  0  0  0  0  0  0  0  0  0  0  0
   -0.2113    2.4906    1.3709 C   0  0  0  0  0  0  0  0  0  0  0  0
   -1.4531    3.1820    0.8979 C   0  0  0  0  0  0  0  0  0  0  0  0
   -2.2112    2.6473   -0.0684 C   0  0  0  0  0  0  0  0  0  0  0  0
   -3.4701    3.3193   -0.5267 C   0  0  0  0  0  0  0  0  0  0  0  0
   -3.9982    2.6009   -1.6273 O   0  0  0  0  0  0  0  0  0  0  0  0
   -5.3940    2.4131   -1.4981 C   0  0  0  0  0  0  0  0  0  0  0  0
   -5.7021    1.2928   -0.5357 C   0  0  0  0  0  0  0  0  0  0  0  0
   -6.6980    1.4495    0.4390 C   0  0  0  0  0  0  0  0  0  0  0  0
   -6.9933    0.4046    1.3172 C   0  0  0  0  0  0  0  0  0  0  0  0
   -6.3027   -0.8060    1.2270 C   0  0  0  0  0  0  0  0  0  0  0  0
   -5.3028   -0.9818    0.2543 C   0  0  0  0  0  0  0  0  0  0  0  0
   -5.0127    0.0723   -0.6277 C   0  0  0  0  0  0  0  0  0  0  0  0
   -4.5526   -2.2558    0.1583 C   0  0  0  0  0  0  0  0  0  0  0  0
   -5.1943   -3.4351    0.2086 C   0  0  0  0  0  0  0  0  0  0  0  0
   -3.1240   -2.2364   -0.0147 N   0  0  0  0  0  0  0  0  0  0  0  0
   -4.9841   -5.6379    0.0676 H   0  0  0  0  0  0  0  0  0  0  0  0
    0.9621   -3.0873   -1.7817 H   0  0  0  0  0  0  0  0  0  0  0  0
    2.6174   -1.3053   -1.6023 H   0  0  0  0  0  0  0  0  0  0  0  0
    4.2545    1.8268   -0.2814 H   0  0  0  0  0  0  0  0  0  0  0  0
    3.7180    0.6545   -1.5184 H   0  0  0  0  0  0  0  0  0  0  0  0
    5.1096   -0.0057    1.1840 H   0  0  0  0  0  0  0  0  0  0  0  0
    4.5234   -1.2235    0.0054 H   0  0  0  0  0  0  0  0  0  0  0  0
    6.8571   -2.0925   -0.9384 H   0  0  0  0  0  0  0  0  0  0  0  0
    7.0474   -1.4473    0.7475 H   0  0  0  0  0  0  0  0  0  0  0  0
    9.2475   -1.1318    0.0424 H   0  0  0  0  0  0  0  0  0  0  0  0
    8.7651   -0.9720   -1.6993 H   0  0  0  0  0  0  0  0  0  0  0  0
    8.8607    1.3068   -1.4138 H   0  0  0  0  0  0  0  0  0  0  0  0
    8.9652    1.1506    0.3881 H   0  0  0  0  0  0  0  0  0  0  0  0
    6.6519    1.9145   -1.1399 H   0  0  0  0  0  0  0  0  0  0  0  0
    6.7315    1.5302    0.6240 H   0  0  0  0  0  0  0  0  0  0  0  0
   -1.0537   -1.6145    1.7115 H   0  0  0  0  0  0  0  0  0  0  0  0
    0.3923   -0.0990    3.1807 H   0  0  0  0  0  0  0  0  0  0  0  0
    1.4901    1.0584    2.4278 H   0  0  0  0  0  0  0  0  0  0  0  0
    0.3321    3.1688    2.0657 H   0  0  0  0  0  0  0  0  0  0  0  0
    0.4351    2.2861    0.4860 H   0  0  0  0  0  0  0  0  0  0  0  0
   -1.7324    4.1302    1.3481 H   0  0  0  0  0  0  0  0  0  0  0  0
   -1.9159    1.7069   -0.5255 H   0  0  0  0  0  0  0  0  0  0  0  0
   -3.2326    4.3518   -0.8610 H   0  0  0  0  0  0  0  0  0  0  0  0
   -4.1590    3.3870    0.3498 H   0  0  0  0  0  0  0  0  0  0  0  0
   -5.7967    2.1272   -2.4924 H   0  0  0  0  0  0  0  0  0  0  0  0
   -5.9082    3.3621   -1.2165 H   0  0  0  0  0  0  0  0  0  0  0  0
   -7.2445    2.3800    0.5217 H   0  0  0  0  0  0  0  0  0  0  0  0
   -7.7573    0.5352    2.0721 H   0  0  0  0  0  0  0  0  0  0  0  0
   -6.5354   -1.5985    1.9275 H   0  0  0  0  0  0  0  0  0  0  0  0
   -4.2576   -0.0580   -1.3946 H   0  0  0  0  0  0  0  0  0  0  0  0
   -6.2712   -3.4781    0.3170 H   0  0  0  0  0  0  0  0  0  0  0  0
   -2.6353   -1.3225   -0.1339 H   0  0  0  0  0  0  0  0  0  0  0  0
  1  2  2  0
  2  3  1  0
  3  4  2  0
  4  5  1  0
  5  6  2  0
  6  7  1  0
  7  8  2  0
  8  9  1  0
  9 10  1  0
 10 11  1  0
 11 12  1  0
 12 13  1  0
 13 14  1  0
 14 15  1  0
 15 16  1  0
  8 17  1  0
 17 18  2  0
 17 19  1  0
 19 20  1  0
 20 21  1  0
 21 22  1  0
 22 23  2  0
 23 24  1  0
 24 25  1  0
 25 26  1  0
 26 27  1  0
 27 28  2  0
 28 29  1  0
 29 30  2  0
 30 31  1  0
 31 32  2  0
 31 33  1  0
 33 34  2  0
 33 35  1  0
 34  1  1  0
 35  3  1  0
 18  5  1  0
 32 27  1  0
 16 12  1  0
  1 36  1  0
  6 37  1  0
  7 38  1  0
 10 39  1  0
 10 40  1  0
 11 41  1  0
 11 42  1  0
 13 43  1  0
 13 44  1  0
 14 45  1  0
 14 46  1  0
 15 47  1  0
 15 48  1  0
 16 49  1  0
 16 50  1  0
 18 51  1  0
 19 52  1  0
 19 53  1  0
 21 54  1  0
 21 55  1  0
 22 56  1  0
 23 57  1  0
 24 58  1  0
 24 59  1  0
 26 60  1  0
 26 61  1  0
 28 62  1  0
 29 63  1  0
 30 64  1  0
 32 65  1  0
 34 66  1  0
 35 67  1  0
M  END
$$$$
