
     RDKit          3D

 76 79  0  0  0  0  0  0  0  0999 V2000
   -2.9438    3.7340   -2.5671 C   0  0  0  0  0  0  0  0  0  0  0  0
   -2.9975    2.8201   -1.3211 C   0  0  0  0  0  0  0  0  0  0  0  0
   -2.5939    3.6661   -0.0937 C   0  0  0  0  0  0  0  0  0  0  0  0
   -2.0138    1.6184   -1.5491 C   0  0  0  0  0  0  0  0  0  0  0  0
   -1.4965    0.9121   -0.2724 C   0  0  0  0  0  0  0  0  0  0  0  0
   -0.7990   -0.4219   -0.6235 C   0  0  0  0  0  0  0  0  0  0  0  0
   -0.3069   -1.2084    0.5421 N   0  0  0  0  0  0  0  0  0  0  0  0
    0.7775   -0.5470    1.3010 C   0  0  0  0  0  0  0  0  0  0  0  0
    2.0398   -0.4437    0.4940 C   0  0  0  0  0  0  0  0  0  0  0  0
    2.2865   -1.3060   -0.3931 O   0  0  0  0  0  0  0  0  0  0  0  0
    3.0025    0.5760    0.8008 N   0  0  0  0  0  0  0  0  0  0  0  0
    4.3064    0.6628    0.1384 C   0  0  0  0  0  0  0  0  0  0  0  0
    5.4259   -0.0988    0.9134 C   0  0  0  0  0  0  0  0  0  0  0  0
    5.4886    0.4477    2.3630 C   0  0  0  0  0  0  0  0  0  0  0  0
    5.1088   -1.6106    0.9985 C   0  0  0  0  0  0  0  0  0  0  0  0
    6.7607    0.0813    0.1556 C   0  0  0  0  0  0  0  0  0  0  0  0
    7.8965    0.7045    0.7317 C   0  0  0  0  0  0  0  0  0  0  0  0
    9.0862    0.8354    0.0080 C   0  0  0  0  0  0  0  0  0  0  0  0
    9.1727    0.3555   -1.2987 C   0  0  0  0  0  0  0  0  0  0  0  0
   10.3276    0.4871   -1.9966 F   0  0  0  0  0  0  0  0  0  0  0  0
    8.0679   -0.2572   -1.8886 C   0  0  0  0  0  0  0  0  0  0  0  0
    6.8767   -0.3949   -1.1730 C   0  0  0  0  0  0  0  0  0  0  0  0
   -1.3744   -1.6957    1.4454 C   0  0  0  0  0  0  0  0  0  0  0  0
   -2.2880   -2.6750    0.7467 C   0  0  0  0  0  0  0  0  0  0  0  0
   -1.7702   -3.8976    0.2928 C   0  0  0  0  0  0  0  0  0  0  0  0
   -2.5947   -4.8046   -0.3725 C   0  0  0  0  0  0  0  0  0  0  0  0
   -3.9365   -4.4841   -0.5812 C   0  0  0  0  0  0  0  0  0  0  0  0
   -4.4276   -3.2956   -0.1410 N   0  0  0  0  0  0  0  0  0  0  0  0
   -3.6496   -2.3891    0.5169 C   0  0  0  0  0  0  0  0  0  0  0  0
   -4.1795   -1.1577    0.9240 O   0  0  0  0  0  0  0  0  0  0  0  0
   -5.4889   -0.7350    0.6692 C   0  0  0  0  0  0  0  0  0  0  0  0
   -6.5974   -1.5358    0.9852 C   0  0  0  0  0  0  0  0  0  0  0  0
   -7.8897   -1.0867    0.6970 C   0  0  0  0  0  0  0  0  0  0  0  0
   -8.0795    0.1576    0.0897 C   0  0  0  0  0  0  0  0  0  0  0  0
   -6.9776    0.9637   -0.2173 C   0  0  0  0  0  0  0  0  0  0  0  0
   -5.6772    0.5226    0.0830 C   0  0  0  0  0  0  0  0  0  0  0  0
   -4.5386    1.2883   -0.1961 O   0  0  0  0  0  0  0  0  0  0  0  0
   -4.4634    2.3282   -1.1606 C   0  0  0  0  0  0  0  0  0  0  0  0
   -1.9368    4.1885   -2.6806 H   0  0  0  0  0  0  0  0  0  0  0  0
   -3.1670    3.1520   -3.4876 H   0  0  0  0  0  0  0  0  0  0  0  0
   -3.6870    4.5574   -2.4899 H   0  0  0  0  0  0  0  0  0  0  0  0
   -3.2141    4.5908   -0.0326 H   0  0  0  0  0  0  0  0  0  0  0  0
   -1.5244    3.9685   -0.1627 H   0  0  0  0  0  0  0  0  0  0  0  0
   -2.7436    3.1013    0.8526 H   0  0  0  0  0  0  0  0  0  0  0  0
   -2.5135    0.8724   -2.2087 H   0  0  0  0  0  0  0  0  0  0  0  0
   -1.1160    1.9702   -2.1046 H   0  0  0  0  0  0  0  0  0  0  0  0
   -2.3298    0.7217    0.4230 H   0  0  0  0  0  0  0  0  0  0  0  0
   -0.7722    1.5894    0.2266 H   0  0  0  0  0  0  0  0  0  0  0  0
   -1.4956   -1.0531   -1.2168 H   0  0  0  0  0  0  0  0  0  0  0  0
    0.0470   -0.2032   -1.3077 H   0  0  0  0  0  0  0  0  0  0  0  0
    1.0431   -1.1484    2.1968 H   0  0  0  0  0  0  0  0  0  0  0  0
    0.4603    0.4488    1.6719 H   0  0  0  0  0  0  0  0  0  0  0  0
    2.7587    1.3048    1.5087 H   0  0  0  0  0  0  0  0  0  0  0  0
    4.5894    1.7352    0.0636 H   0  0  0  0  0  0  0  0  0  0  0  0
    4.2134    0.2955   -0.9073 H   0  0  0  0  0  0  0  0  0  0  0  0
    5.6760    1.5445    2.3686 H   0  0  0  0  0  0  0  0  0  0  0  0
    6.2842   -0.0669    2.9446 H   0  0  0  0  0  0  0  0  0  0  0  0
    4.5346    0.2659    2.9004 H   0  0  0  0  0  0  0  0  0  0  0  0
    4.8900   -2.0384   -0.0025 H   0  0  0  0  0  0  0  0  0  0  0  0
    4.2297   -1.8019    1.6502 H   0  0  0  0  0  0  0  0  0  0  0  0
    5.9723   -2.1657    1.4279 H   0  0  0  0  0  0  0  0  0  0  0  0
    7.8882    1.0944    1.7395 H   0  0  0  0  0  0  0  0  0  0  0  0
    9.9435    1.3106    0.4666 H   0  0  0  0  0  0  0  0  0  0  0  0
    8.1336   -0.6293   -2.9045 H   0  0  0  0  0  0  0  0  0  0  0  0
    6.0457   -0.8809   -1.6641 H   0  0  0  0  0  0  0  0  0  0  0  0
   -1.9272   -0.8535    1.9063 H   0  0  0  0  0  0  0  0  0  0  0  0
   -0.9224   -2.2465    2.2998 H   0  0  0  0  0  0  0  0  0  0  0  0
   -0.7265   -4.1435    0.4477 H   0  0  0  0  0  0  0  0  0  0  0  0
   -2.1979   -5.7487   -0.7237 H   0  0  0  0  0  0  0  0  0  0  0  0
   -4.5863   -5.1785   -1.0975 H   0  0  0  0  0  0  0  0  0  0  0  0
   -6.4611   -2.4972    1.4658 H   0  0  0  0  0  0  0  0  0  0  0  0
   -8.7442   -1.7044    0.9423 H   0  0  0  0  0  0  0  0  0  0  0  0
   -9.0811    0.4992   -0.1408 H   0  0  0  0  0  0  0  0  0  0  0  0
   -7.1449    1.9262   -0.6824 H   0  0  0  0  0  0  0  0  0  0  0  0
   -5.1205    3.1700   -0.8530 H   0  0  0  0  0  0  0  0  0  0  0  0
   -4.8374    1.9366   -2.1325 H   0  0  0  0  0  0  0  0  0  0  0  0
  1  2  1  0
  2  3  1  0
  2  4  1  0
  4  5  1  0
  5  6  1  0
  6  7  1  0
  7  8  1  0
  8  9  1  0
  9 10  2  0
  9 11  1  0
 11 12  1  0
 12 13  1  0
 13 14  1  0
 13 15  1  0
 13 16  1  0
 16 17  2  0
 17 18  1  0
 18 19  2  0
 19 20  1  0
 19 21  1  0
 21 22  2  0
  7 23  1  0
 23 24  1  0
 24 25  2  0
 25 26  1  0
 26 27  2  0
 27 28  1  0
 28 29  2  0
 29 30  1  0
 30 31  1  0
 31 32  2  0
 32 33  1  0
 33 34  2  0
 34 35  1  0
 35 36  2  0
 36 37  1  0
 37 38  1  0
 38  2  1  0
 22 16  1  0
 29 24  1  0
 36 31  1  0
  1 39  1  0
  1 40  1  0
  1 41  1  0
  3 42  1  0
  3 43  1  0
  3 44  1  0
  4 45  1  0
  4 46  1  0
  5 47  1  0
  5 48  1  0
  6 49  1  0
  6 50  1  0
  8 51  1  0
  8 52  1  0
 11 53  1  0
 12 54  1  0
 12 55  1  0
 14 56  1  0
 14 57  1  0
 14 58  1  0
 15 59  1  0
 15 60  1  0
 15 61  1  0
 17 62  1  0
 18 63  1  0
 21 64  1  0
 22 65  1  0
 23 66  1  0
 23 67  1  0
 25 68  1  0
 26 69  1  0
 27 70  1  0
 32 71  1  0
 33 72  1  0
 34 73  1  0
 35 74  1  0
 38 75  1  0
 38 76  1  0
M  END
$$$$
