
     RDKit          3D

118120  0  0  0  0  0  0  0  0999 V2000
   -4.7857    2.4574   -1.4936 C   0  0  0  0  0  0  0  0  0  0  0  0
   -5.1728    2.1660   -0.0350 C   0  0  0  0  0  0  0  0  0  0  0  0
   -4.1229    2.6028    1.0211 C   0  0  1  0  0  0  0  0  0  0  0  0
   -2.7883    2.2719    0.6156 O   0  0  0  0  0  0  0  0  0  0  0  0
   -2.3796    1.0232    0.1139 C   0  0  0  0  0  0  0  0  0  0  0  0
   -1.9852    0.9794   -1.0832 O   0  0  0  0  0  0  0  0  0  0  0  0
   -2.4507   -0.2838    0.8871 C   0  0  2  0  0  0  0  0  0  0  0  0
   -3.1750   -0.2173    2.2383 C   0  0  0  0  0  0  0  0  0  0  0  0
   -1.1407   -1.1662    0.8778 C   0  0  1  0  0  0  0  0  0  0  0  0
   -0.6393   -1.2771   -0.4533 O   0  0  0  0  0  0  0  0  0  0  0  0
   -0.8294   -2.5646   -1.0228 C   0  0  0  0  0  0  0  0  0  0  0  0
   -2.3032   -2.7353   -1.4775 C   0  0  0  0  0  0  0  0  0  0  0  0
   -2.4655   -3.7035   -2.6792 C   0  0  0  0  0  0  0  0  0  0  0  0
   -3.8607   -4.3868   -2.5722 C   0  0  0  0  0  0  0  0  0  0  0  0
   -2.3335   -2.8996   -3.8572 O   0  0  0  0  0  0  0  0  0  0  0  0
   -2.7992   -3.5127   -5.0440 C   0  0  0  0  0  0  0  0  0  0  0  0
   -1.3207   -4.7524   -2.6022 C   0  0  0  0  0  0  0  0  0  0  0  0
   -1.4370   -5.4889   -1.4041 O   0  0  0  0  0  0  0  0  0  0  0  0
    0.0503   -4.0086   -2.6736 C   0  0  0  0  0  0  0  0  0  0  0  0
    1.2158   -4.8174   -2.0938 C   0  0  0  0  0  0  0  0  0  0  0  0
    0.0343   -2.6845   -2.1369 O   0  0  0  0  0  0  0  0  0  0  0  0
    0.0538   -0.8946    1.8819 C   0  0  2  0  0  0  0  0  0  0  0  0
   -0.3364   -0.6480    3.3554 C   0  0  0  0  0  0  0  0  0  0  0  0
    1.3727   -0.1554    1.4274 C   0  0  1  0  0  0  0  0  0  0  0  0
    1.9610   -0.9167    0.3687 O   0  0  0  0  0  0  0  0  0  0  0  0
    3.3768   -1.0069    0.4505 C   0  0  0  0  0  0  0  0  0  0  0  0
    3.9453    0.1172   -0.2056 O   0  0  0  0  0  0  0  0  0  0  0  0
    5.3514    0.1326   -0.0518 C   0  0  0  0  0  0  0  0  0  0  0  0
    5.8885    1.4573   -0.5942 C   0  0  0  0  0  0  0  0  0  0  0  0
    5.9656   -1.0479   -0.8208 C   0  0  0  0  0  0  0  0  0  0  0  0
    5.3821   -2.3716   -0.2682 C   0  0  0  0  0  0  0  0  0  0  0  0
    5.8943   -3.5963   -0.9469 N   0  0  0  0  0  0  0  0  0  0  0  0
    7.3325   -3.8055   -0.7099 C   0  0  0  0  0  0  0  0  0  0  0  0
    5.6108   -3.6702   -2.3902 C   0  0  0  0  0  0  0  0  0  0  0  0
    3.8290   -2.3017   -0.2565 C   0  0  0  0  0  0  0  0  0  0  0  0
    3.2880   -3.4111    0.4163 O   0  0  0  0  0  0  0  0  0  0  0  0
    1.3684    1.3937    1.0761 C   0  0  2  0  0  0  0  0  0  0  0  0
    0.9708    1.6234   -0.4102 C   0  0  0  0  0  0  0  0  0  0  0  0
    2.6890    1.8647    1.2378 O   0  0  0  0  0  0  0  0  0  0  0  0
    0.4532    2.2382    2.0190 C   0  0  0  0  0  0  0  0  0  0  0  0
    0.7117    3.7755    2.0994 C   0  0  1  0  0  0  0  0  0  0  0  0
    1.1822    4.4818    0.8143 C   0  0  0  0  0  0  0  0  0  0  0  0
   -0.5015    4.4835    2.6916 C   0  0  0  0  0  0  0  0  0  0  0  0
   -0.5026    4.7429    3.8837 O   0  0  0  0  0  0  0  0  0  0  0  0
   -1.6929    4.9134    1.8418 C   0  0  2  0  0  0  0  0  0  0  0  0
   -1.5890    6.4367    1.6151 C   0  0  0  0  0  0  0  0  0  0  0  0
   -3.0560    4.4726    2.4871 C   0  0  1  0  0  0  0  0  0  0  0  0
   -3.4685    5.4096    3.4529 O   0  0  0  0  0  0  0  0  0  0  0  0
   -4.2446    4.0997    1.4948 C   0  0  1  0  0  0  0  0  0  0  0  0
   -4.3346    5.0776    0.3068 C   0  0  0  0  0  0  0  0  0  0  0  0
   -5.4694    4.2272    2.1855 O   0  0  0  0  0  0  0  0  0  0  0  0
   -5.6062    2.9978   -2.0063 H   0  0  0  0  0  0  0  0  0  0  0  0
   -3.8675    3.0733   -1.5740 H   0  0  0  0  0  0  0  0  0  0  0  0
   -4.6131    1.5096   -2.0410 H   0  0  0  0  0  0  0  0  0  0  0  0
   -6.1479    2.6363    0.1946 H   0  0  0  0  0  0  0  0  0  0  0  0
   -5.3401    1.0709    0.0632 H   0  0  0  0  0  0  0  0  0  0  0  0
   -4.3572    2.0231    1.9268 H   0  0  0  0  0  0  0  0  0  0  0  0
   -3.1689   -0.8712    0.2797 H   0  0  0  0  0  0  0  0  0  0  0  0
   -3.0477   -1.1564    2.8068 H   0  0  0  0  0  0  0  0  0  0  0  0
   -2.8448    0.6466    2.8472 H   0  0  0  0  0  0  0  0  0  0  0  0
   -4.2693   -0.1378    2.0746 H   0  0  0  0  0  0  0  0  0  0  0  0
   -1.5396   -2.1491    1.2365 H   0  0  0  0  0  0  0  0  0  0  0  0
   -0.5519   -3.3491   -0.2766 H   0  0  0  0  0  0  0  0  0  0  0  0
   -2.7280   -1.7474   -1.7641 H   0  0  0  0  0  0  0  0  0  0  0  0
   -2.8835   -3.0920   -0.5993 H   0  0  0  0  0  0  0  0  0  0  0  0
   -4.6666   -3.6359   -2.6925 H   0  0  0  0  0  0  0  0  0  0  0  0
   -3.9935   -5.1726   -3.3434 H   0  0  0  0  0  0  0  0  0  0  0  0
   -3.9930   -4.8861   -1.5882 H   0  0  0  0  0  0  0  0  0  0  0  0
   -2.5165   -4.5811   -5.1391 H   0  0  0  0  0  0  0  0  0  0  0  0
   -3.8978   -3.3972   -5.1253 H   0  0  0  0  0  0  0  0  0  0  0  0
   -2.3551   -2.9824   -5.9107 H   0  0  0  0  0  0  0  0  0  0  0  0
   -1.3932   -5.4551   -3.4650 H   0  0  0  0  0  0  0  0  0  0  0  0
   -1.0296   -6.3831   -1.5659 H   0  0  0  0  0  0  0  0  0  0  0  0
    0.2805   -3.8963   -3.7559 H   0  0  0  0  0  0  0  0  0  0  0  0
    2.1695   -4.2956   -2.3092 H   0  0  0  0  0  0  0  0  0  0  0  0
    1.1183   -4.9310   -0.9935 H   0  0  0  0  0  0  0  0  0  0  0  0
    1.2589   -5.8247   -2.5585 H   0  0  0  0  0  0  0  0  0  0  0  0
    0.4653   -1.9291    1.9748 H   0  0  0  0  0  0  0  0  0  0  0  0
   -0.8309    0.3283    3.5090 H   0  0  0  0  0  0  0  0  0  0  0  0
   -1.0022   -1.4644    3.7132 H   0  0  0  0  0  0  0  0  0  0  0  0
    0.5646   -0.6792    4.0079 H   0  0  0  0  0  0  0  0  0  0  0  0
    2.0039   -0.2314    2.3437 H   0  0  0  0  0  0  0  0  0  0  0  0
    3.7303   -1.0801    1.5055 H   0  0  0  0  0  0  0  0  0  0  0  0
    5.6299    0.0718    1.0297 H   0  0  0  0  0  0  0  0  0  0  0  0
    5.4421    2.3046   -0.0224 H   0  0  0  0  0  0  0  0  0  0  0  0
    5.6292    1.5697   -1.6723 H   0  0  0  0  0  0  0  0  0  0  0  0
    6.9933    1.4936   -0.4713 H   0  0  0  0  0  0  0  0  0  0  0  0
    7.0686   -1.0288   -0.7042 H   0  0  0  0  0  0  0  0  0  0  0  0
    5.7114   -0.9315   -1.8985 H   0  0  0  0  0  0  0  0  0  0  0  0
    5.6841   -2.4368    0.8018 H   0  0  0  0  0  0  0  0  0  0  0  0
    7.9608   -3.1204   -1.3265 H   0  0  0  0  0  0  0  0  0  0  0  0
    7.5871   -3.6557    0.3615 H   0  0  0  0  0  0  0  0  0  0  0  0
    7.6022   -4.8524   -0.9682 H   0  0  0  0  0  0  0  0  0  0  0  0
    6.0837   -2.8450   -2.9614 H   0  0  0  0  0  0  0  0  0  0  0  0
    4.5279   -3.6728   -2.5864 H   0  0  0  0  0  0  0  0  0  0  0  0
    5.9864   -4.6303   -2.8016 H   0  0  0  0  0  0  0  0  0  0  0  0
    3.4294   -2.2578   -1.2932 H   0  0  0  0  0  0  0  0  0  0  0  0
    3.4442   -4.2048   -0.1593 H   0  0  0  0  0  0  0  0  0  0  0  0
    1.7755    2.1559   -0.9602 H   0  0  0  0  0  0  0  0  0  0  0  0
    0.7893    0.6883   -0.9666 H   0  0  0  0  0  0  0  0  0  0  0  0
    0.0539    2.2366   -0.5046 H   0  0  0  0  0  0  0  0  0  0  0  0
    2.9339    1.8093    2.2015 H   0  0  0  0  0  0  0  0  0  0  0  0
   -0.6078    2.0386    1.7968 H   0  0  0  0  0  0  0  0  0  0  0  0
    0.6247    1.8751    3.0518 H   0  0  0  0  0  0  0  0  0  0  0  0
    1.5526    3.9096    2.8184 H   0  0  0  0  0  0  0  0  0  0  0  0
    0.4445    4.4051   -0.0071 H   0  0  0  0  0  0  0  0  0  0  0  0
    2.1561    4.0952    0.4624 H   0  0  0  0  0  0  0  0  0  0  0  0
    1.3623    5.5544    1.0345 H   0  0  0  0  0  0  0  0  0  0  0  0
   -1.6057    4.4182    0.8610 H   0  0  0  0  0  0  0  0  0  0  0  0
   -0.6786    6.6775    1.0178 H   0  0  0  0  0  0  0  0  0  0  0  0
   -1.5205    6.9793    2.5890 H   0  0  0  0  0  0  0  0  0  0  0  0
   -2.4566    6.8372    1.0507 H   0  0  0  0  0  0  0  0  0  0  0  0
   -2.8445    3.5396    3.0617 H   0  0  0  0  0  0  0  0  0  0  0  0
   -3.8751    6.1784    2.9788 H   0  0  0  0  0  0  0  0  0  0  0  0
   -5.2288    4.8620   -0.3134 H   0  0  0  0  0  0  0  0  0  0  0  0
   -4.4933    6.1124    0.6761 H   0  0  0  0  0  0  0  0  0  0  0  0
   -3.4346    5.0466   -0.3408 H   0  0  0  0  0  0  0  0  0  0  0  0
   -5.4169    3.6956    3.0233 H   0  0  0  0  0  0  0  0  0  0  0  0
  1  2  1  0
  2  3  1  0
  3  4  1  0
  4  5  1  0
  5  6  2  0
  5  7  1  0
  7  8  1  0
  7  9  1  0
  9 10  1  0
 10 11  1  0
 11 12  1  0
 12 13  1  0
 13 14  1  0
 13 15  1  0
 15 16  1  0
 13 17  1  0
 17 18  1  0
 17 19  1  0
 19 20  1  0
 19 21  1  0
  9 22  1  0
 22 23  1  0
 22 24  1  0
 24 25  1  0
 25 26  1  0
 26 27  1  0
 27 28  1  0
 28 29  1  0
 28 30  1  0
 30 31  1  0
 31 32  1  0
 32 33  1  0
 32 34  1  0
 31 35  1  0
 35 36  1  0
 24 37  1  0
 37 38  1  0
 37 39  1  6
 37 40  1  0
 40 41  1  0
 41 42  1  0
 41 43  1  0
 43 44  2  0
 43 45  1  0
 45 46  1  0
 45 47  1  0
 47 48  1  0
 47 49  1  0
 49 50  1  0
 49 51  1  1
 49  3  1  0
 21 11  1  0
 35 26  1  0
  1 52  1  0
  1 53  1  0
  1 54  1  0
  2 55  1  0
  2 56  1  0
  3 57  1  1
  7 58  1  6
  8 59  1  0
  8 60  1  0
  8 61  1  0
  9 62  1  1
 11 63  1  0
 12 64  1  0
 12 65  1  0
 14 66  1  0
 14 67  1  0
 14 68  1  0
 16 69  1  0
 16 70  1  0
 16 71  1  0
 17 72  1  0
 18 73  1  0
 19 74  1  0
 20 75  1  0
 20 76  1  0
 20 77  1  0
 22 78  1  1
 23 79  1  0
 23 80  1  0
 23 81  1  0
 24 82  1  1
 26 83  1  0
 28 84  1  0
 29 85  1  0
 29 86  1  0
 29 87  1  0
 30 88  1  0
 30 89  1  0
 31 90  1  0
 33 91  1  0
 33 92  1  0
 33 93  1  0
 34 94  1  0
 34 95  1  0
 34 96  1  0
 35 97  1  0
 36 98  1  0
 38 99  1  0
 38100  1  0
 38101  1  0
 39102  1  0
 40103  1  0
 40104  1  0
 41105  1  1
 42106  1  0
 42107  1  0
 42108  1  0
 45109  1  6
 46110  1  0
 46111  1  0
 46112  1  0
 47113  1  1
 48114  1  0
 50115  1  0
 50116  1  0
 50117  1  0
 51118  1  0
M  END
$$$$
