
     RDKit          3D

144146  0  0  0  0  0  0  0  0999 V2000
   12.7830   -2.0323    1.2380 C   0  0  0  0  0  0  0  0  0  0  0  0
   11.9543   -1.1583    1.1562 C   0  0  0  0  0  0  0  0  0  0  0  0
   10.9429   -0.0947    1.0686 C   0  0  0  0  0  0  0  0  0  0  0  0
    9.7254   -0.5397    0.2512 C   0  0  0  0  0  0  0  0  0  0  0  0
    8.9394   -1.6667    0.9342 C   0  0  0  0  0  0  0  0  0  0  0  0
    7.7161   -1.9605    0.1881 N   0  0  0  0  0  0  0  0  0  0  0  0
    6.5406   -1.1461    0.2935 C   0  0  0  0  0  0  0  0  0  0  0  0
    6.5333   -0.1374    1.0534 O   0  0  0  0  0  0  0  0  0  0  0  0
    5.3939   -1.4984   -0.4313 O   0  0  0  0  0  0  0  0  0  0  0  0
    4.1265   -0.8417   -0.2923 C   0  0  2  0  0  0  0  0  0  0  0  0
    2.9571   -1.8925   -0.4365 C   0  0  1  0  0  0  0  0  0  0  0  0
    3.2301   -3.0131   -1.4645 C   0  0  0  0  0  0  0  0  0  0  0  0
    2.5413   -2.4948    0.8635 N   0  0  0  0  0  0  0  0  0  0  0  0
    3.6351   -3.2237    1.5427 C   0  0  0  0  0  0  0  0  0  0  0  0
    1.8936   -1.5273    1.7891 C   0  0  0  0  0  0  0  0  0  0  0  0
    0.4227   -1.8984    2.0922 C   0  0  2  0  0  0  0  0  0  0  0  0
    0.2902   -3.3576    2.5609 C   0  0  0  0  0  0  0  0  0  0  0  0
   -0.5486   -1.5821    0.9080 C   0  0  0  0  0  0  0  0  0  0  0  0
   -1.6933   -0.5797    1.2548 C   0  0  1  0  0  0  0  0  0  0  0  0
   -2.5520   -1.1482    2.4241 C   0  0  0  0  0  0  0  0  0  0  0  0
   -1.1188    0.6478    1.6439 O   0  0  0  0  0  0  0  0  0  0  0  0
   -2.6358   -0.3121    0.0098 C   0  0  2  0  0  0  0  0  0  0  0  0
   -3.4592   -1.4661   -0.1925 O   0  0  0  0  0  0  0  0  0  0  0  0
   -4.8287   -1.2802    0.1648 C   0  0  0  0  0  0  0  0  0  0  0  0
   -5.5781   -0.8138   -0.9516 O   0  0  0  0  0  0  0  0  0  0  0  0
   -5.9421   -1.8755   -1.8151 C   0  0  0  0  0  0  0  0  0  0  0  0
   -6.4947   -1.2935   -3.1166 C   0  0  0  0  0  0  0  0  0  0  0  0
   -6.9862   -2.7988   -1.1457 C   0  0  0  0  0  0  0  0  0  0  0  0
   -6.8900   -2.7726    0.4044 C   0  0  1  0  0  0  0  0  0  0  0  0
   -7.4854   -3.9986    1.0210 N   0  0  0  0  0  0  0  0  0  0  0  0
   -8.8384   -4.2797    0.4929 C   0  0  0  0  0  0  0  0  0  0  0  0
   -7.5730   -3.8671    2.4905 C   0  0  0  0  0  0  0  0  0  0  0  0
   -5.4023   -2.5887    0.7930 C   0  0  0  0  0  0  0  0  0  0  0  0
   -4.6485   -3.7236    0.3463 O   0  0  0  0  0  0  0  0  0  0  0  0
   -3.9960   -4.6295    1.1895 C   0  0  0  0  0  0  0  0  0  0  0  0
   -3.2131   -5.7464    0.5939 C   0  0  0  0  0  0  0  0  0  0  0  0
   -4.0801   -4.5332    2.4440 O   0  0  0  0  0  0  0  0  0  0  0  0
   -1.9437    0.0088   -1.3748 C   0  0  1  0  0  0  0  0  0  0  0  0
   -3.0675    0.2167   -2.4220 C   0  0  0  0  0  0  0  0  0  0  0  0
   -0.9232    1.2148   -1.4085 C   0  0  2  0  0  0  0  0  0  0  0  0
   -1.6204    2.4255   -1.6827 O   0  0  0  0  0  0  0  0  0  0  0  0
   -1.2354    3.4883   -0.8239 C   0  0  1  0  0  0  0  0  0  0  0  0
   -1.6688    4.8125   -1.4766 C   0  0  0  0  0  0  0  0  0  0  0  0
   -1.5496    6.0576   -0.5331 C   0  0  0  0  0  0  0  0  0  0  0  0
   -2.9839    6.5676   -0.2276 C   0  0  0  0  0  0  0  0  0  0  0  0
   -0.8251    7.0327   -1.2913 O   0  0  0  0  0  0  0  0  0  0  0  0
   -0.4430    8.1936   -0.5797 C   0  0  0  0  0  0  0  0  0  0  0  0
   -0.8065    5.6195    0.7773 C   0  0  1  0  0  0  0  0  0  0  0  0
   -0.7467    6.6549    1.7379 O   0  0  0  0  0  0  0  0  0  0  0  0
   -1.4375    4.3169    1.3815 C   0  0  0  0  0  0  0  0  0  0  0  0
   -0.4885    3.6690    2.3917 C   0  0  0  0  0  0  0  0  0  0  0  0
   -1.8749    3.3463    0.4277 O   0  0  0  0  0  0  0  0  0  0  0  0
    0.2433    0.9868   -2.4442 C   0  0  1  0  0  0  0  0  0  0  0  0
   -0.1949    0.6292   -3.8760 C   0  0  0  0  0  0  0  0  0  0  0  0
    1.2006    2.1680   -2.5164 C   0  0  0  0  0  0  0  0  0  0  0  0
    0.8782    3.1605   -3.2210 O   0  0  0  0  0  0  0  0  0  0  0  0
    2.4405    2.2186   -1.8598 O   0  0  0  0  0  0  0  0  0  0  0  0
    2.8698    1.3729   -0.7861 C   0  0  2  0  0  0  0  0  0  0  0  0
    3.2356    2.2482    0.4496 C   0  0  0  0  0  0  0  0  0  0  0  0
    3.7062    3.6650    0.1063 C   0  0  0  0  0  0  0  0  0  0  0  0
    4.0383    0.4162   -1.2428 C   0  0  0  0  0  0  0  0  0  0  0  0
    3.8634   -0.0311   -2.7163 C   0  0  0  0  0  0  0  0  0  0  0  0
    5.2632    1.1102   -1.1500 O   0  0  0  0  0  0  0  0  0  0  0  0
   13.5113   -2.7998    1.3062 H   0  0  0  0  0  0  0  0  0  0  0  0
   10.6322    0.1975    2.0940 H   0  0  0  0  0  0  0  0  0  0  0  0
   11.4071    0.7871    0.5825 H   0  0  0  0  0  0  0  0  0  0  0  0
    9.0605    0.3413    0.1171 H   0  0  0  0  0  0  0  0  0  0  0  0
   10.0529   -0.8730   -0.7601 H   0  0  0  0  0  0  0  0  0  0  0  0
    9.5653   -2.5847    0.9699 H   0  0  0  0  0  0  0  0  0  0  0  0
    8.6845   -1.3888    1.9806 H   0  0  0  0  0  0  0  0  0  0  0  0
    7.6663   -2.8342   -0.3801 H   0  0  0  0  0  0  0  0  0  0  0  0
    4.0798   -0.4530    0.7436 H   0  0  0  0  0  0  0  0  0  0  0  0
    2.0704   -1.3750   -0.8408 H   0  0  0  0  0  0  0  0  0  0  0  0
    2.4865   -3.8238   -1.3378 H   0  0  0  0  0  0  0  0  0  0  0  0
    4.2381   -3.4503   -1.3558 H   0  0  0  0  0  0  0  0  0  0  0  0
    3.1275   -2.6497   -2.5046 H   0  0  0  0  0  0  0  0  0  0  0  0
    4.4229   -2.5323    1.9123 H   0  0  0  0  0  0  0  0  0  0  0  0
    4.0992   -3.9747    0.8733 H   0  0  0  0  0  0  0  0  0  0  0  0
    3.2322   -3.7832    2.4107 H   0  0  0  0  0  0  0  0  0  0  0  0
    1.9023   -0.4899    1.3938 H   0  0  0  0  0  0  0  0  0  0  0  0
    2.4354   -1.4630    2.7619 H   0  0  0  0  0  0  0  0  0  0  0  0
    0.1568   -1.2715    2.9668 H   0  0  0  0  0  0  0  0  0  0  0  0
    0.9486   -3.5380    3.4340 H   0  0  0  0  0  0  0  0  0  0  0  0
    0.5582   -4.0616    1.7464 H   0  0  0  0  0  0  0  0  0  0  0  0
   -0.7574   -3.5650    2.8756 H   0  0  0  0  0  0  0  0  0  0  0  0
    0.0347   -1.1550    0.0715 H   0  0  0  0  0  0  0  0  0  0  0  0
   -0.9992   -2.5184    0.5108 H   0  0  0  0  0  0  0  0  0  0  0  0
   -3.4140   -0.4835    2.6373 H   0  0  0  0  0  0  0  0  0  0  0  0
   -2.9154   -2.1631    2.1828 H   0  0  0  0  0  0  0  0  0  0  0  0
   -1.9886   -1.2316    3.3724 H   0  0  0  0  0  0  0  0  0  0  0  0
   -1.0465    0.7028    2.6262 H   0  0  0  0  0  0  0  0  0  0  0  0
   -3.2323    0.5963    0.2598 H   0  0  0  0  0  0  0  0  0  0  0  0
   -4.9468   -0.4978    0.9529 H   0  0  0  0  0  0  0  0  0  0  0  0
   -5.0410   -2.4815   -2.0846 H   0  0  0  0  0  0  0  0  0  0  0  0
   -6.7891   -2.1156   -3.8040 H   0  0  0  0  0  0  0  0  0  0  0  0
   -7.3802   -0.6554   -2.9091 H   0  0  0  0  0  0  0  0  0  0  0  0
   -5.7236   -0.6718   -3.6207 H   0  0  0  0  0  0  0  0  0  0  0  0
   -6.8131   -3.8307   -1.5207 H   0  0  0  0  0  0  0  0  0  0  0  0
   -8.0148   -2.4993   -1.4440 H   0  0  0  0  0  0  0  0  0  0  0  0
   -7.4496   -1.8732    0.7509 H   0  0  0  0  0  0  0  0  0  0  0  0
   -9.3466   -5.0745    1.0811 H   0  0  0  0  0  0  0  0  0  0  0  0
   -9.4742   -3.3630    0.5019 H   0  0  0  0  0  0  0  0  0  0  0  0
   -8.7735   -4.6750   -0.5417 H   0  0  0  0  0  0  0  0  0  0  0  0
   -8.1698   -4.6918    2.9380 H   0  0  0  0  0  0  0  0  0  0  0  0
   -8.0281   -2.8939    2.7914 H   0  0  0  0  0  0  0  0  0  0  0  0
   -6.5700   -3.9602    2.9506 H   0  0  0  0  0  0  0  0  0  0  0  0
   -5.3183   -2.4771    1.8951 H   0  0  0  0  0  0  0  0  0  0  0  0
   -3.8105   -6.6805    0.6344 H   0  0  0  0  0  0  0  0  0  0  0  0
   -2.9636   -5.5184   -0.4644 H   0  0  0  0  0  0  0  0  0  0  0  0
   -2.2666   -5.8945    1.1569 H   0  0  0  0  0  0  0  0  0  0  0  0
   -1.3992   -0.9106   -1.6766 H   0  0  0  0  0  0  0  0  0  0  0  0
   -2.7259    0.6987   -3.3521 H   0  0  0  0  0  0  0  0  0  0  0  0
   -3.4957   -0.7640   -2.7155 H   0  0  0  0  0  0  0  0  0  0  0  0
   -3.8739    0.8652   -2.0114 H   0  0  0  0  0  0  0  0  0  0  0  0
   -0.4015    1.2495   -0.4371 H   0  0  0  0  0  0  0  0  0  0  0  0
   -0.1266    3.5023   -0.6931 H   0  0  0  0  0  0  0  0  0  0  0  0
   -1.0483    4.9542   -2.3863 H   0  0  0  0  0  0  0  0  0  0  0  0
   -2.7104    4.6884   -1.8485 H   0  0  0  0  0  0  0  0  0  0  0  0
   -3.4432    6.9874   -1.1457 H   0  0  0  0  0  0  0  0  0  0  0  0
   -3.6270    5.7381    0.1374 H   0  0  0  0  0  0  0  0  0  0  0  0
   -2.9992    7.3567    0.5525 H   0  0  0  0  0  0  0  0  0  0  0  0
    0.5019    8.0072   -0.0289 H   0  0  0  0  0  0  0  0  0  0  0  0
   -1.2272    8.5831    0.0930 H   0  0  0  0  0  0  0  0  0  0  0  0
   -0.2304    8.9940   -1.3192 H   0  0  0  0  0  0  0  0  0  0  0  0
    0.2453    5.3991    0.4913 H   0  0  0  0  0  0  0  0  0  0  0  0
   -1.5904    6.6716    2.2501 H   0  0  0  0  0  0  0  0  0  0  0  0
   -2.3446    4.6145    1.9501 H   0  0  0  0  0  0  0  0  0  0  0  0
    0.0096    4.4367    3.0255 H   0  0  0  0  0  0  0  0  0  0  0  0
   -1.0608    3.0006    3.0637 H   0  0  0  0  0  0  0  0  0  0  0  0
    0.2870    3.0789    1.8611 H   0  0  0  0  0  0  0  0  0  0  0  0
    0.7995    0.0950   -2.1050 H   0  0  0  0  0  0  0  0  0  0  0  0
   -0.8178    1.4349   -4.3134 H   0  0  0  0  0  0  0  0  0  0  0  0
    0.7015    0.5023   -4.5195 H   0  0  0  0  0  0  0  0  0  0  0  0
   -0.7333   -0.3384   -3.9001 H   0  0  0  0  0  0  0  0  0  0  0  0
    2.0150    0.7652   -0.4500 H   0  0  0  0  0  0  0  0  0  0  0  0
    4.0164    1.7621    1.0728 H   0  0  0  0  0  0  0  0  0  0  0  0
    2.3393    2.3467    1.0943 H   0  0  0  0  0  0  0  0  0  0  0  0
    2.9041    4.2334   -0.4145 H   0  0  0  0  0  0  0  0  0  0  0  0
    4.6149    3.6448   -0.5316 H   0  0  0  0  0  0  0  0  0  0  0  0
    3.9565    4.2090    1.0434 H   0  0  0  0  0  0  0  0  0  0  0  0
    4.6304   -0.7899   -2.9828 H   0  0  0  0  0  0  0  0  0  0  0  0
    3.9935    0.8261   -3.4090 H   0  0  0  0  0  0  0  0  0  0  0  0
    2.8566   -0.4455   -2.9057 H   0  0  0  0  0  0  0  0  0  0  0  0
    5.2539    1.8507   -1.8157 H   0  0  0  0  0  0  0  0  0  0  0  0
  1  2  3  0
  2  3  1  0
  3  4  1  0
  4  5  1  0
  5  6  1  0
  6  7  1  0
  7  8  2  0
  7  9  1  0
  9 10  1  0
 10 11  1  0
 11 12  1  0
 11 13  1  0
 13 14  1  0
 13 15  1  0
 15 16  1  0
 16 17  1  0
 16 18  1  0
 18 19  1  0
 19 20  1  0
 19 21  1  1
 19 22  1  0
 22 23  1  0
 23 24  1  0
 24 25  1  0
 25 26  1  0
 26 27  1  0
 26 28  1  0
 28 29  1  0
 29 30  1  0
 30 31  1  0
 30 32  1  0
 29 33  1  0
 33 34  1  0
 34 35  1  0
 35 36  1  0
 35 37  2  0
 22 38  1  0
 38 39  1  0
 38 40  1  0
 40 41  1  0
 41 42  1  0
 42 43  1  0
 43 44  1  0
 44 45  1  0
 44 46  1  0
 46 47  1  0
 44 48  1  0
 48 49  1  0
 48 50  1  0
 50 51  1  0
 50 52  1  0
 40 53  1  0
 53 54  1  0
 53 55  1  0
 55 56  2  0
 55 57  1  0
 57 58  1  0
 58 59  1  0
 59 60  1  0
 58 61  1  0
 61 62  1  0
 61 63  1  0
 61 10  1  0
 33 24  1  0
 52 42  1  0
  1 64  1  0
  3 65  1  0
  3 66  1  0
  4 67  1  0
  4 68  1  0
  5 69  1  0
  5 70  1  0
  6 71  1  0
 10 72  1  1
 11 73  1  6
 12 74  1  0
 12 75  1  0
 12 76  1  0
 14 77  1  0
 14 78  1  0
 14 79  1  0
 15 80  1  0
 15 81  1  0
 16 82  1  1
 17 83  1  0
 17 84  1  0
 17 85  1  0
 18 86  1  0
 18 87  1  0
 20 88  1  0
 20 89  1  0
 20 90  1  0
 21 91  1  0
 22 92  1  1
 24 93  1  0
 26 94  1  0
 27 95  1  0
 27 96  1  0
 27 97  1  0
 28 98  1  0
 28 99  1  0
 29100  1  1
 31101  1  0
 31102  1  0
 31103  1  0
 32104  1  0
 32105  1  0
 32106  1  0
 33107  1  0
 36108  1  0
 36109  1  0
 36110  1  0
 38111  1  6
 39112  1  0
 39113  1  0
 39114  1  0
 40115  1  1
 42116  1  1
 43117  1  0
 43118  1  0
 45119  1  0
 45120  1  0
 45121  1  0
 47122  1  0
 47123  1  0
 47124  1  0
 48125  1  6
 49126  1  0
 50127  1  0
 51128  1  0
 51129  1  0
 51130  1  0
 53131  1  1
 54132  1  0
 54133  1  0
 54134  1  0
 58135  1  1
 59136  1  0
 59137  1  0
 60138  1  0
 60139  1  0
 60140  1  0
 62141  1  0
 62142  1  0
 62143  1  0
 63144  1  0
M  END
$$$$
