
     RDKit          3D

 71 75  0  0  0  0  0  0  0  0999 V2000
   -1.5892   -2.9101    0.1896 O   0  0  0  0  0  0  0  0  0  0  0  0
   -1.9049   -1.8160   -0.3546 C   0  0  0  0  0  0  0  0  0  0  0  0
   -0.8849   -1.1121   -1.2131 C   0  0  0  0  0  0  0  0  0  0  0  0
    0.4990   -1.4501   -0.8130 N   0  0  0  0  0  0  0  0  0  0  0  0
    0.9197   -0.7915    0.4493 C   0  0  0  0  0  0  0  0  0  0  0  0
    1.3122   -1.8434    1.5083 C   0  0  0  0  0  0  0  0  0  0  0  0
    2.8155   -2.1803    1.5387 C   0  0  0  0  0  0  0  0  0  0  0  0
    3.6379   -1.0931    2.2530 C   0  0  0  0  0  0  0  0  0  0  0  0
    5.1274   -1.4560    2.4236 C   0  0  0  0  0  0  0  0  0  0  0  0
    5.8756   -1.7742    1.1160 C   0  0  0  0  0  0  0  0  0  0  0  0
    5.4895   -0.9063    0.0520 O   0  0  0  0  0  0  0  0  0  0  0  0
    5.6217    0.4891    0.0627 C   0  0  0  0  0  0  0  0  0  0  0  0
    6.6734    1.1348    0.7343 C   0  0  0  0  0  0  0  0  0  0  0  0
    6.7296    2.5290    0.7658 C   0  0  0  0  0  0  0  0  0  0  0  0
    5.7331    3.2832    0.1426 C   0  0  0  0  0  0  0  0  0  0  0  0
    4.6896    2.6467   -0.5370 C   0  0  0  0  0  0  0  0  0  0  0  0
    4.6407    1.2403   -0.6008 C   0  0  0  0  0  0  0  0  0  0  0  0
    3.6161    0.5161   -1.2344 O   0  0  0  0  0  0  0  0  0  0  0  0
    2.6571    0.9674   -2.1514 C   0  0  0  0  0  0  0  0  0  0  0  0
    2.7824    2.1794   -2.7599 N   0  0  0  0  0  0  0  0  0  0  0  0
    1.8809    2.6334   -3.6678 C   0  0  0  0  0  0  0  0  0  0  0  0
    0.7905    1.8427   -4.0173 C   0  0  0  0  0  0  0  0  0  0  0  0
    0.6502    0.5797   -3.4446 C   0  0  0  0  0  0  0  0  0  0  0  0
    1.5735    0.1242   -2.4871 C   0  0  0  0  0  0  0  0  0  0  0  0
    1.4671   -1.2909   -1.9267 C   0  0  0  0  0  0  0  0  0  0  0  0
   -3.2542   -1.3114   -0.2145 N   0  0  0  0  0  0  0  0  0  0  0  0
   -3.8679   -0.4340   -1.2230 C   0  0  0  0  0  0  0  0  0  0  0  0
   -4.6476    0.6832   -0.5312 C   0  0  0  0  0  0  0  0  0  0  0  0
   -5.5551    0.1193    0.4802 N   0  0  0  0  0  0  0  0  0  0  0  0
   -6.8435    0.7268    0.7202 C   0  0  0  0  0  0  0  0  0  0  0  0
   -7.1909    1.8812    0.0833 N   0  0  0  0  0  0  0  0  0  0  0  0
   -8.3981    2.4668    0.2921 C   0  0  0  0  0  0  0  0  0  0  0  0
   -9.3088    1.8849    1.1710 C   0  0  0  0  0  0  0  0  0  0  0  0
   -8.9467    0.7038    1.8160 C   0  0  0  0  0  0  0  0  0  0  0  0
   -7.7288    0.1501    1.5814 N   0  0  0  0  0  0  0  0  0  0  0  0
   -4.9811   -0.8109    1.4663 C   0  0  0  0  0  0  0  0  0  0  0  0
   -4.1677   -1.9063    0.7716 C   0  0  0  0  0  0  0  0  0  0  0  0
   -1.0817   -1.4554   -2.2517 H   0  0  0  0  0  0  0  0  0  0  0  0
   -1.0304   -0.0108   -1.1630 H   0  0  0  0  0  0  0  0  0  0  0  0
    1.7397   -0.0668    0.2915 H   0  0  0  0  0  0  0  0  0  0  0  0
    0.0877   -0.1886    0.8774 H   0  0  0  0  0  0  0  0  0  0  0  0
    1.0034   -1.4837    2.5136 H   0  0  0  0  0  0  0  0  0  0  0  0
    0.7444   -2.7812    1.3263 H   0  0  0  0  0  0  0  0  0  0  0  0
    3.1855   -2.3353    0.5055 H   0  0  0  0  0  0  0  0  0  0  0  0
    2.9470   -3.1347    2.0914 H   0  0  0  0  0  0  0  0  0  0  0  0
    3.2180   -0.9308    3.2694 H   0  0  0  0  0  0  0  0  0  0  0  0
    3.5465   -0.1297    1.7141 H   0  0  0  0  0  0  0  0  0  0  0  0
    5.6319   -0.5988    2.9177 H   0  0  0  0  0  0  0  0  0  0  0  0
    5.2174   -2.3241    3.1119 H   0  0  0  0  0  0  0  0  0  0  0  0
    5.6407   -2.8165    0.8146 H   0  0  0  0  0  0  0  0  0  0  0  0
    6.9713   -1.7196    1.2806 H   0  0  0  0  0  0  0  0  0  0  0  0
    7.4463    0.5646    1.2338 H   0  0  0  0  0  0  0  0  0  0  0  0
    7.5308    3.0269    1.2959 H   0  0  0  0  0  0  0  0  0  0  0  0
    5.7605    4.3647    0.1987 H   0  0  0  0  0  0  0  0  0  0  0  0
    3.9082    3.2660   -0.9464 H   0  0  0  0  0  0  0  0  0  0  0  0
    2.0150    3.6095   -4.1155 H   0  0  0  0  0  0  0  0  0  0  0  0
    0.0748    2.1953   -4.7481 H   0  0  0  0  0  0  0  0  0  0  0  0
   -0.1645   -0.0474   -3.7727 H   0  0  0  0  0  0  0  0  0  0  0  0
    2.4639   -1.6541   -1.6035 H   0  0  0  0  0  0  0  0  0  0  0  0
    1.1809   -1.9803   -2.7520 H   0  0  0  0  0  0  0  0  0  0  0  0
   -3.1250    0.0234   -1.9061 H   0  0  0  0  0  0  0  0  0  0  0  0
   -4.5627   -1.0363   -1.8508 H   0  0  0  0  0  0  0  0  0  0  0  0
   -3.9383    1.3838   -0.0368 H   0  0  0  0  0  0  0  0  0  0  0  0
   -5.2067    1.2435   -1.3112 H   0  0  0  0  0  0  0  0  0  0  0  0
   -8.6497    3.3836   -0.2248 H   0  0  0  0  0  0  0  0  0  0  0  0
  -10.2755    2.3386    1.3465 H   0  0  0  0  0  0  0  0  0  0  0  0
   -9.6331    0.2274    2.5034 H   0  0  0  0  0  0  0  0  0  0  0  0
   -4.3194   -0.2426    2.1572 H   0  0  0  0  0  0  0  0  0  0  0  0
   -5.7717   -1.3007    2.0746 H   0  0  0  0  0  0  0  0  0  0  0  0
   -4.8570   -2.6107    0.2524 H   0  0  0  0  0  0  0  0  0  0  0  0
   -3.6114   -2.4747    1.5502 H   0  0  0  0  0  0  0  0  0  0  0  0
  1  2  2  0
  2  3  1  0
  3  4  1  0
  4  5  1  0
  5  6  1  0
  6  7  1  0
  7  8  1  0
  8  9  1  0
  9 10  1  0
 10 11  1  0
 11 12  1  0
 12 13  2  0
 13 14  1  0
 14 15  2  0
 15 16  1  0
 16 17  2  0
 17 18  1  0
 18 19  1  0
 19 20  2  0
 20 21  1  0
 21 22  2  0
 22 23  1  0
 23 24  2  0
 24 25  1  0
  2 26  1  0
 26 27  1  0
 27 28  1  0
 28 29  1  0
 29 30  1  0
 30 31  2  0
 31 32  1  0
 32 33  2  0
 33 34  1  0
 34 35  2  0
 29 36  1  0
 36 37  1  0
 25  4  1  0
 37 26  1  0
 17 12  1  0
 24 19  1  0
 35 30  1  0
  3 38  1  0
  3 39  1  0
  5 40  1  0
  5 41  1  0
  6 42  1  0
  6 43  1  0
  7 44  1  0
  7 45  1  0
  8 46  1  0
  8 47  1  0
  9 48  1  0
  9 49  1  0
 10 50  1  0
 10 51  1  0
 13 52  1  0
 14 53  1  0
 15 54  1  0
 16 55  1  0
 21 56  1  0
 22 57  1  0
 23 58  1  0
 25 59  1  0
 25 60  1  0
 27 61  1  0
 27 62  1  0
 28 63  1  0
 28 64  1  0
 32 65  1  0
 33 66  1  0
 34 67  1  0
 36 68  1  0
 36 69  1  0
 37 70  1  0
 37 71  1  0
M  END
$$$$
