
     RDKit          3D

 58 61  0  0  0  0  0  0  0  0999 V2000
    4.4149   -2.8049    0.8390 O   0  0  0  0  0  0  0  0  0  0  0  0
    3.9585   -1.6562    0.5835 C   0  0  0  0  0  0  0  0  0  0  0  0
    4.8783   -0.5055    0.5665 C   0  0  0  0  0  0  0  0  0  0  0  0
    6.1181   -0.5959   -0.0922 C   0  0  0  0  0  0  0  0  0  0  0  0
    6.9839    0.5021   -0.1120 C   0  0  0  0  0  0  0  0  0  0  0  0
    6.6307    1.6855    0.5465 C   0  0  0  0  0  0  0  0  0  0  0  0
    5.4155    1.7680    1.2344 C   0  0  0  0  0  0  0  0  0  0  0  0
    5.0867    2.9034    1.9000 F   0  0  0  0  0  0  0  0  0  0  0  0
    4.5427    0.6745    1.2483 C   0  0  0  0  0  0  0  0  0  0  0  0
    2.5569   -1.4854    0.3060 N   0  0  0  0  0  0  0  0  0  0  0  0
    1.5729   -2.2966    1.0192 C   0  0  0  0  0  0  0  0  0  0  0  0
    0.2721   -2.3579    0.2212 C   0  0  0  0  0  0  0  0  0  0  0  0
   -0.2267   -1.0667   -0.0668 O   0  0  0  0  0  0  0  0  0  0  0  0
    0.6902   -0.1887   -0.7306 C   0  0  0  0  0  0  0  0  0  0  0  0
    0.7887    1.1554    0.0861 C   0  0  0  0  0  0  0  0  0  0  0  0
   -0.1986    1.2966    1.2631 C   0  0  0  0  0  0  0  0  0  0  0  0
   -1.6524    1.5219    0.8033 C   0  0  0  0  0  0  0  0  0  0  0  0
   -2.6492    0.7526    1.6836 C   0  0  0  0  0  0  0  0  0  0  0  0
   -4.0355    0.7639    1.0835 C   0  0  0  0  0  0  0  0  0  0  0  0
   -5.0408    1.5645    1.6563 C   0  0  0  0  0  0  0  0  0  0  0  0
   -6.3235    1.5862    1.1062 C   0  0  0  0  0  0  0  0  0  0  0  0
   -6.6186    0.8070   -0.0137 C   0  0  0  0  0  0  0  0  0  0  0  0
   -5.6308    0.0095   -0.5932 C   0  0  0  0  0  0  0  0  0  0  0  0
   -4.3234   -0.0007   -0.0678 C   0  0  0  0  0  0  0  0  0  0  0  0
   -3.2868   -0.7303   -0.6775 O   0  0  0  0  0  0  0  0  0  0  0  0
   -3.3175   -1.2284   -2.0145 C   0  0  0  0  0  0  0  0  0  0  0  0
   -1.8926   -1.3278   -2.5555 C   0  0  0  0  0  0  0  0  0  0  0  0
   -1.2315   -0.0251   -2.4683 N   0  0  0  0  0  0  0  0  0  0  0  0
    0.1512    0.1416   -2.1215 C   0  0  0  0  0  0  0  0  0  0  0  0
    0.9053    0.7311   -2.9454 O   0  0  0  0  0  0  0  0  0  0  0  0
    2.1320   -0.7809   -0.9057 C   0  0  0  0  0  0  0  0  0  0  0  0
    6.4001   -1.5083   -0.6077 H   0  0  0  0  0  0  0  0  0  0  0  0
    7.9336    0.4335   -0.6321 H   0  0  0  0  0  0  0  0  0  0  0  0
    7.3094    2.5296    0.5383 H   0  0  0  0  0  0  0  0  0  0  0  0
    3.6278    0.7323    1.8221 H   0  0  0  0  0  0  0  0  0  0  0  0
    1.3842   -1.8425    2.0153 H   0  0  0  0  0  0  0  0  0  0  0  0
    1.9474   -3.3336    1.1598 H   0  0  0  0  0  0  0  0  0  0  0  0
    0.4266   -2.9319   -0.7167 H   0  0  0  0  0  0  0  0  0  0  0  0
   -0.4860   -2.9018    0.8184 H   0  0  0  0  0  0  0  0  0  0  0  0
    1.8006    1.2613    0.5249 H   0  0  0  0  0  0  0  0  0  0  0  0
    0.6757    2.0443   -0.5744 H   0  0  0  0  0  0  0  0  0  0  0  0
    0.1087    2.1706    1.8786 H   0  0  0  0  0  0  0  0  0  0  0  0
   -0.1047    0.4096    1.9282 H   0  0  0  0  0  0  0  0  0  0  0  0
   -1.8895    2.6072    0.8487 H   0  0  0  0  0  0  0  0  0  0  0  0
   -1.7722    1.2208   -0.2521 H   0  0  0  0  0  0  0  0  0  0  0  0
   -2.6569    1.2147    2.6961 H   0  0  0  0  0  0  0  0  0  0  0  0
   -2.3252   -0.3046    1.8121 H   0  0  0  0  0  0  0  0  0  0  0  0
   -4.8288    2.1774    2.5248 H   0  0  0  0  0  0  0  0  0  0  0  0
   -7.0901    2.2084    1.5486 H   0  0  0  0  0  0  0  0  0  0  0  0
   -7.6133    0.8263   -0.4381 H   0  0  0  0  0  0  0  0  0  0  0  0
   -5.8822   -0.5861   -1.4594 H   0  0  0  0  0  0  0  0  0  0  0  0
   -3.7932   -2.2301   -2.0221 H   0  0  0  0  0  0  0  0  0  0  0  0
   -3.8926   -0.5457   -2.6727 H   0  0  0  0  0  0  0  0  0  0  0  0
   -1.3360   -2.1065   -2.0027 H   0  0  0  0  0  0  0  0  0  0  0  0
   -1.9315   -1.6408   -3.6197 H   0  0  0  0  0  0  0  0  0  0  0  0
   -1.6835    0.7638   -2.9822 H   0  0  0  0  0  0  0  0  0  0  0  0
    2.1485   -1.5038   -1.7506 H   0  0  0  0  0  0  0  0  0  0  0  0
    2.8525    0.0230   -1.1675 H   0  0  0  0  0  0  0  0  0  0  0  0
  1  2  2  0
  2  3  1  0
  3  4  2  0
  4  5  1  0
  5  6  2  0
  6  7  1  0
  7  8  1  0
  7  9  2  0
  2 10  1  0
 10 11  1  0
 11 12  1  0
 12 13  1  0
 13 14  1  0
 14 15  1  0
 15 16  1  0
 16 17  1  0
 17 18  1  0
 18 19  1  0
 19 20  2  0
 20 21  1  0
 21 22  2  0
 22 23  1  0
 23 24  2  0
 24 25  1  0
 25 26  1  0
 26 27  1  0
 27 28  1  0
 28 29  1  0
 29 30  2  0
 14 31  1  0
  9  3  1  0
 31 10  1  0
 29 14  1  0
 24 19  1  0
  4 32  1  0
  5 33  1  0
  6 34  1  0
  9 35  1  0
 11 36  1  0
 11 37  1  0
 12 38  1  0
 12 39  1  0
 15 40  1  0
 15 41  1  0
 16 42  1  0
 16 43  1  0
 17 44  1  0
 17 45  1  0
 18 46  1  0
 18 47  1  0
 20 48  1  0
 21 49  1  0
 22 50  1  0
 23 51  1  0
 26 52  1  0
 26 53  1  0
 27 54  1  0
 27 55  1  0
 28 56  1  0
 31 57  1  0
 31 58  1  0
M  END
$$$$
