
     RDKit          3D

 71 74  0  0  0  0  0  0  0  0999 V2000
   -3.2661    1.9493   -2.2948 C   0  0  0  0  0  0  0  0  0  0  0  0
   -3.3510    2.4218   -0.8345 C   0  0  1  0  0  0  0  0  0  0  0  0
   -4.5416    3.3738   -0.6122 C   0  0  0  0  0  0  0  0  0  0  0  0
   -4.3939    4.5413   -1.3755 O   0  0  0  0  0  0  0  0  0  0  0  0
   -3.4061    1.2777    0.1057 N   0  0  0  0  0  0  0  0  0  0  0  0
   -2.3106    1.1289    1.0835 C   0  0  0  0  0  0  0  0  0  0  0  0
   -0.9646    0.7527    0.3964 C   0  0  1  0  0  0  0  0  0  0  0  0
    0.1923    1.4539    1.1333 C   0  0  0  0  0  0  0  0  0  0  0  0
   -0.6795   -0.7918    0.2725 C   0  0  2  0  0  0  0  0  0  0  0  0
   -0.2038   -1.1584   -1.1509 C   0  0  0  0  0  0  0  0  0  0  0  0
    1.0685   -0.4967   -1.4861 N   0  0  0  0  0  0  0  0  0  0  0  0
    1.0956    0.5182   -2.5462 C   0  0  0  0  0  0  0  0  0  0  0  0
    2.2927   -0.9549   -0.8643 C   0  0  0  0  0  0  0  0  0  0  0  0
    2.3222   -2.0948   -0.3241 O   0  0  0  0  0  0  0  0  0  0  0  0
    3.5212   -0.1314   -0.8210 C   0  0  0  0  0  0  0  0  0  0  0  0
    4.7587   -0.5604   -0.3825 C   0  0  0  0  0  0  0  0  0  0  0  0
    5.5580    0.5628   -0.4979 C   0  0  0  0  0  0  0  0  0  0  0  0
    6.9966    0.6854   -0.1718 C   0  0  0  0  0  0  0  0  0  0  0  0
    7.6447    1.9222   -0.3417 C   0  0  0  0  0  0  0  0  0  0  0  0
    9.0037    2.0575   -0.0422 C   0  0  0  0  0  0  0  0  0  0  0  0
    9.7296    0.9618    0.4292 C   0  0  0  0  0  0  0  0  0  0  0  0
    9.0975   -0.2717    0.6017 C   0  0  0  0  0  0  0  0  0  0  0  0
    7.7383   -0.4129    0.3040 C   0  0  0  0  0  0  0  0  0  0  0  0
    4.8223    1.5494   -0.9589 O   0  0  0  0  0  0  0  0  0  0  0  0
    3.5944    1.1701   -1.1605 N   0  0  0  0  0  0  0  0  0  0  0  0
   -1.8341   -1.5769    0.5552 O   0  0  0  0  0  0  0  0  0  0  0  0
   -1.4952   -2.7012    1.3538 C   0  0  0  0  0  0  0  0  0  0  0  0
   -2.5500   -3.7798    1.3174 C   0  0  0  0  0  0  0  0  0  0  0  0
   -2.3366   -5.0969    1.6663 C   0  0  0  0  0  0  0  0  0  0  0  0
   -3.5268   -5.7282    1.6577 N   0  0  0  0  0  0  0  0  0  0  0  0
   -4.4424   -4.8296    1.3265 N   0  0  0  0  0  0  0  0  0  0  0  0
   -3.8819   -3.6476    1.1270 N   0  0  0  0  0  0  0  0  0  0  0  0
   -4.6329   -2.4613    0.7319 C   0  0  0  0  0  0  0  0  0  0  0  0
   -4.6830   -1.4477    1.8859 C   0  0  0  0  0  0  0  0  0  0  0  0
   -5.1718   -0.0474    1.4697 C   0  0  0  0  0  0  0  0  0  0  0  0
   -4.5943    0.4529    0.1674 C   0  0  0  0  0  0  0  0  0  0  0  0
   -5.2130    0.1738   -0.8947 O   0  0  0  0  0  0  0  0  0  0  0  0
   -4.2503    1.6052   -2.6725 H   0  0  0  0  0  0  0  0  0  0  0  0
   -2.9277    2.7862   -2.9418 H   0  0  0  0  0  0  0  0  0  0  0  0
   -2.5367    1.1192   -2.3941 H   0  0  0  0  0  0  0  0  0  0  0  0
   -2.4297    3.0155   -0.6356 H   0  0  0  0  0  0  0  0  0  0  0  0
   -5.4912    2.8796   -0.9066 H   0  0  0  0  0  0  0  0  0  0  0  0
   -4.6206    3.6317    0.4688 H   0  0  0  0  0  0  0  0  0  0  0  0
   -3.7245    5.1051   -0.9070 H   0  0  0  0  0  0  0  0  0  0  0  0
   -2.2168    2.0977    1.6224 H   0  0  0  0  0  0  0  0  0  0  0  0
   -2.5437    0.4008    1.8767 H   0  0  0  0  0  0  0  0  0  0  0  0
   -0.9666    1.1974   -0.6192 H   0  0  0  0  0  0  0  0  0  0  0  0
    1.1633    1.2304    0.6461 H   0  0  0  0  0  0  0  0  0  0  0  0
    0.2373    1.1191    2.1921 H   0  0  0  0  0  0  0  0  0  0  0  0
    0.0544    2.5566    1.1106 H   0  0  0  0  0  0  0  0  0  0  0  0
    0.1590   -1.0297    0.9743 H   0  0  0  0  0  0  0  0  0  0  0  0
   -1.0041   -0.8889   -1.8740 H   0  0  0  0  0  0  0  0  0  0  0  0
   -0.0783   -2.2594   -1.2370 H   0  0  0  0  0  0  0  0  0  0  0  0
    1.9146    0.2983   -3.2632 H   0  0  0  0  0  0  0  0  0  0  0  0
    0.1452    0.5387   -3.1192 H   0  0  0  0  0  0  0  0  0  0  0  0
    1.2391    1.5241   -2.1017 H   0  0  0  0  0  0  0  0  0  0  0  0
    5.0260   -1.5479   -0.0307 H   0  0  0  0  0  0  0  0  0  0  0  0
    7.1011    2.7856   -0.7048 H   0  0  0  0  0  0  0  0  0  0  0  0
    9.4941    3.0134   -0.1759 H   0  0  0  0  0  0  0  0  0  0  0  0
   10.7817    1.0681    0.6608 H   0  0  0  0  0  0  0  0  0  0  0  0
    9.6617   -1.1203    0.9657 H   0  0  0  0  0  0  0  0  0  0  0  0
    7.2765   -1.3800    0.4469 H   0  0  0  0  0  0  0  0  0  0  0  0
   -0.5451   -3.1744    1.0107 H   0  0  0  0  0  0  0  0  0  0  0  0
   -1.3653   -2.3756    2.4091 H   0  0  0  0  0  0  0  0  0  0  0  0
   -1.3946   -5.5592    1.9299 H   0  0  0  0  0  0  0  0  0  0  0  0
   -4.1586   -2.0463   -0.1786 H   0  0  0  0  0  0  0  0  0  0  0  0
   -5.6719   -2.7461    0.4555 H   0  0  0  0  0  0  0  0  0  0  0  0
   -5.3675   -1.8406    2.6688 H   0  0  0  0  0  0  0  0  0  0  0  0
   -3.6939   -1.3705    2.3725 H   0  0  0  0  0  0  0  0  0  0  0  0
   -6.2795   -0.0761    1.3736 H   0  0  0  0  0  0  0  0  0  0  0  0
   -4.9451    0.6781    2.2802 H   0  0  0  0  0  0  0  0  0  0  0  0
  1  2  1  0
  2  3  1  0
  3  4  1  0
  2  5  1  0
  5  6  1  0
  6  7  1  0
  7  8  1  0
  7  9  1  0
  9 10  1  0
 10 11  1  0
 11 12  1  0
 11 13  1  0
 13 14  2  0
 13 15  1  0
 15 16  1  0
 16 17  2  0
 17 18  1  0
 18 19  2  0
 19 20  1  0
 20 21  2  0
 21 22  1  0
 22 23  2  0
 17 24  1  0
 24 25  1  0
  9 26  1  0
 26 27  1  0
 27 28  1  0
 28 29  2  0
 29 30  1  0
 30 31  2  0
 31 32  1  0
 32 33  1  0
 33 34  1  0
 34 35  1  0
 35 36  1  0
 36 37  2  0
 36  5  1  0
 25 15  2  0
 32 28  1  0
 23 18  1  0
  1 38  1  0
  1 39  1  0
  1 40  1  0
  2 41  1  1
  3 42  1  0
  3 43  1  0
  4 44  1  0
  6 45  1  0
  6 46  1  0
  7 47  1  6
  8 48  1  0
  8 49  1  0
  8 50  1  0
  9 51  1  1
 10 52  1  0
 10 53  1  0
 12 54  1  0
 12 55  1  0
 12 56  1  0
 16 57  1  0
 19 58  1  0
 20 59  1  0
 21 60  1  0
 22 61  1  0
 23 62  1  0
 27 63  1  0
 27 64  1  0
 29 65  1  0
 33 66  1  0
 33 67  1  0
 34 68  1  0
 34 69  1  0
 35 70  1  0
 35 71  1  0
M  END
$$$$
