
     RDKit          3D

 59 61  0  0  0  0  0  0  0  0999 V2000
    4.2193   -2.9014   -2.0502 C   0  0  0  0  0  0  0  0  0  0  0  0
    2.8188   -2.8618   -1.8938 O   0  0  0  0  0  0  0  0  0  0  0  0
    2.4714   -2.2934   -0.6406 C   0  0  2  0  0  0  0  0  0  0  0  0
    2.2427   -3.4116    0.4066 C   0  0  0  0  0  0  0  0  0  0  0  0
    0.7590   -3.7611    0.5437 C   0  0  0  0  0  0  0  0  0  0  0  0
   -0.0703   -2.4852    0.8611 C   0  0  2  0  0  0  0  0  0  0  0  0
   -1.5031   -2.5917    0.2991 C   0  0  0  0  0  0  0  0  0  0  0  0
   -2.3197   -1.3059    0.5136 C   0  0  0  0  0  0  0  0  0  0  0  0
   -2.5392   -1.0292    1.9415 N   0  0  0  0  0  0  0  0  0  0  0  0
   -3.3796   -1.9189    2.7425 C   0  0  0  0  0  0  0  0  0  0  0  0
   -1.9289    0.0993    2.5971 C   0  0  0  0  0  0  0  0  0  0  0  0
   -1.4077   -0.0657    3.7352 O   0  0  0  0  0  0  0  0  0  0  0  0
   -1.9663    1.5060    2.0226 C   0  0  2  0  0  0  0  0  0  0  0  0
   -3.2532    1.7412    1.1960 C   0  0  0  0  0  0  0  0  0  0  0  0
   -0.7293    1.8624    1.2733 N   0  0  0  0  0  0  0  0  0  0  0  0
    0.5631    1.5509    1.9011 C   0  0  0  0  0  0  0  0  0  0  0  0
   -0.7394    3.1093    0.5469 C   0  0  0  0  0  0  0  0  0  0  0  0
   -1.2260    4.1235    1.1229 O   0  0  0  0  0  0  0  0  0  0  0  0
   -0.1438    3.2764   -0.8178 C   0  0  0  0  0  0  0  0  0  0  0  0
   -0.1934    4.5683   -1.3932 C   0  0  0  0  0  0  0  0  0  0  0  0
    0.4008    4.8391   -2.6281 C   0  0  0  0  0  0  0  0  0  0  0  0
    0.3387    6.1664   -3.1858 C   0  0  0  0  0  0  0  0  0  0  0  0
    0.2881    7.2333   -3.6325 N   0  0  0  0  0  0  0  0  0  0  0  0
    1.0619    3.8254   -3.3145 C   0  0  0  0  0  0  0  0  0  0  0  0
    1.1122    2.5388   -2.7806 C   0  0  0  0  0  0  0  0  0  0  0  0
    0.5017    2.2334   -1.5414 C   0  0  0  0  0  0  0  0  0  0  0  0
    0.5294    0.9164   -1.0404 O   0  0  0  0  0  0  0  0  0  0  0  0
    1.4892   -0.0716   -1.4528 C   0  0  0  0  0  0  0  0  0  0  0  0
    1.1888   -1.4419   -0.8200 C   0  0  2  0  0  0  0  0  0  0  0  0
    0.5571   -1.2791    0.4328 O   0  0  0  0  0  0  0  0  0  0  0  0
    4.7010   -3.4565   -1.2194 H   0  0  0  0  0  0  0  0  0  0  0  0
    4.6376   -1.8756   -2.1248 H   0  0  0  0  0  0  0  0  0  0  0  0
    4.4598   -3.4324   -2.9963 H   0  0  0  0  0  0  0  0  0  0  0  0
    3.2684   -1.6245   -0.2306 H   0  0  0  0  0  0  0  0  0  0  0  0
    2.6139   -3.0674    1.3977 H   0  0  0  0  0  0  0  0  0  0  0  0
    2.8159   -4.3265    0.1424 H   0  0  0  0  0  0  0  0  0  0  0  0
    0.6234   -4.5140    1.3504 H   0  0  0  0  0  0  0  0  0  0  0  0
    0.4215   -4.2265   -0.4093 H   0  0  0  0  0  0  0  0  0  0  0  0
   -0.1538   -2.4243    1.9689 H   0  0  0  0  0  0  0  0  0  0  0  0
   -2.0155   -3.4596    0.7668 H   0  0  0  0  0  0  0  0  0  0  0  0
   -1.4727   -2.7937   -0.7951 H   0  0  0  0  0  0  0  0  0  0  0  0
   -3.3046   -1.4109    0.0101 H   0  0  0  0  0  0  0  0  0  0  0  0
   -1.7890   -0.4656    0.0214 H   0  0  0  0  0  0  0  0  0  0  0  0
   -4.2907   -1.3708    3.0671 H   0  0  0  0  0  0  0  0  0  0  0  0
   -2.8199   -2.2688    3.6389 H   0  0  0  0  0  0  0  0  0  0  0  0
   -3.7006   -2.8105    2.1594 H   0  0  0  0  0  0  0  0  0  0  0  0
   -2.0367    2.1935    2.8991 H   0  0  0  0  0  0  0  0  0  0  0  0
   -3.1643    1.3332    0.1659 H   0  0  0  0  0  0  0  0  0  0  0  0
   -4.1329    1.2765    1.7000 H   0  0  0  0  0  0  0  0  0  0  0  0
   -3.4626    2.8270    1.1118 H   0  0  0  0  0  0  0  0  0  0  0  0
    1.4055    1.7889    1.2238 H   0  0  0  0  0  0  0  0  0  0  0  0
    0.6824    2.1489    2.8246 H   0  0  0  0  0  0  0  0  0  0  0  0
    0.6377    0.4810    2.1670 H   0  0  0  0  0  0  0  0  0  0  0  0
   -0.6885    5.3827   -0.8757 H   0  0  0  0  0  0  0  0  0  0  0  0
    1.5344    4.0254   -4.2708 H   0  0  0  0  0  0  0  0  0  0  0  0
    1.6244    1.7866   -3.3598 H   0  0  0  0  0  0  0  0  0  0  0  0
    1.4465   -0.2131   -2.5627 H   0  0  0  0  0  0  0  0  0  0  0  0
    2.5127    0.2888   -1.1854 H   0  0  0  0  0  0  0  0  0  0  0  0
    0.5044   -1.9631   -1.5298 H   0  0  0  0  0  0  0  0  0  0  0  0
  1  2  1  0
  2  3  1  0
  3  4  1  0
  4  5  1  0
  5  6  1  0
  6  7  1  0
  7  8  1  0
  8  9  1  0
  9 10  1  0
  9 11  1  0
 11 12  2  0
 11 13  1  0
 13 14  1  0
 13 15  1  0
 15 16  1  0
 15 17  1  0
 17 18  2  0
 17 19  1  0
 19 20  2  0
 20 21  1  0
 21 22  1  0
 22 23  3  0
 21 24  2  0
 24 25  1  0
 25 26  2  0
 26 27  1  0
 27 28  1  0
 28 29  1  0
 29 30  1  0
 29  3  1  0
 30  6  1  0
 26 19  1  0
  1 31  1  0
  1 32  1  0
  1 33  1  0
  3 34  1  1
  4 35  1  0
  4 36  1  0
  5 37  1  0
  5 38  1  0
  6 39  1  1
  7 40  1  0
  7 41  1  0
  8 42  1  0
  8 43  1  0
 10 44  1  0
 10 45  1  0
 10 46  1  0
 13 47  1  1
 14 48  1  0
 14 49  1  0
 14 50  1  0
 16 51  1  0
 16 52  1  0
 16 53  1  0
 20 54  1  0
 24 55  1  0
 25 56  1  0
 28 57  1  0
 28 58  1  0
 29 59  1  6
M  END
$$$$
