
     RDKit          3D

 68 71  0  0  0  0  0  0  0  0999 V2000
    8.1362    1.3270    1.2457 C   0  0  0  0  0  0  0  0  0  0  0  0
    7.5956    0.5022    0.1232 C   0  0  0  0  0  0  0  0  0  0  0  0
    8.3678    0.0932   -0.7851 O   0  0  0  0  0  0  0  0  0  0  0  0
    6.2037    0.2016    0.0559 N   0  0  0  0  0  0  0  0  0  0  0  0
    5.2836   -0.4847   -0.8714 C   0  0  0  0  0  0  0  0  0  0  0  0
    4.0409   -0.2595   -0.0629 C   0  0  0  0  0  0  0  0  0  0  0  0
    3.0267    0.6295   -0.7544 C   0  0  0  0  0  0  0  0  0  0  0  0
    3.2000    1.8798   -0.7692 O   0  0  0  0  0  0  0  0  0  0  0  0
    1.8736    0.0680   -1.4216 N   0  0  0  0  0  0  0  0  0  0  0  0
    0.6994    0.9143   -1.6800 C   0  0  0  0  0  0  0  0  0  0  0  0
    0.0621    1.3800   -0.3608 C   0  0  0  0  0  0  0  0  0  0  0  0
   -1.3365    1.9524   -0.6078 C   0  0  0  0  0  0  0  0  0  0  0  0
   -1.9922    2.4944    0.6874 C   0  0  0  0  0  0  0  0  0  0  0  0
   -3.5188    2.1584    0.9309 C   0  0  0  0  0  0  0  0  0  0  0  0
   -4.1348    3.3351    1.7398 C   0  0  0  0  0  0  0  0  0  0  0  0
   -4.1821    4.5059    0.9636 O   0  0  0  0  0  0  0  0  0  0  0  0
   -3.6539    0.8907    1.8253 C   0  0  0  0  0  0  0  0  0  0  0  0
   -3.1579   -0.3732    1.1262 C   0  0  0  0  0  0  0  0  0  0  0  0
   -3.5975   -0.4269   -0.2755 N   0  0  0  0  0  0  0  0  0  0  0  0
   -4.6390    0.4919   -0.7650 C   0  0  0  0  0  0  0  0  0  0  0  0
   -4.3427    1.9656   -0.3923 C   0  0  0  0  0  0  0  0  0  0  0  0
   -3.0021   -1.4079   -1.1503 C   0  0  0  0  0  0  0  0  0  0  0  0
   -2.8893   -1.1772   -2.3842 O   0  0  0  0  0  0  0  0  0  0  0  0
   -2.5186   -2.6873   -0.6039 C   0  0  0  0  0  0  0  0  0  0  0  0
   -3.4591   -3.5860   -0.0746 C   0  0  0  0  0  0  0  0  0  0  0  0
   -3.0397   -4.7542    0.5579 C   0  0  0  0  0  0  0  0  0  0  0  0
   -1.6756   -5.0165    0.7044 C   0  0  0  0  0  0  0  0  0  0  0  0
   -0.7285   -4.1254    0.1838 C   0  0  0  0  0  0  0  0  0  0  0  0
   -1.1389   -2.9695   -0.5114 C   0  0  0  0  0  0  0  0  0  0  0  0
   -0.2121   -2.1070   -1.1249 O   0  0  0  0  0  0  0  0  0  0  0  0
    1.2021   -2.3035   -1.0977 C   0  0  0  0  0  0  0  0  0  0  0  0
    1.9157   -1.2880   -1.9911 C   0  0  0  0  0  0  0  0  0  0  0  0
    4.9966    0.4307    0.8732 C   0  0  0  0  0  0  0  0  0  0  0  0
    9.1668    0.9971    1.5031 H   0  0  0  0  0  0  0  0  0  0  0  0
    8.1651    2.3922    0.9349 H   0  0  0  0  0  0  0  0  0  0  0  0
    7.4907    1.2254    2.1454 H   0  0  0  0  0  0  0  0  0  0  0  0
    5.2811    0.0138   -1.8659 H   0  0  0  0  0  0  0  0  0  0  0  0
    5.5411   -1.5631   -0.9506 H   0  0  0  0  0  0  0  0  0  0  0  0
    3.6230   -1.1911    0.3745 H   0  0  0  0  0  0  0  0  0  0  0  0
   -0.0522    0.3522   -2.2799 H   0  0  0  0  0  0  0  0  0  0  0  0
    1.0008    1.7985   -2.2851 H   0  0  0  0  0  0  0  0  0  0  0  0
    0.7020    2.1596    0.1108 H   0  0  0  0  0  0  0  0  0  0  0  0
   -0.0084    0.5138    0.3364 H   0  0  0  0  0  0  0  0  0  0  0  0
   -1.2665    2.7792   -1.3482 H   0  0  0  0  0  0  0  0  0  0  0  0
   -1.9336    1.1603   -1.0805 H   0  0  0  0  0  0  0  0  0  0  0  0
   -1.8354    3.5940    0.6706 H   0  0  0  0  0  0  0  0  0  0  0  0
   -1.4156    2.1581    1.5752 H   0  0  0  0  0  0  0  0  0  0  0  0
   -5.1732    3.0858    2.0558 H   0  0  0  0  0  0  0  0  0  0  0  0
   -3.5329    3.5044    2.6653 H   0  0  0  0  0  0  0  0  0  0  0  0
   -4.1926    5.2674    1.6016 H   0  0  0  0  0  0  0  0  0  0  0  0
   -4.7230    0.7346    2.0996 H   0  0  0  0  0  0  0  0  0  0  0  0
   -3.0900    1.0202    2.7774 H   0  0  0  0  0  0  0  0  0  0  0  0
   -2.0456   -0.3960    1.1685 H   0  0  0  0  0  0  0  0  0  0  0  0
   -3.5351   -1.2650    1.6742 H   0  0  0  0  0  0  0  0  0  0  0  0
   -5.6085    0.1892   -0.3092 H   0  0  0  0  0  0  0  0  0  0  0  0
   -4.7620    0.4077   -1.8658 H   0  0  0  0  0  0  0  0  0  0  0  0
   -3.8462    2.4774   -1.2425 H   0  0  0  0  0  0  0  0  0  0  0  0
   -5.3339    2.4671   -0.3104 H   0  0  0  0  0  0  0  0  0  0  0  0
   -4.5215   -3.3771   -0.1505 H   0  0  0  0  0  0  0  0  0  0  0  0
   -3.7722   -5.4498    0.9466 H   0  0  0  0  0  0  0  0  0  0  0  0
   -1.3507   -5.9135    1.2210 H   0  0  0  0  0  0  0  0  0  0  0  0
    0.3188   -4.3646    0.3057 H   0  0  0  0  0  0  0  0  0  0  0  0
    1.4364   -3.3168   -1.4879 H   0  0  0  0  0  0  0  0  0  0  0  0
    1.5704   -2.2356   -0.0556 H   0  0  0  0  0  0  0  0  0  0  0  0
    2.9678   -1.6127   -2.1381 H   0  0  0  0  0  0  0  0  0  0  0  0
    1.4520   -1.2922   -3.0013 H   0  0  0  0  0  0  0  0  0  0  0  0
    5.0801   -0.0935    1.8510 H   0  0  0  0  0  0  0  0  0  0  0  0
    4.8180    1.5190    1.0210 H   0  0  0  0  0  0  0  0  0  0  0  0
  1  2  1  0
  2  3  2  0
  2  4  1  0
  4  5  1  0
  5  6  1  0
  6  7  1  0
  7  8  2  0
  7  9  1  0
  9 10  1  0
 10 11  1  0
 11 12  1  0
 12 13  1  0
 13 14  1  0
 14 15  1  0
 15 16  1  0
 14 17  1  0
 17 18  1  0
 18 19  1  0
 19 20  1  0
 20 21  1  0
 19 22  1  0
 22 23  2  0
 22 24  1  0
 24 25  2  0
 25 26  1  0
 26 27  2  0
 27 28  1  0
 28 29  2  0
 29 30  1  0
 30 31  1  0
 31 32  1  0
  6 33  1  0
 33  4  1  0
 32  9  1  0
 21 14  1  0
 29 24  1  0
  1 34  1  0
  1 35  1  0
  1 36  1  0
  5 37  1  0
  5 38  1  0
  6 39  1  0
 10 40  1  0
 10 41  1  0
 11 42  1  0
 11 43  1  0
 12 44  1  0
 12 45  1  0
 13 46  1  0
 13 47  1  0
 15 48  1  0
 15 49  1  0
 16 50  1  0
 17 51  1  0
 17 52  1  0
 18 53  1  0
 18 54  1  0
 20 55  1  0
 20 56  1  0
 21 57  1  0
 21 58  1  0
 25 59  1  0
 26 60  1  0
 27 61  1  0
 28 62  1  0
 31 63  1  0
 31 64  1  0
 32 65  1  0
 32 66  1  0
 33 67  1  0
 33 68  1  0
M  END
$$$$
