
     RDKit          3D

 91 97  0  0  0  0  0  0  0  0999 V2000
    8.0159   -1.0467    5.6471 C   0  0  0  0  0  0  0  0  0  0  0  0
    8.1645   -0.4917    4.3456 O   0  0  0  0  0  0  0  0  0  0  0  0
    7.1012   -0.2289    3.4621 C   0  0  0  0  0  0  0  0  0  0  0  0
    5.7682   -0.5276    3.8042 C   0  0  0  0  0  0  0  0  0  0  0  0
    4.7234   -0.2572    2.9157 C   0  0  0  0  0  0  0  0  0  0  0  0
    4.9952    0.2988    1.6594 C   0  0  0  0  0  0  0  0  0  0  0  0
    3.9747    0.5741    0.7372 C   0  0  0  0  0  0  0  0  0  0  0  0
    2.6398    0.3098    1.0628 O   0  0  0  0  0  0  0  0  0  0  0  0
    1.5340    0.6685    0.2305 C   0  0  2  0  0  0  0  0  0  0  0  0
    0.2202    0.4375    0.9788 C   0  0  0  0  0  0  0  0  0  0  0  0
   -0.6842   -0.3823    0.0506 C   0  0  1  0  0  0  0  0  0  0  0  0
   -1.9404    0.3806   -0.2774 C   0  0  0  0  0  0  0  0  0  0  0  0
   -2.1278    0.8566   -1.4288 O   0  0  0  0  0  0  0  0  0  0  0  0
   -2.8806    0.6459    0.7624 N   0  0  0  0  0  0  0  0  0  0  0  0
   -4.1281   -0.1010    0.8911 C   0  0  2  0  0  0  0  0  0  0  0  0
   -5.2877    0.3760    0.0688 C   0  0  0  0  0  0  0  0  0  0  0  0
   -5.6213   -0.2582   -0.9702 O   0  0  0  0  0  0  0  0  0  0  0  0
   -5.9590    1.5885    0.4244 N   0  0  0  0  0  0  0  0  0  0  0  0
   -7.3933    2.1169   -0.3856 S   0  0  0  0  0  6  0  0  0  0  0  0
   -7.0668    2.4378   -1.8200 O   0  0  0  0  0  0  0  0  0  0  0  0
   -8.4285    1.0278   -0.3354 O   0  0  0  0  0  0  0  0  0  0  0  0
   -8.0345    3.5533    0.4712 C   0  0  0  0  0  0  0  0  0  0  0  0
   -7.3749    4.8670    0.0833 C   0  0  0  0  0  0  0  0  0  0  0  0
   -8.7841    4.5471   -0.4029 C   0  0  0  0  0  0  0  0  0  0  0  0
   -4.4689   -0.3600    2.3544 C   0  0  0  0  0  0  0  0  0  0  0  0
   -4.0540   -1.5281    1.4553 C   0  0  1  0  0  0  0  0  0  0  0  0
   -5.2178   -2.4509    1.1663 C   0  0  0  0  0  0  0  0  0  0  0  0
   -5.1153   -3.6918    0.6587 C   0  0  0  0  0  0  0  0  0  0  0  0
   -3.8368   -4.3736    0.2340 C   0  0  0  0  0  0  0  0  0  0  0  0
   -3.8112   -4.5855   -1.2995 C   0  0  0  0  0  0  0  0  0  0  0  0
   -2.5978   -3.9355   -1.9821 C   0  0  0  0  0  0  0  0  0  0  0  0
   -2.6451   -2.4080   -1.8814 C   0  0  0  0  0  0  0  0  0  0  0  0
   -1.5515   -1.8009   -2.6456 N   0  0  0  0  0  0  0  0  0  0  0  0
   -1.7241   -1.5098   -4.0697 C   0  0  0  0  0  0  0  0  0  0  0  0
   -0.2297   -1.7076   -2.0951 C   0  0  0  0  0  0  0  0  0  0  0  0
    0.6719   -2.4618   -2.5470 O   0  0  0  0  0  0  0  0  0  0  0  0
    0.1110   -0.6958   -1.1300 N   0  0  0  0  0  0  0  0  0  0  0  0
    1.4742   -0.1904   -1.0290 C   0  0  0  0  0  0  0  0  0  0  0  0
    4.2942    1.0960   -0.4766 N   0  0  0  0  0  0  0  0  0  0  0  0
    5.5813    1.3638   -0.8269 C   0  0  0  0  0  0  0  0  0  0  0  0
    5.8908    1.9172   -2.1678 C   0  0  0  0  0  0  0  0  0  0  0  0
    4.8797    2.0589   -3.1357 C   0  0  0  0  0  0  0  0  0  0  0  0
    5.1906    2.5865   -4.3910 C   0  0  0  0  0  0  0  0  0  0  0  0
    6.4634    2.9656   -4.6748 N   0  0  0  0  0  0  0  0  0  0  0  0
    7.4620    2.8445   -3.7618 C   0  0  0  0  0  0  0  0  0  0  0  0
    7.1982    2.3145   -2.4975 C   0  0  0  0  0  0  0  0  0  0  0  0
    6.5811    1.1154    0.0624 N   0  0  0  0  0  0  0  0  0  0  0  0
    6.3283    0.5947    1.2949 C   0  0  0  0  0  0  0  0  0  0  0  0
    7.3836    0.3526    2.2047 C   0  0  0  0  0  0  0  0  0  0  0  0
    8.8092    0.6626    1.8220 C   0  0  0  0  0  0  0  0  0  0  0  0
    7.5754   -2.0644    5.5852 H   0  0  0  0  0  0  0  0  0  0  0  0
    9.0149   -1.1186    6.1198 H   0  0  0  0  0  0  0  0  0  0  0  0
    7.3745   -0.3874    6.2674 H   0  0  0  0  0  0  0  0  0  0  0  0
    5.5249   -0.9690    4.7613 H   0  0  0  0  0  0  0  0  0  0  0  0
    3.7047   -0.4927    3.2146 H   0  0  0  0  0  0  0  0  0  0  0  0
    1.6026    1.7458   -0.0467 H   0  0  0  0  0  0  0  0  0  0  0  0
    0.3969   -0.1249    1.9233 H   0  0  0  0  0  0  0  0  0  0  0  0
   -0.2278    1.4207    1.2597 H   0  0  0  0  0  0  0  0  0  0  0  0
   -0.9514   -1.3259    0.5675 H   0  0  0  0  0  0  0  0  0  0  0  0
   -2.7609    1.5162    1.3213 H   0  0  0  0  0  0  0  0  0  0  0  0
   -5.6030    2.1544    1.2266 H   0  0  0  0  0  0  0  0  0  0  0  0
   -8.3796    3.4748    1.5266 H   0  0  0  0  0  0  0  0  0  0  0  0
   -7.3446    5.6270    0.8955 H   0  0  0  0  0  0  0  0  0  0  0  0
   -6.6027    4.8121   -0.7127 H   0  0  0  0  0  0  0  0  0  0  0  0
   -9.5788    5.1189    0.1235 H   0  0  0  0  0  0  0  0  0  0  0  0
   -8.8496    4.3025   -1.4855 H   0  0  0  0  0  0  0  0  0  0  0  0
   -3.6848   -0.0563    3.0828 H   0  0  0  0  0  0  0  0  0  0  0  0
   -5.5492   -0.2874    2.6146 H   0  0  0  0  0  0  0  0  0  0  0  0
   -3.0681   -1.9383    1.7693 H   0  0  0  0  0  0  0  0  0  0  0  0
   -6.2214   -2.1094    1.4087 H   0  0  0  0  0  0  0  0  0  0  0  0
   -6.0379   -4.2446    0.5002 H   0  0  0  0  0  0  0  0  0  0  0  0
   -2.9340   -3.8420    0.5945 H   0  0  0  0  0  0  0  0  0  0  0  0
   -3.8106   -5.3670    0.7346 H   0  0  0  0  0  0  0  0  0  0  0  0
   -3.7831   -5.6779   -1.5101 H   0  0  0  0  0  0  0  0  0  0  0  0
   -4.7410   -4.1986   -1.7816 H   0  0  0  0  0  0  0  0  0  0  0  0
   -1.6565   -4.3194   -1.5275 H   0  0  0  0  0  0  0  0  0  0  0  0
   -2.6024   -4.2230   -3.0549 H   0  0  0  0  0  0  0  0  0  0  0  0
   -3.6257   -2.0310   -2.2500 H   0  0  0  0  0  0  0  0  0  0  0  0
   -2.5709   -2.1173   -0.8199 H   0  0  0  0  0  0  0  0  0  0  0  0
   -2.7617   -1.7418   -4.4048 H   0  0  0  0  0  0  0  0  0  0  0  0
   -1.0157   -2.1199   -4.6761 H   0  0  0  0  0  0  0  0  0  0  0  0
   -1.5184   -0.4305   -4.2584 H   0  0  0  0  0  0  0  0  0  0  0  0
    1.7126    0.4260   -1.9242 H   0  0  0  0  0  0  0  0  0  0  0  0
    2.1892   -1.0390   -0.9624 H   0  0  0  0  0  0  0  0  0  0  0  0
    3.8629    1.7558   -2.9308 H   0  0  0  0  0  0  0  0  0  0  0  0
    4.4176    2.6948   -5.1409 H   0  0  0  0  0  0  0  0  0  0  0  0
    8.4640    3.1550   -4.0193 H   0  0  0  0  0  0  0  0  0  0  0  0
    8.0084    2.2272   -1.7842 H   0  0  0  0  0  0  0  0  0  0  0  0
    9.2643   -0.2250    1.3377 H   0  0  0  0  0  0  0  0  0  0  0  0
    8.8610    1.5231    1.1246 H   0  0  0  0  0  0  0  0  0  0  0  0
    9.4123    0.9316    2.7145 H   0  0  0  0  0  0  0  0  0  0  0  0
  1  2  1  0
  2  3  1  0
  3  4  2  0
  4  5  1  0
  5  6  2  0
  6  7  1  0
  7  8  1  0
  8  9  1  0
  9 10  1  0
 10 11  1  0
 11 12  1  0
 12 13  2  0
 12 14  1  0
 14 15  1  0
 15 16  1  6
 16 17  2  0
 16 18  1  0
 18 19  1  0
 19 20  2  0
 19 21  2  0
 19 22  1  0
 22 23  1  0
 23 24  1  0
 15 25  1  0
 25 26  1  0
 26 27  1  0
 27 28  2  0
 28 29  1  0
 29 30  1  0
 30 31  1  0
 31 32  1  0
 32 33  1  0
 33 34  1  0
 33 35  1  0
 35 36  2  0
 35 37  1  0
 37 38  1  0
  7 39  2  0
 39 40  1  0
 40 41  1  0
 41 42  2  0
 42 43  1  0
 43 44  2  0
 44 45  1  0
 45 46  2  0
 40 47  2  0
 47 48  1  0
 48 49  2  0
 49 50  1  0
 49  3  1  0
 48  6  1  0
 38  9  1  0
 46 41  1  0
 37 11  1  0
 26 15  1  0
 24 22  1  0
  1 51  1  0
  1 52  1  0
  1 53  1  0
  4 54  1  0
  5 55  1  0
  9 56  1  6
 10 57  1  0
 10 58  1  0
 11 59  1  1
 14 60  1  0
 18 61  1  0
 22 62  1  0
 23 63  1  0
 23 64  1  0
 24 65  1  0
 24 66  1  0
 25 67  1  0
 25 68  1  0
 26 69  1  1
 27 70  1  0
 28 71  1  0
 29 72  1  0
 29 73  1  0
 30 74  1  0
 30 75  1  0
 31 76  1  0
 31 77  1  0
 32 78  1  0
 32 79  1  0
 34 80  1  0
 34 81  1  0
 34 82  1  0
 38 83  1  0
 38 84  1  0
 42 85  1  0
 43 86  1  0
 45 87  1  0
 46 88  1  0
 50 89  1  0
 50 90  1  0
 50 91  1  0
M  END
$$$$
