
     RDKit          3D

 83 85  0  0  0  0  0  0  0  0999 V2000
   -7.1672   -0.2252    1.2161 C   0  0  0  0  0  0  0  0  0  0  0  0
   -6.2516   -0.9325    0.3192 N   0  0  0  0  0  0  0  0  0  0  0  0
   -5.3177   -0.0027   -0.3358 C   0  0  0  0  0  0  0  0  0  0  0  0
   -4.0197    0.1694    0.5077 C   0  0  1  0  0  0  0  0  0  0  0  0
   -3.0481   -0.8009    0.1320 O   0  0  0  0  0  0  0  0  0  0  0  0
   -3.4404   -2.1007    0.5563 C   0  0  0  0  0  0  0  0  0  0  0  0
   -2.2452   -3.0580    0.5638 C   0  0  0  0  0  0  0  0  0  0  0  0
   -1.9513   -3.7080   -0.8012 C   0  0  0  0  0  0  0  0  0  0  0  0
   -1.5232   -2.7387   -1.9153 C   0  0  0  0  0  0  0  0  0  0  0  0
   -0.1369   -2.1126   -1.6764 C   0  0  1  0  0  0  0  0  0  0  0  0
    0.4344   -1.5564   -2.9799 C   0  0  0  0  0  0  0  0  0  0  0  0
   -0.2498   -1.0391   -0.7430 O   0  0  0  0  0  0  0  0  0  0  0  0
    0.6589   -0.7700    0.2902 C   0  0  0  0  0  0  0  0  0  0  0  0
    1.2615   -1.8040    1.0310 C   0  0  0  0  0  0  0  0  0  0  0  0
    2.1502   -1.5107    2.0658 C   0  0  0  0  0  0  0  0  0  0  0  0
    2.4832   -0.1842    2.3567 C   0  0  0  0  0  0  0  0  0  0  0  0
    3.4116    0.0985    3.4117 N   0  0  0  0  0  0  0  0  0  0  0  0
    4.7247    1.2108    3.1969 S   0  0  0  0  0  6  0  0  0  0  0  0
    5.5753    1.2087    4.4365 O   0  0  0  0  0  0  0  0  0  0  0  0
    4.2094    2.6076    2.9870 O   0  0  0  0  0  0  0  0  0  0  0  0
    5.6928    0.6972    1.8180 C   0  0  0  0  0  0  0  0  0  0  0  0
    6.8252   -0.1068    2.0073 C   0  0  0  0  0  0  0  0  0  0  0  0
    7.5688   -0.5473    0.9072 C   0  0  0  0  0  0  0  0  0  0  0  0
    7.1813   -0.1923   -0.4000 C   0  0  0  0  0  0  0  0  0  0  0  0
    7.8895   -0.6167   -1.5346 O   0  0  0  0  0  0  0  0  0  0  0  0
    9.0495   -1.4429   -1.4951 C   0  0  0  0  0  0  0  0  0  0  0  0
    6.0468    0.6092   -0.5818 C   0  0  0  0  0  0  0  0  0  0  0  0
    5.3057    1.0514    0.5189 C   0  0  0  0  0  0  0  0  0  0  0  0
    1.8847    0.8502    1.6232 C   0  0  0  0  0  0  0  0  0  0  0  0
    0.9609    0.5667    0.6042 C   0  0  0  0  0  0  0  0  0  0  0  0
    0.3942    1.6819   -0.1815 C   0  0  0  0  0  0  0  0  0  0  0  0
    1.1589    2.6270   -0.5189 O   0  0  0  0  0  0  0  0  0  0  0  0
   -1.0076    1.7370   -0.5331 N   0  0  0  0  0  0  0  0  0  0  0  0
   -1.3155    2.2902   -1.8803 C   0  0  1  0  0  0  0  0  0  0  0  0
   -2.2506    1.3787   -2.6978 C   0  0  0  0  0  0  0  0  0  0  0  0
   -1.7992    3.7534   -1.8256 C   0  0  0  0  0  0  0  0  0  0  0  0
   -0.8468    4.5518   -1.1795 O   0  0  0  0  0  0  0  0  0  0  0  0
   -1.9332    1.7660    0.6297 C   0  0  0  0  0  0  0  0  0  0  0  0
   -3.4601    1.6187    0.3316 C   0  0  2  0  0  0  0  0  0  0  0  0
   -4.2436    2.5888    1.2411 C   0  0  0  0  0  0  0  0  0  0  0  0
   -7.8331   -0.9616    1.7132 H   0  0  0  0  0  0  0  0  0  0  0  0
   -7.7993    0.4933    0.6501 H   0  0  0  0  0  0  0  0  0  0  0  0
   -6.6021    0.3139    2.0066 H   0  0  0  0  0  0  0  0  0  0  0  0
   -6.8290   -1.3893   -0.4235 H   0  0  0  0  0  0  0  0  0  0  0  0
   -5.8181    0.9689   -0.5492 H   0  0  0  0  0  0  0  0  0  0  0  0
   -5.0334   -0.4053   -1.3350 H   0  0  0  0  0  0  0  0  0  0  0  0
   -4.2561    0.0580    1.5923 H   0  0  0  0  0  0  0  0  0  0  0  0
   -3.8461   -2.0917    1.5944 H   0  0  0  0  0  0  0  0  0  0  0  0
   -4.2227   -2.5099   -0.1187 H   0  0  0  0  0  0  0  0  0  0  0  0
   -2.4803   -3.8884    1.2673 H   0  0  0  0  0  0  0  0  0  0  0  0
   -1.3563   -2.5512    0.9776 H   0  0  0  0  0  0  0  0  0  0  0  0
   -2.8608   -4.2515   -1.1379 H   0  0  0  0  0  0  0  0  0  0  0  0
   -1.1555   -4.4731   -0.6633 H   0  0  0  0  0  0  0  0  0  0  0  0
   -1.4948   -3.3300   -2.8573 H   0  0  0  0  0  0  0  0  0  0  0  0
   -2.2886   -1.9517   -2.0612 H   0  0  0  0  0  0  0  0  0  0  0  0
    0.5598   -2.9003   -1.3218 H   0  0  0  0  0  0  0  0  0  0  0  0
    0.5707   -2.3699   -3.7232 H   0  0  0  0  0  0  0  0  0  0  0  0
   -0.2442   -0.7841   -3.4013 H   0  0  0  0  0  0  0  0  0  0  0  0
    1.4245   -1.0906   -2.7859 H   0  0  0  0  0  0  0  0  0  0  0  0
    1.0244   -2.8407    0.8392 H   0  0  0  0  0  0  0  0  0  0  0  0
    2.5949   -2.3187    2.6327 H   0  0  0  0  0  0  0  0  0  0  0  0
    3.5032   -0.5903    4.1899 H   0  0  0  0  0  0  0  0  0  0  0  0
    7.1274   -0.4033    3.0047 H   0  0  0  0  0  0  0  0  0  0  0  0
    8.4386   -1.1673    1.0838 H   0  0  0  0  0  0  0  0  0  0  0  0
    9.3974   -1.6330   -2.5327 H   0  0  0  0  0  0  0  0  0  0  0  0
    8.8062   -2.4162   -1.0169 H   0  0  0  0  0  0  0  0  0  0  0  0
    9.8610   -0.9337   -0.9331 H   0  0  0  0  0  0  0  0  0  0  0  0
    5.7358    0.8863   -1.5831 H   0  0  0  0  0  0  0  0  0  0  0  0
    4.4268    1.6634    0.3564 H   0  0  0  0  0  0  0  0  0  0  0  0
    2.1131    1.8811    1.8581 H   0  0  0  0  0  0  0  0  0  0  0  0
   -0.3722    2.3160   -2.4747 H   0  0  0  0  0  0  0  0  0  0  0  0
   -2.3549    0.3883   -2.2150 H   0  0  0  0  0  0  0  0  0  0  0  0
   -3.2590    1.8250   -2.8372 H   0  0  0  0  0  0  0  0  0  0  0  0
   -1.8341    1.2155   -3.7165 H   0  0  0  0  0  0  0  0  0  0  0  0
   -2.7715    3.8443   -1.3023 H   0  0  0  0  0  0  0  0  0  0  0  0
   -1.9389    4.1258   -2.8660 H   0  0  0  0  0  0  0  0  0  0  0  0
   -1.2042    5.4782   -1.1941 H   0  0  0  0  0  0  0  0  0  0  0  0
   -1.6408    0.9816    1.3599 H   0  0  0  0  0  0  0  0  0  0  0  0
   -1.7463    2.7269    1.1587 H   0  0  0  0  0  0  0  0  0  0  0  0
   -3.6835    1.9484   -0.6880 H   0  0  0  0  0  0  0  0  0  0  0  0
   -3.9406    3.6385    1.0332 H   0  0  0  0  0  0  0  0  0  0  0  0
   -4.0393    2.3670    2.3108 H   0  0  0  0  0  0  0  0  0  0  0  0
   -5.3376    2.5177    1.0697 H   0  0  0  0  0  0  0  0  0  0  0  0
  1  2  1  0
  2  3  1  0
  3  4  1  0
  4  5  1  0
  5  6  1  0
  6  7  1  0
  7  8  1  0
  8  9  1  0
  9 10  1  0
 10 11  1  0
 10 12  1  0
 12 13  1  0
 13 14  2  0
 14 15  1  0
 15 16  2  0
 16 17  1  0
 17 18  1  0
 18 19  2  0
 18 20  2  0
 18 21  1  0
 21 22  2  0
 22 23  1  0
 23 24  2  0
 24 25  1  0
 25 26  1  0
 24 27  1  0
 27 28  2  0
 16 29  1  0
 29 30  2  0
 30 31  1  0
 31 32  2  0
 31 33  1  0
 33 34  1  0
 34 35  1  0
 34 36  1  0
 36 37  1  0
 33 38  1  0
 38 39  1  0
 39 40  1  0
 39  4  1  0
 30 13  1  0
 28 21  1  0
  1 41  1  0
  1 42  1  0
  1 43  1  0
  2 44  1  0
  3 45  1  0
  3 46  1  0
  4 47  1  1
  6 48  1  0
  6 49  1  0
  7 50  1  0
  7 51  1  0
  8 52  1  0
  8 53  1  0
  9 54  1  0
  9 55  1  0
 10 56  1  1
 11 57  1  0
 11 58  1  0
 11 59  1  0
 14 60  1  0
 15 61  1  0
 17 62  1  0
 22 63  1  0
 23 64  1  0
 26 65  1  0
 26 66  1  0
 26 67  1  0
 27 68  1  0
 28 69  1  0
 29 70  1  0
 34 71  1  6
 35 72  1  0
 35 73  1  0
 35 74  1  0
 36 75  1  0
 36 76  1  0
 37 77  1  0
 38 78  1  0
 38 79  1  0
 39 80  1  6
 40 81  1  0
 40 82  1  0
 40 83  1  0
M  END
$$$$
