
     RDKit          3D

 84 86  0  0  0  0  0  0  0  0999 V2000
   -5.7891   -1.1316    0.1717 C   0  0  0  0  0  0  0  0  0  0  0  0
   -4.7043   -1.2362   -0.9110 C   0  0  0  0  0  0  0  0  0  0  0  0
   -5.2308   -2.0560   -2.0982 C   0  0  0  0  0  0  0  0  0  0  0  0
   -3.4153   -1.8480   -0.3047 C   0  0  0  0  0  0  0  0  0  0  0  0
   -2.1929   -1.9049   -1.2615 C   0  0  2  0  0  0  0  0  0  0  0  0
   -0.9952   -2.4409   -0.5800 N   0  0  0  0  0  0  0  0  0  0  0  0
   -1.1693   -3.8559   -0.1882 C   0  0  0  0  0  0  0  0  0  0  0  0
    0.1633   -4.5495    0.1504 C   0  0  0  0  0  0  0  0  0  0  0  0
    0.8497   -3.9878    1.4096 C   0  0  0  0  0  0  0  0  0  0  0  0
    1.8676   -2.8984    1.0581 C   0  0  0  0  0  0  0  0  0  0  0  0
    2.4785   -2.3346    2.2613 N   0  0  0  0  0  0  0  0  0  0  0  0
    3.5216   -1.3423    2.2491 C   0  0  0  0  0  0  0  0  0  0  0  0
    3.9361   -0.9048    3.3582 O   0  0  0  0  0  0  0  0  0  0  0  0
    4.2178   -0.8966    0.9760 C   0  0  2  0  0  0  0  0  0  0  0  0
    5.2096    0.2692    1.1873 C   0  0  0  0  0  0  0  0  0  0  0  0
    5.9238    0.6386   -0.0898 C   0  0  0  0  0  0  0  0  0  0  0  0
    7.0342   -0.1087   -0.5190 C   0  0  0  0  0  0  0  0  0  0  0  0
    7.6852    0.2177   -1.7150 C   0  0  0  0  0  0  0  0  0  0  0  0
    7.2289    1.2867   -2.4928 C   0  0  0  0  0  0  0  0  0  0  0  0
    6.1208    2.0293   -2.0774 C   0  0  0  0  0  0  0  0  0  0  0  0
    5.4669    1.7071   -0.8819 C   0  0  0  0  0  0  0  0  0  0  0  0
    3.2928   -0.6382   -0.1397 N   0  0  0  0  0  0  0  0  0  0  0  0
    2.2163    0.3179   -0.2784 C   0  0  0  0  0  0  0  0  0  0  0  0
    1.5792    0.3056   -1.3745 O   0  0  0  0  0  0  0  0  0  0  0  0
    1.8595    1.3828    0.7550 C   0  0  2  0  0  0  0  0  0  0  0  0
    1.2817    0.8401    2.0713 C   0  0  0  0  0  0  0  0  0  0  0  0
    0.9696    2.4081    0.1797 N   0  0  0  0  0  0  0  0  0  0  0  0
   -0.3015    2.1888   -0.4705 C   0  0  0  0  0  0  0  0  0  0  0  0
   -0.6442    2.9834   -1.3898 O   0  0  0  0  0  0  0  0  0  0  0  0
   -1.2836    1.1138   -0.0378 C   0  0  1  0  0  0  0  0  0  0  0  0
   -2.1963    1.6198    1.1053 C   0  0  0  0  0  0  0  0  0  0  0  0
   -3.0069    2.8450    0.7493 C   0  0  0  0  0  0  0  0  0  0  0  0
   -4.3196    2.7165    0.2679 C   0  0  0  0  0  0  0  0  0  0  0  0
   -5.0635    3.8524   -0.0641 C   0  0  0  0  0  0  0  0  0  0  0  0
   -4.5052    5.1302    0.0820 C   0  0  0  0  0  0  0  0  0  0  0  0
   -5.2338    6.2686   -0.2572 O   0  0  0  0  0  0  0  0  0  0  0  0
   -3.2022    5.2645    0.5717 C   0  0  0  0  0  0  0  0  0  0  0  0
   -2.4574    4.1293    0.9077 C   0  0  0  0  0  0  0  0  0  0  0  0
   -2.0970    0.6831   -1.1796 N   0  0  0  0  0  0  0  0  0  0  0  0
   -1.8723   -0.5523   -1.8743 C   0  0  0  0  0  0  0  0  0  0  0  0
   -1.4420   -0.5110   -3.0567 O   0  0  0  0  0  0  0  0  0  0  0  0
   -5.4206   -0.5282    1.0291 H   0  0  0  0  0  0  0  0  0  0  0  0
   -6.6933   -0.6257   -0.2346 H   0  0  0  0  0  0  0  0  0  0  0  0
   -6.0738   -2.1420    0.5440 H   0  0  0  0  0  0  0  0  0  0  0  0
   -4.5032   -0.2088   -1.2724 H   0  0  0  0  0  0  0  0  0  0  0  0
   -6.2063   -1.6498   -2.4445 H   0  0  0  0  0  0  0  0  0  0  0  0
   -4.5295   -1.9917   -2.9543 H   0  0  0  0  0  0  0  0  0  0  0  0
   -5.3694   -3.1222   -1.8167 H   0  0  0  0  0  0  0  0  0  0  0  0
   -3.1230   -1.2891    0.6075 H   0  0  0  0  0  0  0  0  0  0  0  0
   -3.6735   -2.8746    0.0256 H   0  0  0  0  0  0  0  0  0  0  0  0
   -2.4523   -2.5837   -2.1062 H   0  0  0  0  0  0  0  0  0  0  0  0
   -0.2102   -2.4073   -1.2735 H   0  0  0  0  0  0  0  0  0  0  0  0
   -1.8255   -3.9216    0.7069 H   0  0  0  0  0  0  0  0  0  0  0  0
   -1.6464   -4.4367   -1.0103 H   0  0  0  0  0  0  0  0  0  0  0  0
   -0.0621   -5.6230    0.3344 H   0  0  0  0  0  0  0  0  0  0  0  0
    0.8462   -4.5172   -0.7265 H   0  0  0  0  0  0  0  0  0  0  0  0
    0.0913   -3.5885    2.1203 H   0  0  0  0  0  0  0  0  0  0  0  0
    1.3889   -4.8144    1.9210 H   0  0  0  0  0  0  0  0  0  0  0  0
    1.3406   -2.0950    0.5134 H   0  0  0  0  0  0  0  0  0  0  0  0
    2.6573   -3.3295    0.4064 H   0  0  0  0  0  0  0  0  0  0  0  0
    2.1310   -2.6443    3.1985 H   0  0  0  0  0  0  0  0  0  0  0  0
    4.8439   -1.7712    0.6864 H   0  0  0  0  0  0  0  0  0  0  0  0
    4.7105    1.1541    1.6266 H   0  0  0  0  0  0  0  0  0  0  0  0
    5.9726   -0.0401    1.9342 H   0  0  0  0  0  0  0  0  0  0  0  0
    7.3963   -0.9427    0.0698 H   0  0  0  0  0  0  0  0  0  0  0  0
    8.5377   -0.3617   -2.0424 H   0  0  0  0  0  0  0  0  0  0  0  0
    7.7380    1.5418   -3.4148 H   0  0  0  0  0  0  0  0  0  0  0  0
    5.7729    2.8602   -2.6761 H   0  0  0  0  0  0  0  0  0  0  0  0
    4.6172    2.2992   -0.5700 H   0  0  0  0  0  0  0  0  0  0  0  0
    3.4356   -1.2553   -0.9716 H   0  0  0  0  0  0  0  0  0  0  0  0
    2.7949    1.9096    1.0156 H   0  0  0  0  0  0  0  0  0  0  0  0
    0.5719    1.5680    2.5140 H   0  0  0  0  0  0  0  0  0  0  0  0
    2.0828    0.7339    2.8263 H   0  0  0  0  0  0  0  0  0  0  0  0
    0.7752   -0.1384    1.9382 H   0  0  0  0  0  0  0  0  0  0  0  0
    1.3879    3.3591    0.0611 H   0  0  0  0  0  0  0  0  0  0  0  0
   -0.7258    0.2358    0.3350 H   0  0  0  0  0  0  0  0  0  0  0  0
   -1.5865    1.8427    2.0032 H   0  0  0  0  0  0  0  0  0  0  0  0
   -2.8817    0.8078    1.4189 H   0  0  0  0  0  0  0  0  0  0  0  0
   -4.7687    1.7385    0.1541 H   0  0  0  0  0  0  0  0  0  0  0  0
   -6.0740    3.7379   -0.4326 H   0  0  0  0  0  0  0  0  0  0  0  0
   -6.1845    6.2041   -0.6031 H   0  0  0  0  0  0  0  0  0  0  0  0
   -2.7665    6.2491    0.6961 H   0  0  0  0  0  0  0  0  0  0  0  0
   -1.4496    4.2504    1.2848 H   0  0  0  0  0  0  0  0  0  0  0  0
   -2.6470    1.4098   -1.6913 H   0  0  0  0  0  0  0  0  0  0  0  0
  1  2  1  0
  2  3  1  0
  2  4  1  0
  4  5  1  0
  5  6  1  0
  6  7  1  0
  7  8  1  0
  8  9  1  0
  9 10  1  0
 10 11  1  0
 11 12  1  0
 12 13  2  0
 12 14  1  0
 14 15  1  0
 15 16  1  0
 16 17  2  0
 17 18  1  0
 18 19  2  0
 19 20  1  0
 20 21  2  0
 14 22  1  0
 22 23  1  0
 23 24  2  0
 23 25  1  0
 25 26  1  0
 25 27  1  0
 27 28  1  0
 28 29  2  0
 28 30  1  0
 30 31  1  0
 31 32  1  0
 32 33  2  0
 33 34  1  0
 34 35  2  0
 35 36  1  0
 35 37  1  0
 37 38  2  0
 30 39  1  0
 39 40  1  0
 40 41  2  0
 40  5  1  0
 21 16  1  0
 38 32  1  0
  1 42  1  0
  1 43  1  0
  1 44  1  0
  2 45  1  0
  3 46  1  0
  3 47  1  0
  3 48  1  0
  4 49  1  0
  4 50  1  0
  5 51  1  6
  6 52  1  0
  7 53  1  0
  7 54  1  0
  8 55  1  0
  8 56  1  0
  9 57  1  0
  9 58  1  0
 10 59  1  0
 10 60  1  0
 11 61  1  0
 14 62  1  6
 15 63  1  0
 15 64  1  0
 17 65  1  0
 18 66  1  0
 19 67  1  0
 20 68  1  0
 21 69  1  0
 22 70  1  0
 25 71  1  1
 26 72  1  0
 26 73  1  0
 26 74  1  0
 27 75  1  0
 30 76  1  1
 31 77  1  0
 31 78  1  0
 33 79  1  0
 34 80  1  0
 36 81  1  0
 37 82  1  0
 38 83  1  0
 39 84  1  0
M  END
$$$$
