
     RDKit          3D

 85 87  0  0  0  0  0  0  0  0999 V2000
    2.1935    4.0816   -0.2324 C   0  0  0  0  0  0  0  0  0  0  0  0
    1.2743    2.8905   -0.5461 C   0  0  1  0  0  0  0  0  0  0  0  0
    1.1529    2.5704   -2.0539 C   0  0  0  0  0  0  0  0  0  0  0  0
    0.1291    3.4467   -2.7992 C   0  0  0  0  0  0  0  0  0  0  0  0
   -1.3462    3.2877   -2.3623 C   0  0  0  0  0  0  0  0  0  0  0  0
   -2.0479    1.9935   -2.8265 C   0  0  0  0  0  0  0  0  0  0  0  0
   -1.4604    0.7805   -2.3809 O   0  0  0  0  0  0  0  0  0  0  0  0
   -1.6089    0.5324   -0.9853 C   0  0  1  0  0  0  0  0  0  0  0  0
   -3.0744    0.2428   -0.5433 C   0  0  0  0  0  0  0  0  0  0  0  0
   -3.6588   -0.9518   -1.1955 N   0  0  0  0  0  0  0  0  0  0  0  0
   -4.3278   -0.6336   -2.4675 C   0  0  0  0  0  0  0  0  0  0  0  0
   -4.5374   -1.7261   -0.2864 C   0  0  0  0  0  0  0  0  0  0  0  0
   -5.7433   -0.9482    0.2100 C   0  0  0  0  0  0  0  0  0  0  0  0
   -6.9358   -0.9287   -0.5352 C   0  0  0  0  0  0  0  0  0  0  0  0
   -8.0496   -0.2220   -0.0700 C   0  0  0  0  0  0  0  0  0  0  0  0
   -7.9839    0.4690    1.1423 C   0  0  0  0  0  0  0  0  0  0  0  0
   -6.8086    0.4459    1.8985 C   0  0  0  0  0  0  0  0  0  0  0  0
   -5.6941   -0.2620    1.4380 C   0  0  0  0  0  0  0  0  0  0  0  0
   -0.6074   -0.5985   -0.5798 C   0  0  2  0  0  0  0  0  0  0  0  0
   -0.8780   -1.9228   -1.3235 C   0  0  0  0  0  0  0  0  0  0  0  0
   -0.5209   -0.7958    0.9577 C   0  0  0  0  0  0  0  0  0  0  0  0
    0.8000   -1.2972    1.3705 N   0  0  0  0  0  0  0  0  0  0  0  0
    1.1077   -2.7391    1.2823 C   0  0  1  0  0  0  0  0  0  0  0  0
    2.3121   -2.9914    0.3598 C   0  0  0  0  0  0  0  0  0  0  0  0
    1.3352   -3.3394    2.6809 C   0  0  0  0  0  0  0  0  0  0  0  0
    1.4686   -4.7313    2.5888 O   0  0  0  0  0  0  0  0  0  0  0  0
    1.7007   -0.4063    2.0559 C   0  0  0  0  0  0  0  0  0  0  0  0
    1.4720   -0.0847    3.2513 O   0  0  0  0  0  0  0  0  0  0  0  0
    2.9149    0.0925    1.3902 C   0  0  0  0  0  0  0  0  0  0  0  0
    4.1645   -0.4136    1.7703 C   0  0  0  0  0  0  0  0  0  0  0  0
    5.3384   -0.0311    1.0907 C   0  0  0  0  0  0  0  0  0  0  0  0
    6.6385   -0.5405    1.4988 N   0  0  0  0  0  0  0  0  0  0  0  0
    6.7430   -1.6920    2.4074 C   0  0  0  0  0  0  0  0  0  0  0  0
    7.8715    0.1083    1.0350 C   0  0  0  0  0  0  0  0  0  0  0  0
    5.2139    0.8529   -0.0025 C   0  0  0  0  0  0  0  0  0  0  0  0
    3.9741    1.3940   -0.3499 C   0  0  0  0  0  0  0  0  0  0  0  0
    2.8250    1.0733    0.3909 C   0  0  0  0  0  0  0  0  0  0  0  0
    1.5885    1.7202    0.2165 O   0  0  0  0  0  0  0  0  0  0  0  0
    2.4201    4.1087    0.8551 H   0  0  0  0  0  0  0  0  0  0  0  0
    3.1438    4.0497   -0.7972 H   0  0  0  0  0  0  0  0  0  0  0  0
    1.6817    5.0288   -0.5046 H   0  0  0  0  0  0  0  0  0  0  0  0
    0.2869    3.2035   -0.1655 H   0  0  0  0  0  0  0  0  0  0  0  0
    2.1389    2.7058   -2.5447 H   0  0  0  0  0  0  0  0  0  0  0  0
    0.8948    1.5087   -2.2044 H   0  0  0  0  0  0  0  0  0  0  0  0
    0.2038    3.2394   -3.8878 H   0  0  0  0  0  0  0  0  0  0  0  0
    0.4209    4.5104   -2.6613 H   0  0  0  0  0  0  0  0  0  0  0  0
   -1.9061    4.1240   -2.8352 H   0  0  0  0  0  0  0  0  0  0  0  0
   -1.5007    3.4511   -1.2817 H   0  0  0  0  0  0  0  0  0  0  0  0
   -2.0272    1.9818   -3.9362 H   0  0  0  0  0  0  0  0  0  0  0  0
   -3.1233    2.0491   -2.5656 H   0  0  0  0  0  0  0  0  0  0  0  0
   -1.2847    1.4280   -0.4183 H   0  0  0  0  0  0  0  0  0  0  0  0
   -3.7219    1.1341   -0.6798 H   0  0  0  0  0  0  0  0  0  0  0  0
   -3.0403    0.1045    0.5573 H   0  0  0  0  0  0  0  0  0  0  0  0
   -5.1005    0.1539   -2.3350 H   0  0  0  0  0  0  0  0  0  0  0  0
   -3.5882   -0.2981   -3.2175 H   0  0  0  0  0  0  0  0  0  0  0  0
   -4.8052   -1.5436   -2.8918 H   0  0  0  0  0  0  0  0  0  0  0  0
   -4.8771   -2.6577   -0.7945 H   0  0  0  0  0  0  0  0  0  0  0  0
   -3.9390   -2.0804    0.5809 H   0  0  0  0  0  0  0  0  0  0  0  0
   -7.0051   -1.4617   -1.4753 H   0  0  0  0  0  0  0  0  0  0  0  0
   -8.9660   -0.2134   -0.6471 H   0  0  0  0  0  0  0  0  0  0  0  0
   -8.8432    1.0214    1.4981 H   0  0  0  0  0  0  0  0  0  0  0  0
   -6.7640    0.9729    2.8438 H   0  0  0  0  0  0  0  0  0  0  0  0
   -4.7994   -0.2821    2.0451 H   0  0  0  0  0  0  0  0  0  0  0  0
    0.3950   -0.2635   -0.9153 H   0  0  0  0  0  0  0  0  0  0  0  0
   -1.6581   -2.5222   -0.8136 H   0  0  0  0  0  0  0  0  0  0  0  0
   -1.1949   -1.7388   -2.3702 H   0  0  0  0  0  0  0  0  0  0  0  0
    0.0419   -2.5352   -1.3771 H   0  0  0  0  0  0  0  0  0  0  0  0
   -1.3129   -1.4923    1.3090 H   0  0  0  0  0  0  0  0  0  0  0  0
   -0.7154    0.1721    1.4699 H   0  0  0  0  0  0  0  0  0  0  0  0
    0.2363   -3.2760    0.8469 H   0  0  0  0  0  0  0  0  0  0  0  0
    3.2676   -2.7832    0.8800 H   0  0  0  0  0  0  0  0  0  0  0  0
    2.3280   -4.0521    0.0330 H   0  0  0  0  0  0  0  0  0  0  0  0
    2.2573   -2.3490   -0.5459 H   0  0  0  0  0  0  0  0  0  0  0  0
    0.4594   -3.0972    3.3244 H   0  0  0  0  0  0  0  0  0  0  0  0
    2.2531   -2.9036    3.1397 H   0  0  0  0  0  0  0  0  0  0  0  0
    1.6988   -5.0486    3.4978 H   0  0  0  0  0  0  0  0  0  0  0  0
    4.2028   -1.1185    2.5916 H   0  0  0  0  0  0  0  0  0  0  0  0
    6.1473   -2.5435    2.0097 H   0  0  0  0  0  0  0  0  0  0  0  0
    7.7947   -2.0396    2.5167 H   0  0  0  0  0  0  0  0  0  0  0  0
    6.3703   -1.4107    3.4183 H   0  0  0  0  0  0  0  0  0  0  0  0
    8.7632   -0.2588    1.5887 H   0  0  0  0  0  0  0  0  0  0  0  0
    8.0214   -0.1001   -0.0467 H   0  0  0  0  0  0  0  0  0  0  0  0
    7.8084    1.2059    1.2035 H   0  0  0  0  0  0  0  0  0  0  0  0
    6.0752    1.1347   -0.5918 H   0  0  0  0  0  0  0  0  0  0  0  0
    3.9271    2.0548   -1.2012 H   0  0  0  0  0  0  0  0  0  0  0  0
  1  2  1  0
  2  3  1  0
  3  4  1  0
  4  5  1  0
  5  6  1  0
  6  7  1  0
  7  8  1  0
  8  9  1  0
  9 10  1  0
 10 11  1  0
 10 12  1  0
 12 13  1  0
 13 14  2  0
 14 15  1  0
 15 16  2  0
 16 17  1  0
 17 18  2  0
  8 19  1  0
 19 20  1  0
 19 21  1  0
 21 22  1  0
 22 23  1  0
 23 24  1  0
 23 25  1  0
 25 26  1  0
 22 27  1  0
 27 28  2  0
 27 29  1  0
 29 30  2  0
 30 31  1  0
 31 32  1  0
 32 33  1  0
 32 34  1  0
 31 35  2  0
 35 36  1  0
 36 37  2  0
 37 38  1  0
 38  2  1  0
 18 13  1  0
 37 29  1  0
  1 39  1  0
  1 40  1  0
  1 41  1  0
  2 42  1  1
  3 43  1  0
  3 44  1  0
  4 45  1  0
  4 46  1  0
  5 47  1  0
  5 48  1  0
  6 49  1  0
  6 50  1  0
  8 51  1  1
  9 52  1  0
  9 53  1  0
 11 54  1  0
 11 55  1  0
 11 56  1  0
 12 57  1  0
 12 58  1  0
 14 59  1  0
 15 60  1  0
 16 61  1  0
 17 62  1  0
 18 63  1  0
 19 64  1  6
 20 65  1  0
 20 66  1  0
 20 67  1  0
 21 68  1  0
 21 69  1  0
 23 70  1  6
 24 71  1  0
 24 72  1  0
 24 73  1  0
 25 74  1  0
 25 75  1  0
 26 76  1  0
 30 77  1  0
 33 78  1  0
 33 79  1  0
 33 80  1  0
 34 81  1  0
 34 82  1  0
 34 83  1  0
 35 84  1  0
 36 85  1  0
M  END
$$$$
