
     RDKit          3D

 70 73  0  0  0  0  0  0  0  0999 V2000
   -3.7353   -1.0401   -4.1812 C   0  0  0  0  0  0  0  0  0  0  0  0
   -3.3383   -1.1361   -2.6920 C   0  0  0  0  0  0  0  0  0  0  0  0
   -3.2465   -2.6334   -2.3170 C   0  0  0  0  0  0  0  0  0  0  0  0
   -1.9725   -0.3990   -2.4999 C   0  0  0  0  0  0  0  0  0  0  0  0
   -1.1477   -0.8005   -1.2531 C   0  0  0  0  0  0  0  0  0  0  0  0
   -0.0643    0.2408   -0.9541 C   0  0  0  0  0  0  0  0  0  0  0  0
    0.7809   -0.1832    0.1908 N   0  0  0  0  0  0  0  0  0  0  0  0
    2.1457    0.3761    0.0766 C   0  0  0  0  0  0  0  0  0  0  0  0
    3.0911   -0.2250    1.0774 C   0  0  0  0  0  0  0  0  0  0  0  0
    3.8400    0.5342    1.7494 O   0  0  0  0  0  0  0  0  0  0  0  0
    3.1782   -1.6518    1.2204 N   0  0  0  0  0  0  0  0  0  0  0  0
    4.2656   -2.3058    1.9436 C   0  0  0  0  0  0  0  0  0  0  0  0
    5.3687   -2.7594    0.9825 C   0  0  0  0  0  0  0  0  0  0  0  0
    5.9510   -1.5988    0.2199 C   0  0  0  0  0  0  0  0  0  0  0  0
    6.9762   -0.8216    0.7828 C   0  0  0  0  0  0  0  0  0  0  0  0
    7.4528    0.3078    0.1116 C   0  0  0  0  0  0  0  0  0  0  0  0
    6.8991    0.6784   -1.1161 C   0  0  0  0  0  0  0  0  0  0  0  0
    7.3492    1.7879   -1.7525 F   0  0  0  0  0  0  0  0  0  0  0  0
    5.8751   -0.0888   -1.6821 C   0  0  0  0  0  0  0  0  0  0  0  0
    5.4055   -1.2262   -1.0167 C   0  0  0  0  0  0  0  0  0  0  0  0
    0.1488    0.0411    1.5234 C   0  0  0  0  0  0  0  0  0  0  0  0
   -0.2595    1.4790    1.8039 C   0  0  0  0  0  0  0  0  0  0  0  0
    0.6908    2.4041    2.2664 C   0  0  0  0  0  0  0  0  0  0  0  0
    0.3212    3.7229    2.5304 C   0  0  0  0  0  0  0  0  0  0  0  0
   -1.0053    4.1087    2.3455 C   0  0  0  0  0  0  0  0  0  0  0  0
   -1.9257    3.2022    1.9262 N   0  0  0  0  0  0  0  0  0  0  0  0
   -1.5988    1.9044    1.6709 C   0  0  0  0  0  0  0  0  0  0  0  0
   -2.5714    0.9898    1.2473 O   0  0  0  0  0  0  0  0  0  0  0  0
   -3.9672    1.1226    1.3521 C   0  0  0  0  0  0  0  0  0  0  0  0
   -4.5913    1.9111    2.3377 C   0  0  0  0  0  0  0  0  0  0  0  0
   -5.9890    1.9746    2.4034 C   0  0  0  0  0  0  0  0  0  0  0  0
   -6.7723    1.2669    1.4873 C   0  0  0  0  0  0  0  0  0  0  0  0
   -6.1597    0.4919    0.4974 C   0  0  0  0  0  0  0  0  0  0  0  0
   -4.7581    0.4047    0.4415 C   0  0  0  0  0  0  0  0  0  0  0  0
   -4.1191   -0.4205   -0.4834 O   0  0  0  0  0  0  0  0  0  0  0  0
   -4.4577   -0.4509   -1.8638 C   0  0  0  0  0  0  0  0  0  0  0  0
   -2.9990   -1.5736   -4.8188 H   0  0  0  0  0  0  0  0  0  0  0  0
   -4.7357   -1.4930   -4.3577 H   0  0  0  0  0  0  0  0  0  0  0  0
   -3.7733    0.0224   -4.5098 H   0  0  0  0  0  0  0  0  0  0  0  0
   -2.4283   -3.1278   -2.8885 H   0  0  0  0  0  0  0  0  0  0  0  0
   -4.2013   -3.1516   -2.5623 H   0  0  0  0  0  0  0  0  0  0  0  0
   -3.0567   -2.7708   -1.2289 H   0  0  0  0  0  0  0  0  0  0  0  0
   -1.3284   -0.5795   -3.3838 H   0  0  0  0  0  0  0  0  0  0  0  0
   -2.1631    0.6938   -2.4778 H   0  0  0  0  0  0  0  0  0  0  0  0
   -0.6618   -1.7826   -1.4393 H   0  0  0  0  0  0  0  0  0  0  0  0
   -1.7975   -0.9105   -0.3717 H   0  0  0  0  0  0  0  0  0  0  0  0
   -0.5330    1.2282   -0.7642 H   0  0  0  0  0  0  0  0  0  0  0  0
    0.5424    0.3547   -1.8793 H   0  0  0  0  0  0  0  0  0  0  0  0
    2.5643    0.1297   -0.9249 H   0  0  0  0  0  0  0  0  0  0  0  0
    2.1300    1.4861    0.1633 H   0  0  0  0  0  0  0  0  0  0  0  0
    2.5741   -2.2460    0.6119 H   0  0  0  0  0  0  0  0  0  0  0  0
    4.6911   -1.6376    2.7218 H   0  0  0  0  0  0  0  0  0  0  0  0
    3.8577   -3.1967    2.4651 H   0  0  0  0  0  0  0  0  0  0  0  0
    4.9635   -3.5221    0.2807 H   0  0  0  0  0  0  0  0  0  0  0  0
    6.1660   -3.2569    1.5769 H   0  0  0  0  0  0  0  0  0  0  0  0
    7.4036   -1.0911    1.7389 H   0  0  0  0  0  0  0  0  0  0  0  0
    8.2408    0.9075    0.5470 H   0  0  0  0  0  0  0  0  0  0  0  0
    5.4342    0.2063   -2.6326 H   0  0  0  0  0  0  0  0  0  0  0  0
    4.6017   -1.8047   -1.4527 H   0  0  0  0  0  0  0  0  0  0  0  0
    0.8307   -0.2983    2.3325 H   0  0  0  0  0  0  0  0  0  0  0  0
   -0.7264   -0.6315    1.6337 H   0  0  0  0  0  0  0  0  0  0  0  0
    1.7169    2.1026    2.4363 H   0  0  0  0  0  0  0  0  0  0  0  0
    1.0565    4.4373    2.8805 H   0  0  0  0  0  0  0  0  0  0  0  0
   -1.3069    5.1272    2.5406 H   0  0  0  0  0  0  0  0  0  0  0  0
   -4.0123    2.4435    3.0793 H   0  0  0  0  0  0  0  0  0  0  0  0
   -6.4694    2.5740    3.1671 H   0  0  0  0  0  0  0  0  0  0  0  0
   -7.8529    1.3107    1.5538 H   0  0  0  0  0  0  0  0  0  0  0  0
   -6.7704   -0.0763   -0.1875 H   0  0  0  0  0  0  0  0  0  0  0  0
   -5.4285   -0.9844   -2.0078 H   0  0  0  0  0  0  0  0  0  0  0  0
   -4.5891    0.5985   -2.2177 H   0  0  0  0  0  0  0  0  0  0  0  0
  1  2  1  0
  2  3  1  0
  2  4  1  0
  4  5  1  0
  5  6  1  0
  6  7  1  0
  7  8  1  0
  8  9  1  0
  9 10  2  0
  9 11  1  0
 11 12  1  0
 12 13  1  0
 13 14  1  0
 14 15  2  0
 15 16  1  0
 16 17  2  0
 17 18  1  0
 17 19  1  0
 19 20  2  0
  7 21  1  0
 21 22  1  0
 22 23  2  0
 23 24  1  0
 24 25  2  0
 25 26  1  0
 26 27  2  0
 27 28  1  0
 28 29  1  0
 29 30  2  0
 30 31  1  0
 31 32  2  0
 32 33  1  0
 33 34  2  0
 34 35  1  0
 35 36  1  0
 36  2  1  0
 20 14  1  0
 27 22  1  0
 34 29  1  0
  1 37  1  0
  1 38  1  0
  1 39  1  0
  3 40  1  0
  3 41  1  0
  3 42  1  0
  4 43  1  0
  4 44  1  0
  5 45  1  0
  5 46  1  0
  6 47  1  0
  6 48  1  0
  8 49  1  0
  8 50  1  0
 11 51  1  0
 12 52  1  0
 12 53  1  0
 13 54  1  0
 13 55  1  0
 15 56  1  0
 16 57  1  0
 19 58  1  0
 20 59  1  0
 21 60  1  0
 21 61  1  0
 23 62  1  0
 24 63  1  0
 25 64  1  0
 30 65  1  0
 31 66  1  0
 32 67  1  0
 33 68  1  0
 36 69  1  0
 36 70  1  0
M  END
$$$$
