
     RDKit          3D

 89 93  0  0  0  0  0  0  0  0999 V2000
    5.9540   -1.6481   -3.9595 C   0  0  0  0  0  0  0  0  0  0  0  0
    6.6554   -0.5737   -3.1284 C   0  0  0  0  0  0  0  0  0  0  0  0
    5.8720   -0.2607   -1.9210 N   0  0  0  0  0  0  0  0  0  0  0  0
    4.5662    0.3358   -2.0952 C   0  0  0  0  0  0  0  0  0  0  0  0
    4.4128    1.2279   -2.9769 O   0  0  0  0  0  0  0  0  0  0  0  0
    3.3559   -0.2043   -1.3809 C   0  0  0  0  0  0  0  0  0  0  0  0
    2.1930    0.6992   -1.5668 N   0  0  0  0  0  0  0  0  0  0  0  0
    1.0558    0.0335   -2.2250 C   0  0  0  0  0  0  0  0  0  0  0  0
    0.4050   -1.0348   -1.3222 C   0  0  0  0  0  0  0  0  0  0  0  0
    0.4757   -0.6632    0.1732 C   0  0  0  0  0  0  0  0  0  0  0  0
   -0.5482   -1.3504    0.9896 N   0  0  0  0  0  0  0  0  0  0  0  0
   -1.9903   -1.3674    0.9074 C   0  0  0  0  0  0  0  0  0  0  0  0
   -2.6140   -2.0454    1.7671 O   0  0  0  0  0  0  0  0  0  0  0  0
   -2.8129   -0.6405   -0.1411 C   0  0  0  0  0  0  0  0  0  0  0  0
   -3.3314   -1.6060   -1.2470 C   0  0  0  0  0  0  0  0  0  0  0  0
   -4.2383   -2.7074   -0.7416 C   0  0  0  0  0  0  0  0  0  0  0  0
   -3.6917   -3.9224   -0.2915 C   0  0  0  0  0  0  0  0  0  0  0  0
   -4.5283   -4.9454    0.1607 C   0  0  0  0  0  0  0  0  0  0  0  0
   -5.9157   -4.7724    0.1613 C   0  0  0  0  0  0  0  0  0  0  0  0
   -6.4680   -3.5759   -0.2919 C   0  0  0  0  0  0  0  0  0  0  0  0
   -5.6357   -2.5483   -0.7449 C   0  0  0  0  0  0  0  0  0  0  0  0
   -3.9480    0.0562    0.4790 N   0  0  0  0  0  0  0  0  0  0  0  0
   -3.8244    0.8851    1.6377 C   0  0  0  0  0  0  0  0  0  0  0  0
   -3.7882    0.3378    2.7721 O   0  0  0  0  0  0  0  0  0  0  0  0
   -3.8979    2.4015    1.5394 C   0  0  0  0  0  0  0  0  0  0  0  0
   -2.8251    3.0146    2.5004 C   0  0  0  0  0  0  0  0  0  0  0  0
   -1.4123    2.7029    2.0768 C   0  0  0  0  0  0  0  0  0  0  0  0
   -0.7908    1.5633    2.4230 C   0  0  0  0  0  0  0  0  0  0  0  0
    0.5814    1.2495    1.8969 C   0  0  0  0  0  0  0  0  0  0  0  0
    0.5438    0.8679    0.3910 C   0  0  0  0  0  0  0  0  0  0  0  0
    1.7986    1.4442   -0.3411 C   0  0  0  0  0  0  0  0  0  0  0  0
   -5.3225    2.8294    1.9811 C   0  0  0  0  0  0  0  0  0  0  0  0
   -5.6189    4.3011    1.6419 C   0  0  0  0  0  0  0  0  0  0  0  0
   -5.4402    4.5577    0.2633 O   0  0  0  0  0  0  0  0  0  0  0  0
   -4.0859    4.3629   -0.0928 C   0  0  0  0  0  0  0  0  0  0  0  0
   -3.6897    2.8881    0.0731 C   0  0  0  0  0  0  0  0  0  0  0  0
    6.4482   -0.5717   -0.5943 C   0  0  0  0  0  0  0  0  0  0  0  0
    5.9917   -1.9553   -0.0828 C   0  0  0  0  0  0  0  0  0  0  0  0
    6.1888   -2.0105    1.4278 C   0  0  0  0  0  0  0  0  0  0  0  0
    6.0258   -0.3436    1.9930 S   0  0  0  0  0  6  0  0  0  0  0  0
    7.1291    0.0220    2.9456 O   0  0  0  0  0  0  0  0  0  0  0  0
    4.6816   -0.1065    2.6211 O   0  0  0  0  0  0  0  0  0  0  0  0
    6.1802    0.5179    0.4597 C   0  0  0  0  0  0  0  0  0  0  0  0
    6.6198   -1.9710   -4.7849 H   0  0  0  0  0  0  0  0  0  0  0  0
    5.7171   -2.5274   -3.3271 H   0  0  0  0  0  0  0  0  0  0  0  0
    5.0186   -1.2471   -4.3987 H   0  0  0  0  0  0  0  0  0  0  0  0
    7.6631   -0.9527   -2.8647 H   0  0  0  0  0  0  0  0  0  0  0  0
    6.8013    0.3403   -3.7436 H   0  0  0  0  0  0  0  0  0  0  0  0
    3.5781   -0.3643   -0.3071 H   0  0  0  0  0  0  0  0  0  0  0  0
    3.1662   -1.2140   -1.8066 H   0  0  0  0  0  0  0  0  0  0  0  0
    1.3841   -0.4255   -3.1801 H   0  0  0  0  0  0  0  0  0  0  0  0
    0.2984    0.8034   -2.4898 H   0  0  0  0  0  0  0  0  0  0  0  0
    0.8993   -2.0241   -1.4774 H   0  0  0  0  0  0  0  0  0  0  0  0
   -0.6314   -1.1417   -1.6637 H   0  0  0  0  0  0  0  0  0  0  0  0
    1.4602   -1.0485    0.5303 H   0  0  0  0  0  0  0  0  0  0  0  0
   -0.1563   -1.9336    1.7609 H   0  0  0  0  0  0  0  0  0  0  0  0
   -2.1864    0.1311   -0.6279 H   0  0  0  0  0  0  0  0  0  0  0  0
   -3.8688   -1.0056   -2.0146 H   0  0  0  0  0  0  0  0  0  0  0  0
   -2.4934   -2.0858   -1.7836 H   0  0  0  0  0  0  0  0  0  0  0  0
   -2.6172   -4.0740   -0.2937 H   0  0  0  0  0  0  0  0  0  0  0  0
   -4.1040   -5.8751    0.5086 H   0  0  0  0  0  0  0  0  0  0  0  0
   -6.5600   -5.5685    0.5051 H   0  0  0  0  0  0  0  0  0  0  0  0
   -7.5441   -3.4463   -0.2984 H   0  0  0  0  0  0  0  0  0  0  0  0
   -6.0858   -1.6380   -1.1147 H   0  0  0  0  0  0  0  0  0  0  0  0
   -4.8969    0.0262    0.0298 H   0  0  0  0  0  0  0  0  0  0  0  0
   -2.9214    4.1173    2.5436 H   0  0  0  0  0  0  0  0  0  0  0  0
   -2.9879    2.6642    3.5427 H   0  0  0  0  0  0  0  0  0  0  0  0
   -0.9066    3.4140    1.4272 H   0  0  0  0  0  0  0  0  0  0  0  0
   -1.2677    0.8518    3.0923 H   0  0  0  0  0  0  0  0  0  0  0  0
    1.2204    2.1428    2.0680 H   0  0  0  0  0  0  0  0  0  0  0  0
    1.0240    0.4248    2.4931 H   0  0  0  0  0  0  0  0  0  0  0  0
   -0.3460    1.3329   -0.0869 H   0  0  0  0  0  0  0  0  0  0  0  0
    1.5715    2.4893   -0.6351 H   0  0  0  0  0  0  0  0  0  0  0  0
    2.6594    1.5272    0.3568 H   0  0  0  0  0  0  0  0  0  0  0  0
   -6.0814    2.2043    1.4577 H   0  0  0  0  0  0  0  0  0  0  0  0
   -5.4553    2.6717    3.0730 H   0  0  0  0  0  0  0  0  0  0  0  0
   -5.0108    4.9918    2.2643 H   0  0  0  0  0  0  0  0  0  0  0  0
   -6.6784    4.5116    1.8934 H   0  0  0  0  0  0  0  0  0  0  0  0
   -3.9698    4.6347   -1.1623 H   0  0  0  0  0  0  0  0  0  0  0  0
   -3.4129    5.0381    0.4799 H   0  0  0  0  0  0  0  0  0  0  0  0
   -2.6421    2.7378   -0.2593 H   0  0  0  0  0  0  0  0  0  0  0  0
   -4.3348    2.3061   -0.6212 H   0  0  0  0  0  0  0  0  0  0  0  0
    7.5569   -0.6337   -0.6765 H   0  0  0  0  0  0  0  0  0  0  0  0
    4.9283   -2.1467   -0.3179 H   0  0  0  0  0  0  0  0  0  0  0  0
    6.5754   -2.7613   -0.5756 H   0  0  0  0  0  0  0  0  0  0  0  0
    5.4302   -2.6639    1.9061 H   0  0  0  0  0  0  0  0  0  0  0  0
    7.2100   -2.3809    1.6620 H   0  0  0  0  0  0  0  0  0  0  0  0
    5.2518    1.0901    0.2787 H   0  0  0  0  0  0  0  0  0  0  0  0
    7.0281    1.2335    0.5006 H   0  0  0  0  0  0  0  0  0  0  0  0
  1  2  1  0
  2  3  1  0
  3  4  1  0
  4  5  2  0
  4  6  1  0
  6  7  1  0
  7  8  1  0
  8  9  1  0
  9 10  1  0
 10 11  1  0
 11 12  1  0
 12 13  2  0
 12 14  1  0
 14 15  1  0
 15 16  1  0
 16 17  2  0
 17 18  1  0
 18 19  2  0
 19 20  1  0
 20 21  2  0
 14 22  1  0
 22 23  1  0
 23 24  2  0
 23 25  1  0
 25 26  1  0
 26 27  1  0
 27 28  2  0
 28 29  1  0
 29 30  1  0
 30 31  1  0
 25 32  1  0
 32 33  1  0
 33 34  1  0
 34 35  1  0
 35 36  1  0
  3 37  1  0
 37 38  1  0
 38 39  1  0
 39 40  1  0
 40 41  2  0
 40 42  2  0
 40 43  1  0
 31  7  1  0
 43 37  1  0
 30 10  1  0
 21 16  1  0
 36 25  1  0
  1 44  1  0
  1 45  1  0
  1 46  1  0
  2 47  1  0
  2 48  1  0
  6 49  1  0
  6 50  1  0
  8 51  1  0
  8 52  1  0
  9 53  1  0
  9 54  1  0
 10 55  1  0
 11 56  1  0
 14 57  1  0
 15 58  1  0
 15 59  1  0
 17 60  1  0
 18 61  1  0
 19 62  1  0
 20 63  1  0
 21 64  1  0
 22 65  1  0
 26 66  1  0
 26 67  1  0
 27 68  1  0
 28 69  1  0
 29 70  1  0
 29 71  1  0
 30 72  1  0
 31 73  1  0
 31 74  1  0
 32 75  1  0
 32 76  1  0
 33 77  1  0
 33 78  1  0
 35 79  1  0
 35 80  1  0
 36 81  1  0
 36 82  1  0
 37 83  1  0
 38 84  1  0
 38 85  1  0
 39 86  1  0
 39 87  1  0
 43 88  1  0
 43 89  1  0
M  END
$$$$
