
     RDKit          3D

 60 63  0  0  0  0  0  0  0  0999 V2000
   -6.3919   -2.6764    0.9656 C   0  0  0  0  0  0  0  0  0  0  0  0
   -6.4199   -1.5411   -0.0061 C   0  0  0  0  0  0  0  0  0  0  0  0
   -7.4233   -1.2917   -0.8087 O   0  0  0  0  0  0  0  0  0  0  0  0
   -7.1033   -0.2268   -1.5090 C   0  0  0  0  0  0  0  0  0  0  0  0
   -5.8856    0.2572   -1.1871 N   0  0  0  0  0  0  0  0  0  0  0  0
   -5.4438   -0.5835   -0.2306 C   0  0  0  0  0  0  0  0  0  0  0  0
   -4.1405   -0.4537    0.4700 C   0  0  0  0  0  0  0  0  0  0  0  0
   -3.9408   -1.1543    1.4992 O   0  0  0  0  0  0  0  0  0  0  0  0
   -3.1008    0.4445    0.0153 N   0  0  0  0  0  0  0  0  0  0  0  0
   -3.0703    0.9657   -1.3558 C   0  0  0  0  0  0  0  0  0  0  0  0
   -1.6853    1.5338   -1.6758 C   0  0  0  0  0  0  0  0  0  0  0  0
   -0.6869    0.6336   -1.2390 O   0  0  0  0  0  0  0  0  0  0  0  0
   -0.6211    0.5051    0.1847 C   0  0  0  0  0  0  0  0  0  0  0  0
   -0.2363   -0.9684    0.5000 C   0  0  0  0  0  0  0  0  0  0  0  0
    0.9788   -1.4898   -0.3054 C   0  0  0  0  0  0  0  0  0  0  0  0
    1.8728   -2.4378    0.5130 C   0  0  0  0  0  0  0  0  0  0  0  0
    2.7450   -1.7043    1.5533 C   0  0  0  0  0  0  0  0  0  0  0  0
    4.1137   -1.3436    1.0183 C   0  0  0  0  0  0  0  0  0  0  0  0
    5.1624   -2.2703    1.1476 C   0  0  0  0  0  0  0  0  0  0  0  0
    6.4437   -1.9617    0.6874 C   0  0  0  0  0  0  0  0  0  0  0  0
    6.6945   -0.7250    0.0936 C   0  0  0  0  0  0  0  0  0  0  0  0
    5.6611    0.2006   -0.0591 C   0  0  0  0  0  0  0  0  0  0  0  0
    4.3569   -0.1045    0.3819 C   0  0  0  0  0  0  0  0  0  0  0  0
    3.2891    0.7861    0.1930 O   0  0  0  0  0  0  0  0  0  0  0  0
    3.3157    1.9390   -0.6459 C   0  0  0  0  0  0  0  0  0  0  0  0
    1.9016    2.2703   -1.1274 C   0  0  0  0  0  0  0  0  0  0  0  0
    0.9906    2.5304   -0.0045 N   0  0  0  0  0  0  0  0  0  0  0  0
    0.9717    3.8679    0.5852 C   0  0  0  0  0  0  0  0  0  0  0  0
    0.4348    1.4435    0.7599 C   0  0  0  0  0  0  0  0  0  0  0  0
    0.7385    1.3445    1.9804 O   0  0  0  0  0  0  0  0  0  0  0  0
   -1.9826    0.8098    0.8946 C   0  0  0  0  0  0  0  0  0  0  0  0
   -6.3753   -2.2829    2.0030 H   0  0  0  0  0  0  0  0  0  0  0  0
   -5.4935   -3.3041    0.7866 H   0  0  0  0  0  0  0  0  0  0  0  0
   -7.2971   -3.3059    0.8371 H   0  0  0  0  0  0  0  0  0  0  0  0
   -7.7443    0.2154   -2.2598 H   0  0  0  0  0  0  0  0  0  0  0  0
   -3.2848    0.1415   -2.0705 H   0  0  0  0  0  0  0  0  0  0  0  0
   -3.8278    1.7687   -1.4738 H   0  0  0  0  0  0  0  0  0  0  0  0
   -1.5493    2.5363   -1.2107 H   0  0  0  0  0  0  0  0  0  0  0  0
   -1.5911    1.6682   -2.7740 H   0  0  0  0  0  0  0  0  0  0  0  0
   -0.0648   -1.0819    1.5927 H   0  0  0  0  0  0  0  0  0  0  0  0
   -1.1023   -1.6262    0.2653 H   0  0  0  0  0  0  0  0  0  0  0  0
    0.5986   -2.0445   -1.1913 H   0  0  0  0  0  0  0  0  0  0  0  0
    1.5903   -0.6668   -0.7092 H   0  0  0  0  0  0  0  0  0  0  0  0
    1.2239   -3.1764    1.0329 H   0  0  0  0  0  0  0  0  0  0  0  0
    2.5198   -3.0205   -0.1791 H   0  0  0  0  0  0  0  0  0  0  0  0
    2.2374   -0.8004    1.9438 H   0  0  0  0  0  0  0  0  0  0  0  0
    2.8715   -2.3720    2.4334 H   0  0  0  0  0  0  0  0  0  0  0  0
    4.9882   -3.2332    1.6120 H   0  0  0  0  0  0  0  0  0  0  0  0
    7.2454   -2.6788    0.7985 H   0  0  0  0  0  0  0  0  0  0  0  0
    7.6917   -0.4847   -0.2517 H   0  0  0  0  0  0  0  0  0  0  0  0
    5.8888    1.1541   -0.5155 H   0  0  0  0  0  0  0  0  0  0  0  0
    3.7501    2.7958   -0.0907 H   0  0  0  0  0  0  0  0  0  0  0  0
    3.9320    1.7460   -1.5506 H   0  0  0  0  0  0  0  0  0  0  0  0
    1.5307    1.4366   -1.7546 H   0  0  0  0  0  0  0  0  0  0  0  0
    1.9455    3.1600   -1.7925 H   0  0  0  0  0  0  0  0  0  0  0  0
    1.8496    3.9983    1.2505 H   0  0  0  0  0  0  0  0  0  0  0  0
    0.0420    4.0144    1.1752 H   0  0  0  0  0  0  0  0  0  0  0  0
    0.9952    4.6436   -0.2094 H   0  0  0  0  0  0  0  0  0  0  0  0
   -2.0660    1.8975    1.1141 H   0  0  0  0  0  0  0  0  0  0  0  0
   -2.0428    0.3026    1.8817 H   0  0  0  0  0  0  0  0  0  0  0  0
  1  2  1  0
  2  3  1  0
  3  4  1  0
  4  5  2  0
  5  6  1  0
  6  7  1  0
  7  8  2  0
  7  9  1  0
  9 10  1  0
 10 11  1  0
 11 12  1  0
 12 13  1  0
 13 14  1  0
 14 15  1  0
 15 16  1  0
 16 17  1  0
 17 18  1  0
 18 19  2  0
 19 20  1  0
 20 21  2  0
 21 22  1  0
 22 23  2  0
 23 24  1  0
 24 25  1  0
 25 26  1  0
 26 27  1  0
 27 28  1  0
 27 29  1  0
 29 30  2  0
 13 31  1  0
  6  2  2  0
 31  9  1  0
 29 13  1  0
 23 18  1  0
  1 32  1  0
  1 33  1  0
  1 34  1  0
  4 35  1  0
 10 36  1  0
 10 37  1  0
 11 38  1  0
 11 39  1  0
 14 40  1  0
 14 41  1  0
 15 42  1  0
 15 43  1  0
 16 44  1  0
 16 45  1  0
 17 46  1  0
 17 47  1  0
 19 48  1  0
 20 49  1  0
 21 50  1  0
 22 51  1  0
 25 52  1  0
 25 53  1  0
 26 54  1  0
 26 55  1  0
 28 56  1  0
 28 57  1  0
 28 58  1  0
 31 59  1  0
 31 60  1  0
M  END
$$$$
