
     RDKit          3D

 76 79  0  0  0  0  0  0  0  0999 V2000
   -4.2837    2.2891   -2.6316 C   0  0  0  0  0  0  0  0  0  0  0  0
   -3.5421    2.4439   -1.2834 C   0  0  0  0  0  0  0  0  0  0  0  0
   -4.1156    3.6727   -0.5492 C   0  0  0  0  0  0  0  0  0  0  0  0
   -2.0205    2.6301   -1.5962 C   0  0  0  0  0  0  0  0  0  0  0  0
   -1.0363    2.7955   -0.4076 C   0  0  0  0  0  0  0  0  0  0  0  0
   -0.6541    1.5239    0.3902 C   0  0  0  0  0  0  0  0  0  0  0  0
   -0.3729    0.3468   -0.4685 N   0  0  0  0  0  0  0  0  0  0  0  0
    0.8483    0.4792   -1.3082 C   0  0  0  0  0  0  0  0  0  0  0  0
    2.0544    1.0863   -0.6214 C   0  0  0  0  0  0  0  0  0  0  0  0
    2.6453    2.0481   -1.1825 O   0  0  0  0  0  0  0  0  0  0  0  0
    2.5629    0.5619    0.6150 N   0  0  0  0  0  0  0  0  0  0  0  0
    3.9667    0.6995    1.0146 C   0  0  0  0  0  0  0  0  0  0  0  0
    4.7890   -0.5891    0.7207 C   0  0  0  0  0  0  0  0  0  0  0  0
    4.1460   -1.7863    1.4748 C   0  0  0  0  0  0  0  0  0  0  0  0
    4.7353   -0.9356   -0.7893 C   0  0  0  0  0  0  0  0  0  0  0  0
    6.2603   -0.3439    1.1524 C   0  0  0  0  0  0  0  0  0  0  0  0
    6.8349   -1.0101    2.2645 C   0  0  0  0  0  0  0  0  0  0  0  0
    8.1607   -0.7832    2.6376 C   0  0  0  0  0  0  0  0  0  0  0  0
    8.9442    0.1178    1.9278 C   0  0  0  0  0  0  0  0  0  0  0  0
    8.4017    0.8065    0.8478 C   0  0  0  0  0  0  0  0  0  0  0  0
    7.0752    0.5947    0.4647 C   0  0  0  0  0  0  0  0  0  0  0  0
    6.5976    1.3296   -0.5695 F   0  0  0  0  0  0  0  0  0  0  0  0
   -0.4504   -0.9484    0.2587 C   0  0  0  0  0  0  0  0  0  0  0  0
   -1.3556   -1.9167   -0.4694 C   0  0  0  0  0  0  0  0  0  0  0  0
   -0.8298   -2.7036   -1.5084 C   0  0  0  0  0  0  0  0  0  0  0  0
   -1.6477   -3.5928   -2.2047 C   0  0  0  0  0  0  0  0  0  0  0  0
   -2.9908   -3.7020   -1.8563 C   0  0  0  0  0  0  0  0  0  0  0  0
   -3.4925   -2.9438   -0.8518 N   0  0  0  0  0  0  0  0  0  0  0  0
   -2.7262   -2.0547   -0.1539 C   0  0  0  0  0  0  0  0  0  0  0  0
   -3.3145   -1.2642    0.8431 O   0  0  0  0  0  0  0  0  0  0  0  0
   -4.6981   -1.2571    1.0593 C   0  0  0  0  0  0  0  0  0  0  0  0
   -5.2437   -2.2191    1.9229 C   0  0  0  0  0  0  0  0  0  0  0  0
   -6.6247   -2.3160    2.0890 C   0  0  0  0  0  0  0  0  0  0  0  0
   -7.4697   -1.4557    1.3891 C   0  0  0  0  0  0  0  0  0  0  0  0
   -6.9387   -0.4777    0.5408 C   0  0  0  0  0  0  0  0  0  0  0  0
   -5.5559   -0.3411    0.3890 C   0  0  0  0  0  0  0  0  0  0  0  0
   -5.0953    0.7122   -0.4253 O   0  0  0  0  0  0  0  0  0  0  0  0
   -3.7471    1.1729   -0.4391 C   0  0  0  0  0  0  0  0  0  0  0  0
   -3.9606    1.3589   -3.1475 H   0  0  0  0  0  0  0  0  0  0  0  0
   -4.0682    3.1453   -3.3048 H   0  0  0  0  0  0  0  0  0  0  0  0
   -5.3826    2.2405   -2.4824 H   0  0  0  0  0  0  0  0  0  0  0  0
   -5.2125    3.5606   -0.4038 H   0  0  0  0  0  0  0  0  0  0  0  0
   -3.9346    4.5957   -1.1422 H   0  0  0  0  0  0  0  0  0  0  0  0
   -3.6518    3.8016    0.4542 H   0  0  0  0  0  0  0  0  0  0  0  0
   -1.6725    1.7978   -2.2453 H   0  0  0  0  0  0  0  0  0  0  0  0
   -1.9198    3.5462   -2.2172 H   0  0  0  0  0  0  0  0  0  0  0  0
   -0.0922    3.2111   -0.8232 H   0  0  0  0  0  0  0  0  0  0  0  0
   -1.4149    3.5621    0.2977 H   0  0  0  0  0  0  0  0  0  0  0  0
   -1.4471    1.2975    1.1188 H   0  0  0  0  0  0  0  0  0  0  0  0
    0.2132    1.7584    1.0347 H   0  0  0  0  0  0  0  0  0  0  0  0
    0.5954    1.1087   -2.1880 H   0  0  0  0  0  0  0  0  0  0  0  0
    1.1509   -0.5032   -1.7351 H   0  0  0  0  0  0  0  0  0  0  0  0
    1.9442    0.0014    1.2353 H   0  0  0  0  0  0  0  0  0  0  0  0
    4.4187    1.5788    0.5105 H   0  0  0  0  0  0  0  0  0  0  0  0
    4.0010    0.9165    2.1039 H   0  0  0  0  0  0  0  0  0  0  0  0
    3.1265   -2.0151    1.0840 H   0  0  0  0  0  0  0  0  0  0  0  0
    4.7584   -2.7075    1.3504 H   0  0  0  0  0  0  0  0  0  0  0  0
    4.0338   -1.5643    2.5576 H   0  0  0  0  0  0  0  0  0  0  0  0
    5.4907   -1.7121   -1.0343 H   0  0  0  0  0  0  0  0  0  0  0  0
    3.7346   -1.3290   -1.0732 H   0  0  0  0  0  0  0  0  0  0  0  0
    4.9091   -0.0489   -1.4309 H   0  0  0  0  0  0  0  0  0  0  0  0
    6.2784   -1.7184    2.8569 H   0  0  0  0  0  0  0  0  0  0  0  0
    8.5803   -1.3176    3.4798 H   0  0  0  0  0  0  0  0  0  0  0  0
    9.9727    0.2913    2.2202 H   0  0  0  0  0  0  0  0  0  0  0  0
    9.0115    1.5182    0.3101 H   0  0  0  0  0  0  0  0  0  0  0  0
   -0.8064   -0.8279    1.3071 H   0  0  0  0  0  0  0  0  0  0  0  0
    0.5490   -1.4290    0.3497 H   0  0  0  0  0  0  0  0  0  0  0  0
    0.2170   -2.6417   -1.7771 H   0  0  0  0  0  0  0  0  0  0  0  0
   -1.2438   -4.2008   -3.0029 H   0  0  0  0  0  0  0  0  0  0  0  0
   -3.6363   -4.3863   -2.3889 H   0  0  0  0  0  0  0  0  0  0  0  0
   -4.5925   -2.9068    2.4469 H   0  0  0  0  0  0  0  0  0  0  0  0
   -7.0407   -3.0692    2.7481 H   0  0  0  0  0  0  0  0  0  0  0  0
   -8.5409   -1.5422    1.5082 H   0  0  0  0  0  0  0  0  0  0  0  0
   -7.6067    0.1958    0.0192 H   0  0  0  0  0  0  0  0  0  0  0  0
   -3.1109    0.3870   -0.8837 H   0  0  0  0  0  0  0  0  0  0  0  0
   -3.4672    1.3765    0.6139 H   0  0  0  0  0  0  0  0  0  0  0  0
  1  2  1  0
  2  3  1  0
  2  4  1  0
  4  5  1  0
  5  6  1  0
  6  7  1  0
  7  8  1  0
  8  9  1  0
  9 10  2  0
  9 11  1  0
 11 12  1  0
 12 13  1  0
 13 14  1  0
 13 15  1  0
 13 16  1  0
 16 17  2  0
 17 18  1  0
 18 19  2  0
 19 20  1  0
 20 21  2  0
 21 22  1  0
  7 23  1  0
 23 24  1  0
 24 25  2  0
 25 26  1  0
 26 27  2  0
 27 28  1  0
 28 29  2  0
 29 30  1  0
 30 31  1  0
 31 32  2  0
 32 33  1  0
 33 34  2  0
 34 35  1  0
 35 36  2  0
 36 37  1  0
 37 38  1  0
 38  2  1  0
 21 16  1  0
 29 24  1  0
 36 31  1  0
  1 39  1  0
  1 40  1  0
  1 41  1  0
  3 42  1  0
  3 43  1  0
  3 44  1  0
  4 45  1  0
  4 46  1  0
  5 47  1  0
  5 48  1  0
  6 49  1  0
  6 50  1  0
  8 51  1  0
  8 52  1  0
 11 53  1  0
 12 54  1  0
 12 55  1  0
 14 56  1  0
 14 57  1  0
 14 58  1  0
 15 59  1  0
 15 60  1  0
 15 61  1  0
 17 62  1  0
 18 63  1  0
 19 64  1  0
 20 65  1  0
 23 66  1  0
 23 67  1  0
 25 68  1  0
 26 69  1  0
 27 70  1  0
 32 71  1  0
 33 72  1  0
 34 73  1  0
 35 74  1  0
 38 75  1  0
 38 76  1  0
M  END
$$$$
