
     RDKit          3D

 65 66  0  0  0  0  0  0  0  0999 V2000
   -2.9406   -2.3989    0.9801 C   0  0  0  0  0  0  0  0  0  0  0  0
   -2.1455   -1.3496    0.4718 O   0  0  0  0  0  0  0  0  0  0  0  0
   -2.1372   -1.3491   -0.9492 C   0  0  2  0  0  0  0  0  0  0  0  0
   -0.6963   -1.5763   -1.4552 C   0  0  0  0  0  0  0  0  0  0  0  0
   -0.0546   -2.6572   -0.6984 N   0  0  0  0  0  0  0  0  0  0  0  0
   -0.1878   -4.0411   -1.1522 C   0  0  0  0  0  0  0  0  0  0  0  0
    0.7291   -2.3644    0.4677 C   0  0  0  0  0  0  0  0  0  0  0  0
    0.4255   -2.8803    1.5760 O   0  0  0  0  0  0  0  0  0  0  0  0
    1.9502   -1.5573    0.3565 C   0  0  0  0  0  0  0  0  0  0  0  0
    3.1581   -2.2102    0.0848 C   0  0  0  0  0  0  0  0  0  0  0  0
    4.3373   -1.4832   -0.0747 C   0  0  0  0  0  0  0  0  0  0  0  0
    4.3267   -0.0819    0.0236 C   0  0  0  0  0  0  0  0  0  0  0  0
    5.5219    0.7055   -0.1388 N   0  0  0  0  0  0  0  0  0  0  0  0
    7.0618    0.0735   -0.6332 S   0  0  0  0  0  6  0  0  0  0  0  0
    6.9677   -0.5491   -2.2987 C   0  0  0  0  0  0  0  0  0  0  0  0
    8.0748    1.1827   -0.5947 O   0  0  0  0  0  0  0  0  0  0  0  0
    7.5008   -1.0111    0.3100 O   0  0  0  0  0  0  0  0  0  0  0  0
    3.1140    0.5702    0.2980 C   0  0  0  0  0  0  0  0  0  0  0  0
    1.9176   -0.1561    0.4749 C   0  0  0  0  0  0  0  0  0  0  0  0
    0.6965    0.4857    0.7578 O   0  0  0  0  0  0  0  0  0  0  0  0
    0.4846    1.8872    0.5892 C   0  0  0  0  0  0  0  0  0  0  0  0
   -0.9480    2.2977    0.9856 C   0  0  1  0  0  0  0  0  0  0  0  0
   -1.2113    3.7532    0.5474 C   0  0  0  0  0  0  0  0  0  0  0  0
   -1.9823    1.3348    0.5095 N   0  0  0  0  0  0  0  0  0  0  0  0
   -3.5405    1.6228    1.2866 S   0  0  0  0  0  6  0  0  0  0  0  0
   -4.2689    2.7411    0.5935 O   0  0  0  0  0  0  0  0  0  0  0  0
   -4.3810    0.3817    1.1988 O   0  0  0  0  0  0  0  0  0  0  0  0
   -3.3628    2.0350    3.0261 C   0  0  0  0  0  0  0  0  0  0  0  0
   -4.7031    2.0371    3.7630 C   0  0  0  0  0  0  0  0  0  0  0  0
   -4.5027    2.4456    5.0689 F   0  0  0  0  0  0  0  0  0  0  0  0
   -5.5868    2.9103    3.1545 F   0  0  0  0  0  0  0  0  0  0  0  0
   -5.2487    0.7661    3.7758 F   0  0  0  0  0  0  0  0  0  0  0  0
   -2.1196    1.2816   -0.9675 C   0  0  0  0  0  0  0  0  0  0  0  0
   -2.7829   -0.0304   -1.4748 C   0  0  1  0  0  0  0  0  0  0  0  0
   -2.8600   -0.0152   -3.0104 C   0  0  0  0  0  0  0  0  0  0  0  0
   -2.5231   -3.3883    0.6928 H   0  0  0  0  0  0  0  0  0  0  0  0
   -2.9405   -2.3387    2.0876 H   0  0  0  0  0  0  0  0  0  0  0  0
   -3.9938   -2.3067    0.6336 H   0  0  0  0  0  0  0  0  0  0  0  0
   -2.7425   -2.1859   -1.3809 H   0  0  0  0  0  0  0  0  0  0  0  0
   -0.0929   -0.6525   -1.3831 H   0  0  0  0  0  0  0  0  0  0  0  0
   -0.7217   -1.8484   -2.5328 H   0  0  0  0  0  0  0  0  0  0  0  0
   -1.2378   -4.2478   -1.4490 H   0  0  0  0  0  0  0  0  0  0  0  0
    0.4768   -4.2086   -2.0256 H   0  0  0  0  0  0  0  0  0  0  0  0
    0.0922   -4.7529   -0.3466 H   0  0  0  0  0  0  0  0  0  0  0  0
    3.1856   -3.2895   -0.0101 H   0  0  0  0  0  0  0  0  0  0  0  0
    5.2470   -2.0285   -0.2727 H   0  0  0  0  0  0  0  0  0  0  0  0
    5.4659    1.7395   -0.0024 H   0  0  0  0  0  0  0  0  0  0  0  0
    6.2598   -1.4003   -2.3507 H   0  0  0  0  0  0  0  0  0  0  0  0
    6.6178    0.2574   -2.9757 H   0  0  0  0  0  0  0  0  0  0  0  0
    7.9724   -0.8901   -2.6231 H   0  0  0  0  0  0  0  0  0  0  0  0
    3.1175    1.6480    0.3745 H   0  0  0  0  0  0  0  0  0  0  0  0
    1.1901    2.4467    1.2420 H   0  0  0  0  0  0  0  0  0  0  0  0
    0.7031    2.1684   -0.4636 H   0  0  0  0  0  0  0  0  0  0  0  0
   -0.9391    2.2821    2.0947 H   0  0  0  0  0  0  0  0  0  0  0  0
   -1.2061    3.8497   -0.5579 H   0  0  0  0  0  0  0  0  0  0  0  0
   -0.4186    4.4176    0.9534 H   0  0  0  0  0  0  0  0  0  0  0  0
   -2.1772    4.1240    0.9416 H   0  0  0  0  0  0  0  0  0  0  0  0
   -2.9077    3.0435    3.1168 H   0  0  0  0  0  0  0  0  0  0  0  0
   -2.6856    1.2952    3.5032 H   0  0  0  0  0  0  0  0  0  0  0  0
   -1.1317    1.3718   -1.4591 H   0  0  0  0  0  0  0  0  0  0  0  0
   -2.7157    2.1480   -1.3286 H   0  0  0  0  0  0  0  0  0  0  0  0
   -3.8380   -0.0318   -1.1341 H   0  0  0  0  0  0  0  0  0  0  0  0
   -3.3512   -0.9397   -3.3832 H   0  0  0  0  0  0  0  0  0  0  0  0
   -1.8481    0.0643   -3.4612 H   0  0  0  0  0  0  0  0  0  0  0  0
   -3.4630    0.8530   -3.3521 H   0  0  0  0  0  0  0  0  0  0  0  0
  1  2  1  0
  2  3  1  0
  3  4  1  0
  4  5  1  0
  5  6  1  0
  5  7  1  0
  7  8  2  0
  7  9  1  0
  9 10  2  0
 10 11  1  0
 11 12  2  0
 12 13  1  0
 13 14  1  0
 14 15  1  0
 14 16  2  0
 14 17  2  0
 12 18  1  0
 18 19  2  0
 19 20  1  0
 20 21  1  0
 21 22  1  0
 22 23  1  0
 22 24  1  0
 24 25  1  0
 25 26  2  0
 25 27  2  0
 25 28  1  0
 28 29  1  0
 29 30  1  0
 29 31  1  0
 29 32  1  0
 24 33  1  0
 33 34  1  0
 34 35  1  0
 34  3  1  0
 19  9  1  0
  1 36  1  0
  1 37  1  0
  1 38  1  0
  3 39  1  6
  4 40  1  0
  4 41  1  0
  6 42  1  0
  6 43  1  0
  6 44  1  0
 10 45  1  0
 11 46  1  0
 13 47  1  0
 15 48  1  0
 15 49  1  0
 15 50  1  0
 18 51  1  0
 21 52  1  0
 21 53  1  0
 22 54  1  1
 23 55  1  0
 23 56  1  0
 23 57  1  0
 28 58  1  0
 28 59  1  0
 33 60  1  0
 33 61  1  0
 34 62  1  1
 35 63  1  0
 35 64  1  0
 35 65  1  0
M  END
$$$$
