
     RDKit          3D

 78 82  0  0  0  0  0  0  0  0999 V2000
   -3.5794    4.7276   -0.8633 C   0  0  0  0  0  0  0  0  0  0  0  0
   -3.2738    3.6089   -1.8703 C   0  0  0  0  0  0  0  0  0  0  0  0
   -4.0714    3.8386   -3.1603 C   0  0  0  0  0  0  0  0  0  0  0  0
   -3.5945    2.2084   -1.2961 C   0  0  0  0  0  0  0  0  0  0  0  0
   -2.7193    1.8151   -0.0855 C   0  0  0  0  0  0  0  0  0  0  0  0
   -3.0061    0.3903    0.3791 C   0  0  0  0  0  0  0  0  0  0  0  0
   -4.3283    0.1484    0.8456 O   0  0  0  0  0  0  0  0  0  0  0  0
   -4.7974   -1.0670    1.4146 C   0  0  0  0  0  0  0  0  0  0  0  0
   -6.0249   -0.9717    2.0845 C   0  0  0  0  0  0  0  0  0  0  0  0
   -6.6009   -2.0779    2.7051 C   0  0  0  0  0  0  0  0  0  0  0  0
   -5.9648   -3.3135    2.6606 C   0  0  0  0  0  0  0  0  0  0  0  0
   -4.7509   -3.4546    1.9902 C   0  0  0  0  0  0  0  0  0  0  0  0
   -4.1356   -2.3531    1.3587 C   0  0  0  0  0  0  0  0  0  0  0  0
   -2.8555   -2.5701    0.5686 C   0  0  0  0  0  0  0  0  0  0  0  0
   -2.0321   -3.8535    0.7466 C   0  0  0  0  0  0  0  0  0  0  0  0
   -0.7189   -3.8187   -0.0912 C   0  0  0  0  0  0  0  0  0  0  0  0
    0.1751   -2.5584    0.1191 C   0  0  0  0  0  0  0  0  0  0  0  0
   -0.0606   -1.4756   -0.9756 C   0  0  0  0  0  0  0  0  0  0  0  0
    0.4987    0.0046   -0.7739 C   0  0  0  0  0  0  0  0  0  0  0  0
    1.7545    0.2265   -1.6982 C   0  0  0  0  0  0  0  0  0  0  0  0
    3.0855    0.0580   -0.9587 C   0  0  0  0  0  0  0  0  0  0  0  0
    3.1628    1.0345    0.1393 N   0  0  0  0  0  0  0  0  0  0  0  0
    4.3910    1.7297    0.4214 C   0  0  0  0  0  0  0  0  0  0  0  0
    4.3519    2.9513    0.7333 O   0  0  0  0  0  0  0  0  0  0  0  0
    5.6998    1.0410    0.3667 C   0  0  0  0  0  0  0  0  0  0  0  0
    6.8696    1.7647    0.0072 C   0  0  0  0  0  0  0  0  0  0  0  0
    8.1257    1.1311   -0.0251 C   0  0  0  0  0  0  0  0  0  0  0  0
    8.1755   -0.2172    0.3152 C   0  0  0  0  0  0  0  0  0  0  0  0
    9.2438   -1.0203    0.3819 N   0  0  0  0  0  0  0  0  0  0  0  0
    8.7360   -2.2072    0.7923 C   0  0  0  0  0  0  0  0  0  0  0  0
    7.3904   -2.1840    0.9859 N   0  0  0  0  0  0  0  0  0  0  0  0
    7.0654   -0.9166    0.6750 C   0  0  0  0  0  0  0  0  0  0  0  0
    5.8056   -0.3257    0.7181 C   0  0  0  0  0  0  0  0  0  0  0  0
    1.9339    1.4251    0.8431 C   0  0  0  0  0  0  0  0  0  0  0  0
    0.8838    0.3120    0.7194 C   0  0  0  0  0  0  0  0  0  0  0  0
   -0.5980    0.9769   -1.2670 C   0  0  0  0  0  0  0  0  0  0  0  0
   -0.9551    0.9143   -2.4747 O   0  0  0  0  0  0  0  0  0  0  0  0
   -1.2786    1.9100   -0.3965 N   0  0  0  0  0  0  0  0  0  0  0  0
   -2.8923    4.6694    0.0055 H   0  0  0  0  0  0  0  0  0  0  0  0
   -4.6289    4.6580   -0.5043 H   0  0  0  0  0  0  0  0  0  0  0  0
   -3.4293    5.7222   -1.3352 H   0  0  0  0  0  0  0  0  0  0  0  0
   -2.1944    3.6592   -2.1339 H   0  0  0  0  0  0  0  0  0  0  0  0
   -3.8168    4.8264   -3.6008 H   0  0  0  0  0  0  0  0  0  0  0  0
   -5.1637    3.8082   -2.9564 H   0  0  0  0  0  0  0  0  0  0  0  0
   -3.8240    3.0567   -3.9098 H   0  0  0  0  0  0  0  0  0  0  0  0
   -3.4648    1.4504   -2.0986 H   0  0  0  0  0  0  0  0  0  0  0  0
   -4.6642    2.1744   -0.9924 H   0  0  0  0  0  0  0  0  0  0  0  0
   -2.9525    2.4937    0.7637 H   0  0  0  0  0  0  0  0  0  0  0  0
   -2.3073    0.2123    1.2220 H   0  0  0  0  0  0  0  0  0  0  0  0
   -2.8334   -0.2513   -0.4977 H   0  0  0  0  0  0  0  0  0  0  0  0
   -6.5367   -0.0182    2.1322 H   0  0  0  0  0  0  0  0  0  0  0  0
   -7.5463   -1.9760    3.2222 H   0  0  0  0  0  0  0  0  0  0  0  0
   -6.4196   -4.1709    3.1405 H   0  0  0  0  0  0  0  0  0  0  0  0
   -4.3033   -4.4380    1.9684 H   0  0  0  0  0  0  0  0  0  0  0  0
   -3.0915   -2.4540   -0.5104 H   0  0  0  0  0  0  0  0  0  0  0  0
   -2.1619   -1.8209    0.9381 H   0  0  0  0  0  0  0  0  0  0  0  0
   -2.6290   -4.7295    0.4145 H   0  0  0  0  0  0  0  0  0  0  0  0
   -1.7776   -3.9870    1.8212 H   0  0  0  0  0  0  0  0  0  0  0  0
   -0.9681   -3.9379   -1.1686 H   0  0  0  0  0  0  0  0  0  0  0  0
   -0.1253   -4.7156    0.1903 H   0  0  0  0  0  0  0  0  0  0  0  0
    1.2436   -2.8614    0.0729 H   0  0  0  0  0  0  0  0  0  0  0  0
   -0.0094   -2.1780    1.1425 H   0  0  0  0  0  0  0  0  0  0  0  0
    0.3217   -1.9055   -1.9252 H   0  0  0  0  0  0  0  0  0  0  0  0
   -1.1430   -1.4341   -1.1718 H   0  0  0  0  0  0  0  0  0  0  0  0
    1.7481   -0.4301   -2.5936 H   0  0  0  0  0  0  0  0  0  0  0  0
    1.7540    1.2654   -2.1008 H   0  0  0  0  0  0  0  0  0  0  0  0
    3.1624   -0.9744   -0.5560 H   0  0  0  0  0  0  0  0  0  0  0  0
    3.9167    0.2180   -1.6805 H   0  0  0  0  0  0  0  0  0  0  0  0
    6.8068    2.8140   -0.2530 H   0  0  0  0  0  0  0  0  0  0  0  0
    9.0211    1.6760   -0.2970 H   0  0  0  0  0  0  0  0  0  0  0  0
   10.2411   -0.7861    0.1783 H   0  0  0  0  0  0  0  0  0  0  0  0
    9.3424   -3.0889    0.9548 H   0  0  0  0  0  0  0  0  0  0  0  0
    4.9465   -0.8993    1.0412 H   0  0  0  0  0  0  0  0  0  0  0  0
    1.5556    2.3785    0.4215 H   0  0  0  0  0  0  0  0  0  0  0  0
    2.1558    1.5832    1.9211 H   0  0  0  0  0  0  0  0  0  0  0  0
    1.3764   -0.5615    1.1885 H   0  0  0  0  0  0  0  0  0  0  0  0
   -0.0024    0.5433    1.3434 H   0  0  0  0  0  0  0  0  0  0  0  0
   -0.7092    2.5775    0.1678 H   0  0  0  0  0  0  0  0  0  0  0  0
  1  2  1  0
  2  3  1  0
  2  4  1  0
  4  5  1  0
  5  6  1  0
  6  7  1  0
  7  8  1  0
  8  9  2  0
  9 10  1  0
 10 11  2  0
 11 12  1  0
 12 13  2  0
 13 14  1  0
 14 15  1  0
 15 16  1  0
 16 17  1  0
 17 18  1  0
 18 19  1  0
 19 20  1  0
 20 21  1  0
 21 22  1  0
 22 23  1  0
 23 24  2  0
 23 25  1  0
 25 26  2  0
 26 27  1  0
 27 28  2  0
 28 29  1  0
 29 30  1  0
 30 31  2  0
 31 32  1  0
 32 33  2  0
 22 34  1  0
 34 35  1  0
 19 36  1  0
 36 37  2  0
 36 38  1  0
 38  5  1  0
 13  8  1  0
 35 19  1  0
 33 25  1  0
 32 28  1  0
  1 39  1  0
  1 40  1  0
  1 41  1  0
  2 42  1  0
  3 43  1  0
  3 44  1  0
  3 45  1  0
  4 46  1  0
  4 47  1  0
  5 48  1  0
  6 49  1  0
  6 50  1  0
  9 51  1  0
 10 52  1  0
 11 53  1  0
 12 54  1  0
 14 55  1  0
 14 56  1  0
 15 57  1  0
 15 58  1  0
 16 59  1  0
 16 60  1  0
 17 61  1  0
 17 62  1  0
 18 63  1  0
 18 64  1  0
 20 65  1  0
 20 66  1  0
 21 67  1  0
 21 68  1  0
 26 69  1  0
 27 70  1  0
 29 71  1  0
 30 72  1  0
 33 73  1  0
 34 74  1  0
 34 75  1  0
 35 76  1  0
 35 77  1  0
 38 78  1  0
M  END
$$$$
