
     RDKit          3D

 70 73  0  0  0  0  0  0  0  0999 V2000
   -5.0987   -2.0006    0.4445 C   0  0  0  0  0  0  0  0  0  0  0  0
   -5.6133   -0.7858   -0.2824 C   0  0  0  0  0  0  0  0  0  0  0  0
   -5.9792   -0.9114   -1.6345 C   0  0  0  0  0  0  0  0  0  0  0  0
   -6.4772    0.1837   -2.3416 C   0  0  0  0  0  0  0  0  0  0  0  0
   -6.6260    1.4170   -1.7082 C   0  0  0  0  0  0  0  0  0  0  0  0
   -6.2725    1.5604   -0.3663 C   0  0  0  0  0  0  0  0  0  0  0  0
   -5.7645    0.4709    0.3646 C   0  0  0  0  0  0  0  0  0  0  0  0
   -5.3300    0.7096    1.7972 C   0  0  0  0  0  0  0  0  0  0  0  0
   -4.0075    1.4865    1.8697 C   0  0  0  0  0  0  0  0  0  0  0  0
   -2.9428    0.7728    1.1649 N   0  0  0  0  0  0  0  0  0  0  0  0
   -2.6109    1.0463   -0.2044 C   0  0  0  0  0  0  0  0  0  0  0  0
   -2.9906    2.1160   -0.7530 O   0  0  0  0  0  0  0  0  0  0  0  0
   -1.8218    0.0489   -0.9985 C   0  0  0  0  0  0  0  0  0  0  0  0
   -0.5131   -0.2210   -0.3665 N   0  0  0  0  0  0  0  0  0  0  0  0
    0.3748    0.9697   -0.4019 C   0  0  0  0  0  0  0  0  0  0  0  0
    0.3663    1.6789    0.9668 C   0  0  0  0  0  0  0  0  0  0  0  0
    1.7572    2.2065    1.3622 C   0  0  0  0  0  0  0  0  0  0  0  0
    2.5669    1.1542    2.1423 C   0  0  0  0  0  0  0  0  0  0  0  0
    4.0562    1.5416    2.2461 C   0  0  0  0  0  0  0  0  0  0  0  0
    4.9613    0.7860    1.2616 C   0  0  0  0  0  0  0  0  0  0  0  0
    4.3251    0.6194   -0.0062 O   0  0  0  0  0  0  0  0  0  0  0  0
    4.9623    0.0920   -1.1391 C   0  0  0  0  0  0  0  0  0  0  0  0
    6.2887    0.4370   -1.4608 C   0  0  0  0  0  0  0  0  0  0  0  0
    6.8699   -0.0222   -2.6465 C   0  0  0  0  0  0  0  0  0  0  0  0
    6.1353   -0.8223   -3.5230 C   0  0  0  0  0  0  0  0  0  0  0  0
    4.8243   -1.1821   -3.2076 C   0  0  0  0  0  0  0  0  0  0  0  0
    4.2420   -0.7579   -2.0068 C   0  0  0  0  0  0  0  0  0  0  0  0
    2.9461   -1.1929   -1.7020 O   0  0  0  0  0  0  0  0  0  0  0  0
    2.5944   -1.7900   -0.4837 C   0  0  0  0  0  0  0  0  0  0  0  0
    3.5632   -2.2626    0.3527 N   0  0  0  0  0  0  0  0  0  0  0  0
    3.2677   -2.8457    1.5433 C   0  0  0  0  0  0  0  0  0  0  0  0
    1.9386   -2.9762    1.9456 C   0  0  0  0  0  0  0  0  0  0  0  0
    0.9227   -2.5125    1.1092 C   0  0  0  0  0  0  0  0  0  0  0  0
    1.2378   -1.9233   -0.1243 C   0  0  0  0  0  0  0  0  0  0  0  0
    0.1254   -1.3960   -0.9982 C   0  0  0  0  0  0  0  0  0  0  0  0
   -5.8202   -2.2939    1.2360 H   0  0  0  0  0  0  0  0  0  0  0  0
   -4.9666   -2.8662   -0.2399 H   0  0  0  0  0  0  0  0  0  0  0  0
   -4.1119   -1.7879    0.9042 H   0  0  0  0  0  0  0  0  0  0  0  0
   -5.8776   -1.8610   -2.1464 H   0  0  0  0  0  0  0  0  0  0  0  0
   -6.7506    0.0744   -3.3831 H   0  0  0  0  0  0  0  0  0  0  0  0
   -7.0092    2.2664   -2.2584 H   0  0  0  0  0  0  0  0  0  0  0  0
   -6.3821    2.5294    0.1034 H   0  0  0  0  0  0  0  0  0  0  0  0
   -5.2289   -0.2387    2.3650 H   0  0  0  0  0  0  0  0  0  0  0  0
   -6.1150    1.2984    2.3210 H   0  0  0  0  0  0  0  0  0  0  0  0
   -4.1406    2.5100    1.4558 H   0  0  0  0  0  0  0  0  0  0  0  0
   -3.7180    1.6032    2.9363 H   0  0  0  0  0  0  0  0  0  0  0  0
   -2.5402   -0.0785    1.6161 H   0  0  0  0  0  0  0  0  0  0  0  0
   -2.4320   -0.8802   -1.0305 H   0  0  0  0  0  0  0  0  0  0  0  0
   -1.6922    0.3973   -2.0485 H   0  0  0  0  0  0  0  0  0  0  0  0
    0.0707    1.6954   -1.1905 H   0  0  0  0  0  0  0  0  0  0  0  0
    1.4162    0.6905   -0.6643 H   0  0  0  0  0  0  0  0  0  0  0  0
   -0.0141    0.9965    1.7610 H   0  0  0  0  0  0  0  0  0  0  0  0
   -0.3421    2.5369    0.9161 H   0  0  0  0  0  0  0  0  0  0  0  0
    1.6292    3.0997    2.0123 H   0  0  0  0  0  0  0  0  0  0  0  0
    2.3124    2.5399    0.4566 H   0  0  0  0  0  0  0  0  0  0  0  0
    2.1391    1.0822    3.1681 H   0  0  0  0  0  0  0  0  0  0  0  0
    2.4531    0.1493    1.6828 H   0  0  0  0  0  0  0  0  0  0  0  0
    4.1880    2.6372    2.1021 H   0  0  0  0  0  0  0  0  0  0  0  0
    4.4152    1.3176    3.2762 H   0  0  0  0  0  0  0  0  0  0  0  0
    5.9049    1.3589    1.1591 H   0  0  0  0  0  0  0  0  0  0  0  0
    5.2038   -0.2171    1.6759 H   0  0  0  0  0  0  0  0  0  0  0  0
    6.8676    1.0890   -0.8233 H   0  0  0  0  0  0  0  0  0  0  0  0
    7.8863    0.2522   -2.8932 H   0  0  0  0  0  0  0  0  0  0  0  0
    6.5847   -1.1682   -4.4455 H   0  0  0  0  0  0  0  0  0  0  0  0
    4.2675   -1.8172   -3.8846 H   0  0  0  0  0  0  0  0  0  0  0  0
    4.0659   -3.2047    2.1798 H   0  0  0  0  0  0  0  0  0  0  0  0
    1.6978   -3.4317    2.8971 H   0  0  0  0  0  0  0  0  0  0  0  0
   -0.1099   -2.6059    1.4244 H   0  0  0  0  0  0  0  0  0  0  0  0
   -0.6099   -2.2216   -1.1139 H   0  0  0  0  0  0  0  0  0  0  0  0
    0.4808   -1.1466   -2.0236 H   0  0  0  0  0  0  0  0  0  0  0  0
  1  2  1  0
  2  3  2  0
  3  4  1  0
  4  5  2  0
  5  6  1  0
  6  7  2  0
  7  8  1  0
  8  9  1  0
  9 10  1  0
 10 11  1  0
 11 12  2  0
 11 13  1  0
 13 14  1  0
 14 15  1  0
 15 16  1  0
 16 17  1  0
 17 18  1  0
 18 19  1  0
 19 20  1  0
 20 21  1  0
 21 22  1  0
 22 23  2  0
 23 24  1  0
 24 25  2  0
 25 26  1  0
 26 27  2  0
 27 28  1  0
 28 29  1  0
 29 30  2  0
 30 31  1  0
 31 32  2  0
 32 33  1  0
 33 34  2  0
 34 35  1  0
  7  2  1  0
 35 14  1  0
 27 22  1  0
 34 29  1  0
  1 36  1  0
  1 37  1  0
  1 38  1  0
  3 39  1  0
  4 40  1  0
  5 41  1  0
  6 42  1  0
  8 43  1  0
  8 44  1  0
  9 45  1  0
  9 46  1  0
 10 47  1  0
 13 48  1  0
 13 49  1  0
 15 50  1  0
 15 51  1  0
 16 52  1  0
 16 53  1  0
 17 54  1  0
 17 55  1  0
 18 56  1  0
 18 57  1  0
 19 58  1  0
 19 59  1  0
 20 60  1  0
 20 61  1  0
 23 62  1  0
 24 63  1  0
 25 64  1  0
 26 65  1  0
 31 66  1  0
 32 67  1  0
 33 68  1  0
 35 69  1  0
 35 70  1  0
M  END
$$$$
