
     RDKit          3D

 85 87  0  0  0  0  0  0  0  0999 V2000
    2.1734   -3.4590   -4.1681 C   0  0  0  0  0  0  0  0  0  0  0  0
    2.2967   -1.9772   -3.7789 C   0  0  1  0  0  0  0  0  0  0  0  0
    1.7991   -1.0571   -4.9062 C   0  0  0  0  0  0  0  0  0  0  0  0
    1.8838    0.2917   -4.5231 O   0  0  0  0  0  0  0  0  0  0  0  0
    1.6217   -1.7050   -2.4840 N   0  0  0  0  0  0  0  0  0  0  0  0
    0.1497   -1.8198   -2.3539 C   0  0  0  0  0  0  0  0  0  0  0  0
   -0.5658   -0.4302   -2.3558 C   0  0  1  0  0  0  0  0  0  0  0  0
   -1.6433   -0.3959   -3.4721 C   0  0  0  0  0  0  0  0  0  0  0  0
   -1.1339   -0.0141   -0.9436 C   0  0  2  0  0  0  0  0  0  0  0  0
   -2.6111   -0.4152   -0.6646 C   0  0  0  0  0  0  0  0  0  0  0  0
   -2.8716   -0.5799    0.7877 N   0  0  0  0  0  0  0  0  0  0  0  0
   -3.9630   -1.5581    0.9900 C   0  0  0  0  0  0  0  0  0  0  0  0
   -3.2202    0.7105    1.4267 C   0  0  0  0  0  0  0  0  0  0  0  0
   -3.1235    0.6072    2.9293 C   0  0  0  0  0  0  0  0  0  0  0  0
   -1.8939    0.3032    3.5359 C   0  0  0  0  0  0  0  0  0  0  0  0
   -1.8111    0.1405    4.9218 C   0  0  0  0  0  0  0  0  0  0  0  0
   -2.9472    0.3136    5.7156 C   0  0  0  0  0  0  0  0  0  0  0  0
   -4.1679    0.6583    5.1240 C   0  0  0  0  0  0  0  0  0  0  0  0
   -4.2600    0.7939    3.7347 C   0  0  0  0  0  0  0  0  0  0  0  0
   -0.8420    1.3348   -0.5911 O   0  0  0  0  0  0  0  0  0  0  0  0
   -1.3889    2.3097   -1.4624 C   0  0  0  0  0  0  0  0  0  0  0  0
   -0.8336    3.7013   -1.1108 C   0  0  0  0  0  0  0  0  0  0  0  0
    0.6623    3.6962   -0.7366 C   0  0  0  0  0  0  0  0  0  0  0  0
    1.5960    3.2432   -1.8820 C   0  0  0  0  0  0  0  0  0  0  0  0
    2.8484    2.4397   -1.4540 C   0  0  1  0  0  0  0  0  0  0  0  0
    3.7623    3.1263   -0.4281 C   0  0  0  0  0  0  0  0  0  0  0  0
    2.5521    1.0578   -1.1787 O   0  0  0  0  0  0  0  0  0  0  0  0
    2.2279    0.3736    0.0158 C   0  0  0  0  0  0  0  0  0  0  0  0
    2.0582    0.9990    1.2665 C   0  0  0  0  0  0  0  0  0  0  0  0
    1.7138    0.2539    2.3936 C   0  0  0  0  0  0  0  0  0  0  0  0
    1.5486   -1.1376    2.3106 C   0  0  0  0  0  0  0  0  0  0  0  0
    1.2586   -1.9106    3.4923 N   0  0  0  0  0  0  0  0  0  0  0  0
    2.1207   -1.7576    4.6730 C   0  0  0  0  0  0  0  0  0  0  0  0
    0.1658   -2.8899    3.4851 C   0  0  0  0  0  0  0  0  0  0  0  0
    1.7369   -1.7698    1.0771 C   0  0  0  0  0  0  0  0  0  0  0  0
    2.0744   -1.0261   -0.0611 C   0  0  0  0  0  0  0  0  0  0  0  0
    2.4391   -1.7468   -1.2904 C   0  0  0  0  0  0  0  0  0  0  0  0
    3.5094   -2.4161   -1.2824 O   0  0  0  0  0  0  0  0  0  0  0  0
    1.1476   -3.7101   -4.5075 H   0  0  0  0  0  0  0  0  0  0  0  0
    2.8781   -3.6949   -4.9925 H   0  0  0  0  0  0  0  0  0  0  0  0
    2.4303   -4.1017   -3.3027 H   0  0  0  0  0  0  0  0  0  0  0  0
    3.3845   -1.7585   -3.6780 H   0  0  0  0  0  0  0  0  0  0  0  0
    0.7499   -1.2954   -5.1665 H   0  0  0  0  0  0  0  0  0  0  0  0
    2.4006   -1.2230   -5.8271 H   0  0  0  0  0  0  0  0  0  0  0  0
    2.8507    0.5201   -4.4926 H   0  0  0  0  0  0  0  0  0  0  0  0
   -0.1045   -2.4137   -1.4480 H   0  0  0  0  0  0  0  0  0  0  0  0
   -0.2364   -2.4467   -3.1859 H   0  0  0  0  0  0  0  0  0  0  0  0
    0.2102    0.3156   -2.6221 H   0  0  0  0  0  0  0  0  0  0  0  0
   -2.2982    0.4922   -3.4122 H   0  0  0  0  0  0  0  0  0  0  0  0
   -1.1610   -0.3710   -4.4674 H   0  0  0  0  0  0  0  0  0  0  0  0
   -2.2940   -1.2934   -3.4313 H   0  0  0  0  0  0  0  0  0  0  0  0
   -0.5620   -0.6047   -0.2036 H   0  0  0  0  0  0  0  0  0  0  0  0
   -3.3360    0.2925   -1.1237 H   0  0  0  0  0  0  0  0  0  0  0  0
   -2.7709   -1.3890   -1.1796 H   0  0  0  0  0  0  0  0  0  0  0  0
   -4.1189   -1.7571    2.0690 H   0  0  0  0  0  0  0  0  0  0  0  0
   -4.9152   -1.2000    0.5438 H   0  0  0  0  0  0  0  0  0  0  0  0
   -3.6974   -2.5351    0.5317 H   0  0  0  0  0  0  0  0  0  0  0  0
   -4.2307    1.0535    1.1050 H   0  0  0  0  0  0  0  0  0  0  0  0
   -2.5128    1.5075    1.1262 H   0  0  0  0  0  0  0  0  0  0  0  0
   -1.0101    0.1701    2.9291 H   0  0  0  0  0  0  0  0  0  0  0  0
   -0.8629   -0.1199    5.3807 H   0  0  0  0  0  0  0  0  0  0  0  0
   -2.8841    0.1939    6.7890 H   0  0  0  0  0  0  0  0  0  0  0  0
   -5.0456    0.8047    5.7410 H   0  0  0  0  0  0  0  0  0  0  0  0
   -5.2167    1.0398    3.2880 H   0  0  0  0  0  0  0  0  0  0  0  0
   -2.4932    2.3472   -1.3702 H   0  0  0  0  0  0  0  0  0  0  0  0
   -1.1344    2.1251   -2.5229 H   0  0  0  0  0  0  0  0  0  0  0  0
   -1.0068    4.3959   -1.9626 H   0  0  0  0  0  0  0  0  0  0  0  0
   -1.4021    4.0921   -0.2400 H   0  0  0  0  0  0  0  0  0  0  0  0
    0.7761    3.0702    0.1573 H   0  0  0  0  0  0  0  0  0  0  0  0
    0.9517    4.7277   -0.4332 H   0  0  0  0  0  0  0  0  0  0  0  0
    1.9296    4.1491   -2.4359 H   0  0  0  0  0  0  0  0  0  0  0  0
    1.0560    2.6274   -2.6275 H   0  0  0  0  0  0  0  0  0  0  0  0
    3.4623    2.3919   -2.3813 H   0  0  0  0  0  0  0  0  0  0  0  0
    4.3995    3.8800   -0.9423 H   0  0  0  0  0  0  0  0  0  0  0  0
    3.1880    3.6706    0.3472 H   0  0  0  0  0  0  0  0  0  0  0  0
    4.4306    2.3790    0.0541 H   0  0  0  0  0  0  0  0  0  0  0  0
    2.2002    2.0523    1.4079 H   0  0  0  0  0  0  0  0  0  0  0  0
    1.5808    0.7641    3.3362 H   0  0  0  0  0  0  0  0  0  0  0  0
    3.1837   -1.9215    4.3825 H   0  0  0  0  0  0  0  0  0  0  0  0
    2.0093   -0.7377    5.0997 H   0  0  0  0  0  0  0  0  0  0  0  0
    1.8583   -2.4857    5.4678 H   0  0  0  0  0  0  0  0  0  0  0  0
   -0.7987   -2.3769    3.2625 H   0  0  0  0  0  0  0  0  0  0  0  0
    0.3459   -3.6655    2.7117 H   0  0  0  0  0  0  0  0  0  0  0  0
    0.0716   -3.4008    4.4680 H   0  0  0  0  0  0  0  0  0  0  0  0
    1.6750   -2.8487    1.0063 H   0  0  0  0  0  0  0  0  0  0  0  0
  1  2  1  0
  2  3  1  0
  3  4  1  0
  2  5  1  0
  5  6  1  0
  6  7  1  0
  7  8  1  0
  7  9  1  0
  9 10  1  0
 10 11  1  0
 11 12  1  0
 11 13  1  0
 13 14  1  0
 14 15  2  0
 15 16  1  0
 16 17  2  0
 17 18  1  0
 18 19  2  0
  9 20  1  0
 20 21  1  0
 21 22  1  0
 22 23  1  0
 23 24  1  0
 24 25  1  0
 25 26  1  0
 25 27  1  0
 27 28  1  0
 28 29  2  0
 29 30  1  0
 30 31  2  0
 31 32  1  0
 32 33  1  0
 32 34  1  0
 31 35  1  0
 35 36  2  0
 36 37  1  0
 37 38  2  0
 37  5  1  0
 19 14  1  0
 36 28  1  0
  1 39  1  0
  1 40  1  0
  1 41  1  0
  2 42  1  1
  3 43  1  0
  3 44  1  0
  4 45  1  0
  6 46  1  0
  6 47  1  0
  7 48  1  6
  8 49  1  0
  8 50  1  0
  8 51  1  0
  9 52  1  1
 10 53  1  0
 10 54  1  0
 12 55  1  0
 12 56  1  0
 12 57  1  0
 13 58  1  0
 13 59  1  0
 15 60  1  0
 16 61  1  0
 17 62  1  0
 18 63  1  0
 19 64  1  0
 21 65  1  0
 21 66  1  0
 22 67  1  0
 22 68  1  0
 23 69  1  0
 23 70  1  0
 24 71  1  0
 24 72  1  0
 25 73  1  6
 26 74  1  0
 26 75  1  0
 26 76  1  0
 29 77  1  0
 30 78  1  0
 33 79  1  0
 33 80  1  0
 33 81  1  0
 34 82  1  0
 34 83  1  0
 34 84  1  0
 35 85  1  0
M  END
$$$$
