
     RDKit          3D

 56 59  0  0  0  0  0  0  0  0999 V2000
    7.7814    0.5156   -1.4155 C   0  0  0  0  0  0  0  0  0  0  0  0
    6.5503    0.0360   -0.7192 C   0  0  0  0  0  0  0  0  0  0  0  0
    6.3828   -1.2488   -0.3097 N   0  0  0  0  0  0  0  0  0  0  0  0
    5.1728   -1.2117    0.2711 C   0  0  0  0  0  0  0  0  0  0  0  0
    4.4815   -2.2658    0.8511 C   0  0  0  0  0  0  0  0  0  0  0  0
    3.2029   -2.0039    1.3733 C   0  0  0  0  0  0  0  0  0  0  0  0
    2.6425   -0.7038    1.2923 C   0  0  0  0  0  0  0  0  0  0  0  0
    1.2738   -0.4617    1.7826 C   0  0  0  0  0  0  0  0  0  0  0  0
    0.9357   -0.9347    2.9064 O   0  0  0  0  0  0  0  0  0  0  0  0
    0.3048    0.2335    0.9769 N   0  0  0  0  0  0  0  0  0  0  0  0
    0.2296   -0.0866   -0.4658 C   0  0  0  0  0  0  0  0  0  0  0  0
   -0.1366   -1.5601   -0.7316 C   0  0  0  0  0  0  0  0  0  0  0  0
   -1.3644   -2.0792    0.0425 C   0  0  0  0  0  0  0  0  0  0  0  0
   -2.7772   -1.5984   -0.3873 C   0  0  0  0  0  0  0  0  0  0  0  0
   -2.8076   -0.4195   -1.2730 N   0  0  0  0  0  0  0  0  0  0  0  0
   -2.6039   -0.6150   -2.7133 C   0  0  0  0  0  0  0  0  0  0  0  0
   -3.1816    0.9054   -0.8153 C   0  0  0  0  0  0  0  0  0  0  0  0
   -2.9209    1.9062   -1.5371 O   0  0  0  0  0  0  0  0  0  0  0  0
   -3.9817    1.1245    0.4086 C   0  0  0  0  0  0  0  0  0  0  0  0
   -5.2069    0.4423    0.5091 C   0  0  0  0  0  0  0  0  0  0  0  0
   -6.0791    0.6935    1.5660 C   0  0  0  0  0  0  0  0  0  0  0  0
   -7.5913   -0.1804    1.6777 Cl  0  0  0  0  0  0  0  0  0  0  0  0
   -5.7586    1.6576    2.5183 C   0  0  0  0  0  0  0  0  0  0  0  0
   -4.5512    2.3501    2.4317 C   0  0  0  0  0  0  0  0  0  0  0  0
   -3.6351    2.0794    1.4097 C   0  0  0  0  0  0  0  0  0  0  0  0
   -2.4079    2.7709    1.4773 O   0  0  0  0  0  0  0  0  0  0  0  0
   -1.1284    2.2963    1.0540 C   0  0  0  0  0  0  0  0  0  0  0  0
   -0.8267    0.9063    1.6411 C   0  0  0  0  0  0  0  0  0  0  0  0
    3.3819    0.3421    0.7043 C   0  0  0  0  0  0  0  0  0  0  0  0
    4.6468    0.0422    0.2071 C   0  0  0  0  0  0  0  0  0  0  0  0
    5.5085    0.8570   -0.4223 N   0  0  0  0  0  0  0  0  0  0  0  0
    8.5046   -0.3174   -1.5317 H   0  0  0  0  0  0  0  0  0  0  0  0
    8.2509    1.3251   -0.8210 H   0  0  0  0  0  0  0  0  0  0  0  0
    7.5166    0.9072   -2.4191 H   0  0  0  0  0  0  0  0  0  0  0  0
    4.9023   -3.2643    0.8786 H   0  0  0  0  0  0  0  0  0  0  0  0
    2.6309   -2.8187    1.7951 H   0  0  0  0  0  0  0  0  0  0  0  0
   -0.4917    0.5520   -0.9909 H   0  0  0  0  0  0  0  0  0  0  0  0
    1.2052    0.1341   -0.9486 H   0  0  0  0  0  0  0  0  0  0  0  0
   -0.2733   -1.7212   -1.8213 H   0  0  0  0  0  0  0  0  0  0  0  0
    0.7380   -2.1886   -0.4437 H   0  0  0  0  0  0  0  0  0  0  0  0
   -1.3566   -3.1855   -0.0524 H   0  0  0  0  0  0  0  0  0  0  0  0
   -1.2201   -1.9034    1.1266 H   0  0  0  0  0  0  0  0  0  0  0  0
   -3.3670   -1.4237    0.5339 H   0  0  0  0  0  0  0  0  0  0  0  0
   -3.2994   -2.4353   -0.8971 H   0  0  0  0  0  0  0  0  0  0  0  0
   -3.5184   -0.3022   -3.2635 H   0  0  0  0  0  0  0  0  0  0  0  0
   -1.7465   -0.0059   -3.0642 H   0  0  0  0  0  0  0  0  0  0  0  0
   -2.3991   -1.6798   -2.9524 H   0  0  0  0  0  0  0  0  0  0  0  0
   -5.4935   -0.2783   -0.2496 H   0  0  0  0  0  0  0  0  0  0  0  0
   -6.4420    1.8690    3.3307 H   0  0  0  0  0  0  0  0  0  0  0  0
   -4.3072    3.0822    3.1893 H   0  0  0  0  0  0  0  0  0  0  0  0
   -1.0610    2.3519   -0.0433 H   0  0  0  0  0  0  0  0  0  0  0  0
   -0.3563    3.0016    1.4274 H   0  0  0  0  0  0  0  0  0  0  0  0
   -0.6156    1.0490    2.7237 H   0  0  0  0  0  0  0  0  0  0  0  0
   -1.7162    0.2572    1.5816 H   0  0  0  0  0  0  0  0  0  0  0  0
    2.9765    1.3349    0.6255 H   0  0  0  0  0  0  0  0  0  0  0  0
    5.4028    1.8709   -0.6230 H   0  0  0  0  0  0  0  0  0  0  0  0
  1  2  1  0
  2  3  2  0
  3  4  1  0
  4  5  2  0
  5  6  1  0
  6  7  2  0
  7  8  1  0
  8  9  2  0
  8 10  1  0
 10 11  1  0
 11 12  1  0
 12 13  1  0
 13 14  1  0
 14 15  1  0
 15 16  1  0
 15 17  1  0
 17 18  2  0
 17 19  1  0
 19 20  2  0
 20 21  1  0
 21 22  1  0
 21 23  2  0
 23 24  1  0
 24 25  2  0
 25 26  1  0
 26 27  1  0
 27 28  1  0
  7 29  1  0
 29 30  2  0
 30 31  1  0
 31  2  1  0
 30  4  1  0
 28 10  1  0
 25 19  1  0
  1 32  1  0
  1 33  1  0
  1 34  1  0
  5 35  1  0
  6 36  1  0
 11 37  1  0
 11 38  1  0
 12 39  1  0
 12 40  1  0
 13 41  1  0
 13 42  1  0
 14 43  1  0
 14 44  1  0
 16 45  1  0
 16 46  1  0
 16 47  1  0
 20 48  1  0
 23 49  1  0
 24 50  1  0
 27 51  1  0
 27 52  1  0
 28 53  1  0
 28 54  1  0
 29 55  1  0
 31 56  1  0
M  END
$$$$
