
     RDKit          3D

108113  0  0  0  0  0  0  0  0999 V2000
   -5.2581    4.8340    1.5227 C   0  0  0  0  0  0  0  0  0  0  0  0
   -4.2036    4.0979    2.1054 O   0  0  0  0  0  0  0  0  0  0  0  0
   -3.6442    3.1814    1.1725 C   0  0  1  0  0  0  0  0  0  0  0  0
   -2.2437    3.6252    0.8147 C   0  0  0  0  0  0  0  0  0  0  0  0
   -1.2920    3.8338    1.7361 C   0  0  0  0  0  0  0  0  0  0  0  0
    0.0819    3.8020    1.4308 O   0  0  0  0  0  0  0  0  0  0  0  0
    0.6843    2.8995    0.4861 C   0  0  1  0  0  0  0  0  0  0  0  0
   -0.0314    1.5403    0.3907 C   0  0  0  0  0  0  0  0  0  0  0  0
    0.7999    3.4903   -0.8069 O   0  0  0  0  0  0  0  0  0  0  0  0
    2.0185    3.1171   -1.3710 C   0  0  0  0  0  0  0  0  0  0  0  0
    2.3255    3.1606   -2.7303 C   0  0  0  0  0  0  0  0  0  0  0  0
    1.4719    3.9720   -3.6701 C   0  0  0  0  0  0  0  0  0  0  0  0
    3.3554    2.3081   -3.2011 C   0  0  0  0  0  0  0  0  0  0  0  0
    3.7024    2.3067   -4.5554 O   0  0  0  0  0  0  0  0  0  0  0  0
    3.9956    1.4009   -2.3024 C   0  0  0  0  0  0  0  0  0  0  0  0
    4.7014    0.2584   -2.7929 C   0  0  0  0  0  0  0  0  0  0  0  0
    4.9091    0.0956   -4.1664 O   0  0  0  0  0  0  0  0  0  0  0  0
    5.1251   -0.7615   -1.9073 C   0  0  0  0  0  0  0  0  0  0  0  0
    4.9855   -0.5376   -0.5289 C   0  0  0  0  0  0  0  0  0  0  0  0
    4.3370    0.5734   -0.0405 C   0  0  0  0  0  0  0  0  0  0  0  0
    4.2251    0.5005    1.3034 N   0  0  0  0  0  0  0  0  0  0  0  0
    4.8228   -0.6720    1.6014 C   0  0  0  0  0  0  0  0  0  0  0  0
    4.9598   -1.1976    2.8856 C   0  0  0  0  0  0  0  0  0  0  0  0
    5.6034   -2.4417    3.0274 C   0  0  0  0  0  0  0  0  0  0  0  0
    5.8126   -3.0237    4.3950 C   0  0  0  0  0  0  0  0  0  0  0  0
    6.1053   -3.1046    1.8865 C   0  0  0  0  0  0  0  0  0  0  0  0
    5.9313   -2.5330    0.6176 C   0  0  0  0  0  0  0  0  0  0  0  0
    5.2893   -1.3358    0.5204 N   0  0  0  0  0  0  0  0  0  0  0  0
    3.7732    1.5382   -0.8911 C   0  0  0  0  0  0  0  0  0  0  0  0
    2.8410    2.5006   -0.4538 C   0  0  0  0  0  0  0  0  0  0  0  0
    2.1093    2.6018    0.8099 C   0  0  0  0  0  0  0  0  0  0  0  0
    2.5802    2.4619    1.9698 O   0  0  0  0  0  0  0  0  0  0  0  0
    5.3503   -2.0789   -2.4161 N   0  0  0  0  0  0  0  0  0  0  0  0
    4.1988   -2.8848   -2.6972 C   0  0  0  0  0  0  0  0  0  0  0  0
    3.3456   -2.4843   -3.5373 O   0  0  0  0  0  0  0  0  0  0  0  0
    3.9493   -4.1406   -1.9637 C   0  0  0  0  0  0  0  0  0  0  0  0
    4.9786   -5.2289   -2.0075 C   0  0  0  0  0  0  0  0  0  0  0  0
    2.8235   -4.3214   -1.2385 C   0  0  0  0  0  0  0  0  0  0  0  0
    1.8512   -3.2386   -0.9762 C   0  0  0  0  0  0  0  0  0  0  0  0
    0.6753   -3.4650   -0.3742 C   0  0  0  0  0  0  0  0  0  0  0  0
   -0.2129   -2.3140    0.0505 C   0  0  2  0  0  0  0  0  0  0  0  0
   -0.1145   -2.1470    1.5757 C   0  0  0  0  0  0  0  0  0  0  0  0
   -1.7018   -2.4671   -0.4107 C   0  0  2  0  0  0  0  0  0  0  0  0
   -1.7770   -3.2309   -1.5912 O   0  0  0  0  0  0  0  0  0  0  0  0
   -2.3732   -1.0624   -0.6264 C   0  0  1  0  0  0  0  0  0  0  0  0
   -1.9407   -0.4628   -1.9896 C   0  0  0  0  0  0  0  0  0  0  0  0
   -3.9313   -1.0732   -0.5044 C   0  0  1  0  0  0  0  0  0  0  0  0
   -4.3423   -1.9480    0.5138 O   0  0  0  0  0  0  0  0  0  0  0  0
   -4.5490    0.3719   -0.2954 C   0  0  1  0  0  0  0  0  0  0  0  0
   -5.8347    0.5033   -1.1355 C   0  0  0  0  0  0  0  0  0  0  0  0
   -4.7616    0.8052    1.2137 C   0  0  2  0  0  0  0  0  0  0  0  0
   -6.0062    1.4872    1.4085 O   0  0  0  0  0  0  0  0  0  0  0  0
   -7.2065    0.8518    1.7521 C   0  0  0  0  0  0  0  0  0  0  0  0
   -8.4596    1.6577    1.8324 C   0  0  0  0  0  0  0  0  0  0  0  0
   -7.2483   -0.3912    1.9596 O   0  0  0  0  0  0  0  0  0  0  0  0
   -3.6192    1.7170    1.7592 C   0  0  2  0  0  0  0  0  0  0  0  0
   -3.6407    1.7035    3.2993 C   0  0  0  0  0  0  0  0  0  0  0  0
   -4.9074    5.4109    0.6349 H   0  0  0  0  0  0  0  0  0  0  0  0
   -5.6410    5.5569    2.2724 H   0  0  0  0  0  0  0  0  0  0  0  0
   -6.0997    4.1596    1.2416 H   0  0  0  0  0  0  0  0  0  0  0  0
   -4.2022    3.1535    0.2003 H   0  0  0  0  0  0  0  0  0  0  0  0
   -1.9689    3.6242   -0.2323 H   0  0  0  0  0  0  0  0  0  0  0  0
   -1.5722    3.9920    2.7678 H   0  0  0  0  0  0  0  0  0  0  0  0
   -0.2681    1.1508    1.4033 H   0  0  0  0  0  0  0  0  0  0  0  0
   -0.9493    1.6203   -0.2230 H   0  0  0  0  0  0  0  0  0  0  0  0
    0.6070    0.7935   -0.1277 H   0  0  0  0  0  0  0  0  0  0  0  0
    0.7231    4.5820   -3.1207 H   0  0  0  0  0  0  0  0  0  0  0  0
    0.9294    3.2969   -4.3646 H   0  0  0  0  0  0  0  0  0  0  0  0
    2.1026    4.6738   -4.2570 H   0  0  0  0  0  0  0  0  0  0  0  0
    3.2736    2.9118   -5.2429 H   0  0  0  0  0  0  0  0  0  0  0  0
    5.4201   -0.6873   -4.5532 H   0  0  0  0  0  0  0  0  0  0  0  0
    4.5830   -0.6554    3.7458 H   0  0  0  0  0  0  0  0  0  0  0  0
    5.9929   -4.1190    4.3391 H   0  0  0  0  0  0  0  0  0  0  0  0
    4.9158   -2.8603    5.0321 H   0  0  0  0  0  0  0  0  0  0  0  0
    6.6934   -2.5380    4.8681 H   0  0  0  0  0  0  0  0  0  0  0  0
    6.6229   -4.0532    1.9845 H   0  0  0  0  0  0  0  0  0  0  0  0
    6.3364   -3.0434   -0.2365 H   0  0  0  0  0  0  0  0  0  0  0  0
    6.2851   -2.5244   -2.3117 H   0  0  0  0  0  0  0  0  0  0  0  0
    5.4696   -5.3266   -1.0175 H   0  0  0  0  0  0  0  0  0  0  0  0
    4.5032   -6.1958   -2.2741 H   0  0  0  0  0  0  0  0  0  0  0  0
    5.7575   -5.0014   -2.7641 H   0  0  0  0  0  0  0  0  0  0  0  0
    2.6544   -5.2788   -0.7607 H   0  0  0  0  0  0  0  0  0  0  0  0
    2.1272   -2.2211   -1.2127 H   0  0  0  0  0  0  0  0  0  0  0  0
    0.3997   -4.4700   -0.0811 H   0  0  0  0  0  0  0  0  0  0  0  0
    0.1936   -1.3876   -0.3888 H   0  0  0  0  0  0  0  0  0  0  0  0
   -0.4659   -3.0658    2.0874 H   0  0  0  0  0  0  0  0  0  0  0  0
   -0.7332   -1.2964    1.9284 H   0  0  0  0  0  0  0  0  0  0  0  0
    0.9385   -1.9469    1.8720 H   0  0  0  0  0  0  0  0  0  0  0  0
   -2.2270   -3.0298    0.3983 H   0  0  0  0  0  0  0  0  0  0  0  0
   -2.7246   -3.5141   -1.6910 H   0  0  0  0  0  0  0  0  0  0  0  0
   -2.0009   -0.4052    0.1757 H   0  0  0  0  0  0  0  0  0  0  0  0
   -0.8414   -0.5006   -2.1226 H   0  0  0  0  0  0  0  0  0  0  0  0
   -2.2269    0.6009   -2.0838 H   0  0  0  0  0  0  0  0  0  0  0  0
   -2.4038   -1.0201   -2.8303 H   0  0  0  0  0  0  0  0  0  0  0  0
   -4.3043   -1.5022   -1.4625 H   0  0  0  0  0  0  0  0  0  0  0  0
   -5.3205   -2.0632    0.4146 H   0  0  0  0  0  0  0  0  0  0  0  0
   -3.8653    1.1086   -0.7533 H   0  0  0  0  0  0  0  0  0  0  0  0
   -5.6194    0.2812   -2.2032 H   0  0  0  0  0  0  0  0  0  0  0  0
   -6.2269    1.5423   -1.0978 H   0  0  0  0  0  0  0  0  0  0  0  0
   -6.6125   -0.2014   -0.7781 H   0  0  0  0  0  0  0  0  0  0  0  0
   -4.7667   -0.1008    1.8554 H   0  0  0  0  0  0  0  0  0  0  0  0
   -8.8928    1.7739    0.8155 H   0  0  0  0  0  0  0  0  0  0  0  0
   -9.1953    1.1597    2.5003 H   0  0  0  0  0  0  0  0  0  0  0  0
   -8.2255    2.6620    2.2429 H   0  0  0  0  0  0  0  0  0  0  0  0
   -2.6662    1.2299    1.4798 H   0  0  0  0  0  0  0  0  0  0  0  0
   -4.6056    2.0947    3.6825 H   0  0  0  0  0  0  0  0  0  0  0  0
   -2.8154    2.3109    3.7127 H   0  0  0  0  0  0  0  0  0  0  0  0
   -3.5072    0.6677    3.6775 H   0  0  0  0  0  0  0  0  0  0  0  0
  1  2  1  0
  2  3  1  0
  3  4  1  0
  4  5  2  0
  5  6  1  0
  6  7  1  0
  7  8  1  6
  7  9  1  0
  9 10  1  0
 10 11  2  0
 11 12  1  0
 11 13  1  0
 13 14  1  0
 13 15  2  0
 15 16  1  0
 16 17  1  0
 16 18  2  0
 18 19  1  0
 19 20  2  0
 20 21  1  0
 21 22  2  0
 22 23  1  0
 23 24  2  0
 24 25  1  0
 24 26  1  0
 26 27  2  0
 27 28  1  0
 20 29  1  0
 29 30  2  0
 30 31  1  0
 31 32  2  0
 18 33  1  0
 33 34  1  0
 34 35  2  0
 34 36  1  0
 36 37  1  0
 36 38  2  0
 38 39  1  0
 39 40  2  0
 40 41  1  0
 41 42  1  0
 41 43  1  0
 43 44  1  0
 43 45  1  0
 45 46  1  0
 45 47  1  0
 47 48  1  0
 47 49  1  0
 49 50  1  0
 49 51  1  0
 51 52  1  0
 52 53  1  0
 53 54  1  0
 53 55  2  0
 51 56  1  0
 56 57  1  0
 56  3  1  0
 31  7  1  0
 30 10  1  0
 29 15  1  0
 28 19  1  0
 28 22  1  0
  1 58  1  0
  1 59  1  0
  1 60  1  0
  3 61  1  6
  4 62  1  0
  5 63  1  0
  8 64  1  0
  8 65  1  0
  8 66  1  0
 12 67  1  0
 12 68  1  0
 12 69  1  0
 14 70  1  0
 17 71  1  0
 23 72  1  0
 25 73  1  0
 25 74  1  0
 25 75  1  0
 26 76  1  0
 27 77  1  0
 33 78  1  0
 37 79  1  0
 37 80  1  0
 37 81  1  0
 38 82  1  0
 39 83  1  0
 40 84  1  0
 41 85  1  6
 42 86  1  0
 42 87  1  0
 42 88  1  0
 43 89  1  1
 44 90  1  0
 45 91  1  1
 46 92  1  0
 46 93  1  0
 46 94  1  0
 47 95  1  6
 48 96  1  0
 49 97  1  6
 50 98  1  0
 50 99  1  0
 50100  1  0
 51101  1  1
 54102  1  0
 54103  1  0
 54104  1  0
 56105  1  1
 57106  1  0
 57107  1  0
 57108  1  0
M  END
$$$$
