
     RDKit          3D

 75 76  0  0  0  0  0  0  0  0999 V2000
   -4.1349   -2.2149    2.3019 C   0  0  0  0  0  0  0  0  0  0  0  0
   -4.8686   -1.4967    1.1593 C   0  0  0  0  0  0  0  0  0  0  0  0
   -5.9322   -2.4322    0.5651 C   0  0  0  0  0  0  0  0  0  0  0  0
   -3.9115   -1.0264    0.0332 C   0  0  0  0  0  0  0  0  0  0  0  0
   -2.8649    0.0524    0.3937 C   0  0  2  0  0  0  0  0  0  0  0  0
   -1.7475   -0.5026    1.1642 N   0  0  0  0  0  0  0  0  0  0  0  0
   -0.4198   -0.5899    0.6299 C   0  0  0  0  0  0  0  0  0  0  0  0
    0.4996    0.0432    1.2130 O   0  0  0  0  0  0  0  0  0  0  0  0
   -0.0847   -1.4885   -0.5472 C   0  0  1  0  0  0  0  0  0  0  0  0
   -0.4023   -0.8109   -1.8940 C   0  0  0  0  0  0  0  0  0  0  0  0
    1.3242   -1.9425   -0.4587 N   0  0  0  0  0  0  0  0  0  0  0  0
    1.7274   -2.8131    0.6485 C   0  0  0  0  0  0  0  0  0  0  0  0
    2.2816   -1.7355   -1.5163 C   0  0  0  0  0  0  0  0  0  0  0  0
    2.4927   -2.6668   -2.3388 O   0  0  0  0  0  0  0  0  0  0  0  0
    3.0369   -0.4313   -1.6730 C   0  0  2  0  0  0  0  0  0  0  0  0
    4.5717   -0.6486   -1.5697 C   0  0  0  0  0  0  0  0  0  0  0  0
    5.0145   -1.3004   -0.2793 C   0  0  0  0  0  0  0  0  0  0  0  0
    5.0908   -2.7013   -0.1827 C   0  0  0  0  0  0  0  0  0  0  0  0
    5.4762   -3.3070    1.0167 C   0  0  0  0  0  0  0  0  0  0  0  0
    5.7951   -2.5209    2.1267 C   0  0  0  0  0  0  0  0  0  0  0  0
    5.7364   -1.1279    2.0369 C   0  0  0  0  0  0  0  0  0  0  0  0
    5.3522   -0.5182    0.8389 C   0  0  0  0  0  0  0  0  0  0  0  0
    2.5363    0.5778   -0.7220 N   0  0  0  0  0  0  0  0  0  0  0  0
    2.9973    1.9450   -1.0158 C   0  0  0  0  0  0  0  0  0  0  0  0
    1.9867    2.9653   -0.4665 C   0  0  0  0  0  0  0  0  0  0  0  0
    0.9520    3.3846   -1.5271 C   0  0  0  0  0  0  0  0  0  0  0  0
   -0.3104    4.0019   -0.8962 C   0  0  0  0  0  0  0  0  0  0  0  0
   -1.3485    2.9218   -0.5650 C   0  0  0  0  0  0  0  0  0  0  0  0
   -2.5169    3.4669    0.2642 C   0  0  0  0  0  0  0  0  0  0  0  0
   -3.6117    2.4880    0.3308 N   0  0  0  0  0  0  0  0  0  0  0  0
   -4.9621    2.8769   -0.0723 C   0  0  0  0  0  0  0  0  0  0  0  0
   -3.4410    1.2719    1.0720 C   0  0  0  0  0  0  0  0  0  0  0  0
   -3.7834    1.2312    2.2845 O   0  0  0  0  0  0  0  0  0  0  0  0
   -3.3881   -2.9356    1.9037 H   0  0  0  0  0  0  0  0  0  0  0  0
   -4.8538   -2.7679    2.9447 H   0  0  0  0  0  0  0  0  0  0  0  0
   -3.6318   -1.4802    2.9590 H   0  0  0  0  0  0  0  0  0  0  0  0
   -5.4085   -0.6200    1.5767 H   0  0  0  0  0  0  0  0  0  0  0  0
   -6.6590   -2.7386    1.3479 H   0  0  0  0  0  0  0  0  0  0  0  0
   -6.4996   -1.9135   -0.2372 H   0  0  0  0  0  0  0  0  0  0  0  0
   -5.4577   -3.3440    0.1398 H   0  0  0  0  0  0  0  0  0  0  0  0
   -4.5328   -0.6110   -0.7918 H   0  0  0  0  0  0  0  0  0  0  0  0
   -3.3800   -1.9071   -0.3912 H   0  0  0  0  0  0  0  0  0  0  0  0
   -2.4765    0.4170   -0.5725 H   0  0  0  0  0  0  0  0  0  0  0  0
   -1.8061   -0.4628    2.2063 H   0  0  0  0  0  0  0  0  0  0  0  0
   -0.7356   -2.3887   -0.4818 H   0  0  0  0  0  0  0  0  0  0  0  0
    0.0152    0.2161   -1.9296 H   0  0  0  0  0  0  0  0  0  0  0  0
    0.0078   -1.4024   -2.7388 H   0  0  0  0  0  0  0  0  0  0  0  0
   -1.4942   -0.7772   -2.0716 H   0  0  0  0  0  0  0  0  0  0  0  0
    2.5330   -2.3206    1.2330 H   0  0  0  0  0  0  0  0  0  0  0  0
    0.8742   -3.0156    1.3312 H   0  0  0  0  0  0  0  0  0  0  0  0
    2.0968   -3.7846    0.2541 H   0  0  0  0  0  0  0  0  0  0  0  0
    2.8193   -0.0802   -2.7065 H   0  0  0  0  0  0  0  0  0  0  0  0
    4.9001   -1.2785   -2.4260 H   0  0  0  0  0  0  0  0  0  0  0  0
    5.1018    0.3185   -1.7003 H   0  0  0  0  0  0  0  0  0  0  0  0
    4.8440   -3.3248   -1.0327 H   0  0  0  0  0  0  0  0  0  0  0  0
    5.5241   -4.3861    1.0867 H   0  0  0  0  0  0  0  0  0  0  0  0
    6.0905   -2.9915    3.0550 H   0  0  0  0  0  0  0  0  0  0  0  0
    5.9881   -0.5200    2.8964 H   0  0  0  0  0  0  0  0  0  0  0  0
    5.3159    0.5617    0.7855 H   0  0  0  0  0  0  0  0  0  0  0  0
    2.8342    0.3267    0.2487 H   0  0  0  0  0  0  0  0  0  0  0  0
    3.9809    2.1197   -0.5262 H   0  0  0  0  0  0  0  0  0  0  0  0
    3.1417    2.1070   -2.1080 H   0  0  0  0  0  0  0  0  0  0  0  0
    2.5329    3.8757   -0.1346 H   0  0  0  0  0  0  0  0  0  0  0  0
    1.4838    2.5467    0.4327 H   0  0  0  0  0  0  0  0  0  0  0  0
    1.4266    4.1381   -2.1942 H   0  0  0  0  0  0  0  0  0  0  0  0
    0.6719    2.5192   -2.1666 H   0  0  0  0  0  0  0  0  0  0  0  0
   -0.0428    4.5800    0.0158 H   0  0  0  0  0  0  0  0  0  0  0  0
   -0.7634    4.7122   -1.6214 H   0  0  0  0  0  0  0  0  0  0  0  0
   -0.8569    2.1117    0.0093 H   0  0  0  0  0  0  0  0  0  0  0  0
   -1.7394    2.5005   -1.5163 H   0  0  0  0  0  0  0  0  0  0  0  0
   -2.1655    3.7002    1.2935 H   0  0  0  0  0  0  0  0  0  0  0  0
   -2.8795    4.4165   -0.1870 H   0  0  0  0  0  0  0  0  0  0  0  0
   -5.4216    3.5048    0.7194 H   0  0  0  0  0  0  0  0  0  0  0  0
   -5.5939    1.9774   -0.2364 H   0  0  0  0  0  0  0  0  0  0  0  0
   -4.9270    3.4497   -1.0233 H   0  0  0  0  0  0  0  0  0  0  0  0
  1  2  1  0
  2  3  1  0
  2  4  1  0
  4  5  1  0
  5  6  1  0
  6  7  1  0
  7  8  2  0
  7  9  1  0
  9 10  1  0
  9 11  1  0
 11 12  1  0
 11 13  1  0
 13 14  2  0
 13 15  1  0
 15 16  1  0
 16 17  1  0
 17 18  2  0
 18 19  1  0
 19 20  2  0
 20 21  1  0
 21 22  2  0
 15 23  1  0
 23 24  1  0
 24 25  1  0
 25 26  1  0
 26 27  1  0
 27 28  1  0
 28 29  1  0
 29 30  1  0
 30 31  1  0
 30 32  1  0
 32 33  2  0
 32  5  1  0
 22 17  1  0
  1 34  1  0
  1 35  1  0
  1 36  1  0
  2 37  1  0
  3 38  1  0
  3 39  1  0
  3 40  1  0
  4 41  1  0
  4 42  1  0
  5 43  1  6
  6 44  1  0
  9 45  1  1
 10 46  1  0
 10 47  1  0
 10 48  1  0
 12 49  1  0
 12 50  1  0
 12 51  1  0
 15 52  1  6
 16 53  1  0
 16 54  1  0
 18 55  1  0
 19 56  1  0
 20 57  1  0
 21 58  1  0
 22 59  1  0
 23 60  1  0
 24 61  1  0
 24 62  1  0
 25 63  1  0
 25 64  1  0
 26 65  1  0
 26 66  1  0
 27 67  1  0
 27 68  1  0
 28 69  1  0
 28 70  1  0
 29 71  1  0
 29 72  1  0
 31 73  1  0
 31 74  1  0
 31 75  1  0
M  END
$$$$
