
     RDKit          3D

 84 86  0  0  0  0  0  0  0  0999 V2000
   -4.9758    2.0412    0.9611 C   0  0  0  0  0  0  0  0  0  0  0  0
   -5.2669    0.7125    1.6725 C   0  0  0  0  0  0  0  0  0  0  0  0
   -6.6948    0.2323    1.3678 C   0  0  0  0  0  0  0  0  0  0  0  0
   -4.1964   -0.3787    1.4037 C   0  0  0  0  0  0  0  0  0  0  0  0
   -3.9958   -0.7944   -0.0893 C   0  0  2  0  0  0  0  0  0  0  0  0
   -3.5361   -2.1961   -0.2115 N   0  0  0  0  0  0  0  0  0  0  0  0
   -2.1327   -2.3953    0.1869 C   0  0  0  0  0  0  0  0  0  0  0  0
   -1.7865   -3.8930    0.2155 C   0  0  0  0  0  0  0  0  0  0  0  0
   -0.2891   -4.1585    0.0029 C   0  0  0  0  0  0  0  0  0  0  0  0
    0.6042   -3.4144    1.0075 C   0  0  0  0  0  0  0  0  0  0  0  0
    1.9888   -3.8814    0.9241 N   0  0  0  0  0  0  0  0  0  0  0  0
    2.9351   -3.5136   -0.0972 C   0  0  0  0  0  0  0  0  0  0  0  0
    4.1315   -3.8933    0.0315 O   0  0  0  0  0  0  0  0  0  0  0  0
    2.5501   -2.7398   -1.3406 C   0  0  2  0  0  0  0  0  0  0  0  0
    2.4860   -3.6852   -2.5438 C   0  0  0  0  0  0  0  0  0  0  0  0
    3.5319   -1.6837   -1.5972 N   0  0  0  0  0  0  0  0  0  0  0  0
    3.1653   -0.4916   -2.3029 C   0  0  0  0  0  0  0  0  0  0  0  0
    3.4978   -0.3715   -3.5149 O   0  0  0  0  0  0  0  0  0  0  0  0
    2.5170    0.6799   -1.6045 C   0  0  2  0  0  0  0  0  0  0  0  0
    3.5791    1.6710   -1.0761 C   0  0  0  0  0  0  0  0  0  0  0  0
    4.4332    1.0985    0.0314 C   0  0  0  0  0  0  0  0  0  0  0  0
    4.0323    1.2240    1.3736 C   0  0  0  0  0  0  0  0  0  0  0  0
    4.7972    0.6525    2.3957 C   0  0  0  0  0  0  0  0  0  0  0  0
    5.9766   -0.0409    2.0895 C   0  0  0  0  0  0  0  0  0  0  0  0
    6.7479   -0.6133    3.1014 O   0  0  0  0  0  0  0  0  0  0  0  0
    6.3863   -0.1579    0.7568 C   0  0  0  0  0  0  0  0  0  0  0  0
    5.6208    0.4093   -0.2676 C   0  0  0  0  0  0  0  0  0  0  0  0
    1.6278    0.2436   -0.5240 N   0  0  0  0  0  0  0  0  0  0  0  0
    0.4539    0.9851   -0.1730 C   0  0  0  0  0  0  0  0  0  0  0  0
    0.4020    1.5453    0.9556 O   0  0  0  0  0  0  0  0  0  0  0  0
   -0.7404    1.0418   -1.1028 C   0  0  2  0  0  0  0  0  0  0  0  0
   -0.8299    2.3727   -1.8791 C   0  0  0  0  0  0  0  0  0  0  0  0
   -1.0223    3.5746   -0.9861 C   0  0  0  0  0  0  0  0  0  0  0  0
   -2.3151    3.9961   -0.6346 C   0  0  0  0  0  0  0  0  0  0  0  0
   -2.4923    5.1038    0.1998 C   0  0  0  0  0  0  0  0  0  0  0  0
   -1.3795    5.7963    0.6881 C   0  0  0  0  0  0  0  0  0  0  0  0
   -0.0881    5.3826    0.3429 C   0  0  0  0  0  0  0  0  0  0  0  0
    0.0919    4.2768   -0.4927 C   0  0  0  0  0  0  0  0  0  0  0  0
   -1.9726    0.7964   -0.3449 N   0  0  0  0  0  0  0  0  0  0  0  0
   -3.1130    0.1299   -0.9138 C   0  0  0  0  0  0  0  0  0  0  0  0
   -3.3244    0.2110   -2.1551 O   0  0  0  0  0  0  0  0  0  0  0  0
   -3.9726    2.4185    1.2477 H   0  0  0  0  0  0  0  0  0  0  0  0
   -5.0351    1.9241   -0.1368 H   0  0  0  0  0  0  0  0  0  0  0  0
   -5.7238    2.8069    1.2673 H   0  0  0  0  0  0  0  0  0  0  0  0
   -5.2313    0.9151    2.7670 H   0  0  0  0  0  0  0  0  0  0  0  0
   -6.8559    0.0943    0.2813 H   0  0  0  0  0  0  0  0  0  0  0  0
   -6.8974   -0.7278    1.8880 H   0  0  0  0  0  0  0  0  0  0  0  0
   -7.4314    0.9794    1.7282 H   0  0  0  0  0  0  0  0  0  0  0  0
   -4.5058   -1.2713    1.9899 H   0  0  0  0  0  0  0  0  0  0  0  0
   -3.2375   -0.0779    1.8662 H   0  0  0  0  0  0  0  0  0  0  0  0
   -4.9933   -0.7662   -0.5730 H   0  0  0  0  0  0  0  0  0  0  0  0
   -4.1491   -2.8056    0.3781 H   0  0  0  0  0  0  0  0  0  0  0  0
   -1.4759   -1.8912   -0.5532 H   0  0  0  0  0  0  0  0  0  0  0  0
   -1.9364   -1.9599    1.1892 H   0  0  0  0  0  0  0  0  0  0  0  0
   -2.3410   -4.4160   -0.5924 H   0  0  0  0  0  0  0  0  0  0  0  0
   -2.1153   -4.3337    1.1835 H   0  0  0  0  0  0  0  0  0  0  0  0
   -0.0355   -3.8585   -1.0311 H   0  0  0  0  0  0  0  0  0  0  0  0
   -0.1052   -5.2510    0.0930 H   0  0  0  0  0  0  0  0  0  0  0  0
    0.2219   -3.6105    2.0346 H   0  0  0  0  0  0  0  0  0  0  0  0
    0.5713   -2.3164    0.8520 H   0  0  0  0  0  0  0  0  0  0  0  0
    2.3465   -4.4458    1.7270 H   0  0  0  0  0  0  0  0  0  0  0  0
    1.5553   -2.2760   -1.2191 H   0  0  0  0  0  0  0  0  0  0  0  0
    2.1102   -3.1325   -3.4350 H   0  0  0  0  0  0  0  0  0  0  0  0
    1.8049   -4.5405   -2.3450 H   0  0  0  0  0  0  0  0  0  0  0  0
    3.4959   -4.0864   -2.7733 H   0  0  0  0  0  0  0  0  0  0  0  0
    4.5300   -1.9792   -1.6942 H   0  0  0  0  0  0  0  0  0  0  0  0
    1.9202    1.2146   -2.3716 H   0  0  0  0  0  0  0  0  0  0  0  0
    4.2271    2.0065   -1.9161 H   0  0  0  0  0  0  0  0  0  0  0  0
    3.0678    2.5837   -0.7044 H   0  0  0  0  0  0  0  0  0  0  0  0
    3.1205    1.7520    1.6265 H   0  0  0  0  0  0  0  0  0  0  0  0
    4.4754    0.7497    3.4248 H   0  0  0  0  0  0  0  0  0  0  0  0
    6.4794   -0.5433    4.0781 H   0  0  0  0  0  0  0  0  0  0  0  0
    7.2993   -0.6877    0.5157 H   0  0  0  0  0  0  0  0  0  0  0  0
    5.9527    0.3072   -1.2951 H   0  0  0  0  0  0  0  0  0  0  0  0
    2.0412   -0.3484    0.2309 H   0  0  0  0  0  0  0  0  0  0  0  0
   -0.6147    0.2260   -1.8491 H   0  0  0  0  0  0  0  0  0  0  0  0
    0.0777    2.5161   -2.5014 H   0  0  0  0  0  0  0  0  0  0  0  0
   -1.6708    2.3097   -2.6023 H   0  0  0  0  0  0  0  0  0  0  0  0
   -3.1831    3.4704   -1.0172 H   0  0  0  0  0  0  0  0  0  0  0  0
   -3.4899    5.4221    0.4694 H   0  0  0  0  0  0  0  0  0  0  0  0
   -1.5159    6.6506    1.3370 H   0  0  0  0  0  0  0  0  0  0  0  0
    0.7726    5.9190    0.7248 H   0  0  0  0  0  0  0  0  0  0  0  0
    1.0961    3.9630   -0.7499 H   0  0  0  0  0  0  0  0  0  0  0  0
   -2.0542    1.2228    0.6035 H   0  0  0  0  0  0  0  0  0  0  0  0
  1  2  1  0
  2  3  1  0
  2  4  1  0
  4  5  1  0
  5  6  1  0
  6  7  1  0
  7  8  1  0
  8  9  1  0
  9 10  1  0
 10 11  1  0
 11 12  1  0
 12 13  2  0
 12 14  1  0
 14 15  1  0
 14 16  1  0
 16 17  1  0
 17 18  2  0
 17 19  1  0
 19 20  1  0
 20 21  1  0
 21 22  2  0
 22 23  1  0
 23 24  2  0
 24 25  1  0
 24 26  1  0
 26 27  2  0
 19 28  1  0
 28 29  1  0
 29 30  2  0
 29 31  1  0
 31 32  1  0
 32 33  1  0
 33 34  2  0
 34 35  1  0
 35 36  2  0
 36 37  1  0
 37 38  2  0
 31 39  1  0
 39 40  1  0
 40 41  2  0
 40  5  1  0
 27 21  1  0
 38 33  1  0
  1 42  1  0
  1 43  1  0
  1 44  1  0
  2 45  1  0
  3 46  1  0
  3 47  1  0
  3 48  1  0
  4 49  1  0
  4 50  1  0
  5 51  1  6
  6 52  1  0
  7 53  1  0
  7 54  1  0
  8 55  1  0
  8 56  1  0
  9 57  1  0
  9 58  1  0
 10 59  1  0
 10 60  1  0
 11 61  1  0
 14 62  1  1
 15 63  1  0
 15 64  1  0
 15 65  1  0
 16 66  1  0
 19 67  1  6
 20 68  1  0
 20 69  1  0
 22 70  1  0
 23 71  1  0
 25 72  1  0
 26 73  1  0
 27 74  1  0
 28 75  1  0
 31 76  1  6
 32 77  1  0
 32 78  1  0
 34 79  1  0
 35 80  1  0
 36 81  1  0
 37 82  1  0
 38 83  1  0
 39 84  1  0
M  END
$$$$
