
     RDKit          3D

 73 76  0  0  0  0  0  0  0  0999 V2000
    6.1786    1.0818    0.3823 C   0  0  0  0  0  0  0  0  0  0  0  0
    4.6979    0.6742    0.4030 C   0  0  0  0  0  0  0  0  0  0  0  0
    3.9734    1.4182    1.5403 C   0  0  0  0  0  0  0  0  0  0  0  0
    4.0318    0.8472   -1.0067 C   0  0  2  0  0  0  0  0  0  0  0  0
    3.2013    2.0569   -1.1030 N   0  0  0  0  0  0  0  0  0  0  0  0
    3.7703    3.3804   -1.1658 C   0  0  0  0  0  0  0  0  0  0  0  0
    4.9747    3.5262   -1.5091 O   0  0  0  0  0  0  0  0  0  0  0  0
    2.9564    4.6163   -0.8814 C   0  0  0  0  0  0  0  0  0  0  0  0
    1.5914    4.3037   -0.3360 C   0  0  0  0  0  0  0  0  0  0  0  0
    0.4797    4.7536   -0.9245 C   0  0  0  0  0  0  0  0  0  0  0  0
   -0.8628    4.3340   -0.4868 C   0  0  0  0  0  0  0  0  0  0  0  0
   -1.1230    3.0091   -0.1016 C   0  0  0  0  0  0  0  0  0  0  0  0
   -2.4307    2.6283    0.2220 C   0  0  0  0  0  0  0  0  0  0  0  0
   -2.7297    1.2992    0.5541 C   0  0  0  0  0  0  0  0  0  0  0  0
   -4.0508    0.9053    0.8397 C   0  0  0  0  0  0  0  0  0  0  0  0
   -5.0595    1.8928    0.8605 C   0  0  0  0  0  0  0  0  0  0  0  0
   -4.7674    3.2200    0.5318 C   0  0  0  0  0  0  0  0  0  0  0  0
   -3.4606    3.5901    0.1932 C   0  0  0  0  0  0  0  0  0  0  0  0
   -3.1554    4.9009   -0.1920 C   0  0  0  0  0  0  0  0  0  0  0  0
   -1.8836    5.2325   -0.5356 N   0  0  0  0  0  0  0  0  0  0  0  0
   -4.3104   -0.5653    1.1392 C   0  0  1  0  0  0  0  0  0  0  0  0
   -5.8014   -0.9316    1.2459 C   0  0  0  0  0  0  0  0  0  0  0  0
   -3.7000   -1.3500    0.1096 O   0  0  0  0  0  0  0  0  0  0  0  0
   -3.3881   -2.7080    0.2436 C   0  0  0  0  0  0  0  0  0  0  0  0
   -3.6872   -3.3306    1.2988 O   0  0  0  0  0  0  0  0  0  0  0  0
   -2.6736   -3.4035   -0.8907 C   0  0  2  0  0  0  0  0  0  0  0  0
   -2.7228   -4.9461   -0.8091 C   0  0  0  0  0  0  0  0  0  0  0  0
   -1.6044   -5.5606    0.0544 C   0  0  0  0  0  0  0  0  0  0  0  0
   -0.8192   -4.5319    0.8704 C   0  0  0  0  0  0  0  0  0  0  0  0
   -0.4772   -3.3586    0.0568 N   0  0  0  0  0  0  0  0  0  0  0  0
   -1.2906   -2.9126   -1.0104 N   0  0  0  0  0  0  0  0  0  0  0  0
    0.6773   -2.5886    0.4149 C   0  0  0  0  0  0  0  0  0  0  0  0
    0.8601   -2.2669    1.6204 O   0  0  0  0  0  0  0  0  0  0  0  0
    1.7480   -2.2969   -0.6097 C   0  0  2  0  0  0  0  0  0  0  0  0
    2.9056   -3.2843   -0.4082 C   0  0  0  0  0  0  0  0  0  0  0  0
    2.2274   -0.9128   -0.4967 N   0  0  0  0  0  0  0  0  0  0  0  0
    3.2170   -0.3706   -1.3883 C   0  0  0  0  0  0  0  0  0  0  0  0
    3.4165   -0.9149   -2.5074 O   0  0  0  0  0  0  0  0  0  0  0  0
    6.2916    2.1661    0.1823 H   0  0  0  0  0  0  0  0  0  0  0  0
    6.6508    0.8580    1.3621 H   0  0  0  0  0  0  0  0  0  0  0  0
    6.7273    0.5084   -0.3955 H   0  0  0  0  0  0  0  0  0  0  0  0
    4.6867   -0.4060    0.6688 H   0  0  0  0  0  0  0  0  0  0  0  0
    4.4011    1.1180    2.5193 H   0  0  0  0  0  0  0  0  0  0  0  0
    2.8934    1.1808    1.5547 H   0  0  0  0  0  0  0  0  0  0  0  0
    4.0904    2.5172    1.4359 H   0  0  0  0  0  0  0  0  0  0  0  0
    4.8332    0.9272   -1.7781 H   0  0  0  0  0  0  0  0  0  0  0  0
    2.1628    1.9446   -1.0997 H   0  0  0  0  0  0  0  0  0  0  0  0
    2.8819    5.2099   -1.8203 H   0  0  0  0  0  0  0  0  0  0  0  0
    3.4951    5.2336   -0.1327 H   0  0  0  0  0  0  0  0  0  0  0  0
    1.5265    3.6607    0.5341 H   0  0  0  0  0  0  0  0  0  0  0  0
    0.5503    5.4687   -1.7363 H   0  0  0  0  0  0  0  0  0  0  0  0
   -0.3295    2.2725   -0.0987 H   0  0  0  0  0  0  0  0  0  0  0  0
   -1.9379    0.5605    0.5639 H   0  0  0  0  0  0  0  0  0  0  0  0
   -6.0795    1.6552    1.1135 H   0  0  0  0  0  0  0  0  0  0  0  0
   -5.5661    3.9522    0.5329 H   0  0  0  0  0  0  0  0  0  0  0  0
   -3.9286    5.6576   -0.2368 H   0  0  0  0  0  0  0  0  0  0  0  0
   -3.8217   -0.7976    2.1113 H   0  0  0  0  0  0  0  0  0  0  0  0
   -6.3345   -0.6617    0.3103 H   0  0  0  0  0  0  0  0  0  0  0  0
   -5.9215   -2.0231    1.4078 H   0  0  0  0  0  0  0  0  0  0  0  0
   -6.2652   -0.4153    2.1160 H   0  0  0  0  0  0  0  0  0  0  0  0
   -3.2208   -3.1097   -1.8148 H   0  0  0  0  0  0  0  0  0  0  0  0
   -2.6192   -5.3540   -1.8426 H   0  0  0  0  0  0  0  0  0  0  0  0
   -3.7234   -5.2826   -0.4471 H   0  0  0  0  0  0  0  0  0  0  0  0
   -2.0426   -6.3128    0.7481 H   0  0  0  0  0  0  0  0  0  0  0  0
   -0.8879   -6.1015   -0.6089 H   0  0  0  0  0  0  0  0  0  0  0  0
    0.1097   -5.0199    1.2395 H   0  0  0  0  0  0  0  0  0  0  0  0
   -1.3965   -4.2133    1.7623 H   0  0  0  0  0  0  0  0  0  0  0  0
   -0.8788   -3.2726   -1.9049 H   0  0  0  0  0  0  0  0  0  0  0  0
    1.3304   -2.4494   -1.6263 H   0  0  0  0  0  0  0  0  0  0  0  0
    3.6599   -3.1805   -1.2166 H   0  0  0  0  0  0  0  0  0  0  0  0
    3.4010   -3.1100    0.5740 H   0  0  0  0  0  0  0  0  0  0  0  0
    2.5251   -4.3281   -0.4366 H   0  0  0  0  0  0  0  0  0  0  0  0
    1.8273   -0.2900    0.2410 H   0  0  0  0  0  0  0  0  0  0  0  0
  1  2  1  0
  2  3  1  0
  2  4  1  0
  4  5  1  0
  5  6  1  0
  6  7  2  0
  6  8  1  0
  8  9  1  0
  9 10  2  0
 10 11  1  0
 11 12  2  0
 12 13  1  0
 13 14  2  0
 14 15  1  0
 15 16  2  0
 16 17  1  0
 17 18  2  0
 18 19  1  0
 19 20  2  0
 15 21  1  0
 21 22  1  0
 21 23  1  0
 23 24  1  0
 24 25  2  0
 24 26  1  0
 26 27  1  0
 27 28  1  0
 28 29  1  0
 29 30  1  0
 30 31  1  0
 30 32  1  0
 32 33  2  0
 32 34  1  0
 34 35  1  0
 34 36  1  0
 36 37  1  0
 37 38  2  0
 37  4  1  0
 20 11  1  0
 31 26  1  0
 18 13  1  0
  1 39  1  0
  1 40  1  0
  1 41  1  0
  2 42  1  0
  3 43  1  0
  3 44  1  0
  3 45  1  0
  4 46  1  6
  5 47  1  0
  8 48  1  0
  8 49  1  0
  9 50  1  0
 10 51  1  0
 12 52  1  0
 14 53  1  0
 16 54  1  0
 17 55  1  0
 19 56  1  0
 21 57  1  1
 22 58  1  0
 22 59  1  0
 22 60  1  0
 26 61  1  6
 27 62  1  0
 27 63  1  0
 28 64  1  0
 28 65  1  0
 29 66  1  0
 29 67  1  0
 31 68  1  0
 34 69  1  6
 35 70  1  0
 35 71  1  0
 35 72  1  0
 36 73  1  0
M  END
$$$$
