
     RDKit          3D

 84 86  0  0  0  0  0  0  0  0999 V2000
    7.4695   -1.8146    2.5582 C   0  0  0  0  0  0  0  0  0  0  0  0
    6.9734   -0.3875    2.7890 C   0  0  0  0  0  0  0  0  0  0  0  0
    5.9794    0.0751    1.7121 C   0  0  0  0  0  0  0  0  0  0  0  0
    4.5937   -0.5648    1.8723 C   0  0  0  0  0  0  0  0  0  0  0  0
    3.6805   -0.0631    0.8344 N   0  0  0  0  0  0  0  0  0  0  0  0
    3.4019   -0.9225   -0.3290 C   0  0  0  0  0  0  0  0  0  0  0  0
    2.0764   -1.6545   -0.1474 C   0  0  0  0  0  0  0  0  0  0  0  0
    1.7277   -2.3123   -1.3610 O   0  0  0  0  0  0  0  0  0  0  0  0
    0.4638   -2.8172   -1.7295 C   0  0  0  0  0  0  0  0  0  0  0  0
    0.3432   -3.2547   -3.0567 C   0  0  0  0  0  0  0  0  0  0  0  0
   -0.8675   -3.7441   -3.5489 C   0  0  0  0  0  0  0  0  0  0  0  0
   -1.9801   -3.8191   -2.7153 C   0  0  0  0  0  0  0  0  0  0  0  0
   -1.8841   -3.4060   -1.3861 C   0  0  0  0  0  0  0  0  0  0  0  0
   -0.6770   -2.8989   -0.8756 C   0  0  0  0  0  0  0  0  0  0  0  0
   -0.6472   -2.5602    0.5575 C   0  0  0  0  0  0  0  0  0  0  0  0
   -0.0341   -3.3275    1.3472 O   0  0  0  0  0  0  0  0  0  0  0  0
   -1.3326   -1.4121    1.0867 N   0  0  0  0  0  0  0  0  0  0  0  0
   -2.0243   -0.4009    0.2694 C   0  0  0  0  0  0  0  0  0  0  0  0
   -3.2958    0.0632    0.9400 C   0  0  0  0  0  0  0  0  0  0  0  0
   -3.4386   -0.0503    2.1887 O   0  0  0  0  0  0  0  0  0  0  0  0
   -4.3236    0.6851    0.1547 N   0  0  0  0  0  0  0  0  0  0  0  0
   -5.5837    1.1495    0.7324 C   0  0  0  0  0  0  0  0  0  0  0  0
   -6.5305   -0.0326    0.9837 C   0  0  0  0  0  0  0  0  0  0  0  0
   -7.8601    0.4549    1.6238 C   0  0  0  0  0  0  0  0  0  0  0  0
   -8.8866    0.4862    0.6550 O   0  0  0  0  0  0  0  0  0  0  0  0
   -9.1369   -0.8250    0.1741 C   0  0  0  0  0  0  0  0  0  0  0  0
   -7.8352   -1.5983   -0.1285 C   0  0  0  0  0  0  0  0  0  0  0  0
   -6.7555   -0.6996   -0.2507 O   0  0  0  0  0  0  0  0  0  0  0  0
   -1.1033    0.7966   -0.0496 C   0  0  0  0  0  0  0  0  0  0  0  0
   -0.3826    1.3670    1.1880 C   0  0  0  0  0  0  0  0  0  0  0  0
    0.1593    2.7467    0.9270 C   0  0  0  0  0  0  0  0  0  0  0  0
   -0.5665    3.7365    1.2100 O   0  0  0  0  0  0  0  0  0  0  0  0
    1.4636    2.9836    0.3696 N   0  0  0  0  0  0  0  0  0  0  0  0
    2.3592    1.9400   -0.1541 C   0  0  0  0  0  0  0  0  0  0  0  0
    3.3927    2.5518   -1.1339 C   0  0  0  0  0  0  0  0  0  0  0  0
    2.8477    2.7314   -2.5725 C   0  0  0  0  0  0  0  0  0  0  0  0
    3.9837    3.1512   -3.5133 C   0  0  0  0  0  0  0  0  0  0  0  0
    1.7075    3.7576   -2.6445 C   0  0  0  0  0  0  0  0  0  0  0  0
    3.0870    1.2527    0.9833 C   0  0  0  0  0  0  0  0  0  0  0  0
    3.2393    1.8814    2.0667 O   0  0  0  0  0  0  0  0  0  0  0  0
    8.2575   -2.0541    3.3033 H   0  0  0  0  0  0  0  0  0  0  0  0
    6.6446   -2.5447    2.6800 H   0  0  0  0  0  0  0  0  0  0  0  0
    7.9035   -1.9149    1.5409 H   0  0  0  0  0  0  0  0  0  0  0  0
    6.5132   -0.3095    3.7978 H   0  0  0  0  0  0  0  0  0  0  0  0
    7.8539    0.2909    2.7675 H   0  0  0  0  0  0  0  0  0  0  0  0
    6.3824   -0.1505    0.6999 H   0  0  0  0  0  0  0  0  0  0  0  0
    5.8734    1.1788    1.7910 H   0  0  0  0  0  0  0  0  0  0  0  0
    4.1806   -0.3452    2.8810 H   0  0  0  0  0  0  0  0  0  0  0  0
    4.6790   -1.6689    1.8028 H   0  0  0  0  0  0  0  0  0  0  0  0
    3.3895   -0.3265   -1.2643 H   0  0  0  0  0  0  0  0  0  0  0  0
    4.2095   -1.6761   -0.4598 H   0  0  0  0  0  0  0  0  0  0  0  0
    1.3005   -0.9173    0.1150 H   0  0  0  0  0  0  0  0  0  0  0  0
    2.1880   -2.3994    0.6675 H   0  0  0  0  0  0  0  0  0  0  0  0
    1.1977   -3.2023   -3.7196 H   0  0  0  0  0  0  0  0  0  0  0  0
   -0.9407   -4.0706   -4.5791 H   0  0  0  0  0  0  0  0  0  0  0  0
   -2.9155   -4.2069   -3.0962 H   0  0  0  0  0  0  0  0  0  0  0  0
   -2.7563   -3.4883   -0.7475 H   0  0  0  0  0  0  0  0  0  0  0  0
   -1.2078   -1.2252    2.1078 H   0  0  0  0  0  0  0  0  0  0  0  0
   -2.3302   -0.8478   -0.6987 H   0  0  0  0  0  0  0  0  0  0  0  0
   -4.1519    0.8541   -0.8623 H   0  0  0  0  0  0  0  0  0  0  0  0
   -6.0682    1.8590    0.0258 H   0  0  0  0  0  0  0  0  0  0  0  0
   -5.3791    1.6991    1.6764 H   0  0  0  0  0  0  0  0  0  0  0  0
   -6.0298   -0.7311    1.6907 H   0  0  0  0  0  0  0  0  0  0  0  0
   -8.1471   -0.2146    2.4669 H   0  0  0  0  0  0  0  0  0  0  0  0
   -7.7535    1.4712    2.0625 H   0  0  0  0  0  0  0  0  0  0  0  0
   -9.7605   -1.3859    0.9048 H   0  0  0  0  0  0  0  0  0  0  0  0
   -9.7260   -0.7345   -0.7636 H   0  0  0  0  0  0  0  0  0  0  0  0
   -7.9474   -2.1593   -1.0799 H   0  0  0  0  0  0  0  0  0  0  0  0
   -7.6310   -2.3473    0.6699 H   0  0  0  0  0  0  0  0  0  0  0  0
   -0.3565    0.4725   -0.8023 H   0  0  0  0  0  0  0  0  0  0  0  0
   -1.7070    1.5966   -0.5343 H   0  0  0  0  0  0  0  0  0  0  0  0
   -1.0975    1.4329    2.0378 H   0  0  0  0  0  0  0  0  0  0  0  0
    0.4342    0.6921    1.5145 H   0  0  0  0  0  0  0  0  0  0  0  0
    1.7805    3.9784    0.3336 H   0  0  0  0  0  0  0  0  0  0  0  0
    1.7541    1.2005   -0.7066 H   0  0  0  0  0  0  0  0  0  0  0  0
    3.7722    3.5219   -0.7413 H   0  0  0  0  0  0  0  0  0  0  0  0
    4.2770    1.8776   -1.1937 H   0  0  0  0  0  0  0  0  0  0  0  0
    2.4591    1.7535   -2.9347 H   0  0  0  0  0  0  0  0  0  0  0  0
    4.4074    4.1305   -3.2046 H   0  0  0  0  0  0  0  0  0  0  0  0
    3.6087    3.2346   -4.5551 H   0  0  0  0  0  0  0  0  0  0  0  0
    4.7934    2.3907   -3.5025 H   0  0  0  0  0  0  0  0  0  0  0  0
    2.0196    4.7224   -2.1909 H   0  0  0  0  0  0  0  0  0  0  0  0
    1.4150    3.9387   -3.7013 H   0  0  0  0  0  0  0  0  0  0  0  0
    0.8076    3.3799   -2.1185 H   0  0  0  0  0  0  0  0  0  0  0  0
  1  2  1  0
  2  3  1  0
  3  4  1  0
  4  5  1  0
  5  6  1  0
  6  7  1  0
  7  8  1  0
  8  9  1  0
  9 10  2  0
 10 11  1  0
 11 12  2  0
 12 13  1  0
 13 14  2  0
 14 15  1  0
 15 16  2  0
 15 17  1  0
 17 18  1  0
 18 19  1  0
 19 20  2  0
 19 21  1  0
 21 22  1  0
 22 23  1  0
 23 24  1  0
 24 25  1  0
 25 26  1  0
 26 27  1  0
 27 28  1  0
 18 29  1  0
 29 30  1  0
 30 31  1  0
 31 32  2  0
 31 33  1  0
 33 34  1  0
 34 35  1  0
 35 36  1  0
 36 37  1  0
 36 38  1  0
 34 39  1  0
 39 40  2  0
 39  5  1  0
 14  9  1  0
 28 23  1  0
  1 41  1  0
  1 42  1  0
  1 43  1  0
  2 44  1  0
  2 45  1  0
  3 46  1  0
  3 47  1  0
  4 48  1  0
  4 49  1  0
  6 50  1  0
  6 51  1  0
  7 52  1  0
  7 53  1  0
 10 54  1  0
 11 55  1  0
 12 56  1  0
 13 57  1  0
 17 58  1  0
 18 59  1  0
 21 60  1  0
 22 61  1  0
 22 62  1  0
 23 63  1  0
 24 64  1  0
 24 65  1  0
 26 66  1  0
 26 67  1  0
 27 68  1  0
 27 69  1  0
 29 70  1  0
 29 71  1  0
 30 72  1  0
 30 73  1  0
 33 74  1  0
 34 75  1  0
 35 76  1  0
 35 77  1  0
 36 78  1  0
 37 79  1  0
 37 80  1  0
 37 81  1  0
 38 82  1  0
 38 83  1  0
 38 84  1  0
M  END
$$$$
