
     RDKit          3D

 63 66  0  0  0  0  0  0  0  0999 V2000
   -2.6008   -0.8320    2.6578 O   0  0  0  0  0  0  0  0  0  0  0  0
   -2.4095   -0.2912    1.5357 C   0  0  0  0  0  0  0  0  0  0  0  0
   -1.0534    0.2804    1.2351 C   0  0  0  0  0  0  0  0  0  0  0  0
   -0.2869   -0.6090    0.3297 N   0  0  0  0  0  0  0  0  0  0  0  0
    0.4674   -1.6541    1.0590 C   0  0  0  0  0  0  0  0  0  0  0  0
   -0.4422   -2.7896    1.4462 C   0  0  0  0  0  0  0  0  0  0  0  0
   -0.5181   -3.2232    2.7808 C   0  0  0  0  0  0  0  0  0  0  0  0
   -1.3578   -4.2858    3.1285 C   0  0  0  0  0  0  0  0  0  0  0  0
   -2.1200   -4.9266    2.1477 C   0  0  0  0  0  0  0  0  0  0  0  0
   -2.0411   -4.5087    0.8167 C   0  0  0  0  0  0  0  0  0  0  0  0
   -1.2026   -3.4476    0.4642 C   0  0  0  0  0  0  0  0  0  0  0  0
    0.5350    0.0963   -0.6907 C   0  0  0  0  0  0  0  0  0  0  0  0
    1.2980    1.3196   -0.1782 C   0  0  0  0  0  0  0  0  0  0  0  0
    0.7186    2.6050   -0.3293 C   0  0  0  0  0  0  0  0  0  0  0  0
    1.3847    3.7375    0.1699 C   0  0  0  0  0  0  0  0  0  0  0  0
    2.6076    3.6047    0.8226 C   0  0  0  0  0  0  0  0  0  0  0  0
    3.1947    2.3498    0.9626 C   0  0  0  0  0  0  0  0  0  0  0  0
    2.5667    1.2065    0.4488 C   0  0  0  0  0  0  0  0  0  0  0  0
    3.2924   -0.0699    0.5384 C   0  0  0  0  0  0  0  0  0  0  0  0
    3.5251   -0.5804    1.6661 O   0  0  0  0  0  0  0  0  0  0  0  0
    3.8025   -0.6945   -0.6381 N   0  0  0  0  0  0  0  0  0  0  0  0
    4.4681   -1.9620   -0.9867 C   0  0  0  0  0  0  0  0  0  0  0  0
    4.6858   -1.6318   -2.4291 C   0  0  0  0  0  0  0  0  0  0  0  0
    3.8915   -2.4078   -3.2838 O   0  0  0  0  0  0  0  0  0  0  0  0
    4.0185   -0.3481   -2.0560 C   0  0  0  0  0  0  0  0  0  0  0  0
   -0.5281    2.7106   -0.9668 O   0  0  0  0  0  0  0  0  0  0  0  0
   -1.3221    3.8880   -1.0616 C   0  0  0  0  0  0  0  0  0  0  0  0
   -2.7253    3.4990   -1.5363 C   0  0  0  0  0  0  0  0  0  0  0  0
   -3.5873    2.8862   -0.4043 C   0  0  0  0  0  0  0  0  0  0  0  0
   -4.3260    1.6075   -0.8399 C   0  0  0  0  0  0  0  0  0  0  0  0
   -3.4482    0.3462   -0.7470 C   0  0  0  0  0  0  0  0  0  0  0  0
   -3.5016   -0.2301    0.6010 N   0  0  0  0  0  0  0  0  0  0  0  0
   -0.4984    0.4718    2.1805 H   0  0  0  0  0  0  0  0  0  0  0  0
   -1.2278    1.2686    0.7936 H   0  0  0  0  0  0  0  0  0  0  0  0
    0.9767   -1.2254    1.9499 H   0  0  0  0  0  0  0  0  0  0  0  0
    1.2625   -2.0994    0.4227 H   0  0  0  0  0  0  0  0  0  0  0  0
    0.0665   -2.7371    3.5519 H   0  0  0  0  0  0  0  0  0  0  0  0
   -1.4171   -4.6131    4.1585 H   0  0  0  0  0  0  0  0  0  0  0  0
   -2.7682   -5.7497    2.4184 H   0  0  0  0  0  0  0  0  0  0  0  0
   -2.6288   -5.0081    0.0572 H   0  0  0  0  0  0  0  0  0  0  0  0
   -1.1478   -3.1351   -0.5715 H   0  0  0  0  0  0  0  0  0  0  0  0
    1.2284   -0.6085   -1.1887 H   0  0  0  0  0  0  0  0  0  0  0  0
   -0.1318    0.3918   -1.5254 H   0  0  0  0  0  0  0  0  0  0  0  0
    0.9631    4.7268    0.0581 H   0  0  0  0  0  0  0  0  0  0  0  0
    3.1113    4.4815    1.2090 H   0  0  0  0  0  0  0  0  0  0  0  0
    4.1603    2.2729    1.4486 H   0  0  0  0  0  0  0  0  0  0  0  0
    5.4251   -2.0710   -0.4303 H   0  0  0  0  0  0  0  0  0  0  0  0
    3.7836   -2.8249   -0.8256 H   0  0  0  0  0  0  0  0  0  0  0  0
    5.7499   -1.5276   -2.7405 H   0  0  0  0  0  0  0  0  0  0  0  0
    4.3927   -3.2528   -3.4227 H   0  0  0  0  0  0  0  0  0  0  0  0
    4.7025    0.5250   -2.1464 H   0  0  0  0  0  0  0  0  0  0  0  0
    3.0551   -0.1784   -2.5850 H   0  0  0  0  0  0  0  0  0  0  0  0
   -0.8579    4.5795   -1.7970 H   0  0  0  0  0  0  0  0  0  0  0  0
   -1.3870    4.3993   -0.0759 H   0  0  0  0  0  0  0  0  0  0  0  0
   -3.2350    4.4088   -1.9228 H   0  0  0  0  0  0  0  0  0  0  0  0
   -2.6243    2.7988   -2.3947 H   0  0  0  0  0  0  0  0  0  0  0  0
   -2.9910    2.6777    0.5076 H   0  0  0  0  0  0  0  0  0  0  0  0
   -4.3463    3.6401   -0.1017 H   0  0  0  0  0  0  0  0  0  0  0  0
   -4.6948    1.7285   -1.8815 H   0  0  0  0  0  0  0  0  0  0  0  0
   -5.2276    1.4742   -0.2027 H   0  0  0  0  0  0  0  0  0  0  0  0
   -2.4123    0.5633   -1.0664 H   0  0  0  0  0  0  0  0  0  0  0  0
   -3.8443   -0.4113   -1.4571 H   0  0  0  0  0  0  0  0  0  0  0  0
   -4.4228   -0.6114    0.9168 H   0  0  0  0  0  0  0  0  0  0  0  0
  1  2  2  0
  2  3  1  0
  3  4  1  0
  4  5  1  0
  5  6  1  0
  6  7  2  0
  7  8  1  0
  8  9  2  0
  9 10  1  0
 10 11  2  0
  4 12  1  0
 12 13  1  0
 13 14  2  0
 14 15  1  0
 15 16  2  0
 16 17  1  0
 17 18  2  0
 18 19  1  0
 19 20  2  0
 19 21  1  0
 21 22  1  0
 22 23  1  0
 23 24  1  0
 23 25  1  0
 14 26  1  0
 26 27  1  0
 27 28  1  0
 28 29  1  0
 29 30  1  0
 30 31  1  0
 31 32  1  0
 32  2  1  0
 11  6  1  0
 18 13  1  0
 25 21  1  0
  3 33  1  0
  3 34  1  0
  5 35  1  0
  5 36  1  0
  7 37  1  0
  8 38  1  0
  9 39  1  0
 10 40  1  0
 11 41  1  0
 12 42  1  0
 12 43  1  0
 15 44  1  0
 16 45  1  0
 17 46  1  0
 22 47  1  0
 22 48  1  0
 23 49  1  0
 24 50  1  0
 25 51  1  0
 25 52  1  0
 27 53  1  0
 27 54  1  0
 28 55  1  0
 28 56  1  0
 29 57  1  0
 29 58  1  0
 30 59  1  0
 30 60  1  0
 31 61  1  0
 31 62  1  0
 32 63  1  0
M  END
$$$$
