
     RDKit          3D

138143  0  0  0  0  0  0  0  0999 V2000
   -6.8796    1.4680   -0.5003 O   0  0  0  0  0  0  0  0  0  0  0  0
   -7.4338    0.5059    0.0988 C   0  0  0  0  0  0  0  0  0  0  0  0
   -6.6313   -0.5597    0.6355 N   0  0  0  0  0  0  0  0  0  0  0  0
   -5.1717   -0.5710    0.5114 C   0  0  1  0  0  0  0  0  0  0  0  0
   -4.5628   -1.2876    1.7031 C   0  0  0  0  0  0  0  0  0  0  0  0
   -4.7200   -2.5359    1.8028 O   0  0  0  0  0  0  0  0  0  0  0  0
   -3.8482   -0.6018    2.7493 N   0  0  0  0  0  0  0  0  0  0  0  0
   -3.5928    0.8424    2.7908 C   0  0  1  0  0  0  0  0  0  0  0  0
   -4.8433    1.5905    3.2697 C   0  0  0  0  0  0  0  0  0  0  0  0
   -2.4040    1.1376    3.6756 C   0  0  0  0  0  0  0  0  0  0  0  0
   -2.5637    1.2661    4.9216 O   0  0  0  0  0  0  0  0  0  0  0  0
   -1.0897    1.2899    3.1092 N   0  0  0  0  0  0  0  0  0  0  0  0
   -0.2926    2.4353    3.5569 C   0  0  0  0  0  0  0  0  0  0  0  0
   -0.5954    0.3413    2.0910 C   0  0  2  0  0  0  0  0  0  0  0  0
    0.4638   -0.5885    2.6424 C   0  0  0  0  0  0  0  0  0  0  0  0
    0.5925   -1.7288    2.1240 O   0  0  0  0  0  0  0  0  0  0  0  0
    1.3426   -0.2176    3.7234 N   0  0  0  0  0  0  0  0  0  0  0  0
    1.0617   -0.8980    4.9884 C   0  0  0  0  0  0  0  0  0  0  0  0
    2.7099    0.2217    3.3300 C   0  0  1  0  0  0  0  0  0  0  0  0
    3.5714    0.9294    4.4326 C   0  0  0  0  0  0  0  0  0  0  0  0
    2.8612    2.1113    5.1076 C   0  0  0  0  0  0  0  0  0  0  0  0
    4.2227   -0.0009    5.4746 C   0  0  0  0  0  0  0  0  0  0  0  0
    3.4820   -0.9239    2.6941 C   0  0  0  0  0  0  0  0  0  0  0  0
    3.4608   -2.0582    3.2406 O   0  0  0  0  0  0  0  0  0  0  0  0
    4.2630   -0.7673    1.5413 O   0  0  0  0  0  0  0  0  0  0  0  0
    4.3521    0.4296    0.7679 C   0  0  0  0  0  0  0  0  0  0  0  0
    5.2791    0.2252   -0.4359 C   0  0  1  0  0  0  0  0  0  0  0  0
    6.6610    0.0385    0.0209 N   0  0  0  0  0  0  0  0  0  0  0  0
    7.7382    0.9026   -0.3801 C   0  0  0  0  0  0  0  0  0  0  0  0
    7.4851    2.0371   -0.8715 O   0  0  0  0  0  0  0  0  0  0  0  0
    9.1432    0.4689   -0.2234 C   0  0  0  0  0  0  0  0  0  0  0  0
    9.4210   -0.7970    0.1961 N   0  0  0  0  0  0  0  0  0  0  0  0
   10.7000   -1.2391    0.3272 C   0  0  0  0  0  0  0  0  0  0  0  0
   11.7646   -0.3663    0.0214 C   0  0  0  0  0  0  0  0  0  0  0  0
   11.4899    0.8962   -0.3945 N   0  0  0  0  0  0  0  0  0  0  0  0
   10.2094    1.3341   -0.5252 C   0  0  0  0  0  0  0  0  0  0  0  0
   13.0881   -0.8070    0.1429 C   0  0  0  0  0  0  0  0  0  0  0  0
   13.3487   -2.1136    0.5698 C   0  0  0  0  0  0  0  0  0  0  0  0
   12.2921   -2.9797    0.8748 C   0  0  0  0  0  0  0  0  0  0  0  0
   10.9667   -2.5437    0.7539 C   0  0  0  0  0  0  0  0  0  0  0  0
    4.8569   -0.9762   -1.2612 C   0  0  0  0  0  0  0  0  0  0  0  0
    5.0597   -2.1302   -0.7920 O   0  0  0  0  0  0  0  0  0  0  0  0
    4.2423   -0.8709   -2.5569 N   0  0  0  0  0  0  0  0  0  0  0  0
    3.8393    0.3817   -3.2069 C   0  0  1  0  0  0  0  0  0  0  0  0
    5.0334    1.0220   -3.9239 C   0  0  0  0  0  0  0  0  0  0  0  0
    2.7384    0.1085   -4.2005 C   0  0  0  0  0  0  0  0  0  0  0  0
    2.9248   -0.6971   -5.1517 O   0  0  0  0  0  0  0  0  0  0  0  0
    1.4664    0.7508   -4.0651 N   0  0  0  0  0  0  0  0  0  0  0  0
    1.2910    2.0710   -4.6717 C   0  0  0  0  0  0  0  0  0  0  0  0
    0.3863    0.0744   -3.3280 C   0  0  2  0  0  0  0  0  0  0  0  0
   -0.7484   -0.2675   -4.2803 C   0  0  0  0  0  0  0  0  0  0  0  0
   -0.4675   -0.9022   -5.3300 O   0  0  0  0  0  0  0  0  0  0  0  0
   -2.1069    0.1563   -4.0696 N   0  0  0  0  0  0  0  0  0  0  0  0
   -2.4841    1.4644   -4.6249 C   0  0  0  0  0  0  0  0  0  0  0  0
   -3.1484   -0.7171   -3.4685 C   0  0  1  0  0  0  0  0  0  0  0  0
   -3.7763   -1.7461   -4.4650 C   0  0  0  0  0  0  0  0  0  0  0  0
   -4.1669   -1.0976   -5.8011 C   0  0  0  0  0  0  0  0  0  0  0  0
   -2.9495   -3.0211   -4.7115 C   0  0  0  0  0  0  0  0  0  0  0  0
   -2.6833   -1.3720   -2.1825 C   0  0  0  0  0  0  0  0  0  0  0  0
   -1.6491   -2.0897   -2.1877 O   0  0  0  0  0  0  0  0  0  0  0  0
   -3.3500   -1.1780   -0.9663 O   0  0  0  0  0  0  0  0  0  0  0  0
   -4.7690   -1.2357   -0.8102 C   0  0  0  0  0  0  0  0  0  0  0  0
   -0.0021    0.9064   -2.0733 C   0  0  0  0  0  0  0  0  0  0  0  0
   -0.0110   -0.1035   -0.5702 S   0  0  0  0  0  4  0  0  0  0  0  0
    1.4093   -0.6411   -0.4781 O   0  0  0  0  0  0  0  0  0  0  0  0
   -0.1335    1.0624    0.8103 C   0  0  0  0  0  0  0  0  0  0  0  0
   -8.9042    0.4883    0.2457 C   0  0  0  0  0  0  0  0  0  0  0  0
   -9.5062   -0.5202    0.9339 N   0  0  0  0  0  0  0  0  0  0  0  0
  -10.8534   -0.5653    1.0960 C   0  0  0  0  0  0  0  0  0  0  0  0
  -11.6493    0.4564    0.5407 C   0  0  0  0  0  0  0  0  0  0  0  0
  -11.0529    1.4618   -0.1493 N   0  0  0  0  0  0  0  0  0  0  0  0
   -9.7038    1.5026   -0.3093 C   0  0  0  0  0  0  0  0  0  0  0  0
  -13.0403    0.4234    0.6983 C   0  0  0  0  0  0  0  0  0  0  0  0
  -13.6347   -0.6244    1.4098 C   0  0  0  0  0  0  0  0  0  0  0  0
  -12.8431   -1.6410    1.9589 C   0  0  0  0  0  0  0  0  0  0  0  0
  -11.4521   -1.6119    1.8052 C   0  0  0  0  0  0  0  0  0  0  0  0
   -7.1056   -1.4078    1.0209 H   0  0  0  0  0  0  0  0  0  0  0  0
   -4.8112    0.4707    0.4597 H   0  0  0  0  0  0  0  0  0  0  0  0
   -3.4969   -1.1865    3.5412 H   0  0  0  0  0  0  0  0  0  0  0  0
   -3.3222    1.2167    1.7820 H   0  0  0  0  0  0  0  0  0  0  0  0
   -5.6931    1.4002    2.5811 H   0  0  0  0  0  0  0  0  0  0  0  0
   -5.1370    1.2562    4.2854 H   0  0  0  0  0  0  0  0  0  0  0  0
   -4.6485    2.6858    3.2827 H   0  0  0  0  0  0  0  0  0  0  0  0
   -0.0903    2.3489    4.6431 H   0  0  0  0  0  0  0  0  0  0  0  0
    0.6669    2.4962    3.0128 H   0  0  0  0  0  0  0  0  0  0  0  0
   -0.8529    3.3763    3.3661 H   0  0  0  0  0  0  0  0  0  0  0  0
   -1.4351   -0.3162    1.7817 H   0  0  0  0  0  0  0  0  0  0  0  0
    1.3024   -0.2607    5.8564 H   0  0  0  0  0  0  0  0  0  0  0  0
   -0.0237   -1.1291    5.0728 H   0  0  0  0  0  0  0  0  0  0  0  0
    1.6247   -1.8508    5.0492 H   0  0  0  0  0  0  0  0  0  0  0  0
    2.5654    0.9965    2.5531 H   0  0  0  0  0  0  0  0  0  0  0  0
    4.4290    1.3864    3.8897 H   0  0  0  0  0  0  0  0  0  0  0  0
    3.5782    2.6684    5.7499 H   0  0  0  0  0  0  0  0  0  0  0  0
    2.4876    2.8203    4.3425 H   0  0  0  0  0  0  0  0  0  0  0  0
    2.0255    1.7845    5.7486 H   0  0  0  0  0  0  0  0  0  0  0  0
    3.4828   -0.5697    6.0669 H   0  0  0  0  0  0  0  0  0  0  0  0
    4.8366    0.5972    6.1844 H   0  0  0  0  0  0  0  0  0  0  0  0
    4.9133   -0.7182    4.9820 H   0  0  0  0  0  0  0  0  0  0  0  0
    4.7459    1.2546    1.3979 H   0  0  0  0  0  0  0  0  0  0  0  0
    3.3470    0.7147    0.3957 H   0  0  0  0  0  0  0  0  0  0  0  0
    5.2135    1.1480   -1.0397 H   0  0  0  0  0  0  0  0  0  0  0  0
    6.8749   -0.7904    0.6211 H   0  0  0  0  0  0  0  0  0  0  0  0
   10.0297    2.3464   -0.8617 H   0  0  0  0  0  0  0  0  0  0  0  0
   13.9093   -0.1406   -0.0944 H   0  0  0  0  0  0  0  0  0  0  0  0
   14.3717   -2.4542    0.6625 H   0  0  0  0  0  0  0  0  0  0  0  0
   12.4994   -3.9914    1.2005 H   0  0  0  0  0  0  0  0  0  0  0  0
   10.1536   -3.2198    0.9880 H   0  0  0  0  0  0  0  0  0  0  0  0
    4.0871   -1.7686   -3.0699 H   0  0  0  0  0  0  0  0  0  0  0  0
    3.4438    1.0884   -2.4459 H   0  0  0  0  0  0  0  0  0  0  0  0
    5.3867    0.3721   -4.7575 H   0  0  0  0  0  0  0  0  0  0  0  0
    5.8773    1.1777   -3.2256 H   0  0  0  0  0  0  0  0  0  0  0  0
    4.7363    2.0114   -4.3372 H   0  0  0  0  0  0  0  0  0  0  0  0
    2.0349    2.7793   -4.2470 H   0  0  0  0  0  0  0  0  0  0  0  0
    0.2779    2.4701   -4.4714 H   0  0  0  0  0  0  0  0  0  0  0  0
    1.4356    1.9976   -5.7701 H   0  0  0  0  0  0  0  0  0  0  0  0
    0.7732   -0.9104   -2.9830 H   0  0  0  0  0  0  0  0  0  0  0  0
   -2.1527    1.5393   -5.6841 H   0  0  0  0  0  0  0  0  0  0  0  0
   -2.0180    2.2809   -4.0408 H   0  0  0  0  0  0  0  0  0  0  0  0
   -3.5809    1.6213   -4.6027 H   0  0  0  0  0  0  0  0  0  0  0  0
   -3.9835   -0.0468   -3.1850 H   0  0  0  0  0  0  0  0  0  0  0  0
   -4.7278   -2.0918   -4.0008 H   0  0  0  0  0  0  0  0  0  0  0  0
   -4.8293   -0.2240   -5.6254 H   0  0  0  0  0  0  0  0  0  0  0  0
   -3.2633   -0.7702   -6.3595 H   0  0  0  0  0  0  0  0  0  0  0  0
   -4.7232   -1.8253   -6.4310 H   0  0  0  0  0  0  0  0  0  0  0  0
   -2.8483   -3.6103   -3.7779 H   0  0  0  0  0  0  0  0  0  0  0  0
   -3.4685   -3.6782   -5.4416 H   0  0  0  0  0  0  0  0  0  0  0  0
   -1.9458   -2.7933   -5.1121 H   0  0  0  0  0  0  0  0  0  0  0  0
   -5.2902   -0.7060   -1.6319 H   0  0  0  0  0  0  0  0  0  0  0  0
   -5.1003   -2.2975   -0.8309 H   0  0  0  0  0  0  0  0  0  0  0  0
    0.7337    1.7291   -1.9110 H   0  0  0  0  0  0  0  0  0  0  0  0
   -0.9913    1.3862   -2.1703 H   0  0  0  0  0  0  0  0  0  0  0  0
   -0.8776    1.8428    0.5386 H   0  0  0  0  0  0  0  0  0  0  0  0
    0.8512    1.5575    0.9492 H   0  0  0  0  0  0  0  0  0  0  0  0
   -9.2610    2.3195   -0.8653 H   0  0  0  0  0  0  0  0  0  0  0  0
  -13.6583    1.2044    0.2723 H   0  0  0  0  0  0  0  0  0  0  0  0
  -14.7089   -0.6517    1.5340 H   0  0  0  0  0  0  0  0  0  0  0  0
  -13.3078   -2.4498    2.5068 H   0  0  0  0  0  0  0  0  0  0  0  0
  -10.8457   -2.4009    2.2330 H   0  0  0  0  0  0  0  0  0  0  0  0
  1  2  2  0
  2  3  1  0
  3  4  1  0
  4  5  1  0
  5  6  2  0
  5  7  1  0
  7  8  1  0
  8  9  1  0
  8 10  1  0
 10 11  2  0
 10 12  1  0
 12 13  1  0
 12 14  1  0
 14 15  1  0
 15 16  2  0
 15 17  1  0
 17 18  1  0
 17 19  1  0
 19 20  1  0
 20 21  1  0
 20 22  1  0
 19 23  1  0
 23 24  2  0
 23 25  1  0
 25 26  1  0
 26 27  1  0
 27 28  1  0
 28 29  1  0
 29 30  2  0
 29 31  1  0
 31 32  2  0
 32 33  1  0
 33 34  2  0
 34 35  1  0
 35 36  2  0
 34 37  1  0
 37 38  2  0
 38 39  1  0
 39 40  2  0
 27 41  1  0
 41 42  2  0
 41 43  1  0
 43 44  1  0
 44 45  1  0
 44 46  1  0
 46 47  2  0
 46 48  1  0
 48 49  1  0
 48 50  1  0
 50 51  1  0
 51 52  2  0
 51 53  1  0
 53 54  1  0
 53 55  1  0
 55 56  1  0
 56 57  1  0
 56 58  1  0
 55 59  1  0
 59 60  2  0
 59 61  1  0
 61 62  1  0
 50 63  1  0
 63 64  1  0
 64 65  2  0
 64 66  1  0
  2 67  1  0
 67 68  2  0
 68 69  1  0
 69 70  2  0
 70 71  1  0
 71 72  2  0
 70 73  1  0
 73 74  2  0
 74 75  1  0
 75 76  2  0
 62  4  1  0
 72 67  1  0
 66 14  1  0
 76 69  1  0
 36 31  1  0
 40 33  1  0
  3 77  1  0
  4 78  1  6
  7 79  1  0
  8 80  1  6
  9 81  1  0
  9 82  1  0
  9 83  1  0
 13 84  1  0
 13 85  1  0
 13 86  1  0
 14 87  1  6
 18 88  1  0
 18 89  1  0
 18 90  1  0
 19 91  1  6
 20 92  1  0
 21 93  1  0
 21 94  1  0
 21 95  1  0
 22 96  1  0
 22 97  1  0
 22 98  1  0
 26 99  1  0
 26100  1  0
 27101  1  6
 28102  1  0
 36103  1  0
 37104  1  0
 38105  1  0
 39106  1  0
 40107  1  0
 43108  1  0
 44109  1  1
 45110  1  0
 45111  1  0
 45112  1  0
 49113  1  0
 49114  1  0
 49115  1  0
 50116  1  1
 54117  1  0
 54118  1  0
 54119  1  0
 55120  1  1
 56121  1  0
 57122  1  0
 57123  1  0
 57124  1  0
 58125  1  0
 58126  1  0
 58127  1  0
 62128  1  0
 62129  1  0
 63130  1  0
 63131  1  0
 66132  1  0
 66133  1  0
 72134  1  0
 73135  1  0
 74136  1  0
 75137  1  0
 76138  1  0
M  END
$$$$
