
     RDKit          3D

 86 88  0  0  0  0  0  0  0  0999 V2000
   -4.1846   -3.8022   -1.4997 C   0  0  0  0  0  0  0  0  0  0  0  0
   -4.6029   -2.3459   -1.2436 C   0  0  0  0  0  0  0  0  0  0  0  0
   -5.6845   -2.2606   -0.1647 C   0  0  0  0  0  0  0  0  0  0  0  0
   -3.4020   -1.3859   -1.0126 C   0  0  0  0  0  0  0  0  0  0  0  0
   -2.6105   -1.4523    0.3247 C   0  0  2  0  0  0  0  0  0  0  0  0
   -2.5538   -2.8295    0.8682 N   0  0  0  0  0  0  0  0  0  0  0  0
   -1.1794   -3.3213    1.0672 C   0  0  0  0  0  0  0  0  0  0  0  0
   -0.6148   -3.8873   -0.2451 C   0  0  0  0  0  0  0  0  0  0  0  0
    0.7308   -4.6214   -0.0694 C   0  0  0  0  0  0  0  0  0  0  0  0
    1.9494   -3.6839   -0.0065 C   0  0  0  0  0  0  0  0  0  0  0  0
    2.0569   -3.0189    1.2942 N   0  0  0  0  0  0  0  0  0  0  0  0
    3.0342   -2.0107    1.6017 C   0  0  0  0  0  0  0  0  0  0  0  0
    3.2824   -1.7764    2.8167 O   0  0  0  0  0  0  0  0  0  0  0  0
    3.8107   -1.2687    0.5239 C   0  0  2  0  0  0  0  0  0  0  0  0
    4.7756   -0.2130    1.1052 C   0  0  0  0  0  0  0  0  0  0  0  0
    5.6183    0.4250    0.0289 C   0  0  0  0  0  0  0  0  0  0  0  0
    5.3019    1.7019   -0.4652 C   0  0  0  0  0  0  0  0  0  0  0  0
    6.0746    2.2769   -1.4783 C   0  0  0  0  0  0  0  0  0  0  0  0
    7.1634    1.5807   -2.0094 C   0  0  0  0  0  0  0  0  0  0  0  0
    7.4816    0.3089   -1.5279 C   0  0  0  0  0  0  0  0  0  0  0  0
    6.7128   -0.2689   -0.5135 C   0  0  0  0  0  0  0  0  0  0  0  0
    2.9372   -0.6612   -0.4921 N   0  0  0  0  0  0  0  0  0  0  0  0
    1.6214   -0.1343   -0.2605 C   0  0  0  0  0  0  0  0  0  0  0  0
    0.6624   -0.6347   -0.9039 O   0  0  0  0  0  0  0  0  0  0  0  0
    1.3724    1.0421    0.6588 C   0  0  2  0  0  0  0  0  0  0  0  0
    0.9676    0.5946    2.0654 C   0  0  0  0  0  0  0  0  0  0  0  0
    0.3600    1.9560    0.0853 N   0  0  0  0  0  0  0  0  0  0  0  0
    0.7436    3.2710   -0.4303 C   0  0  0  0  0  0  0  0  0  0  0  0
   -1.0232    1.5803   -0.0396 C   0  0  0  0  0  0  0  0  0  0  0  0
   -1.4443    1.1363   -1.1413 O   0  0  0  0  0  0  0  0  0  0  0  0
   -1.9896    1.8319    1.0927 C   0  0  1  0  0  0  0  0  0  0  0  0
   -3.2907    2.5126    0.6181 C   0  0  0  0  0  0  0  0  0  0  0  0
   -3.0134    3.8450   -0.0353 C   0  0  0  0  0  0  0  0  0  0  0  0
   -3.0063    3.9623   -1.4355 C   0  0  0  0  0  0  0  0  0  0  0  0
   -2.6860    5.1811   -2.0392 C   0  0  0  0  0  0  0  0  0  0  0  0
   -2.3683    6.2902   -1.2519 C   0  0  0  0  0  0  0  0  0  0  0  0
   -2.3734    6.1835    0.1414 C   0  0  0  0  0  0  0  0  0  0  0  0
   -2.6932    4.9656    0.7494 C   0  0  0  0  0  0  0  0  0  0  0  0
   -2.2817    0.5995    1.8365 N   0  0  0  0  0  0  0  0  0  0  0  0
   -3.1219   -0.4567    1.3501 C   0  0  0  0  0  0  0  0  0  0  0  0
   -4.2616   -0.6060    1.8639 O   0  0  0  0  0  0  0  0  0  0  0  0
   -5.0307   -4.3545   -1.9622 H   0  0  0  0  0  0  0  0  0  0  0  0
   -3.3270   -3.8465   -2.2032 H   0  0  0  0  0  0  0  0  0  0  0  0
   -3.9191   -4.3292   -0.5625 H   0  0  0  0  0  0  0  0  0  0  0  0
   -5.0821   -1.9995   -2.1871 H   0  0  0  0  0  0  0  0  0  0  0  0
   -6.5773   -2.8387   -0.4839 H   0  0  0  0  0  0  0  0  0  0  0  0
   -5.3281   -2.6854    0.7952 H   0  0  0  0  0  0  0  0  0  0  0  0
   -5.9963   -1.2058   -0.0176 H   0  0  0  0  0  0  0  0  0  0  0  0
   -2.6798   -1.5578   -1.8407 H   0  0  0  0  0  0  0  0  0  0  0  0
   -3.7640   -0.3456   -1.1656 H   0  0  0  0  0  0  0  0  0  0  0  0
   -1.5891   -1.1112    0.0686 H   0  0  0  0  0  0  0  0  0  0  0  0
   -3.0532   -2.8908    1.7861 H   0  0  0  0  0  0  0  0  0  0  0  0
   -1.1972   -4.1386    1.8219 H   0  0  0  0  0  0  0  0  0  0  0  0
   -0.5298   -2.5171    1.4718 H   0  0  0  0  0  0  0  0  0  0  0  0
   -1.3475   -4.6215   -0.6433 H   0  0  0  0  0  0  0  0  0  0  0  0
   -0.5172   -3.0821   -1.0031 H   0  0  0  0  0  0  0  0  0  0  0  0
    0.7041   -5.2884    0.8199 H   0  0  0  0  0  0  0  0  0  0  0  0
    0.8689   -5.2809   -0.9542 H   0  0  0  0  0  0  0  0  0  0  0  0
    1.8761   -2.9465   -0.8268 H   0  0  0  0  0  0  0  0  0  0  0  0
    2.8726   -4.2796   -0.1752 H   0  0  0  0  0  0  0  0  0  0  0  0
    1.5266   -3.4172    2.1013 H   0  0  0  0  0  0  0  0  0  0  0  0
    4.4399   -2.0363    0.0212 H   0  0  0  0  0  0  0  0  0  0  0  0
    4.2099    0.5609    1.6646 H   0  0  0  0  0  0  0  0  0  0  0  0
    5.4565   -0.7004    1.8372 H   0  0  0  0  0  0  0  0  0  0  0  0
    4.4632    2.2555   -0.0658 H   0  0  0  0  0  0  0  0  0  0  0  0
    5.8282    3.2622   -1.8520 H   0  0  0  0  0  0  0  0  0  0  0  0
    7.7577    2.0255   -2.7962 H   0  0  0  0  0  0  0  0  0  0  0  0
    8.3223   -0.2316   -1.9430 H   0  0  0  0  0  0  0  0  0  0  0  0
    6.9674   -1.2573   -0.1527 H   0  0  0  0  0  0  0  0  0  0  0  0
    3.1634   -0.8937   -1.4861 H   0  0  0  0  0  0  0  0  0  0  0  0
    2.3294    1.5892    0.7669 H   0  0  0  0  0  0  0  0  0  0  0  0
    0.5363    1.4475    2.6301 H   0  0  0  0  0  0  0  0  0  0  0  0
    0.2294   -0.2321    2.0264 H   0  0  0  0  0  0  0  0  0  0  0  0
    1.8555    0.2593    2.6318 H   0  0  0  0  0  0  0  0  0  0  0  0
    1.8417    3.4285   -0.3823 H   0  0  0  0  0  0  0  0  0  0  0  0
    0.4275    3.3670   -1.4905 H   0  0  0  0  0  0  0  0  0  0  0  0
    0.2472    4.0644    0.1664 H   0  0  0  0  0  0  0  0  0  0  0  0
   -1.4966    2.5383    1.7971 H   0  0  0  0  0  0  0  0  0  0  0  0
   -3.8389    1.8477   -0.0829 H   0  0  0  0  0  0  0  0  0  0  0  0
   -3.9565    2.6710    1.4946 H   0  0  0  0  0  0  0  0  0  0  0  0
   -3.2374    3.1090   -2.0600 H   0  0  0  0  0  0  0  0  0  0  0  0
   -2.6794    5.2637   -3.1184 H   0  0  0  0  0  0  0  0  0  0  0  0
   -2.1179    7.2316   -1.7215 H   0  0  0  0  0  0  0  0  0  0  0  0
   -2.1248    7.0428    0.7496 H   0  0  0  0  0  0  0  0  0  0  0  0
   -2.6804    4.8919    1.8296 H   0  0  0  0  0  0  0  0  0  0  0  0
   -2.1246    0.6268    2.8699 H   0  0  0  0  0  0  0  0  0  0  0  0
  1  2  1  0
  2  3  1  0
  2  4  1  0
  4  5  1  0
  5  6  1  0
  6  7  1  0
  7  8  1  0
  8  9  1  0
  9 10  1  0
 10 11  1  0
 11 12  1  0
 12 13  2  0
 12 14  1  0
 14 15  1  0
 15 16  1  0
 16 17  2  0
 17 18  1  0
 18 19  2  0
 19 20  1  0
 20 21  2  0
 14 22  1  0
 22 23  1  0
 23 24  2  0
 23 25  1  0
 25 26  1  0
 25 27  1  0
 27 28  1  0
 27 29  1  0
 29 30  2  0
 29 31  1  0
 31 32  1  0
 32 33  1  0
 33 34  2  0
 34 35  1  0
 35 36  2  0
 36 37  1  0
 37 38  2  0
 31 39  1  0
 39 40  1  0
 40 41  2  0
 40  5  1  0
 21 16  1  0
 38 33  1  0
  1 42  1  0
  1 43  1  0
  1 44  1  0
  2 45  1  0
  3 46  1  0
  3 47  1  0
  3 48  1  0
  4 49  1  0
  4 50  1  0
  5 51  1  6
  6 52  1  0
  7 53  1  0
  7 54  1  0
  8 55  1  0
  8 56  1  0
  9 57  1  0
  9 58  1  0
 10 59  1  0
 10 60  1  0
 11 61  1  0
 14 62  1  6
 15 63  1  0
 15 64  1  0
 17 65  1  0
 18 66  1  0
 19 67  1  0
 20 68  1  0
 21 69  1  0
 22 70  1  0
 25 71  1  1
 26 72  1  0
 26 73  1  0
 26 74  1  0
 28 75  1  0
 28 76  1  0
 28 77  1  0
 31 78  1  1
 32 79  1  0
 32 80  1  0
 34 81  1  0
 35 82  1  0
 36 83  1  0
 37 84  1  0
 38 85  1  0
 39 86  1  0
M  END
$$$$
