
     RDKit          3D

 73 76  0  0  0  0  0  0  0  0999 V2000
    5.9124    1.4477    0.8906 C   0  0  0  0  0  0  0  0  0  0  0  0
    5.7499    0.4905   -0.3174 C   0  0  0  0  0  0  0  0  0  0  0  0
    6.0157    1.3113   -1.6068 C   0  0  0  0  0  0  0  0  0  0  0  0
    4.3070   -0.0973   -0.3591 C   0  0  0  0  0  0  0  0  0  0  0  0
    3.2557    0.9244   -0.4246 N   0  0  0  0  0  0  0  0  0  0  0  0
    1.8726    0.5798   -0.2739 C   0  0  0  0  0  0  0  0  0  0  0  0
    1.5421   -0.6075   -0.0058 O   0  0  0  0  0  0  0  0  0  0  0  0
    0.8297    1.6610   -0.3381 C   0  0  0  0  0  0  0  0  0  0  0  0
   -0.5363    1.1006   -0.4626 N   0  0  0  0  0  0  0  0  0  0  0  0
   -0.8056    0.5755   -1.8310 C   0  0  0  0  0  0  0  0  0  0  0  0
   -1.2620   -0.8932   -1.7877 C   0  0  0  0  0  0  0  0  0  0  0  0
   -2.4911   -1.1019   -0.8973 C   0  0  0  0  0  0  0  0  0  0  0  0
   -3.0385   -2.5346   -1.0021 C   0  0  0  0  0  0  0  0  0  0  0  0
   -4.0376   -2.8791    0.1216 C   0  0  0  0  0  0  0  0  0  0  0  0
   -5.3766   -2.1434    0.0017 C   0  0  0  0  0  0  0  0  0  0  0  0
   -5.1944   -0.7558    0.2647 O   0  0  0  0  0  0  0  0  0  0  0  0
   -6.1842    0.2266    0.1335 C   0  0  0  0  0  0  0  0  0  0  0  0
   -7.5398   -0.1030   -0.0588 C   0  0  0  0  0  0  0  0  0  0  0  0
   -8.4870    0.9064   -0.2573 C   0  0  0  0  0  0  0  0  0  0  0  0
   -8.0931    2.2460   -0.2666 C   0  0  0  0  0  0  0  0  0  0  0  0
   -6.7530    2.5826   -0.0633 C   0  0  0  0  0  0  0  0  0  0  0  0
   -5.7986    1.5834    0.1586 C   0  0  0  0  0  0  0  0  0  0  0  0
   -4.4622    1.9584    0.3493 O   0  0  0  0  0  0  0  0  0  0  0  0
   -3.6461    1.4476    1.3663 C   0  0  0  0  0  0  0  0  0  0  0  0
   -4.2106    0.8947    2.4766 N   0  0  0  0  0  0  0  0  0  0  0  0
   -3.4649    0.4129    3.5032 C   0  0  0  0  0  0  0  0  0  0  0  0
   -2.0753    0.4914    3.4515 C   0  0  0  0  0  0  0  0  0  0  0  0
   -1.4641    1.0511    2.3311 C   0  0  0  0  0  0  0  0  0  0  0  0
   -2.2410    1.5213    1.2595 C   0  0  0  0  0  0  0  0  0  0  0  0
   -1.5660    2.0637    0.0203 C   0  0  0  0  0  0  0  0  0  0  0  0
    6.7395   -0.6894   -0.1650 C   0  0  0  0  0  0  0  0  0  0  0  0
    6.7453   -1.4505    1.0291 C   0  0  0  0  0  0  0  0  0  0  0  0
    7.6100   -2.5360    1.1916 C   0  0  0  0  0  0  0  0  0  0  0  0
    8.4854   -2.8932    0.1674 C   0  0  0  0  0  0  0  0  0  0  0  0
    9.3227   -3.9477    0.3254 F   0  0  0  0  0  0  0  0  0  0  0  0
    8.4920   -2.1692   -1.0247 C   0  0  0  0  0  0  0  0  0  0  0  0
    7.6257   -1.0858   -1.1981 C   0  0  0  0  0  0  0  0  0  0  0  0
    5.5242    0.9943    1.8268 H   0  0  0  0  0  0  0  0  0  0  0  0
    5.3619    2.3990    0.7372 H   0  0  0  0  0  0  0  0  0  0  0  0
    6.9848    1.7047    1.0380 H   0  0  0  0  0  0  0  0  0  0  0  0
    7.0726    1.6565   -1.6386 H   0  0  0  0  0  0  0  0  0  0  0  0
    5.7953    0.7067   -2.5124 H   0  0  0  0  0  0  0  0  0  0  0  0
    5.3855    2.2228   -1.6592 H   0  0  0  0  0  0  0  0  0  0  0  0
    4.1348   -0.7154    0.5489 H   0  0  0  0  0  0  0  0  0  0  0  0
    4.2075   -0.7694   -1.2405 H   0  0  0  0  0  0  0  0  0  0  0  0
    3.4898    1.9350   -0.5352 H   0  0  0  0  0  0  0  0  0  0  0  0
    1.0466    2.3552   -1.1818 H   0  0  0  0  0  0  0  0  0  0  0  0
    0.9332    2.2407    0.6048 H   0  0  0  0  0  0  0  0  0  0  0  0
    0.1070    0.6070   -2.4667 H   0  0  0  0  0  0  0  0  0  0  0  0
   -1.5578    1.1774   -2.3851 H   0  0  0  0  0  0  0  0  0  0  0  0
   -1.5068   -1.2092   -2.8256 H   0  0  0  0  0  0  0  0  0  0  0  0
   -0.4283   -1.5324   -1.4263 H   0  0  0  0  0  0  0  0  0  0  0  0
   -2.2057   -0.9125    0.1592 H   0  0  0  0  0  0  0  0  0  0  0  0
   -3.2745   -0.3766   -1.1997 H   0  0  0  0  0  0  0  0  0  0  0  0
   -2.1897   -3.2495   -0.9243 H   0  0  0  0  0  0  0  0  0  0  0  0
   -3.5165   -2.6870   -1.9959 H   0  0  0  0  0  0  0  0  0  0  0  0
   -3.5833   -2.6732    1.1145 H   0  0  0  0  0  0  0  0  0  0  0  0
   -4.2415   -3.9708    0.0740 H   0  0  0  0  0  0  0  0  0  0  0  0
   -6.0837   -2.5663    0.7486 H   0  0  0  0  0  0  0  0  0  0  0  0
   -5.7973   -2.2876   -1.0170 H   0  0  0  0  0  0  0  0  0  0  0  0
   -7.8664   -1.1338   -0.0692 H   0  0  0  0  0  0  0  0  0  0  0  0
   -9.5268    0.6488   -0.4113 H   0  0  0  0  0  0  0  0  0  0  0  0
   -8.8260    3.0260   -0.4333 H   0  0  0  0  0  0  0  0  0  0  0  0
   -6.4558    3.6239   -0.0681 H   0  0  0  0  0  0  0  0  0  0  0  0
   -3.9527   -0.0218    4.3648 H   0  0  0  0  0  0  0  0  0  0  0  0
   -1.4759    0.1140    4.2691 H   0  0  0  0  0  0  0  0  0  0  0  0
   -0.3831    1.0973    2.2925 H   0  0  0  0  0  0  0  0  0  0  0  0
   -2.3240    2.2933   -0.7562 H   0  0  0  0  0  0  0  0  0  0  0  0
   -1.1306    3.0553    0.2772 H   0  0  0  0  0  0  0  0  0  0  0  0
    6.0742   -1.2149    1.8433 H   0  0  0  0  0  0  0  0  0  0  0  0
    7.5971   -3.1026    2.1151 H   0  0  0  0  0  0  0  0  0  0  0  0
    9.1678   -2.4510   -1.8223 H   0  0  0  0  0  0  0  0  0  0  0  0
    7.6664   -0.5733   -2.1473 H   0  0  0  0  0  0  0  0  0  0  0  0
  1  2  1  0
  2  3  1  0
  2  4  1  0
  4  5  1  0
  5  6  1  0
  6  7  2  0
  6  8  1  0
  8  9  1  0
  9 10  1  0
 10 11  1  0
 11 12  1  0
 12 13  1  0
 13 14  1  0
 14 15  1  0
 15 16  1  0
 16 17  1  0
 17 18  2  0
 18 19  1  0
 19 20  2  0
 20 21  1  0
 21 22  2  0
 22 23  1  0
 23 24  1  0
 24 25  2  0
 25 26  1  0
 26 27  2  0
 27 28  1  0
 28 29  2  0
 29 30  1  0
  2 31  1  0
 31 32  2  0
 32 33  1  0
 33 34  2  0
 34 35  1  0
 34 36  1  0
 36 37  2  0
 30  9  1  0
 37 31  1  0
 22 17  1  0
 29 24  1  0
  1 38  1  0
  1 39  1  0
  1 40  1  0
  3 41  1  0
  3 42  1  0
  3 43  1  0
  4 44  1  0
  4 45  1  0
  5 46  1  0
  8 47  1  0
  8 48  1  0
 10 49  1  0
 10 50  1  0
 11 51  1  0
 11 52  1  0
 12 53  1  0
 12 54  1  0
 13 55  1  0
 13 56  1  0
 14 57  1  0
 14 58  1  0
 15 59  1  0
 15 60  1  0
 18 61  1  0
 19 62  1  0
 20 63  1  0
 21 64  1  0
 26 65  1  0
 27 66  1  0
 28 67  1  0
 30 68  1  0
 30 69  1  0
 32 70  1  0
 33 71  1  0
 36 72  1  0
 37 73  1  0
M  END
$$$$
