
     RDKit          3D

 79 83  0  0  0  0  0  0  0  0999 V2000
   -2.5620   -2.9105   -2.8981 C   0  0  0  0  0  0  0  0  0  0  0  0
   -2.2581   -4.0827   -1.9698 C   0  0  0  0  0  0  0  0  0  0  0  0
   -1.0821   -3.7962   -1.0160 C   0  0  0  0  0  0  0  0  0  0  0  0
   -1.5206   -3.2673    0.3604 C   0  0  0  0  0  0  0  0  0  0  0  0
   -2.1296   -1.9206    0.3006 N   0  0  0  0  0  0  0  0  0  0  0  0
   -3.5438   -1.8320    0.7002 C   0  0  0  0  0  0  0  0  0  0  0  0
   -4.2932   -0.6616    0.0491 C   0  0  0  0  0  0  0  0  0  0  0  0
   -5.3791   -0.3057    0.9069 O   0  0  0  0  0  0  0  0  0  0  0  0
   -5.8442    1.0000    1.1231 C   0  0  0  0  0  0  0  0  0  0  0  0
   -7.2034    1.2403    0.8759 C   0  0  0  0  0  0  0  0  0  0  0  0
   -7.7748    2.4833    1.1581 C   0  0  0  0  0  0  0  0  0  0  0  0
   -7.0003    3.4974    1.7176 C   0  0  0  0  0  0  0  0  0  0  0  0
   -5.6436    3.2793    1.9773 C   0  0  0  0  0  0  0  0  0  0  0  0
   -5.0404    2.0382    1.6775 C   0  0  0  0  0  0  0  0  0  0  0  0
   -3.5636    1.8787    1.9734 C   0  0  0  0  0  0  0  0  0  0  0  0
   -2.7253    2.7602    1.0257 C   0  0  0  0  0  0  0  0  0  0  0  0
   -1.2807    2.2555    0.8225 C   0  0  0  0  0  0  0  0  0  0  0  0
   -1.0950    1.4417   -0.4903 C   0  0  0  0  0  0  0  0  0  0  0  0
   -0.5088   -0.0054   -0.3655 C   0  0  0  0  0  0  0  0  0  0  0  0
    0.9882    0.0369    0.0557 C   0  0  0  0  0  0  0  0  0  0  0  0
    1.8255    0.4946   -1.0542 N   0  0  0  0  0  0  0  0  0  0  0  0
    2.9797    1.3165   -0.7996 C   0  0  0  0  0  0  0  0  0  0  0  0
    2.9305    2.1958    0.1038 O   0  0  0  0  0  0  0  0  0  0  0  0
    4.2413    1.1785   -1.6102 C   0  0  0  0  0  0  0  0  0  0  0  0
    5.3945    1.3148   -0.7807 O   0  0  0  0  0  0  0  0  0  0  0  0
    5.8323    0.3676    0.1626 C   0  0  0  0  0  0  0  0  0  0  0  0
    5.1633   -0.8581    0.3652 C   0  0  0  0  0  0  0  0  0  0  0  0
    5.6331   -1.7773    1.3119 C   0  0  0  0  0  0  0  0  0  0  0  0
    6.7765   -1.4934    2.0632 C   0  0  0  0  0  0  0  0  0  0  0  0
    7.4555   -0.2812    1.8734 C   0  0  0  0  0  0  0  0  0  0  0  0
    8.6067    0.0277    2.6113 C   0  0  0  0  0  0  0  0  0  0  0  0
    9.2619    1.2437    2.3996 C   0  0  0  0  0  0  0  0  0  0  0  0
    8.7626    2.1409    1.4499 C   0  0  0  0  0  0  0  0  0  0  0  0
    7.6459    1.8297    0.7390 N   0  0  0  0  0  0  0  0  0  0  0  0
    6.9806    0.6535    0.9213 C   0  0  0  0  0  0  0  0  0  0  0  0
    1.6109   -0.1578   -2.3437 C   0  0  0  0  0  0  0  0  0  0  0  0
    0.1179   -0.1658   -2.6678 C   0  0  0  0  0  0  0  0  0  0  0  0
   -0.6579   -0.6968   -1.6041 O   0  0  0  0  0  0  0  0  0  0  0  0
   -1.2671   -0.8255    0.6742 C   0  0  0  0  0  0  0  0  0  0  0  0
   -1.0713   -0.6166    1.9019 O   0  0  0  0  0  0  0  0  0  0  0  0
   -1.6725   -2.6694   -3.5096 H   0  0  0  0  0  0  0  0  0  0  0  0
   -2.8828   -2.0189   -2.3228 H   0  0  0  0  0  0  0  0  0  0  0  0
   -3.3802   -3.1992   -3.5974 H   0  0  0  0  0  0  0  0  0  0  0  0
   -1.9950   -4.9566   -2.6044 H   0  0  0  0  0  0  0  0  0  0  0  0
   -3.1706   -4.3530   -1.4031 H   0  0  0  0  0  0  0  0  0  0  0  0
   -0.3253   -3.1275   -1.4786 H   0  0  0  0  0  0  0  0  0  0  0  0
   -0.5555   -4.7626   -0.8355 H   0  0  0  0  0  0  0  0  0  0  0  0
   -0.6277   -3.2562    1.0315 H   0  0  0  0  0  0  0  0  0  0  0  0
   -2.2223   -4.0046    0.8180 H   0  0  0  0  0  0  0  0  0  0  0  0
   -3.5917   -1.7350    1.8073 H   0  0  0  0  0  0  0  0  0  0  0  0
   -4.0855   -2.7641    0.4330 H   0  0  0  0  0  0  0  0  0  0  0  0
   -4.6929   -0.9706   -0.9422 H   0  0  0  0  0  0  0  0  0  0  0  0
   -3.6367    0.1970   -0.1335 H   0  0  0  0  0  0  0  0  0  0  0  0
   -7.8237    0.4574    0.4624 H   0  0  0  0  0  0  0  0  0  0  0  0
   -8.8271    2.6550    0.9611 H   0  0  0  0  0  0  0  0  0  0  0  0
   -7.4556    4.4524    1.9546 H   0  0  0  0  0  0  0  0  0  0  0  0
   -5.0613    4.0815    2.4143 H   0  0  0  0  0  0  0  0  0  0  0  0
   -3.3665    2.1943    3.0208 H   0  0  0  0  0  0  0  0  0  0  0  0
   -3.2529    0.8196    1.9394 H   0  0  0  0  0  0  0  0  0  0  0  0
   -2.6838    3.7833    1.4614 H   0  0  0  0  0  0  0  0  0  0  0  0
   -3.2344    2.8707    0.0459 H   0  0  0  0  0  0  0  0  0  0  0  0
   -0.6298    3.1546    0.7591 H   0  0  0  0  0  0  0  0  0  0  0  0
   -0.9168    1.7300    1.7232 H   0  0  0  0  0  0  0  0  0  0  0  0
   -0.4193    2.0455   -1.1299 H   0  0  0  0  0  0  0  0  0  0  0  0
   -2.0355    1.3878   -1.0728 H   0  0  0  0  0  0  0  0  0  0  0  0
    1.1220    0.6891    0.9458 H   0  0  0  0  0  0  0  0  0  0  0  0
    1.3273   -0.9869    0.3416 H   0  0  0  0  0  0  0  0  0  0  0  0
    4.2867    0.2064   -2.1452 H   0  0  0  0  0  0  0  0  0  0  0  0
    4.2547    1.9850   -2.3719 H   0  0  0  0  0  0  0  0  0  0  0  0
    4.2793   -1.1154   -0.2029 H   0  0  0  0  0  0  0  0  0  0  0  0
    5.1084   -2.7138    1.4648 H   0  0  0  0  0  0  0  0  0  0  0  0
    7.1273   -2.2168    2.7924 H   0  0  0  0  0  0  0  0  0  0  0  0
    8.9989   -0.6669    3.3450 H   0  0  0  0  0  0  0  0  0  0  0  0
   10.1498    1.4884    2.9677 H   0  0  0  0  0  0  0  0  0  0  0  0
    9.2630    3.0876    1.2806 H   0  0  0  0  0  0  0  0  0  0  0  0
    1.9911   -1.2020   -2.2961 H   0  0  0  0  0  0  0  0  0  0  0  0
    2.1418    0.3789   -3.1573 H   0  0  0  0  0  0  0  0  0  0  0  0
   -0.2307    0.8456   -2.9632 H   0  0  0  0  0  0  0  0  0  0  0  0
   -0.0362   -0.8109   -3.5580 H   0  0  0  0  0  0  0  0  0  0  0  0
  1  2  1  0
  2  3  1  0
  3  4  1  0
  4  5  1  0
  5  6  1  0
  6  7  1  0
  7  8  1  0
  8  9  1  0
  9 10  2  0
 10 11  1  0
 11 12  2  0
 12 13  1  0
 13 14  2  0
 14 15  1  0
 15 16  1  0
 16 17  1  0
 17 18  1  0
 18 19  1  0
 19 20  1  0
 20 21  1  0
 21 22  1  0
 22 23  2  0
 22 24  1  0
 24 25  1  0
 25 26  1  0
 26 27  2  0
 27 28  1  0
 28 29  2  0
 29 30  1  0
 30 31  2  0
 31 32  1  0
 32 33  2  0
 33 34  1  0
 34 35  2  0
 21 36  1  0
 36 37  1  0
 37 38  1  0
 19 39  1  0
 39 40  2  0
 39  5  1  0
 14  9  1  0
 38 19  1  0
 35 26  1  0
 35 30  1  0
  1 41  1  0
  1 42  1  0
  1 43  1  0
  2 44  1  0
  2 45  1  0
  3 46  1  0
  3 47  1  0
  4 48  1  0
  4 49  1  0
  6 50  1  0
  6 51  1  0
  7 52  1  0
  7 53  1  0
 10 54  1  0
 11 55  1  0
 12 56  1  0
 13 57  1  0
 15 58  1  0
 15 59  1  0
 16 60  1  0
 16 61  1  0
 17 62  1  0
 17 63  1  0
 18 64  1  0
 18 65  1  0
 20 66  1  0
 20 67  1  0
 24 68  1  0
 24 69  1  0
 27 70  1  0
 28 71  1  0
 29 72  1  0
 31 73  1  0
 32 74  1  0
 33 75  1  0
 36 76  1  0
 36 77  1  0
 37 78  1  0
 37 79  1  0
M  END
$$$$
