
     RDKit          3D

 69 70  0  0  0  0  0  0  0  0999 V2000
   -6.2297    1.6637   -0.0877 C   0  0  0  0  0  0  0  0  0  0  0  0
   -4.9948    0.7656   -0.2482 C   0  0  0  0  0  0  0  0  0  0  0  0
   -4.5709    0.7261   -1.7264 C   0  0  0  0  0  0  0  0  0  0  0  0
   -3.8558    1.2775    0.6664 C   0  0  0  0  0  0  0  0  0  0  0  0
   -2.6257    0.3386    0.7394 C   0  0  2  0  0  0  0  0  0  0  0  0
   -2.9581   -0.9561    1.3759 N   0  0  0  0  0  0  0  0  0  0  0  0
   -2.9681   -2.1052    0.4561 C   0  0  0  0  0  0  0  0  0  0  0  0
   -2.5596   -3.3871    1.2030 C   0  0  0  0  0  0  0  0  0  0  0  0
   -1.2452   -3.2640    2.0093 C   0  0  0  0  0  0  0  0  0  0  0  0
    0.0348   -3.5607    1.2115 C   0  0  0  0  0  0  0  0  0  0  0  0
    0.2890   -2.5785    0.0567 C   0  0  0  0  0  0  0  0  0  0  0  0
    1.7702   -2.5170   -0.3389 C   0  0  0  0  0  0  0  0  0  0  0  0
    2.5000   -1.6122    0.5519 N   0  0  0  0  0  0  0  0  0  0  0  0
    2.5151   -0.1846    0.3919 C   0  0  0  0  0  0  0  0  0  0  0  0
    2.5054    0.5415    1.4212 O   0  0  0  0  0  0  0  0  0  0  0  0
    2.5487    0.4698   -0.9712 C   0  0  2  0  0  0  0  0  0  0  0  0
    3.6524    1.5510   -1.0538 C   0  0  0  0  0  0  0  0  0  0  0  0
    5.0293    0.9476   -0.9032 C   0  0  0  0  0  0  0  0  0  0  0  0
    5.6704    0.3563   -2.0069 C   0  0  0  0  0  0  0  0  0  0  0  0
    6.9280   -0.2398   -1.8583 C   0  0  0  0  0  0  0  0  0  0  0  0
    7.5506   -0.2555   -0.6070 C   0  0  0  0  0  0  0  0  0  0  0  0
    6.9159    0.3209    0.4974 C   0  0  0  0  0  0  0  0  0  0  0  0
    5.6607    0.9201    0.3526 C   0  0  0  0  0  0  0  0  0  0  0  0
    1.2073    0.9755   -1.3001 N   0  0  0  0  0  0  0  0  0  0  0  0
    0.7308    2.3046   -1.0296 C   0  0  0  0  0  0  0  0  0  0  0  0
    1.4035    3.3066   -1.4060 O   0  0  0  0  0  0  0  0  0  0  0  0
   -0.6041    2.4901   -0.3456 C   0  0  2  0  0  0  0  0  0  0  0  0
   -0.9796    3.9707   -0.1956 C   0  0  0  0  0  0  0  0  0  0  0  0
   -0.5457    1.8744    0.9842 N   0  0  0  0  0  0  0  0  0  0  0  0
   -1.5411    1.0059    1.5598 C   0  0  0  0  0  0  0  0  0  0  0  0
   -1.5168    0.8094    2.8067 O   0  0  0  0  0  0  0  0  0  0  0  0
   -6.5547    1.6878    0.9755 H   0  0  0  0  0  0  0  0  0  0  0  0
   -7.0747    1.2727   -0.6967 H   0  0  0  0  0  0  0  0  0  0  0  0
   -6.0052    2.7022   -0.4127 H   0  0  0  0  0  0  0  0  0  0  0  0
   -5.2950   -0.2582    0.0611 H   0  0  0  0  0  0  0  0  0  0  0  0
   -5.4445    0.4823   -2.3703 H   0  0  0  0  0  0  0  0  0  0  0  0
   -4.1572    1.7090   -2.0435 H   0  0  0  0  0  0  0  0  0  0  0  0
   -3.8084   -0.0615   -1.8971 H   0  0  0  0  0  0  0  0  0  0  0  0
   -3.5351    2.2795    0.3060 H   0  0  0  0  0  0  0  0  0  0  0  0
   -4.2517    1.4200    1.6982 H   0  0  0  0  0  0  0  0  0  0  0  0
   -2.2192    0.1825   -0.2784 H   0  0  0  0  0  0  0  0  0  0  0  0
   -3.8567   -0.9211    1.9131 H   0  0  0  0  0  0  0  0  0  0  0  0
   -3.9891   -2.2452    0.0365 H   0  0  0  0  0  0  0  0  0  0  0  0
   -2.2941   -1.9589   -0.4082 H   0  0  0  0  0  0  0  0  0  0  0  0
   -2.4890   -4.2307    0.4839 H   0  0  0  0  0  0  0  0  0  0  0  0
   -3.3774   -3.6363    1.9144 H   0  0  0  0  0  0  0  0  0  0  0  0
   -1.2907   -4.0111    2.8327 H   0  0  0  0  0  0  0  0  0  0  0  0
   -1.1575   -2.2727    2.5027 H   0  0  0  0  0  0  0  0  0  0  0  0
    0.8817   -3.5125    1.9253 H   0  0  0  0  0  0  0  0  0  0  0  0
    0.0012   -4.5972    0.8170 H   0  0  0  0  0  0  0  0  0  0  0  0
   -0.2895   -2.9186   -0.8283 H   0  0  0  0  0  0  0  0  0  0  0  0
   -0.0560   -1.5590    0.3282 H   0  0  0  0  0  0  0  0  0  0  0  0
    2.2280   -3.5289   -0.2937 H   0  0  0  0  0  0  0  0  0  0  0  0
    1.8489   -2.1878   -1.3934 H   0  0  0  0  0  0  0  0  0  0  0  0
    2.7705   -1.9871    1.4874 H   0  0  0  0  0  0  0  0  0  0  0  0
    2.8116   -0.2878   -1.7375 H   0  0  0  0  0  0  0  0  0  0  0  0
    3.4976    2.3280   -0.2731 H   0  0  0  0  0  0  0  0  0  0  0  0
    3.5950    2.0597   -2.0400 H   0  0  0  0  0  0  0  0  0  0  0  0
    5.1913    0.3532   -2.9781 H   0  0  0  0  0  0  0  0  0  0  0  0
    7.4190   -0.6925   -2.7130 H   0  0  0  0  0  0  0  0  0  0  0  0
    8.5224   -0.7159   -0.4929 H   0  0  0  0  0  0  0  0  0  0  0  0
    7.3944    0.3005    1.4681 H   0  0  0  0  0  0  0  0  0  0  0  0
    5.1788    1.3548    1.2209 H   0  0  0  0  0  0  0  0  0  0  0  0
    0.4790    0.2453   -1.4884 H   0  0  0  0  0  0  0  0  0  0  0  0
   -1.3714    2.0169   -0.9865 H   0  0  0  0  0  0  0  0  0  0  0  0
   -0.1981    4.5099    0.3870 H   0  0  0  0  0  0  0  0  0  0  0  0
   -1.0870    4.4417   -1.1970 H   0  0  0  0  0  0  0  0  0  0  0  0
   -1.9479    4.0745    0.3412 H   0  0  0  0  0  0  0  0  0  0  0  0
    0.2136    2.2079    1.6243 H   0  0  0  0  0  0  0  0  0  0  0  0
  1  2  1  0
  2  3  1  0
  2  4  1  0
  4  5  1  0
  5  6  1  0
  6  7  1  0
  7  8  1  0
  8  9  1  0
  9 10  1  0
 10 11  1  0
 11 12  1  0
 12 13  1  0
 13 14  1  0
 14 15  2  0
 14 16  1  0
 16 17  1  0
 17 18  1  0
 18 19  2  0
 19 20  1  0
 20 21  2  0
 21 22  1  0
 22 23  2  0
 16 24  1  0
 24 25  1  0
 25 26  2  0
 25 27  1  0
 27 28  1  0
 27 29  1  0
 29 30  1  0
 30 31  2  0
 30  5  1  0
 23 18  1  0
  1 32  1  0
  1 33  1  0
  1 34  1  0
  2 35  1  0
  3 36  1  0
  3 37  1  0
  3 38  1  0
  4 39  1  0
  4 40  1  0
  5 41  1  6
  6 42  1  0
  7 43  1  0
  7 44  1  0
  8 45  1  0
  8 46  1  0
  9 47  1  0
  9 48  1  0
 10 49  1  0
 10 50  1  0
 11 51  1  0
 11 52  1  0
 12 53  1  0
 12 54  1  0
 13 55  1  0
 16 56  1  6
 17 57  1  0
 17 58  1  0
 19 59  1  0
 20 60  1  0
 21 61  1  0
 22 62  1  0
 23 63  1  0
 24 64  1  0
 27 65  1  6
 28 66  1  0
 28 67  1  0
 28 68  1  0
 29 69  1  0
M  END
$$$$
