
     RDKit          3D

 80 83  0  0  0  0  0  0  0  0999 V2000
   -5.8792    3.1683   -0.8851 C   0  0  0  0  0  0  0  0  0  0  0  0
   -4.6610    2.9548    0.0341 C   0  0  0  0  0  0  0  0  0  0  0  0
   -3.4189    3.4765   -0.7180 C   0  0  0  0  0  0  0  0  0  0  0  0
   -4.5701    1.5119    0.4331 N   0  0  0  0  0  0  0  0  0  0  0  0
   -5.6829    1.1470    1.3588 C   0  0  0  0  0  0  0  0  0  0  0  0
   -6.5528    0.1042    0.7281 C   0  0  0  0  0  0  0  0  0  0  0  0
   -7.6593    0.4439    0.2229 O   0  0  0  0  0  0  0  0  0  0  0  0
   -6.1270   -1.2637    0.6872 N   0  0  0  0  0  0  0  0  0  0  0  0
   -7.0158   -2.3562    0.2862 C   0  0  0  0  0  0  0  0  0  0  0  0
   -6.2746   -3.3737   -0.5958 C   0  0  0  0  0  0  0  0  0  0  0  0
   -6.2149   -2.9867   -2.0881 C   0  0  0  0  0  0  0  0  0  0  0  0
   -5.5510   -1.6293   -2.3798 C   0  0  0  0  0  0  0  0  0  0  0  0
   -4.0487   -1.5962   -2.0572 C   0  0  0  0  0  0  0  0  0  0  0  0
   -3.7252   -0.3597   -1.4167 O   0  0  0  0  0  0  0  0  0  0  0  0
   -2.4201    0.0643   -1.1265 C   0  0  0  0  0  0  0  0  0  0  0  0
   -1.3468   -0.2477   -1.9832 C   0  0  0  0  0  0  0  0  0  0  0  0
   -0.0551    0.1948   -1.6964 C   0  0  0  0  0  0  0  0  0  0  0  0
    0.1904    0.9655   -0.5534 C   0  0  0  0  0  0  0  0  0  0  0  0
    1.5889    1.4227   -0.2323 C   0  0  0  0  0  0  0  0  0  0  0  0
    2.2797    0.4422    0.7212 C   0  0  0  0  0  0  0  0  0  0  0  0
    3.6840    0.8863    1.0081 C   0  0  0  0  0  0  0  0  0  0  0  0
    3.8714    1.9751    1.6199 O   0  0  0  0  0  0  0  0  0  0  0  0
    4.8020    0.1029    0.5673 N   0  0  0  0  0  0  0  0  0  0  0  0
    6.1849    0.5683    0.7237 C   0  0  0  0  0  0  0  0  0  0  0  0
    7.1306   -0.1723   -0.2157 C   0  0  0  0  0  0  0  0  0  0  0  0
    8.4529   -0.5016    0.1616 C   0  0  0  0  0  0  0  0  0  0  0  0
    9.3143   -1.1374   -0.7389 C   0  0  0  0  0  0  0  0  0  0  0  0
    8.8869   -1.4239   -2.0382 C   0  0  0  0  0  0  0  0  0  0  0  0
    9.7271   -2.0395   -2.9085 F   0  0  0  0  0  0  0  0  0  0  0  0
    7.5974   -1.0640   -2.4443 C   0  0  0  0  0  0  0  0  0  0  0  0
    7.1870   -1.3244   -3.7075 F   0  0  0  0  0  0  0  0  0  0  0  0
    6.7304   -0.4325   -1.5446 C   0  0  0  0  0  0  0  0  0  0  0  0
    6.5829    0.4744    2.1794 C   0  0  0  0  0  0  0  0  0  0  0  0
    7.0156    1.5476    2.8785 N   0  0  0  0  0  0  0  0  0  0  0  0
    7.2480    1.0691    4.1176 C   0  0  0  0  0  0  0  0  0  0  0  0
    6.9576   -0.2751    4.1555 C   0  0  0  0  0  0  0  0  0  0  0  0
    6.5523   -0.6504    2.9305 N   0  0  0  0  0  0  0  0  0  0  0  0
    6.0808   -1.9813    2.5592 C   0  0  0  0  0  0  0  0  0  0  0  0
   -0.8693    1.2667    0.3142 C   0  0  0  0  0  0  0  0  0  0  0  0
   -2.1817    0.8465    0.0276 C   0  0  0  0  0  0  0  0  0  0  0  0
   -3.2691    1.1258    1.0471 C   0  0  0  0  0  0  0  0  0  0  0  0
   -5.8161    2.5056   -1.7763 H   0  0  0  0  0  0  0  0  0  0  0  0
   -5.9281    4.2257   -1.2299 H   0  0  0  0  0  0  0  0  0  0  0  0
   -6.8304    2.9597   -0.3586 H   0  0  0  0  0  0  0  0  0  0  0  0
   -4.7825    3.5906    0.9409 H   0  0  0  0  0  0  0  0  0  0  0  0
   -2.5390    3.5311   -0.0433 H   0  0  0  0  0  0  0  0  0  0  0  0
   -3.1943    2.8392   -1.6017 H   0  0  0  0  0  0  0  0  0  0  0  0
   -3.5904    4.5165   -1.0763 H   0  0  0  0  0  0  0  0  0  0  0  0
   -6.3118    2.0196    1.6401 H   0  0  0  0  0  0  0  0  0  0  0  0
   -5.3324    0.7578    2.3422 H   0  0  0  0  0  0  0  0  0  0  0  0
   -5.2004   -1.5094    1.1027 H   0  0  0  0  0  0  0  0  0  0  0  0
   -7.3671   -2.8708    1.2068 H   0  0  0  0  0  0  0  0  0  0  0  0
   -7.9128   -1.9771   -0.2492 H   0  0  0  0  0  0  0  0  0  0  0  0
   -6.8225   -4.3403   -0.5284 H   0  0  0  0  0  0  0  0  0  0  0  0
   -5.2575   -3.5712   -0.1899 H   0  0  0  0  0  0  0  0  0  0  0  0
   -7.2545   -2.9593   -2.4886 H   0  0  0  0  0  0  0  0  0  0  0  0
   -5.6755   -3.7860   -2.6446 H   0  0  0  0  0  0  0  0  0  0  0  0
   -6.0896   -0.8147   -1.8548 H   0  0  0  0  0  0  0  0  0  0  0  0
   -5.6793   -1.4126   -3.4645 H   0  0  0  0  0  0  0  0  0  0  0  0
   -3.4855   -1.7183   -3.0112 H   0  0  0  0  0  0  0  0  0  0  0  0
   -3.7480   -2.4257   -1.3798 H   0  0  0  0  0  0  0  0  0  0  0  0
   -1.4999   -0.8180   -2.8881 H   0  0  0  0  0  0  0  0  0  0  0  0
    0.7554   -0.0594   -2.3710 H   0  0  0  0  0  0  0  0  0  0  0  0
    2.1852    1.5177   -1.1673 H   0  0  0  0  0  0  0  0  0  0  0  0
    1.5507    2.4316    0.2358 H   0  0  0  0  0  0  0  0  0  0  0  0
    2.2889   -0.5743    0.2684 H   0  0  0  0  0  0  0  0  0  0  0  0
    1.7191    0.3887    1.6802 H   0  0  0  0  0  0  0  0  0  0  0  0
    4.6199   -0.8630    0.2123 H   0  0  0  0  0  0  0  0  0  0  0  0
    6.2294    1.6359    0.4166 H   0  0  0  0  0  0  0  0  0  0  0  0
    8.8307   -0.2715    1.1507 H   0  0  0  0  0  0  0  0  0  0  0  0
   10.3214   -1.3966   -0.4328 H   0  0  0  0  0  0  0  0  0  0  0  0
    5.7446   -0.1439   -1.8856 H   0  0  0  0  0  0  0  0  0  0  0  0
    7.6062    1.6679    4.9456 H   0  0  0  0  0  0  0  0  0  0  0  0
    7.0280   -0.9282    5.0159 H   0  0  0  0  0  0  0  0  0  0  0  0
    6.4966   -2.7468    3.2526 H   0  0  0  0  0  0  0  0  0  0  0  0
    4.9729   -2.0107    2.6079 H   0  0  0  0  0  0  0  0  0  0  0  0
    6.4105   -2.2371    1.5318 H   0  0  0  0  0  0  0  0  0  0  0  0
   -0.6694    1.8264    1.2195 H   0  0  0  0  0  0  0  0  0  0  0  0
   -2.9486    1.9040    1.7790 H   0  0  0  0  0  0  0  0  0  0  0  0
   -3.3653    0.1739    1.6192 H   0  0  0  0  0  0  0  0  0  0  0  0
  1  2  1  0
  2  3  1  0
  2  4  1  0
  4  5  1  0
  5  6  1  0
  6  7  2  0
  6  8  1  0
  8  9  1  0
  9 10  1  0
 10 11  1  0
 11 12  1  0
 12 13  1  0
 13 14  1  0
 14 15  1  0
 15 16  2  0
 16 17  1  0
 17 18  2  0
 18 19  1  0
 19 20  1  0
 20 21  1  0
 21 22  2  0
 21 23  1  0
 23 24  1  0
 24 25  1  0
 25 26  2  0
 26 27  1  0
 27 28  2  0
 28 29  1  0
 28 30  1  0
 30 31  1  0
 30 32  2  0
 24 33  1  0
 33 34  2  0
 34 35  1  0
 35 36  2  0
 36 37  1  0
 37 38  1  0
 18 39  1  0
 39 40  2  0
 40 41  1  0
 41  4  1  0
 40 15  1  0
 32 25  1  0
 37 33  1  0
  1 42  1  0
  1 43  1  0
  1 44  1  0
  2 45  1  0
  3 46  1  0
  3 47  1  0
  3 48  1  0
  5 49  1  0
  5 50  1  0
  8 51  1  0
  9 52  1  0
  9 53  1  0
 10 54  1  0
 10 55  1  0
 11 56  1  0
 11 57  1  0
 12 58  1  0
 12 59  1  0
 13 60  1  0
 13 61  1  0
 16 62  1  0
 17 63  1  0
 19 64  1  0
 19 65  1  0
 20 66  1  0
 20 67  1  0
 23 68  1  0
 24 69  1  0
 26 70  1  0
 27 71  1  0
 32 72  1  0
 35 73  1  0
 36 74  1  0
 38 75  1  0
 38 76  1  0
 38 77  1  0
 39 78  1  0
 41 79  1  0
 41 80  1  0
M  END
$$$$
