
     RDKit          3D

 68 70  0  0  0  0  0  0  0  0999 V2000
    6.2366   -0.2862    2.6393 C   0  0  0  0  0  0  0  0  0  0  0  0
    6.0379   -1.1101    1.3993 C   0  0  0  0  0  0  0  0  0  0  0  0
    6.3474   -2.3339    1.4400 O   0  0  0  0  0  0  0  0  0  0  0  0
    5.5134   -0.5432    0.1739 N   0  0  0  0  0  0  0  0  0  0  0  0
    5.1099   -1.4704   -0.9066 C   0  0  0  0  0  0  0  0  0  0  0  0
    4.2744   -0.8023   -2.0170 C   0  0  0  0  0  0  0  0  0  0  0  0
    2.8978   -0.3254   -1.5251 C   0  0  0  0  0  0  0  0  0  0  0  0
    2.9532    0.2827   -0.1829 N   0  0  0  0  0  0  0  0  0  0  0  0
    1.9254   -0.0202    0.7813 C   0  0  0  0  0  0  0  0  0  0  0  0
    2.2538   -0.2493    1.9794 O   0  0  0  0  0  0  0  0  0  0  0  0
    0.4651   -0.0260    0.3830 C   0  0  0  0  0  0  0  0  0  0  0  0
    0.0201    1.3952   -0.0155 C   0  0  0  0  0  0  0  0  0  0  0  0
   -1.2663    1.3845   -0.8089 C   0  0  0  0  0  0  0  0  0  0  0  0
   -1.3348    0.6636   -1.8414 O   0  0  0  0  0  0  0  0  0  0  0  0
   -2.3628    2.2627   -0.4870 N   0  0  0  0  0  0  0  0  0  0  0  0
   -3.0467    2.9389   -1.5935 C   0  0  0  0  0  0  0  0  0  0  0  0
   -2.6847    2.5814    0.9143 C   0  0  0  0  0  0  0  0  0  0  0  0
   -4.1726    2.7280    1.1298 C   0  0  0  0  0  0  0  0  0  0  0  0
   -4.6293    3.8662    1.4390 O   0  0  0  0  0  0  0  0  0  0  0  0
   -5.0824    1.6213    0.9593 N   0  0  0  0  0  0  0  0  0  0  0  0
   -6.4355    1.8921    0.4586 C   0  0  0  0  0  0  0  0  0  0  0  0
   -4.7153    0.2479    1.3289 C   0  0  0  0  0  0  0  0  0  0  0  0
   -4.3592   -0.5761    0.0943 C   0  0  0  0  0  0  0  0  0  0  0  0
   -3.7535   -1.7934    0.5165 O   0  0  0  0  0  0  0  0  0  0  0  0
   -2.7677   -2.4292   -0.2401 C   0  0  0  0  0  0  0  0  0  0  0  0
   -3.0886   -3.0286   -1.4652 C   0  0  0  0  0  0  0  0  0  0  0  0
   -2.0989   -3.6867   -2.2026 C   0  0  0  0  0  0  0  0  0  0  0  0
   -0.7886   -3.7482   -1.7192 C   0  0  0  0  0  0  0  0  0  0  0  0
   -0.4593   -3.1374   -0.5048 C   0  0  0  0  0  0  0  0  0  0  0  0
   -1.4437   -2.4546    0.2299 C   0  0  0  0  0  0  0  0  0  0  0  0
   -1.1023   -1.7520    1.4825 C   0  0  0  0  0  0  0  0  0  0  0  0
   -1.5843   -2.1856    2.5638 O   0  0  0  0  0  0  0  0  0  0  0  0
   -0.3614   -0.5190    1.4901 N   0  0  0  0  0  0  0  0  0  0  0  0
    3.9013    1.3661    0.1242 C   0  0  0  0  0  0  0  0  0  0  0  0
    5.3704    0.9173    0.0120 C   0  0  0  0  0  0  0  0  0  0  0  0
    5.3199    0.3015    2.8583 H   0  0  0  0  0  0  0  0  0  0  0  0
    7.1019    0.4007    2.4971 H   0  0  0  0  0  0  0  0  0  0  0  0
    6.4563   -0.9400    3.5110 H   0  0  0  0  0  0  0  0  0  0  0  0
    6.0220   -1.9155   -1.3607 H   0  0  0  0  0  0  0  0  0  0  0  0
    4.4965   -2.2943   -0.4715 H   0  0  0  0  0  0  0  0  0  0  0  0
    4.1162   -1.5437   -2.8288 H   0  0  0  0  0  0  0  0  0  0  0  0
    4.8318    0.0330   -2.4910 H   0  0  0  0  0  0  0  0  0  0  0  0
    2.2355   -1.2190   -1.5120 H   0  0  0  0  0  0  0  0  0  0  0  0
    2.4744    0.4039   -2.2497 H   0  0  0  0  0  0  0  0  0  0  0  0
    0.3560   -0.6803   -0.4978 H   0  0  0  0  0  0  0  0  0  0  0  0
    0.7887    1.8613   -0.6691 H   0  0  0  0  0  0  0  0  0  0  0  0
   -0.0572    2.0402    0.8871 H   0  0  0  0  0  0  0  0  0  0  0  0
   -3.7210    2.2223   -2.1103 H   0  0  0  0  0  0  0  0  0  0  0  0
   -2.3019    3.3236   -2.3191 H   0  0  0  0  0  0  0  0  0  0  0  0
   -3.6447    3.8019   -1.2356 H   0  0  0  0  0  0  0  0  0  0  0  0
   -2.3030    1.7886    1.5878 H   0  0  0  0  0  0  0  0  0  0  0  0
   -2.1698    3.5270    1.1916 H   0  0  0  0  0  0  0  0  0  0  0  0
   -6.9583    2.6041    1.1335 H   0  0  0  0  0  0  0  0  0  0  0  0
   -6.3771    2.3287   -0.5610 H   0  0  0  0  0  0  0  0  0  0  0  0
   -7.0371    0.9609    0.4048 H   0  0  0  0  0  0  0  0  0  0  0  0
   -3.8673    0.2492    2.0448 H   0  0  0  0  0  0  0  0  0  0  0  0
   -5.5628   -0.2399    1.8569 H   0  0  0  0  0  0  0  0  0  0  0  0
   -5.2715   -0.7912   -0.5096 H   0  0  0  0  0  0  0  0  0  0  0  0
   -3.6495   -0.0049   -0.5327 H   0  0  0  0  0  0  0  0  0  0  0  0
   -4.1028   -2.9926   -1.8427 H   0  0  0  0  0  0  0  0  0  0  0  0
   -2.3504   -4.1581   -3.1451 H   0  0  0  0  0  0  0  0  0  0  0  0
   -0.0249   -4.2592   -2.2932 H   0  0  0  0  0  0  0  0  0  0  0  0
    0.5614   -3.1784   -0.1468 H   0  0  0  0  0  0  0  0  0  0  0  0
   -0.3562    0.0294    2.3800 H   0  0  0  0  0  0  0  0  0  0  0  0
    3.7290    1.7436    1.1577 H   0  0  0  0  0  0  0  0  0  0  0  0
    3.7189    2.2224   -0.5597 H   0  0  0  0  0  0  0  0  0  0  0  0
    5.8020    1.2327   -0.9600 H   0  0  0  0  0  0  0  0  0  0  0  0
    5.9765    1.4722    0.7557 H   0  0  0  0  0  0  0  0  0  0  0  0
  1  2  1  0
  2  3  2  0
  2  4  1  0
  4  5  1  0
  5  6  1  0
  6  7  1  0
  7  8  1  0
  8  9  1  0
  9 10  2  0
  9 11  1  0
 11 12  1  0
 12 13  1  0
 13 14  2  0
 13 15  1  0
 15 16  1  0
 15 17  1  0
 17 18  1  0
 18 19  2  0
 18 20  1  0
 20 21  1  0
 20 22  1  0
 22 23  1  0
 23 24  1  0
 24 25  1  0
 25 26  2  0
 26 27  1  0
 27 28  2  0
 28 29  1  0
 29 30  2  0
 30 31  1  0
 31 32  2  0
 31 33  1  0
  8 34  1  0
 34 35  1  0
 35  4  1  0
 33 11  1  0
 30 25  1  0
  1 36  1  0
  1 37  1  0
  1 38  1  0
  5 39  1  0
  5 40  1  0
  6 41  1  0
  6 42  1  0
  7 43  1  0
  7 44  1  0
 11 45  1  0
 12 46  1  0
 12 47  1  0
 16 48  1  0
 16 49  1  0
 16 50  1  0
 17 51  1  0
 17 52  1  0
 21 53  1  0
 21 54  1  0
 21 55  1  0
 22 56  1  0
 22 57  1  0
 23 58  1  0
 23 59  1  0
 26 60  1  0
 27 61  1  0
 28 62  1  0
 29 63  1  0
 33 64  1  0
 34 65  1  0
 34 66  1  0
 35 67  1  0
 35 68  1  0
M  END
$$$$
