
     RDKit          3D

 72 76  0  0  0  0  0  0  0  0999 V2000
   -4.1562   -4.5462   -0.8969 C   0  0  0  0  0  0  0  0  0  0  0  0
   -3.7783   -3.1898   -0.8416 O   0  0  0  0  0  0  0  0  0  0  0  0
   -4.0623   -2.6728    0.4444 C   0  0  0  0  0  0  0  0  0  0  0  0
   -3.6072   -1.1908    0.5400 C   0  0  0  0  0  0  0  0  0  0  0  0
   -2.0768   -1.0725    0.2150 C   0  0  0  0  0  0  0  0  0  0  0  0
   -1.1477   -1.9915    1.0401 C   0  0  0  0  0  0  0  0  0  0  0  0
    0.3117   -1.5090    1.0274 C   0  0  0  0  0  0  0  0  0  0  0  0
    0.9927   -1.6417   -0.3511 C   0  0  0  0  0  0  0  0  0  0  0  0
    1.7709   -0.4329   -0.6646 N   0  0  0  0  0  0  0  0  0  0  0  0
    3.1866   -0.3358   -0.3735 C   0  0  0  0  0  0  0  0  0  0  0  0
    3.8554    0.6132   -0.8703 O   0  0  0  0  0  0  0  0  0  0  0  0
    3.8984   -1.3738    0.4605 C   0  0  0  0  0  0  0  0  0  0  0  0
    5.1019   -0.8049    1.1523 C   0  0  0  0  0  0  0  0  0  0  0  0
    5.0891   -0.2884    2.4051 N   0  0  0  0  0  0  0  0  0  0  0  0
    6.2908    0.1609    2.6578 O   0  0  0  0  0  0  0  0  0  0  0  0
    7.0736   -0.0328    1.6245 C   0  0  0  0  0  0  0  0  0  0  0  0
    8.4155    0.3050    1.4738 C   0  0  0  0  0  0  0  0  0  0  0  0
    9.0295   -0.0016    0.2433 C   0  0  0  0  0  0  0  0  0  0  0  0
    8.2932   -0.6288   -0.7901 C   0  0  0  0  0  0  0  0  0  0  0  0
    6.9369   -0.9582   -0.6018 C   0  0  0  0  0  0  0  0  0  0  0  0
    6.3665   -0.6434    0.6298 C   0  0  0  0  0  0  0  0  0  0  0  0
    1.0742    0.7221   -1.2554 C   0  0  0  0  0  0  0  0  0  0  0  0
    1.0180    1.9031   -0.2677 C   0  0  0  0  0  0  0  0  0  0  0  0
   -0.3305    2.2986   -0.0135 O   0  0  0  0  0  0  0  0  0  0  0  0
   -1.1549    3.0195   -0.8943 C   0  0  0  0  0  0  0  0  0  0  0  0
   -0.7032    3.4627   -2.1533 C   0  0  0  0  0  0  0  0  0  0  0  0
   -1.5415    4.2200   -2.9772 C   0  0  0  0  0  0  0  0  0  0  0  0
   -2.8317    4.5462   -2.5563 C   0  0  0  0  0  0  0  0  0  0  0  0
   -3.2944    4.1046   -1.3152 C   0  0  0  0  0  0  0  0  0  0  0  0
   -2.4695    3.3241   -0.4914 C   0  0  0  0  0  0  0  0  0  0  0  0
   -2.9731    2.8406    0.8049 C   0  0  0  0  0  0  0  0  0  0  0  0
   -2.7139    3.5082    1.8420 O   0  0  0  0  0  0  0  0  0  0  0  0
   -3.6589    1.5777    0.9146 N   0  0  0  0  0  0  0  0  0  0  0  0
   -3.5299    0.8068    2.1584 C   0  0  0  0  0  0  0  0  0  0  0  0
   -3.9456   -0.6605    1.9635 C   0  0  0  0  0  0  0  0  0  0  0  0
   -4.6120    1.1358   -0.1137 C   0  0  0  0  0  0  0  0  0  0  0  0
   -4.4127   -0.3459   -0.5000 C   0  0  0  0  0  0  0  0  0  0  0  0
   -3.5820   -5.1563   -0.1642 H   0  0  0  0  0  0  0  0  0  0  0  0
   -5.2502   -4.6669   -0.7296 H   0  0  0  0  0  0  0  0  0  0  0  0
   -3.9254   -4.9352   -1.9097 H   0  0  0  0  0  0  0  0  0  0  0  0
   -5.1578   -2.7324    0.6496 H   0  0  0  0  0  0  0  0  0  0  0  0
   -3.5459   -3.2680    1.2324 H   0  0  0  0  0  0  0  0  0  0  0  0
   -1.7481   -0.0226    0.3339 H   0  0  0  0  0  0  0  0  0  0  0  0
   -1.9209   -1.3114   -0.8576 H   0  0  0  0  0  0  0  0  0  0  0  0
   -1.1957   -3.0312    0.6479 H   0  0  0  0  0  0  0  0  0  0  0  0
   -1.4740   -2.0177    2.0989 H   0  0  0  0  0  0  0  0  0  0  0  0
    0.3449   -0.4591    1.3910 H   0  0  0  0  0  0  0  0  0  0  0  0
    0.8822   -2.1125    1.7654 H   0  0  0  0  0  0  0  0  0  0  0  0
    1.6408   -2.5427   -0.3684 H   0  0  0  0  0  0  0  0  0  0  0  0
    0.2551   -1.8220   -1.1600 H   0  0  0  0  0  0  0  0  0  0  0  0
    4.2061   -2.2181   -0.1921 H   0  0  0  0  0  0  0  0  0  0  0  0
    3.2178   -1.7691    1.2408 H   0  0  0  0  0  0  0  0  0  0  0  0
    8.9647    0.7900    2.2702 H   0  0  0  0  0  0  0  0  0  0  0  0
   10.0704    0.2493    0.0848 H   0  0  0  0  0  0  0  0  0  0  0  0
    8.7734   -0.8529   -1.7338 H   0  0  0  0  0  0  0  0  0  0  0  0
    6.3619   -1.4333   -1.3854 H   0  0  0  0  0  0  0  0  0  0  0  0
    1.5980    1.0331   -2.1855 H   0  0  0  0  0  0  0  0  0  0  0  0
    0.0432    0.4393   -1.5597 H   0  0  0  0  0  0  0  0  0  0  0  0
    1.6084    2.7641   -0.6471 H   0  0  0  0  0  0  0  0  0  0  0  0
    1.4709    1.6176    0.7060 H   0  0  0  0  0  0  0  0  0  0  0  0
    0.2939    3.2367   -2.5022 H   0  0  0  0  0  0  0  0  0  0  0  0
   -1.1867    4.5620   -3.9412 H   0  0  0  0  0  0  0  0  0  0  0  0
   -3.4740    5.1404   -3.1927 H   0  0  0  0  0  0  0  0  0  0  0  0
   -4.2993    4.3599   -1.0012 H   0  0  0  0  0  0  0  0  0  0  0  0
   -2.4703    0.8281    2.4958 H   0  0  0  0  0  0  0  0  0  0  0  0
   -4.1496    1.2722    2.9539 H   0  0  0  0  0  0  0  0  0  0  0  0
   -3.4742   -1.2823    2.7535 H   0  0  0  0  0  0  0  0  0  0  0  0
   -5.0445   -0.7339    2.1254 H   0  0  0  0  0  0  0  0  0  0  0  0
   -4.5426    1.7527   -1.0315 H   0  0  0  0  0  0  0  0  0  0  0  0
   -5.6399    1.2752    0.2854 H   0  0  0  0  0  0  0  0  0  0  0  0
   -3.9282   -0.3990   -1.5000 H   0  0  0  0  0  0  0  0  0  0  0  0
   -5.4269   -0.7816   -0.6423 H   0  0  0  0  0  0  0  0  0  0  0  0
  1  2  1  0
  2  3  1  0
  3  4  1  0
  4  5  1  0
  5  6  1  0
  6  7  1  0
  7  8  1  0
  8  9  1  0
  9 10  1  0
 10 11  2  0
 10 12  1  0
 12 13  1  0
 13 14  2  0
 14 15  1  0
 15 16  1  0
 16 17  2  0
 17 18  1  0
 18 19  2  0
 19 20  1  0
 20 21  2  0
  9 22  1  0
 22 23  1  0
 23 24  1  0
 24 25  1  0
 25 26  2  0
 26 27  1  0
 27 28  2  0
 28 29  1  0
 29 30  2  0
 30 31  1  0
 31 32  2  0
 31 33  1  0
 33 34  1  0
 34 35  1  0
 33 36  1  0
 36 37  1  0
 35  4  1  0
 37  4  1  0
 21 13  1  0
 30 25  1  0
 21 16  1  0
  1 38  1  0
  1 39  1  0
  1 40  1  0
  3 41  1  0
  3 42  1  0
  5 43  1  0
  5 44  1  0
  6 45  1  0
  6 46  1  0
  7 47  1  0
  7 48  1  0
  8 49  1  0
  8 50  1  0
 12 51  1  0
 12 52  1  0
 17 53  1  0
 18 54  1  0
 19 55  1  0
 20 56  1  0
 22 57  1  0
 22 58  1  0
 23 59  1  0
 23 60  1  0
 26 61  1  0
 27 62  1  0
 28 63  1  0
 29 64  1  0
 34 65  1  0
 34 66  1  0
 35 67  1  0
 35 68  1  0
 36 69  1  0
 36 70  1  0
 37 71  1  0
 37 72  1  0
M  END
$$$$
