
     RDKit          3D

115119  0  0  0  0  0  0  0  0999 V2000
    6.6332   -2.1342    3.1543 C   0  0  0  0  0  0  0  0  0  0  0  0
    6.5652   -3.1919    2.0363 C   0  0  0  0  0  0  0  0  0  0  0  0
    7.2609   -4.4779    2.4935 C   0  0  0  0  0  0  0  0  0  0  0  0
    7.4055   -2.6113    0.5128 S   0  0  0  0  0  0  0  0  0  0  0  0
    6.2721   -1.2294    0.0654 C   0  0  2  0  0  0  0  0  0  0  0  0
    5.2047   -1.7214   -0.8126 N   0  0  0  0  0  0  0  0  0  0  0  0
    4.0423   -0.9386   -1.1436 C   0  0  0  0  0  0  0  0  0  0  0  0
    4.0097    0.2850   -0.8083 O   0  0  0  0  0  0  0  0  0  0  0  0
    2.8644   -1.5435   -1.9313 C   0  0  1  0  0  0  0  0  0  0  0  0
    1.5947   -0.6415   -1.7556 C   0  0  0  0  0  0  0  0  0  0  0  0
    0.1980   -1.3076   -1.9838 C   0  0  2  0  0  0  0  0  0  0  0  0
    0.2010   -1.9657   -3.2298 O   0  0  0  0  0  0  0  0  0  0  0  0
   -0.9633   -0.2675   -1.9916 C   0  0  2  0  0  0  0  0  0  0  0  0
   -1.1254    0.6086   -0.7320 C   0  0  0  0  0  0  0  0  0  0  0  0
   -1.4342    1.9264   -1.1582 O   0  0  0  0  0  0  0  0  0  0  0  0
   -1.2499    2.8331   -0.0920 C   0  0  0  0  0  0  0  0  0  0  0  0
   -2.3137    2.6528    0.9416 C   0  0  0  0  0  0  0  0  0  0  0  0
   -1.9935    2.0052    2.1496 C   0  0  0  0  0  0  0  0  0  0  0  0
   -2.9864    1.6347    3.0507 C   0  0  0  0  0  0  0  0  0  0  0  0
   -4.3184    1.9089    2.7602 C   0  0  0  0  0  0  0  0  0  0  0  0
   -4.6754    2.5897    1.5625 C   0  0  0  0  0  0  0  0  0  0  0  0
   -3.6542    2.9516    0.6459 C   0  0  0  0  0  0  0  0  0  0  0  0
   -6.1400    2.6596    1.1662 C   0  0  0  0  0  0  0  0  0  0  0  0
   -6.6304    4.0605    0.8673 C   0  0  0  0  0  0  0  0  0  0  0  0
   -6.3883    4.6946   -0.3712 C   0  0  0  0  0  0  0  0  0  0  0  0
   -6.8008    6.0038   -0.5901 C   0  0  0  0  0  0  0  0  0  0  0  0
   -7.4896    6.7012    0.4171 C   0  0  0  0  0  0  0  0  0  0  0  0
   -7.7611    6.0810    1.6412 C   0  0  0  0  0  0  0  0  0  0  0  0
   -7.3287    4.7666    1.8627 C   0  0  0  0  0  0  0  0  0  0  0  0
   -6.3871    1.7219    0.0609 N   0  0  0  0  0  0  0  0  0  0  0  0
   -6.8773    0.4101    0.3363 C   0  0  0  0  0  0  0  0  0  0  0  0
   -7.7970    0.2715    1.1699 O   0  0  0  0  0  0  0  0  0  0  0  0
   -6.2208   -0.8079   -0.2167 C   0  0  0  0  0  0  0  0  0  0  0  0
   -4.9683   -0.7639   -0.8903 C   0  0  0  0  0  0  0  0  0  0  0  0
   -4.2834   -1.9645   -1.2092 C   0  0  0  0  0  0  0  0  0  0  0  0
   -4.9088   -3.1834   -0.9168 C   0  0  0  0  0  0  0  0  0  0  0  0
   -6.1437   -3.2288   -0.2677 C   0  0  0  0  0  0  0  0  0  0  0  0
   -6.5899   -4.4769    0.2871 N   0  0  0  0  0  0  0  0  0  0  0  0
   -7.6585   -5.2720   -0.3240 C   0  0  0  0  0  0  0  0  0  0  0  0
   -5.8040   -5.0435    1.7313 S   0  0  0  0  0  6  0  0  0  0  0  0
   -6.3127   -4.0499    3.1205 C   0  0  0  0  0  0  0  0  0  0  0  0
   -4.3102   -4.9321    1.5799 O   0  0  0  0  0  0  0  0  0  0  0  0
   -6.1679   -6.4888    1.9972 O   0  0  0  0  0  0  0  0  0  0  0  0
   -6.7967   -2.0600    0.0691 C   0  0  0  0  0  0  0  0  0  0  0  0
   -2.8997   -1.9971   -1.7422 C   0  0  0  0  0  0  0  0  0  0  0  0
   -2.3023   -3.1217   -1.8078 O   0  0  0  0  0  0  0  0  0  0  0  0
   -2.2842   -0.8442   -2.3515 N   0  0  0  0  0  0  0  0  0  0  0  0
    3.2190   -1.7433   -3.4552 C   0  0  0  0  0  0  0  0  0  0  0  0
    3.8239   -3.1314   -3.7424 C   0  0  0  0  0  0  0  0  0  0  0  0
    4.1259   -0.6454   -4.0270 C   0  0  0  0  0  0  0  0  0  0  0  0
    7.1123   -0.1961   -0.6255 C   0  0  0  0  0  0  0  0  0  0  0  0
    6.9138    0.0928   -1.8409 O   0  0  0  0  0  0  0  0  0  0  0  0
    8.1548    0.4657    0.1166 N   0  0  0  0  0  0  0  0  0  0  0  0
    9.0241    1.4887   -0.4517 C   0  0  0  0  0  0  0  0  0  0  0  0
    8.5327    2.8444   -0.0573 C   0  0  0  0  0  0  0  0  0  0  0  0
    7.4956    3.4476   -0.7815 C   0  0  0  0  0  0  0  0  0  0  0  0
    6.9710    4.6735   -0.3645 C   0  0  0  0  0  0  0  0  0  0  0  0
    7.4845    5.3032    0.7736 C   0  0  0  0  0  0  0  0  0  0  0  0
    8.5084    4.7081    1.5073 C   0  0  0  0  0  0  0  0  0  0  0  0
    9.0267    3.4724    1.0992 C   0  0  0  0  0  0  0  0  0  0  0  0
    7.5786   -1.5464    3.0786 H   0  0  0  0  0  0  0  0  0  0  0  0
    6.6052   -2.6043    4.1669 H   0  0  0  0  0  0  0  0  0  0  0  0
    5.7593   -1.4441    3.0714 H   0  0  0  0  0  0  0  0  0  0  0  0
    5.5019   -3.4304    1.7857 H   0  0  0  0  0  0  0  0  0  0  0  0
    7.3825   -5.1882    1.6395 H   0  0  0  0  0  0  0  0  0  0  0  0
    8.2615   -4.2380    2.9278 H   0  0  0  0  0  0  0  0  0  0  0  0
    6.6513   -4.9675    3.2673 H   0  0  0  0  0  0  0  0  0  0  0  0
    5.8195   -0.7700    0.9707 H   0  0  0  0  0  0  0  0  0  0  0  0
    5.2772   -2.7229   -1.1334 H   0  0  0  0  0  0  0  0  0  0  0  0
    2.6188   -2.5291   -1.4660 H   0  0  0  0  0  0  0  0  0  0  0  0
    1.6784    0.2826   -2.3788 H   0  0  0  0  0  0  0  0  0  0  0  0
    1.6148   -0.3120   -0.6949 H   0  0  0  0  0  0  0  0  0  0  0  0
    0.0493   -2.0199   -1.1523 H   0  0  0  0  0  0  0  0  0  0  0  0
   -0.3707   -2.7721   -3.1471 H   0  0  0  0  0  0  0  0  0  0  0  0
   -0.6839    0.4296   -2.8213 H   0  0  0  0  0  0  0  0  0  0  0  0
   -0.2333    0.5937   -0.0932 H   0  0  0  0  0  0  0  0  0  0  0  0
   -1.9563    0.2063   -0.1086 H   0  0  0  0  0  0  0  0  0  0  0  0
   -0.2280    2.7719    0.3380 H   0  0  0  0  0  0  0  0  0  0  0  0
   -1.3494    3.8638   -0.4899 H   0  0  0  0  0  0  0  0  0  0  0  0
   -0.9579    1.7580    2.3607 H   0  0  0  0  0  0  0  0  0  0  0  0
   -2.7439    1.0640    3.9469 H   0  0  0  0  0  0  0  0  0  0  0  0
   -5.0731    1.5456    3.4380 H   0  0  0  0  0  0  0  0  0  0  0  0
   -3.9020    3.3811   -0.3102 H   0  0  0  0  0  0  0  0  0  0  0  0
   -6.7223    2.3176    2.0388 H   0  0  0  0  0  0  0  0  0  0  0  0
   -5.8828    4.1774   -1.1710 H   0  0  0  0  0  0  0  0  0  0  0  0
   -6.5889    6.4841   -1.5297 H   0  0  0  0  0  0  0  0  0  0  0  0
   -7.8276    7.7140    0.2312 H   0  0  0  0  0  0  0  0  0  0  0  0
   -8.3208    6.6000    2.3981 H   0  0  0  0  0  0  0  0  0  0  0  0
   -7.5493    4.3165    2.8242 H   0  0  0  0  0  0  0  0  0  0  0  0
   -6.1086    1.9629   -0.9226 H   0  0  0  0  0  0  0  0  0  0  0  0
   -4.4845    0.1964   -1.0759 H   0  0  0  0  0  0  0  0  0  0  0  0
   -4.4334   -4.1304   -1.1353 H   0  0  0  0  0  0  0  0  0  0  0  0
   -8.3757   -5.6239    0.4579 H   0  0  0  0  0  0  0  0  0  0  0  0
   -8.2294   -4.6409   -1.0461 H   0  0  0  0  0  0  0  0  0  0  0  0
   -7.2337   -6.1334   -0.8790 H   0  0  0  0  0  0  0  0  0  0  0  0
   -6.3764   -2.9929    2.8418 H   0  0  0  0  0  0  0  0  0  0  0  0
   -5.5836   -4.1959    3.9501 H   0  0  0  0  0  0  0  0  0  0  0  0
   -7.3120   -4.4138    3.4683 H   0  0  0  0  0  0  0  0  0  0  0  0
   -7.7334   -2.1384    0.6024 H   0  0  0  0  0  0  0  0  0  0  0  0
   -2.8601   -0.3025   -3.0439 H   0  0  0  0  0  0  0  0  0  0  0  0
    2.2915   -1.7622   -4.0578 H   0  0  0  0  0  0  0  0  0  0  0  0
    4.3532   -3.1902   -4.7168 H   0  0  0  0  0  0  0  0  0  0  0  0
    3.0046   -3.9034   -3.7168 H   0  0  0  0  0  0  0  0  0  0  0  0
    4.5256   -3.4226   -2.9522 H   0  0  0  0  0  0  0  0  0  0  0  0
    5.2036   -0.8757   -3.8156 H   0  0  0  0  0  0  0  0  0  0  0  0
    3.9784   -0.5922   -5.1228 H   0  0  0  0  0  0  0  0  0  0  0  0
    3.8828    0.3540   -3.5978 H   0  0  0  0  0  0  0  0  0  0  0  0
    8.2405    0.2680    1.1378 H   0  0  0  0  0  0  0  0  0  0  0  0
    9.0908    1.3985   -1.5510 H   0  0  0  0  0  0  0  0  0  0  0  0
   10.0524    1.3216   -0.0622 H   0  0  0  0  0  0  0  0  0  0  0  0
    7.0888    2.9686   -1.6609 H   0  0  0  0  0  0  0  0  0  0  0  0
    6.1559    5.1382   -0.9252 H   0  0  0  0  0  0  0  0  0  0  0  0
    7.0594    6.2396    1.0953 H   0  0  0  0  0  0  0  0  0  0  0  0
    8.9001    5.2091    2.3874 H   0  0  0  0  0  0  0  0  0  0  0  0
    9.8162    3.0185    1.6709 H   0  0  0  0  0  0  0  0  0  0  0  0
  1  2  1  0
  2  3  1  0
  2  4  1  0
  4  5  1  0
  5  6  1  0
  6  7  1  0
  7  8  2  0
  7  9  1  0
  9 10  1  0
 10 11  1  0
 11 12  1  0
 11 13  1  0
 13 14  1  0
 14 15  1  0
 15 16  1  0
 16 17  1  0
 17 18  1  0
 18 19  2  0
 19 20  1  0
 20 21  2  0
 21 22  1  0
 21 23  1  0
 23 24  1  0
 24 25  2  0
 25 26  1  0
 26 27  2  0
 27 28  1  0
 28 29  2  0
 23 30  1  0
 30 31  1  0
 31 32  2  0
 31 33  1  0
 33 34  1  0
 34 35  2  0
 35 36  1  0
 36 37  2  0
 37 38  1  0
 38 39  1  0
 38 40  1  0
 40 41  1  0
 40 42  2  0
 40 43  2  0
 37 44  1  0
 35 45  1  0
 45 46  2  0
 45 47  1  0
  9 48  1  0
 48 49  1  0
 48 50  1  0
  5 51  1  0
 51 52  2  0
 51 53  1  0
 53 54  1  0
 54 55  1  0
 55 56  2  0
 56 57  1  0
 57 58  2  0
 58 59  1  0
 59 60  2  0
 47 13  1  0
 60 55  1  0
 22 17  2  0
 29 24  1  0
 44 33  2  0
  1 61  1  0
  1 62  1  0
  1 63  1  0
  2 64  1  0
  3 65  1  0
  3 66  1  0
  3 67  1  0
  5 68  1  1
  6 69  1  0
  9 70  1  1
 10 71  1  0
 10 72  1  0
 11 73  1  1
 12 74  1  0
 13 75  1  6
 14 76  1  0
 14 77  1  0
 16 78  1  0
 16 79  1  0
 18 80  1  0
 19 81  1  0
 20 82  1  0
 22 83  1  0
 23 84  1  0
 25 85  1  0
 26 86  1  0
 27 87  1  0
 28 88  1  0
 29 89  1  0
 30 90  1  0
 34 91  1  0
 36 92  1  0
 39 93  1  0
 39 94  1  0
 39 95  1  0
 41 96  1  0
 41 97  1  0
 41 98  1  0
 44 99  1  0
 47100  1  0
 48101  1  0
 49102  1  0
 49103  1  0
 49104  1  0
 50105  1  0
 50106  1  0
 50107  1  0
 53108  1  0
 54109  1  0
 54110  1  0
 56111  1  0
 57112  1  0
 58113  1  0
 59114  1  0
 60115  1  0
M  END
$$$$
