
     RDKit          3D

 69 71  0  0  0  0  0  0  0  0999 V2000
    5.6027   -1.6594   -0.1258 C   0  0  0  0  0  0  0  0  0  0  0  0
    4.7432   -1.2863   -1.1820 O   0  0  0  0  0  0  0  0  0  0  0  0
    4.2224    0.0208   -0.9728 C   0  0  1  0  0  0  0  0  0  0  0  0
    4.0525    0.7120   -2.3355 C   0  0  0  0  0  0  0  0  0  0  0  0
    3.2886    2.0321   -2.1858 C   0  0  0  0  0  0  0  0  0  0  0  0
    1.9771    1.7252   -1.4708 C   0  0  2  0  0  0  0  0  0  0  0  0
    1.0331    2.9370   -1.3740 C   0  0  0  0  0  0  0  0  0  0  0  0
   -0.2995    2.4474   -0.7940 C   0  0  0  0  0  0  0  0  0  0  0  0
   -1.2830    3.4701   -0.7138 O   0  0  0  0  0  0  0  0  0  0  0  0
   -2.4294    3.3196    0.0871 C   0  0  0  0  0  0  0  0  0  0  0  0
   -2.7424    4.3633    0.9702 C   0  0  0  0  0  0  0  0  0  0  0  0
   -3.8250    4.2597    1.8454 C   0  0  0  0  0  0  0  0  0  0  0  0
   -4.6207    3.1107    1.8403 C   0  0  0  0  0  0  0  0  0  0  0  0
   -5.7645    3.0344    2.7057 C   0  0  0  0  0  0  0  0  0  0  0  0
   -6.6879    2.9856    3.3993 N   0  0  0  0  0  0  0  0  0  0  0  0
   -4.3400    2.0678    0.9478 C   0  0  0  0  0  0  0  0  0  0  0  0
   -3.2541    2.1583    0.0616 C   0  0  0  0  0  0  0  0  0  0  0  0
   -3.1716    1.1500   -1.0143 C   0  0  0  0  0  0  0  0  0  0  0  0
   -3.8327    1.3729   -2.0673 O   0  0  0  0  0  0  0  0  0  0  0  0
   -2.4335   -0.0914   -0.8777 N   0  0  0  0  0  0  0  0  0  0  0  0
   -2.1482   -0.8675   -2.0955 C   0  0  0  0  0  0  0  0  0  0  0  0
   -1.8430   -0.4724    0.4274 C   0  0  0  0  0  0  0  0  0  0  0  0
   -1.5360   -1.9874    0.5899 C   0  0  2  0  0  0  0  0  0  0  0  0
   -2.7663   -2.6764    0.7528 O   0  0  0  0  0  0  0  0  0  0  0  0
   -2.7269   -3.9395    0.1291 C   0  0  0  0  0  0  0  0  0  0  0  0
   -0.6095   -2.2619    1.8147 C   0  0  2  0  0  0  0  0  0  0  0  0
   -1.2530   -1.8156    3.1445 C   0  0  0  0  0  0  0  0  0  0  0  0
    0.7778   -1.6605    1.6237 C   0  0  0  0  0  0  0  0  0  0  0  0
    1.2292   -0.8218    2.4530 O   0  0  0  0  0  0  0  0  0  0  0  0
    1.6212   -2.0853    0.5364 N   0  0  0  0  0  0  0  0  0  0  0  0
    2.2135   -3.4198    0.5753 C   0  0  0  0  0  0  0  0  0  0  0  0
    1.8915   -1.1635   -0.5791 C   0  0  0  0  0  0  0  0  0  0  0  0
    2.8812   -0.0278   -0.1777 C   0  0  2  0  0  0  0  0  0  0  0  0
    2.2428    1.2399   -0.1619 O   0  0  0  0  0  0  0  0  0  0  0  0
    5.9824   -2.6827   -0.3236 H   0  0  0  0  0  0  0  0  0  0  0  0
    6.4886   -0.9877   -0.0743 H   0  0  0  0  0  0  0  0  0  0  0  0
    5.0709   -1.6750    0.8517 H   0  0  0  0  0  0  0  0  0  0  0  0
    4.9329    0.6692   -0.3981 H   0  0  0  0  0  0  0  0  0  0  0  0
    5.0495    0.9102   -2.7830 H   0  0  0  0  0  0  0  0  0  0  0  0
    3.4996    0.0383   -3.0256 H   0  0  0  0  0  0  0  0  0  0  0  0
    3.0918    2.4691   -3.1883 H   0  0  0  0  0  0  0  0  0  0  0  0
    3.8896    2.7567   -1.5993 H   0  0  0  0  0  0  0  0  0  0  0  0
    1.4459    0.9704   -2.0917 H   0  0  0  0  0  0  0  0  0  0  0  0
    0.8585    3.3662   -2.3846 H   0  0  0  0  0  0  0  0  0  0  0  0
    1.4706    3.7187   -0.7152 H   0  0  0  0  0  0  0  0  0  0  0  0
   -0.1078    2.0779    0.2364 H   0  0  0  0  0  0  0  0  0  0  0  0
   -0.6734    1.6344   -1.4470 H   0  0  0  0  0  0  0  0  0  0  0  0
   -2.1284    5.2551    0.9918 H   0  0  0  0  0  0  0  0  0  0  0  0
   -4.0441    5.0764    2.5226 H   0  0  0  0  0  0  0  0  0  0  0  0
   -4.9902    1.1989    0.9145 H   0  0  0  0  0  0  0  0  0  0  0  0
   -2.7660   -1.7881   -2.1105 H   0  0  0  0  0  0  0  0  0  0  0  0
   -1.0688   -1.1261   -2.1491 H   0  0  0  0  0  0  0  0  0  0  0  0
   -2.3653   -0.2886   -3.0216 H   0  0  0  0  0  0  0  0  0  0  0  0
   -0.9036    0.0926    0.5598 H   0  0  0  0  0  0  0  0  0  0  0  0
   -2.5334   -0.1705    1.2441 H   0  0  0  0  0  0  0  0  0  0  0  0
   -0.9758   -2.3343   -0.3072 H   0  0  0  0  0  0  0  0  0  0  0  0
   -3.6821   -4.4603    0.3327 H   0  0  0  0  0  0  0  0  0  0  0  0
   -2.6275   -3.8388   -0.9700 H   0  0  0  0  0  0  0  0  0  0  0  0
   -1.9054   -4.5753    0.5289 H   0  0  0  0  0  0  0  0  0  0  0  0
   -0.4684   -3.3600    1.8950 H   0  0  0  0  0  0  0  0  0  0  0  0
   -2.2698   -2.2512    3.2608 H   0  0  0  0  0  0  0  0  0  0  0  0
   -1.3234   -0.7086    3.1918 H   0  0  0  0  0  0  0  0  0  0  0  0
   -0.6339   -2.1630    4.0007 H   0  0  0  0  0  0  0  0  0  0  0  0
    1.4108   -4.1882    0.5218 H   0  0  0  0  0  0  0  0  0  0  0  0
    2.9082   -3.5742   -0.2777 H   0  0  0  0  0  0  0  0  0  0  0  0
    2.7885   -3.5531    1.5169 H   0  0  0  0  0  0  0  0  0  0  0  0
    2.2652   -1.7171   -1.4616 H   0  0  0  0  0  0  0  0  0  0  0  0
    0.9183   -0.7412   -0.8886 H   0  0  0  0  0  0  0  0  0  0  0  0
    3.1867   -0.2202    0.8709 H   0  0  0  0  0  0  0  0  0  0  0  0
  1  2  1  0
  2  3  1  0
  3  4  1  0
  4  5  1  0
  5  6  1  0
  6  7  1  0
  7  8  1  0
  8  9  1  0
  9 10  1  0
 10 11  2  0
 11 12  1  0
 12 13  2  0
 13 14  1  0
 14 15  3  0
 13 16  1  0
 16 17  2  0
 17 18  1  0
 18 19  2  0
 18 20  1  0
 20 21  1  0
 20 22  1  0
 22 23  1  0
 23 24  1  0
 24 25  1  0
 23 26  1  0
 26 27  1  0
 26 28  1  0
 28 29  2  0
 28 30  1  0
 30 31  1  0
 30 32  1  0
 32 33  1  0
 33 34  1  0
 33  3  1  0
 34  6  1  0
 17 10  1  0
  1 35  1  0
  1 36  1  0
  1 37  1  0
  3 38  1  1
  4 39  1  0
  4 40  1  0
  5 41  1  0
  5 42  1  0
  6 43  1  6
  7 44  1  0
  7 45  1  0
  8 46  1  0
  8 47  1  0
 11 48  1  0
 12 49  1  0
 16 50  1  0
 21 51  1  0
 21 52  1  0
 21 53  1  0
 22 54  1  0
 22 55  1  0
 23 56  1  6
 25 57  1  0
 25 58  1  0
 25 59  1  0
 26 60  1  1
 27 61  1  0
 27 62  1  0
 27 63  1  0
 31 64  1  0
 31 65  1  0
 31 66  1  0
 32 67  1  0
 32 68  1  0
 33 69  1  1
M  END
$$$$
