
     RDKit          3D

 67 71  0  0  0  0  0  0  0  0999 V2000
    2.9698    1.2456   -0.1783 O   0  0  0  0  0  0  0  0  0  0  0  0
    2.8488    0.0694    0.2593 C   0  0  0  0  0  0  0  0  0  0  0  0
    1.4915   -0.4372    0.6504 C   0  0  0  0  0  0  0  0  0  0  0  0
    1.0646   -1.5438   -0.2315 N   0  0  0  0  0  0  0  0  0  0  0  0
    0.8714   -1.0986   -1.6280 C   0  0  0  0  0  0  0  0  0  0  0  0
   -0.1348   -1.9944   -2.3567 C   0  0  0  0  0  0  0  0  0  0  0  0
   -1.4309   -1.9178   -1.7898 O   0  0  0  0  0  0  0  0  0  0  0  0
   -1.4590   -1.8523   -0.3600 C   0  0  0  0  0  0  0  0  0  0  0  0
   -2.5615   -2.8271    0.1285 C   0  0  0  0  0  0  0  0  0  0  0  0
   -3.8998   -2.5345   -0.5011 C   0  0  0  0  0  0  0  0  0  0  0  0
   -4.7989   -1.7368    0.0926 C   0  0  0  0  0  0  0  0  0  0  0  0
   -6.0475   -1.3221   -0.6368 C   0  0  0  0  0  0  0  0  0  0  0  0
   -6.7096   -0.1172   -0.0077 C   0  0  0  0  0  0  0  0  0  0  0  0
   -8.0751   -0.1745    0.3187 C   0  0  0  0  0  0  0  0  0  0  0  0
   -8.7394    0.9577    0.7932 C   0  0  0  0  0  0  0  0  0  0  0  0
   -8.0544    2.1642    0.9278 C   0  0  0  0  0  0  0  0  0  0  0  0
   -6.6990    2.2421    0.6020 C   0  0  0  0  0  0  0  0  0  0  0  0
   -6.0091    1.1024    0.1431 C   0  0  0  0  0  0  0  0  0  0  0  0
   -4.6334    1.1309   -0.1356 O   0  0  0  0  0  0  0  0  0  0  0  0
   -3.8804    2.2859   -0.5030 C   0  0  0  0  0  0  0  0  0  0  0  0
   -2.3795    1.9803   -0.4547 C   0  0  0  0  0  0  0  0  0  0  0  0
   -2.1010    0.6030   -0.8666 N   0  0  0  0  0  0  0  0  0  0  0  0
   -1.8180   -0.4404    0.0860 C   0  0  0  0  0  0  0  0  0  0  0  0
   -1.8844   -0.1900    1.3221 O   0  0  0  0  0  0  0  0  0  0  0  0
   -0.1079   -2.2750    0.3081 C   0  0  0  0  0  0  0  0  0  0  0  0
    3.9889   -0.7984    0.3428 N   0  0  0  0  0  0  0  0  0  0  0  0
    5.3491   -0.3362    0.3071 C   0  0  0  0  0  0  0  0  0  0  0  0
    6.3418   -1.1553   -0.2557 C   0  0  0  0  0  0  0  0  0  0  0  0
    7.6789   -0.7427   -0.2699 C   0  0  0  0  0  0  0  0  0  0  0  0
    8.0349    0.4848    0.2944 C   0  0  0  0  0  0  0  0  0  0  0  0
    7.0588    1.2900    0.8947 C   0  0  0  0  0  0  0  0  0  0  0  0
    5.7192    0.8904    0.8909 C   0  0  0  0  0  0  0  0  0  0  0  0
    7.4461    2.4888    1.5019 O   0  0  0  0  0  0  0  0  0  0  0  0
    8.8223    2.7684    1.7707 C   0  0  0  0  0  0  0  0  0  0  0  0
    9.7022    2.2713    0.6154 C   0  0  0  0  0  0  0  0  0  0  0  0
    9.3634    0.9230    0.2794 O   0  0  0  0  0  0  0  0  0  0  0  0
    0.7532    0.3947    0.6341 H   0  0  0  0  0  0  0  0  0  0  0  0
    1.5736   -0.7935    1.7000 H   0  0  0  0  0  0  0  0  0  0  0  0
    0.5096   -0.0474   -1.6780 H   0  0  0  0  0  0  0  0  0  0  0  0
    1.8459   -1.1505   -2.1598 H   0  0  0  0  0  0  0  0  0  0  0  0
    0.2154   -3.0495   -2.3519 H   0  0  0  0  0  0  0  0  0  0  0  0
   -0.1980   -1.6722   -3.4178 H   0  0  0  0  0  0  0  0  0  0  0  0
   -2.6439   -2.8045    1.2386 H   0  0  0  0  0  0  0  0  0  0  0  0
   -2.2823   -3.8656   -0.1522 H   0  0  0  0  0  0  0  0  0  0  0  0
   -4.0872   -2.9041   -1.5067 H   0  0  0  0  0  0  0  0  0  0  0  0
   -4.5988   -1.3435    1.0869 H   0  0  0  0  0  0  0  0  0  0  0  0
   -5.7918   -1.0542   -1.6852 H   0  0  0  0  0  0  0  0  0  0  0  0
   -6.7393   -2.1926   -0.6711 H   0  0  0  0  0  0  0  0  0  0  0  0
   -8.6331   -1.0939    0.1948 H   0  0  0  0  0  0  0  0  0  0  0  0
   -9.7905    0.9022    1.0477 H   0  0  0  0  0  0  0  0  0  0  0  0
   -8.5739    3.0415    1.2915 H   0  0  0  0  0  0  0  0  0  0  0  0
   -6.1969    3.1882    0.7367 H   0  0  0  0  0  0  0  0  0  0  0  0
   -4.0753    3.1301    0.1892 H   0  0  0  0  0  0  0  0  0  0  0  0
   -4.1695    2.5901   -1.5318 H   0  0  0  0  0  0  0  0  0  0  0  0
   -1.9944    2.1666    0.5715 H   0  0  0  0  0  0  0  0  0  0  0  0
   -1.8424    2.6783   -1.1323 H   0  0  0  0  0  0  0  0  0  0  0  0
   -2.1942    0.3772   -1.8813 H   0  0  0  0  0  0  0  0  0  0  0  0
   -0.1784   -2.1864    1.4157 H   0  0  0  0  0  0  0  0  0  0  0  0
    0.0624   -3.3569    0.1162 H   0  0  0  0  0  0  0  0  0  0  0  0
    3.8180   -1.8286    0.3815 H   0  0  0  0  0  0  0  0  0  0  0  0
    6.0764   -2.1094   -0.6937 H   0  0  0  0  0  0  0  0  0  0  0  0
    8.4341   -1.3734   -0.7212 H   0  0  0  0  0  0  0  0  0  0  0  0
    4.9830    1.5150    1.3793 H   0  0  0  0  0  0  0  0  0  0  0  0
    8.9585    3.8603    1.9125 H   0  0  0  0  0  0  0  0  0  0  0  0
    9.1192    2.2486    2.7067 H   0  0  0  0  0  0  0  0  0  0  0  0
    9.5379    2.9183   -0.2745 H   0  0  0  0  0  0  0  0  0  0  0  0
   10.7746    2.3246    0.9008 H   0  0  0  0  0  0  0  0  0  0  0  0
  1  2  2  0
  2  3  1  0
  3  4  1  0
  4  5  1  0
  5  6  1  0
  6  7  1  0
  7  8  1  0
  8  9  1  0
  9 10  1  0
 10 11  2  0
 11 12  1  0
 12 13  1  0
 13 14  2  0
 14 15  1  0
 15 16  2  0
 16 17  1  0
 17 18  2  0
 18 19  1  0
 19 20  1  0
 20 21  1  0
 21 22  1  0
 22 23  1  0
 23 24  2  0
  8 25  1  0
  2 26  1  0
 26 27  1  0
 27 28  2  0
 28 29  1  0
 29 30  2  0
 30 31  1  0
 31 32  2  0
 31 33  1  0
 33 34  1  0
 34 35  1  0
 35 36  1  0
 25  4  1  0
 32 27  1  0
 23  8  1  0
 36 30  1  0
 18 13  1  0
  3 37  1  0
  3 38  1  0
  5 39  1  0
  5 40  1  0
  6 41  1  0
  6 42  1  0
  9 43  1  0
  9 44  1  0
 10 45  1  0
 11 46  1  0
 12 47  1  0
 12 48  1  0
 14 49  1  0
 15 50  1  0
 16 51  1  0
 17 52  1  0
 20 53  1  0
 20 54  1  0
 21 55  1  0
 21 56  1  0
 22 57  1  0
 25 58  1  0
 25 59  1  0
 26 60  1  0
 28 61  1  0
 29 62  1  0
 32 63  1  0
 34 64  1  0
 34 65  1  0
 35 66  1  0
 35 67  1  0
M  END
$$$$
