
     RDKit          3D

 62 64  0  0  0  0  0  0  0  0999 V2000
   -0.0596    3.2226   -1.9764 O   0  0  0  0  0  0  0  0  0  0  0  0
   -0.9460    2.6132   -1.3185 C   0  0  0  0  0  0  0  0  0  0  0  0
   -2.2890    3.2105   -1.2030 C   0  0  0  0  0  0  0  0  0  0  0  0
   -2.4390    4.5860   -0.9465 C   0  0  0  0  0  0  0  0  0  0  0  0
   -3.7174    5.1375   -0.8167 C   0  0  0  0  0  0  0  0  0  0  0  0
   -4.8493    4.3359   -0.9918 C   0  0  0  0  0  0  0  0  0  0  0  0
   -6.0895    4.8710   -0.8751 F   0  0  0  0  0  0  0  0  0  0  0  0
   -4.7055    2.9728   -1.2671 C   0  0  0  0  0  0  0  0  0  0  0  0
   -3.4296    2.4136   -1.3796 C   0  0  0  0  0  0  0  0  0  0  0  0
   -0.6421    1.3451   -0.6981 N   0  0  0  0  0  0  0  0  0  0  0  0
    0.2085    0.3912   -1.4326 C   0  0  0  0  0  0  0  0  0  0  0  0
    1.7052    0.7509   -1.3512 C   0  0  0  0  0  0  0  0  0  0  0  0
    2.4673   -0.2665   -0.6060 N   0  0  0  0  0  0  0  0  0  0  0  0
    2.9165    0.0614    0.7173 C   0  0  0  0  0  0  0  0  0  0  0  0
    2.0947    0.0854    1.6681 O   0  0  0  0  0  0  0  0  0  0  0  0
    4.3235    0.4052    0.9622 C   0  0  0  0  0  0  0  0  0  0  0  0
    4.8908    0.6832    2.1907 C   0  0  0  0  0  0  0  0  0  0  0  0
    6.2152    0.9438    1.9013 C   0  0  0  0  0  0  0  0  0  0  0  0
    6.4020    0.8261    0.5755 N   0  0  0  0  0  0  0  0  0  0  0  0
    5.2581    0.4996   -0.0055 N   0  0  0  0  0  0  0  0  0  0  0  0
    3.0317   -1.4416   -1.2979 C   0  0  0  0  0  0  0  0  0  0  0  0
    2.0561   -2.6303   -1.3128 C   0  0  0  0  0  0  0  0  0  0  0  0
    1.7892   -3.2123    0.0879 C   0  0  0  0  0  0  0  0  0  0  0  0
    0.5001   -4.0558    0.1263 C   0  0  0  0  0  0  0  0  0  0  0  0
   -0.5456   -3.2914    0.7035 O   0  0  0  0  0  0  0  0  0  0  0  0
   -1.6691   -3.2233   -0.1525 C   0  0  0  0  0  0  0  0  0  0  0  0
   -2.7653   -2.3447    0.4865 C   0  0  0  0  0  0  0  0  0  0  0  0
   -3.9952   -2.6528   -0.1158 O   0  0  0  0  0  0  0  0  0  0  0  0
   -2.5113   -0.8222    0.3085 C   0  0  0  0  0  0  0  0  0  0  0  0
   -3.6782   -0.0910    0.6049 O   0  0  0  0  0  0  0  0  0  0  0  0
   -1.3245   -0.2733    1.1480 C   0  0  0  0  0  0  0  0  0  0  0  0
   -1.6702   -0.2925    2.5109 O   0  0  0  0  0  0  0  0  0  0  0  0
   -0.9517    1.1743    0.7399 C   0  0  0  0  0  0  0  0  0  0  0  0
   -1.5681    5.2237   -0.8281 H   0  0  0  0  0  0  0  0  0  0  0  0
   -3.8291    6.1874   -0.5893 H   0  0  0  0  0  0  0  0  0  0  0  0
   -5.5793    2.3540   -1.4144 H   0  0  0  0  0  0  0  0  0  0  0  0
   -3.3312    1.3662   -1.6297 H   0  0  0  0  0  0  0  0  0  0  0  0
   -0.1092    0.3692   -2.5028 H   0  0  0  0  0  0  0  0  0  0  0  0
    0.0360   -0.6345   -1.0677 H   0  0  0  0  0  0  0  0  0  0  0  0
    2.1162    0.8412   -2.3865 H   0  0  0  0  0  0  0  0  0  0  0  0
    1.8451    1.7529   -0.8796 H   0  0  0  0  0  0  0  0  0  0  0  0
    4.4069    0.7184    3.1603 H   0  0  0  0  0  0  0  0  0  0  0  0
    6.9822    1.2277    2.6082 H   0  0  0  0  0  0  0  0  0  0  0  0
    7.2991    0.9811    0.0640 H   0  0  0  0  0  0  0  0  0  0  0  0
    3.9856   -1.7571   -0.8251 H   0  0  0  0  0  0  0  0  0  0  0  0
    3.2666   -1.1780   -2.3489 H   0  0  0  0  0  0  0  0  0  0  0  0
    1.1130   -2.3400   -1.8149 H   0  0  0  0  0  0  0  0  0  0  0  0
    2.5016   -3.4303   -1.9438 H   0  0  0  0  0  0  0  0  0  0  0  0
    2.6603   -3.8512    0.3691 H   0  0  0  0  0  0  0  0  0  0  0  0
    1.7199   -2.4101    0.8513 H   0  0  0  0  0  0  0  0  0  0  0  0
    0.2724   -4.4732   -0.8849 H   0  0  0  0  0  0  0  0  0  0  0  0
    0.6719   -4.9293    0.7887 H   0  0  0  0  0  0  0  0  0  0  0  0
   -1.3861   -2.8019   -1.1462 H   0  0  0  0  0  0  0  0  0  0  0  0
   -2.0790   -4.2507   -0.2843 H   0  0  0  0  0  0  0  0  0  0  0  0
   -2.8237   -2.5693    1.5779 H   0  0  0  0  0  0  0  0  0  0  0  0
   -4.3362   -3.4786    0.3200 H   0  0  0  0  0  0  0  0  0  0  0  0
   -2.2994   -0.6609   -0.7685 H   0  0  0  0  0  0  0  0  0  0  0  0
   -3.9979   -0.3707    1.5059 H   0  0  0  0  0  0  0  0  0  0  0  0
   -0.4285   -0.9094    1.0090 H   0  0  0  0  0  0  0  0  0  0  0  0
   -0.8246   -0.2493    3.0281 H   0  0  0  0  0  0  0  0  0  0  0  0
   -0.0709    1.5023    1.3313 H   0  0  0  0  0  0  0  0  0  0  0  0
   -1.7945    1.8388    1.0372 H   0  0  0  0  0  0  0  0  0  0  0  0
  1  2  2  0
  2  3  1  0
  3  4  2  0
  4  5  1  0
  5  6  2  0
  6  7  1  0
  6  8  1  0
  8  9  2  0
  2 10  1  0
 10 11  1  0
 11 12  1  0
 12 13  1  0
 13 14  1  0
 14 15  2  0
 14 16  1  0
 16 17  1  0
 17 18  2  0
 18 19  1  0
 19 20  1  0
 13 21  1  0
 21 22  1  0
 22 23  1  0
 23 24  1  0
 24 25  1  0
 25 26  1  0
 26 27  1  0
 27 28  1  0
 27 29  1  0
 29 30  1  0
 29 31  1  0
 31 32  1  0
 31 33  1  0
  9  3  1  0
 33 10  1  0
 20 16  2  0
  4 34  1  0
  5 35  1  0
  8 36  1  0
  9 37  1  0
 11 38  1  0
 11 39  1  0
 12 40  1  0
 12 41  1  0
 17 42  1  0
 18 43  1  0
 19 44  1  0
 21 45  1  0
 21 46  1  0
 22 47  1  0
 22 48  1  0
 23 49  1  0
 23 50  1  0
 24 51  1  0
 24 52  1  0
 26 53  1  0
 26 54  1  0
 27 55  1  0
 28 56  1  0
 29 57  1  0
 30 58  1  0
 31 59  1  0
 32 60  1  0
 33 61  1  0
 33 62  1  0
M  END
$$$$
