
     RDKit          3D

 70 73  0  0  0  0  0  0  0  0999 V2000
   11.7106   -0.1819    0.4807 C   0  0  0  0  0  0  0  0  0  0  0  0
   10.2442   -0.4243    0.6407 C   0  0  0  0  0  0  0  0  0  0  0  0
    9.8564   -1.4217    1.3096 O   0  0  0  0  0  0  0  0  0  0  0  0
    9.2973    0.5112    0.1045 N   0  0  0  0  0  0  0  0  0  0  0  0
    7.8698    0.3355    0.1418 C   0  0  0  0  0  0  0  0  0  0  0  0
    7.2784   -0.9260   -0.0486 C   0  0  0  0  0  0  0  0  0  0  0  0
    5.8858   -1.0589   -0.0591 C   0  0  0  0  0  0  0  0  0  0  0  0
    5.0608    0.0670    0.0894 C   0  0  0  0  0  0  0  0  0  0  0  0
    3.6315   -0.0960    0.0851 N   0  0  0  0  0  0  0  0  0  0  0  0
    2.7245    0.8394   -0.5269 C   0  0  0  0  0  0  0  0  0  0  0  0
    3.1610    1.8051   -1.2111 O   0  0  0  0  0  0  0  0  0  0  0  0
    1.2428    0.6554   -0.3837 C   0  0  0  0  0  0  0  0  0  0  0  0
    0.8404   -0.7075   -0.7821 N   0  0  0  0  0  0  0  0  0  0  0  0
    0.9028   -0.9222   -2.2457 C   0  0  0  0  0  0  0  0  0  0  0  0
   -0.4692   -0.7626   -2.9283 C   0  0  0  0  0  0  0  0  0  0  0  0
   -1.2554    0.1884   -2.2382 O   0  0  0  0  0  0  0  0  0  0  0  0
   -1.6535   -0.2657   -0.9394 C   0  0  0  0  0  0  0  0  0  0  0  0
   -2.9390   -1.1426   -1.0773 C   0  0  0  0  0  0  0  0  0  0  0  0
   -3.9818   -0.6171   -2.1039 C   0  0  0  0  0  0  0  0  0  0  0  0
   -5.4195   -0.6182   -1.5489 C   0  0  0  0  0  0  0  0  0  0  0  0
   -5.7412    0.7079   -0.8355 C   0  0  0  0  0  0  0  0  0  0  0  0
   -6.6827    0.5026    0.3244 C   0  0  0  0  0  0  0  0  0  0  0  0
   -8.0580    0.7585    0.1866 C   0  0  0  0  0  0  0  0  0  0  0  0
   -8.9124    0.6353    1.2897 C   0  0  0  0  0  0  0  0  0  0  0  0
   -8.4005    0.2597    2.5348 C   0  0  0  0  0  0  0  0  0  0  0  0
   -7.0330   -0.0042    2.6818 C   0  0  0  0  0  0  0  0  0  0  0  0
   -6.1743    0.1031    1.5747 C   0  0  0  0  0  0  0  0  0  0  0  0
   -4.8185   -0.2041    1.6871 O   0  0  0  0  0  0  0  0  0  0  0  0
   -3.9495    0.4573    2.6038 C   0  0  0  0  0  0  0  0  0  0  0  0
   -2.5009    0.0981    2.2629 C   0  0  0  0  0  0  0  0  0  0  0  0
   -1.9195    1.0618    1.3185 N   0  0  0  0  0  0  0  0  0  0  0  0
   -1.9913    0.9868   -0.1228 C   0  0  0  0  0  0  0  0  0  0  0  0
   -2.3020    2.0372   -0.7494 O   0  0  0  0  0  0  0  0  0  0  0  0
   -0.4866   -1.0697   -0.2434 C   0  0  0  0  0  0  0  0  0  0  0  0
    5.6530    1.3265    0.2808 C   0  0  0  0  0  0  0  0  0  0  0  0
    7.0440    1.4588    0.2936 C   0  0  0  0  0  0  0  0  0  0  0  0
   11.9026    0.4740   -0.3937 H   0  0  0  0  0  0  0  0  0  0  0  0
   12.1079    0.3045    1.3932 H   0  0  0  0  0  0  0  0  0  0  0  0
   12.2444   -1.1440    0.3272 H   0  0  0  0  0  0  0  0  0  0  0  0
    9.6629    1.4284   -0.2398 H   0  0  0  0  0  0  0  0  0  0  0  0
    7.8849   -1.8037   -0.2220 H   0  0  0  0  0  0  0  0  0  0  0  0
    5.4455   -2.0367   -0.2108 H   0  0  0  0  0  0  0  0  0  0  0  0
    3.2377   -0.9966    0.4421 H   0  0  0  0  0  0  0  0  0  0  0  0
    0.7111    1.4178   -0.9906 H   0  0  0  0  0  0  0  0  0  0  0  0
    0.9995    0.8420    0.6862 H   0  0  0  0  0  0  0  0  0  0  0  0
    1.2727   -1.9516   -2.4335 H   0  0  0  0  0  0  0  0  0  0  0  0
    1.6398   -0.2408   -2.7315 H   0  0  0  0  0  0  0  0  0  0  0  0
   -0.3161   -0.4081   -3.9721 H   0  0  0  0  0  0  0  0  0  0  0  0
   -0.9903   -1.7493   -2.9977 H   0  0  0  0  0  0  0  0  0  0  0  0
   -3.4059   -1.2679   -0.0826 H   0  0  0  0  0  0  0  0  0  0  0  0
   -2.6636   -2.1735   -1.3916 H   0  0  0  0  0  0  0  0  0  0  0  0
   -3.9482   -1.2755   -3.0035 H   0  0  0  0  0  0  0  0  0  0  0  0
   -3.7446    0.4054   -2.4654 H   0  0  0  0  0  0  0  0  0  0  0  0
   -6.1357   -0.7436   -2.3959 H   0  0  0  0  0  0  0  0  0  0  0  0
   -5.5591   -1.4927   -0.8680 H   0  0  0  0  0  0  0  0  0  0  0  0
   -4.8157    1.1848   -0.4503 H   0  0  0  0  0  0  0  0  0  0  0  0
   -6.1705    1.4240   -1.5683 H   0  0  0  0  0  0  0  0  0  0  0  0
   -8.4648    1.0601   -0.7696 H   0  0  0  0  0  0  0  0  0  0  0  0
   -9.9740    0.8266    1.1775 H   0  0  0  0  0  0  0  0  0  0  0  0
   -9.0670    0.1561    3.3814 H   0  0  0  0  0  0  0  0  0  0  0  0
   -6.6476   -0.3115    3.6442 H   0  0  0  0  0  0  0  0  0  0  0  0
   -4.1802    0.1193    3.6382 H   0  0  0  0  0  0  0  0  0  0  0  0
   -4.0927    1.5632    2.5290 H   0  0  0  0  0  0  0  0  0  0  0  0
   -1.8918    0.1212    3.1914 H   0  0  0  0  0  0  0  0  0  0  0  0
   -2.4501   -0.9395    1.8836 H   0  0  0  0  0  0  0  0  0  0  0  0
   -1.7334    2.0103    1.7168 H   0  0  0  0  0  0  0  0  0  0  0  0
   -0.6248   -2.1580   -0.4126 H   0  0  0  0  0  0  0  0  0  0  0  0
   -0.4742   -0.9699    0.8592 H   0  0  0  0  0  0  0  0  0  0  0  0
    5.0471    2.2078    0.4475 H   0  0  0  0  0  0  0  0  0  0  0  0
    7.4796    2.4397    0.4358 H   0  0  0  0  0  0  0  0  0  0  0  0
  1  2  1  0
  2  3  2  0
  2  4  1  0
  4  5  1  0
  5  6  2  0
  6  7  1  0
  7  8  2  0
  8  9  1  0
  9 10  1  0
 10 11  2  0
 10 12  1  0
 12 13  1  0
 13 14  1  0
 14 15  1  0
 15 16  1  0
 16 17  1  0
 17 18  1  0
 18 19  1  0
 19 20  1  0
 20 21  1  0
 21 22  1  0
 22 23  2  0
 23 24  1  0
 24 25  2  0
 25 26  1  0
 26 27  2  0
 27 28  1  0
 28 29  1  0
 29 30  1  0
 30 31  1  0
 31 32  1  0
 32 33  2  0
 17 34  1  0
  8 35  1  0
 35 36  2  0
 36  5  1  0
 34 13  1  0
 32 17  1  0
 27 22  1  0
  1 37  1  0
  1 38  1  0
  1 39  1  0
  4 40  1  0
  6 41  1  0
  7 42  1  0
  9 43  1  0
 12 44  1  0
 12 45  1  0
 14 46  1  0
 14 47  1  0
 15 48  1  0
 15 49  1  0
 18 50  1  0
 18 51  1  0
 19 52  1  0
 19 53  1  0
 20 54  1  0
 20 55  1  0
 21 56  1  0
 21 57  1  0
 23 58  1  0
 24 59  1  0
 25 60  1  0
 26 61  1  0
 29 62  1  0
 29 63  1  0
 30 64  1  0
 30 65  1  0
 31 66  1  0
 34 67  1  0
 34 68  1  0
 35 69  1  0
 36 70  1  0
M  END
$$$$
