
     RDKit          3D

 63 66  0  0  0  0  0  0  0  0999 V2000
    9.2986    1.1019    0.8071 C   0  0  0  0  0  0  0  0  0  0  0  0
    8.1035    0.4732    0.1608 C   0  0  0  0  0  0  0  0  0  0  0  0
    6.9052    1.1156    0.1013 N   0  0  0  0  0  0  0  0  0  0  0  0
    5.9689    0.3832   -0.5418 C   0  0  0  0  0  0  0  0  0  0  0  0
    4.6126    0.8301   -0.6876 N   0  0  0  0  0  0  0  0  0  0  0  0
    3.6111    0.1695   -1.4794 C   0  0  0  0  0  0  0  0  0  0  0  0
    3.9190   -0.7696   -2.2609 O   0  0  0  0  0  0  0  0  0  0  0  0
    2.1742    0.5916   -1.3765 C   0  0  0  0  0  0  0  0  0  0  0  0
    1.3641   -0.4539   -0.7084 N   0  0  0  0  0  0  0  0  0  0  0  0
    1.7158   -0.6497    0.7089 C   0  0  0  0  0  0  0  0  0  0  0  0
    1.2988    0.5542    1.5741 C   0  0  0  0  0  0  0  0  0  0  0  0
    0.3653    1.4099    0.9310 O   0  0  0  0  0  0  0  0  0  0  0  0
   -0.6878    0.7012    0.2858 C   0  0  0  0  0  0  0  0  0  0  0  0
   -1.5967    1.7912   -0.3475 C   0  0  0  0  0  0  0  0  0  0  0  0
   -2.7729    1.2477   -1.1228 C   0  0  0  0  0  0  0  0  0  0  0  0
   -4.0127    1.2220   -0.6116 C   0  0  0  0  0  0  0  0  0  0  0  0
   -5.1676    0.6856   -1.4167 C   0  0  0  0  0  0  0  0  0  0  0  0
   -6.3295    0.3311   -0.5234 C   0  0  0  0  0  0  0  0  0  0  0  0
   -7.4146    1.2145   -0.3915 C   0  0  0  0  0  0  0  0  0  0  0  0
   -8.4791    0.9026    0.4615 C   0  0  0  0  0  0  0  0  0  0  0  0
   -8.4621   -0.2834    1.1995 C   0  0  0  0  0  0  0  0  0  0  0  0
   -7.3803   -1.1610    1.0880 C   0  0  0  0  0  0  0  0  0  0  0  0
   -6.3160   -0.8611    0.2292 C   0  0  0  0  0  0  0  0  0  0  0  0
   -5.2351   -1.7378    0.1324 O   0  0  0  0  0  0  0  0  0  0  0  0
   -4.2087   -1.7613    1.1191 C   0  0  0  0  0  0  0  0  0  0  0  0
   -2.8569   -1.9669    0.4332 C   0  0  0  0  0  0  0  0  0  0  0  0
   -1.7730   -1.4574    1.2702 N   0  0  0  0  0  0  0  0  0  0  0  0
   -1.5022   -0.0517    1.3459 C   0  0  0  0  0  0  0  0  0  0  0  0
   -1.8968    0.5798    2.3630 O   0  0  0  0  0  0  0  0  0  0  0  0
   -0.0888   -0.2166   -0.8489 C   0  0  0  0  0  0  0  0  0  0  0  0
    6.5824   -1.1070   -1.0441 S   0  0  0  0  0  0  0  0  0  0  0  0
    8.1136   -0.7974   -0.4180 C   0  0  0  0  0  0  0  0  0  0  0  0
    9.2844   -1.7206   -0.5206 C   0  0  0  0  0  0  0  0  0  0  0  0
   10.1479    1.1214    0.0916 H   0  0  0  0  0  0  0  0  0  0  0  0
    9.5880    0.5187    1.7071 H   0  0  0  0  0  0  0  0  0  0  0  0
    9.0683    2.1440    1.1140 H   0  0  0  0  0  0  0  0  0  0  0  0
    4.3396    1.6939   -0.1685 H   0  0  0  0  0  0  0  0  0  0  0  0
    2.0916    1.5692   -0.8559 H   0  0  0  0  0  0  0  0  0  0  0  0
    1.8110    0.7501   -2.4161 H   0  0  0  0  0  0  0  0  0  0  0  0
    2.8024   -0.8524    0.8260 H   0  0  0  0  0  0  0  0  0  0  0  0
    1.1957   -1.5610    1.0817 H   0  0  0  0  0  0  0  0  0  0  0  0
    0.8962    0.2065    2.5514 H   0  0  0  0  0  0  0  0  0  0  0  0
    2.2059    1.1560    1.8019 H   0  0  0  0  0  0  0  0  0  0  0  0
   -1.9500    2.4931    0.4398 H   0  0  0  0  0  0  0  0  0  0  0  0
   -0.9872    2.4038   -1.0463 H   0  0  0  0  0  0  0  0  0  0  0  0
   -2.5987    0.8594   -2.1226 H   0  0  0  0  0  0  0  0  0  0  0  0
   -4.1910    1.6016    0.3921 H   0  0  0  0  0  0  0  0  0  0  0  0
   -5.4666    1.4459   -2.1713 H   0  0  0  0  0  0  0  0  0  0  0  0
   -4.8520   -0.2237   -1.9745 H   0  0  0  0  0  0  0  0  0  0  0  0
   -7.4375    2.1429   -0.9484 H   0  0  0  0  0  0  0  0  0  0  0  0
   -9.3161    1.5835    0.5546 H   0  0  0  0  0  0  0  0  0  0  0  0
   -9.2860   -0.5217    1.8610 H   0  0  0  0  0  0  0  0  0  0  0  0
   -7.3680   -2.0747    1.6678 H   0  0  0  0  0  0  0  0  0  0  0  0
   -4.4042   -2.5822    1.8434 H   0  0  0  0  0  0  0  0  0  0  0  0
   -4.2029   -0.7988    1.6790 H   0  0  0  0  0  0  0  0  0  0  0  0
   -2.6979   -3.0492    0.2387 H   0  0  0  0  0  0  0  0  0  0  0  0
   -2.8517   -1.4500   -0.5491 H   0  0  0  0  0  0  0  0  0  0  0  0
   -1.5331   -2.0247    2.1137 H   0  0  0  0  0  0  0  0  0  0  0  0
   -0.2998    0.2050   -1.8558 H   0  0  0  0  0  0  0  0  0  0  0  0
   -0.5818   -1.2056   -0.8798 H   0  0  0  0  0  0  0  0  0  0  0  0
   10.0321   -1.2952   -1.2229 H   0  0  0  0  0  0  0  0  0  0  0  0
    9.7512   -1.8508    0.4785 H   0  0  0  0  0  0  0  0  0  0  0  0
    8.9579   -2.7148   -0.8938 H   0  0  0  0  0  0  0  0  0  0  0  0
  1  2  1  0
  2  3  1  0
  3  4  2  0
  4  5  1  0
  5  6  1  0
  6  7  2  0
  6  8  1  0
  8  9  1  0
  9 10  1  0
 10 11  1  0
 11 12  1  0
 12 13  1  0
 13 14  1  0
 14 15  1  0
 15 16  2  0
 16 17  1  0
 17 18  1  0
 18 19  2  0
 19 20  1  0
 20 21  2  0
 21 22  1  0
 22 23  2  0
 23 24  1  0
 24 25  1  0
 25 26  1  0
 26 27  1  0
 27 28  1  0
 28 29  2  0
 13 30  1  0
  4 31  1  0
 31 32  1  0
 32 33  1  0
 32  2  2  0
 30  9  1  0
 28 13  1  0
 23 18  1  0
  1 34  1  0
  1 35  1  0
  1 36  1  0
  5 37  1  0
  8 38  1  0
  8 39  1  0
 10 40  1  0
 10 41  1  0
 11 42  1  0
 11 43  1  0
 14 44  1  0
 14 45  1  0
 15 46  1  0
 16 47  1  0
 17 48  1  0
 17 49  1  0
 19 50  1  0
 20 51  1  0
 21 52  1  0
 22 53  1  0
 25 54  1  0
 25 55  1  0
 26 56  1  0
 26 57  1  0
 27 58  1  0
 30 59  1  0
 30 60  1  0
 33 61  1  0
 33 62  1  0
 33 63  1  0
M  END
$$$$
