
     RDKit          3D

 62 65  0  0  0  0  0  0  0  0999 V2000
   -0.9919    1.1231    3.2358 C   0  0  0  0  0  0  0  0  0  0  0  0
   -1.2138    1.6134    1.8704 N   0  0  0  0  0  0  0  0  0  0  0  0
   -0.0949    1.7566    0.9099 C   0  0  0  0  0  0  0  0  0  0  0  0
    0.8957    0.5434    0.7096 C   0  0  0  0  0  0  0  0  0  0  0  0
    1.7960    0.9109   -0.5120 C   0  0  0  0  0  0  0  0  0  0  0  0
    2.9457   -0.0717   -0.7348 C   0  0  0  0  0  0  0  0  0  0  0  0
    3.7715   -0.1456    0.4710 N   0  0  0  0  0  0  0  0  0  0  0  0
    5.2072   -0.2418    0.3795 C   0  0  0  0  0  0  0  0  0  0  0  0
    5.9237    0.3058    1.2623 O   0  0  0  0  0  0  0  0  0  0  0  0
    5.8657   -0.9860   -0.7100 C   0  0  0  0  0  0  0  0  0  0  0  0
    7.2203   -0.9730   -0.9968 C   0  0  0  0  0  0  0  0  0  0  0  0
    7.3533   -1.8417   -2.0583 C   0  0  0  0  0  0  0  0  0  0  0  0
    6.1390   -2.3335   -2.3666 N   0  0  0  0  0  0  0  0  0  0  0  0
    5.2306   -1.8267   -1.5505 N   0  0  0  0  0  0  0  0  0  0  0  0
    3.1119   -0.4170    1.7505 C   0  0  0  0  0  0  0  0  0  0  0  0
    1.8633    0.4643    1.9465 C   0  0  0  0  0  0  0  0  0  0  0  0
    0.1509   -0.8397    0.5183 C   0  0  0  0  0  0  0  0  0  0  0  0
   -0.3989   -1.2869   -0.8847 C   0  0  0  0  0  0  0  0  0  0  0  0
   -0.3327   -2.6902   -0.9710 O   0  0  0  0  0  0  0  0  0  0  0  0
   -1.8447   -0.8312   -1.2951 C   0  0  0  0  0  0  0  0  0  0  0  0
   -1.9018    0.4377   -1.9095 O   0  0  0  0  0  0  0  0  0  0  0  0
   -2.8971   -0.9402   -0.1700 C   0  0  0  0  0  0  0  0  0  0  0  0
   -4.2706   -0.4949   -0.6260 C   0  0  0  0  0  0  0  0  0  0  0  0
   -4.9687   -1.2536   -1.5816 C   0  0  0  0  0  0  0  0  0  0  0  0
   -6.2346   -0.8513   -2.0183 C   0  0  0  0  0  0  0  0  0  0  0  0
   -6.8194    0.3068   -1.5025 C   0  0  0  0  0  0  0  0  0  0  0  0
   -6.1444    1.0611   -0.5403 C   0  0  0  0  0  0  0  0  0  0  0  0
   -4.8752    0.6674   -0.0966 C   0  0  0  0  0  0  0  0  0  0  0  0
   -4.2380    1.4171    0.8942 O   0  0  0  0  0  0  0  0  0  0  0  0
   -3.2758    2.4173    0.5771 C   0  0  0  0  0  0  0  0  0  0  0  0
   -2.3095    2.5412    1.7132 C   0  0  0  0  0  0  0  0  0  0  0  0
   -2.5028    3.4364    2.5806 O   0  0  0  0  0  0  0  0  0  0  0  0
   -1.8999    1.2571    3.8621 H   0  0  0  0  0  0  0  0  0  0  0  0
   -0.7964    0.0361    3.2379 H   0  0  0  0  0  0  0  0  0  0  0  0
   -0.1599    1.6823    3.7145 H   0  0  0  0  0  0  0  0  0  0  0  0
    0.4922    2.6523    1.2120 H   0  0  0  0  0  0  0  0  0  0  0  0
   -0.5057    2.0389   -0.0755 H   0  0  0  0  0  0  0  0  0  0  0  0
    2.2524    1.9108   -0.3364 H   0  0  0  0  0  0  0  0  0  0  0  0
    1.2154    1.0216   -1.4482 H   0  0  0  0  0  0  0  0  0  0  0  0
    3.5469    0.2988   -1.5948 H   0  0  0  0  0  0  0  0  0  0  0  0
    2.5653   -1.0839   -0.9892 H   0  0  0  0  0  0  0  0  0  0  0  0
    8.0046   -0.4174   -0.4962 H   0  0  0  0  0  0  0  0  0  0  0  0
    8.2730   -2.1024   -2.5686 H   0  0  0  0  0  0  0  0  0  0  0  0
    5.9275   -3.0186   -3.1259 H   0  0  0  0  0  0  0  0  0  0  0  0
    3.8062   -0.2196    2.5974 H   0  0  0  0  0  0  0  0  0  0  0  0
    2.8510   -1.4946    1.8039 H   0  0  0  0  0  0  0  0  0  0  0  0
    2.2196    1.4833    2.2077 H   0  0  0  0  0  0  0  0  0  0  0  0
    1.3487    0.0612    2.8328 H   0  0  0  0  0  0  0  0  0  0  0  0
   -0.6207   -0.9804    1.2897 H   0  0  0  0  0  0  0  0  0  0  0  0
    0.8847   -1.6253    0.7842 H   0  0  0  0  0  0  0  0  0  0  0  0
    0.2865   -0.9366   -1.6762 H   0  0  0  0  0  0  0  0  0  0  0  0
   -0.8900   -3.0641   -0.2393 H   0  0  0  0  0  0  0  0  0  0  0  0
   -2.1644   -1.5471   -2.0851 H   0  0  0  0  0  0  0  0  0  0  0  0
   -1.0054    0.8821   -1.8385 H   0  0  0  0  0  0  0  0  0  0  0  0
   -2.5855   -0.3337    0.6962 H   0  0  0  0  0  0  0  0  0  0  0  0
   -2.9642   -1.9945    0.1800 H   0  0  0  0  0  0  0  0  0  0  0  0
   -4.5355   -2.1591   -1.9861 H   0  0  0  0  0  0  0  0  0  0  0  0
   -6.7626   -1.4406   -2.7566 H   0  0  0  0  0  0  0  0  0  0  0  0
   -7.7999    0.6162   -1.8424 H   0  0  0  0  0  0  0  0  0  0  0  0
   -6.6091    1.9504   -0.1324 H   0  0  0  0  0  0  0  0  0  0  0  0
   -2.7361    2.1635   -0.3560 H   0  0  0  0  0  0  0  0  0  0  0  0
   -3.7985    3.3861    0.4077 H   0  0  0  0  0  0  0  0  0  0  0  0
  1  2  1  0
  2  3  1  0
  3  4  1  0
  4  5  1  0
  5  6  1  0
  6  7  1  0
  7  8  1  0
  8  9  2  0
  8 10  1  0
 10 11  1  0
 11 12  2  0
 12 13  1  0
 13 14  1  0
  7 15  1  0
 15 16  1  0
  4 17  1  0
 17 18  1  0
 18 19  1  0
 18 20  1  0
 20 21  1  0
 20 22  1  0
 22 23  1  0
 23 24  2  0
 24 25  1  0
 25 26  2  0
 26 27  1  0
 27 28  2  0
 28 29  1  0
 29 30  1  0
 30 31  1  0
 31 32  2  0
 31  2  1  0
 16  4  1  0
 28 23  1  0
 14 10  2  0
  1 33  1  0
  1 34  1  0
  1 35  1  0
  3 36  1  0
  3 37  1  0
  5 38  1  0
  5 39  1  0
  6 40  1  0
  6 41  1  0
 11 42  1  0
 12 43  1  0
 13 44  1  0
 15 45  1  0
 15 46  1  0
 16 47  1  0
 16 48  1  0
 17 49  1  0
 17 50  1  0
 18 51  1  0
 19 52  1  0
 20 53  1  0
 21 54  1  0
 22 55  1  0
 22 56  1  0
 24 57  1  0
 25 58  1  0
 26 59  1  0
 27 60  1  0
 30 61  1  0
 30 62  1  0
M  END
$$$$
