
     RDKit          3D

 74 77  0  0  0  0  0  0  0  0999 V2000
   -3.1577   -0.6009    2.5280 C   0  0  0  0  0  0  0  0  0  0  0  0
   -4.3476   -0.8156    1.7955 O   0  0  0  0  0  0  0  0  0  0  0  0
   -4.1263   -0.6370    0.4041 C   0  0  1  0  0  0  0  0  0  0  0  0
   -3.8565   -2.0134   -0.2519 C   0  0  0  0  0  0  0  0  0  0  0  0
   -3.5417   -1.9036   -1.6906 N   0  0  0  0  0  0  0  0  0  0  0  0
   -4.5219   -2.3699   -2.6777 C   0  0  0  0  0  0  0  0  0  0  0  0
   -2.2668   -1.4013   -2.1650 C   0  0  0  0  0  0  0  0  0  0  0  0
   -2.0091   -1.4005   -3.4008 O   0  0  0  0  0  0  0  0  0  0  0  0
   -1.2550   -0.8676   -1.2400 C   0  0  0  0  0  0  0  0  0  0  0  0
   -0.4773   -1.8064   -0.5425 C   0  0  0  0  0  0  0  0  0  0  0  0
    0.4988   -1.4035    0.3761 C   0  0  0  0  0  0  0  0  0  0  0  0
    1.2805   -2.4045    1.0543 N   0  0  0  0  0  0  0  0  0  0  0  0
    2.1946   -2.1094    2.5001 S   0  0  0  0  0  6  0  0  0  0  0  0
    1.2899   -1.4978    3.5366 O   0  0  0  0  0  0  0  0  0  0  0  0
    2.7159   -3.4187    3.0240 O   0  0  0  0  0  0  0  0  0  0  0  0
    3.5660   -1.0595    2.1610 C   0  0  0  0  0  0  0  0  0  0  0  0
    3.9390   -0.0623    3.0702 C   0  0  0  0  0  0  0  0  0  0  0  0
    5.0276    0.7701    2.7919 C   0  0  0  0  0  0  0  0  0  0  0  0
    5.7642    0.6052    1.6137 C   0  0  0  0  0  0  0  0  0  0  0  0
    6.8389    1.4691    1.3653 O   0  0  0  0  0  0  0  0  0  0  0  0
    8.0105    1.1326    0.6726 C   0  0  0  0  0  0  0  0  0  0  0  0
    8.7063    2.1452   -0.0007 C   0  0  0  0  0  0  0  0  0  0  0  0
    9.8943    1.8549   -0.6799 C   0  0  0  0  0  0  0  0  0  0  0  0
   10.4045    0.5526   -0.6757 C   0  0  0  0  0  0  0  0  0  0  0  0
    9.7225   -0.4624   -0.0010 C   0  0  0  0  0  0  0  0  0  0  0  0
    8.5338   -0.1762    0.6793 C   0  0  0  0  0  0  0  0  0  0  0  0
    5.3790   -0.3860    0.6947 C   0  0  0  0  0  0  0  0  0  0  0  0
    4.2896   -1.2174    0.9713 C   0  0  0  0  0  0  0  0  0  0  0  0
    0.7115   -0.0337    0.5803 C   0  0  0  0  0  0  0  0  0  0  0  0
   -0.0282    0.9087   -0.1303 C   0  0  0  0  0  0  0  0  0  0  0  0
   -1.0198    0.5247   -1.0411 C   0  0  0  0  0  0  0  0  0  0  0  0
   -1.6946    1.5868   -1.6838 O   0  0  0  0  0  0  0  0  0  0  0  0
   -2.9745    1.6087   -2.3253 C   0  0  0  0  0  0  0  0  0  0  0  0
   -3.8745    2.6544   -1.6488 C   0  0  1  0  0  0  0  0  0  0  0  0
   -5.1584    2.9094   -2.4575 C   0  0  0  0  0  0  0  0  0  0  0  0
   -4.0927    2.3183   -0.2161 N   0  0  0  0  0  0  0  0  0  0  0  0
   -5.3375    1.6099    0.1599 C   0  0  0  0  0  0  0  0  0  0  0  0
   -5.3404    0.1091   -0.2249 C   0  0  2  0  0  0  0  0  0  0  0  0
   -6.6865   -0.5246    0.1737 C   0  0  0  0  0  0  0  0  0  0  0  0
   -2.3296   -1.2532    2.1679 H   0  0  0  0  0  0  0  0  0  0  0  0
   -2.8543    0.4689    2.4793 H   0  0  0  0  0  0  0  0  0  0  0  0
   -3.3454   -0.8492    3.5916 H   0  0  0  0  0  0  0  0  0  0  0  0
   -3.2399   -0.0025    0.2120 H   0  0  0  0  0  0  0  0  0  0  0  0
   -4.7310   -2.6783   -0.0861 H   0  0  0  0  0  0  0  0  0  0  0  0
   -3.0137   -2.5187    0.2652 H   0  0  0  0  0  0  0  0  0  0  0  0
   -5.4865   -2.6496   -2.1994 H   0  0  0  0  0  0  0  0  0  0  0  0
   -4.1231   -3.2603   -3.2104 H   0  0  0  0  0  0  0  0  0  0  0  0
   -4.7295   -1.5615   -3.4116 H   0  0  0  0  0  0  0  0  0  0  0  0
   -0.6421   -2.8653   -0.7097 H   0  0  0  0  0  0  0  0  0  0  0  0
    1.2096   -3.3985    0.7396 H   0  0  0  0  0  0  0  0  0  0  0  0
    3.3895    0.0735    3.9923 H   0  0  0  0  0  0  0  0  0  0  0  0
    5.3097    1.5395    3.5005 H   0  0  0  0  0  0  0  0  0  0  0  0
    8.3218    3.1590   -0.0069 H   0  0  0  0  0  0  0  0  0  0  0  0
   10.4249    2.6429   -1.2011 H   0  0  0  0  0  0  0  0  0  0  0  0
   11.3273    0.3312   -1.1977 H   0  0  0  0  0  0  0  0  0  0  0  0
   10.1250   -1.4657    0.0060 H   0  0  0  0  0  0  0  0  0  0  0  0
    8.0391   -0.9670    1.2267 H   0  0  0  0  0  0  0  0  0  0  0  0
    5.9086   -0.5060   -0.2393 H   0  0  0  0  0  0  0  0  0  0  0  0
    4.0054   -1.9782    0.2559 H   0  0  0  0  0  0  0  0  0  0  0  0
    1.4522    0.3211    1.2785 H   0  0  0  0  0  0  0  0  0  0  0  0
    0.1633    1.9608    0.0403 H   0  0  0  0  0  0  0  0  0  0  0  0
   -2.8147    1.8831   -3.3912 H   0  0  0  0  0  0  0  0  0  0  0  0
   -3.4859    0.6489   -2.3163 H   0  0  0  0  0  0  0  0  0  0  0  0
   -3.3028    3.6120   -1.6895 H   0  0  0  0  0  0  0  0  0  0  0  0
   -5.7537    1.9813   -2.5827 H   0  0  0  0  0  0  0  0  0  0  0  0
   -4.8961    3.2849   -3.4709 H   0  0  0  0  0  0  0  0  0  0  0  0
   -5.7775    3.6853   -1.9554 H   0  0  0  0  0  0  0  0  0  0  0  0
   -4.0785    3.2141    0.3271 H   0  0  0  0  0  0  0  0  0  0  0  0
   -5.4438    1.6720    1.2658 H   0  0  0  0  0  0  0  0  0  0  0  0
   -6.2316    2.1241   -0.2478 H   0  0  0  0  0  0  0  0  0  0  0  0
   -5.2948    0.0389   -1.3257 H   0  0  0  0  0  0  0  0  0  0  0  0
   -7.5234    0.0244   -0.3100 H   0  0  0  0  0  0  0  0  0  0  0  0
   -6.7422   -1.5766   -0.1715 H   0  0  0  0  0  0  0  0  0  0  0  0
   -6.8364   -0.4953    1.2751 H   0  0  0  0  0  0  0  0  0  0  0  0
  1  2  1  0
  2  3  1  0
  3  4  1  0
  4  5  1  0
  5  6  1  0
  5  7  1  0
  7  8  2  0
  7  9  1  0
  9 10  2  0
 10 11  1  0
 11 12  1  0
 12 13  1  0
 13 14  2  0
 13 15  2  0
 13 16  1  0
 16 17  2  0
 17 18  1  0
 18 19  2  0
 19 20  1  0
 20 21  1  0
 21 22  2  0
 22 23  1  0
 23 24  2  0
 24 25  1  0
 25 26  2  0
 19 27  1  0
 27 28  2  0
 11 29  2  0
 29 30  1  0
 30 31  2  0
 31 32  1  0
 32 33  1  0
 33 34  1  0
 34 35  1  0
 34 36  1  0
 36 37  1  0
 37 38  1  0
 38 39  1  0
 38  3  1  0
 31  9  1  0
 28 16  1  0
 26 21  1  0
  1 40  1  0
  1 41  1  0
  1 42  1  0
  3 43  1  1
  4 44  1  0
  4 45  1  0
  6 46  1  0
  6 47  1  0
  6 48  1  0
 10 49  1  0
 12 50  1  0
 17 51  1  0
 18 52  1  0
 22 53  1  0
 23 54  1  0
 24 55  1  0
 25 56  1  0
 26 57  1  0
 27 58  1  0
 28 59  1  0
 29 60  1  0
 30 61  1  0
 33 62  1  0
 33 63  1  0
 34 64  1  1
 35 65  1  0
 35 66  1  0
 35 67  1  0
 36 68  1  0
 37 69  1  0
 37 70  1  0
 38 71  1  6
 39 72  1  0
 39 73  1  0
 39 74  1  0
M  END
$$$$
