
     RDKit          3D

189196  0  0  0  0  0  0  0  0999 V2000
   -4.6543    2.1616   -4.9004 C   0  0  0  0  0  0  0  0  0  0  0  0
   -5.8800    1.4585   -4.3122 C   0  0  0  0  0  0  0  0  0  0  0  0
   -5.4971    0.3976   -3.2370 C   0  0  0  0  0  0  0  0  0  0  0  0
   -5.7023    0.8796   -1.9007 O   0  0  0  0  0  0  0  0  0  0  0  0
   -5.0658    2.0188   -1.3822 C   0  0  0  0  0  0  0  0  0  0  0  0
   -5.2181    3.1262   -1.9643 O   0  0  0  0  0  0  0  0  0  0  0  0
   -4.0934    1.9309   -0.2175 C   0  0  0  0  0  0  0  0  0  0  0  0
   -4.0737    3.2153    0.6238 C   0  0  0  0  0  0  0  0  0  0  0  0
   -4.1416    0.5702    0.5806 C   0  0  0  0  0  0  0  0  0  0  0  0
   -2.8234    0.0310    0.5982 O   0  0  0  0  0  0  0  0  0  0  0  0
   -2.5262   -0.7460   -0.5527 C   0  0  0  0  0  0  0  0  0  0  0  0
   -2.6963   -2.2461   -0.1983 C   0  0  0  0  0  0  0  0  0  0  0  0
   -1.5381   -2.7561    0.7048 C   0  0  0  0  0  0  0  0  0  0  0  0
   -1.4897   -4.3102    0.6479 C   0  0  0  0  0  0  0  0  0  0  0  0
   -1.7104   -2.2441    2.0326 O   0  0  0  0  0  0  0  0  0  0  0  0
   -2.6250   -2.9615    2.8387 C   0  0  0  0  0  0  0  0  0  0  0  0
   -0.1638   -2.2091    0.1564 C   0  0  0  0  0  0  0  0  0  0  0  0
    0.4414   -1.3229    1.1049 O   0  0  0  0  0  0  0  0  0  0  0  0
    1.2699   -1.7516    2.1470 C   0  0  0  0  0  0  0  0  0  0  0  0
    1.5619   -2.9726    2.2767 O   0  0  0  0  0  0  0  0  0  0  0  0
    1.8040   -0.7824    3.0518 N   0  0  0  0  0  0  0  0  0  0  0  0
    2.9462   -1.0684    3.9175 C   0  0  0  0  0  0  0  0  0  0  0  0
    4.1901   -1.2848    3.1073 C   0  0  0  0  0  0  0  0  0  0  0  0
    4.4431   -0.8350    1.8277 C   0  0  0  0  0  0  0  0  0  0  0  0
    5.6901   -1.2366    1.5355 N   0  0  0  0  0  0  0  0  0  0  0  0
    6.4062   -1.0149    0.2834 C   0  0  0  0  0  0  0  0  0  0  0  0
    6.8541    0.4479    0.1779 C   0  0  0  0  0  0  0  0  0  0  0  0
    7.5179    0.7714   -1.1729 C   0  0  0  0  0  0  0  0  0  0  0  0
    8.8643    0.0603   -1.3785 C   0  0  0  0  0  0  0  0  0  0  0  0
    9.8029    0.3898   -0.2840 N   0  0  0  0  0  0  0  0  0  0  0  0
   10.6665   -0.7673    0.0426 C   0  0  0  0  0  0  0  0  0  0  0  0
   11.8466   -0.3616    0.9283 C   0  0  0  0  0  0  0  0  0  0  0  0
   12.6284    0.6827    0.2655 N   0  0  0  0  0  0  0  0  0  0  0  0
   14.0336    0.7802    0.5207 C   0  0  0  0  0  0  0  0  0  0  0  0
   14.9431    0.1881   -0.3605 C   0  0  0  0  0  0  0  0  0  0  0  0
   16.3340    0.2298   -0.1083 C   0  0  0  0  0  0  0  0  0  0  0  0
   16.7945    0.9421    1.0292 C   0  0  0  0  0  0  0  0  0  0  0  0
   15.8641    1.5330    1.9083 C   0  0  0  0  0  0  0  0  0  0  0  0
   14.4953    1.4408    1.6604 C   0  0  0  0  0  0  0  0  0  0  0  0
   13.6166    2.0153    2.5201 F   0  0  0  0  0  0  0  0  0  0  0  0
   18.1770    1.0569    1.2583 C   0  0  0  0  0  0  0  0  0  0  0  0
   18.5959    1.6769    2.2744 O   0  0  0  0  0  0  0  0  0  0  0  0
   19.0885    0.4872    0.3510 C   0  0  0  0  0  0  0  0  0  0  0  0
   20.5608    0.6189    0.5267 C   0  0  0  0  0  0  0  0  0  0  0  0
   21.3500    0.0183   -0.2521 O   0  0  0  0  0  0  0  0  0  0  0  0
   21.0921    1.4069    1.5445 O   0  0  0  0  0  0  0  0  0  0  0  0
   18.5832   -0.2248   -0.7471 C   0  0  0  0  0  0  0  0  0  0  0  0
   17.2397   -0.3963   -0.9380 N   0  0  0  0  0  0  0  0  0  0  0  0
   16.8041   -1.1887   -2.1046 C   0  0  0  0  0  0  0  0  0  0  0  0
   16.0447   -2.4621   -1.7430 C   0  0  0  0  0  0  0  0  0  0  0  0
   17.4698   -2.5572   -2.2474 C   0  0  0  0  0  0  0  0  0  0  0  0
   12.0233    1.4845   -0.7994 C   0  0  0  0  0  0  0  0  0  0  0  0
   10.5256    1.6704   -0.5200 C   0  0  0  0  0  0  0  0  0  0  0  0
    6.1854   -1.8752    2.5836 N   0  0  0  0  0  0  0  0  0  0  0  0
    5.2910   -1.9165    3.5617 N   0  0  0  0  0  0  0  0  0  0  0  0
   -0.3396   -1.4465   -1.1761 C   0  0  0  0  0  0  0  0  0  0  0  0
    0.9977   -0.9087   -1.6908 C   0  0  0  0  0  0  0  0  0  0  0  0
   -1.2301   -0.3626   -1.0045 O   0  0  0  0  0  0  0  0  0  0  0  0
   -4.6710    0.5049    2.0634 C   0  0  0  0  0  0  0  0  0  0  0  0
   -3.8802    1.3577    3.0763 C   0  0  0  0  0  0  0  0  0  0  0  0
   -6.2333    0.5448    2.3368 C   0  0  0  0  0  0  0  0  0  0  0  0
   -6.9648    0.9801    1.1855 O   0  0  0  0  0  0  0  0  0  0  0  0
   -7.5422    2.2830    1.3269 C   0  0  0  0  0  0  0  0  0  0  0  0
   -7.2950    3.0120    0.1323 O   0  0  0  0  0  0  0  0  0  0  0  0
   -7.8815    4.3054    0.2025 C   0  0  0  0  0  0  0  0  0  0  0  0
   -7.3033    5.1842   -0.9057 C   0  0  0  0  0  0  0  0  0  0  0  0
   -9.4232    4.2129    0.0886 C   0  0  0  0  0  0  0  0  0  0  0  0
   -9.9057    2.7845    0.4365 C   0  0  0  0  0  0  0  0  0  0  0  0
  -11.3820    2.6258    0.5913 N   0  0  0  0  0  0  0  0  0  0  0  0
  -11.9896    3.3298    1.7374 C   0  0  0  0  0  0  0  0  0  0  0  0
  -12.1003    2.9576   -0.6523 C   0  0  0  0  0  0  0  0  0  0  0  0
   -9.0793    2.1707    1.5988 C   0  0  0  0  0  0  0  0  0  0  0  0
   -9.3878    2.7437    2.8451 O   0  0  0  0  0  0  0  0  0  0  0  0
   -6.7710   -0.8445    2.8838 C   0  0  0  0  0  0  0  0  0  0  0  0
   -8.2005   -0.6782    3.4602 C   0  0  0  0  0  0  0  0  0  0  0  0
   -5.9511   -1.1741    3.9885 O   0  0  0  0  0  0  0  0  0  0  0  0
   -6.6259   -1.9928    1.7995 C   0  0  0  0  0  0  0  0  0  0  0  0
   -7.8515   -2.7247    1.1807 C   0  0  0  0  0  0  0  0  0  0  0  0
   -8.6836   -3.5287    2.1957 C   0  0  0  0  0  0  0  0  0  0  0  0
   -8.7175   -1.8295    0.2549 C   0  0  0  0  0  0  0  0  0  0  0  0
   -8.3635   -2.0374   -1.1715 N   0  0  0  0  0  0  0  0  0  0  0  0
   -9.0970   -3.2004   -1.7210 C   0  0  0  0  0  0  0  0  0  0  0  0
   -8.4700   -0.7756   -1.9732 C   0  0  0  0  0  0  0  0  0  0  0  0
   -9.9230   -0.2592   -2.0919 C   0  0  0  0  0  0  0  0  0  0  0  0
   -7.8068   -0.8487   -3.3901 C   0  0  0  0  0  0  0  0  0  0  0  0
   -8.4080   -1.8745   -4.1440 O   0  0  0  0  0  0  0  0  0  0  0  0
   -6.2329   -0.9747   -3.4601 C   0  0  0  0  0  0  0  0  0  0  0  0
   -5.7010   -2.0211   -2.4567 C   0  0  0  0  0  0  0  0  0  0  0  0
   -5.9146   -1.4363   -4.7572 O   0  0  0  0  0  0  0  0  0  0  0  0
   -4.0223    2.6111   -4.1077 H   0  0  0  0  0  0  0  0  0  0  0  0
   -4.0394    1.4333   -5.4704 H   0  0  0  0  0  0  0  0  0  0  0  0
   -4.9820    2.9662   -5.5923 H   0  0  0  0  0  0  0  0  0  0  0  0
   -6.4076    0.9893   -5.1701 H   0  0  0  0  0  0  0  0  0  0  0  0
   -6.5798    2.2077   -3.8848 H   0  0  0  0  0  0  0  0  0  0  0  0
   -4.4078    0.1863   -3.3357 H   0  0  0  0  0  0  0  0  0  0  0  0
   -3.1073    1.9538   -0.7337 H   0  0  0  0  0  0  0  0  0  0  0  0
   -3.9793    4.1109   -0.0253 H   0  0  0  0  0  0  0  0  0  0  0  0
   -3.1826    3.2262    1.2833 H   0  0  0  0  0  0  0  0  0  0  0  0
   -4.9929    3.3255    1.2226 H   0  0  0  0  0  0  0  0  0  0  0  0
   -4.8146   -0.1181    0.0393 H   0  0  0  0  0  0  0  0  0  0  0  0
   -3.2128   -0.5284   -1.3995 H   0  0  0  0  0  0  0  0  0  0  0  0
   -2.7258   -2.8306   -1.1433 H   0  0  0  0  0  0  0  0  0  0  0  0
   -3.6858   -2.4013    0.2742 H   0  0  0  0  0  0  0  0  0  0  0  0
   -0.7303   -4.6967    1.3608 H   0  0  0  0  0  0  0  0  0  0  0  0
   -1.2178   -4.6523   -0.3736 H   0  0  0  0  0  0  0  0  0  0  0  0
   -2.4747   -4.7607    0.8883 H   0  0  0  0  0  0  0  0  0  0  0  0
   -2.1386   -3.8687    3.2541 H   0  0  0  0  0  0  0  0  0  0  0  0
   -3.5570   -3.2340    2.3057 H   0  0  0  0  0  0  0  0  0  0  0  0
   -2.9140   -2.3197    3.6953 H   0  0  0  0  0  0  0  0  0  0  0  0
    0.5465   -3.0444   -0.0516 H   0  0  0  0  0  0  0  0  0  0  0  0
    1.4393    0.1957    3.0083 H   0  0  0  0  0  0  0  0  0  0  0  0
    3.1141   -0.2100    4.6019 H   0  0  0  0  0  0  0  0  0  0  0  0
    2.7325   -1.9676    4.5340 H   0  0  0  0  0  0  0  0  0  0  0  0
    3.7891   -0.2754    1.1708 H   0  0  0  0  0  0  0  0  0  0  0  0
    5.7397   -1.2695   -0.5699 H   0  0  0  0  0  0  0  0  0  0  0  0
    7.2872   -1.6899    0.2488 H   0  0  0  0  0  0  0  0  0  0  0  0
    7.5447    0.6893    1.0149 H   0  0  0  0  0  0  0  0  0  0  0  0
    5.9629    1.1029    0.2858 H   0  0  0  0  0  0  0  0  0  0  0  0
    7.6742    1.8698   -1.2351 H   0  0  0  0  0  0  0  0  0  0  0  0
    6.8292    0.4923   -2.0000 H   0  0  0  0  0  0  0  0  0  0  0  0
    9.2910    0.3444   -2.3675 H   0  0  0  0  0  0  0  0  0  0  0  0
    8.6743   -1.0349   -1.4391 H   0  0  0  0  0  0  0  0  0  0  0  0
   10.0646   -1.5316    0.5796 H   0  0  0  0  0  0  0  0  0  0  0  0
   11.0670   -1.2317   -0.8876 H   0  0  0  0  0  0  0  0  0  0  0  0
   12.4798   -1.2584    1.1087 H   0  0  0  0  0  0  0  0  0  0  0  0
   11.4785    0.0167    1.9068 H   0  0  0  0  0  0  0  0  0  0  0  0
   14.5443   -0.3029   -1.2371 H   0  0  0  0  0  0  0  0  0  0  0  0
   16.1933    2.0709    2.7887 H   0  0  0  0  0  0  0  0  0  0  0  0
   22.0939    1.5014    1.6616 H   0  0  0  0  0  0  0  0  0  0  0  0
   19.2796   -0.6568   -1.4568 H   0  0  0  0  0  0  0  0  0  0  0  0
   16.5022   -0.6590   -3.0325 H   0  0  0  0  0  0  0  0  0  0  0  0
   15.9379   -2.6674   -0.6560 H   0  0  0  0  0  0  0  0  0  0  0  0
   15.2785   -2.7651   -2.4877 H   0  0  0  0  0  0  0  0  0  0  0  0
   18.1855   -2.8596   -1.4534 H   0  0  0  0  0  0  0  0  0  0  0  0
   17.5464   -2.9295   -3.2904 H   0  0  0  0  0  0  0  0  0  0  0  0
   12.1673    0.9755   -1.7770 H   0  0  0  0  0  0  0  0  0  0  0  0
   12.5084    2.4842   -0.8457 H   0  0  0  0  0  0  0  0  0  0  0  0
   10.0779    2.2624   -1.3491 H   0  0  0  0  0  0  0  0  0  0  0  0
   10.4197    2.2932    0.3937 H   0  0  0  0  0  0  0  0  0  0  0  0
   -0.7209   -2.1356   -1.9635 H   0  0  0  0  0  0  0  0  0  0  0  0
    0.8459   -0.4195   -2.6762 H   0  0  0  0  0  0  0  0  0  0  0  0
    1.4199   -0.1583   -0.9885 H   0  0  0  0  0  0  0  0  0  0  0  0
    1.7256   -1.7389   -1.8204 H   0  0  0  0  0  0  0  0  0  0  0  0
   -4.3480   -0.5206    2.3474 H   0  0  0  0  0  0  0  0  0  0  0  0
   -2.8031    1.4093    2.8075 H   0  0  0  0  0  0  0  0  0  0  0  0
   -4.2953    2.3800    3.1704 H   0  0  0  0  0  0  0  0  0  0  0  0
   -3.9500    0.8954    4.0848 H   0  0  0  0  0  0  0  0  0  0  0  0
   -6.3807    1.2248    3.2063 H   0  0  0  0  0  0  0  0  0  0  0  0
   -7.0662    2.8588    2.1554 H   0  0  0  0  0  0  0  0  0  0  0  0
   -7.6160    4.8048    1.1642 H   0  0  0  0  0  0  0  0  0  0  0  0
   -6.2095    5.3044   -0.7581 H   0  0  0  0  0  0  0  0  0  0  0  0
   -7.7707    6.1924   -0.8804 H   0  0  0  0  0  0  0  0  0  0  0  0
   -7.4859    4.7252   -1.9013 H   0  0  0  0  0  0  0  0  0  0  0  0
   -9.8670    4.9780    0.7548 H   0  0  0  0  0  0  0  0  0  0  0  0
   -9.7505    4.4504   -0.9484 H   0  0  0  0  0  0  0  0  0  0  0  0
   -9.6180    2.1646   -0.4433 H   0  0  0  0  0  0  0  0  0  0  0  0
  -13.0989    3.3220    1.6611 H   0  0  0  0  0  0  0  0  0  0  0  0
  -11.7656    2.7924    2.6795 H   0  0  0  0  0  0  0  0  0  0  0  0
  -11.6660    4.3858    1.8091 H   0  0  0  0  0  0  0  0  0  0  0  0
  -12.1125    4.0555   -0.8289 H   0  0  0  0  0  0  0  0  0  0  0  0
  -11.6359    2.4513   -1.5253 H   0  0  0  0  0  0  0  0  0  0  0  0
  -13.1478    2.5933   -0.5900 H   0  0  0  0  0  0  0  0  0  0  0  0
   -9.3783    1.1133    1.6379 H   0  0  0  0  0  0  0  0  0  0  0  0
   -9.1798    3.7120    2.7951 H   0  0  0  0  0  0  0  0  0  0  0  0
   -8.9852   -0.6802    2.6943 H   0  0  0  0  0  0  0  0  0  0  0  0
   -8.4343   -1.5001    4.1682 H   0  0  0  0  0  0  0  0  0  0  0  0
   -8.2862    0.2632    4.0419 H   0  0  0  0  0  0  0  0  0  0  0  0
   -6.2212   -2.0661    4.3342 H   0  0  0  0  0  0  0  0  0  0  0  0
   -5.9634   -2.7889    2.2083 H   0  0  0  0  0  0  0  0  0  0  0  0
   -6.0496   -1.6158    0.9420 H   0  0  0  0  0  0  0  0  0  0  0  0
   -7.3919   -3.5081    0.5335 H   0  0  0  0  0  0  0  0  0  0  0  0
   -8.0293   -3.9779    2.9710 H   0  0  0  0  0  0  0  0  0  0  0  0
   -9.2074   -4.3549    1.6701 H   0  0  0  0  0  0  0  0  0  0  0  0
   -9.4671   -2.9168    2.6800 H   0  0  0  0  0  0  0  0  0  0  0  0
   -8.5712   -0.7732    0.5373 H   0  0  0  0  0  0  0  0  0  0  0  0
   -9.8028   -2.0279    0.4170 H   0  0  0  0  0  0  0  0  0  0  0  0
   -9.1885   -4.0088   -0.9650 H   0  0  0  0  0  0  0  0  0  0  0  0
   -8.5318   -3.6542   -2.5562 H   0  0  0  0  0  0  0  0  0  0  0  0
  -10.1231   -2.9390   -2.0450 H   0  0  0  0  0  0  0  0  0  0  0  0
   -7.9231    0.0211   -1.4292 H   0  0  0  0  0  0  0  0  0  0  0  0
   -9.9183    0.7759   -2.4959 H   0  0  0  0  0  0  0  0  0  0  0  0
  -10.5242   -0.8815   -2.7859 H   0  0  0  0  0  0  0  0  0  0  0  0
  -10.4219   -0.2256   -1.1032 H   0  0  0  0  0  0  0  0  0  0  0  0
   -8.0700    0.1207   -3.8723 H   0  0  0  0  0  0  0  0  0  0  0  0
   -8.5165   -1.5447   -5.0757 H   0  0  0  0  0  0  0  0  0  0  0  0
   -5.8434   -1.6883   -1.4119 H   0  0  0  0  0  0  0  0  0  0  0  0
   -4.6147   -2.1851   -2.6085 H   0  0  0  0  0  0  0  0  0  0  0  0
   -6.2074   -2.9971   -2.6048 H   0  0  0  0  0  0  0  0  0  0  0  0
   -4.9273   -1.5104   -4.8393 H   0  0  0  0  0  0  0  0  0  0  0  0
  1  2  1  0
  2  3  1  0
  3  4  1  0
  4  5  1  0
  5  6  2  0
  5  7  1  0
  7  8  1  0
  7  9  1  0
  9 10  1  0
 10 11  1  0
 11 12  1  0
 12 13  1  0
 13 14  1  0
 13 15  1  0
 15 16  1  0
 13 17  1  0
 17 18  1  0
 18 19  1  0
 19 20  2  0
 19 21  1  0
 21 22  1  0
 22 23  1  0
 23 24  2  0
 24 25  1  0
 25 26  1  0
 26 27  1  0
 27 28  1  0
 28 29  1  0
 29 30  1  0
 30 31  1  0
 31 32  1  0
 32 33  1  0
 33 34  1  0
 34 35  2  0
 35 36  1  0
 36 37  2  0
 37 38  1  0
 38 39  2  0
 39 40  1  0
 37 41  1  0
 41 42  2  0
 41 43  1  0
 43 44  1  0
 44 45  2  0
 44 46  1  0
 43 47  2  0
 47 48  1  0
 48 49  1  0
 49 50  1  0
 50 51  1  0
 33 52  1  0
 52 53  1  0
 25 54  1  0
 54 55  2  0
 17 56  1  0
 56 57  1  0
 56 58  1  0
  9 59  1  0
 59 60  1  0
 59 61  1  0
 61 62  1  0
 62 63  1  0
 63 64  1  0
 64 65  1  0
 65 66  1  0
 65 67  1  0
 67 68  1  0
 68 69  1  0
 69 70  1  0
 69 71  1  0
 68 72  1  0
 72 73  1  0
 61 74  1  0
 74 75  1  0
 74 76  1  0
 74 77  1  0
 77 78  1  0
 78 79  1  0
 78 80  1  0
 80 81  1  0
 81 82  1  0
 81 83  1  0
 83 84  1  0
 83 85  1  0
 85 86  1  0
 85 87  1  0
 87 88  1  0
 87 89  1  0
 87  3  1  0
 58 11  1  0
 72 63  1  0
 55 23  1  0
 53 30  1  0
 39 34  1  0
 51 49  1  0
 48 36  1  0
  1 90  1  0
  1 91  1  0
  1 92  1  0
  2 93  1  0
  2 94  1  0
  3 95  1  0
  7 96  1  0
  8 97  1  0
  8 98  1  0
  8 99  1  0
  9100  1  0
 11101  1  0
 12102  1  0
 12103  1  0
 14104  1  0
 14105  1  0
 14106  1  0
 16107  1  0
 16108  1  0
 16109  1  0
 17110  1  0
 21111  1  0
 22112  1  0
 22113  1  0
 24114  1  0
 26115  1  0
 26116  1  0
 27117  1  0
 27118  1  0
 28119  1  0
 28120  1  0
 29121  1  0
 29122  1  0
 31123  1  0
 31124  1  0
 32125  1  0
 32126  1  0
 35127  1  0
 38128  1  0
 46129  1  0
 47130  1  0
 49131  1  0
 50132  1  0
 50133  1  0
 51134  1  0
 51135  1  0
 52136  1  0
 52137  1  0
 53138  1  0
 53139  1  0
 56140  1  0
 57141  1  0
 57142  1  0
 57143  1  0
 59144  1  0
 60145  1  0
 60146  1  0
 60147  1  0
 61148  1  0
 63149  1  0
 65150  1  0
 66151  1  0
 66152  1  0
 66153  1  0
 67154  1  0
 67155  1  0
 68156  1  0
 70157  1  0
 70158  1  0
 70159  1  0
 71160  1  0
 71161  1  0
 71162  1  0
 72163  1  0
 73164  1  0
 75165  1  0
 75166  1  0
 75167  1  0
 76168  1  0
 77169  1  0
 77170  1  0
 78171  1  0
 79172  1  0
 79173  1  0
 79174  1  0
 80175  1  0
 80176  1  0
 82177  1  0
 82178  1  0
 82179  1  0
 83180  1  0
 84181  1  0
 84182  1  0
 84183  1  0
 85184  1  0
 86185  1  0
 88186  1  0
 88187  1  0
 88188  1  0
 89189  1  0
M  END
$$$$
