
     RDKit          3D

 88 94  0  0  0  0  0  0  0  0999 V2000
   -1.0283    5.0473    4.0140 C   0  0  0  0  0  0  0  0  0  0  0  0
   -0.7407    4.8226    2.6381 O   0  0  0  0  0  0  0  0  0  0  0  0
   -1.4444    3.9300    1.8147 C   0  0  0  0  0  0  0  0  0  0  0  0
   -2.4771    3.1134    2.3090 C   0  0  0  0  0  0  0  0  0  0  0  0
   -3.1623    2.2484    1.4531 C   0  0  0  0  0  0  0  0  0  0  0  0
   -2.8383    2.1893    0.0856 C   0  0  0  0  0  0  0  0  0  0  0  0
   -1.7912    2.9837   -0.4012 C   0  0  0  0  0  0  0  0  0  0  0  0
   -1.0937    3.8449    0.4577 C   0  0  0  0  0  0  0  0  0  0  0  0
   -0.0445    4.6186   -0.0375 O   0  0  0  0  0  0  0  0  0  0  0  0
    1.2065    4.0430   -0.2436 C   0  0  0  0  0  0  0  0  0  0  0  0
    2.1413    4.0118    0.8001 C   0  0  0  0  0  0  0  0  0  0  0  0
    3.3406    3.3145    0.6449 C   0  0  0  0  0  0  0  0  0  0  0  0
    3.6133    2.6394   -0.5572 C   0  0  0  0  0  0  0  0  0  0  0  0
    2.7097    2.7472   -1.6287 C   0  0  0  0  0  0  0  0  0  0  0  0
    1.5140    3.4514   -1.4726 C   0  0  0  0  0  0  0  0  0  0  0  0
    4.7740    1.6821   -0.6385 C   0  0  0  0  0  0  0  0  0  0  0  0
    4.5101    0.3819    0.1688 C   0  0  1  0  0  0  0  0  0  0  0  0
    3.2837   -0.3681   -0.3402 C   0  0  0  0  0  0  0  0  0  0  0  0
    1.9975    0.0536    0.0406 C   0  0  0  0  0  0  0  0  0  0  0  0
    0.8540   -0.5624   -0.4721 C   0  0  0  0  0  0  0  0  0  0  0  0
    0.9829   -1.6149   -1.3985 C   0  0  0  0  0  0  0  0  0  0  0  0
   -0.1766   -2.1771   -1.9553 O   0  0  0  0  0  0  0  0  0  0  0  0
   -0.1885   -3.1566   -2.9928 C   0  0  0  0  0  0  0  0  0  0  0  0
    2.2666   -2.0702   -1.7481 C   0  0  0  0  0  0  0  0  0  0  0  0
    3.4146   -1.4609   -1.2205 C   0  0  0  0  0  0  0  0  0  0  0  0
    4.7541   -2.0900   -1.4845 C   0  0  0  0  0  0  0  0  0  0  0  0
    5.9327   -1.1783   -1.1118 C   0  0  0  0  0  0  0  0  0  0  0  0
    5.7268   -0.4662    0.1683 N   0  0  0  0  0  0  0  0  0  0  0  0
    5.7552   -1.3826    1.3246 C   0  0  0  0  0  0  0  0  0  0  0  0
   -0.4049   -0.1031   -0.0548 O   0  0  0  0  0  0  0  0  0  0  0  0
   -1.4510   -0.9695    0.2951 C   0  0  0  0  0  0  0  0  0  0  0  0
   -1.2464   -1.9280    1.3064 C   0  0  0  0  0  0  0  0  0  0  0  0
    0.0164   -1.9354    1.9322 O   0  0  0  0  0  0  0  0  0  0  0  0
    0.4886   -2.8692    2.8967 C   0  0  0  0  0  0  0  0  0  0  0  0
   -2.2942   -2.8170    1.6464 C   0  0  0  0  0  0  0  0  0  0  0  0
   -2.1170   -3.7421    2.6864 O   0  0  0  0  0  0  0  0  0  0  0  0
   -3.1073   -4.6614    3.1409 C   0  0  0  0  0  0  0  0  0  0  0  0
   -3.5036   -2.7596    0.9288 C   0  0  0  0  0  0  0  0  0  0  0  0
   -3.6945   -1.8294   -0.0989 C   0  0  0  0  0  0  0  0  0  0  0  0
   -2.6865   -0.8893   -0.3816 C   0  0  0  0  0  0  0  0  0  0  0  0
   -2.9352    0.1486   -1.4549 C   0  0  2  0  0  0  0  0  0  0  0  0
   -3.6831    1.3807   -0.8675 C   0  0  0  0  0  0  0  0  0  0  0  0
   -3.6768   -0.5093   -2.5585 N   0  0  0  0  0  0  0  0  0  0  0  0
   -3.7491    0.3102   -3.7791 C   0  0  0  0  0  0  0  0  0  0  0  0
   -5.0172   -0.9738   -2.1470 C   0  0  0  0  0  0  0  0  0  0  0  0
   -4.9609   -1.9165   -0.9252 C   0  0  0  0  0  0  0  0  0  0  0  0
   -0.9058    4.1031    4.5876 H   0  0  0  0  0  0  0  0  0  0  0  0
   -2.0646    5.4332    4.1280 H   0  0  0  0  0  0  0  0  0  0  0  0
   -0.3199    5.8017    4.4154 H   0  0  0  0  0  0  0  0  0  0  0  0
   -2.7619    3.1468    3.3536 H   0  0  0  0  0  0  0  0  0  0  0  0
   -3.9682    1.6474    1.8497 H   0  0  0  0  0  0  0  0  0  0  0  0
   -1.5376    2.9570   -1.4578 H   0  0  0  0  0  0  0  0  0  0  0  0
    1.9184    4.4848    1.7496 H   0  0  0  0  0  0  0  0  0  0  0  0
    4.0256    3.2456    1.4820 H   0  0  0  0  0  0  0  0  0  0  0  0
    2.9004    2.2409   -2.5649 H   0  0  0  0  0  0  0  0  0  0  0  0
    0.7992    3.4851   -2.2860 H   0  0  0  0  0  0  0  0  0  0  0  0
    5.6825    2.1852   -0.2338 H   0  0  0  0  0  0  0  0  0  0  0  0
    4.9809    1.4499   -1.7068 H   0  0  0  0  0  0  0  0  0  0  0  0
    4.3057    0.7039    1.2193 H   0  0  0  0  0  0  0  0  0  0  0  0
    1.8775    0.8670    0.7466 H   0  0  0  0  0  0  0  0  0  0  0  0
   -1.2411   -3.3931   -3.2577 H   0  0  0  0  0  0  0  0  0  0  0  0
    0.3074   -4.0903   -2.6483 H   0  0  0  0  0  0  0  0  0  0  0  0
    0.3228   -2.7629   -3.8967 H   0  0  0  0  0  0  0  0  0  0  0  0
    2.3827   -2.9086   -2.4202 H   0  0  0  0  0  0  0  0  0  0  0  0
    4.8357   -2.3644   -2.5619 H   0  0  0  0  0  0  0  0  0  0  0  0
    4.8220   -3.0315   -0.8922 H   0  0  0  0  0  0  0  0  0  0  0  0
    6.8597   -1.7877   -1.0653 H   0  0  0  0  0  0  0  0  0  0  0  0
    6.1083   -0.4487   -1.9309 H   0  0  0  0  0  0  0  0  0  0  0  0
    5.8388   -0.7955    2.2639 H   0  0  0  0  0  0  0  0  0  0  0  0
    6.6465   -2.0446    1.2828 H   0  0  0  0  0  0  0  0  0  0  0  0
    4.8360   -2.0087    1.3710 H   0  0  0  0  0  0  0  0  0  0  0  0
   -0.0873   -2.7621    3.8423 H   0  0  0  0  0  0  0  0  0  0  0  0
    0.4227   -3.9039    2.4956 H   0  0  0  0  0  0  0  0  0  0  0  0
    1.5544   -2.6480    3.1167 H   0  0  0  0  0  0  0  0  0  0  0  0
   -3.3831   -5.3585    2.3226 H   0  0  0  0  0  0  0  0  0  0  0  0
   -4.0068   -4.1144    3.4931 H   0  0  0  0  0  0  0  0  0  0  0  0
   -2.6976   -5.2504    3.9866 H   0  0  0  0  0  0  0  0  0  0  0  0
   -4.3046   -3.4525    1.1497 H   0  0  0  0  0  0  0  0  0  0  0  0
   -1.9547    0.4915   -1.8590 H   0  0  0  0  0  0  0  0  0  0  0  0
   -4.6150    1.0599   -0.3504 H   0  0  0  0  0  0  0  0  0  0  0  0
   -3.9929    2.0644   -1.6849 H   0  0  0  0  0  0  0  0  0  0  0  0
   -2.7538    0.7380   -4.0279 H   0  0  0  0  0  0  0  0  0  0  0  0
   -4.4877    1.1349   -3.6778 H   0  0  0  0  0  0  0  0  0  0  0  0
   -4.0539   -0.3306   -4.6335 H   0  0  0  0  0  0  0  0  0  0  0  0
   -5.6861   -0.1117   -1.9337 H   0  0  0  0  0  0  0  0  0  0  0  0
   -5.4856   -1.5300   -2.9890 H   0  0  0  0  0  0  0  0  0  0  0  0
   -5.0562   -2.9642   -1.2911 H   0  0  0  0  0  0  0  0  0  0  0  0
   -5.8319   -1.7099   -0.2682 H   0  0  0  0  0  0  0  0  0  0  0  0
  1  2  1  0
  2  3  1  0
  3  4  2  0
  4  5  1  0
  5  6  2  0
  6  7  1  0
  7  8  2  0
  8  9  1  0
  9 10  1  0
 10 11  2  0
 11 12  1  0
 12 13  2  0
 13 14  1  0
 14 15  2  0
 13 16  1  0
 16 17  1  0
 17 18  1  0
 18 19  2  0
 19 20  1  0
 20 21  2  0
 21 22  1  0
 22 23  1  0
 21 24  1  0
 24 25  2  0
 25 26  1  0
 26 27  1  0
 27 28  1  0
 28 29  1  0
 20 30  1  0
 30 31  1  0
 31 32  2  0
 32 33  1  0
 33 34  1  0
 32 35  1  0
 35 36  1  0
 36 37  1  0
 35 38  2  0
 38 39  1  0
 39 40  2  0
 40 41  1  0
 41 42  1  0
 41 43  1  0
 43 44  1  0
 43 45  1  0
 45 46  1  0
  8  3  1  0
 15 10  1  0
 28 17  1  0
 40 31  1  0
 42  6  1  0
 25 18  1  0
 46 39  1  0
  1 47  1  0
  1 48  1  0
  1 49  1  0
  4 50  1  0
  5 51  1  0
  7 52  1  0
 11 53  1  0
 12 54  1  0
 14 55  1  0
 15 56  1  0
 16 57  1  0
 16 58  1  0
 17 59  1  1
 19 60  1  0
 23 61  1  0
 23 62  1  0
 23 63  1  0
 24 64  1  0
 26 65  1  0
 26 66  1  0
 27 67  1  0
 27 68  1  0
 29 69  1  0
 29 70  1  0
 29 71  1  0
 34 72  1  0
 34 73  1  0
 34 74  1  0
 37 75  1  0
 37 76  1  0
 37 77  1  0
 38 78  1  0
 41 79  1  6
 42 80  1  0
 42 81  1  0
 44 82  1  0
 44 83  1  0
 44 84  1  0
 45 85  1  0
 45 86  1  0
 46 87  1  0
 46 88  1  0
M  END
$$$$
