
     RDKit          3D

 68 70  0  0  0  0  0  0  0  0999 V2000
   -3.3403   -3.6210    0.5787 C   0  0  0  0  0  0  0  0  0  0  0  0
   -2.4548   -2.4970    1.1362 C   0  0  0  0  0  0  0  0  0  0  0  0
   -2.0454   -2.7911    2.5920 C   0  0  0  0  0  0  0  0  0  0  0  0
   -3.0986   -1.1621    0.9442 N   0  0  0  0  0  0  0  0  0  0  0  0
   -4.2878   -0.9553    1.8159 C   0  0  0  0  0  0  0  0  0  0  0  0
   -5.0341    0.3129    1.4864 C   0  0  0  0  0  0  0  0  0  0  0  0
   -5.0384    1.2606    2.3195 O   0  0  0  0  0  0  0  0  0  0  0  0
   -5.7233    0.4521    0.2358 N   0  0  0  0  0  0  0  0  0  0  0  0
   -6.1663    1.7493   -0.2754 C   0  0  0  0  0  0  0  0  0  0  0  0
   -4.9794    2.6630   -0.6510 C   0  0  0  0  0  0  0  0  0  0  0  0
   -4.4031    2.4185   -2.0681 C   0  0  0  0  0  0  0  0  0  0  0  0
   -3.0564    1.6670   -2.0881 C   0  0  0  0  0  0  0  0  0  0  0  0
   -3.2449    0.1532   -1.9756 C   0  0  0  0  0  0  0  0  0  0  0  0
   -2.0115   -0.5558   -2.0403 O   0  0  0  0  0  0  0  0  0  0  0  0
   -0.8845   -0.4322   -1.2072 C   0  0  0  0  0  0  0  0  0  0  0  0
    0.3440   -0.6552   -1.8410 C   0  0  0  0  0  0  0  0  0  0  0  0
    1.5474   -0.5471   -1.1522 C   0  0  0  0  0  0  0  0  0  0  0  0
    1.5557   -0.1973    0.2000 C   0  0  0  0  0  0  0  0  0  0  0  0
    2.8652   -0.0446    0.9340 C   0  0  0  0  0  0  0  0  0  0  0  0
    3.6720    1.1407    0.3846 C   0  0  0  0  0  0  0  0  0  0  0  0
    4.9534    1.3235    1.1507 C   0  0  0  0  0  0  0  0  0  0  0  0
    4.9172    2.0094    2.2099 O   0  0  0  0  0  0  0  0  0  0  0  0
    6.2103    0.7640    0.7038 N   0  0  0  0  0  0  0  0  0  0  0  0
    6.2635   -0.4872   -0.0705 C   0  0  0  0  0  0  0  0  0  0  0  0
    7.3059   -0.3625   -1.1766 C   0  0  0  0  0  0  0  0  0  0  0  0
    8.5886    0.0512   -0.6220 N   0  0  0  0  0  0  0  0  0  0  0  0
    8.6678    0.9414    0.4967 C   0  0  0  0  0  0  0  0  0  0  0  0
    9.7807    1.4270    0.8272 O   0  0  0  0  0  0  0  0  0  0  0  0
    7.4519    1.2544    1.3255 C   0  0  0  0  0  0  0  0  0  0  0  0
    0.3362   -0.0100    0.8656 C   0  0  0  0  0  0  0  0  0  0  0  0
   -0.8986   -0.1506    0.1957 C   0  0  0  0  0  0  0  0  0  0  0  0
   -2.1537   -0.0184    1.0473 C   0  0  0  0  0  0  0  0  0  0  0  0
   -3.7171   -3.3420   -0.4288 H   0  0  0  0  0  0  0  0  0  0  0  0
   -4.2033   -3.8317    1.2434 H   0  0  0  0  0  0  0  0  0  0  0  0
   -2.7497   -4.5576    0.4819 H   0  0  0  0  0  0  0  0  0  0  0  0
   -1.5278   -2.5518    0.5279 H   0  0  0  0  0  0  0  0  0  0  0  0
   -1.4191   -1.9714    3.0006 H   0  0  0  0  0  0  0  0  0  0  0  0
   -2.9328   -2.9356    3.2416 H   0  0  0  0  0  0  0  0  0  0  0  0
   -1.4425   -3.7239    2.6273 H   0  0  0  0  0  0  0  0  0  0  0  0
   -5.0090   -1.7874    1.6935 H   0  0  0  0  0  0  0  0  0  0  0  0
   -3.9859   -0.9207    2.8849 H   0  0  0  0  0  0  0  0  0  0  0  0
   -5.9223   -0.4040   -0.3315 H   0  0  0  0  0  0  0  0  0  0  0  0
   -6.7804    2.2493    0.5044 H   0  0  0  0  0  0  0  0  0  0  0  0
   -6.8304    1.5993   -1.1534 H   0  0  0  0  0  0  0  0  0  0  0  0
   -5.3618    3.7072   -0.6230 H   0  0  0  0  0  0  0  0  0  0  0  0
   -4.1866    2.6204    0.1245 H   0  0  0  0  0  0  0  0  0  0  0  0
   -5.1407    1.9103   -2.7252 H   0  0  0  0  0  0  0  0  0  0  0  0
   -4.2214    3.4127   -2.5311 H   0  0  0  0  0  0  0  0  0  0  0  0
   -2.3872    2.0467   -1.2884 H   0  0  0  0  0  0  0  0  0  0  0  0
   -2.5530    1.8744   -3.0571 H   0  0  0  0  0  0  0  0  0  0  0  0
   -3.7840   -0.1155   -1.0750 H   0  0  0  0  0  0  0  0  0  0  0  0
   -3.8723   -0.1893   -2.8252 H   0  0  0  0  0  0  0  0  0  0  0  0
    0.3656   -0.9055   -2.8934 H   0  0  0  0  0  0  0  0  0  0  0  0
    2.4764   -0.7261   -1.6796 H   0  0  0  0  0  0  0  0  0  0  0  0
    2.6846    0.1119    2.0202 H   0  0  0  0  0  0  0  0  0  0  0  0
    3.4438   -0.9874    0.8324 H   0  0  0  0  0  0  0  0  0  0  0  0
    3.8919    1.0135   -0.6965 H   0  0  0  0  0  0  0  0  0  0  0  0
    3.0639    2.0681    0.4790 H   0  0  0  0  0  0  0  0  0  0  0  0
    5.2936   -0.7375   -0.5413 H   0  0  0  0  0  0  0  0  0  0  0  0
    6.5355   -1.3246    0.6101 H   0  0  0  0  0  0  0  0  0  0  0  0
    6.9720    0.3917   -1.9208 H   0  0  0  0  0  0  0  0  0  0  0  0
    7.4214   -1.3409   -1.6882 H   0  0  0  0  0  0  0  0  0  0  0  0
    9.4616   -0.1863   -1.1448 H   0  0  0  0  0  0  0  0  0  0  0  0
    7.5671    0.7870    2.3259 H   0  0  0  0  0  0  0  0  0  0  0  0
    7.3989    2.3591    1.4542 H   0  0  0  0  0  0  0  0  0  0  0  0
    0.3528    0.2255    1.9239 H   0  0  0  0  0  0  0  0  0  0  0  0
   -1.8915    0.1428    2.1160 H   0  0  0  0  0  0  0  0  0  0  0  0
   -2.6490    0.9188    0.7355 H   0  0  0  0  0  0  0  0  0  0  0  0
  1  2  1  0
  2  3  1  0
  2  4  1  0
  4  5  1  0
  5  6  1  0
  6  7  2  0
  6  8  1  0
  8  9  1  0
  9 10  1  0
 10 11  1  0
 11 12  1  0
 12 13  1  0
 13 14  1  0
 14 15  1  0
 15 16  2  0
 16 17  1  0
 17 18  2  0
 18 19  1  0
 19 20  1  0
 20 21  1  0
 21 22  2  0
 21 23  1  0
 23 24  1  0
 24 25  1  0
 25 26  1  0
 26 27  1  0
 27 28  2  0
 27 29  1  0
 18 30  1  0
 30 31  2  0
 31 32  1  0
 32  4  1  0
 31 15  1  0
 29 23  1  0
  1 33  1  0
  1 34  1  0
  1 35  1  0
  2 36  1  0
  3 37  1  0
  3 38  1  0
  3 39  1  0
  5 40  1  0
  5 41  1  0
  8 42  1  0
  9 43  1  0
  9 44  1  0
 10 45  1  0
 10 46  1  0
 11 47  1  0
 11 48  1  0
 12 49  1  0
 12 50  1  0
 13 51  1  0
 13 52  1  0
 16 53  1  0
 17 54  1  0
 19 55  1  0
 19 56  1  0
 20 57  1  0
 20 58  1  0
 24 59  1  0
 24 60  1  0
 25 61  1  0
 25 62  1  0
 26 63  1  0
 29 64  1  0
 29 65  1  0
 30 66  1  0
 32 67  1  0
 32 68  1  0
M  END
$$$$
