
     RDKit          3D

 83 87  0  0  0  0  0  0  0  0999 V2000
   10.2103    2.3085   -1.1218 C   0  0  0  0  0  0  0  0  0  0  0  0
    8.8578    1.6831   -0.9883 C   0  0  0  0  0  0  0  0  0  0  0  0
    8.2236    1.6185    0.2496 C   0  0  0  0  0  0  0  0  0  0  0  0
    6.9677    1.0031    0.3426 C   0  0  0  0  0  0  0  0  0  0  0  0
    6.2901    0.9589    1.6913 C   0  0  0  0  0  0  0  0  0  0  0  0
    6.3972    0.4361   -0.7789 N   0  0  0  0  0  0  0  0  0  0  0  0
    5.0710   -0.2172   -0.7143 C   0  0  0  0  0  0  0  0  0  0  0  0
    3.9557    0.7854   -0.8843 C   0  0  0  0  0  0  0  0  0  0  0  0
    4.2171    1.9122   -1.3873 O   0  0  0  0  0  0  0  0  0  0  0  0
    2.5953    0.4680   -0.5136 N   0  0  0  0  0  0  0  0  0  0  0  0
    1.6124    1.5589   -0.4529 C   0  0  0  0  0  0  0  0  0  0  0  0
    0.5152    1.2443    0.5613 C   0  0  0  0  0  0  0  0  0  0  0  0
   -0.1353   -0.1170    0.2623 C   0  0  0  0  0  0  0  0  0  0  0  0
   -1.2132   -0.3592    1.2298 N   0  0  0  0  0  0  0  0  0  0  0  0
   -2.4526    0.3757    1.2947 C   0  0  0  0  0  0  0  0  0  0  0  0
   -2.9030    0.6719    2.4340 O   0  0  0  0  0  0  0  0  0  0  0  0
   -3.3063    0.7378    0.0872 C   0  0  0  0  0  0  0  0  0  0  0  0
   -3.1814    2.2262   -0.3004 C   0  0  0  0  0  0  0  0  0  0  0  0
   -3.6895    3.1456    0.7824 C   0  0  0  0  0  0  0  0  0  0  0  0
   -2.7921    3.8230    1.6257 C   0  0  0  0  0  0  0  0  0  0  0  0
   -3.2737    4.6549    2.6417 C   0  0  0  0  0  0  0  0  0  0  0  0
   -4.6506    4.8143    2.8249 C   0  0  0  0  0  0  0  0  0  0  0  0
   -5.5494    4.1396    1.9939 C   0  0  0  0  0  0  0  0  0  0  0  0
   -5.0726    3.3074    0.9765 C   0  0  0  0  0  0  0  0  0  0  0  0
   -3.0239   -0.1099   -1.0757 N   0  0  0  0  0  0  0  0  0  0  0  0
   -4.0028   -1.0178   -1.5962 C   0  0  0  0  0  0  0  0  0  0  0  0
   -4.6511   -0.6697   -2.6206 O   0  0  0  0  0  0  0  0  0  0  0  0
   -4.1461   -2.4366   -1.0464 C   0  0  0  0  0  0  0  0  0  0  0  0
   -2.9346   -3.2866   -1.5521 C   0  0  0  0  0  0  0  0  0  0  0  0
   -1.5630   -2.7374   -1.2261 C   0  0  0  0  0  0  0  0  0  0  0  0
   -0.9656   -2.9733   -0.0489 C   0  0  0  0  0  0  0  0  0  0  0  0
    0.5013   -2.7056    0.1695 C   0  0  0  0  0  0  0  0  0  0  0  0
    0.9619   -1.2195    0.3426 C   0  0  0  0  0  0  0  0  0  0  0  0
    2.0895   -0.9076   -0.6672 C   0  0  0  0  0  0  0  0  0  0  0  0
   -5.4688   -3.0624   -1.5851 C   0  0  0  0  0  0  0  0  0  0  0  0
   -5.8412   -4.3621   -0.8529 C   0  0  0  0  0  0  0  0  0  0  0  0
   -5.9600   -4.1434    0.5384 O   0  0  0  0  0  0  0  0  0  0  0  0
   -4.7070   -3.7639    1.0719 C   0  0  0  0  0  0  0  0  0  0  0  0
   -4.2556   -2.4108    0.5022 C   0  0  0  0  0  0  0  0  0  0  0  0
    7.0508    0.5242   -1.9859 C   0  0  0  0  0  0  0  0  0  0  0  0
    6.5383    0.0471   -3.0346 O   0  0  0  0  0  0  0  0  0  0  0  0
    8.2610    1.1316   -2.0718 N   0  0  0  0  0  0  0  0  0  0  0  0
   10.2623    3.2462   -0.5283 H   0  0  0  0  0  0  0  0  0  0  0  0
   10.9834    1.6005   -0.7555 H   0  0  0  0  0  0  0  0  0  0  0  0
   10.4189    2.5538   -2.1853 H   0  0  0  0  0  0  0  0  0  0  0  0
    8.6989    2.0483    1.1244 H   0  0  0  0  0  0  0  0  0  0  0  0
    6.2875   -0.0840    2.0737 H   0  0  0  0  0  0  0  0  0  0  0  0
    6.8145    1.5965    2.4361 H   0  0  0  0  0  0  0  0  0  0  0  0
    5.2469    1.3314    1.6104 H   0  0  0  0  0  0  0  0  0  0  0  0
    4.9488   -0.7580    0.2467 H   0  0  0  0  0  0  0  0  0  0  0  0
    4.9769   -0.9968   -1.5011 H   0  0  0  0  0  0  0  0  0  0  0  0
    1.1633    1.7080   -1.4595 H   0  0  0  0  0  0  0  0  0  0  0  0
    2.1007    2.5096   -0.1443 H   0  0  0  0  0  0  0  0  0  0  0  0
   -0.2388    2.0524    0.5303 H   0  0  0  0  0  0  0  0  0  0  0  0
    0.9501    1.2397    1.5854 H   0  0  0  0  0  0  0  0  0  0  0  0
   -0.5322   -0.1066   -0.7656 H   0  0  0  0  0  0  0  0  0  0  0  0
   -0.9560   -0.8888    2.0953 H   0  0  0  0  0  0  0  0  0  0  0  0
   -4.3686    0.5780    0.3801 H   0  0  0  0  0  0  0  0  0  0  0  0
   -2.1346    2.4721   -0.5705 H   0  0  0  0  0  0  0  0  0  0  0  0
   -3.7839    2.4069   -1.2182 H   0  0  0  0  0  0  0  0  0  0  0  0
   -1.7233    3.7084    1.4982 H   0  0  0  0  0  0  0  0  0  0  0  0
   -2.5792    5.1753    3.2886 H   0  0  0  0  0  0  0  0  0  0  0  0
   -5.0204    5.4590    3.6122 H   0  0  0  0  0  0  0  0  0  0  0  0
   -6.6159    4.2601    2.1386 H   0  0  0  0  0  0  0  0  0  0  0  0
   -5.7796    2.7879    0.3406 H   0  0  0  0  0  0  0  0  0  0  0  0
   -2.3827    0.2832   -1.8013 H   0  0  0  0  0  0  0  0  0  0  0  0
   -2.9956   -3.3534   -2.6608 H   0  0  0  0  0  0  0  0  0  0  0  0
   -2.9907   -4.3320   -1.1878 H   0  0  0  0  0  0  0  0  0  0  0  0
   -0.9977   -2.2619   -2.0233 H   0  0  0  0  0  0  0  0  0  0  0  0
   -1.4961   -3.5276    0.7201 H   0  0  0  0  0  0  0  0  0  0  0  0
    0.8007   -3.2623    1.0834 H   0  0  0  0  0  0  0  0  0  0  0  0
    1.0533   -3.2029   -0.6575 H   0  0  0  0  0  0  0  0  0  0  0  0
    1.4208   -1.1476    1.3559 H   0  0  0  0  0  0  0  0  0  0  0  0
    1.7100   -1.0354   -1.7049 H   0  0  0  0  0  0  0  0  0  0  0  0
    2.9018   -1.6469   -0.5121 H   0  0  0  0  0  0  0  0  0  0  0  0
   -5.3942   -3.2671   -2.6759 H   0  0  0  0  0  0  0  0  0  0  0  0
   -6.3074   -2.3438   -1.4390 H   0  0  0  0  0  0  0  0  0  0  0  0
   -5.1196   -5.1798   -1.0727 H   0  0  0  0  0  0  0  0  0  0  0  0
   -6.8260   -4.7060   -1.2343 H   0  0  0  0  0  0  0  0  0  0  0  0
   -3.9412   -4.5543    0.9076 H   0  0  0  0  0  0  0  0  0  0  0  0
   -4.8181   -3.6590    2.1721 H   0  0  0  0  0  0  0  0  0  0  0  0
   -5.0134   -1.6549    0.8053 H   0  0  0  0  0  0  0  0  0  0  0  0
   -3.3008   -2.1242    0.9756 H   0  0  0  0  0  0  0  0  0  0  0  0
  1  2  1  0
  2  3  1  0
  3  4  2  0
  4  5  1  0
  4  6  1  0
  6  7  1  0
  7  8  1  0
  8  9  2  0
  8 10  1  0
 10 11  1  0
 11 12  1  0
 12 13  1  0
 13 14  1  0
 14 15  1  0
 15 16  2  0
 15 17  1  0
 17 18  1  0
 18 19  1  0
 19 20  2  0
 20 21  1  0
 21 22  2  0
 22 23  1  0
 23 24  2  0
 17 25  1  0
 25 26  1  0
 26 27  2  0
 26 28  1  0
 28 29  1  0
 29 30  1  0
 30 31  2  0
 31 32  1  0
 32 33  1  0
 33 34  1  0
 28 35  1  0
 35 36  1  0
 36 37  1  0
 37 38  1  0
 38 39  1  0
  6 40  1  0
 40 41  2  0
 40 42  1  0
 42  2  2  0
 34 10  1  0
 33 13  1  0
 24 19  1  0
 39 28  1  0
  1 43  1  0
  1 44  1  0
  1 45  1  0
  3 46  1  0
  5 47  1  0
  5 48  1  0
  5 49  1  0
  7 50  1  0
  7 51  1  0
 11 52  1  0
 11 53  1  0
 12 54  1  0
 12 55  1  0
 13 56  1  0
 14 57  1  0
 17 58  1  0
 18 59  1  0
 18 60  1  0
 20 61  1  0
 21 62  1  0
 22 63  1  0
 23 64  1  0
 24 65  1  0
 25 66  1  0
 29 67  1  0
 29 68  1  0
 30 69  1  0
 31 70  1  0
 32 71  1  0
 32 72  1  0
 33 73  1  0
 34 74  1  0
 34 75  1  0
 35 76  1  0
 35 77  1  0
 36 78  1  0
 36 79  1  0
 38 80  1  0
 38 81  1  0
 39 82  1  0
 39 83  1  0
M  END
$$$$
