
     RDKit          3D

 59 62  0  0  0  0  0  0  0  0999 V2000
    7.2663    2.4162    1.8993 C   0  0  0  0  0  0  0  0  0  0  0  0
    5.8846    2.6660    2.1357 O   0  0  0  0  0  0  0  0  0  0  0  0
    4.8482    2.2483    1.2876 C   0  0  0  0  0  0  0  0  0  0  0  0
    3.5318    2.5620    1.6419 C   0  0  0  0  0  0  0  0  0  0  0  0
    2.4645    2.1661    0.8317 C   0  0  0  0  0  0  0  0  0  0  0  0
    2.6964    1.4335   -0.3447 C   0  0  0  0  0  0  0  0  0  0  0  0
    1.5339    1.0134   -1.2177 C   0  0  0  0  0  0  0  0  0  0  0  0
    0.9952   -0.4235   -0.9687 C   0  0  1  0  0  0  0  0  0  0  0  0
    1.9841   -1.5311   -1.4398 C   0  0  0  0  0  0  0  0  0  0  0  0
    1.3351   -2.6129   -2.3244 C   0  0  0  0  0  0  0  0  0  0  0  0
    0.2170   -3.2650   -1.6501 N   0  0  0  0  0  0  0  0  0  0  0  0
   -1.0831   -2.9649   -1.7989 C   0  0  0  0  0  0  0  0  0  0  0  0
   -1.7501   -3.6814   -0.8332 C   0  0  0  0  0  0  0  0  0  0  0  0
   -0.8507   -4.4122   -0.1429 N   0  0  0  0  0  0  0  0  0  0  0  0
    0.3386   -4.1380   -0.6621 N   0  0  0  0  0  0  0  0  0  0  0  0
   -3.1817   -3.4983   -0.4431 C   0  0  0  0  0  0  0  0  0  0  0  0
   -3.4698   -2.1235   -0.2590 O   0  0  0  0  0  0  0  0  0  0  0  0
   -3.1024   -1.6585    1.0328 C   0  0  0  0  0  0  0  0  0  0  0  0
   -1.9472   -0.6271    0.9596 C   0  0  2  0  0  0  0  0  0  0  0  0
   -2.1908    0.4507   -0.1225 C   0  0  0  0  0  0  0  0  0  0  0  0
   -3.4623    1.2246    0.1211 C   0  0  0  0  0  0  0  0  0  0  0  0
   -3.5129    2.1981    1.1332 C   0  0  0  0  0  0  0  0  0  0  0  0
   -4.6966    2.9016    1.3758 C   0  0  0  0  0  0  0  0  0  0  0  0
   -5.8375    2.6370    0.6134 C   0  0  0  0  0  0  0  0  0  0  0  0
   -5.7966    1.6681   -0.3929 C   0  0  0  0  0  0  0  0  0  0  0  0
   -4.6149    0.9625   -0.6393 C   0  0  0  0  0  0  0  0  0  0  0  0
   -0.6693   -1.3264    0.7640 N   0  0  0  0  0  0  0  0  0  0  0  0
    0.5649   -0.6608    0.4688 C   0  0  0  0  0  0  0  0  0  0  0  0
    1.3771   -0.4577    1.4101 O   0  0  0  0  0  0  0  0  0  0  0  0
    4.0190    1.1359   -0.7118 C   0  0  0  0  0  0  0  0  0  0  0  0
    5.0865    1.5333    0.0990 C   0  0  0  0  0  0  0  0  0  0  0  0
    7.4562    1.3226    1.8644 H   0  0  0  0  0  0  0  0  0  0  0  0
    7.8607    2.8537    2.7274 H   0  0  0  0  0  0  0  0  0  0  0  0
    7.5823    2.8900    0.9460 H   0  0  0  0  0  0  0  0  0  0  0  0
    3.3349    3.1167    2.5506 H   0  0  0  0  0  0  0  0  0  0  0  0
    1.4542    2.4214    1.1275 H   0  0  0  0  0  0  0  0  0  0  0  0
    0.7019    1.7373   -1.0831 H   0  0  0  0  0  0  0  0  0  0  0  0
    1.8286    1.1088   -2.2860 H   0  0  0  0  0  0  0  0  0  0  0  0
    0.0868   -0.4859   -1.6022 H   0  0  0  0  0  0  0  0  0  0  0  0
    2.4800   -2.0174   -0.5707 H   0  0  0  0  0  0  0  0  0  0  0  0
    2.7956   -1.0889   -2.0513 H   0  0  0  0  0  0  0  0  0  0  0  0
    2.0992   -3.3775   -2.5821 H   0  0  0  0  0  0  0  0  0  0  0  0
    0.9875   -2.1550   -3.2768 H   0  0  0  0  0  0  0  0  0  0  0  0
   -1.4896   -2.2214   -2.4727 H   0  0  0  0  0  0  0  0  0  0  0  0
   -3.8089   -3.8690   -1.2802 H   0  0  0  0  0  0  0  0  0  0  0  0
   -3.4453   -4.1206    0.4421 H   0  0  0  0  0  0  0  0  0  0  0  0
   -2.8361   -2.4646    1.7557 H   0  0  0  0  0  0  0  0  0  0  0  0
   -3.9909   -1.1580    1.4732 H   0  0  0  0  0  0  0  0  0  0  0  0
   -1.8955   -0.1171    1.9473 H   0  0  0  0  0  0  0  0  0  0  0  0
   -1.3515    1.1752   -0.1135 H   0  0  0  0  0  0  0  0  0  0  0  0
   -2.2084   -0.0167   -1.1306 H   0  0  0  0  0  0  0  0  0  0  0  0
   -2.6365    2.4098    1.7334 H   0  0  0  0  0  0  0  0  0  0  0  0
   -4.7299    3.6508    2.1562 H   0  0  0  0  0  0  0  0  0  0  0  0
   -6.7533    3.1817    0.8030 H   0  0  0  0  0  0  0  0  0  0  0  0
   -6.6815    1.4625   -0.9813 H   0  0  0  0  0  0  0  0  0  0  0  0
   -4.5998    0.2120   -1.4197 H   0  0  0  0  0  0  0  0  0  0  0  0
   -0.5428   -2.1854    1.3454 H   0  0  0  0  0  0  0  0  0  0  0  0
    4.2323    0.6135   -1.6340 H   0  0  0  0  0  0  0  0  0  0  0  0
    6.0924    1.2855   -0.2110 H   0  0  0  0  0  0  0  0  0  0  0  0
  1  2  1  0
  2  3  1  0
  3  4  2  0
  4  5  1  0
  5  6  2  0
  6  7  1  0
  7  8  1  0
  8  9  1  0
  9 10  1  0
 10 11  1  0
 11 12  1  0
 12 13  2  0
 13 14  1  0
 14 15  2  0
 13 16  1  0
 16 17  1  0
 17 18  1  0
 18 19  1  0
 19 20  1  0
 20 21  1  0
 21 22  2  0
 22 23  1  0
 23 24  2  0
 24 25  1  0
 25 26  2  0
 19 27  1  0
 27 28  1  0
 28 29  2  0
  6 30  1  0
 30 31  2  0
 31  3  1  0
 28  8  1  0
 15 11  1  0
 26 21  1  0
  1 32  1  0
  1 33  1  0
  1 34  1  0
  4 35  1  0
  5 36  1  0
  7 37  1  0
  7 38  1  0
  8 39  1  6
  9 40  1  0
  9 41  1  0
 10 42  1  0
 10 43  1  0
 12 44  1  0
 16 45  1  0
 16 46  1  0
 18 47  1  0
 18 48  1  0
 19 49  1  1
 20 50  1  0
 20 51  1  0
 22 52  1  0
 23 53  1  0
 24 54  1  0
 25 55  1  0
 26 56  1  0
 27 57  1  0
 30 58  1  0
 31 59  1  0
M  END
$$$$
