
     RDKit          3D

 83 86  0  0  0  0  0  0  0  0999 V2000
   -2.5370    6.1687   -0.1680 C   0  0  0  0  0  0  0  0  0  0  0  0
   -3.8624    5.4360    0.0403 C   0  0  0  0  0  0  0  0  0  0  0  0
   -3.6677    3.9484    0.3675 C   0  0  0  0  0  0  0  0  0  0  0  0
   -3.2480    3.1249   -0.8569 C   0  0  0  0  0  0  0  0  0  0  0  0
   -3.1833    1.6995   -0.5192 N   0  0  0  0  0  0  0  0  0  0  0  0
   -4.3608    0.8503   -0.8098 C   0  0  0  0  0  0  0  0  0  0  0  0
   -4.1704   -0.5530   -0.2627 C   0  0  0  0  0  0  0  0  0  0  0  0
   -5.2604   -1.4251   -0.5262 O   0  0  0  0  0  0  0  0  0  0  0  0
   -5.4183   -2.6394    0.1672 C   0  0  0  0  0  0  0  0  0  0  0  0
   -6.6919   -2.9160    0.6809 C   0  0  0  0  0  0  0  0  0  0  0  0
   -6.9171   -4.0501    1.4610 C   0  0  0  0  0  0  0  0  0  0  0  0
   -5.8727   -4.9312    1.7313 C   0  0  0  0  0  0  0  0  0  0  0  0
   -4.6051   -4.6982    1.1979 C   0  0  0  0  0  0  0  0  0  0  0  0
   -4.3585   -3.5731    0.3907 C   0  0  0  0  0  0  0  0  0  0  0  0
   -3.0048   -3.4727   -0.2856 C   0  0  0  0  0  0  0  0  0  0  0  0
   -1.9573   -2.7099    0.5651 C   0  0  0  0  0  0  0  0  0  0  0  0
   -0.8453   -2.0823   -0.3113 C   0  0  0  0  0  0  0  0  0  0  0  0
   -0.3181   -0.7083    0.2016 C   0  0  0  0  0  0  0  0  0  0  0  0
   -0.8344    0.6004   -0.5252 C   0  0  0  0  0  0  0  0  0  0  0  0
    0.3166    1.6588   -0.4705 C   0  0  0  0  0  0  0  0  0  0  0  0
    1.3178    1.3362   -1.4949 N   0  0  0  0  0  0  0  0  0  0  0  0
    2.7412    1.3251   -1.2476 C   0  0  0  0  0  0  0  0  0  0  0  0
    3.5319    1.3574   -2.2284 O   0  0  0  0  0  0  0  0  0  0  0  0
    3.3151    1.3029    0.1516 C   0  0  0  0  0  0  0  0  0  0  0  0
    4.7211    0.6855    0.2089 C   0  0  0  0  0  0  0  0  0  0  0  0
    4.6975   -0.7177   -0.2652 N   0  0  0  0  0  0  0  0  0  0  0  0
    4.3133   -1.6585    0.8015 C   0  0  0  0  0  0  0  0  0  0  0  0
    5.9579   -1.1186   -0.9283 C   0  0  0  0  0  0  0  0  0  0  0  0
    7.1611   -1.0561   -0.0175 C   0  0  0  0  0  0  0  0  0  0  0  0
    7.5876   -2.1894    0.6934 C   0  0  0  0  0  0  0  0  0  0  0  0
    8.7100   -2.0971    1.5187 C   0  0  0  0  0  0  0  0  0  0  0  0
    9.3954   -0.8847    1.6283 C   0  0  0  0  0  0  0  0  0  0  0  0
    8.9422    0.2226    0.9091 C   0  0  0  0  0  0  0  0  0  0  0  0
    7.8482    0.1137    0.1091 N   0  0  0  0  0  0  0  0  0  0  0  0
    0.8268    1.0654   -2.8495 C   0  0  0  0  0  0  0  0  0  0  0  0
   -0.7043    1.0790   -2.8773 C   0  0  0  0  0  0  0  0  0  0  0  0
   -1.2377    0.2547   -1.8578 O   0  0  0  0  0  0  0  0  0  0  0  0
   -2.0308    1.2022    0.2038 C   0  0  0  0  0  0  0  0  0  0  0  0
   -1.9942    1.3370    1.4578 O   0  0  0  0  0  0  0  0  0  0  0  0
   -2.0127    5.7912   -1.0726 H   0  0  0  0  0  0  0  0  0  0  0  0
   -2.7346    7.2520   -0.3102 H   0  0  0  0  0  0  0  0  0  0  0  0
   -1.8819    6.0433    0.7228 H   0  0  0  0  0  0  0  0  0  0  0  0
   -4.3939    5.9170    0.8921 H   0  0  0  0  0  0  0  0  0  0  0  0
   -4.5028    5.5524   -0.8627 H   0  0  0  0  0  0  0  0  0  0  0  0
   -4.6320    3.5490    0.7497 H   0  0  0  0  0  0  0  0  0  0  0  0
   -2.9155    3.8370    1.1768 H   0  0  0  0  0  0  0  0  0  0  0  0
   -2.2604    3.4641   -1.2281 H   0  0  0  0  0  0  0  0  0  0  0  0
   -3.9834    3.2843   -1.6762 H   0  0  0  0  0  0  0  0  0  0  0  0
   -5.2684    1.2966   -0.3487 H   0  0  0  0  0  0  0  0  0  0  0  0
   -4.5126    0.7967   -1.9106 H   0  0  0  0  0  0  0  0  0  0  0  0
   -4.0358   -0.4744    0.8372 H   0  0  0  0  0  0  0  0  0  0  0  0
   -3.2792   -0.9367   -0.7687 H   0  0  0  0  0  0  0  0  0  0  0  0
   -7.5072   -2.2265    0.5006 H   0  0  0  0  0  0  0  0  0  0  0  0
   -7.9017   -4.2395    1.8666 H   0  0  0  0  0  0  0  0  0  0  0  0
   -6.0496   -5.8066    2.3416 H   0  0  0  0  0  0  0  0  0  0  0  0
   -3.8165   -5.4147    1.3924 H   0  0  0  0  0  0  0  0  0  0  0  0
   -2.6098   -4.4918   -0.4898 H   0  0  0  0  0  0  0  0  0  0  0  0
   -3.1444   -3.0338   -1.2941 H   0  0  0  0  0  0  0  0  0  0  0  0
   -2.4372   -1.9399    1.1967 H   0  0  0  0  0  0  0  0  0  0  0  0
   -1.4964   -3.4237    1.2824 H   0  0  0  0  0  0  0  0  0  0  0  0
   -1.1458   -2.0237   -1.3756 H   0  0  0  0  0  0  0  0  0  0  0  0
    0.0048   -2.8012   -0.3139 H   0  0  0  0  0  0  0  0  0  0  0  0
   -0.4486   -0.6347    1.3034 H   0  0  0  0  0  0  0  0  0  0  0  0
    0.7841   -0.7634    0.0649 H   0  0  0  0  0  0  0  0  0  0  0  0
   -0.0749    2.6781   -0.6822 H   0  0  0  0  0  0  0  0  0  0  0  0
    0.7441    1.7153    0.5492 H   0  0  0  0  0  0  0  0  0  0  0  0
    3.3604    2.3463    0.5281 H   0  0  0  0  0  0  0  0  0  0  0  0
    2.6616    0.7235    0.8332 H   0  0  0  0  0  0  0  0  0  0  0  0
    5.3944    1.3120   -0.4193 H   0  0  0  0  0  0  0  0  0  0  0  0
    5.1086    0.7497    1.2508 H   0  0  0  0  0  0  0  0  0  0  0  0
    3.2585   -1.4868    1.1034 H   0  0  0  0  0  0  0  0  0  0  0  0
    4.3706   -2.7072    0.4370 H   0  0  0  0  0  0  0  0  0  0  0  0
    4.9673   -1.5522    1.6946 H   0  0  0  0  0  0  0  0  0  0  0  0
    6.1341   -0.4632   -1.8088 H   0  0  0  0  0  0  0  0  0  0  0  0
    5.8509   -2.1456   -1.3432 H   0  0  0  0  0  0  0  0  0  0  0  0
    7.0632   -3.1323    0.6026 H   0  0  0  0  0  0  0  0  0  0  0  0
    9.0543   -2.9646    2.0641 H   0  0  0  0  0  0  0  0  0  0  0  0
   10.2700   -0.8062    2.2613 H   0  0  0  0  0  0  0  0  0  0  0  0
    9.4593    1.1692    0.9836 H   0  0  0  0  0  0  0  0  0  0  0  0
    1.1829    0.0638   -3.1746 H   0  0  0  0  0  0  0  0  0  0  0  0
    1.2147    1.8329   -3.5541 H   0  0  0  0  0  0  0  0  0  0  0  0
   -1.0927    2.1154   -2.7867 H   0  0  0  0  0  0  0  0  0  0  0  0
   -1.0489    0.6914   -3.8588 H   0  0  0  0  0  0  0  0  0  0  0  0
  1  2  1  0
  2  3  1  0
  3  4  1  0
  4  5  1  0
  5  6  1  0
  6  7  1  0
  7  8  1  0
  8  9  1  0
  9 10  2  0
 10 11  1  0
 11 12  2  0
 12 13  1  0
 13 14  2  0
 14 15  1  0
 15 16  1  0
 16 17  1  0
 17 18  1  0
 18 19  1  0
 19 20  1  0
 20 21  1  0
 21 22  1  0
 22 23  2  0
 22 24  1  0
 24 25  1  0
 25 26  1  0
 26 27  1  0
 26 28  1  0
 28 29  1  0
 29 30  2  0
 30 31  1  0
 31 32  2  0
 32 33  1  0
 33 34  2  0
 21 35  1  0
 35 36  1  0
 36 37  1  0
 19 38  1  0
 38 39  2  0
 38  5  1  0
 14  9  1  0
 37 19  1  0
 34 29  1  0
  1 40  1  0
  1 41  1  0
  1 42  1  0
  2 43  1  0
  2 44  1  0
  3 45  1  0
  3 46  1  0
  4 47  1  0
  4 48  1  0
  6 49  1  0
  6 50  1  0
  7 51  1  0
  7 52  1  0
 10 53  1  0
 11 54  1  0
 12 55  1  0
 13 56  1  0
 15 57  1  0
 15 58  1  0
 16 59  1  0
 16 60  1  0
 17 61  1  0
 17 62  1  0
 18 63  1  0
 18 64  1  0
 20 65  1  0
 20 66  1  0
 24 67  1  0
 24 68  1  0
 25 69  1  0
 25 70  1  0
 27 71  1  0
 27 72  1  0
 27 73  1  0
 28 74  1  0
 28 75  1  0
 30 76  1  0
 31 77  1  0
 32 78  1  0
 33 79  1  0
 35 80  1  0
 35 81  1  0
 36 82  1  0
 36 83  1  0
M  END
$$$$
