
     RDKit          3D

121123  0  0  0  0  0  0  0  0999 V2000
   -6.1361    1.5471    0.0167 C   0  0  0  0  0  0  0  0  0  0  0  0
   -5.5661    2.1123    1.3168 C   0  0  0  0  0  0  0  0  0  0  0  0
   -4.2569    2.9295    1.1854 C   0  0  1  0  0  0  0  0  0  0  0  0
   -3.0605    2.1722    0.8238 O   0  0  0  0  0  0  0  0  0  0  0  0
   -2.9648    0.8672    0.2914 C   0  0  0  0  0  0  0  0  0  0  0  0
   -3.6906   -0.0562    0.7975 O   0  0  0  0  0  0  0  0  0  0  0  0
   -2.1067    0.6352   -0.9186 C   0  0  2  0  0  0  0  0  0  0  0  0
   -3.0106    0.2948   -2.1521 C   0  0  0  0  0  0  0  0  0  0  0  0
   -0.9745   -0.4354   -0.6419 C   0  0  1  0  0  0  0  0  0  0  0  0
   -1.3680   -1.6702   -1.1952 O   0  0  0  0  0  0  0  0  0  0  0  0
   -1.2309   -2.7482   -0.3389 C   0  0  1  0  0  0  0  0  0  0  0  0
   -2.5037   -3.5989   -0.5519 C   0  0  0  0  0  0  0  0  0  0  0  0
   -2.5213   -4.8317    0.4210 C   0  0  1  0  0  0  0  0  0  0  0  0
   -3.2708   -4.3813    1.6916 C   0  0  0  0  0  0  0  0  0  0  0  0
   -3.2023   -5.8550   -0.3402 O   0  0  0  0  0  0  0  0  0  0  0  0
   -3.5139   -7.0369    0.3973 C   0  0  0  0  0  0  0  0  0  0  0  0
   -1.0355   -5.2385    0.7572 C   0  0  1  0  0  0  0  0  0  0  0  0
   -0.8806   -6.5756    1.1546 O   0  0  0  0  0  0  0  0  0  0  0  0
   -0.1116   -4.8426   -0.4474 C   0  0  2  0  0  0  0  0  0  0  0  0
    1.3081   -5.3560   -0.2351 C   0  0  0  0  0  0  0  0  0  0  0  0
   -0.0287   -3.4365   -0.6776 O   0  0  0  0  0  0  0  0  0  0  0  0
    0.4212   -0.0942   -1.2334 C   0  0  0  0  0  0  0  0  0  0  0  0
    0.4395    0.4438   -2.6706 C   0  0  0  0  0  0  0  0  0  0  0  0
    1.4245    0.5219   -0.2443 C   0  0  1  0  0  0  0  0  0  0  0  0
    2.7426    0.2945   -0.7277 O   0  0  0  0  0  0  0  0  0  0  0  0
    3.5821   -0.3542    0.2608 C   0  0  2  0  0  0  0  0  0  0  0  0
    4.6323    0.5618    0.6053 O   0  0  0  0  0  0  0  0  0  0  0  0
    5.7733    0.4597   -0.2379 C   0  0  2  0  0  0  0  0  0  0  0  0
    5.4758    0.9610   -1.6513 C   0  0  0  0  0  0  0  0  0  0  0  0
    6.3895   -0.9568   -0.2142 C   0  0  0  0  0  0  0  0  0  0  0  0
    5.4273   -1.9768    0.4136 C   0  0  2  0  0  0  0  0  0  0  0  0
    5.9041   -3.3764    0.3378 N   0  0  0  0  0  0  0  0  0  0  0  0
    6.0956   -3.8859   -1.0329 C   0  0  0  0  0  0  0  0  0  0  0  0
    7.0715   -3.5956    1.1858 C   0  0  0  0  0  0  0  0  0  0  0  0
    4.0359   -1.7533   -0.2076 C   0  0  1  0  0  0  0  0  0  0  0  0
    3.0963   -2.7088    0.2388 O   0  0  0  0  0  0  0  0  0  0  0  0
    1.2108    1.9997    0.2931 C   0  0  2  0  0  0  0  0  0  0  0  0
    2.5176    2.4569    1.0607 C   0  0  0  0  0  0  0  0  0  0  0  0
    0.0402    1.9787    1.0916 O   0  0  0  0  0  0  0  0  0  0  0  0
    0.2399    1.5935    2.4547 C   0  0  0  0  0  0  0  0  0  0  0  0
    1.0543    3.0315   -0.8371 C   0  0  0  0  0  0  0  0  0  0  0  0
    0.6539    4.4577   -0.2714 C   0  0  1  0  0  0  0  0  0  0  0  0
    1.7159    5.5223   -0.5232 C   0  0  0  0  0  0  0  0  0  0  0  0
   -0.6968    4.9135   -0.7801 C   0  0  0  0  0  0  0  0  0  0  0  0
   -0.8596    4.9574   -2.0021 O   0  0  0  0  0  0  0  0  0  0  0  0
   -1.8750    5.2500    0.1189 C   0  0  2  0  0  0  0  0  0  0  0  0
   -1.6387    4.9883    1.6328 C   0  0  0  0  0  0  0  0  0  0  0  0
   -3.1949    4.6231   -0.5110 C   0  0  1  0  0  0  0  0  0  0  0  0
   -2.8956    3.4903   -1.2749 O   0  0  0  0  0  0  0  0  0  0  0  0
   -4.3909    4.3556    0.4354 C   0  0  1  0  0  0  0  0  0  0  0  0
   -5.6819    4.4832   -0.4578 C   0  0  0  0  0  0  0  0  0  0  0  0
   -4.4972    5.3638    1.4439 O   0  0  0  0  0  0  0  0  0  0  0  0
   -7.1694    1.9220   -0.1563 H   0  0  0  0  0  0  0  0  0  0  0  0
   -5.5305    1.7925   -0.8812 H   0  0  0  0  0  0  0  0  0  0  0  0
   -6.1809    0.4265    0.1067 H   0  0  0  0  0  0  0  0  0  0  0  0
   -6.3306    2.8021    1.7776 H   0  0  0  0  0  0  0  0  0  0  0  0
   -5.3972    1.2975    2.0530 H   0  0  0  0  0  0  0  0  0  0  0  0
   -3.9953    3.2098    2.2653 H   0  0  0  0  0  0  0  0  0  0  0  0
   -1.5997    1.6079   -1.1018 H   0  0  0  0  0  0  0  0  0  0  0  0
   -3.9423    0.8685   -2.1184 H   0  0  0  0  0  0  0  0  0  0  0  0
   -2.5798    0.6152   -3.1205 H   0  0  0  0  0  0  0  0  0  0  0  0
   -3.2911   -0.7847   -2.1495 H   0  0  0  0  0  0  0  0  0  0  0  0
   -0.8684   -0.4019    0.4925 H   0  0  0  0  0  0  0  0  0  0  0  0
   -1.2020   -2.4882    0.7426 H   0  0  0  0  0  0  0  0  0  0  0  0
   -3.4116   -2.9325   -0.4393 H   0  0  0  0  0  0  0  0  0  0  0  0
   -2.5140   -3.9400   -1.6105 H   0  0  0  0  0  0  0  0  0  0  0  0
   -4.3137   -4.0767    1.4347 H   0  0  0  0  0  0  0  0  0  0  0  0
   -3.3132   -5.1648    2.4842 H   0  0  0  0  0  0  0  0  0  0  0  0
   -2.7577   -3.4954    2.1650 H   0  0  0  0  0  0  0  0  0  0  0  0
   -3.0541   -7.9031   -0.1345 H   0  0  0  0  0  0  0  0  0  0  0  0
   -4.6182   -7.1788    0.3738 H   0  0  0  0  0  0  0  0  0  0  0  0
   -3.2405   -7.0256    1.4658 H   0  0  0  0  0  0  0  0  0  0  0  0
   -0.6740   -4.6144    1.6067 H   0  0  0  0  0  0  0  0  0  0  0  0
   -0.8400   -7.1091    0.3198 H   0  0  0  0  0  0  0  0  0  0  0  0
   -0.4871   -5.2979   -1.3952 H   0  0  0  0  0  0  0  0  0  0  0  0
    1.3142   -6.4632   -0.2961 H   0  0  0  0  0  0  0  0  0  0  0  0
    1.6627   -5.0281    0.7630 H   0  0  0  0  0  0  0  0  0  0  0  0
    1.9562   -4.9847   -1.0244 H   0  0  0  0  0  0  0  0  0  0  0  0
    0.8856   -1.1085   -1.3528 H   0  0  0  0  0  0  0  0  0  0  0  0
    0.3691   -0.3999   -3.3813 H   0  0  0  0  0  0  0  0  0  0  0  0
    1.3727    1.0039   -2.8711 H   0  0  0  0  0  0  0  0  0  0  0  0
   -0.3946    1.1345   -2.9249 H   0  0  0  0  0  0  0  0  0  0  0  0
    1.1614   -0.0867    0.6247 H   0  0  0  0  0  0  0  0  0  0  0  0
    3.1349   -0.5748    1.2499 H   0  0  0  0  0  0  0  0  0  0  0  0
    6.5320    1.1571    0.2104 H   0  0  0  0  0  0  0  0  0  0  0  0
    5.0202    1.9702   -1.5984 H   0  0  0  0  0  0  0  0  0  0  0  0
    4.7811    0.2716   -2.2069 H   0  0  0  0  0  0  0  0  0  0  0  0
    6.4351    1.0040   -2.2340 H   0  0  0  0  0  0  0  0  0  0  0  0
    6.6604   -1.2581   -1.2589 H   0  0  0  0  0  0  0  0  0  0  0  0
    7.3474   -0.9324    0.3672 H   0  0  0  0  0  0  0  0  0  0  0  0
    5.3210   -1.6932    1.4901 H   0  0  0  0  0  0  0  0  0  0  0  0
    7.0113   -3.4617   -1.5143 H   0  0  0  0  0  0  0  0  0  0  0  0
    5.2284   -3.6470   -1.6922 H   0  0  0  0  0  0  0  0  0  0  0  0
    6.1700   -4.9899   -0.9814 H   0  0  0  0  0  0  0  0  0  0  0  0
    8.0130   -3.3303    0.6580 H   0  0  0  0  0  0  0  0  0  0  0  0
    7.0742   -4.6704    1.4790 H   0  0  0  0  0  0  0  0  0  0  0  0
    7.0240   -2.9902    2.1183 H   0  0  0  0  0  0  0  0  0  0  0  0
    4.0716   -1.7663   -1.3358 H   0  0  0  0  0  0  0  0  0  0  0  0
    3.4534   -3.6173    0.0194 H   0  0  0  0  0  0  0  0  0  0  0  0
    2.3658    3.3981    1.6153 H   0  0  0  0  0  0  0  0  0  0  0  0
    3.3836    2.6217    0.3501 H   0  0  0  0  0  0  0  0  0  0  0  0
    2.8556    1.7157    1.7930 H   0  0  0  0  0  0  0  0  0  0  0  0
    0.4163    2.5102    3.0512 H   0  0  0  0  0  0  0  0  0  0  0  0
    1.0579    0.8655    2.5947 H   0  0  0  0  0  0  0  0  0  0  0  0
   -0.6999    1.1423    2.8410 H   0  0  0  0  0  0  0  0  0  0  0  0
    1.9709    3.0574   -1.4692 H   0  0  0  0  0  0  0  0  0  0  0  0
    0.3117    2.6799   -1.5344 H   0  0  0  0  0  0  0  0  0  0  0  0
    0.6296    4.4305    0.8177 H   0  0  0  0  0  0  0  0  0  0  0  0
    2.7345    5.0886   -0.3669 H   0  0  0  0  0  0  0  0  0  0  0  0
    1.5911    6.3054    0.2652 H   0  0  0  0  0  0  0  0  0  0  0  0
    1.6053    6.0037   -1.5231 H   0  0  0  0  0  0  0  0  0  0  0  0
   -1.9865    6.3552    0.0196 H   0  0  0  0  0  0  0  0  0  0  0  0
   -0.6842    5.4826    1.9800 H   0  0  0  0  0  0  0  0  0  0  0  0
   -1.6229    3.9112    1.8685 H   0  0  0  0  0  0  0  0  0  0  0  0
   -2.3611    5.5268    2.2734 H   0  0  0  0  0  0  0  0  0  0  0  0
   -3.4748    5.4284   -1.2709 H   0  0  0  0  0  0  0  0  0  0  0  0
   -3.5965    3.3590   -1.9778 H   0  0  0  0  0  0  0  0  0  0  0  0
   -5.7745    5.5602   -0.7916 H   0  0  0  0  0  0  0  0  0  0  0  0
   -6.5906    4.2839    0.0912 H   0  0  0  0  0  0  0  0  0  0  0  0
   -5.6305    3.8978   -1.3832 H   0  0  0  0  0  0  0  0  0  0  0  0
   -4.8826    6.2070    1.0543 H   0  0  0  0  0  0  0  0  0  0  0  0
  1  2  1  0
  2  3  1  0
  3  4  1  0
  4  5  1  0
  5  6  2  0
  5  7  1  0
  7  8  1  0
  7  9  1  0
  9 10  1  0
 10 11  1  0
 11 12  1  0
 12 13  1  0
 13 14  1  0
 13 15  1  6
 15 16  1  0
 13 17  1  0
 17 18  1  0
 17 19  1  0
 19 20  1  0
 19 21  1  0
  9 22  1  0
 22 23  1  0
 22 24  1  0
 24 25  1  0
 25 26  1  0
 26 27  1  0
 27 28  1  0
 28 29  1  0
 28 30  1  0
 30 31  1  0
 31 32  1  0
 32 33  1  0
 32 34  1  0
 31 35  1  0
 35 36  1  0
 24 37  1  0
 37 38  1  0
 37 39  1  1
 39 40  1  0
 37 41  1  0
 41 42  1  0
 42 43  1  0
 42 44  1  0
 44 45  2  0
 44 46  1  0
 46 47  1  0
 46 48  1  0
 48 49  1  0
 48 50  1  0
 50 51  1  0
 50 52  1  1
 50  3  1  0
 21 11  1  0
 35 26  1  0
  1 53  1  0
  1 54  1  0
  1 55  1  0
  2 56  1  0
  2 57  1  0
  3 58  1  1
  7 59  1  6
  8 60  1  0
  8 61  1  0
  8 62  1  0
  9 63  1  1
 11 64  1  1
 12 65  1  0
 12 66  1  0
 14 67  1  0
 14 68  1  0
 14 69  1  0
 16 70  1  0
 16 71  1  0
 16 72  1  0
 17 73  1  1
 18 74  1  0
 19 75  1  6
 20 76  1  0
 20 77  1  0
 20 78  1  0
 22 79  1  0
 23 80  1  0
 23 81  1  0
 23 82  1  0
 24 83  1  1
 26 84  1  1
 28 85  1  1
 29 86  1  0
 29 87  1  0
 29 88  1  0
 30 89  1  0
 30 90  1  0
 31 91  1  1
 33 92  1  0
 33 93  1  0
 33 94  1  0
 34 95  1  0
 34 96  1  0
 34 97  1  0
 35 98  1  6
 36 99  1  0
 38100  1  0
 38101  1  0
 38102  1  0
 40103  1  0
 40104  1  0
 40105  1  0
 41106  1  0
 41107  1  0
 42108  1  1
 43109  1  0
 43110  1  0
 43111  1  0
 46112  1  1
 47113  1  0
 47114  1  0
 47115  1  0
 48116  1  6
 49117  1  0
 51118  1  0
 51119  1  0
 51120  1  0
 52121  1  0
M  END
$$$$
