
     RDKit          3D

 84 86  0  0  0  0  0  0  0  0999 V2000
   -4.8414   -2.2244    0.8966 C   0  0  0  0  0  0  0  0  0  0  0  0
   -4.5443   -2.4616   -0.5920 C   0  0  0  0  0  0  0  0  0  0  0  0
   -5.8590   -2.6659   -1.3554 C   0  0  0  0  0  0  0  0  0  0  0  0
   -3.7482   -1.2909   -1.2202 C   0  0  0  0  0  0  0  0  0  0  0  0
   -2.3079   -1.1531   -0.6828 C   0  0  1  0  0  0  0  0  0  0  0  0
   -1.5693   -2.3989   -0.9732 N   0  0  0  0  0  0  0  0  0  0  0  0
   -0.4234   -2.6155   -0.0801 C   0  0  0  0  0  0  0  0  0  0  0  0
    0.1428   -4.0205   -0.3253 C   0  0  0  0  0  0  0  0  0  0  0  0
    1.1709   -4.4659    0.7265 C   0  0  0  0  0  0  0  0  0  0  0  0
    2.4634   -3.6255    0.7122 C   0  0  0  0  0  0  0  0  0  0  0  0
    2.4729   -2.6326    1.7910 N   0  0  0  0  0  0  0  0  0  0  0  0
    3.3985   -1.5335    1.8392 C   0  0  0  0  0  0  0  0  0  0  0  0
    3.6513   -1.0040    2.9547 O   0  0  0  0  0  0  0  0  0  0  0  0
    4.0163   -0.9741    0.5799 C   0  0  2  0  0  0  0  0  0  0  0  0
    5.1723    0.0177    0.8620 C   0  0  0  0  0  0  0  0  0  0  0  0
    5.8781    0.4630   -0.3959 C   0  0  0  0  0  0  0  0  0  0  0  0
    6.6054   -0.4591   -1.1688 C   0  0  0  0  0  0  0  0  0  0  0  0
    7.2773   -0.0384   -2.3206 C   0  0  0  0  0  0  0  0  0  0  0  0
    7.2357    1.3043   -2.7058 C   0  0  0  0  0  0  0  0  0  0  0  0
    6.5276    2.2308   -1.9358 C   0  0  0  0  0  0  0  0  0  0  0  0
    5.8562    1.8146   -0.7827 C   0  0  0  0  0  0  0  0  0  0  0  0
    2.9734   -0.4077   -0.2924 N   0  0  0  0  0  0  0  0  0  0  0  0
    2.5000    0.9493   -0.2554 C   0  0  0  0  0  0  0  0  0  0  0  0
    2.8196    1.7212   -1.1987 O   0  0  0  0  0  0  0  0  0  0  0  0
    1.5535    1.4730    0.8012 C   0  0  2  0  0  0  0  0  0  0  0  0
    2.2979    2.1423    1.9527 C   0  0  0  0  0  0  0  0  0  0  0  0
    0.6631    0.4262    1.3154 N   0  0  0  0  0  0  0  0  0  0  0  0
   -0.7337    0.6227    1.5915 C   0  0  0  0  0  0  0  0  0  0  0  0
   -1.2678   -0.0470    2.5164 O   0  0  0  0  0  0  0  0  0  0  0  0
   -1.5648    1.5987    0.7891 C   0  0  2  0  0  0  0  0  0  0  0  0
   -3.0427    1.6996    1.2326 C   0  0  0  0  0  0  0  0  0  0  0  0
   -3.6887    2.9404    0.6645 C   0  0  0  0  0  0  0  0  0  0  0  0
   -4.4182    2.8860   -0.5348 C   0  0  0  0  0  0  0  0  0  0  0  0
   -4.9729    4.0494   -1.0764 C   0  0  0  0  0  0  0  0  0  0  0  0
   -4.7914    5.2822   -0.4342 C   0  0  0  0  0  0  0  0  0  0  0  0
   -5.3362    6.4488   -0.9650 O   0  0  0  0  0  0  0  0  0  0  0  0
   -4.0554    5.3437    0.7531 C   0  0  0  0  0  0  0  0  0  0  0  0
   -3.5063    4.1807    1.3005 C   0  0  0  0  0  0  0  0  0  0  0  0
   -1.4553    1.3214   -0.6509 N   0  0  0  0  0  0  0  0  0  0  0  0
   -1.6454    0.0577   -1.3258 C   0  0  0  0  0  0  0  0  0  0  0  0
   -1.3155   -0.0178   -2.5422 O   0  0  0  0  0  0  0  0  0  0  0  0
   -5.4866   -3.0368    1.2931 H   0  0  0  0  0  0  0  0  0  0  0  0
   -5.3615   -1.2526    1.0442 H   0  0  0  0  0  0  0  0  0  0  0  0
   -3.9062   -2.2328    1.4926 H   0  0  0  0  0  0  0  0  0  0  0  0
   -3.9556   -3.4009   -0.6835 H   0  0  0  0  0  0  0  0  0  0  0  0
   -6.4976   -1.7585   -1.2881 H   0  0  0  0  0  0  0  0  0  0  0  0
   -5.6532   -2.8819   -2.4250 H   0  0  0  0  0  0  0  0  0  0  0  0
   -6.4192   -3.5300   -0.9387 H   0  0  0  0  0  0  0  0  0  0  0  0
   -3.6930   -1.4432   -2.3213 H   0  0  0  0  0  0  0  0  0  0  0  0
   -4.3041   -0.3463   -1.0517 H   0  0  0  0  0  0  0  0  0  0  0  0
   -2.3718   -1.0098    0.4061 H   0  0  0  0  0  0  0  0  0  0  0  0
   -1.2462   -2.4188   -1.9692 H   0  0  0  0  0  0  0  0  0  0  0  0
    0.3617   -1.8527   -0.2775 H   0  0  0  0  0  0  0  0  0  0  0  0
   -0.7473   -2.5419    0.9824 H   0  0  0  0  0  0  0  0  0  0  0  0
   -0.6967   -4.7485   -0.3099 H   0  0  0  0  0  0  0  0  0  0  0  0
    0.6006   -4.0672   -1.3370 H   0  0  0  0  0  0  0  0  0  0  0  0
    0.7002   -4.4813    1.7330 H   0  0  0  0  0  0  0  0  0  0  0  0
    1.4426   -5.5196    0.4956 H   0  0  0  0  0  0  0  0  0  0  0  0
    2.5800   -3.1376   -0.2761 H   0  0  0  0  0  0  0  0  0  0  0  0
    3.3385   -4.2971    0.8517 H   0  0  0  0  0  0  0  0  0  0  0  0
    1.9424   -2.8391    2.6680 H   0  0  0  0  0  0  0  0  0  0  0  0
    4.4731   -1.8403    0.0548 H   0  0  0  0  0  0  0  0  0  0  0  0
    4.7979    0.8960    1.4255 H   0  0  0  0  0  0  0  0  0  0  0  0
    5.9235   -0.4776    1.5154 H   0  0  0  0  0  0  0  0  0  0  0  0
    6.6589   -1.5006   -0.8768 H   0  0  0  0  0  0  0  0  0  0  0  0
    7.8348   -0.7533   -2.9114 H   0  0  0  0  0  0  0  0  0  0  0  0
    7.7590    1.6284   -3.5959 H   0  0  0  0  0  0  0  0  0  0  0  0
    6.5036    3.2728   -2.2297 H   0  0  0  0  0  0  0  0  0  0  0  0
    5.3199    2.5465   -0.1923 H   0  0  0  0  0  0  0  0  0  0  0  0
    2.8070   -0.9126   -1.1919 H   0  0  0  0  0  0  0  0  0  0  0  0
    0.9567    2.2642    0.3074 H   0  0  0  0  0  0  0  0  0  0  0  0
    1.5716    2.6742    2.6031 H   0  0  0  0  0  0  0  0  0  0  0  0
    3.0280    2.8840    1.5647 H   0  0  0  0  0  0  0  0  0  0  0  0
    2.8283    1.3930    2.5706 H   0  0  0  0  0  0  0  0  0  0  0  0
    1.1006   -0.3982    1.7729 H   0  0  0  0  0  0  0  0  0  0  0  0
   -1.1234    2.6003    0.9875 H   0  0  0  0  0  0  0  0  0  0  0  0
   -3.0957    1.7557    2.3427 H   0  0  0  0  0  0  0  0  0  0  0  0
   -3.6183    0.8005    0.9361 H   0  0  0  0  0  0  0  0  0  0  0  0
   -4.5530    1.9479   -1.0540 H   0  0  0  0  0  0  0  0  0  0  0  0
   -5.5347    3.9943   -1.9990 H   0  0  0  0  0  0  0  0  0  0  0  0
   -5.9044    6.4318   -1.8055 H   0  0  0  0  0  0  0  0  0  0  0  0
   -3.9046    6.2936    1.2507 H   0  0  0  0  0  0  0  0  0  0  0  0
   -2.9309    4.2464    2.2156 H   0  0  0  0  0  0  0  0  0  0  0  0
   -1.1136    2.1119   -1.2439 H   0  0  0  0  0  0  0  0  0  0  0  0
  1  2  1  0
  2  3  1  0
  2  4  1  0
  4  5  1  0
  5  6  1  0
  6  7  1  0
  7  8  1  0
  8  9  1  0
  9 10  1  0
 10 11  1  0
 11 12  1  0
 12 13  2  0
 12 14  1  0
 14 15  1  0
 15 16  1  0
 16 17  2  0
 17 18  1  0
 18 19  2  0
 19 20  1  0
 20 21  2  0
 14 22  1  0
 22 23  1  0
 23 24  2  0
 23 25  1  0
 25 26  1  0
 25 27  1  0
 27 28  1  0
 28 29  2  0
 28 30  1  0
 30 31  1  0
 31 32  1  0
 32 33  2  0
 33 34  1  0
 34 35  2  0
 35 36  1  0
 35 37  1  0
 37 38  2  0
 30 39  1  0
 39 40  1  0
 40 41  2  0
 40  5  1  0
 21 16  1  0
 38 32  1  0
  1 42  1  0
  1 43  1  0
  1 44  1  0
  2 45  1  0
  3 46  1  0
  3 47  1  0
  3 48  1  0
  4 49  1  0
  4 50  1  0
  5 51  1  1
  6 52  1  0
  7 53  1  0
  7 54  1  0
  8 55  1  0
  8 56  1  0
  9 57  1  0
  9 58  1  0
 10 59  1  0
 10 60  1  0
 11 61  1  0
 14 62  1  6
 15 63  1  0
 15 64  1  0
 17 65  1  0
 18 66  1  0
 19 67  1  0
 20 68  1  0
 21 69  1  0
 22 70  1  0
 25 71  1  6
 26 72  1  0
 26 73  1  0
 26 74  1  0
 27 75  1  0
 30 76  1  6
 31 77  1  0
 31 78  1  0
 33 79  1  0
 34 80  1  0
 36 81  1  0
 37 82  1  0
 38 83  1  0
 39 84  1  0
M  END
$$$$
