
     RDKit          3D

122125  0  0  0  0  0  0  0  0999 V2000
    8.9431    5.2696   -2.7083 C   0  0  0  0  0  0  0  0  0  0  0  0
    8.6122    3.8345   -2.3014 C   0  0  0  0  0  0  0  0  0  0  0  0
    7.1538    3.4859   -2.4797 C   0  0  0  0  0  0  0  0  0  0  0  0
    6.3588    4.3062   -2.9191 O   0  0  0  0  0  0  0  0  0  0  0  0
    6.6651    2.1087   -2.1108 C   0  0  0  0  0  0  0  0  0  0  0  0
    5.6666    2.1430   -0.9378 C   0  0  1  0  0  0  0  0  0  0  0  0
    5.1890    0.7909   -0.6385 N   0  0  0  0  0  0  0  0  0  0  0  0
    4.1258    0.5437    0.2962 C   0  0  0  0  0  0  0  0  0  0  0  0
    3.5055    1.5095    0.8180 O   0  0  0  0  0  0  0  0  0  0  0  0
    3.8180   -0.8743    0.7103 C   0  0  2  0  0  0  0  0  0  0  0  0
    2.4884   -0.9646    1.3325 N   0  0  0  0  0  0  0  0  0  0  0  0
    1.5117   -1.9368    0.9289 C   0  0  0  0  0  0  0  0  0  0  0  0
    1.8546   -2.9166    0.2122 O   0  0  0  0  0  0  0  0  0  0  0  0
    0.0672   -1.7842    1.3468 C   0  0  1  0  0  0  0  0  0  0  0  0
   -0.7857   -2.1222    0.2016 N   0  0  0  0  0  0  0  0  0  0  0  0
   -1.5821   -1.3107   -0.4325 C   0  0  0  0  0  0  0  0  0  0  0  0
   -1.6804    0.0752   -0.0560 N   0  0  0  0  0  0  0  0  0  0  0  0
   -2.8006    0.6113    0.7245 C   0  0  0  0  0  0  0  0  0  0  0  0
   -3.4634    1.7630    0.0086 C   0  0  0  0  0  0  0  0  0  0  0  0
   -2.7966    2.4153   -0.8403 O   0  0  0  0  0  0  0  0  0  0  0  0
   -4.7886    2.2227    0.3547 N   0  0  0  0  0  0  0  0  0  0  0  0
   -5.2149    3.5884    0.0532 C   0  0  0  0  0  0  0  0  0  0  0  0
   -6.4303    3.8565    0.9379 C   0  0  0  0  0  0  0  0  0  0  0  0
   -6.3594    2.7691    2.0059 C   0  0  1  0  0  0  0  0  0  0  0  0
   -7.6813    2.5290    2.7489 C   0  0  0  0  0  0  0  0  0  0  0  0
   -5.7036    1.5711    1.2894 C   0  0  1  0  0  0  0  0  0  0  0  0
   -6.6384    0.6628    0.5030 C   0  0  0  0  0  0  0  0  0  0  0  0
   -7.8880    0.8102    0.5304 O   0  0  0  0  0  0  0  0  0  0  0  0
   -6.0990   -0.4629   -0.1896 N   0  0  0  0  0  0  0  0  0  0  0  0
   -6.1775   -0.7301   -1.6419 C   0  0  1  0  0  0  0  0  0  0  0  0
   -6.2211    0.5659   -2.5328 C   0  0  0  0  0  0  0  0  0  0  0  0
   -6.0758    0.2290   -4.0307 C   0  0  0  0  0  0  0  0  0  0  0  0
   -7.5310    1.3666   -2.3608 C   0  0  0  0  0  0  0  0  0  0  0  0
   -5.0134   -1.6427   -2.0205 C   0  0  0  0  0  0  0  0  0  0  0  0
   -5.1814   -2.5233   -2.9075 O   0  0  0  0  0  0  0  0  0  0  0  0
   -3.8210   -1.6469   -1.2205 N   0  0  0  0  0  0  0  0  0  0  0  0
   -2.4083   -1.8537   -1.5859 C   0  0  1  0  0  0  0  0  0  0  0  0
   -1.9136   -1.2761   -2.9771 C   0  0  0  0  0  0  0  0  0  0  0  0
   -0.3722   -1.4366   -3.0805 C   0  0  0  0  0  0  0  0  0  0  0  0
   -2.2513    0.2202   -3.1479 C   0  0  0  0  0  0  0  0  0  0  0  0
   -2.5082   -2.0718   -4.1650 C   0  0  0  0  0  0  0  0  0  0  0  0
   -0.3215   -2.6544    2.5872 C   0  0  0  0  0  0  0  0  0  0  0  0
    0.4917   -2.2125    3.8222 C   0  0  0  0  0  0  0  0  0  0  0  0
   -1.8201   -2.4497    2.9071 C   0  0  0  0  0  0  0  0  0  0  0  0
   -0.0718   -4.1589    2.3306 C   0  0  0  0  0  0  0  0  0  0  0  0
    4.9237   -1.4361    1.6439 C   0  0  1  0  0  0  0  0  0  0  0  0
    5.0639   -0.6412    2.9573 C   0  0  0  0  0  0  0  0  0  0  0  0
    4.7427   -2.9346    1.8524 C   0  0  0  0  0  0  0  0  0  0  0  0
    5.1364   -3.8137    0.8250 C   0  0  0  0  0  0  0  0  0  0  0  0
    4.9387   -5.1918    0.9522 C   0  0  0  0  0  0  0  0  0  0  0  0
    4.3419   -5.7097    2.1048 C   0  0  0  0  0  0  0  0  0  0  0  0
    3.9410   -4.8517    3.1293 C   0  0  0  0  0  0  0  0  0  0  0  0
    4.1382   -3.4728    3.0081 C   0  0  0  0  0  0  0  0  0  0  0  0
    6.3080    2.7325    0.2875 C   0  0  0  0  0  0  0  0  0  0  0  0
    7.3110    2.1369    0.9704 N   0  0  0  0  0  0  0  0  0  0  0  0
    7.7266    2.8942    2.0225 C   0  0  0  0  0  0  0  0  0  0  0  0
    7.0596    4.1028    2.1781 C   0  0  0  0  0  0  0  0  0  0  0  0
    5.9105    4.2240    0.9567 S   0  0  0  0  0  0  0  0  0  0  0  0
   10.0345    5.4425   -2.5989 H   0  0  0  0  0  0  0  0  0  0  0  0
    8.4041    5.9902   -2.0561 H   0  0  0  0  0  0  0  0  0  0  0  0
    8.6652    5.4442   -3.7716 H   0  0  0  0  0  0  0  0  0  0  0  0
    9.2234    3.1379   -2.9150 H   0  0  0  0  0  0  0  0  0  0  0  0
    8.8876    3.6911   -1.2338 H   0  0  0  0  0  0  0  0  0  0  0  0
    7.5268    1.4572   -1.8453 H   0  0  0  0  0  0  0  0  0  0  0  0
    6.1677    1.6611   -3.0000 H   0  0  0  0  0  0  0  0  0  0  0  0
    4.7944    2.7662   -1.2380 H   0  0  0  0  0  0  0  0  0  0  0  0
    5.6513   -0.0318   -1.0922 H   0  0  0  0  0  0  0  0  0  0  0  0
    3.8250   -1.4728   -0.2280 H   0  0  0  0  0  0  0  0  0  0  0  0
    2.2320   -0.2913    2.0885 H   0  0  0  0  0  0  0  0  0  0  0  0
   -0.0804   -0.7198    1.6331 H   0  0  0  0  0  0  0  0  0  0  0  0
   -0.8241    0.6675   -0.1481 H   0  0  0  0  0  0  0  0  0  0  0  0
   -3.5326   -0.1822    0.9491 H   0  0  0  0  0  0  0  0  0  0  0  0
   -2.4139    0.9798    1.6985 H   0  0  0  0  0  0  0  0  0  0  0  0
   -5.4709    3.6827   -1.0236 H   0  0  0  0  0  0  0  0  0  0  0  0
   -4.4029    4.3047    0.3088 H   0  0  0  0  0  0  0  0  0  0  0  0
   -7.3602    3.7597    0.3371 H   0  0  0  0  0  0  0  0  0  0  0  0
   -6.3887    4.8713    1.3898 H   0  0  0  0  0  0  0  0  0  0  0  0
   -5.6282    3.1156    2.7749 H   0  0  0  0  0  0  0  0  0  0  0  0
   -8.5558    2.5288    2.0666 H   0  0  0  0  0  0  0  0  0  0  0  0
   -7.6386    1.5709    3.3081 H   0  0  0  0  0  0  0  0  0  0  0  0
   -7.8454    3.3496    3.4817 H   0  0  0  0  0  0  0  0  0  0  0  0
   -5.1562    0.9703    2.0460 H   0  0  0  0  0  0  0  0  0  0  0  0
   -5.9754   -1.2899    0.4330 H   0  0  0  0  0  0  0  0  0  0  0  0
   -7.1163   -1.3007   -1.8235 H   0  0  0  0  0  0  0  0  0  0  0  0
   -5.3768    1.2307   -2.2536 H   0  0  0  0  0  0  0  0  0  0  0  0
   -5.0639   -0.1484   -4.2557 H   0  0  0  0  0  0  0  0  0  0  0  0
   -6.2060    1.1356   -4.6613 H   0  0  0  0  0  0  0  0  0  0  0  0
   -6.8248   -0.5335   -4.3369 H   0  0  0  0  0  0  0  0  0  0  0  0
   -7.4427    2.0901   -1.5316 H   0  0  0  0  0  0  0  0  0  0  0  0
   -8.3966    0.6928   -2.1926 H   0  0  0  0  0  0  0  0  0  0  0  0
   -7.7595    1.9889   -3.2516 H   0  0  0  0  0  0  0  0  0  0  0  0
   -4.0159   -1.9554   -0.2438 H   0  0  0  0  0  0  0  0  0  0  0  0
   -2.2437   -2.9549   -1.6175 H   0  0  0  0  0  0  0  0  0  0  0  0
    0.1574   -0.8271   -2.3177 H   0  0  0  0  0  0  0  0  0  0  0  0
   -0.0007   -1.0949   -4.0716 H   0  0  0  0  0  0  0  0  0  0  0  0
   -0.0802   -2.5016   -2.9451 H   0  0  0  0  0  0  0  0  0  0  0  0
   -2.1178    0.5367   -4.2073 H   0  0  0  0  0  0  0  0  0  0  0  0
   -3.2919    0.4312   -2.8475 H   0  0  0  0  0  0  0  0  0  0  0  0
   -1.5796    0.8540   -2.5330 H   0  0  0  0  0  0  0  0  0  0  0  0
   -1.9318   -1.8869   -5.0974 H   0  0  0  0  0  0  0  0  0  0  0  0
   -2.4850   -3.1623   -3.9687 H   0  0  0  0  0  0  0  0  0  0  0  0
   -3.5359   -1.7598   -4.4020 H   0  0  0  0  0  0  0  0  0  0  0  0
    1.5754   -2.3642    3.6553 H   0  0  0  0  0  0  0  0  0  0  0  0
    0.3205   -1.1372    4.0428 H   0  0  0  0  0  0  0  0  0  0  0  0
    0.2013   -2.8035    4.7165 H   0  0  0  0  0  0  0  0  0  0  0  0
   -2.1070   -3.0070    3.8266 H   0  0  0  0  0  0  0  0  0  0  0  0
   -2.4633   -2.8158    2.0789 H   0  0  0  0  0  0  0  0  0  0  0  0
   -2.0426   -1.3729    3.0725 H   0  0  0  0  0  0  0  0  0  0  0  0
    1.0108   -4.3685    2.1983 H   0  0  0  0  0  0  0  0  0  0  0  0
   -0.4269   -4.7651    3.1919 H   0  0  0  0  0  0  0  0  0  0  0  0
   -0.6148   -4.5009    1.4215 H   0  0  0  0  0  0  0  0  0  0  0  0
    5.8973   -1.3071    1.1170 H   0  0  0  0  0  0  0  0  0  0  0  0
    4.1025   -0.5864    3.5089 H   0  0  0  0  0  0  0  0  0  0  0  0
    5.8272   -1.1170    3.6089 H   0  0  0  0  0  0  0  0  0  0  0  0
    5.3997    0.3960    2.7449 H   0  0  0  0  0  0  0  0  0  0  0  0
    5.5861   -3.4291   -0.0828 H   0  0  0  0  0  0  0  0  0  0  0  0
    5.2485   -5.8581    0.1591 H   0  0  0  0  0  0  0  0  0  0  0  0
    4.1897   -6.7773    2.2020 H   0  0  0  0  0  0  0  0  0  0  0  0
    3.4775   -5.2530    4.0216 H   0  0  0  0  0  0  0  0  0  0  0  0
    3.8268   -2.8391    3.8259 H   0  0  0  0  0  0  0  0  0  0  0  0
    8.5220    2.5732    2.6810 H   0  0  0  0  0  0  0  0  0  0  0  0
    7.2490    4.8374    2.9496 H   0  0  0  0  0  0  0  0  0  0  0  0
  1  2  1  0
  2  3  1  0
  3  4  2  0
  3  5  1  0
  5  6  1  0
  6  7  1  0
  7  8  1  0
  8  9  2  0
  8 10  1  0
 10 11  1  0
 11 12  1  0
 12 13  2  0
 12 14  1  0
 14 15  1  0
 15 16  2  0
 16 17  1  0
 17 18  1  0
 18 19  1  0
 19 20  2  0
 19 21  1  0
 21 22  1  0
 22 23  1  0
 23 24  1  0
 24 25  1  0
 24 26  1  0
 26 27  1  0
 27 28  2  0
 27 29  1  0
 29 30  1  0
 30 31  1  0
 31 32  1  0
 31 33  1  0
 30 34  1  0
 34 35  2  0
 34 36  1  0
 36 37  1  0
 37 38  1  0
 38 39  1  0
 38 40  1  0
 38 41  1  0
 14 42  1  0
 42 43  1  0
 42 44  1  0
 42 45  1  0
 10 46  1  0
 46 47  1  0
 46 48  1  0
 48 49  2  0
 49 50  1  0
 50 51  2  0
 51 52  1  0
 52 53  2  0
  6 54  1  0
 54 55  2  0
 55 56  1  0
 56 57  2  0
 57 58  1  0
 37 16  1  0
 53 48  1  0
 58 54  1  0
 26 21  1  0
  1 59  1  0
  1 60  1  0
  1 61  1  0
  2 62  1  0
  2 63  1  0
  5 64  1  0
  5 65  1  0
  6 66  1  6
  7 67  1  0
 10 68  1  6
 11 69  1  0
 14 70  1  1
 17 71  1  0
 18 72  1  0
 18 73  1  0
 22 74  1  0
 22 75  1  0
 23 76  1  0
 23 77  1  0
 24 78  1  1
 25 79  1  0
 25 80  1  0
 25 81  1  0
 26 82  1  1
 29 83  1  0
 30 84  1  1
 31 85  1  0
 32 86  1  0
 32 87  1  0
 32 88  1  0
 33 89  1  0
 33 90  1  0
 33 91  1  0
 36 92  1  0
 37 93  1  6
 39 94  1  0
 39 95  1  0
 39 96  1  0
 40 97  1  0
 40 98  1  0
 40 99  1  0
 41100  1  0
 41101  1  0
 41102  1  0
 43103  1  0
 43104  1  0
 43105  1  0
 44106  1  0
 44107  1  0
 44108  1  0
 45109  1  0
 45110  1  0
 45111  1  0
 46112  1  6
 47113  1  0
 47114  1  0
 47115  1  0
 49116  1  0
 50117  1  0
 51118  1  0
 52119  1  0
 53120  1  0
 56121  1  0
 57122  1  0
M  END
$$$$
