
     RDKit          3D

 93 94  0  0  0  0  0  0  0  0999 V2000
   -4.7367    0.4086   -3.6541 C   0  0  0  0  0  0  0  0  0  0  0  0
   -3.6684   -0.5804   -3.1812 C   0  0  0  0  0  0  0  0  0  0  0  0
   -3.5253   -0.7835   -1.6436 C   0  0  1  0  0  0  0  0  0  0  0  0
   -2.7126    0.2252   -1.0116 O   0  0  0  0  0  0  0  0  0  0  0  0
   -2.7382    1.6099   -1.2504 C   0  0  0  0  0  0  0  0  0  0  0  0
   -3.8052    2.2618   -1.0979 O   0  0  0  0  0  0  0  0  0  0  0  0
   -1.4886    2.3455   -1.6946 C   0  0  2  0  0  0  0  0  0  0  0  0
   -1.5311    2.5280   -3.2193 C   0  0  0  0  0  0  0  0  0  0  0  0
   -0.1756    1.6313   -1.2500 C   0  0  1  0  0  0  0  0  0  0  0  0
    0.9238    2.1596   -1.9533 O   0  0  0  0  0  0  0  0  0  0  0  0
    0.0955    1.7368    0.2880 C   0  0  2  0  0  0  0  0  0  0  0  0
    0.5667    3.1557    0.6866 C   0  0  0  0  0  0  0  0  0  0  0  0
    1.0966    0.6104    0.7706 C   0  0  1  0  0  0  0  0  0  0  0  0
    2.3791    1.1903    0.9987 O   0  0  0  0  0  0  0  0  0  0  0  0
    3.4688    0.3382    0.6829 C   0  0  0  0  0  0  0  0  0  0  0  0
    4.2676    0.2050    1.8455 O   0  0  0  0  0  0  0  0  0  0  0  0
    5.4385   -0.5939    1.6670 C   0  0  0  0  0  0  0  0  0  0  0  0
    6.6288    0.1544    2.2712 C   0  0  0  0  0  0  0  0  0  0  0  0
    5.7479   -1.0310    0.2078 C   0  0  0  0  0  0  0  0  0  0  0  0
    5.5361    0.1278   -0.7943 C   0  0  0  0  0  0  0  0  0  0  0  0
    5.5583   -0.3607   -2.2026 N   0  0  0  0  0  0  0  0  0  0  0  0
    4.3863   -1.1585   -2.6188 C   0  0  0  0  0  0  0  0  0  0  0  0
    5.7931    0.7363   -3.1568 C   0  0  0  0  0  0  0  0  0  0  0  0
    4.2900    1.0012   -0.4357 C   0  0  0  0  0  0  0  0  0  0  0  0
    4.7048    2.2712    0.0014 O   0  0  0  0  0  0  0  0  0  0  0  0
    0.6231   -0.1895    2.0451 C   0  0  2  0  0  0  0  0  0  0  0  0
    0.6987    0.7288    3.2942 C   0  0  0  0  0  0  0  0  0  0  0  0
    1.5003   -1.2876    2.1894 O   0  0  0  0  0  0  0  0  0  0  0  0
   -0.8396   -0.7108    1.8383 C   0  0  0  0  0  0  0  0  0  0  0  0
   -1.2597   -2.0463    2.5070 C   0  0  1  0  0  0  0  0  0  0  0  0
   -1.3207   -1.9518    4.0399 C   0  0  0  0  0  0  0  0  0  0  0  0
   -2.6073   -2.5477    1.9885 C   0  0  0  0  0  0  0  0  0  0  0  0
   -2.8280   -3.7497    2.0452 O   0  0  0  0  0  0  0  0  0  0  0  0
   -3.7293   -1.6216    1.5193 C   0  0  2  0  0  0  0  0  0  0  0  0
   -4.6379   -1.2950    2.7179 C   0  0  0  0  0  0  0  0  0  0  0  0
   -4.5114   -2.2199    0.2966 C   0  0  1  0  0  0  0  0  0  0  0  0
   -5.7043   -2.8331    0.7310 O   0  0  0  0  0  0  0  0  0  0  0  0
   -4.8379   -1.1990   -0.8619 C   0  0  1  0  0  0  0  0  0  0  0  0
   -5.6014    0.0341   -0.3177 C   0  0  0  0  0  0  0  0  0  0  0  0
   -5.6671   -1.8805   -1.7830 O   0  0  0  0  0  0  0  0  0  0  0  0
   -4.5669    1.4246   -3.2575 H   0  0  0  0  0  0  0  0  0  0  0  0
   -4.6963    0.4764   -4.7615 H   0  0  0  0  0  0  0  0  0  0  0  0
   -5.7537    0.0625   -3.3805 H   0  0  0  0  0  0  0  0  0  0  0  0
   -2.6866   -0.2751   -3.5939 H   0  0  0  0  0  0  0  0  0  0  0  0
   -3.8983   -1.5632   -3.6496 H   0  0  0  0  0  0  0  0  0  0  0  0
   -2.8775   -1.6863   -1.6092 H   0  0  0  0  0  0  0  0  0  0  0  0
   -1.5195    3.3637   -1.2576 H   0  0  0  0  0  0  0  0  0  0  0  0
   -0.7583    3.2582   -3.5405 H   0  0  0  0  0  0  0  0  0  0  0  0
   -1.3394    1.5649   -3.7340 H   0  0  0  0  0  0  0  0  0  0  0  0
   -2.5173    2.9244   -3.5436 H   0  0  0  0  0  0  0  0  0  0  0  0
   -0.3098    0.5571   -1.5246 H   0  0  0  0  0  0  0  0  0  0  0  0
    1.4458    1.3933   -2.3104 H   0  0  0  0  0  0  0  0  0  0  0  0
   -0.8801    1.6130    0.7904 H   0  0  0  0  0  0  0  0  0  0  0  0
    1.4827    3.4483    0.1313 H   0  0  0  0  0  0  0  0  0  0  0  0
   -0.2225    3.9090    0.4897 H   0  0  0  0  0  0  0  0  0  0  0  0
    0.7976    3.2028    1.7700 H   0  0  0  0  0  0  0  0  0  0  0  0
    1.1464   -0.1425   -0.0490 H   0  0  0  0  0  0  0  0  0  0  0  0
    3.1456   -0.6740    0.3416 H   0  0  0  0  0  0  0  0  0  0  0  0
    5.3038   -1.5233    2.2656 H   0  0  0  0  0  0  0  0  0  0  0  0
    7.5575   -0.4512    2.1875 H   0  0  0  0  0  0  0  0  0  0  0  0
    6.4360    0.3548    3.3475 H   0  0  0  0  0  0  0  0  0  0  0  0
    6.7783    1.1267    1.7544 H   0  0  0  0  0  0  0  0  0  0  0  0
    5.0877   -1.8906   -0.0217 H   0  0  0  0  0  0  0  0  0  0  0  0
    6.7891   -1.4157    0.1220 H   0  0  0  0  0  0  0  0  0  0  0  0
    6.4387    0.7664   -0.6512 H   0  0  0  0  0  0  0  0  0  0  0  0
    3.4431   -0.5753   -2.5903 H   0  0  0  0  0  0  0  0  0  0  0  0
    4.5271   -1.5198   -3.6615 H   0  0  0  0  0  0  0  0  0  0  0  0
    4.2744   -2.0684   -1.9978 H   0  0  0  0  0  0  0  0  0  0  0  0
    6.6932    1.3209   -2.8680 H   0  0  0  0  0  0  0  0  0  0  0  0
    5.9892    0.3233   -4.1697 H   0  0  0  0  0  0  0  0  0  0  0  0
    4.9192    1.4210   -3.2136 H   0  0  0  0  0  0  0  0  0  0  0  0
    3.6171    1.1457   -1.3046 H   0  0  0  0  0  0  0  0  0  0  0  0
    5.0326    2.7598   -0.7994 H   0  0  0  0  0  0  0  0  0  0  0  0
   -0.0052    1.5821    3.2067 H   0  0  0  0  0  0  0  0  0  0  0  0
    1.7265    1.1216    3.4280 H   0  0  0  0  0  0  0  0  0  0  0  0
    0.4337    0.1841    4.2202 H   0  0  0  0  0  0  0  0  0  0  0  0
    1.4883   -1.5996    3.1302 H   0  0  0  0  0  0  0  0  0  0  0  0
   -1.5421    0.0756    2.1903 H   0  0  0  0  0  0  0  0  0  0  0  0
   -0.9997   -0.8522    0.7450 H   0  0  0  0  0  0  0  0  0  0  0  0
   -0.5056   -2.8179    2.2345 H   0  0  0  0  0  0  0  0  0  0  0  0
   -0.3040   -1.9484    4.4782 H   0  0  0  0  0  0  0  0  0  0  0  0
   -1.8412   -2.8358    4.4676 H   0  0  0  0  0  0  0  0  0  0  0  0
   -1.8610   -1.0361    4.3629 H   0  0  0  0  0  0  0  0  0  0  0  0
   -3.3027   -0.6634    1.1962 H   0  0  0  0  0  0  0  0  0  0  0  0
   -5.0334   -2.2242    3.1830 H   0  0  0  0  0  0  0  0  0  0  0  0
   -4.0666   -0.7350    3.4866 H   0  0  0  0  0  0  0  0  0  0  0  0
   -5.4952   -0.6607    2.4133 H   0  0  0  0  0  0  0  0  0  0  0  0
   -3.8840   -3.0160   -0.1738 H   0  0  0  0  0  0  0  0  0  0  0  0
   -5.4556   -3.6969    1.1494 H   0  0  0  0  0  0  0  0  0  0  0  0
   -4.9844    0.6260    0.3856 H   0  0  0  0  0  0  0  0  0  0  0  0
   -5.9292    0.6967   -1.1427 H   0  0  0  0  0  0  0  0  0  0  0  0
   -6.5133   -0.2863    0.2279 H   0  0  0  0  0  0  0  0  0  0  0  0
   -6.5816   -1.9649   -1.4052 H   0  0  0  0  0  0  0  0  0  0  0  0
  1  2  1  0
  2  3  1  0
  3  4  1  0
  4  5  1  0
  5  6  2  0
  5  7  1  0
  7  8  1  0
  7  9  1  0
  9 10  1  0
  9 11  1  0
 11 12  1  0
 11 13  1  0
 13 14  1  0
 14 15  1  0
 15 16  1  0
 16 17  1  0
 17 18  1  0
 17 19  1  0
 19 20  1  0
 20 21  1  0
 21 22  1  0
 21 23  1  0
 20 24  1  0
 24 25  1  0
 13 26  1  0
 26 27  1  0
 26 28  1  1
 26 29  1  0
 29 30  1  0
 30 31  1  0
 30 32  1  0
 32 33  2  0
 32 34  1  0
 34 35  1  0
 34 36  1  0
 36 37  1  0
 36 38  1  0
 38 39  1  0
 38 40  1  6
 38  3  1  0
 24 15  1  0
  1 41  1  0
  1 42  1  0
  1 43  1  0
  2 44  1  0
  2 45  1  0
  3 46  1  6
  7 47  1  1
  8 48  1  0
  8 49  1  0
  8 50  1  0
  9 51  1  6
 10 52  1  0
 11 53  1  1
 12 54  1  0
 12 55  1  0
 12 56  1  0
 13 57  1  6
 15 58  1  0
 17 59  1  0
 18 60  1  0
 18 61  1  0
 18 62  1  0
 19 63  1  0
 19 64  1  0
 20 65  1  0
 22 66  1  0
 22 67  1  0
 22 68  1  0
 23 69  1  0
 23 70  1  0
 23 71  1  0
 24 72  1  0
 25 73  1  0
 27 74  1  0
 27 75  1  0
 27 76  1  0
 28 77  1  0
 29 78  1  0
 29 79  1  0
 30 80  1  1
 31 81  1  0
 31 82  1  0
 31 83  1  0
 34 84  1  6
 35 85  1  0
 35 86  1  0
 35 87  1  0
 36 88  1  6
 37 89  1  0
 39 90  1  0
 39 91  1  0
 39 92  1  0
 40 93  1  0
M  END
$$$$
