
     RDKit          3D

 62 64  0  0  0  0  0  0  0  0999 V2000
   -3.4936   -3.2948   -1.4350 C   0  0  0  0  0  0  0  0  0  0  0  0
   -2.7958   -2.9636   -0.1050 C   0  0  0  0  0  0  0  0  0  0  0  0
   -1.8670   -4.1155    0.3014 C   0  0  0  0  0  0  0  0  0  0  0  0
   -2.0526   -1.5928   -0.1345 C   0  0  0  0  0  0  0  0  0  0  0  0
   -3.0555   -0.4213   -0.1996 C   0  0  0  0  0  0  0  0  0  0  0  0
   -2.4405    0.7913    0.2351 O   0  0  0  0  0  0  0  0  0  0  0  0
   -3.1156    2.0221    0.3305 C   0  0  0  0  0  0  0  0  0  0  0  0
   -4.3635    2.2305   -0.2936 C   0  0  0  0  0  0  0  0  0  0  0  0
   -5.0337    3.4476   -0.1535 C   0  0  0  0  0  0  0  0  0  0  0  0
   -4.4772    4.4696    0.6162 C   0  0  0  0  0  0  0  0  0  0  0  0
   -5.3281    5.9922    0.8027 Cl  0  0  0  0  0  0  0  0  0  0  0  0
   -3.2445    4.2770    1.2442 C   0  0  0  0  0  0  0  0  0  0  0  0
   -2.5497    3.0666    1.0919 C   0  0  0  0  0  0  0  0  0  0  0  0
   -1.2638    2.8923    1.7928 C   0  0  0  0  0  0  0  0  0  0  0  0
   -1.2204    3.0793    3.0385 O   0  0  0  0  0  0  0  0  0  0  0  0
   -0.0612    2.5303    1.1000 N   0  0  0  0  0  0  0  0  0  0  0  0
    0.1857    2.8561   -0.3064 C   0  0  0  0  0  0  0  0  0  0  0  0
    0.7373    1.6505   -1.0806 C   0  0  0  0  0  0  0  0  0  0  0  0
    2.0612    1.1034   -0.5114 C   0  0  0  0  0  0  0  0  0  0  0  0
    1.8540   -0.0097    0.5427 C   0  0  0  0  0  0  0  0  0  0  0  0
    2.1420   -1.3478   -0.0051 N   0  0  0  0  0  0  0  0  0  0  0  0
    3.4354   -1.6848   -0.5628 C   0  0  0  0  0  0  0  0  0  0  0  0
    3.5046   -2.5436   -1.4852 O   0  0  0  0  0  0  0  0  0  0  0  0
    4.6897   -1.0554   -0.0899 C   0  0  0  0  0  0  0  0  0  0  0  0
    5.7956   -0.9375   -0.9492 C   0  0  0  0  0  0  0  0  0  0  0  0
    6.9777   -0.3648   -0.4745 C   0  0  0  0  0  0  0  0  0  0  0  0
    7.0547    0.0757    0.8472 C   0  0  0  0  0  0  0  0  0  0  0  0
    5.9427   -0.0679    1.6795 C   0  0  0  0  0  0  0  0  0  0  0  0
    4.8009   -0.6287    1.1991 N   0  0  0  0  0  0  0  0  0  0  0  0
    1.0438   -2.3193   -0.0982 C   0  0  0  0  0  0  0  0  0  0  0  0
    0.2112   -2.0479   -1.3234 C   0  0  0  0  0  0  0  0  0  0  0  0
    0.7297   -2.2635   -2.4499 O   0  0  0  0  0  0  0  0  0  0  0  0
   -1.1251   -1.5136   -1.2754 N   0  0  0  0  0  0  0  0  0  0  0  0
   -4.0551   -4.2487   -1.3418 H   0  0  0  0  0  0  0  0  0  0  0  0
   -2.7545   -3.4041   -2.2569 H   0  0  0  0  0  0  0  0  0  0  0  0
   -4.2228   -2.5030   -1.7058 H   0  0  0  0  0  0  0  0  0  0  0  0
   -3.5836   -2.9121    0.6796 H   0  0  0  0  0  0  0  0  0  0  0  0
   -1.1022   -4.3083   -0.4782 H   0  0  0  0  0  0  0  0  0  0  0  0
   -1.3646   -3.8862    1.2639 H   0  0  0  0  0  0  0  0  0  0  0  0
   -2.4580   -5.0454    0.4434 H   0  0  0  0  0  0  0  0  0  0  0  0
   -1.5075   -1.4655    0.8218 H   0  0  0  0  0  0  0  0  0  0  0  0
   -3.9238   -0.6267    0.4641 H   0  0  0  0  0  0  0  0  0  0  0  0
   -3.4302   -0.3018   -1.2385 H   0  0  0  0  0  0  0  0  0  0  0  0
   -4.8297    1.4583   -0.8885 H   0  0  0  0  0  0  0  0  0  0  0  0
   -5.9913    3.5909   -0.6381 H   0  0  0  0  0  0  0  0  0  0  0  0
   -2.8233    5.0745    1.8460 H   0  0  0  0  0  0  0  0  0  0  0  0
    0.7706    2.3066    1.6901 H   0  0  0  0  0  0  0  0  0  0  0  0
   -0.7453    3.1928   -0.8080 H   0  0  0  0  0  0  0  0  0  0  0  0
    0.9102    3.6976   -0.3596 H   0  0  0  0  0  0  0  0  0  0  0  0
   -0.0313    0.8542   -1.1296 H   0  0  0  0  0  0  0  0  0  0  0  0
    0.9166    1.9808   -2.1271 H   0  0  0  0  0  0  0  0  0  0  0  0
    2.6717    0.7226   -1.3579 H   0  0  0  0  0  0  0  0  0  0  0  0
    2.6496    1.9328   -0.0614 H   0  0  0  0  0  0  0  0  0  0  0  0
    2.4954    0.1831    1.4247 H   0  0  0  0  0  0  0  0  0  0  0  0
    0.8161    0.0213    0.9389 H   0  0  0  0  0  0  0  0  0  0  0  0
    5.7427   -1.2777   -1.9764 H   0  0  0  0  0  0  0  0  0  0  0  0
    7.8337   -0.2654   -1.1307 H   0  0  0  0  0  0  0  0  0  0  0  0
    7.9668    0.5212    1.2238 H   0  0  0  0  0  0  0  0  0  0  0  0
    5.9878    0.2639    2.7089 H   0  0  0  0  0  0  0  0  0  0  0  0
    0.4566   -2.3027    0.8367 H   0  0  0  0  0  0  0  0  0  0  0  0
    1.4490   -3.3523   -0.1657 H   0  0  0  0  0  0  0  0  0  0  0  0
   -1.5222   -1.2129   -2.1949 H   0  0  0  0  0  0  0  0  0  0  0  0
  1  2  1  0
  2  3  1  0
  2  4  1  0
  4  5  1  0
  5  6  1  0
  6  7  1  0
  7  8  2  0
  8  9  1  0
  9 10  2  0
 10 11  1  0
 10 12  1  0
 12 13  2  0
 13 14  1  0
 14 15  2  0
 14 16  1  0
 16 17  1  0
 17 18  1  0
 18 19  1  0
 19 20  1  0
 20 21  1  0
 21 22  1  0
 22 23  2  0
 22 24  1  0
 24 25  2  0
 25 26  1  0
 26 27  2  0
 27 28  1  0
 28 29  2  0
 21 30  1  0
 30 31  1  0
 31 32  2  0
 31 33  1  0
 33  4  1  0
 13  7  1  0
 29 24  1  0
  1 34  1  0
  1 35  1  0
  1 36  1  0
  2 37  1  0
  3 38  1  0
  3 39  1  0
  3 40  1  0
  4 41  1  0
  5 42  1  0
  5 43  1  0
  8 44  1  0
  9 45  1  0
 12 46  1  0
 16 47  1  0
 17 48  1  0
 17 49  1  0
 18 50  1  0
 18 51  1  0
 19 52  1  0
 19 53  1  0
 20 54  1  0
 20 55  1  0
 25 56  1  0
 26 57  1  0
 27 58  1  0
 28 59  1  0
 30 60  1  0
 30 61  1  0
 33 62  1  0
M  END
$$$$
