
     RDKit          3D

 90 91  0  0  0  0  0  0  0  0999 V2000
   10.7290    1.4460    0.2224 C   0  0  0  0  0  0  0  0  0  0  0  0
   10.3039    0.1061    0.8234 C   0  0  0  0  0  0  0  0  0  0  0  0
    8.8641    0.1294    1.3613 C   0  0  0  0  0  0  0  0  0  0  0  0
    7.8214    0.2127    0.2367 C   0  0  0  0  0  0  0  0  0  0  0  0
    6.3901    0.0030    0.7504 C   0  0  0  0  0  0  0  0  0  0  0  0
    5.8681    1.2050    1.5575 C   0  0  0  0  0  0  0  0  0  0  0  0
    4.3988    1.0455    1.9827 C   0  0  0  0  0  0  0  0  0  0  0  0
    3.4281    1.2201    0.8073 C   0  0  0  0  0  0  0  0  0  0  0  0
    1.9739    1.1905    1.2855 C   0  0  0  0  0  0  0  0  0  0  0  0
    1.0462    1.2559    0.1112 C   0  0  0  0  0  0  0  0  0  0  0  0
    0.4145    2.3227   -0.1218 O   0  0  0  0  0  0  0  0  0  0  0  0
    0.9012    0.1210   -0.7526 N   0  0  0  0  0  0  0  0  0  0  0  0
    0.0094    0.1248   -1.9163 C   0  0  1  0  0  0  0  0  0  0  0  0
    0.4926   -0.8534   -3.0093 C   0  0  0  0  0  0  0  0  0  0  0  0
    0.3341   -2.3097   -2.6415 C   0  0  0  0  0  0  0  0  0  0  0  0
    1.3724   -3.0069   -1.9982 C   0  0  0  0  0  0  0  0  0  0  0  0
    1.1998   -4.3436   -1.6246 C   0  0  0  0  0  0  0  0  0  0  0  0
   -0.0041   -4.9974   -1.8990 C   0  0  0  0  0  0  0  0  0  0  0  0
   -1.0396   -4.3122   -2.5440 C   0  0  0  0  0  0  0  0  0  0  0  0
   -0.8711   -2.9774   -2.9195 C   0  0  0  0  0  0  0  0  0  0  0  0
   -1.4110   -0.1498   -1.4888 C   0  0  0  0  0  0  0  0  0  0  0  0
   -2.3463    0.4672   -2.0607 O   0  0  0  0  0  0  0  0  0  0  0  0
   -1.6937   -1.1202   -0.4653 N   0  0  0  0  0  0  0  0  0  0  0  0
   -3.0086   -1.3701    0.1494 C   0  0  1  0  0  0  0  0  0  0  0  0
   -3.3648   -0.3629    1.2870 C   0  0  0  0  0  0  0  0  0  0  0  0
   -2.4286    0.8625    1.4197 C   0  0  0  0  0  0  0  0  0  0  0  0
   -2.8583    1.8435    2.5245 C   0  0  0  0  0  0  0  0  0  0  0  0
   -4.1795    2.5899    2.2541 C   0  0  0  0  0  0  0  0  0  0  0  0
   -4.0865    3.4738    1.0895 N   0  0  0  0  0  0  0  0  0  0  0  0
   -5.2171    3.6852    0.2254 C   0  0  0  0  0  0  0  0  0  0  0  0
   -5.6214    4.8564    0.0050 O   0  0  0  0  0  0  0  0  0  0  0  0
   -5.9268    2.5514   -0.3918 C   0  0  0  0  0  0  0  0  0  0  0  0
   -5.2727    1.4139   -0.6429 C   0  0  0  0  0  0  0  0  0  0  0  0
   -5.8969    0.1499   -1.1673 C   0  0  2  0  0  0  0  0  0  0  0  0
   -6.8325   -0.6279   -0.1757 C   0  0  0  0  0  0  0  0  0  0  0  0
   -7.6044   -1.7227   -0.9308 C   0  0  0  0  0  0  0  0  0  0  0  0
   -7.8403    0.2669    0.5627 C   0  0  0  0  0  0  0  0  0  0  0  0
   -4.8140   -0.7166   -1.6623 N   0  0  0  0  0  0  0  0  0  0  0  0
   -4.0770   -1.6962   -0.8985 C   0  0  0  0  0  0  0  0  0  0  0  0
   -4.1674   -2.9005   -1.2683 O   0  0  0  0  0  0  0  0  0  0  0  0
   10.1420    1.6672   -0.6924 H   0  0  0  0  0  0  0  0  0  0  0  0
   11.8037    1.4015   -0.0590 H   0  0  0  0  0  0  0  0  0  0  0  0
   10.5898    2.2642    0.9622 H   0  0  0  0  0  0  0  0  0  0  0  0
   10.9910   -0.1341    1.6642 H   0  0  0  0  0  0  0  0  0  0  0  0
   10.4178   -0.6922    0.0604 H   0  0  0  0  0  0  0  0  0  0  0  0
    8.7477    0.9853    2.0577 H   0  0  0  0  0  0  0  0  0  0  0  0
    8.7025   -0.8069    1.9371 H   0  0  0  0  0  0  0  0  0  0  0  0
    7.8866    1.1948   -0.2758 H   0  0  0  0  0  0  0  0  0  0  0  0
    8.0346   -0.5761   -0.5162 H   0  0  0  0  0  0  0  0  0  0  0  0
    5.7426   -0.1548   -0.1357 H   0  0  0  0  0  0  0  0  0  0  0  0
    6.3412   -0.9198    1.3709 H   0  0  0  0  0  0  0  0  0  0  0  0
    5.9864    2.1422    0.9709 H   0  0  0  0  0  0  0  0  0  0  0  0
    6.4773    1.3066    2.4808 H   0  0  0  0  0  0  0  0  0  0  0  0
    4.2487    0.0502    2.4559 H   0  0  0  0  0  0  0  0  0  0  0  0
    4.1769    1.8206    2.7505 H   0  0  0  0  0  0  0  0  0  0  0  0
    3.6213    2.1932    0.3018 H   0  0  0  0  0  0  0  0  0  0  0  0
    3.5797    0.4007    0.0719 H   0  0  0  0  0  0  0  0  0  0  0  0
    1.7784    0.2522    1.8497 H   0  0  0  0  0  0  0  0  0  0  0  0
    1.7839    2.0515    1.9626 H   0  0  0  0  0  0  0  0  0  0  0  0
    1.3319   -0.7788   -0.4398 H   0  0  0  0  0  0  0  0  0  0  0  0
    0.0443    1.1398   -2.3712 H   0  0  0  0  0  0  0  0  0  0  0  0
   -0.0766   -0.6502   -3.9485 H   0  0  0  0  0  0  0  0  0  0  0  0
    1.5606   -0.6392   -3.2403 H   0  0  0  0  0  0  0  0  0  0  0  0
    2.3110   -2.5136   -1.7829 H   0  0  0  0  0  0  0  0  0  0  0  0
    1.9972   -4.8749   -1.1217 H   0  0  0  0  0  0  0  0  0  0  0  0
   -0.1388   -6.0320   -1.6139 H   0  0  0  0  0  0  0  0  0  0  0  0
   -1.9731   -4.8180   -2.7533 H   0  0  0  0  0  0  0  0  0  0  0  0
   -1.6872   -2.4559   -3.4112 H   0  0  0  0  0  0  0  0  0  0  0  0
   -0.8988   -1.6923   -0.1008 H   0  0  0  0  0  0  0  0  0  0  0  0
   -2.8907   -2.3350    0.6960 H   0  0  0  0  0  0  0  0  0  0  0  0
   -3.3118   -0.9041    2.2559 H   0  0  0  0  0  0  0  0  0  0  0  0
   -4.4127   -0.0548    1.2263 H   0  0  0  0  0  0  0  0  0  0  0  0
   -1.4130    0.4927    1.6787 H   0  0  0  0  0  0  0  0  0  0  0  0
   -2.3256    1.4172    0.4693 H   0  0  0  0  0  0  0  0  0  0  0  0
   -2.0510    2.5956    2.6582 H   0  0  0  0  0  0  0  0  0  0  0  0
   -2.9512    1.2920    3.4875 H   0  0  0  0  0  0  0  0  0  0  0  0
   -4.4177    3.2103    3.1427 H   0  0  0  0  0  0  0  0  0  0  0  0
   -5.0158    1.8741    2.1476 H   0  0  0  0  0  0  0  0  0  0  0  0
   -3.3328    4.1930    1.0836 H   0  0  0  0  0  0  0  0  0  0  0  0
   -6.9761    2.6548   -0.6451 H   0  0  0  0  0  0  0  0  0  0  0  0
   -4.2050    1.4312   -0.5544 H   0  0  0  0  0  0  0  0  0  0  0  0
   -6.5129    0.4559   -2.0438 H   0  0  0  0  0  0  0  0  0  0  0  0
   -6.2237   -1.1372    0.5992 H   0  0  0  0  0  0  0  0  0  0  0  0
   -8.2073   -2.3279   -0.2183 H   0  0  0  0  0  0  0  0  0  0  0  0
   -8.2913   -1.2720   -1.6814 H   0  0  0  0  0  0  0  0  0  0  0  0
   -6.9062   -2.4142   -1.4487 H   0  0  0  0  0  0  0  0  0  0  0  0
   -8.5108   -0.3468    1.2024 H   0  0  0  0  0  0  0  0  0  0  0  0
   -7.3118    0.9688    1.2364 H   0  0  0  0  0  0  0  0  0  0  0  0
   -8.4673    0.8342   -0.1571 H   0  0  0  0  0  0  0  0  0  0  0  0
   -4.7734   -0.8350   -2.6996 H   0  0  0  0  0  0  0  0  0  0  0  0
  1  2  1  0
  2  3  1  0
  3  4  1  0
  4  5  1  0
  5  6  1  0
  6  7  1  0
  7  8  1  0
  8  9  1  0
  9 10  1  0
 10 11  2  0
 10 12  1  0
 12 13  1  0
 13 14  1  0
 14 15  1  0
 15 16  2  0
 16 17  1  0
 17 18  2  0
 18 19  1  0
 19 20  2  0
 13 21  1  0
 21 22  2  0
 21 23  1  0
 23 24  1  0
 24 25  1  0
 25 26  1  0
 26 27  1  0
 27 28  1  0
 28 29  1  0
 29 30  1  0
 30 31  2  0
 30 32  1  0
 32 33  2  0
 33 34  1  0
 34 35  1  0
 35 36  1  0
 35 37  1  0
 34 38  1  0
 38 39  1  0
 39 40  2  0
 20 15  1  0
 39 24  1  0
  1 41  1  0
  1 42  1  0
  1 43  1  0
  2 44  1  0
  2 45  1  0
  3 46  1  0
  3 47  1  0
  4 48  1  0
  4 49  1  0
  5 50  1  0
  5 51  1  0
  6 52  1  0
  6 53  1  0
  7 54  1  0
  7 55  1  0
  8 56  1  0
  8 57  1  0
  9 58  1  0
  9 59  1  0
 12 60  1  0
 13 61  1  6
 14 62  1  0
 14 63  1  0
 16 64  1  0
 17 65  1  0
 18 66  1  0
 19 67  1  0
 20 68  1  0
 23 69  1  0
 24 70  1  1
 25 71  1  0
 25 72  1  0
 26 73  1  0
 26 74  1  0
 27 75  1  0
 27 76  1  0
 28 77  1  0
 28 78  1  0
 29 79  1  0
 32 80  1  0
 33 81  1  0
 34 82  1  6
 35 83  1  0
 36 84  1  0
 36 85  1  0
 36 86  1  0
 37 87  1  0
 37 88  1  0
 37 89  1  0
 38 90  1  0
M  END
$$$$
