
     RDKit          3D

 71 75  0  0  0  0  0  0  0  0999 V2000
    7.5060    2.6801   -1.6355 C   0  0  0  0  0  0  0  0  0  0  0  0
    7.6796    1.2945   -1.3446 O   0  0  0  0  0  0  0  0  0  0  0  0
    6.8541    0.5614   -0.4800 C   0  0  0  0  0  0  0  0  0  0  0  0
    5.7408    1.1219    0.1907 C   0  0  0  0  0  0  0  0  0  0  0  0
    4.9393    0.3284    1.0528 C   0  0  0  0  0  0  0  0  0  0  0  0
    3.7574    0.9341    1.7651 C   0  0  0  0  0  0  0  0  0  0  0  0
    2.5657    0.1031    1.5917 N   0  0  0  0  0  0  0  0  0  0  0  0
    1.9388   -0.0841    0.3135 C   0  0  0  0  0  0  0  0  0  0  0  0
    2.3959    0.4977   -0.7065 O   0  0  0  0  0  0  0  0  0  0  0  0
    0.7735   -1.0198    0.1727 C   0  0  0  0  0  0  0  0  0  0  0  0
   -0.2741   -0.4216   -0.6809 N   0  0  0  0  0  0  0  0  0  0  0  0
   -1.0129    0.6656    0.0020 C   0  0  0  0  0  0  0  0  0  0  0  0
   -1.4513    1.7460   -1.0088 C   0  0  0  0  0  0  0  0  0  0  0  0
   -2.6793    2.5188   -0.5002 C   0  0  0  0  0  0  0  0  0  0  0  0
   -3.4783    3.2521   -1.5970 C   0  0  0  0  0  0  0  0  0  0  0  0
   -3.9704    2.3917   -2.7891 C   0  0  0  0  0  0  0  0  0  0  0  0
   -4.5405    1.0081   -2.4352 C   0  0  0  0  0  0  0  0  0  0  0  0
   -5.6528    1.1057   -1.5437 O   0  0  0  0  0  0  0  0  0  0  0  0
   -5.7489    0.6797   -0.2009 C   0  0  0  0  0  0  0  0  0  0  0  0
   -6.7772    1.2741    0.5435 C   0  0  0  0  0  0  0  0  0  0  0  0
   -6.9274    1.0106    1.9065 C   0  0  0  0  0  0  0  0  0  0  0  0
   -6.0732    0.1187    2.5388 C   0  0  0  0  0  0  0  0  0  0  0  0
   -5.0625   -0.5140    1.8165 C   0  0  0  0  0  0  0  0  0  0  0  0
   -4.8993   -0.2811    0.4323 C   0  0  0  0  0  0  0  0  0  0  0  0
   -3.8831   -0.9403   -0.2905 O   0  0  0  0  0  0  0  0  0  0  0  0
   -3.2085   -2.1113    0.0992 C   0  0  0  0  0  0  0  0  0  0  0  0
   -3.8382   -3.0330    0.8836 N   0  0  0  0  0  0  0  0  0  0  0  0
   -3.2305   -4.1717    1.2990 C   0  0  0  0  0  0  0  0  0  0  0  0
   -1.9252   -4.4479    0.9011 C   0  0  0  0  0  0  0  0  0  0  0  0
   -1.2569   -3.5438    0.0766 C   0  0  0  0  0  0  0  0  0  0  0  0
   -1.8838   -2.3567   -0.3392 C   0  0  0  0  0  0  0  0  0  0  0  0
   -1.1603   -1.4359   -1.3112 C   0  0  0  0  0  0  0  0  0  0  0  0
    5.2704   -1.0296    1.2607 C   0  0  0  0  0  0  0  0  0  0  0  0
    6.3674   -1.5460    0.5791 C   0  0  0  0  0  0  0  0  0  0  0  0
    7.1238   -0.7848   -0.2534 C   0  0  0  0  0  0  0  0  0  0  0  0
    8.1381   -1.5558   -0.7869 O   0  0  0  0  0  0  0  0  0  0  0  0
    8.0111   -2.8831   -0.2571 C   0  0  0  0  0  0  0  0  0  0  0  0
    6.8689   -2.8326    0.6101 O   0  0  0  0  0  0  0  0  0  0  0  0
    8.2959    3.0055   -2.3424 H   0  0  0  0  0  0  0  0  0  0  0  0
    6.5153    2.8517   -2.1097 H   0  0  0  0  0  0  0  0  0  0  0  0
    7.5928    3.2804   -0.7036 H   0  0  0  0  0  0  0  0  0  0  0  0
    5.4933    2.1659    0.0466 H   0  0  0  0  0  0  0  0  0  0  0  0
    3.5418    1.9613    1.3964 H   0  0  0  0  0  0  0  0  0  0  0  0
    4.0036    1.0070    2.8451 H   0  0  0  0  0  0  0  0  0  0  0  0
    2.1694   -0.3813    2.4285 H   0  0  0  0  0  0  0  0  0  0  0  0
    0.3572   -1.2803    1.1727 H   0  0  0  0  0  0  0  0  0  0  0  0
    1.1696   -1.9499   -0.2897 H   0  0  0  0  0  0  0  0  0  0  0  0
   -0.3710    1.1718    0.7559 H   0  0  0  0  0  0  0  0  0  0  0  0
   -1.8669    0.2558    0.5749 H   0  0  0  0  0  0  0  0  0  0  0  0
   -0.6140    2.4564   -1.1715 H   0  0  0  0  0  0  0  0  0  0  0  0
   -1.6509    1.2860   -1.9917 H   0  0  0  0  0  0  0  0  0  0  0  0
   -3.3687    1.8467    0.0367 H   0  0  0  0  0  0  0  0  0  0  0  0
   -2.3411    3.2655    0.2500 H   0  0  0  0  0  0  0  0  0  0  0  0
   -4.3696    3.7137   -1.1161 H   0  0  0  0  0  0  0  0  0  0  0  0
   -2.8607    4.0897   -1.9957 H   0  0  0  0  0  0  0  0  0  0  0  0
   -4.7490    2.9679   -3.3405 H   0  0  0  0  0  0  0  0  0  0  0  0
   -3.1315    2.2507   -3.5080 H   0  0  0  0  0  0  0  0  0  0  0  0
   -4.8934    0.5287   -3.3736 H   0  0  0  0  0  0  0  0  0  0  0  0
   -3.7352    0.3818   -2.0596 H   0  0  0  0  0  0  0  0  0  0  0  0
   -7.4360    1.9944    0.0758 H   0  0  0  0  0  0  0  0  0  0  0  0
   -7.7130    1.5008    2.4668 H   0  0  0  0  0  0  0  0  0  0  0  0
   -6.1788   -0.0719    3.5986 H   0  0  0  0  0  0  0  0  0  0  0  0
   -4.3898   -1.1562    2.3645 H   0  0  0  0  0  0  0  0  0  0  0  0
   -3.7652   -4.8649    1.9342 H   0  0  0  0  0  0  0  0  0  0  0  0
   -1.4393   -5.3610    1.2207 H   0  0  0  0  0  0  0  0  0  0  0  0
   -0.2597   -3.7901   -0.2593 H   0  0  0  0  0  0  0  0  0  0  0  0
   -0.5477   -2.0563   -2.0014 H   0  0  0  0  0  0  0  0  0  0  0  0
   -1.8984   -0.9458   -1.9747 H   0  0  0  0  0  0  0  0  0  0  0  0
    4.6878   -1.6611    1.9206 H   0  0  0  0  0  0  0  0  0  0  0  0
    7.8361   -3.6075   -1.0809 H   0  0  0  0  0  0  0  0  0  0  0  0
    8.9205   -3.1546    0.3214 H   0  0  0  0  0  0  0  0  0  0  0  0
  1  2  1  0
  2  3  1  0
  3  4  2  0
  4  5  1  0
  5  6  1  0
  6  7  1  0
  7  8  1  0
  8  9  2  0
  8 10  1  0
 10 11  1  0
 11 12  1  0
 12 13  1  0
 13 14  1  0
 14 15  1  0
 15 16  1  0
 16 17  1  0
 17 18  1  0
 18 19  1  0
 19 20  2  0
 20 21  1  0
 21 22  2  0
 22 23  1  0
 23 24  2  0
 24 25  1  0
 25 26  1  0
 26 27  2  0
 27 28  1  0
 28 29  2  0
 29 30  1  0
 30 31  2  0
 31 32  1  0
  5 33  2  0
 33 34  1  0
 34 35  2  0
 35 36  1  0
 36 37  1  0
 37 38  1  0
 35  3  1  0
 32 11  1  0
 38 34  1  0
 24 19  1  0
 31 26  1  0
  1 39  1  0
  1 40  1  0
  1 41  1  0
  4 42  1  0
  6 43  1  0
  6 44  1  0
  7 45  1  0
 10 46  1  0
 10 47  1  0
 12 48  1  0
 12 49  1  0
 13 50  1  0
 13 51  1  0
 14 52  1  0
 14 53  1  0
 15 54  1  0
 15 55  1  0
 16 56  1  0
 16 57  1  0
 17 58  1  0
 17 59  1  0
 20 60  1  0
 21 61  1  0
 22 62  1  0
 23 63  1  0
 28 64  1  0
 29 65  1  0
 30 66  1  0
 32 67  1  0
 32 68  1  0
 33 69  1  0
 37 70  1  0
 37 71  1  0
M  END
$$$$
