
     RDKit          3D

 90 92  0  0  0  0  0  0  0  0999 V2000
    2.5134   -4.2999   -0.0295 C   0  0  0  0  0  0  0  0  0  0  0  0
    1.2122   -3.6833   -0.5709 C   0  0  1  0  0  0  0  0  0  0  0  0
    0.1970   -3.4209    0.5537 C   0  0  0  0  0  0  0  0  0  0  0  0
   -1.2507   -3.6994    0.1209 C   0  0  0  0  0  0  0  0  0  0  0  0
   -2.2361   -2.9231    1.0122 C   0  0  0  0  0  0  0  0  0  0  0  0
   -2.7005   -1.6032    0.3884 C   0  0  0  0  0  0  0  0  0  0  0  0
   -1.6211   -0.8344   -0.1370 O   0  0  0  0  0  0  0  0  0  0  0  0
   -1.9868    0.5390   -0.2774 C   0  0  2  0  0  0  0  0  0  0  0  0
   -3.2441    0.7158   -1.2035 C   0  0  0  0  0  0  0  0  0  0  0  0
   -4.5104    0.6273   -0.4333 N   0  0  0  0  0  0  0  0  0  0  0  0
   -4.8149    1.9206    0.2232 C   0  0  0  0  0  0  0  0  0  0  0  0
   -5.6295    0.2259   -1.3129 C   0  0  0  0  0  0  0  0  0  0  0  0
   -6.8149   -0.2252   -0.4940 C   0  0  0  0  0  0  0  0  0  0  0  0
   -7.9407    0.6045   -0.3611 C   0  0  0  0  0  0  0  0  0  0  0  0
   -9.0141    0.2101    0.4400 C   0  0  0  0  0  0  0  0  0  0  0  0
   -8.9743   -1.0169    1.1067 C   0  0  0  0  0  0  0  0  0  0  0  0
   -7.8617   -1.8526    0.9748 C   0  0  0  0  0  0  0  0  0  0  0  0
   -6.7816   -1.4580    0.1815 C   0  0  0  0  0  0  0  0  0  0  0  0
   -0.8018    1.3704   -0.8686 C   0  0  1  0  0  0  0  0  0  0  0  0
   -1.0994    2.8961   -0.8736 C   0  0  0  0  0  0  0  0  0  0  0  0
    0.6713    1.0675   -0.4075 C   0  0  0  0  0  0  0  0  0  0  0  0
    0.9277    0.3739    0.8864 N   0  0  0  0  0  0  0  0  0  0  0  0
    0.5759    0.9302    2.2267 C   0  0  2  0  0  0  0  0  0  0  0  0
   -0.4069    0.0142    2.9716 C   0  0  0  0  0  0  0  0  0  0  0  0
    0.0907    2.3909    2.2460 C   0  0  0  0  0  0  0  0  0  0  0  0
    1.0438    3.2518    1.6850 O   0  0  0  0  0  0  0  0  0  0  0  0
    2.0065   -0.6123    0.9091 C   0  0  0  0  0  0  0  0  0  0  0  0
    2.2512   -1.2599    1.9665 O   0  0  0  0  0  0  0  0  0  0  0  0
    2.9255   -0.8255   -0.2282 C   0  0  0  0  0  0  0  0  0  0  0  0
    4.1288   -0.1058   -0.2534 C   0  0  0  0  0  0  0  0  0  0  0  0
    5.0262   -0.2495   -1.3205 C   0  0  0  0  0  0  0  0  0  0  0  0
    6.2403    0.5163   -1.3790 N   0  0  0  0  0  0  0  0  0  0  0  0
    7.0285    0.8449   -0.2222 C   0  0  0  0  0  0  0  0  0  0  0  0
    6.8826    0.2022    0.8532 O   0  0  0  0  0  0  0  0  0  0  0  0
    8.0783    1.9133   -0.3107 C   0  0  0  0  0  0  0  0  0  0  0  0
    7.8726    2.9788    0.7777 C   0  0  0  0  0  0  0  0  0  0  0  0
    8.8521    4.1417    0.6292 C   0  0  0  0  0  0  0  0  0  0  0  0
    8.6374    5.0554    1.6459 F   0  0  0  0  0  0  0  0  0  0  0  0
    8.6612    4.7770   -0.5878 F   0  0  0  0  0  0  0  0  0  0  0  0
   10.1546    3.6840    0.7059 F   0  0  0  0  0  0  0  0  0  0  0  0
    4.6952   -1.1027   -2.3815 C   0  0  0  0  0  0  0  0  0  0  0  0
    3.5062   -1.8334   -2.3603 C   0  0  0  0  0  0  0  0  0  0  0  0
    2.6229   -1.7171   -1.2809 C   0  0  0  0  0  0  0  0  0  0  0  0
    1.4338   -2.4663   -1.3055 O   0  0  0  0  0  0  0  0  0  0  0  0
    2.2899   -5.2693    0.4724 H   0  0  0  0  0  0  0  0  0  0  0  0
    2.9997   -3.6207    0.7069 H   0  0  0  0  0  0  0  0  0  0  0  0
    3.2131   -4.5038   -0.8692 H   0  0  0  0  0  0  0  0  0  0  0  0
    0.7872   -4.4294   -1.2794 H   0  0  0  0  0  0  0  0  0  0  0  0
    0.2580   -2.3622    0.8540 H   0  0  0  0  0  0  0  0  0  0  0  0
    0.4200   -4.0294    1.4616 H   0  0  0  0  0  0  0  0  0  0  0  0
   -1.4437   -4.7974    0.2291 H   0  0  0  0  0  0  0  0  0  0  0  0
   -1.4103   -3.4367   -0.9545 H   0  0  0  0  0  0  0  0  0  0  0  0
   -1.8068   -2.7281    2.0207 H   0  0  0  0  0  0  0  0  0  0  0  0
   -3.1353   -3.5550    1.1760 H   0  0  0  0  0  0  0  0  0  0  0  0
   -3.2629   -1.0581    1.1790 H   0  0  0  0  0  0  0  0  0  0  0  0
   -3.4010   -1.8639   -0.4335 H   0  0  0  0  0  0  0  0  0  0  0  0
   -2.2072    0.9548    0.7211 H   0  0  0  0  0  0  0  0  0  0  0  0
   -3.2278    1.6698   -1.7700 H   0  0  0  0  0  0  0  0  0  0  0  0
   -3.1859   -0.0772   -1.9852 H   0  0  0  0  0  0  0  0  0  0  0  0
   -4.9430    2.7310   -0.5223 H   0  0  0  0  0  0  0  0  0  0  0  0
   -4.0143    2.2149    0.9304 H   0  0  0  0  0  0  0  0  0  0  0  0
   -5.7340    1.8394    0.8283 H   0  0  0  0  0  0  0  0  0  0  0  0
   -5.3293   -0.6313   -1.9539 H   0  0  0  0  0  0  0  0  0  0  0  0
   -5.9043    1.0559   -2.0019 H   0  0  0  0  0  0  0  0  0  0  0  0
   -7.9798    1.5628   -0.8677 H   0  0  0  0  0  0  0  0  0  0  0  0
   -9.8747    0.8577    0.5503 H   0  0  0  0  0  0  0  0  0  0  0  0
   -9.8026   -1.3151    1.7337 H   0  0  0  0  0  0  0  0  0  0  0  0
   -7.8324   -2.8008    1.4972 H   0  0  0  0  0  0  0  0  0  0  0  0
   -5.9203   -2.1088    0.0890 H   0  0  0  0  0  0  0  0  0  0  0  0
   -0.7966    1.0967   -1.9519 H   0  0  0  0  0  0  0  0  0  0  0  0
   -1.4498    3.2146   -1.8775 H   0  0  0  0  0  0  0  0  0  0  0  0
   -1.8973    3.1697   -0.1589 H   0  0  0  0  0  0  0  0  0  0  0  0
   -0.2160    3.5184   -0.6402 H   0  0  0  0  0  0  0  0  0  0  0  0
    1.3079    1.9721   -0.4515 H   0  0  0  0  0  0  0  0  0  0  0  0
    1.0774    0.4517   -1.2319 H   0  0  0  0  0  0  0  0  0  0  0  0
    1.5015    0.9481    2.8475 H   0  0  0  0  0  0  0  0  0  0  0  0
   -1.4044    0.0170    2.5087 H   0  0  0  0  0  0  0  0  0  0  0  0
   -0.5193    0.3502    4.0223 H   0  0  0  0  0  0  0  0  0  0  0  0
   -0.0420   -1.0305    2.9896 H   0  0  0  0  0  0  0  0  0  0  0  0
   -0.8707    2.4964    1.7217 H   0  0  0  0  0  0  0  0  0  0  0  0
   -0.1105    2.7020    3.2971 H   0  0  0  0  0  0  0  0  0  0  0  0
    1.7854    3.3268    2.3427 H   0  0  0  0  0  0  0  0  0  0  0  0
    4.3483    0.5921    0.5454 H   0  0  0  0  0  0  0  0  0  0  0  0
    6.6057    0.7898   -2.3208 H   0  0  0  0  0  0  0  0  0  0  0  0
    8.0255    2.3972   -1.3101 H   0  0  0  0  0  0  0  0  0  0  0  0
    9.0798    1.4393   -0.2035 H   0  0  0  0  0  0  0  0  0  0  0  0
    6.8340    3.3760    0.7159 H   0  0  0  0  0  0  0  0  0  0  0  0
    8.0081    2.5115    1.7796 H   0  0  0  0  0  0  0  0  0  0  0  0
    5.3645   -1.2060   -3.2258 H   0  0  0  0  0  0  0  0  0  0  0  0
    3.2700   -2.4949   -3.1846 H   0  0  0  0  0  0  0  0  0  0  0  0
  1  2  1  0
  2  3  1  0
  3  4  1  0
  4  5  1  0
  5  6  1  0
  6  7  1  0
  7  8  1  0
  8  9  1  0
  9 10  1  0
 10 11  1  0
 10 12  1  0
 12 13  1  0
 13 14  2  0
 14 15  1  0
 15 16  2  0
 16 17  1  0
 17 18  2  0
  8 19  1  0
 19 20  1  0
 19 21  1  0
 21 22  1  0
 22 23  1  0
 23 24  1  0
 23 25  1  0
 25 26  1  0
 22 27  1  0
 27 28  2  0
 27 29  1  0
 29 30  2  0
 30 31  1  0
 31 32  1  0
 32 33  1  0
 33 34  2  0
 33 35  1  0
 35 36  1  0
 36 37  1  0
 37 38  1  0
 37 39  1  0
 37 40  1  0
 31 41  2  0
 41 42  1  0
 42 43  2  0
 43 44  1  0
 44  2  1  0
 18 13  1  0
 43 29  1  0
  1 45  1  0
  1 46  1  0
  1 47  1  0
  2 48  1  6
  3 49  1  0
  3 50  1  0
  4 51  1  0
  4 52  1  0
  5 53  1  0
  5 54  1  0
  6 55  1  0
  6 56  1  0
  8 57  1  1
  9 58  1  0
  9 59  1  0
 11 60  1  0
 11 61  1  0
 11 62  1  0
 12 63  1  0
 12 64  1  0
 14 65  1  0
 15 66  1  0
 16 67  1  0
 17 68  1  0
 18 69  1  0
 19 70  1  6
 20 71  1  0
 20 72  1  0
 20 73  1  0
 21 74  1  0
 21 75  1  0
 23 76  1  1
 24 77  1  0
 24 78  1  0
 24 79  1  0
 25 80  1  0
 25 81  1  0
 26 82  1  0
 30 83  1  0
 32 84  1  0
 35 85  1  0
 35 86  1  0
 36 87  1  0
 36 88  1  0
 41 89  1  0
 42 90  1  0
M  END
$$$$
