
     RDKit          3D

115117  0  0  0  0  0  0  0  0999 V2000
    2.8772    0.3843    1.9228 C   0  0  0  0  0  0  0  0  0  0  0  0
    3.7389    0.8712    0.7580 C   0  0  0  0  0  0  0  0  0  0  0  0
    3.8435   -0.1809   -0.3912 C   0  0  1  0  0  0  0  0  0  0  0  0
    3.7278    0.4663   -1.6704 O   0  0  0  0  0  0  0  0  0  0  0  0
    2.6380    1.2588   -2.0624 C   0  0  0  0  0  0  0  0  0  0  0  0
    2.7777    2.5103   -2.1015 O   0  0  0  0  0  0  0  0  0  0  0  0
    1.3341    0.6334   -2.5030 C   0  0  2  0  0  0  0  0  0  0  0  0
    0.9037    1.2050   -3.8646 C   0  0  0  0  0  0  0  0  0  0  0  0
    0.2306    0.7905   -1.4121 C   0  0  1  0  0  0  0  0  0  0  0  0
   -0.1329    2.1665   -1.3090 O   0  0  0  0  0  0  0  0  0  0  0  0
    0.1524    2.7096   -0.0324 C   0  0  0  0  0  0  0  0  0  0  0  0
    0.2684    4.2335   -0.1775 C   0  0  0  0  0  0  0  0  0  0  0  0
    0.5863    4.8792    1.1960 C   0  0  0  0  0  0  0  0  0  0  0  0
    0.5280    6.4273    1.0926 C   0  0  0  0  0  0  0  0  0  0  0  0
    1.8397    4.4077    1.7028 O   0  0  0  0  0  0  0  0  0  0  0  0
    2.9821    4.9852    1.0981 C   0  0  0  0  0  0  0  0  0  0  0  0
   -0.4883    4.3878    2.2097 C   0  0  0  0  0  0  0  0  0  0  0  0
   -1.7453    4.9917    1.9930 O   0  0  0  0  0  0  0  0  0  0  0  0
   -0.5861    2.8351    2.1783 C   0  0  0  0  0  0  0  0  0  0  0  0
   -1.6507    2.3379    3.1593 C   0  0  0  0  0  0  0  0  0  0  0  0
   -0.8913    2.3704    0.8715 O   0  0  0  0  0  0  0  0  0  0  0  0
   -1.0427   -0.1131   -1.6930 C   0  0  2  0  0  0  0  0  0  0  0  0
   -2.2490    0.7218   -2.1629 C   0  0  0  0  0  0  0  0  0  0  0  0
   -1.3965   -1.0818   -0.4845 C   0  0  1  0  0  0  0  0  0  0  0  0
   -2.8026   -1.0598   -0.1935 O   0  0  0  0  0  0  0  0  0  0  0  0
   -3.1063   -0.8504    1.1881 C   0  0  0  0  0  0  0  0  0  0  0  0
   -3.3386   -2.0877    1.8543 O   0  0  0  0  0  0  0  0  0  0  0  0
   -4.6000   -2.6984    1.5909 C   0  0  0  0  0  0  0  0  0  0  0  0
   -4.6122   -3.4706    0.2681 C   0  0  0  0  0  0  0  0  0  0  0  0
   -5.8042   -1.7476    1.7307 C   0  0  0  0  0  0  0  0  0  0  0  0
   -5.5958   -0.4560    0.9260 C   0  0  0  0  0  0  0  0  0  0  0  0
   -6.6871    0.5140    1.1534 N   0  0  0  0  0  0  0  0  0  0  0  0
   -7.8507    0.2341    0.3084 C   0  0  0  0  0  0  0  0  0  0  0  0
   -4.2657    0.1560    1.3656 C   0  0  0  0  0  0  0  0  0  0  0  0
   -3.9967    1.3163    0.6242 O   0  0  0  0  0  0  0  0  0  0  0  0
   -0.9195   -2.5685   -0.7331 C   0  0  2  0  0  0  0  0  0  0  0  0
   -1.7581   -3.2327   -1.8576 C   0  0  0  0  0  0  0  0  0  0  0  0
   -1.1135   -3.3057    0.4514 O   0  0  0  0  0  0  0  0  0  0  0  0
    0.5919   -2.5883   -1.1387 C   0  0  0  0  0  0  0  0  0  0  0  0
    1.4800   -3.7913   -0.7580 C   0  0  1  0  0  0  0  0  0  0  0  0
    0.8881   -5.1394   -1.1937 C   0  0  0  0  0  0  0  0  0  0  0  0
    2.8440   -3.6038   -1.4280 C   0  0  0  0  0  0  0  0  0  0  0  0
    2.8708   -3.6275   -2.6518 O   0  0  0  0  0  0  0  0  0  0  0  0
    4.1849   -3.5180   -0.6900 C   0  0  2  0  0  0  0  0  0  0  0  0
    4.0793   -3.7019    0.8301 C   0  0  0  0  0  0  0  0  0  0  0  0
    5.1367   -2.3357   -1.1447 C   0  0  1  0  0  0  0  0  0  0  0  0
    4.9383   -2.0300   -2.5049 O   0  0  0  0  0  0  0  0  0  0  0  0
    5.1840   -0.9936   -0.3159 C   0  0  1  0  0  0  0  0  0  0  0  0
    6.3452   -0.1163   -0.8715 C   0  0  0  0  0  0  0  0  0  0  0  0
    5.4699   -1.2784    1.0358 O   0  0  0  0  0  0  0  0  0  0  0  0
    1.8453    0.1646    1.5763 H   0  0  0  0  0  0  0  0  0  0  0  0
    2.8236    1.1754    2.7016 H   0  0  0  0  0  0  0  0  0  0  0  0
    3.3118   -0.5341    2.3712 H   0  0  0  0  0  0  0  0  0  0  0  0
    4.7346    1.1447    1.1531 H   0  0  0  0  0  0  0  0  0  0  0  0
    3.3161    1.8207    0.3888 H   0  0  0  0  0  0  0  0  0  0  0  0
    3.0114   -0.8955   -0.2948 H   0  0  0  0  0  0  0  0  0  0  0  0
    1.5464   -0.4414   -2.6584 H   0  0  0  0  0  0  0  0  0  0  0  0
    0.6208    2.2766   -3.7778 H   0  0  0  0  0  0  0  0  0  0  0  0
    1.7375    1.1161   -4.5955 H   0  0  0  0  0  0  0  0  0  0  0  0
    0.0406    0.6386   -4.2720 H   0  0  0  0  0  0  0  0  0  0  0  0
    0.7188    0.4212   -0.4862 H   0  0  0  0  0  0  0  0  0  0  0  0
    1.1315    2.3451    0.3420 H   0  0  0  0  0  0  0  0  0  0  0  0
   -0.6854    4.6330   -0.5876 H   0  0  0  0  0  0  0  0  0  0  0  0
    1.0483    4.4715   -0.9289 H   0  0  0  0  0  0  0  0  0  0  0  0
    1.2225    6.8047    0.3137 H   0  0  0  0  0  0  0  0  0  0  0  0
   -0.4848    6.7778    0.8016 H   0  0  0  0  0  0  0  0  0  0  0  0
    0.7962    6.8884    2.0659 H   0  0  0  0  0  0  0  0  0  0  0  0
    2.9324    5.0124   -0.0073 H   0  0  0  0  0  0  0  0  0  0  0  0
    3.1694    5.9995    1.5077 H   0  0  0  0  0  0  0  0  0  0  0  0
    3.8607    4.3633    1.3633 H   0  0  0  0  0  0  0  0  0  0  0  0
   -0.1537    4.6861    3.2292 H   0  0  0  0  0  0  0  0  0  0  0  0
   -2.1492    4.6003    1.1762 H   0  0  0  0  0  0  0  0  0  0  0  0
    0.3830    2.3996    2.5185 H   0  0  0  0  0  0  0  0  0  0  0  0
   -1.4732    2.7664    4.1706 H   0  0  0  0  0  0  0  0  0  0  0  0
   -1.5927    1.2336    3.2468 H   0  0  0  0  0  0  0  0  0  0  0  0
   -2.6691    2.6230    2.8172 H   0  0  0  0  0  0  0  0  0  0  0  0
   -0.8239   -0.7457   -2.5753 H   0  0  0  0  0  0  0  0  0  0  0  0
   -3.1004    0.0617   -2.4364 H   0  0  0  0  0  0  0  0  0  0  0  0
   -2.5668    1.4303   -1.3749 H   0  0  0  0  0  0  0  0  0  0  0  0
   -1.9813    1.3137   -3.0636 H   0  0  0  0  0  0  0  0  0  0  0  0
   -0.8025   -0.7341    0.3847 H   0  0  0  0  0  0  0  0  0  0  0  0
   -2.2726   -0.3615    1.7347 H   0  0  0  0  0  0  0  0  0  0  0  0
   -4.7323   -3.4726    2.3807 H   0  0  0  0  0  0  0  0  0  0  0  0
   -3.7013   -4.1011    0.1835 H   0  0  0  0  0  0  0  0  0  0  0  0
   -5.4961   -4.1432    0.2389 H   0  0  0  0  0  0  0  0  0  0  0  0
   -4.6817   -2.7852   -0.5975 H   0  0  0  0  0  0  0  0  0  0  0  0
   -6.7286   -2.2673    1.3994 H   0  0  0  0  0  0  0  0  0  0  0  0
   -5.9302   -1.5021    2.8086 H   0  0  0  0  0  0  0  0  0  0  0  0
   -5.5199   -0.6955   -0.1582 H   0  0  0  0  0  0  0  0  0  0  0  0
   -6.9875    0.4935    2.1566 H   0  0  0  0  0  0  0  0  0  0  0  0
   -8.2832   -0.7653    0.5335 H   0  0  0  0  0  0  0  0  0  0  0  0
   -7.5708    0.2903   -0.7650 H   0  0  0  0  0  0  0  0  0  0  0  0
   -8.6302    1.0013    0.4951 H   0  0  0  0  0  0  0  0  0  0  0  0
   -4.3305    0.4146    2.4533 H   0  0  0  0  0  0  0  0  0  0  0  0
   -4.5153    2.0555    1.0373 H   0  0  0  0  0  0  0  0  0  0  0  0
   -1.7424   -4.3386   -1.7640 H   0  0  0  0  0  0  0  0  0  0  0  0
   -2.8154   -2.9103   -1.8305 H   0  0  0  0  0  0  0  0  0  0  0  0
   -1.3839   -2.9756   -2.8723 H   0  0  0  0  0  0  0  0  0  0  0  0
   -0.5518   -2.9002    1.1634 H   0  0  0  0  0  0  0  0  0  0  0  0
    0.6774   -2.4270   -2.2340 H   0  0  0  0  0  0  0  0  0  0  0  0
    1.0729   -1.7355   -0.6419 H   0  0  0  0  0  0  0  0  0  0  0  0
    1.5669   -3.8104    0.3460 H   0  0  0  0  0  0  0  0  0  0  0  0
    0.6073   -5.1205   -2.2684 H   0  0  0  0  0  0  0  0  0  0  0  0
    1.6305   -5.9509   -1.0374 H   0  0  0  0  0  0  0  0  0  0  0  0
   -0.0028   -5.3940   -0.5826 H   0  0  0  0  0  0  0  0  0  0  0  0
    4.7124   -4.4413   -1.0232 H   0  0  0  0  0  0  0  0  0  0  0  0
    3.5083   -2.8711    1.2935 H   0  0  0  0  0  0  0  0  0  0  0  0
    5.0900   -3.7595    1.2849 H   0  0  0  0  0  0  0  0  0  0  0  0
    3.5749   -4.6620    1.0658 H   0  0  0  0  0  0  0  0  0  0  0  0
    6.1669   -2.7578   -1.0436 H   0  0  0  0  0  0  0  0  0  0  0  0
    5.3801   -2.7431   -3.0365 H   0  0  0  0  0  0  0  0  0  0  0  0
    7.3133   -0.6555   -0.7933 H   0  0  0  0  0  0  0  0  0  0  0  0
    6.1921    0.1420   -1.9422 H   0  0  0  0  0  0  0  0  0  0  0  0
    6.4465    0.8289   -0.3008 H   0  0  0  0  0  0  0  0  0  0  0  0
    6.3614   -1.7131    1.0836 H   0  0  0  0  0  0  0  0  0  0  0  0
  1  2  1  0
  2  3  1  0
  3  4  1  0
  4  5  1  0
  5  6  2  0
  5  7  1  0
  7  8  1  0
  7  9  1  0
  9 10  1  0
 10 11  1  0
 11 12  1  0
 12 13  1  0
 13 14  1  0
 13 15  1  0
 15 16  1  0
 13 17  1  0
 17 18  1  0
 17 19  1  0
 19 20  1  0
 19 21  1  0
  9 22  1  0
 22 23  1  0
 22 24  1  0
 24 25  1  0
 25 26  1  0
 26 27  1  0
 27 28  1  0
 28 29  1  0
 28 30  1  0
 30 31  1  0
 31 32  1  0
 32 33  1  0
 31 34  1  0
 34 35  1  0
 24 36  1  0
 36 37  1  0
 36 38  1  1
 36 39  1  0
 39 40  1  0
 40 41  1  0
 40 42  1  0
 42 43  2  0
 42 44  1  0
 44 45  1  0
 44 46  1  0
 46 47  1  0
 46 48  1  0
 48 49  1  0
 48 50  1  1
 48  3  1  0
 21 11  1  0
 34 26  1  0
  1 51  1  0
  1 52  1  0
  1 53  1  0
  2 54  1  0
  2 55  1  0
  3 56  1  1
  7 57  1  6
  8 58  1  0
  8 59  1  0
  8 60  1  0
  9 61  1  1
 11 62  1  0
 12 63  1  0
 12 64  1  0
 14 65  1  0
 14 66  1  0
 14 67  1  0
 16 68  1  0
 16 69  1  0
 16 70  1  0
 17 71  1  0
 18 72  1  0
 19 73  1  0
 20 74  1  0
 20 75  1  0
 20 76  1  0
 22 77  1  6
 23 78  1  0
 23 79  1  0
 23 80  1  0
 24 81  1  1
 26 82  1  0
 28 83  1  0
 29 84  1  0
 29 85  1  0
 29 86  1  0
 30 87  1  0
 30 88  1  0
 31 89  1  0
 32 90  1  0
 33 91  1  0
 33 92  1  0
 33 93  1  0
 34 94  1  0
 35 95  1  0
 37 96  1  0
 37 97  1  0
 37 98  1  0
 38 99  1  0
 39100  1  0
 39101  1  0
 40102  1  1
 41103  1  0
 41104  1  0
 41105  1  0
 44106  1  6
 45107  1  0
 45108  1  0
 45109  1  0
 46110  1  6
 47111  1  0
 49112  1  0
 49113  1  0
 49114  1  0
 50115  1  0
M  END
$$$$
