
     RDKit          3D

 84 86  0  0  0  0  0  0  0  0999 V2000
   -1.5135   -4.2379   -1.4831 C   0  0  0  0  0  0  0  0  0  0  0  0
   -0.5336   -4.6178   -0.3662 C   0  0  0  0  0  0  0  0  0  0  0  0
   -0.8306   -6.0470    0.1127 C   0  0  0  0  0  0  0  0  0  0  0  0
   -0.6012   -3.6362    0.8303 C   0  0  0  0  0  0  0  0  0  0  0  0
    0.1133   -2.2799    0.5971 C   0  0  2  0  0  0  0  0  0  0  0  0
    0.4730   -1.6799    1.8914 N   0  0  0  0  0  0  0  0  0  0  0  0
    1.3373   -0.5420    2.0595 C   0  0  0  0  0  0  0  0  0  0  0  0
    1.1941    0.1732    3.0901 O   0  0  0  0  0  0  0  0  0  0  0  0
    2.4058   -0.1648    1.0452 C   0  0  2  0  0  0  0  0  0  0  0  0
    3.6991    0.2294    1.8042 C   0  0  0  0  0  0  0  0  0  0  0  0
    4.9259    0.2482    0.9278 C   0  0  0  0  0  0  0  0  0  0  0  0
    5.4037   -0.9404    0.3500 C   0  0  0  0  0  0  0  0  0  0  0  0
    6.5332   -0.9208   -0.4742 C   0  0  0  0  0  0  0  0  0  0  0  0
    7.2056    0.2839   -0.7186 C   0  0  0  0  0  0  0  0  0  0  0  0
    8.3277    0.3167   -1.5464 O   0  0  0  0  0  0  0  0  0  0  0  0
    6.7482    1.4654   -0.1272 C   0  0  0  0  0  0  0  0  0  0  0  0
    5.6186    1.4494    0.6977 C   0  0  0  0  0  0  0  0  0  0  0  0
    1.9197    0.9549    0.2092 N   0  0  0  0  0  0  0  0  0  0  0  0
    2.5516    0.9949   -1.1195 C   0  0  0  0  0  0  0  0  0  0  0  0
    1.7767    1.8906   -2.1001 C   0  0  0  0  0  0  0  0  0  0  0  0
    1.7035    3.3776   -1.6843 C   0  0  0  0  0  0  0  0  0  0  0  0
    0.4083    3.7407   -0.9334 C   0  0  0  0  0  0  0  0  0  0  0  0
    0.5185    3.4772    0.5024 N   0  0  0  0  0  0  0  0  0  0  0  0
   -0.6029    3.3709    1.3973 C   0  0  0  0  0  0  0  0  0  0  0  0
   -0.3820    3.1080    2.6107 O   0  0  0  0  0  0  0  0  0  0  0  0
   -2.0316    3.6178    0.9573 C   0  0  2  0  0  0  0  0  0  0  0  0
   -2.4185    5.0644    1.2774 C   0  0  0  0  0  0  0  0  0  0  0  0
   -2.9372    2.6845    1.6388 N   0  0  0  0  0  0  0  0  0  0  0  0
   -3.0722    1.2910    1.3070 C   0  0  0  0  0  0  0  0  0  0  0  0
   -3.8712    0.5892    1.9839 O   0  0  0  0  0  0  0  0  0  0  0  0
   -2.3381    0.6576    0.1379 C   0  0  2  0  0  0  0  0  0  0  0  0
   -3.1995    0.6844   -1.1406 C   0  0  0  0  0  0  0  0  0  0  0  0
   -4.4152   -0.2054   -1.0537 C   0  0  0  0  0  0  0  0  0  0  0  0
   -5.6375    0.2996   -0.5765 C   0  0  0  0  0  0  0  0  0  0  0  0
   -6.7546   -0.5366   -0.4738 C   0  0  0  0  0  0  0  0  0  0  0  0
   -6.6600   -1.8795   -0.8496 C   0  0  0  0  0  0  0  0  0  0  0  0
   -5.4496   -2.3877   -1.3307 C   0  0  0  0  0  0  0  0  0  0  0  0
   -4.3306   -1.5546   -1.4328 C   0  0  0  0  0  0  0  0  0  0  0  0
   -1.8978   -0.7079    0.4643 N   0  0  0  0  0  0  0  0  0  0  0  0
   -0.7523   -1.3060   -0.1636 C   0  0  0  0  0  0  0  0  0  0  0  0
   -0.4245   -0.9679   -1.3332 O   0  0  0  0  0  0  0  0  0  0  0  0
   -1.5515   -5.0395   -2.2539 H   0  0  0  0  0  0  0  0  0  0  0  0
   -2.5363   -4.0990   -1.0723 H   0  0  0  0  0  0  0  0  0  0  0  0
   -1.1870   -3.3124   -1.9964 H   0  0  0  0  0  0  0  0  0  0  0  0
    0.4955   -4.6189   -0.7903 H   0  0  0  0  0  0  0  0  0  0  0  0
   -1.8461   -6.1082    0.5566 H   0  0  0  0  0  0  0  0  0  0  0  0
   -0.0838   -6.3616    0.8734 H   0  0  0  0  0  0  0  0  0  0  0  0
   -0.7674   -6.7639   -0.7354 H   0  0  0  0  0  0  0  0  0  0  0  0
   -0.0904   -4.1257    1.6907 H   0  0  0  0  0  0  0  0  0  0  0  0
   -1.6566   -3.4824    1.1467 H   0  0  0  0  0  0  0  0  0  0  0  0
    1.0398   -2.4866    0.0208 H   0  0  0  0  0  0  0  0  0  0  0  0
   -0.0616   -1.9831    2.7371 H   0  0  0  0  0  0  0  0  0  0  0  0
    2.6271   -1.0583    0.4274 H   0  0  0  0  0  0  0  0  0  0  0  0
    3.5522    1.2190    2.2923 H   0  0  0  0  0  0  0  0  0  0  0  0
    3.8897   -0.5045    2.6190 H   0  0  0  0  0  0  0  0  0  0  0  0
    4.8991   -1.8816    0.5315 H   0  0  0  0  0  0  0  0  0  0  0  0
    6.8832   -1.8421   -0.9217 H   0  0  0  0  0  0  0  0  0  0  0  0
    8.6807   -0.5227   -1.9924 H   0  0  0  0  0  0  0  0  0  0  0  0
    7.2661    2.3987   -0.3097 H   0  0  0  0  0  0  0  0  0  0  0  0
    5.2748    2.3765    1.1406 H   0  0  0  0  0  0  0  0  0  0  0  0
    0.8927    0.8352    0.0577 H   0  0  0  0  0  0  0  0  0  0  0  0
    3.5818    1.3909   -1.0397 H   0  0  0  0  0  0  0  0  0  0  0  0
    2.6033   -0.0256   -1.5632 H   0  0  0  0  0  0  0  0  0  0  0  0
    2.3093    1.8399   -3.0740 H   0  0  0  0  0  0  0  0  0  0  0  0
    0.7640    1.4674   -2.2828 H   0  0  0  0  0  0  0  0  0  0  0  0
    2.6032    3.6794   -1.1051 H   0  0  0  0  0  0  0  0  0  0  0  0
    1.7188    3.9837   -2.6164 H   0  0  0  0  0  0  0  0  0  0  0  0
    0.1949    4.8218   -1.0732 H   0  0  0  0  0  0  0  0  0  0  0  0
   -0.4295    3.1704   -1.3790 H   0  0  0  0  0  0  0  0  0  0  0  0
    1.4708    3.4210    0.9310 H   0  0  0  0  0  0  0  0  0  0  0  0
   -2.1619    3.4909   -0.1346 H   0  0  0  0  0  0  0  0  0  0  0  0
   -1.7475    5.7688    0.7391 H   0  0  0  0  0  0  0  0  0  0  0  0
   -2.3408    5.2596    2.3709 H   0  0  0  0  0  0  0  0  0  0  0  0
   -3.4646    5.2569    0.9538 H   0  0  0  0  0  0  0  0  0  0  0  0
   -3.4821    3.0297    2.4640 H   0  0  0  0  0  0  0  0  0  0  0  0
   -1.4315    1.2585   -0.0655 H   0  0  0  0  0  0  0  0  0  0  0  0
   -2.5754    0.3772   -2.0073 H   0  0  0  0  0  0  0  0  0  0  0  0
   -3.5163    1.7305   -1.3495 H   0  0  0  0  0  0  0  0  0  0  0  0
   -5.7245    1.3372   -0.2788 H   0  0  0  0  0  0  0  0  0  0  0  0
   -7.6913   -0.1441   -0.1004 H   0  0  0  0  0  0  0  0  0  0  0  0
   -7.5235   -2.5276   -0.7665 H   0  0  0  0  0  0  0  0  0  0  0  0
   -5.3776   -3.4282   -1.6227 H   0  0  0  0  0  0  0  0  0  0  0  0
   -3.4010   -1.9547   -1.8144 H   0  0  0  0  0  0  0  0  0  0  0  0
   -2.3085   -1.1997    1.2901 H   0  0  0  0  0  0  0  0  0  0  0  0
  1  2  1  0
  2  3  1  0
  2  4  1  0
  4  5  1  0
  5  6  1  0
  6  7  1  0
  7  8  2  0
  7  9  1  0
  9 10  1  0
 10 11  1  0
 11 12  2  0
 12 13  1  0
 13 14  2  0
 14 15  1  0
 14 16  1  0
 16 17  2  0
  9 18  1  0
 18 19  1  0
 19 20  1  0
 20 21  1  0
 21 22  1  0
 22 23  1  0
 23 24  1  0
 24 25  2  0
 24 26  1  0
 26 27  1  0
 26 28  1  0
 28 29  1  0
 29 30  2  0
 29 31  1  0
 31 32  1  0
 32 33  1  0
 33 34  2  0
 34 35  1  0
 35 36  2  0
 36 37  1  0
 37 38  2  0
 31 39  1  0
 39 40  1  0
 40 41  2  0
 40  5  1  0
 17 11  1  0
 38 33  1  0
  1 42  1  0
  1 43  1  0
  1 44  1  0
  2 45  1  0
  3 46  1  0
  3 47  1  0
  3 48  1  0
  4 49  1  0
  4 50  1  0
  5 51  1  6
  6 52  1  0
  9 53  1  6
 10 54  1  0
 10 55  1  0
 12 56  1  0
 13 57  1  0
 15 58  1  0
 16 59  1  0
 17 60  1  0
 18 61  1  0
 19 62  1  0
 19 63  1  0
 20 64  1  0
 20 65  1  0
 21 66  1  0
 21 67  1  0
 22 68  1  0
 22 69  1  0
 23 70  1  0
 26 71  1  6
 27 72  1  0
 27 73  1  0
 27 74  1  0
 28 75  1  0
 31 76  1  6
 32 77  1  0
 32 78  1  0
 34 79  1  0
 35 80  1  0
 36 81  1  0
 37 82  1  0
 38 83  1  0
 39 84  1  0
M  END
$$$$
