
     RDKit          3D

139141  0  0  0  0  0  0  0  0999 V2000
   11.0215    2.1071    2.0742 C   0  0  0  0  0  0  0  0  0  0  0  0
   10.7005    1.0872    1.5170 C   0  0  0  0  0  0  0  0  0  0  0  0
   10.3098   -0.1561    0.8399 C   0  0  0  0  0  0  0  0  0  0  0  0
    8.7869   -0.2431    0.6687 C   0  0  0  0  0  0  0  0  0  0  0  0
    8.0688   -0.5099    1.9989 C   0  0  0  0  0  0  0  0  0  0  0  0
    6.6192   -0.5108    1.8098 N   0  0  0  0  0  0  0  0  0  0  0  0
    5.9226   -1.5496    1.1097 C   0  0  0  0  0  0  0  0  0  0  0  0
    6.5409   -2.5800    0.7241 O   0  0  0  0  0  0  0  0  0  0  0  0
    4.5525   -1.3905    0.8493 O   0  0  0  0  0  0  0  0  0  0  0  0
    3.7819   -2.2419    0.0028 C   0  0  0  0  0  0  0  0  0  0  0  0
    3.2606   -1.4474   -1.2467 C   0  0  0  0  0  0  0  0  0  0  0  0
    4.1851   -1.6623   -2.4718 C   0  0  0  0  0  0  0  0  0  0  0  0
    3.0111    0.0058   -0.9652 N   0  0  0  0  0  0  0  0  0  0  0  0
    4.2125    0.8701   -1.0918 C   0  0  0  0  0  0  0  0  0  0  0  0
    1.9328    0.5308   -1.8436 C   0  0  0  0  0  0  0  0  0  0  0  0
    1.2448    1.8298   -1.3176 C   0  0  0  0  0  0  0  0  0  0  0  0
    1.1286    1.8329    0.2158 C   0  0  0  0  0  0  0  0  0  0  0  0
   -0.0813    2.0414   -2.1377 C   0  0  0  0  0  0  0  0  0  0  0  0
   -1.3457    2.7872   -1.5852 C   0  0  0  0  0  0  0  0  0  0  0  0
   -0.9553    4.1944   -1.0639 C   0  0  0  0  0  0  0  0  0  0  0  0
   -2.2275    2.9718   -2.6750 O   0  0  0  0  0  0  0  0  0  0  0  0
   -2.1655    1.9783   -0.4991 C   0  0  0  0  0  0  0  0  0  0  0  0
   -3.3275    2.7543   -0.1836 O   0  0  0  0  0  0  0  0  0  0  0  0
   -3.3125    3.3200    1.1233 C   0  0  0  0  0  0  0  0  0  0  0  0
   -4.0170    2.4722    2.0342 O   0  0  0  0  0  0  0  0  0  0  0  0
   -5.3857    2.8003    2.2686 C   0  0  0  0  0  0  0  0  0  0  0  0
   -6.3011    2.3558    1.1157 C   0  0  0  0  0  0  0  0  0  0  0  0
   -5.6276    4.2737    2.7034 C   0  0  0  0  0  0  0  0  0  0  0  0
   -4.3885    5.1520    2.4518 C   0  0  0  0  0  0  0  0  0  0  0  0
   -4.5968    6.6152    2.6497 N   0  0  0  0  0  0  0  0  0  0  0  0
   -5.0069    6.9297    4.0308 C   0  0  0  0  0  0  0  0  0  0  0  0
   -5.4952    7.2819    1.6849 C   0  0  0  0  0  0  0  0  0  0  0  0
   -3.7996    4.7936    1.0805 C   0  0  0  0  0  0  0  0  0  0  0  0
   -4.7577    4.9673    0.0665 O   0  0  0  0  0  0  0  0  0  0  0  0
   -2.6155    0.5384   -1.0008 C   0  0  0  0  0  0  0  0  0  0  0  0
   -4.0859    0.2153   -0.6801 C   0  0  0  0  0  0  0  0  0  0  0  0
   -1.6766   -0.6413   -0.5227 C   0  0  0  0  0  0  0  0  0  0  0  0
   -2.0223   -1.8489   -1.1893 O   0  0  0  0  0  0  0  0  0  0  0  0
   -1.4808   -1.9579   -2.4942 C   0  0  0  0  0  0  0  0  0  0  0  0
   -2.5324   -2.5985   -3.4115 C   0  0  0  0  0  0  0  0  0  0  0  0
   -2.9027   -4.0336   -2.9596 C   0  0  0  0  0  0  0  0  0  0  0  0
   -3.4079   -4.8026   -4.2145 C   0  0  0  0  0  0  0  0  0  0  0  0
   -3.9483   -3.8915   -1.9905 O   0  0  0  0  0  0  0  0  0  0  0  0
   -4.5836   -5.1063   -1.6383 C   0  0  0  0  0  0  0  0  0  0  0  0
   -1.6443   -4.7327   -2.3270 C   0  0  0  0  0  0  0  0  0  0  0  0
   -1.7487   -4.7263   -0.9221 O   0  0  0  0  0  0  0  0  0  0  0  0
   -0.3001   -4.0512   -2.7094 C   0  0  0  0  0  0  0  0  0  0  0  0
    0.1768   -4.3563   -4.1348 C   0  0  0  0  0  0  0  0  0  0  0  0
   -0.2400   -2.6508   -2.4461 O   0  0  0  0  0  0  0  0  0  0  0  0
   -1.7394   -0.8846    1.0297 C   0  0  0  0  0  0  0  0  0  0  0  0
   -2.5953   -2.0937    1.4322 C   0  0  0  0  0  0  0  0  0  0  0  0
   -0.3915   -1.0148    1.7082 C   0  0  0  0  0  0  0  0  0  0  0  0
   -0.3130   -0.6193    2.9032 O   0  0  0  0  0  0  0  0  0  0  0  0
    0.7385   -1.5776    1.0732 O   0  0  0  0  0  0  0  0  0  0  0  0
    1.7470   -2.3194    1.7919 C   0  0  0  0  0  0  0  0  0  0  0  0
    2.4546   -1.4682    2.8961 C   0  0  0  0  0  0  0  0  0  0  0  0
    2.0902   -1.9162    4.3154 C   0  0  0  0  0  0  0  0  0  0  0  0
    2.7179   -3.0948    0.8157 C   0  0  0  0  0  0  0  0  0  0  0  0
    3.4895   -4.1707    1.6322 C   0  0  0  0  0  0  0  0  0  0  0  0
    1.9244   -3.7817   -0.1286 O   0  0  0  0  0  0  0  0  0  0  0  0
   11.2997    3.0056    2.5582 H   0  0  0  0  0  0  0  0  0  0  0  0
   10.6875   -1.0279    1.4151 H   0  0  0  0  0  0  0  0  0  0  0  0
   10.7882   -0.1735   -0.1624 H   0  0  0  0  0  0  0  0  0  0  0  0
    8.4028    0.6987    0.2166 H   0  0  0  0  0  0  0  0  0  0  0  0
    8.5510   -1.0709   -0.0397 H   0  0  0  0  0  0  0  0  0  0  0  0
    8.3317    0.2880    2.7283 H   0  0  0  0  0  0  0  0  0  0  0  0
    8.3882   -1.4863    2.4287 H   0  0  0  0  0  0  0  0  0  0  0  0
    6.0602    0.2787    2.2074 H   0  0  0  0  0  0  0  0  0  0  0  0
    4.4650   -3.0142   -0.4196 H   0  0  0  0  0  0  0  0  0  0  0  0
    2.3094   -1.9375   -1.5450 H   0  0  0  0  0  0  0  0  0  0  0  0
    5.2361   -1.3829   -2.2329 H   0  0  0  0  0  0  0  0  0  0  0  0
    3.8317   -1.0704   -3.3451 H   0  0  0  0  0  0  0  0  0  0  0  0
    4.1750   -2.7339   -2.7734 H   0  0  0  0  0  0  0  0  0  0  0  0
    4.0195    1.8615   -0.6288 H   0  0  0  0  0  0  0  0  0  0  0  0
    4.4974    1.0287   -2.1540 H   0  0  0  0  0  0  0  0  0  0  0  0
    5.0886    0.4459   -0.5643 H   0  0  0  0  0  0  0  0  0  0  0  0
    2.3155    0.7183   -2.8698 H   0  0  0  0  0  0  0  0  0  0  0  0
    1.1537   -0.2453   -1.9648 H   0  0  0  0  0  0  0  0  0  0  0  0
    1.9178    2.6784   -1.5634 H   0  0  0  0  0  0  0  0  0  0  0  0
    0.8112    2.8147    0.5988 H   0  0  0  0  0  0  0  0  0  0  0  0
    0.4542    1.0556    0.5692 H   0  0  0  0  0  0  0  0  0  0  0  0
    2.1015    1.6426    0.7001 H   0  0  0  0  0  0  0  0  0  0  0  0
   -0.4394    1.0870   -2.5592 H   0  0  0  0  0  0  0  0  0  0  0  0
    0.2388    2.5861   -3.0551 H   0  0  0  0  0  0  0  0  0  0  0  0
   -1.8115    4.8932   -1.1712 H   0  0  0  0  0  0  0  0  0  0  0  0
   -0.6815    4.2011    0.0044 H   0  0  0  0  0  0  0  0  0  0  0  0
   -0.1135    4.6240   -1.6486 H   0  0  0  0  0  0  0  0  0  0  0  0
   -1.7966    3.5746   -3.3392 H   0  0  0  0  0  0  0  0  0  0  0  0
   -1.5228    1.8268    0.3826 H   0  0  0  0  0  0  0  0  0  0  0  0
   -2.2814    3.4026    1.5324 H   0  0  0  0  0  0  0  0  0  0  0  0
   -5.6959    2.1733    3.1316 H   0  0  0  0  0  0  0  0  0  0  0  0
   -6.2110    1.2632    0.9684 H   0  0  0  0  0  0  0  0  0  0  0  0
   -7.3563    2.5707    1.3709 H   0  0  0  0  0  0  0  0  0  0  0  0
   -6.0530    2.8689    0.1683 H   0  0  0  0  0  0  0  0  0  0  0  0
   -6.5135    4.6817    2.1779 H   0  0  0  0  0  0  0  0  0  0  0  0
   -5.8666    4.2926    3.7894 H   0  0  0  0  0  0  0  0  0  0  0  0
   -3.6231    4.8391    3.2043 H   0  0  0  0  0  0  0  0  0  0  0  0
   -4.3629    6.4022    4.7675 H   0  0  0  0  0  0  0  0  0  0  0  0
   -6.0699    6.6527    4.2079 H   0  0  0  0  0  0  0  0  0  0  0  0
   -4.8900    8.0198    4.2197 H   0  0  0  0  0  0  0  0  0  0  0  0
   -5.6064    8.3566    1.9495 H   0  0  0  0  0  0  0  0  0  0  0  0
   -5.0548    7.2718    0.6714 H   0  0  0  0  0  0  0  0  0  0  0  0
   -6.5047    6.8285    1.6818 H   0  0  0  0  0  0  0  0  0  0  0  0
   -2.9340    5.4707    0.8962 H   0  0  0  0  0  0  0  0  0  0  0  0
   -4.2655    5.0837   -0.7859 H   0  0  0  0  0  0  0  0  0  0  0  0
   -2.5988    0.5583   -2.1073 H   0  0  0  0  0  0  0  0  0  0  0  0
   -4.7617    0.9431   -1.1789 H   0  0  0  0  0  0  0  0  0  0  0  0
   -4.3603   -0.7942   -1.0572 H   0  0  0  0  0  0  0  0  0  0  0  0
   -4.2625    0.2413    0.4130 H   0  0  0  0  0  0  0  0  0  0  0  0
   -0.6382   -0.3689   -0.7655 H   0  0  0  0  0  0  0  0  0  0  0  0
   -1.2698   -0.9685   -2.9466 H   0  0  0  0  0  0  0  0  0  0  0  0
   -3.4436   -1.9612   -3.4169 H   0  0  0  0  0  0  0  0  0  0  0  0
   -2.1501   -2.5708   -4.4508 H   0  0  0  0  0  0  0  0  0  0  0  0
   -3.6098   -5.8733   -3.9910 H   0  0  0  0  0  0  0  0  0  0  0  0
   -4.3438   -4.3370   -4.5937 H   0  0  0  0  0  0  0  0  0  0  0  0
   -2.6536   -4.7872   -5.0292 H   0  0  0  0  0  0  0  0  0  0  0  0
   -5.4537   -5.2791   -2.3071 H   0  0  0  0  0  0  0  0  0  0  0  0
   -3.9071   -5.9884   -1.6556 H   0  0  0  0  0  0  0  0  0  0  0  0
   -4.9686   -5.0153   -0.5990 H   0  0  0  0  0  0  0  0  0  0  0  0
   -1.6077   -5.7930   -2.6650 H   0  0  0  0  0  0  0  0  0  0  0  0
   -1.1542   -5.4430   -0.5771 H   0  0  0  0  0  0  0  0  0  0  0  0
    0.4724   -4.5193   -2.0627 H   0  0  0  0  0  0  0  0  0  0  0  0
   -0.5045   -3.9449   -4.9054 H   0  0  0  0  0  0  0  0  0  0  0  0
    1.1793   -3.9054   -4.2923 H   0  0  0  0  0  0  0  0  0  0  0  0
    0.2655   -5.4554   -4.2827 H   0  0  0  0  0  0  0  0  0  0  0  0
   -2.2236   -0.0024    1.5043 H   0  0  0  0  0  0  0  0  0  0  0  0
   -3.6144   -2.0262    0.9963 H   0  0  0  0  0  0  0  0  0  0  0  0
   -2.7023   -2.1396    2.5381 H   0  0  0  0  0  0  0  0  0  0  0  0
   -2.1235   -3.0410    1.0902 H   0  0  0  0  0  0  0  0  0  0  0  0
    1.1794   -3.1230    2.3192 H   0  0  0  0  0  0  0  0  0  0  0  0
    2.2276   -0.3892    2.7644 H   0  0  0  0  0  0  0  0  0  0  0  0
    3.5501   -1.5650    2.8653 H   0  0  0  0  0  0  0  0  0  0  0  0
    2.5967   -1.2571    5.0582 H   0  0  0  0  0  0  0  0  0  0  0  0
    2.4365   -2.9594    4.4839 H   0  0  0  0  0  0  0  0  0  0  0  0
    0.9999   -1.8830    4.4985 H   0  0  0  0  0  0  0  0  0  0  0  0
    2.7897   -4.8183    2.2078 H   0  0  0  0  0  0  0  0  0  0  0  0
    4.2046   -3.7162    2.3494 H   0  0  0  0  0  0  0  0  0  0  0  0
    4.0622   -4.8371    0.9503 H   0  0  0  0  0  0  0  0  0  0  0  0
    1.3185   -4.4016    0.3538 H   0  0  0  0  0  0  0  0  0  0  0  0
  1  2  3  0
  2  3  1  0
  3  4  1  0
  4  5  1  0
  5  6  1  0
  6  7  1  0
  7  8  2  0
  7  9  1  0
  9 10  1  0
 10 11  1  0
 11 12  1  0
 11 13  1  0
 13 14  1  0
 13 15  1  0
 15 16  1  0
 16 17  1  0
 16 18  1  0
 18 19  1  0
 19 20  1  0
 19 21  1  0
 19 22  1  0
 22 23  1  0
 23 24  1  0
 24 25  1  0
 25 26  1  0
 26 27  1  0
 26 28  1  0
 28 29  1  0
 29 30  1  0
 30 31  1  0
 30 32  1  0
 29 33  1  0
 33 34  1  0
 22 35  1  0
 35 36  1  0
 35 37  1  0
 37 38  1  0
 38 39  1  0
 39 40  1  0
 40 41  1  0
 41 42  1  0
 41 43  1  0
 43 44  1  0
 41 45  1  0
 45 46  1  0
 45 47  1  0
 47 48  1  0
 47 49  1  0
 37 50  1  0
 50 51  1  0
 50 52  1  0
 52 53  2  0
 52 54  1  0
 54 55  1  0
 55 56  1  0
 56 57  1  0
 55 58  1  0
 58 59  1  0
 58 60  1  0
 58 10  1  0
 33 24  1  0
 49 39  1  0
  1 61  1  0
  3 62  1  0
  3 63  1  0
  4 64  1  0
  4 65  1  0
  5 66  1  0
  5 67  1  0
  6 68  1  0
 10 69  1  0
 11 70  1  0
 12 71  1  0
 12 72  1  0
 12 73  1  0
 14 74  1  0
 14 75  1  0
 14 76  1  0
 15 77  1  0
 15 78  1  0
 16 79  1  0
 17 80  1  0
 17 81  1  0
 17 82  1  0
 18 83  1  0
 18 84  1  0
 20 85  1  0
 20 86  1  0
 20 87  1  0
 21 88  1  0
 22 89  1  0
 24 90  1  0
 26 91  1  0
 27 92  1  0
 27 93  1  0
 27 94  1  0
 28 95  1  0
 28 96  1  0
 29 97  1  0
 31 98  1  0
 31 99  1  0
 31100  1  0
 32101  1  0
 32102  1  0
 32103  1  0
 33104  1  0
 34105  1  0
 35106  1  0
 36107  1  0
 36108  1  0
 36109  1  0
 37110  1  0
 39111  1  0
 40112  1  0
 40113  1  0
 42114  1  0
 42115  1  0
 42116  1  0
 44117  1  0
 44118  1  0
 44119  1  0
 45120  1  0
 46121  1  0
 47122  1  0
 48123  1  0
 48124  1  0
 48125  1  0
 50126  1  0
 51127  1  0
 51128  1  0
 51129  1  0
 55130  1  0
 56131  1  0
 56132  1  0
 57133  1  0
 57134  1  0
 57135  1  0
 59136  1  0
 59137  1  0
 59138  1  0
 60139  1  0
M  END
$$$$
