
     RDKit          3D

130133  0  0  0  0  0  0  0  0999 V2000
   11.6716   -2.6960   -0.9146 C   0  0  0  0  0  0  0  0  0  0  0  0
   10.5567   -2.3462    0.0167 C   0  0  0  0  0  0  0  0  0  0  0  0
    9.7312   -3.2342    0.3665 O   0  0  0  0  0  0  0  0  0  0  0  0
   10.4140   -0.9986    0.4828 N   0  0  0  0  0  0  0  0  0  0  0  0
    9.3218   -0.6111    1.3751 C   0  0  0  0  0  0  0  0  0  0  0  0
    9.4549    0.8516    1.7913 C   0  0  0  0  0  0  0  0  0  0  0  0
    8.0753    1.3267    2.8971 S   0  0  0  0  0  0  0  0  0  0  0  0
    7.0944    2.1163    1.6147 C   0  0  0  0  0  0  0  0  0  0  0  0
    7.3016    3.2874    1.3402 O   0  0  0  0  0  0  0  0  0  0  0  0
    6.0325    1.3493    0.8796 C   0  0  0  0  0  0  0  0  0  0  0  0
    4.6240    1.8658    1.2213 C   0  0  1  0  0  0  0  0  0  0  0  0
    3.6420    1.2670    0.3155 N   0  0  0  0  0  0  0  0  0  0  0  0
    3.3674    1.8441   -0.9747 C   0  0  0  0  0  0  0  0  0  0  0  0
    3.5818    3.0751   -1.1650 O   0  0  0  0  0  0  0  0  0  0  0  0
    2.7873    1.0390   -2.1198 C   0  0  2  0  0  0  0  0  0  0  0  0
    1.3606    1.3453   -2.2758 N   0  0  0  0  0  0  0  0  0  0  0  0
    0.3280    0.9797   -1.3394 C   0  0  0  0  0  0  0  0  0  0  0  0
    0.6376    0.4256   -0.2515 O   0  0  0  0  0  0  0  0  0  0  0  0
   -1.1206    1.2605   -1.6927 C   0  0  1  0  0  0  0  0  0  0  0  0
   -2.0322    0.1428   -1.3884 N   0  0  0  0  0  0  0  0  0  0  0  0
   -2.4900   -0.4237   -0.3007 C   0  0  0  0  0  0  0  0  0  0  0  0
   -2.0562   -0.0127    1.0151 N   0  0  0  0  0  0  0  0  0  0  0  0
   -2.7342   -0.2991    2.2829 C   0  0  0  0  0  0  0  0  0  0  0  0
   -3.2624    0.9698    2.8838 C   0  0  0  0  0  0  0  0  0  0  0  0
   -2.4282    1.7835    3.3660 O   0  0  0  0  0  0  0  0  0  0  0  0
   -4.6695    1.2727    2.9759 N   0  0  0  0  0  0  0  0  0  0  0  0
   -5.1584    2.2039    3.9864 C   0  0  0  0  0  0  0  0  0  0  0  0
   -6.6754    2.1559    3.9011 C   0  0  0  0  0  0  0  0  0  0  0  0
   -6.9769    0.8622    3.1505 C   0  0  1  0  0  0  0  0  0  0  0  0
   -8.3615    0.8677    2.4971 C   0  0  0  0  0  0  0  0  0  0  0  0
   -5.7641    0.6575    2.2168 C   0  0  1  0  0  0  0  0  0  0  0  0
   -5.9308    1.3672    0.8797 C   0  0  0  0  0  0  0  0  0  0  0  0
   -5.4886    2.5420    0.7535 O   0  0  0  0  0  0  0  0  0  0  0  0
   -6.7195    0.8111   -0.1903 N   0  0  0  0  0  0  0  0  0  0  0  0
   -6.4940   -0.5234   -0.7598 C   0  0  1  0  0  0  0  0  0  0  0  0
   -7.7701   -1.0436   -1.4885 C   0  0  0  0  0  0  0  0  0  0  0  0
   -7.5547   -2.4683   -2.0357 C   0  0  0  0  0  0  0  0  0  0  0  0
   -8.9988   -1.0365   -0.5727 C   0  0  0  0  0  0  0  0  0  0  0  0
   -5.3537   -0.4361   -1.7495 C   0  0  0  0  0  0  0  0  0  0  0  0
   -5.4339    0.3930   -2.6959 O   0  0  0  0  0  0  0  0  0  0  0  0
   -4.2471   -1.3476   -1.7192 N   0  0  0  0  0  0  0  0  0  0  0  0
   -3.4582   -1.5854   -0.5006 C   0  0  1  0  0  0  0  0  0  0  0  0
   -2.7563   -2.9901   -0.5436 C   0  0  0  0  0  0  0  0  0  0  0  0
   -1.6163   -3.0480   -1.5882 C   0  0  0  0  0  0  0  0  0  0  0  0
   -3.8043   -4.0766   -0.8860 C   0  0  0  0  0  0  0  0  0  0  0  0
   -2.1615   -3.3318    0.8382 C   0  0  0  0  0  0  0  0  0  0  0  0
   -1.6671    2.6941   -1.3408 C   0  0  0  0  0  0  0  0  0  0  0  0
   -0.8230    3.7672   -2.0736 C   0  0  0  0  0  0  0  0  0  0  0  0
   -3.1269    2.8241   -1.8373 C   0  0  0  0  0  0  0  0  0  0  0  0
   -1.6288    3.0170    0.1662 C   0  0  0  0  0  0  0  0  0  0  0  0
    3.0490   -0.4983   -2.0632 C   0  0  1  0  0  0  0  0  0  0  0  0
    2.4589   -1.2123   -3.2890 C   0  0  0  0  0  0  0  0  0  0  0  0
    4.5302   -0.8295   -1.9533 C   0  0  0  0  0  0  0  0  0  0  0  0
    5.4571   -0.3637   -2.9069 C   0  0  0  0  0  0  0  0  0  0  0  0
    6.8061   -0.7174   -2.8161 C   0  0  0  0  0  0  0  0  0  0  0  0
    7.2460   -1.5448   -1.7788 C   0  0  0  0  0  0  0  0  0  0  0  0
    6.3361   -2.0203   -0.8329 C   0  0  0  0  0  0  0  0  0  0  0  0
    4.9868   -1.6657   -0.9168 C   0  0  0  0  0  0  0  0  0  0  0  0
    4.2606    1.5527    2.6498 C   0  0  0  0  0  0  0  0  0  0  0  0
    4.3660    0.3189    3.1994 N   0  0  0  0  0  0  0  0  0  0  0  0
    3.9726    0.3076    4.5008 C   0  0  0  0  0  0  0  0  0  0  0  0
    3.5419    1.5349    4.9963 C   0  0  0  0  0  0  0  0  0  0  0  0
    3.6562    2.6683    3.7572 S   0  0  0  0  0  0  0  0  0  0  0  0
   11.7421   -3.7969   -1.0444 H   0  0  0  0  0  0  0  0  0  0  0  0
   12.6336   -2.3201   -0.5060 H   0  0  0  0  0  0  0  0  0  0  0  0
   11.4857   -2.2236   -1.9036 H   0  0  0  0  0  0  0  0  0  0  0  0
   11.1215   -0.2888    0.1825 H   0  0  0  0  0  0  0  0  0  0  0  0
    9.3449   -1.2519    2.2850 H   0  0  0  0  0  0  0  0  0  0  0  0
    8.3534   -0.7624    0.8547 H   0  0  0  0  0  0  0  0  0  0  0  0
   10.4040    0.9872    2.3494 H   0  0  0  0  0  0  0  0  0  0  0  0
    9.4927    1.5053    0.8912 H   0  0  0  0  0  0  0  0  0  0  0  0
    6.1072    0.2647    1.1222 H   0  0  0  0  0  0  0  0  0  0  0  0
    6.2180    1.4560   -0.2132 H   0  0  0  0  0  0  0  0  0  0  0  0
    4.6070    2.9722    1.1069 H   0  0  0  0  0  0  0  0  0  0  0  0
    3.3068    0.3000    0.5319 H   0  0  0  0  0  0  0  0  0  0  0  0
    3.2946    1.4131   -3.0356 H   0  0  0  0  0  0  0  0  0  0  0  0
    1.0762    1.7881   -3.1742 H   0  0  0  0  0  0  0  0  0  0  0  0
   -1.1156    1.2541   -2.8044 H   0  0  0  0  0  0  0  0  0  0  0  0
   -1.2094    0.5762    1.1138 H   0  0  0  0  0  0  0  0  0  0  0  0
   -1.9876   -0.7244    2.9852 H   0  0  0  0  0  0  0  0  0  0  0  0
   -3.5170   -1.0641    2.2120 H   0  0  0  0  0  0  0  0  0  0  0  0
   -4.7827    3.2297    3.7814 H   0  0  0  0  0  0  0  0  0  0  0  0
   -4.8207    1.8747    4.9961 H   0  0  0  0  0  0  0  0  0  0  0  0
   -7.1431    2.1605    4.9105 H   0  0  0  0  0  0  0  0  0  0  0  0
   -7.0398    3.0354    3.3216 H   0  0  0  0  0  0  0  0  0  0  0  0
   -6.9653    0.0334    3.8953 H   0  0  0  0  0  0  0  0  0  0  0  0
   -8.5408   -0.1186    2.0296 H   0  0  0  0  0  0  0  0  0  0  0  0
   -9.1371    1.0232    3.2765 H   0  0  0  0  0  0  0  0  0  0  0  0
   -8.4569    1.6747    1.7417 H   0  0  0  0  0  0  0  0  0  0  0  0
   -5.5989   -0.4272    2.0758 H   0  0  0  0  0  0  0  0  0  0  0  0
   -7.2006    1.5041   -0.8076 H   0  0  0  0  0  0  0  0  0  0  0  0
   -6.2676   -1.2386    0.0536 H   0  0  0  0  0  0  0  0  0  0  0  0
   -7.9931   -0.3761   -2.3523 H   0  0  0  0  0  0  0  0  0  0  0  0
   -8.4838   -2.8385   -2.5217 H   0  0  0  0  0  0  0  0  0  0  0  0
   -6.7545   -2.4784   -2.8039 H   0  0  0  0  0  0  0  0  0  0  0  0
   -7.2775   -3.1661   -1.2175 H   0  0  0  0  0  0  0  0  0  0  0  0
   -9.8882   -1.4141   -1.1236 H   0  0  0  0  0  0  0  0  0  0  0  0
   -9.2328   -0.0007   -0.2482 H   0  0  0  0  0  0  0  0  0  0  0  0
   -8.8301   -1.6845    0.3120 H   0  0  0  0  0  0  0  0  0  0  0  0
   -3.7881   -1.5186   -2.6400 H   0  0  0  0  0  0  0  0  0  0  0  0
   -4.1703   -1.6146    0.3333 H   0  0  0  0  0  0  0  0  0  0  0  0
   -1.1652   -4.0632   -1.6107 H   0  0  0  0  0  0  0  0  0  0  0  0
   -1.9815   -2.8249   -2.6105 H   0  0  0  0  0  0  0  0  0  0  0  0
   -0.8083   -2.3298   -1.3358 H   0  0  0  0  0  0  0  0  0  0  0  0
   -3.3573   -5.0937   -0.8305 H   0  0  0  0  0  0  0  0  0  0  0  0
   -4.2007   -3.9410   -1.9193 H   0  0  0  0  0  0  0  0  0  0  0  0
   -4.6615   -4.0320   -0.1780 H   0  0  0  0  0  0  0  0  0  0  0  0
   -2.9507   -3.3221    1.6229 H   0  0  0  0  0  0  0  0  0  0  0  0
   -1.3661   -2.6125    1.1194 H   0  0  0  0  0  0  0  0  0  0  0  0
   -1.7078   -4.3466    0.8322 H   0  0  0  0  0  0  0  0  0  0  0  0
   -0.7986    3.5745   -3.1688 H   0  0  0  0  0  0  0  0  0  0  0  0
   -1.2515    4.7808   -1.9200 H   0  0  0  0  0  0  0  0  0  0  0  0
    0.2188    3.7793   -1.6892 H   0  0  0  0  0  0  0  0  0  0  0  0
   -3.5112    3.8527   -1.6719 H   0  0  0  0  0  0  0  0  0  0  0  0
   -3.1931    2.5963   -2.9226 H   0  0  0  0  0  0  0  0  0  0  0  0
   -3.7912    2.1213   -1.2947 H   0  0  0  0  0  0  0  0  0  0  0  0
   -1.8226    4.0981    0.3378 H   0  0  0  0  0  0  0  0  0  0  0  0
   -2.4273    2.4788    0.7067 H   0  0  0  0  0  0  0  0  0  0  0  0
   -0.6359    2.7819    0.6007 H   0  0  0  0  0  0  0  0  0  0  0  0
    2.5164   -0.9183   -1.1841 H   0  0  0  0  0  0  0  0  0  0  0  0
    2.6338   -2.3064   -3.2077 H   0  0  0  0  0  0  0  0  0  0  0  0
    1.3610   -1.0532   -3.3446 H   0  0  0  0  0  0  0  0  0  0  0  0
    2.9243   -0.8442   -4.2254 H   0  0  0  0  0  0  0  0  0  0  0  0
    5.1375    0.2542   -3.7349 H   0  0  0  0  0  0  0  0  0  0  0  0
    7.5104   -0.3580   -3.5524 H   0  0  0  0  0  0  0  0  0  0  0  0
    8.2874   -1.8195   -1.7166 H   0  0  0  0  0  0  0  0  0  0  0  0
    6.6783   -2.6633   -0.0322 H   0  0  0  0  0  0  0  0  0  0  0  0
    4.2980   -2.0534   -0.1748 H   0  0  0  0  0  0  0  0  0  0  0  0
    3.9994   -0.5928    5.1024 H   0  0  0  0  0  0  0  0  0  0  0  0
    3.1922    1.7256    6.0004 H   0  0  0  0  0  0  0  0  0  0  0  0
  1  2  1  0
  2  3  2  0
  2  4  1  0
  4  5  1  0
  5  6  1  0
  6  7  1  0
  7  8  1  0
  8  9  2  0
  8 10  1  0
 10 11  1  0
 11 12  1  0
 12 13  1  0
 13 14  2  0
 13 15  1  0
 15 16  1  0
 16 17  1  0
 17 18  2  0
 17 19  1  0
 19 20  1  0
 20 21  2  0
 21 22  1  0
 22 23  1  0
 23 24  1  0
 24 25  2  0
 24 26  1  0
 26 27  1  0
 27 28  1  0
 28 29  1  0
 29 30  1  0
 29 31  1  0
 31 32  1  0
 32 33  2  0
 32 34  1  0
 34 35  1  0
 35 36  1  0
 36 37  1  0
 36 38  1  0
 35 39  1  0
 39 40  2  0
 39 41  1  0
 41 42  1  0
 42 43  1  0
 43 44  1  0
 43 45  1  0
 43 46  1  0
 19 47  1  0
 47 48  1  0
 47 49  1  0
 47 50  1  0
 15 51  1  0
 51 52  1  0
 51 53  1  0
 53 54  2  0
 54 55  1  0
 55 56  2  0
 56 57  1  0
 57 58  2  0
 11 59  1  0
 59 60  2  0
 60 61  1  0
 61 62  2  0
 62 63  1  0
 42 21  1  0
 58 53  1  0
 63 59  1  0
 31 26  1  0
  1 64  1  0
  1 65  1  0
  1 66  1  0
  4 67  1  0
  5 68  1  0
  5 69  1  0
  6 70  1  0
  6 71  1  0
 10 72  1  0
 10 73  1  0
 11 74  1  1
 12 75  1  0
 15 76  1  6
 16 77  1  0
 19 78  1  6
 22 79  1  0
 23 80  1  0
 23 81  1  0
 27 82  1  0
 27 83  1  0
 28 84  1  0
 28 85  1  0
 29 86  1  1
 30 87  1  0
 30 88  1  0
 30 89  1  0
 31 90  1  6
 34 91  1  0
 35 92  1  1
 36 93  1  0
 37 94  1  0
 37 95  1  0
 37 96  1  0
 38 97  1  0
 38 98  1  0
 38 99  1  0
 41100  1  0
 42101  1  1
 44102  1  0
 44103  1  0
 44104  1  0
 45105  1  0
 45106  1  0
 45107  1  0
 46108  1  0
 46109  1  0
 46110  1  0
 48111  1  0
 48112  1  0
 48113  1  0
 49114  1  0
 49115  1  0
 49116  1  0
 50117  1  0
 50118  1  0
 50119  1  0
 51120  1  1
 52121  1  0
 52122  1  0
 52123  1  0
 54124  1  0
 55125  1  0
 56126  1  0
 57127  1  0
 58128  1  0
 61129  1  0
 62130  1  0
M  END
$$$$
