
     RDKit          3D

 68 71  0  0  0  0  0  0  0  0999 V2000
   -1.9890   -3.8166    2.1753 C   0  0  0  0  0  0  0  0  0  0  0  0
   -1.9785   -2.2945    2.0648 C   0  0  0  0  0  0  0  0  0  0  0  0
   -2.0220   -1.8679    0.6607 N   0  0  0  0  0  0  0  0  0  0  0  0
   -3.2624   -2.0883   -0.1107 C   0  0  0  0  0  0  0  0  0  0  0  0
   -3.3361   -1.2230   -1.3924 C   0  0  0  0  0  0  0  0  0  0  0  0
   -4.6082   -0.5885   -1.5526 O   0  0  0  0  0  0  0  0  0  0  0  0
   -5.1451    0.3704   -0.6771 C   0  0  0  0  0  0  0  0  0  0  0  0
   -6.3221    0.0290    0.0028 C   0  0  0  0  0  0  0  0  0  0  0  0
   -6.9243    0.9267    0.8843 C   0  0  0  0  0  0  0  0  0  0  0  0
   -6.3658    2.1874    1.0861 C   0  0  0  0  0  0  0  0  0  0  0  0
   -5.2076    2.5571    0.4013 C   0  0  0  0  0  0  0  0  0  0  0  0
   -4.5841    1.6659   -0.4907 C   0  0  0  0  0  0  0  0  0  0  0  0
   -3.3346    2.1358   -1.2054 C   0  0  0  0  0  0  0  0  0  0  0  0
   -2.1124    2.3123   -0.2690 C   0  0  0  0  0  0  0  0  0  0  0  0
   -1.9877    1.2421    0.8449 C   0  0  0  0  0  0  0  0  0  0  0  0
   -0.5634    0.6926    1.0822 C   0  0  0  0  0  0  0  0  0  0  0  0
    0.0066   -0.3473    0.0561 C   0  0  0  0  0  0  0  0  0  0  0  0
    1.4598   -0.6898    0.5347 C   0  0  0  0  0  0  0  0  0  0  0  0
    2.3825    0.3779    0.1325 N   0  0  0  0  0  0  0  0  0  0  0  0
    3.3972    0.8665    1.0389 C   0  0  0  0  0  0  0  0  0  0  0  0
    3.5146    0.3575    2.1866 O   0  0  0  0  0  0  0  0  0  0  0  0
    4.3308    1.9825    0.6537 C   0  0  0  0  0  0  0  0  0  0  0  0
    5.2000    1.5775   -0.4034 O   0  0  0  0  0  0  0  0  0  0  0  0
    6.2385    0.6393   -0.2907 C   0  0  0  0  0  0  0  0  0  0  0  0
    6.6459    0.0981    0.9452 C   0  0  0  0  0  0  0  0  0  0  0  0
    7.6857   -0.8358    0.9957 C   0  0  0  0  0  0  0  0  0  0  0  0
    8.3283   -1.2352   -0.1792 C   0  0  0  0  0  0  0  0  0  0  0  0
    9.3361   -2.1405   -0.1274 F   0  0  0  0  0  0  0  0  0  0  0  0
    7.9329   -0.6986   -1.4071 C   0  0  0  0  0  0  0  0  0  0  0  0
    6.8940    0.2355   -1.4611 C   0  0  0  0  0  0  0  0  0  0  0  0
    2.2926    0.8689   -1.2465 C   0  0  0  0  0  0  0  0  0  0  0  0
    1.1453    0.1737   -1.9836 C   0  0  0  0  0  0  0  0  0  0  0  0
   -0.0519    0.2630   -1.2367 O   0  0  0  0  0  0  0  0  0  0  0  0
   -0.7761   -1.6595   -0.0248 C   0  0  0  0  0  0  0  0  0  0  0  0
   -0.3659   -2.5615   -0.8049 O   0  0  0  0  0  0  0  0  0  0  0  0
   -1.8741   -4.1137    3.2389 H   0  0  0  0  0  0  0  0  0  0  0  0
   -2.9493   -4.2261    1.7978 H   0  0  0  0  0  0  0  0  0  0  0  0
   -1.1490   -4.2487    1.5914 H   0  0  0  0  0  0  0  0  0  0  0  0
   -2.8493   -1.8739    2.6125 H   0  0  0  0  0  0  0  0  0  0  0  0
   -1.0579   -1.9178    2.5585 H   0  0  0  0  0  0  0  0  0  0  0  0
   -4.1365   -1.8715    0.5395 H   0  0  0  0  0  0  0  0  0  0  0  0
   -3.3293   -3.1606   -0.3947 H   0  0  0  0  0  0  0  0  0  0  0  0
   -2.5344   -0.4730   -1.4262 H   0  0  0  0  0  0  0  0  0  0  0  0
   -3.1670   -1.8790   -2.2722 H   0  0  0  0  0  0  0  0  0  0  0  0
   -6.7651   -0.9479   -0.1452 H   0  0  0  0  0  0  0  0  0  0  0  0
   -7.8261    0.6439    1.4118 H   0  0  0  0  0  0  0  0  0  0  0  0
   -6.8340    2.8822    1.7711 H   0  0  0  0  0  0  0  0  0  0  0  0
   -4.7941    3.5447    0.5656 H   0  0  0  0  0  0  0  0  0  0  0  0
   -3.0838    1.4852   -2.0639 H   0  0  0  0  0  0  0  0  0  0  0  0
   -3.5530    3.1217   -1.6715 H   0  0  0  0  0  0  0  0  0  0  0  0
   -1.1969    2.3659   -0.8912 H   0  0  0  0  0  0  0  0  0  0  0  0
   -2.1905    3.3094    0.2187 H   0  0  0  0  0  0  0  0  0  0  0  0
   -2.6995    0.4230    0.7097 H   0  0  0  0  0  0  0  0  0  0  0  0
   -2.3151    1.7204    1.7945 H   0  0  0  0  0  0  0  0  0  0  0  0
   -0.5445    0.2500    2.0998 H   0  0  0  0  0  0  0  0  0  0  0  0
    0.1248    1.5659    1.1272 H   0  0  0  0  0  0  0  0  0  0  0  0
    1.8214   -1.6385    0.0806 H   0  0  0  0  0  0  0  0  0  0  0  0
    1.4733   -0.8538    1.6344 H   0  0  0  0  0  0  0  0  0  0  0  0
    4.9242    2.3294    1.5269 H   0  0  0  0  0  0  0  0  0  0  0  0
    3.7310    2.8500    0.3099 H   0  0  0  0  0  0  0  0  0  0  0  0
    6.1748    0.3942    1.8710 H   0  0  0  0  0  0  0  0  0  0  0  0
    7.9938   -1.2483    1.9480 H   0  0  0  0  0  0  0  0  0  0  0  0
    8.4310   -1.0053   -2.3181 H   0  0  0  0  0  0  0  0  0  0  0  0
    6.5933    0.6454   -2.4171 H   0  0  0  0  0  0  0  0  0  0  0  0
    2.1012    1.9634   -1.2390 H   0  0  0  0  0  0  0  0  0  0  0  0
    3.2407    0.6638   -1.7869 H   0  0  0  0  0  0  0  0  0  0  0  0
    0.9903    0.6760   -2.9614 H   0  0  0  0  0  0  0  0  0  0  0  0
    1.3957   -0.8891   -2.1973 H   0  0  0  0  0  0  0  0  0  0  0  0
  1  2  1  0
  2  3  1  0
  3  4  1  0
  4  5  1  0
  5  6  1  0
  6  7  1  0
  7  8  2  0
  8  9  1  0
  9 10  2  0
 10 11  1  0
 11 12  2  0
 12 13  1  0
 13 14  1  0
 14 15  1  0
 15 16  1  0
 16 17  1  0
 17 18  1  0
 18 19  1  0
 19 20  1  0
 20 21  2  0
 20 22  1  0
 22 23  1  0
 23 24  1  0
 24 25  2  0
 25 26  1  0
 26 27  2  0
 27 28  1  0
 27 29  1  0
 29 30  2  0
 19 31  1  0
 31 32  1  0
 32 33  1  0
 17 34  1  0
 34 35  2  0
 34  3  1  0
 12  7  1  0
 33 17  1  0
 30 24  1  0
  1 36  1  0
  1 37  1  0
  1 38  1  0
  2 39  1  0
  2 40  1  0
  4 41  1  0
  4 42  1  0
  5 43  1  0
  5 44  1  0
  8 45  1  0
  9 46  1  0
 10 47  1  0
 11 48  1  0
 13 49  1  0
 13 50  1  0
 14 51  1  0
 14 52  1  0
 15 53  1  0
 15 54  1  0
 16 55  1  0
 16 56  1  0
 18 57  1  0
 18 58  1  0
 22 59  1  0
 22 60  1  0
 25 61  1  0
 26 62  1  0
 29 63  1  0
 30 64  1  0
 31 65  1  0
 31 66  1  0
 32 67  1  0
 32 68  1  0
M  END
$$$$
