
     RDKit          3D

 76 79  0  0  0  0  0  0  0  0999 V2000
   -3.5853    3.1499   -1.6607 C   0  0  0  0  0  0  0  0  0  0  0  0
   -3.7057    2.7530   -0.3130 O   0  0  0  0  0  0  0  0  0  0  0  0
   -2.7779    1.7196   -0.0356 C   0  0  0  0  0  0  0  0  0  0  0  0
   -2.9331    1.2336    1.4380 C   0  0  0  0  0  0  0  0  0  0  0  0
   -2.6925    2.4354    2.4186 C   0  0  0  0  0  0  0  0  0  0  0  0
   -1.4850    3.3696    2.1158 C   0  0  0  0  0  0  0  0  0  0  0  0
   -0.0823    2.7408    2.3264 C   0  0  0  0  0  0  0  0  0  0  0  0
    0.8570    2.7955    1.0844 C   0  0  0  0  0  0  0  0  0  0  0  0
    1.0573    1.4914    0.4084 N   0  0  0  0  0  0  0  0  0  0  0  0
    1.8698    0.5058    1.0970 C   0  0  0  0  0  0  0  0  0  0  0  0
    1.6249    0.2241    2.3049 O   0  0  0  0  0  0  0  0  0  0  0  0
    3.0347   -0.1457    0.4550 C   0  0  0  0  0  0  0  0  0  0  0  0
    3.9528    0.6235   -0.2816 C   0  0  0  0  0  0  0  0  0  0  0  0
    5.0515    0.0169   -0.9072 C   0  0  0  0  0  0  0  0  0  0  0  0
    6.1841    0.9891   -1.8424 S   0  0  0  0  0  6  0  0  0  0  0  0
    5.5747    1.1947   -3.4439 N   0  0  0  0  0  0  0  0  0  0  0  0
    7.5198    0.2986   -1.9035 O   0  0  0  0  0  0  0  0  0  0  0  0
    6.3606    2.3338   -1.1900 O   0  0  0  0  0  0  0  0  0  0  0  0
    5.2333   -1.3647   -0.7997 C   0  0  0  0  0  0  0  0  0  0  0  0
    4.3378   -2.1364   -0.0541 C   0  0  0  0  0  0  0  0  0  0  0  0
    3.2324   -1.5377    0.5831 C   0  0  0  0  0  0  0  0  0  0  0  0
    2.3060   -2.2941    1.3227 O   0  0  0  0  0  0  0  0  0  0  0  0
    2.3942   -3.6994    1.5274 C   0  0  0  0  0  0  0  0  0  0  0  0
    0.8714    1.4545   -1.0635 C   0  0  0  0  0  0  0  0  0  0  0  0
    0.6556    0.0528   -1.6724 C   0  0  0  0  0  0  0  0  0  0  0  0
   -0.4187   -0.6744   -1.0660 O   0  0  0  0  0  0  0  0  0  0  0  0
   -0.6456   -2.0534   -1.2783 C   0  0  0  0  0  0  0  0  0  0  0  0
    0.4206   -2.9368   -1.5618 C   0  0  0  0  0  0  0  0  0  0  0  0
    0.1873   -4.2970   -1.7830 C   0  0  0  0  0  0  0  0  0  0  0  0
   -1.1061   -4.8045   -1.7293 C   0  0  0  0  0  0  0  0  0  0  0  0
   -2.1731   -3.9542   -1.4383 C   0  0  0  0  0  0  0  0  0  0  0  0
   -1.9569   -2.5887   -1.1942 C   0  0  0  0  0  0  0  0  0  0  0  0
   -3.1414   -1.7553   -0.9117 C   0  0  0  0  0  0  0  0  0  0  0  0
   -3.9313   -1.5140   -1.8657 O   0  0  0  0  0  0  0  0  0  0  0  0
   -3.4552   -1.2887    0.4220 N   0  0  0  0  0  0  0  0  0  0  0  0
   -4.6777   -0.5068    0.6894 C   0  0  0  0  0  0  0  0  0  0  0  0
   -4.3811    0.6861    1.6342 C   0  0  0  0  0  0  0  0  0  0  0  0
   -2.4703   -1.3411    1.5013 C   0  0  0  0  0  0  0  0  0  0  0  0
   -1.9287    0.0718    1.7690 C   0  0  0  0  0  0  0  0  0  0  0  0
   -2.5620    3.5276   -1.8833 H   0  0  0  0  0  0  0  0  0  0  0  0
   -4.3032    3.9764   -1.8460 H   0  0  0  0  0  0  0  0  0  0  0  0
   -3.8449    2.3158   -2.3481 H   0  0  0  0  0  0  0  0  0  0  0  0
   -2.9046    0.8844   -0.7511 H   0  0  0  0  0  0  0  0  0  0  0  0
   -1.7509    2.0838   -0.1824 H   0  0  0  0  0  0  0  0  0  0  0  0
   -3.5952    3.0844    2.4014 H   0  0  0  0  0  0  0  0  0  0  0  0
   -2.6141    2.0691    3.4662 H   0  0  0  0  0  0  0  0  0  0  0  0
   -1.5717    4.2301    2.8189 H   0  0  0  0  0  0  0  0  0  0  0  0
   -1.5894    3.8420    1.1167 H   0  0  0  0  0  0  0  0  0  0  0  0
    0.4180    3.3229    3.1330 H   0  0  0  0  0  0  0  0  0  0  0  0
   -0.1557    1.7318    2.7562 H   0  0  0  0  0  0  0  0  0  0  0  0
    0.5083    3.5701    0.3667 H   0  0  0  0  0  0  0  0  0  0  0  0
    1.8558    3.1561    1.4177 H   0  0  0  0  0  0  0  0  0  0  0  0
    3.8217    1.6971   -0.3615 H   0  0  0  0  0  0  0  0  0  0  0  0
    6.2418    1.8206   -3.9481 H   0  0  0  0  0  0  0  0  0  0  0  0
    4.6759    1.7204   -3.3632 H   0  0  0  0  0  0  0  0  0  0  0  0
    6.0713   -1.8488   -1.2907 H   0  0  0  0  0  0  0  0  0  0  0  0
    4.5114   -3.2022    0.0120 H   0  0  0  0  0  0  0  0  0  0  0  0
    1.5397   -4.0252    2.1557 H   0  0  0  0  0  0  0  0  0  0  0  0
    3.3388   -3.9452    2.0578 H   0  0  0  0  0  0  0  0  0  0  0  0
    2.3493   -4.2316    0.5549 H   0  0  0  0  0  0  0  0  0  0  0  0
    1.7627    1.9051   -1.5499 H   0  0  0  0  0  0  0  0  0  0  0  0
    0.0237    2.0975   -1.3684 H   0  0  0  0  0  0  0  0  0  0  0  0
    0.4255    0.1741   -2.7502 H   0  0  0  0  0  0  0  0  0  0  0  0
    1.6031   -0.5003   -1.6270 H   0  0  0  0  0  0  0  0  0  0  0  0
    1.4459   -2.6044   -1.5901 H   0  0  0  0  0  0  0  0  0  0  0  0
    1.0180   -4.9603   -1.9925 H   0  0  0  0  0  0  0  0  0  0  0  0
   -1.2824   -5.8575   -1.9102 H   0  0  0  0  0  0  0  0  0  0  0  0
   -3.1764   -4.3626   -1.3925 H   0  0  0  0  0  0  0  0  0  0  0  0
   -5.4435   -1.1676    1.1477 H   0  0  0  0  0  0  0  0  0  0  0  0
   -5.1056   -0.1024   -0.2536 H   0  0  0  0  0  0  0  0  0  0  0  0
   -5.1392    1.4839    1.4695 H   0  0  0  0  0  0  0  0  0  0  0  0
   -4.4994    0.3461    2.6860 H   0  0  0  0  0  0  0  0  0  0  0  0
   -1.6359   -2.0394    1.2884 H   0  0  0  0  0  0  0  0  0  0  0  0
   -2.9671   -1.7285    2.4183 H   0  0  0  0  0  0  0  0  0  0  0  0
   -0.9958    0.2024    1.1945 H   0  0  0  0  0  0  0  0  0  0  0  0
   -1.6521    0.0868    2.8456 H   0  0  0  0  0  0  0  0  0  0  0  0
  1  2  1  0
  2  3  1  0
  3  4  1  0
  4  5  1  0
  5  6  1  0
  6  7  1  0
  7  8  1  0
  8  9  1  0
  9 10  1  0
 10 11  2  0
 10 12  1  0
 12 13  2  0
 13 14  1  0
 14 15  1  0
 15 16  1  0
 15 17  2  0
 15 18  2  0
 14 19  2  0
 19 20  1  0
 20 21  2  0
 21 22  1  0
 22 23  1  0
  9 24  1  0
 24 25  1  0
 25 26  1  0
 26 27  1  0
 27 28  2  0
 28 29  1  0
 29 30  2  0
 30 31  1  0
 31 32  2  0
 32 33  1  0
 33 34  2  0
 33 35  1  0
 35 36  1  0
 36 37  1  0
 35 38  1  0
 38 39  1  0
 37  4  1  0
 39  4  1  0
 21 12  1  0
 32 27  1  0
  1 40  1  0
  1 41  1  0
  1 42  1  0
  3 43  1  0
  3 44  1  0
  5 45  1  0
  5 46  1  0
  6 47  1  0
  6 48  1  0
  7 49  1  0
  7 50  1  0
  8 51  1  0
  8 52  1  0
 13 53  1  0
 16 54  1  0
 16 55  1  0
 19 56  1  0
 20 57  1  0
 23 58  1  0
 23 59  1  0
 23 60  1  0
 24 61  1  0
 24 62  1  0
 25 63  1  0
 25 64  1  0
 28 65  1  0
 29 66  1  0
 30 67  1  0
 31 68  1  0
 36 69  1  0
 36 70  1  0
 37 71  1  0
 37 72  1  0
 38 73  1  0
 38 74  1  0
 39 75  1  0
 39 76  1  0
M  END
$$$$
