
     RDKit          3D

 67 69  0  0  0  0  0  0  0  0999 V2000
   -3.9210   -3.4494   -3.0132 C   0  0  0  0  0  0  0  0  0  0  0  0
   -3.2620   -3.0048   -1.6994 C   0  0  0  0  0  0  0  0  0  0  0  0
   -4.2750   -3.1283   -0.5515 C   0  0  0  0  0  0  0  0  0  0  0  0
   -2.7145   -1.5612   -1.8552 C   0  0  0  0  0  0  0  0  0  0  0  0
   -1.7699   -1.0580   -0.7374 C   0  0  0  0  0  0  0  0  0  0  0  0
   -0.7004   -2.0309   -0.4612 N   0  0  0  0  0  0  0  0  0  0  0  0
    0.6119   -1.9922   -1.0524 C   0  0  0  0  0  0  0  0  0  0  0  0
    1.4602   -2.8609   -0.7137 O   0  0  0  0  0  0  0  0  0  0  0  0
    1.0225   -0.9236   -2.0311 C   0  0  0  0  0  0  0  0  0  0  0  0
    1.4314    0.3759   -1.3067 C   0  0  0  0  0  0  0  0  0  0  0  0
    2.8251    0.2643   -0.7461 C   0  0  0  0  0  0  0  0  0  0  0  0
    3.8114    0.2273   -1.5325 O   0  0  0  0  0  0  0  0  0  0  0  0
    3.0238    0.2046    0.6744 N   0  0  0  0  0  0  0  0  0  0  0  0
    4.3459    0.1535    1.2937 C   0  0  0  0  0  0  0  0  0  0  0  0
    4.3474   -0.9028    2.4031 C   0  0  0  0  0  0  0  0  0  0  0  0
    5.6864   -1.5684    2.6784 C   0  0  0  0  0  0  0  0  0  0  0  0
    4.5980   -2.3277    1.9335 C   0  0  0  0  0  0  0  0  0  0  0  0
    1.3473    1.5209   -2.2209 N   0  0  0  0  0  0  0  0  0  0  0  0
    1.4222    2.8862   -1.7811 C   0  0  0  0  0  0  0  0  0  0  0  0
    1.4449    3.8091   -2.6374 O   0  0  0  0  0  0  0  0  0  0  0  0
    1.5237    3.2387   -0.3533 C   0  0  0  0  0  0  0  0  0  0  0  0
    2.7384    3.7456    0.1317 C   0  0  0  0  0  0  0  0  0  0  0  0
    2.8765    4.0764    1.4800 C   0  0  0  0  0  0  0  0  0  0  0  0
    1.7983    3.9206    2.3507 C   0  0  0  0  0  0  0  0  0  0  0  0
    0.5783    3.4323    1.8773 C   0  0  0  0  0  0  0  0  0  0  0  0
    0.4264    3.0809    0.5195 C   0  0  0  0  0  0  0  0  0  0  0  0
   -0.7870    2.5772    0.0150 O   0  0  0  0  0  0  0  0  0  0  0  0
   -1.9681    2.3944    0.7955 C   0  0  0  0  0  0  0  0  0  0  0  0
   -3.0720    1.7255   -0.0417 C   0  0  0  0  0  0  0  0  0  0  0  0
   -3.4465    0.4225    0.5286 N   0  0  0  0  0  0  0  0  0  0  0  0
   -4.6403    0.3377    1.3721 C   0  0  0  0  0  0  0  0  0  0  0  0
   -2.5144   -0.6769    0.5238 C   0  0  0  0  0  0  0  0  0  0  0  0
   -2.3295   -1.3318    1.5865 O   0  0  0  0  0  0  0  0  0  0  0  0
   -4.7776   -2.7863   -3.2660 H   0  0  0  0  0  0  0  0  0  0  0  0
   -3.1840   -3.4179   -3.8442 H   0  0  0  0  0  0  0  0  0  0  0  0
   -4.2882   -4.4947   -2.9279 H   0  0  0  0  0  0  0  0  0  0  0  0
   -2.4217   -3.7061   -1.5064 H   0  0  0  0  0  0  0  0  0  0  0  0
   -4.7882   -4.1129   -0.5882 H   0  0  0  0  0  0  0  0  0  0  0  0
   -3.7609   -3.0780    0.4267 H   0  0  0  0  0  0  0  0  0  0  0  0
   -5.0418   -2.3267   -0.6124 H   0  0  0  0  0  0  0  0  0  0  0  0
   -2.1384   -1.5132   -2.8056 H   0  0  0  0  0  0  0  0  0  0  0  0
   -3.5618   -0.8497   -1.9758 H   0  0  0  0  0  0  0  0  0  0  0  0
   -1.3189   -0.1213   -1.1081 H   0  0  0  0  0  0  0  0  0  0  0  0
   -0.9221   -2.8547    0.1434 H   0  0  0  0  0  0  0  0  0  0  0  0
    0.1797   -0.7293   -2.7267 H   0  0  0  0  0  0  0  0  0  0  0  0
    1.8596   -1.2928   -2.6645 H   0  0  0  0  0  0  0  0  0  0  0  0
    0.7236    0.5450   -0.4712 H   0  0  0  0  0  0  0  0  0  0  0  0
    2.1943    0.3071    1.3029 H   0  0  0  0  0  0  0  0  0  0  0  0
    5.1325   -0.0544    0.5353 H   0  0  0  0  0  0  0  0  0  0  0  0
    4.5670    1.1433    1.7455 H   0  0  0  0  0  0  0  0  0  0  0  0
    3.6694   -0.8005    3.2771 H   0  0  0  0  0  0  0  0  0  0  0  0
    5.8269   -1.9032    3.7275 H   0  0  0  0  0  0  0  0  0  0  0  0
    6.5362   -1.2535    2.0366 H   0  0  0  0  0  0  0  0  0  0  0  0
    4.0892   -3.1044    2.5414 H   0  0  0  0  0  0  0  0  0  0  0  0
    4.7946   -2.4555    0.8473 H   0  0  0  0  0  0  0  0  0  0  0  0
    1.2745    1.3490   -3.2501 H   0  0  0  0  0  0  0  0  0  0  0  0
    3.5855    3.8667   -0.5331 H   0  0  0  0  0  0  0  0  0  0  0  0
    3.8209    4.4534    1.8503 H   0  0  0  0  0  0  0  0  0  0  0  0
    1.9076    4.1788    3.3959 H   0  0  0  0  0  0  0  0  0  0  0  0
   -0.2377    3.3295    2.5782 H   0  0  0  0  0  0  0  0  0  0  0  0
   -2.3234    3.3857    1.1519 H   0  0  0  0  0  0  0  0  0  0  0  0
   -1.7319    1.7726    1.6869 H   0  0  0  0  0  0  0  0  0  0  0  0
   -2.7637    1.6075   -1.1018 H   0  0  0  0  0  0  0  0  0  0  0  0
   -3.9572    2.3983   -0.0645 H   0  0  0  0  0  0  0  0  0  0  0  0
   -5.4854    0.8812    0.8993 H   0  0  0  0  0  0  0  0  0  0  0  0
   -4.9516   -0.7203    1.5040 H   0  0  0  0  0  0  0  0  0  0  0  0
   -4.4263    0.7809    2.3671 H   0  0  0  0  0  0  0  0  0  0  0  0
  1  2  1  0
  2  3  1  0
  2  4  1  0
  4  5  1  0
  5  6  1  0
  6  7  1  0
  7  8  2  0
  7  9  1  0
  9 10  1  0
 10 11  1  0
 11 12  2  0
 11 13  1  0
 13 14  1  0
 14 15  1  0
 15 16  1  0
 16 17  1  0
 10 18  1  0
 18 19  1  0
 19 20  2  0
 19 21  1  0
 21 22  2  0
 22 23  1  0
 23 24  2  0
 24 25  1  0
 25 26  2  0
 26 27  1  0
 27 28  1  0
 28 29  1  0
 29 30  1  0
 30 31  1  0
 30 32  1  0
 32 33  2  0
 32  5  1  0
 17 15  1  0
 26 21  1  0
  1 34  1  0
  1 35  1  0
  1 36  1  0
  2 37  1  0
  3 38  1  0
  3 39  1  0
  3 40  1  0
  4 41  1  0
  4 42  1  0
  5 43  1  0
  6 44  1  0
  9 45  1  0
  9 46  1  0
 10 47  1  0
 13 48  1  0
 14 49  1  0
 14 50  1  0
 15 51  1  0
 16 52  1  0
 16 53  1  0
 17 54  1  0
 17 55  1  0
 18 56  1  0
 22 57  1  0
 23 58  1  0
 24 59  1  0
 25 60  1  0
 28 61  1  0
 28 62  1  0
 29 63  1  0
 29 64  1  0
 31 65  1  0
 31 66  1  0
 31 67  1  0
M  END
$$$$
