
     RDKit          3D

 84 88  0  0  0  0  0  0  0  0999 V2000
   -2.2913   -3.8907    2.0164 C   0  0  0  0  0  0  0  0  0  0  0  0
   -2.5646   -3.3711    0.5953 C   0  0  0  0  0  0  0  0  0  0  0  0
   -3.8586   -4.0012    0.0590 C   0  0  0  0  0  0  0  0  0  0  0  0
   -2.6545   -1.8223    0.5654 C   0  0  2  0  0  0  0  0  0  0  0  0
   -3.0048   -1.3640   -0.7431 O   0  0  0  0  0  0  0  0  0  0  0  0
   -4.0603   -0.4792   -1.0210 C   0  0  0  0  0  0  0  0  0  0  0  0
   -4.9452   -0.8699   -1.8290 O   0  0  0  0  0  0  0  0  0  0  0  0
   -4.1450    0.9320   -0.4130 C   0  0  0  0  0  0  0  0  0  0  0  0
   -2.7357    1.5124   -0.3700 C   0  0  0  0  0  0  0  0  0  0  0  0
   -2.4234    2.7486    0.0519 C   0  0  0  0  0  0  0  0  0  0  0  0
   -1.0298    3.2405    0.0071 C   0  0  0  0  0  0  0  0  0  0  0  0
   -0.7607    4.5494   -0.4232 C   0  0  0  0  0  0  0  0  0  0  0  0
    0.5614    4.9936   -0.5576 C   0  0  0  0  0  0  0  0  0  0  0  0
    1.6263    4.1348   -0.2449 C   0  0  0  0  0  0  0  0  0  0  0  0
    2.9601    4.5264   -0.4101 C   0  0  0  0  0  0  0  0  0  0  0  0
    3.9932    3.6398   -0.0891 C   0  0  0  0  0  0  0  0  0  0  0  0
    3.6870    2.3696    0.4383 C   0  0  0  0  0  0  0  0  0  0  0  0
    2.3795    2.0067    0.5585 N   0  0  0  0  0  0  0  0  0  0  0  0
    1.3568    2.8392    0.2354 C   0  0  0  0  0  0  0  0  0  0  0  0
    0.0387    2.4032    0.3659 C   0  0  0  0  0  0  0  0  0  0  0  0
    4.7567    1.3498    0.7873 C   0  0  1  0  0  0  0  0  0  0  0  0
    6.0299    1.9855    1.3626 C   0  0  0  0  0  0  0  0  0  0  0  0
    4.2221    0.4015    1.7699 N   0  0  0  0  0  0  0  0  0  0  0  0
    4.5775   -0.9864    1.7759 C   0  0  0  0  0  0  0  0  0  0  0  0
    5.2298   -1.4414    2.7534 O   0  0  0  0  0  0  0  0  0  0  0  0
    4.1353   -1.9411    0.6924 C   0  0  2  0  0  0  0  0  0  0  0  0
    5.2953   -2.2992   -0.2542 C   0  0  0  0  0  0  0  0  0  0  0  0
    4.8324   -3.3527   -1.2671 C   0  0  0  0  0  0  0  0  0  0  0  0
    3.5485   -2.9083   -1.9735 C   0  0  0  0  0  0  0  0  0  0  0  0
    2.5800   -2.4084   -0.9884 N   0  0  0  0  0  0  0  0  0  0  0  0
    2.9858   -1.4221   -0.0656 N   0  0  0  0  0  0  0  0  0  0  0  0
    1.1921   -2.7717   -1.0933 C   0  0  0  0  0  0  0  0  0  0  0  0
    0.8830   -3.9823   -1.2600 O   0  0  0  0  0  0  0  0  0  0  0  0
    0.0913   -1.7370   -1.0489 C   0  0  2  0  0  0  0  0  0  0  0  0
    0.4211   -0.5605   -1.9758 C   0  0  0  0  0  0  0  0  0  0  0  0
   -0.1132   -1.2701    0.3290 N   0  0  0  0  0  0  0  0  0  0  0  0
   -1.3700   -1.1721    1.0308 C   0  0  0  0  0  0  0  0  0  0  0  0
   -1.3937   -0.5480    2.1261 O   0  0  0  0  0  0  0  0  0  0  0  0
   -4.7516    0.8355    1.0179 C   0  0  0  0  0  0  0  0  0  0  0  0
   -5.7290    1.9866    1.3117 C   0  0  0  0  0  0  0  0  0  0  0  0
   -6.8411    2.0227    0.4290 O   0  0  0  0  0  0  0  0  0  0  0  0
   -6.5320    1.6947   -0.9219 C   0  0  0  0  0  0  0  0  0  0  0  0
   -5.0465    1.8417   -1.3061 C   0  0  0  0  0  0  0  0  0  0  0  0
   -1.3038   -3.5340    2.3783 H   0  0  0  0  0  0  0  0  0  0  0  0
   -2.2691   -5.0016    2.0235 H   0  0  0  0  0  0  0  0  0  0  0  0
   -3.0796   -3.5457    2.7199 H   0  0  0  0  0  0  0  0  0  0  0  0
   -1.7337   -3.7173   -0.0524 H   0  0  0  0  0  0  0  0  0  0  0  0
   -4.0218   -3.7115   -1.0003 H   0  0  0  0  0  0  0  0  0  0  0  0
   -4.7333   -3.6725    0.6607 H   0  0  0  0  0  0  0  0  0  0  0  0
   -3.7934   -5.1097    0.0974 H   0  0  0  0  0  0  0  0  0  0  0  0
   -3.4631   -1.5435    1.2750 H   0  0  0  0  0  0  0  0  0  0  0  0
   -1.9307    0.9009   -0.7409 H   0  0  0  0  0  0  0  0  0  0  0  0
   -3.1962    3.4401    0.3534 H   0  0  0  0  0  0  0  0  0  0  0  0
   -1.5730    5.2138   -0.6911 H   0  0  0  0  0  0  0  0  0  0  0  0
    0.7504    5.9973   -0.9190 H   0  0  0  0  0  0  0  0  0  0  0  0
    3.2034    5.5091   -0.7961 H   0  0  0  0  0  0  0  0  0  0  0  0
    5.0146    3.9537   -0.2497 H   0  0  0  0  0  0  0  0  0  0  0  0
   -0.1512    1.4123    0.7465 H   0  0  0  0  0  0  0  0  0  0  0  0
    5.0347    0.8165   -0.1450 H   0  0  0  0  0  0  0  0  0  0  0  0
    6.7061    1.1934    1.7496 H   0  0  0  0  0  0  0  0  0  0  0  0
    5.7798    2.6767    2.1960 H   0  0  0  0  0  0  0  0  0  0  0  0
    6.5861    2.5369    0.5765 H   0  0  0  0  0  0  0  0  0  0  0  0
    3.8965    0.8007    2.6799 H   0  0  0  0  0  0  0  0  0  0  0  0
    3.8115   -2.8738    1.2097 H   0  0  0  0  0  0  0  0  0  0  0  0
    6.1494   -2.7086    0.3283 H   0  0  0  0  0  0  0  0  0  0  0  0
    5.6465   -1.3946   -0.7959 H   0  0  0  0  0  0  0  0  0  0  0  0
    5.6316   -3.5258   -2.0198 H   0  0  0  0  0  0  0  0  0  0  0  0
    4.6430   -4.3124   -0.7375 H   0  0  0  0  0  0  0  0  0  0  0  0
    3.1322   -3.7649   -2.5469 H   0  0  0  0  0  0  0  0  0  0  0  0
    3.7830   -2.0946   -2.6935 H   0  0  0  0  0  0  0  0  0  0  0  0
    3.2770   -0.5854   -0.6200 H   0  0  0  0  0  0  0  0  0  0  0  0
   -0.8274   -2.2062   -1.4489 H   0  0  0  0  0  0  0  0  0  0  0  0
    0.7981   -0.9313   -2.9532 H   0  0  0  0  0  0  0  0  0  0  0  0
   -0.4888    0.0345   -2.1807 H   0  0  0  0  0  0  0  0  0  0  0  0
    1.1843    0.1062   -1.5254 H   0  0  0  0  0  0  0  0  0  0  0  0
    0.7092   -0.8534    0.8183 H   0  0  0  0  0  0  0  0  0  0  0  0
   -5.3299   -0.1085    1.1354 H   0  0  0  0  0  0  0  0  0  0  0  0
   -3.9533    0.8267    1.7926 H   0  0  0  0  0  0  0  0  0  0  0  0
   -5.2079    2.9648    1.2904 H   0  0  0  0  0  0  0  0  0  0  0  0
   -6.1145    1.8589    2.3452 H   0  0  0  0  0  0  0  0  0  0  0  0
   -7.1294    2.3570   -1.5834 H   0  0  0  0  0  0  0  0  0  0  0  0
   -6.8734    0.6572   -1.1199 H   0  0  0  0  0  0  0  0  0  0  0  0
   -4.7889    2.9160   -1.1952 H   0  0  0  0  0  0  0  0  0  0  0  0
   -4.9084    1.6084   -2.3849 H   0  0  0  0  0  0  0  0  0  0  0  0
  1  2  1  0
  2  3  1  0
  2  4  1  0
  4  5  1  0
  5  6  1  0
  6  7  2  0
  6  8  1  0
  8  9  1  0
  9 10  2  0
 10 11  1  0
 11 12  2  0
 12 13  1  0
 13 14  2  0
 14 15  1  0
 15 16  2  0
 16 17  1  0
 17 18  2  0
 18 19  1  0
 19 20  2  0
 17 21  1  0
 21 22  1  0
 21 23  1  0
 23 24  1  0
 24 25  2  0
 24 26  1  0
 26 27  1  0
 27 28  1  0
 28 29  1  0
 29 30  1  0
 30 31  1  0
 30 32  1  0
 32 33  2  0
 32 34  1  0
 34 35  1  0
 34 36  1  0
 36 37  1  0
 37 38  2  0
  8 39  1  0
 39 40  1  0
 40 41  1  0
 41 42  1  0
 42 43  1  0
 37  4  1  0
 43  8  1  0
 20 11  1  0
 31 26  1  0
 19 14  1  0
  1 44  1  0
  1 45  1  0
  1 46  1  0
  2 47  1  0
  3 48  1  0
  3 49  1  0
  3 50  1  0
  4 51  1  1
  9 52  1  0
 10 53  1  0
 12 54  1  0
 13 55  1  0
 15 56  1  0
 16 57  1  0
 20 58  1  0
 21 59  1  6
 22 60  1  0
 22 61  1  0
 22 62  1  0
 23 63  1  0
 26 64  1  1
 27 65  1  0
 27 66  1  0
 28 67  1  0
 28 68  1  0
 29 69  1  0
 29 70  1  0
 31 71  1  0
 34 72  1  6
 35 73  1  0
 35 74  1  0
 35 75  1  0
 36 76  1  0
 39 77  1  0
 39 78  1  0
 40 79  1  0
 40 80  1  0
 42 81  1  0
 42 82  1  0
 43 83  1  0
 43 84  1  0
M  END
$$$$
