
     RDKit          3D

 72 73  0  0  0  0  0  0  0  0999 V2000
   -6.2768    0.5506    1.3688 C   0  0  0  0  0  0  0  0  0  0  0  0
   -5.0797    0.8513    0.4542 C   0  0  0  0  0  0  0  0  0  0  0  0
   -4.9344    2.3705    0.2937 C   0  0  0  0  0  0  0  0  0  0  0  0
   -3.7997    0.1808    1.0242 C   0  0  0  0  0  0  0  0  0  0  0  0
   -2.5130    0.2453    0.1441 C   0  0  1  0  0  0  0  0  0  0  0  0
   -2.8196   -0.2697   -1.2550 C   0  0  0  0  0  0  0  0  0  0  0  0
   -3.3521    0.4999   -2.1027 O   0  0  0  0  0  0  0  0  0  0  0  0
   -2.6059   -1.6442   -1.6108 N   0  0  0  0  0  0  0  0  0  0  0  0
   -1.3723   -2.3486   -1.2745 C   0  0  0  0  0  0  0  0  0  0  0  0
   -1.5498   -3.2476   -0.0430 C   0  0  0  0  0  0  0  0  0  0  0  0
   -0.2213   -3.4527    0.7026 C   0  0  0  0  0  0  0  0  0  0  0  0
    0.7984   -4.2990   -0.0897 C   0  0  0  0  0  0  0  0  0  0  0  0
    2.2521   -3.8422    0.1431 C   0  0  0  0  0  0  0  0  0  0  0  0
    2.7713   -2.8957   -0.9522 C   0  0  0  0  0  0  0  0  0  0  0  0
    1.9934   -1.6455   -1.0050 N   0  0  0  0  0  0  0  0  0  0  0  0
    2.5594   -0.5722   -0.1665 C   0  0  1  0  0  0  0  0  0  0  0  0
    3.7034    0.1785   -0.9004 C   0  0  0  0  0  0  0  0  0  0  0  0
    4.4158    1.1469    0.0100 C   0  0  0  0  0  0  0  0  0  0  0  0
    5.2293    0.6674    1.0510 C   0  0  0  0  0  0  0  0  0  0  0  0
    5.8539    1.5615    1.9226 C   0  0  0  0  0  0  0  0  0  0  0  0
    5.6796    2.9383    1.7575 C   0  0  0  0  0  0  0  0  0  0  0  0
    4.8873    3.4246    0.7138 C   0  0  0  0  0  0  0  0  0  0  0  0
    4.2621    2.5338   -0.1616 C   0  0  0  0  0  0  0  0  0  0  0  0
    1.4425    0.3544    0.2537 C   0  0  0  0  0  0  0  0  0  0  0  0
    0.7773    0.0846    1.2831 O   0  0  0  0  0  0  0  0  0  0  0  0
    1.0952    1.5117   -0.5147 N   0  0  0  0  0  0  0  0  0  0  0  0
    0.0535    1.4824   -1.5410 C   0  0  2  0  0  0  0  0  0  0  0  0
    0.5693    2.1807   -2.8026 C   0  0  0  0  0  0  0  0  0  0  0  0
   -1.2141    2.1233   -1.0080 C   0  0  0  0  0  0  0  0  0  0  0  0
   -1.6862    3.1566   -1.5490 O   0  0  0  0  0  0  0  0  0  0  0  0
   -1.8745    1.5855    0.1517 N   0  0  0  0  0  0  0  0  0  0  0  0
   -1.5857    2.2633    1.4234 C   0  0  0  0  0  0  0  0  0  0  0  0
   -7.2066    0.9832    0.9374 H   0  0  0  0  0  0  0  0  0  0  0  0
   -6.1149    0.9791    2.3831 H   0  0  0  0  0  0  0  0  0  0  0  0
   -6.4215   -0.5474    1.4629 H   0  0  0  0  0  0  0  0  0  0  0  0
   -5.3190    0.4118   -0.5381 H   0  0  0  0  0  0  0  0  0  0  0  0
   -5.8899    2.8086   -0.0646 H   0  0  0  0  0  0  0  0  0  0  0  0
   -4.6737    2.8436    1.2639 H   0  0  0  0  0  0  0  0  0  0  0  0
   -4.1626    2.6133   -0.4631 H   0  0  0  0  0  0  0  0  0  0  0  0
   -3.6079    0.5771    2.0429 H   0  0  0  0  0  0  0  0  0  0  0  0
   -4.0251   -0.8975    1.1721 H   0  0  0  0  0  0  0  0  0  0  0  0
   -1.7856   -0.4481    0.6141 H   0  0  0  0  0  0  0  0  0  0  0  0
   -3.1533   -2.0189   -2.4222 H   0  0  0  0  0  0  0  0  0  0  0  0
   -1.0576   -2.9693   -2.1424 H   0  0  0  0  0  0  0  0  0  0  0  0
   -0.5707   -1.6111   -1.0971 H   0  0  0  0  0  0  0  0  0  0  0  0
   -1.9697   -4.2292   -0.3524 H   0  0  0  0  0  0  0  0  0  0  0  0
   -2.2705   -2.7810    0.6628 H   0  0  0  0  0  0  0  0  0  0  0  0
   -0.4297   -3.9605    1.6703 H   0  0  0  0  0  0  0  0  0  0  0  0
    0.1958   -2.4594    0.9624 H   0  0  0  0  0  0  0  0  0  0  0  0
    0.5751   -4.3043   -1.1770 H   0  0  0  0  0  0  0  0  0  0  0  0
    0.7024   -5.3529    0.2475 H   0  0  0  0  0  0  0  0  0  0  0  0
    2.3670   -3.3714    1.1460 H   0  0  0  0  0  0  0  0  0  0  0  0
    2.9056   -4.7429    0.1379 H   0  0  0  0  0  0  0  0  0  0  0  0
    2.7032   -3.4170   -1.9319 H   0  0  0  0  0  0  0  0  0  0  0  0
    3.8508   -2.7035   -0.7752 H   0  0  0  0  0  0  0  0  0  0  0  0
    1.9275   -1.3208   -1.9998 H   0  0  0  0  0  0  0  0  0  0  0  0
    2.9769   -1.0153    0.7667 H   0  0  0  0  0  0  0  0  0  0  0  0
    3.3074    0.7011   -1.7975 H   0  0  0  0  0  0  0  0  0  0  0  0
    4.4535   -0.5467   -1.2781 H   0  0  0  0  0  0  0  0  0  0  0  0
    5.3639   -0.3980    1.1945 H   0  0  0  0  0  0  0  0  0  0  0  0
    6.4659    1.1895    2.7322 H   0  0  0  0  0  0  0  0  0  0  0  0
    6.1558    3.6272    2.4399 H   0  0  0  0  0  0  0  0  0  0  0  0
    4.7588    4.4930    0.5843 H   0  0  0  0  0  0  0  0  0  0  0  0
    3.6543    2.9255   -0.9686 H   0  0  0  0  0  0  0  0  0  0  0  0
    1.3964    2.4421   -0.1491 H   0  0  0  0  0  0  0  0  0  0  0  0
   -0.1663    0.4373   -1.8246 H   0  0  0  0  0  0  0  0  0  0  0  0
   -0.2164    2.1858   -3.5867 H   0  0  0  0  0  0  0  0  0  0  0  0
    0.8664    3.2270   -2.5815 H   0  0  0  0  0  0  0  0  0  0  0  0
    1.4524    1.6353   -3.2036 H   0  0  0  0  0  0  0  0  0  0  0  0
   -2.3000    3.0962    1.5779 H   0  0  0  0  0  0  0  0  0  0  0  0
   -0.5558    2.6808    1.4221 H   0  0  0  0  0  0  0  0  0  0  0  0
   -1.6412    1.5633    2.2809 H   0  0  0  0  0  0  0  0  0  0  0  0
  1  2  1  0
  2  3  1  0
  2  4  1  0
  4  5  1  0
  5  6  1  0
  6  7  2  0
  6  8  1  0
  8  9  1  0
  9 10  1  0
 10 11  1  0
 11 12  1  0
 12 13  1  0
 13 14  1  0
 14 15  1  0
 15 16  1  0
 16 17  1  0
 17 18  1  0
 18 19  2  0
 19 20  1  0
 20 21  2  0
 21 22  1  0
 22 23  2  0
 16 24  1  0
 24 25  2  0
 24 26  1  0
 26 27  1  0
 27 28  1  0
 27 29  1  0
 29 30  2  0
 29 31  1  0
 31 32  1  0
 31  5  1  0
 23 18  1  0
  1 33  1  0
  1 34  1  0
  1 35  1  0
  2 36  1  0
  3 37  1  0
  3 38  1  0
  3 39  1  0
  4 40  1  0
  4 41  1  0
  5 42  1  1
  8 43  1  0
  9 44  1  0
  9 45  1  0
 10 46  1  0
 10 47  1  0
 11 48  1  0
 11 49  1  0
 12 50  1  0
 12 51  1  0
 13 52  1  0
 13 53  1  0
 14 54  1  0
 14 55  1  0
 15 56  1  0
 16 57  1  1
 17 58  1  0
 17 59  1  0
 19 60  1  0
 20 61  1  0
 21 62  1  0
 22 63  1  0
 23 64  1  0
 26 65  1  0
 27 66  1  6
 28 67  1  0
 28 68  1  0
 28 69  1  0
 32 70  1  0
 32 71  1  0
 32 72  1  0
M  END
$$$$
