
     RDKit          3D

 91 94  0  0  0  0  0  0  0  0999 V2000
    1.2934    1.4579   -5.5090 C   0  0  0  0  0  0  0  0  0  0  0  0
    1.5568    1.3664   -4.0039 C   0  0  1  0  0  0  0  0  0  0  0  0
    0.2510    1.2557   -3.1894 C   0  0  0  0  0  0  0  0  0  0  0  0
   -0.6321    2.5046   -3.2872 C   0  0  0  0  0  0  0  0  0  0  0  0
   -1.9312    2.3574   -2.4776 C   0  0  0  0  0  0  0  0  0  0  0  0
   -1.7630    2.6657   -0.9775 C   0  0  0  0  0  0  0  0  0  0  0  0
   -1.0389    1.6837   -0.2491 O   0  0  0  0  0  0  0  0  0  0  0  0
   -1.7423    0.4584   -0.0320 C   0  0  2  0  0  0  0  0  0  0  0  0
   -3.1345    0.6407    0.6495 C   0  0  0  0  0  0  0  0  0  0  0  0
   -4.2177    0.8266   -0.3406 N   0  0  0  0  0  0  0  0  0  0  0  0
   -4.6878   -0.4706   -0.8616 C   0  0  0  0  0  0  0  0  0  0  0  0
   -5.5638    1.6466    0.4212 S   0  0  0  0  0  6  0  0  0  0  0  0
   -5.1628    3.0515    0.7795 O   0  0  0  0  0  0  0  0  0  0  0  0
   -6.7189    1.7263   -0.5372 O   0  0  0  0  0  0  0  0  0  0  0  0
   -6.0740    0.8050    1.8884 C   0  0  0  0  0  0  0  0  0  0  0  0
   -7.1299   -0.1188    1.8415 C   0  0  0  0  0  0  0  0  0  0  0  0
   -7.5291   -0.7880    3.0010 C   0  0  0  0  0  0  0  0  0  0  0  0
   -6.8678   -0.5464    4.2127 C   0  0  0  0  0  0  0  0  0  0  0  0
   -7.2482   -1.2033    5.3360 F   0  0  0  0  0  0  0  0  0  0  0  0
   -5.8111    0.3689    4.2646 C   0  0  0  0  0  0  0  0  0  0  0  0
   -5.4190    1.0462    3.1080 C   0  0  0  0  0  0  0  0  0  0  0  0
   -0.8616   -0.4683    0.8668 C   0  0  2  0  0  0  0  0  0  0  0  0
   -0.4851    0.2306    2.1899 C   0  0  0  0  0  0  0  0  0  0  0  0
    0.4327   -0.9409    0.1614 C   0  0  0  0  0  0  0  0  0  0  0  0
    0.2740   -1.7389   -1.0815 N   0  0  0  0  0  0  0  0  0  0  0  0
   -0.8393   -2.7204   -1.2114 C   0  0  1  0  0  0  0  0  0  0  0  0
   -1.3829   -2.8456   -2.6465 C   0  0  0  0  0  0  0  0  0  0  0  0
   -0.4582   -4.0780   -0.5987 C   0  0  0  0  0  0  0  0  0  0  0  0
    0.6884   -4.6192   -1.1992 O   0  0  0  0  0  0  0  0  0  0  0  0
    1.4280   -1.8085   -1.9778 C   0  0  0  0  0  0  0  0  0  0  0  0
    1.3938   -2.5009   -3.0295 O   0  0  0  0  0  0  0  0  0  0  0  0
    2.6695   -1.0522   -1.7185 C   0  0  0  0  0  0  0  0  0  0  0  0
    3.4263   -1.3156   -0.5667 C   0  0  0  0  0  0  0  0  0  0  0  0
    4.5084   -0.4929   -0.2174 C   0  0  0  0  0  0  0  0  0  0  0  0
    5.1898   -0.7305    1.0287 N   0  0  0  0  0  0  0  0  0  0  0  0
    6.4551   -0.1537    1.3945 C   0  0  0  0  0  0  0  0  0  0  0  0
    7.3316    0.0422    0.5099 O   0  0  0  0  0  0  0  0  0  0  0  0
    6.7610    0.1557    2.8143 C   0  0  0  0  0  0  0  0  0  0  0  0
    5.7334    0.2199    3.7795 C   0  0  0  0  0  0  0  0  0  0  0  0
    6.0294    0.5072    5.1157 C   0  0  0  0  0  0  0  0  0  0  0  0
    7.3500    0.7484    5.5008 C   0  0  0  0  0  0  0  0  0  0  0  0
    8.3781    0.6992    4.5528 C   0  0  0  0  0  0  0  0  0  0  0  0
    8.0880    0.4071    3.2166 C   0  0  0  0  0  0  0  0  0  0  0  0
    4.8372    0.5956   -1.0481 C   0  0  0  0  0  0  0  0  0  0  0  0
    4.1269    0.8211   -2.2301 C   0  0  0  0  0  0  0  0  0  0  0  0
    3.0507   -0.0069   -2.5759 C   0  0  0  0  0  0  0  0  0  0  0  0
    2.3504    0.2041   -3.7672 O   0  0  0  0  0  0  0  0  0  0  0  0
    0.6154    0.6410   -5.8390 H   0  0  0  0  0  0  0  0  0  0  0  0
    0.8495    2.4387   -5.7770 H   0  0  0  0  0  0  0  0  0  0  0  0
    2.2528    1.3697   -6.0607 H   0  0  0  0  0  0  0  0  0  0  0  0
    2.1170    2.2754   -3.6943 H   0  0  0  0  0  0  0  0  0  0  0  0
    0.5309    1.1056   -2.1287 H   0  0  0  0  0  0  0  0  0  0  0  0
   -0.3226    0.3619   -3.5229 H   0  0  0  0  0  0  0  0  0  0  0  0
   -0.0640    3.4012   -2.9533 H   0  0  0  0  0  0  0  0  0  0  0  0
   -0.9212    2.6628   -4.3492 H   0  0  0  0  0  0  0  0  0  0  0  0
   -2.3951    1.3625   -2.6457 H   0  0  0  0  0  0  0  0  0  0  0  0
   -2.6555    3.0991   -2.8824 H   0  0  0  0  0  0  0  0  0  0  0  0
   -2.7485    2.8801   -0.5234 H   0  0  0  0  0  0  0  0  0  0  0  0
   -1.2111    3.6264   -0.8843 H   0  0  0  0  0  0  0  0  0  0  0  0
   -1.8632   -0.0606   -1.0032 H   0  0  0  0  0  0  0  0  0  0  0  0
   -3.3752   -0.2249    1.3101 H   0  0  0  0  0  0  0  0  0  0  0  0
   -3.0587    1.5232    1.3236 H   0  0  0  0  0  0  0  0  0  0  0  0
   -3.8602   -1.0231   -1.3541 H   0  0  0  0  0  0  0  0  0  0  0  0
   -5.1052   -1.1086   -0.0502 H   0  0  0  0  0  0  0  0  0  0  0  0
   -5.4734   -0.3100   -1.6324 H   0  0  0  0  0  0  0  0  0  0  0  0
   -7.6370   -0.3270    0.9047 H   0  0  0  0  0  0  0  0  0  0  0  0
   -8.3480   -1.4960    2.9601 H   0  0  0  0  0  0  0  0  0  0  0  0
   -5.2948    0.5536    5.2008 H   0  0  0  0  0  0  0  0  0  0  0  0
   -4.6053    1.7578    3.1633 H   0  0  0  0  0  0  0  0  0  0  0  0
   -1.4371   -1.3683    1.1786 H   0  0  0  0  0  0  0  0  0  0  0  0
    0.0938    1.1581    2.0046 H   0  0  0  0  0  0  0  0  0  0  0  0
    0.1300   -0.4460    2.8245 H   0  0  0  0  0  0  0  0  0  0  0  0
   -1.3931    0.4862    2.7766 H   0  0  0  0  0  0  0  0  0  0  0  0
    1.0073   -1.5582    0.8826 H   0  0  0  0  0  0  0  0  0  0  0  0
    1.0288   -0.0263   -0.0473 H   0  0  0  0  0  0  0  0  0  0  0  0
   -1.7235   -2.3727   -0.6500 H   0  0  0  0  0  0  0  0  0  0  0  0
   -0.7673   -3.5178   -3.2822 H   0  0  0  0  0  0  0  0  0  0  0  0
   -1.4418   -1.8412   -3.1230 H   0  0  0  0  0  0  0  0  0  0  0  0
   -2.4091   -3.2739   -2.6240 H   0  0  0  0  0  0  0  0  0  0  0  0
   -0.2483   -3.9310    0.4795 H   0  0  0  0  0  0  0  0  0  0  0  0
   -1.3135   -4.7842   -0.6733 H   0  0  0  0  0  0  0  0  0  0  0  0
    0.3847   -5.1454   -1.9834 H   0  0  0  0  0  0  0  0  0  0  0  0
    3.1543   -2.1434    0.0783 H   0  0  0  0  0  0  0  0  0  0  0  0
    4.7494   -1.3908    1.7076 H   0  0  0  0  0  0  0  0  0  0  0  0
    4.6990    0.0555    3.5038 H   0  0  0  0  0  0  0  0  0  0  0  0
    5.2320    0.5476    5.8493 H   0  0  0  0  0  0  0  0  0  0  0  0
    7.5804    0.9794    6.5341 H   0  0  0  0  0  0  0  0  0  0  0  0
    9.4026    0.8810    4.8596 H   0  0  0  0  0  0  0  0  0  0  0  0
    8.9014    0.3636    2.5025 H   0  0  0  0  0  0  0  0  0  0  0  0
    5.6277    1.2834   -0.7829 H   0  0  0  0  0  0  0  0  0  0  0  0
    4.4108    1.6421   -2.8770 H   0  0  0  0  0  0  0  0  0  0  0  0
  1  2  1  0
  2  3  1  0
  3  4  1  0
  4  5  1  0
  5  6  1  0
  6  7  1  0
  7  8  1  0
  8  9  1  0
  9 10  1  0
 10 11  1  0
 10 12  1  0
 12 13  2  0
 12 14  2  0
 12 15  1  0
 15 16  2  0
 16 17  1  0
 17 18  2  0
 18 19  1  0
 18 20  1  0
 20 21  2  0
  8 22  1  0
 22 23  1  0
 22 24  1  0
 24 25  1  0
 25 26  1  0
 26 27  1  0
 26 28  1  0
 28 29  1  0
 25 30  1  0
 30 31  2  0
 30 32  1  0
 32 33  2  0
 33 34  1  0
 34 35  1  0
 35 36  1  0
 36 37  2  0
 36 38  1  0
 38 39  2  0
 39 40  1  0
 40 41  2  0
 41 42  1  0
 42 43  2  0
 34 44  2  0
 44 45  1  0
 45 46  2  0
 46 47  1  0
 47  2  1  0
 21 15  1  0
 46 32  1  0
 43 38  1  0
  1 48  1  0
  1 49  1  0
  1 50  1  0
  2 51  1  1
  3 52  1  0
  3 53  1  0
  4 54  1  0
  4 55  1  0
  5 56  1  0
  5 57  1  0
  6 58  1  0
  6 59  1  0
  8 60  1  6
  9 61  1  0
  9 62  1  0
 11 63  1  0
 11 64  1  0
 11 65  1  0
 16 66  1  0
 17 67  1  0
 20 68  1  0
 21 69  1  0
 22 70  1  1
 23 71  1  0
 23 72  1  0
 23 73  1  0
 24 74  1  0
 24 75  1  0
 26 76  1  1
 27 77  1  0
 27 78  1  0
 27 79  1  0
 28 80  1  0
 28 81  1  0
 29 82  1  0
 33 83  1  0
 35 84  1  0
 39 85  1  0
 40 86  1  0
 41 87  1  0
 42 88  1  0
 43 89  1  0
 44 90  1  0
 45 91  1  0
M  END
$$$$
