
     RDKit          3D

 72 74  0  0  0  0  0  0  0  0999 V2000
   -4.2490    3.2867   -1.8700 C   0  0  0  0  0  0  0  0  0  0  0  0
   -3.4749    3.1417   -0.6978 O   0  0  0  0  0  0  0  0  0  0  0  0
   -3.0985    1.7855   -0.4885 C   0  0  1  0  0  0  0  0  0  0  0  0
   -1.6602    1.5683   -1.0282 C   0  0  0  0  0  0  0  0  0  0  0  0
   -0.6627    2.4093   -0.3433 N   0  0  0  0  0  0  0  0  0  0  0  0
   -0.6691    3.8646   -0.5115 C   0  0  0  0  0  0  0  0  0  0  0  0
    0.4041    1.8337    0.4300 C   0  0  0  0  0  0  0  0  0  0  0  0
    0.6893    2.3253    1.5558 O   0  0  0  0  0  0  0  0  0  0  0  0
    1.3033    0.8187   -0.1476 C   0  0  0  0  0  0  0  0  0  0  0  0
    2.4730    1.2723   -0.7723 C   0  0  0  0  0  0  0  0  0  0  0  0
    3.3505    0.3759   -1.3843 C   0  0  0  0  0  0  0  0  0  0  0  0
    3.0729   -1.0010   -1.3860 C   0  0  0  0  0  0  0  0  0  0  0  0
    3.9453   -1.9566   -2.0165 N   0  0  0  0  0  0  0  0  0  0  0  0
    5.4646   -1.5553   -2.7549 S   0  0  0  0  0  6  0  0  0  0  0  0
    6.0965   -2.8080   -3.2928 O   0  0  0  0  0  0  0  0  0  0  0  0
    5.2296   -0.5965   -3.8884 O   0  0  0  0  0  0  0  0  0  0  0  0
    6.5417   -0.8415   -1.5694 C   0  0  0  0  0  0  0  0  0  0  0  0
    6.4707   -1.0213   -0.2068 C   0  0  0  0  0  0  0  0  0  0  0  0
    7.4722   -0.3148    0.3410 N   0  0  0  0  0  0  0  0  0  0  0  0
    7.7464   -0.1423    1.7619 C   0  0  0  0  0  0  0  0  0  0  0  0
    8.1084    0.2875   -0.6840 C   0  0  0  0  0  0  0  0  0  0  0  0
    7.5660   -0.0207   -1.8821 N   0  0  0  0  0  0  0  0  0  0  0  0
    1.9062   -1.4563   -0.7571 C   0  0  0  0  0  0  0  0  0  0  0  0
    1.0274   -0.5692   -0.1242 C   0  0  0  0  0  0  0  0  0  0  0  0
   -0.1263   -1.1105    0.4523 O   0  0  0  0  0  0  0  0  0  0  0  0
   -0.5326   -0.9117    1.8011 C   0  0  0  0  0  0  0  0  0  0  0  0
   -1.9355   -1.5023    2.0357 C   0  0  2  0  0  0  0  0  0  0  0  0
   -1.8605   -3.0194    2.2429 C   0  0  0  0  0  0  0  0  0  0  0  0
   -2.8954   -1.1102    0.9647 N   0  0  0  0  0  0  0  0  0  0  0  0
   -2.9868   -1.8259   -0.3318 C   0  0  0  0  0  0  0  0  0  0  0  0
   -3.9202   -3.0580   -0.3266 C   0  0  0  0  0  0  0  0  0  0  0  0
   -5.3910   -2.7704   -0.0125 C   0  0  0  0  0  0  0  0  0  0  0  0
   -5.5410   -2.4093    1.3139 F   0  0  0  0  0  0  0  0  0  0  0  0
   -6.1309   -3.9175   -0.2357 F   0  0  0  0  0  0  0  0  0  0  0  0
   -5.8775   -1.7691   -0.8341 F   0  0  0  0  0  0  0  0  0  0  0  0
   -3.8472   -0.0136    1.2397 C   0  0  0  0  0  0  0  0  0  0  0  0
   -3.2330    1.4003    1.0311 C   0  0  2  0  0  0  0  0  0  0  0  0
   -4.0858    2.4218    1.8089 C   0  0  0  0  0  0  0  0  0  0  0  0
   -3.7136    2.8938   -2.7623 H   0  0  0  0  0  0  0  0  0  0  0  0
   -4.4372    4.3669   -2.0379 H   0  0  0  0  0  0  0  0  0  0  0  0
   -5.2345    2.7830   -1.7544 H   0  0  0  0  0  0  0  0  0  0  0  0
   -3.7581    1.0947   -1.0657 H   0  0  0  0  0  0  0  0  0  0  0  0
   -1.6339    1.7920   -2.1158 H   0  0  0  0  0  0  0  0  0  0  0  0
   -1.4030    0.4986   -0.9329 H   0  0  0  0  0  0  0  0  0  0  0  0
   -1.2940    4.1664   -1.3776 H   0  0  0  0  0  0  0  0  0  0  0  0
    0.3621    4.2292   -0.7071 H   0  0  0  0  0  0  0  0  0  0  0  0
   -1.0580    4.3450    0.4109 H   0  0  0  0  0  0  0  0  0  0  0  0
    2.7014    2.3310   -0.7986 H   0  0  0  0  0  0  0  0  0  0  0  0
    4.2349    0.7720   -1.8596 H   0  0  0  0  0  0  0  0  0  0  0  0
    3.6750   -2.9655   -2.0170 H   0  0  0  0  0  0  0  0  0  0  0  0
    5.7456   -1.6109    0.3402 H   0  0  0  0  0  0  0  0  0  0  0  0
    8.8398   -0.0272    1.9265 H   0  0  0  0  0  0  0  0  0  0  0  0
    7.2217    0.7626    2.1356 H   0  0  0  0  0  0  0  0  0  0  0  0
    7.3933   -1.0293    2.3296 H   0  0  0  0  0  0  0  0  0  0  0  0
    8.9572    0.9496   -0.5651 H   0  0  0  0  0  0  0  0  0  0  0  0
    1.6770   -2.5150   -0.7519 H   0  0  0  0  0  0  0  0  0  0  0  0
    0.2087   -1.3881    2.4790 H   0  0  0  0  0  0  0  0  0  0  0  0
   -0.5477    0.1556    2.0648 H   0  0  0  0  0  0  0  0  0  0  0  0
   -2.2870   -1.0907    3.0089 H   0  0  0  0  0  0  0  0  0  0  0  0
   -2.8681   -3.4201    2.4805 H   0  0  0  0  0  0  0  0  0  0  0  0
   -1.4409   -3.5258    1.3484 H   0  0  0  0  0  0  0  0  0  0  0  0
   -1.2033   -3.2522    3.1082 H   0  0  0  0  0  0  0  0  0  0  0  0
   -1.9835   -2.1735   -0.6462 H   0  0  0  0  0  0  0  0  0  0  0  0
   -3.3224   -1.1323   -1.1287 H   0  0  0  0  0  0  0  0  0  0  0  0
   -3.5510   -3.8435    0.3579 H   0  0  0  0  0  0  0  0  0  0  0  0
   -3.8770   -3.5043   -1.3444 H   0  0  0  0  0  0  0  0  0  0  0  0
   -4.7512   -0.1046    0.6053 H   0  0  0  0  0  0  0  0  0  0  0  0
   -4.2175   -0.1229    2.2828 H   0  0  0  0  0  0  0  0  0  0  0  0
   -2.2412    1.4312    1.5158 H   0  0  0  0  0  0  0  0  0  0  0  0
   -3.6150    3.4278    1.7756 H   0  0  0  0  0  0  0  0  0  0  0  0
   -4.1583    2.1358    2.8801 H   0  0  0  0  0  0  0  0  0  0  0  0
   -5.1101    2.4803    1.3824 H   0  0  0  0  0  0  0  0  0  0  0  0
  1  2  1  0
  2  3  1  0
  3  4  1  0
  4  5  1  0
  5  6  1  0
  5  7  1  0
  7  8  2  0
  7  9  1  0
  9 10  2  0
 10 11  1  0
 11 12  2  0
 12 13  1  0
 13 14  1  0
 14 15  2  0
 14 16  2  0
 14 17  1  0
 17 18  2  0
 18 19  1  0
 19 20  1  0
 19 21  1  0
 21 22  2  0
 12 23  1  0
 23 24  2  0
 24 25  1  0
 25 26  1  0
 26 27  1  0
 27 28  1  0
 27 29  1  0
 29 30  1  0
 30 31  1  0
 31 32  1  0
 32 33  1  0
 32 34  1  0
 32 35  1  0
 29 36  1  0
 36 37  1  0
 37 38  1  0
 37  3  1  0
 24  9  1  0
 22 17  1  0
  1 39  1  0
  1 40  1  0
  1 41  1  0
  3 42  1  6
  4 43  1  0
  4 44  1  0
  6 45  1  0
  6 46  1  0
  6 47  1  0
 10 48  1  0
 11 49  1  0
 13 50  1  0
 18 51  1  0
 20 52  1  0
 20 53  1  0
 20 54  1  0
 21 55  1  0
 23 56  1  0
 26 57  1  0
 26 58  1  0
 27 59  1  1
 28 60  1  0
 28 61  1  0
 28 62  1  0
 30 63  1  0
 30 64  1  0
 31 65  1  0
 31 66  1  0
 36 67  1  0
 36 68  1  0
 37 69  1  1
 38 70  1  0
 38 71  1  0
 38 72  1  0
M  END
$$$$
