
     RDKit          3D

 75 76  0  0  0  0  0  0  0  0999 V2000
   -6.0334    1.1942   -1.3371 C   0  0  0  0  0  0  0  0  0  0  0  0
   -5.3820    1.7000   -0.0346 C   0  0  0  0  0  0  0  0  0  0  0  0
   -6.3803    1.5760    1.1239 C   0  0  0  0  0  0  0  0  0  0  0  0
   -4.0828    0.9125    0.2775 C   0  0  0  0  0  0  0  0  0  0  0  0
   -2.9155    1.2495   -0.7140 C   0  0  2  0  0  0  0  0  0  0  0  0
   -2.5804    0.0312   -1.5631 C   0  0  0  0  0  0  0  0  0  0  0  0
   -2.4655    0.1868   -2.8090 O   0  0  0  0  0  0  0  0  0  0  0  0
   -2.4303   -1.2971   -1.0086 N   0  0  0  0  0  0  0  0  0  0  0  0
   -2.9457   -2.4224   -1.7982 C   0  0  0  0  0  0  0  0  0  0  0  0
   -1.9556   -1.5197    0.3698 C   0  0  0  0  0  0  0  0  0  0  0  0
   -0.7964   -2.5288    0.4146 C   0  0  0  0  0  0  0  0  0  0  0  0
   -0.0789   -2.4795    1.7768 C   0  0  0  0  0  0  0  0  0  0  0  0
    0.6852   -3.7734    2.1166 C   0  0  0  0  0  0  0  0  0  0  0  0
    1.7666   -4.1778    1.1005 C   0  0  0  0  0  0  0  0  0  0  0  0
    2.8443   -3.1006    0.8903 C   0  0  0  0  0  0  0  0  0  0  0  0
    2.5581   -2.3544   -0.3455 N   0  0  0  0  0  0  0  0  0  0  0  0
    3.0070   -0.9492   -0.3051 C   0  0  1  0  0  0  0  0  0  0  0  0
    4.5531   -0.8427   -0.2911 C   0  0  0  0  0  0  0  0  0  0  0  0
    4.9989    0.5762   -0.0382 C   0  0  0  0  0  0  0  0  0  0  0  0
    5.2111    1.4596   -1.1124 C   0  0  0  0  0  0  0  0  0  0  0  0
    5.5427    2.7971   -0.8713 C   0  0  0  0  0  0  0  0  0  0  0  0
    5.6667    3.2633    0.4408 C   0  0  0  0  0  0  0  0  0  0  0  0
    5.4583    2.3913    1.5155 C   0  0  0  0  0  0  0  0  0  0  0  0
    5.1275    1.0519    1.2782 C   0  0  0  0  0  0  0  0  0  0  0  0
    2.4527   -0.2373   -1.5227 C   0  0  0  0  0  0  0  0  0  0  0  0
    2.7477   -0.6758   -2.6681 O   0  0  0  0  0  0  0  0  0  0  0  0
    1.6850    0.9729   -1.4317 N   0  0  0  0  0  0  0  0  0  0  0  0
    0.8145    1.3412   -0.3079 C   0  0  1  0  0  0  0  0  0  0  0  0
    1.5301    2.3687    0.5660 C   0  0  0  0  0  0  0  0  0  0  0  0
   -0.4915    1.9003   -0.8233 C   0  0  0  0  0  0  0  0  0  0  0  0
   -0.5190    2.5273   -1.9214 O   0  0  0  0  0  0  0  0  0  0  0  0
   -1.7056    1.7925   -0.0537 N   0  0  0  0  0  0  0  0  0  0  0  0
   -1.8373    2.7346    1.0670 C   0  0  0  0  0  0  0  0  0  0  0  0
   -6.9969    1.7217   -1.5240 H   0  0  0  0  0  0  0  0  0  0  0  0
   -6.2353    0.0991   -1.2741 H   0  0  0  0  0  0  0  0  0  0  0  0
   -5.3709    1.3828   -2.2076 H   0  0  0  0  0  0  0  0  0  0  0  0
   -5.1401    2.7828   -0.1509 H   0  0  0  0  0  0  0  0  0  0  0  0
   -7.3183    2.1420    0.9003 H   0  0  0  0  0  0  0  0  0  0  0  0
   -6.6408    0.5055    1.2949 H   0  0  0  0  0  0  0  0  0  0  0  0
   -5.9342    1.9986    2.0512 H   0  0  0  0  0  0  0  0  0  0  0  0
   -4.3407   -0.1709    0.2643 H   0  0  0  0  0  0  0  0  0  0  0  0
   -3.7733    1.0985    1.3316 H   0  0  0  0  0  0  0  0  0  0  0  0
   -3.2639    2.0430   -1.4127 H   0  0  0  0  0  0  0  0  0  0  0  0
   -3.9939   -2.2168   -2.0994 H   0  0  0  0  0  0  0  0  0  0  0  0
   -2.3213   -2.5607   -2.7056 H   0  0  0  0  0  0  0  0  0  0  0  0
   -2.9395   -3.3672   -1.2212 H   0  0  0  0  0  0  0  0  0  0  0  0
   -1.6119   -0.5715    0.8270 H   0  0  0  0  0  0  0  0  0  0  0  0
   -2.7951   -1.9024    0.9912 H   0  0  0  0  0  0  0  0  0  0  0  0
   -0.0762   -2.2898   -0.3938 H   0  0  0  0  0  0  0  0  0  0  0  0
   -1.1859   -3.5534    0.2381 H   0  0  0  0  0  0  0  0  0  0  0  0
    0.6083   -1.6084    1.7985 H   0  0  0  0  0  0  0  0  0  0  0  0
   -0.8270   -2.3247    2.5828 H   0  0  0  0  0  0  0  0  0  0  0  0
    1.1580   -3.6522    3.1178 H   0  0  0  0  0  0  0  0  0  0  0  0
   -0.0418   -4.6100    2.2104 H   0  0  0  0  0  0  0  0  0  0  0  0
    2.2573   -5.0976    1.4860 H   0  0  0  0  0  0  0  0  0  0  0  0
    1.3000   -4.4602    0.1299 H   0  0  0  0  0  0  0  0  0  0  0  0
    2.9030   -2.4303    1.7772 H   0  0  0  0  0  0  0  0  0  0  0  0
    3.8340   -3.6035    0.7959 H   0  0  0  0  0  0  0  0  0  0  0  0
    3.0159   -2.8507   -1.1468 H   0  0  0  0  0  0  0  0  0  0  0  0
    2.6160   -0.4745    0.6181 H   0  0  0  0  0  0  0  0  0  0  0  0
    4.9769   -1.4935    0.5035 H   0  0  0  0  0  0  0  0  0  0  0  0
    4.9759   -1.2114   -1.2526 H   0  0  0  0  0  0  0  0  0  0  0  0
    5.1016    1.1169   -2.1339 H   0  0  0  0  0  0  0  0  0  0  0  0
    5.6987    3.4750   -1.7023 H   0  0  0  0  0  0  0  0  0  0  0  0
    5.9202    4.3002    0.6249 H   0  0  0  0  0  0  0  0  0  0  0  0
    5.5412    2.7575    2.5313 H   0  0  0  0  0  0  0  0  0  0  0  0
    4.9482    0.3903    2.1174 H   0  0  0  0  0  0  0  0  0  0  0  0
    1.7972    1.6559   -2.2128 H   0  0  0  0  0  0  0  0  0  0  0  0
    0.5812    0.4493    0.3048 H   0  0  0  0  0  0  0  0  0  0  0  0
    2.5008    1.9668    0.9099 H   0  0  0  0  0  0  0  0  0  0  0  0
    1.7163    3.3010   -0.0058 H   0  0  0  0  0  0  0  0  0  0  0  0
    0.9226    2.6090    1.4681 H   0  0  0  0  0  0  0  0  0  0  0  0
   -1.6294    2.2040    2.0289 H   0  0  0  0  0  0  0  0  0  0  0  0
   -2.8581    3.1887    1.0962 H   0  0  0  0  0  0  0  0  0  0  0  0
   -1.1280    3.5927    0.9606 H   0  0  0  0  0  0  0  0  0  0  0  0
  1  2  1  0
  2  3  1  0
  2  4  1  0
  4  5  1  0
  5  6  1  0
  6  7  2  0
  6  8  1  0
  8  9  1  0
  8 10  1  0
 10 11  1  0
 11 12  1  0
 12 13  1  0
 13 14  1  0
 14 15  1  0
 15 16  1  0
 16 17  1  0
 17 18  1  0
 18 19  1  0
 19 20  2  0
 20 21  1  0
 21 22  2  0
 22 23  1  0
 23 24  2  0
 17 25  1  0
 25 26  2  0
 25 27  1  0
 27 28  1  0
 28 29  1  0
 28 30  1  0
 30 31  2  0
 30 32  1  0
 32 33  1  0
 32  5  1  0
 24 19  1  0
  1 34  1  0
  1 35  1  0
  1 36  1  0
  2 37  1  0
  3 38  1  0
  3 39  1  0
  3 40  1  0
  4 41  1  0
  4 42  1  0
  5 43  1  6
  9 44  1  0
  9 45  1  0
  9 46  1  0
 10 47  1  0
 10 48  1  0
 11 49  1  0
 11 50  1  0
 12 51  1  0
 12 52  1  0
 13 53  1  0
 13 54  1  0
 14 55  1  0
 14 56  1  0
 15 57  1  0
 15 58  1  0
 16 59  1  0
 17 60  1  1
 18 61  1  0
 18 62  1  0
 20 63  1  0
 21 64  1  0
 22 65  1  0
 23 66  1  0
 24 67  1  0
 27 68  1  0
 28 69  1  1
 29 70  1  0
 29 71  1  0
 29 72  1  0
 33 73  1  0
 33 74  1  0
 33 75  1  0
M  END
$$$$
