
     RDKit          3D

 67 68  0  0  0  0  0  0  0  0999 V2000
   -1.0330    4.5124   -0.7114 C   0  0  0  0  0  0  0  0  0  0  0  0
   -0.7433    4.1626    0.7554 C   0  0  0  0  0  0  0  0  0  0  0  0
   -0.9111    5.4133    1.6295 C   0  0  0  0  0  0  0  0  0  0  0  0
   -1.6627    3.0300    1.2905 C   0  0  0  0  0  0  0  0  0  0  0  0
   -1.4367    1.6054    0.7132 C   0  0  2  0  0  0  0  0  0  0  0  0
   -0.0379    1.3686    0.3303 N   0  0  0  0  0  0  0  0  0  0  0  0
    0.9561    0.9983    1.3050 C   0  0  0  0  0  0  0  0  0  0  0  0
    0.7405    1.2136    2.5303 O   0  0  0  0  0  0  0  0  0  0  0  0
    2.2281    0.2835    0.9114 C   0  0  2  0  0  0  0  0  0  0  0  0
    2.9450    0.9311   -0.2893 C   0  0  0  0  0  0  0  0  0  0  0  0
    4.3146    0.3387   -0.4948 C   0  0  0  0  0  0  0  0  0  0  0  0
    5.4103    0.8184    0.2403 C   0  0  0  0  0  0  0  0  0  0  0  0
    6.6849    0.2793    0.0396 C   0  0  0  0  0  0  0  0  0  0  0  0
    6.8781   -0.7474   -0.8906 C   0  0  0  0  0  0  0  0  0  0  0  0
    8.1588   -1.2602   -1.0987 O   0  0  0  0  0  0  0  0  0  0  0  0
    5.7841   -1.2464   -1.6096 C   0  0  0  0  0  0  0  0  0  0  0  0
    4.5078   -0.7087   -1.4121 C   0  0  0  0  0  0  0  0  0  0  0  0
    1.9623   -1.1457    0.7069 N   0  0  0  0  0  0  0  0  0  0  0  0
    0.9999   -1.6512   -0.2300 C   0  0  0  0  0  0  0  0  0  0  0  0
    0.8471   -1.0945   -1.3515 O   0  0  0  0  0  0  0  0  0  0  0  0
    0.0767   -2.7617    0.1886 C   0  0  0  0  0  0  0  0  0  0  0  0
   -0.3550   -3.5808   -0.9584 N   0  0  0  0  0  0  0  0  0  0  0  0
   -1.4279   -4.5312   -0.6010 C   0  0  0  0  0  0  0  0  0  0  0  0
   -2.7626   -3.8743   -0.1717 C   0  0  0  0  0  0  0  0  0  0  0  0
   -3.2666   -2.8080   -1.1616 C   0  0  0  0  0  0  0  0  0  0  0  0
   -4.6712   -2.2778   -0.8209 C   0  0  0  0  0  0  0  0  0  0  0  0
   -4.7918   -1.5409    0.5322 C   0  0  0  0  0  0  0  0  0  0  0  0
   -3.6964   -0.4966    0.8170 C   0  0  0  0  0  0  0  0  0  0  0  0
   -3.5524    0.4792   -0.2658 N   0  0  0  0  0  0  0  0  0  0  0  0
   -2.3802    1.2943   -0.4384 C   0  0  0  0  0  0  0  0  0  0  0  0
   -2.1597    1.7895   -1.5758 O   0  0  0  0  0  0  0  0  0  0  0  0
   -0.5166    5.4531   -1.0000 H   0  0  0  0  0  0  0  0  0  0  0  0
   -2.1252    4.6372   -0.8804 H   0  0  0  0  0  0  0  0  0  0  0  0
   -0.6438    3.7225   -1.3822 H   0  0  0  0  0  0  0  0  0  0  0  0
    0.3204    3.8535    0.8405 H   0  0  0  0  0  0  0  0  0  0  0  0
   -1.9584    5.7858    1.5795 H   0  0  0  0  0  0  0  0  0  0  0  0
   -0.6622    5.1833    2.6900 H   0  0  0  0  0  0  0  0  0  0  0  0
   -0.2269    6.2199    1.2891 H   0  0  0  0  0  0  0  0  0  0  0  0
   -2.7304    3.3225    1.1704 H   0  0  0  0  0  0  0  0  0  0  0  0
   -1.4979    2.9580    2.3887 H   0  0  0  0  0  0  0  0  0  0  0  0
   -1.6694    0.9031    1.5372 H   0  0  0  0  0  0  0  0  0  0  0  0
    0.2564    1.5222   -0.6617 H   0  0  0  0  0  0  0  0  0  0  0  0
    2.9214    0.3792    1.7783 H   0  0  0  0  0  0  0  0  0  0  0  0
    3.0477    2.0238   -0.1000 H   0  0  0  0  0  0  0  0  0  0  0  0
    2.3555    0.8379   -1.2238 H   0  0  0  0  0  0  0  0  0  0  0  0
    5.2786    1.6154    0.9637 H   0  0  0  0  0  0  0  0  0  0  0  0
    7.5241    0.6654    0.5998 H   0  0  0  0  0  0  0  0  0  0  0  0
    8.3286   -2.0112   -1.7596 H   0  0  0  0  0  0  0  0  0  0  0  0
    5.9250   -2.0431   -2.3266 H   0  0  0  0  0  0  0  0  0  0  0  0
    3.6753   -1.1043   -1.9799 H   0  0  0  0  0  0  0  0  0  0  0  0
    2.3052   -1.8004    1.4462 H   0  0  0  0  0  0  0  0  0  0  0  0
    0.5928   -3.4134    0.9270 H   0  0  0  0  0  0  0  0  0  0  0  0
   -0.7823   -2.2806    0.6955 H   0  0  0  0  0  0  0  0  0  0  0  0
   -0.6739   -2.9823   -1.7524 H   0  0  0  0  0  0  0  0  0  0  0  0
   -1.0756   -5.2056    0.2082 H   0  0  0  0  0  0  0  0  0  0  0  0
   -1.6268   -5.1788   -1.4814 H   0  0  0  0  0  0  0  0  0  0  0  0
   -2.6601   -3.4447    0.8427 H   0  0  0  0  0  0  0  0  0  0  0  0
   -3.5266   -4.6802   -0.0966 H   0  0  0  0  0  0  0  0  0  0  0  0
   -3.3041   -3.2552   -2.1795 H   0  0  0  0  0  0  0  0  0  0  0  0
   -2.5638   -1.9509   -1.2053 H   0  0  0  0  0  0  0  0  0  0  0  0
   -5.3905   -3.1253   -0.8261 H   0  0  0  0  0  0  0  0  0  0  0  0
   -4.9878   -1.5938   -1.6372 H   0  0  0  0  0  0  0  0  0  0  0  0
   -4.7786   -2.2920    1.3496 H   0  0  0  0  0  0  0  0  0  0  0  0
   -5.7827   -1.0413    0.5728 H   0  0  0  0  0  0  0  0  0  0  0  0
   -3.9478    0.0409    1.7569 H   0  0  0  0  0  0  0  0  0  0  0  0
   -2.7368   -1.0249    0.9757 H   0  0  0  0  0  0  0  0  0  0  0  0
   -4.2681    0.5113   -1.0274 H   0  0  0  0  0  0  0  0  0  0  0  0
  1  2  1  0
  2  3  1  0
  2  4  1  0
  4  5  1  0
  5  6  1  0
  6  7  1  0
  7  8  2  0
  7  9  1  0
  9 10  1  0
 10 11  1  0
 11 12  2  0
 12 13  1  0
 13 14  2  0
 14 15  1  0
 14 16  1  0
 16 17  2  0
  9 18  1  0
 18 19  1  0
 19 20  2  0
 19 21  1  0
 21 22  1  0
 22 23  1  0
 23 24  1  0
 24 25  1  0
 25 26  1  0
 26 27  1  0
 27 28  1  0
 28 29  1  0
 29 30  1  0
 30 31  2  0
 30  5  1  0
 17 11  1  0
  1 32  1  0
  1 33  1  0
  1 34  1  0
  2 35  1  0
  3 36  1  0
  3 37  1  0
  3 38  1  0
  4 39  1  0
  4 40  1  0
  5 41  1  1
  6 42  1  0
  9 43  1  1
 10 44  1  0
 10 45  1  0
 12 46  1  0
 13 47  1  0
 15 48  1  0
 16 49  1  0
 17 50  1  0
 18 51  1  0
 21 52  1  0
 21 53  1  0
 22 54  1  0
 23 55  1  0
 23 56  1  0
 24 57  1  0
 24 58  1  0
 25 59  1  0
 25 60  1  0
 26 61  1  0
 26 62  1  0
 27 63  1  0
 27 64  1  0
 28 65  1  0
 28 66  1  0
 29 67  1  0
M  END
$$$$
