
     RDKit          3D

 90 92  0  0  0  0  0  0  0  0999 V2000
   -4.8734   -2.2705    2.8449 C   0  0  0  0  0  0  0  0  0  0  0  0
   -4.4551   -2.7628    1.4540 C   0  0  0  0  0  0  0  0  0  0  0  0
   -5.6684   -3.3425    0.7140 C   0  0  0  0  0  0  0  0  0  0  0  0
   -3.7968   -1.6068    0.6644 C   0  0  0  0  0  0  0  0  0  0  0  0
   -3.2340   -2.0063   -0.7255 C   0  0  1  0  0  0  0  0  0  0  0  0
   -2.4127   -0.8866   -1.3518 C   0  0  0  0  0  0  0  0  0  0  0  0
   -1.4390   -1.1697   -2.1018 O   0  0  0  0  0  0  0  0  0  0  0  0
   -2.7696    0.4932   -1.1628 N   0  0  0  0  0  0  0  0  0  0  0  0
   -1.7775    1.5737   -1.1288 C   0  0  1  0  0  0  0  0  0  0  0  0
   -0.8142    1.3676    0.0755 C   0  0  0  0  0  0  0  0  0  0  0  0
   -0.8119    2.5554    1.0060 C   0  0  0  0  0  0  0  0  0  0  0  0
   -1.9097    2.7800    1.8550 C   0  0  0  0  0  0  0  0  0  0  0  0
   -1.9204    3.8777    2.7181 C   0  0  0  0  0  0  0  0  0  0  0  0
   -0.8372    4.7700    2.7383 C   0  0  0  0  0  0  0  0  0  0  0  0
   -0.8340    5.8656    3.5978 O   0  0  0  0  0  0  0  0  0  0  0  0
    0.2489    4.5601    1.8860 C   0  0  0  0  0  0  0  0  0  0  0  0
    0.2653    3.4605    1.0253 C   0  0  0  0  0  0  0  0  0  0  0  0
   -1.1015    1.7045   -2.4763 C   0  0  0  0  0  0  0  0  0  0  0  0
   -1.8286    1.7399   -3.5090 O   0  0  0  0  0  0  0  0  0  0  0  0
    0.3056    1.9799   -2.6064 N   0  0  0  0  0  0  0  0  0  0  0  0
    0.7161    3.3867   -2.6026 C   0  0  0  0  0  0  0  0  0  0  0  0
    1.1755    0.9225   -3.1723 C   0  0  1  0  0  0  0  0  0  0  0  0
    1.0490    0.8557   -4.7009 C   0  0  0  0  0  0  0  0  0  0  0  0
    2.6246    1.0810   -2.7747 C   0  0  0  0  0  0  0  0  0  0  0  0
    3.2733    2.1095   -3.1053 O   0  0  0  0  0  0  0  0  0  0  0  0
    3.3016    0.0034   -2.1176 N   0  0  0  0  0  0  0  0  0  0  0  0
    3.9404    0.1524   -0.8049 C   0  0  1  0  0  0  0  0  0  0  0  0
    2.9751    0.7842    0.2211 C   0  0  0  0  0  0  0  0  0  0  0  0
    3.6759    1.2121    1.4866 C   0  0  0  0  0  0  0  0  0  0  0  0
    4.2261    2.5028    1.5907 C   0  0  0  0  0  0  0  0  0  0  0  0
    4.8723    2.9020    2.7635 C   0  0  0  0  0  0  0  0  0  0  0  0
    4.9805    2.0184    3.8395 C   0  0  0  0  0  0  0  0  0  0  0  0
    4.4427    0.7338    3.7436 C   0  0  0  0  0  0  0  0  0  0  0  0
    3.7863    0.3326    2.5748 C   0  0  0  0  0  0  0  0  0  0  0  0
    4.4530   -1.1799   -0.2922 C   0  0  0  0  0  0  0  0  0  0  0  0
    5.6760   -1.2781   -0.0015 O   0  0  0  0  0  0  0  0  0  0  0  0
    3.5897   -2.3060   -0.0260 N   0  0  0  0  0  0  0  0  0  0  0  0
    2.3482   -2.5758   -0.7502 C   0  0  0  0  0  0  0  0  0  0  0  0
    1.3618   -3.3643    0.1094 C   0  0  0  0  0  0  0  0  0  0  0  0
    0.0605   -3.6534   -0.6752 C   0  0  0  0  0  0  0  0  0  0  0  0
   -1.1963   -3.2383    0.1235 C   0  0  0  0  0  0  0  0  0  0  0  0
   -2.4836   -3.2889   -0.6265 N   0  0  0  0  0  0  0  0  0  0  0  0
   -2.5236   -4.0900   -1.8611 C   0  0  0  0  0  0  0  0  0  0  0  0
   -5.6195   -1.4534    2.7646 H   0  0  0  0  0  0  0  0  0  0  0  0
   -5.3152   -3.0986    3.4374 H   0  0  0  0  0  0  0  0  0  0  0  0
   -3.9891   -1.8876    3.3985 H   0  0  0  0  0  0  0  0  0  0  0  0
   -3.7139   -3.5737    1.6069 H   0  0  0  0  0  0  0  0  0  0  0  0
   -6.4128   -2.5449    0.5020 H   0  0  0  0  0  0  0  0  0  0  0  0
   -5.3558   -3.8159   -0.2422 H   0  0  0  0  0  0  0  0  0  0  0  0
   -6.1616   -4.1312    1.3233 H   0  0  0  0  0  0  0  0  0  0  0  0
   -4.5516   -0.8063    0.5409 H   0  0  0  0  0  0  0  0  0  0  0  0
   -2.9734   -1.1826    1.2719 H   0  0  0  0  0  0  0  0  0  0  0  0
   -4.1163   -2.1450   -1.3870 H   0  0  0  0  0  0  0  0  0  0  0  0
   -3.7510    0.7368   -0.8967 H   0  0  0  0  0  0  0  0  0  0  0  0
   -2.3319    2.5222   -0.9851 H   0  0  0  0  0  0  0  0  0  0  0  0
   -1.1244    0.4761    0.6746 H   0  0  0  0  0  0  0  0  0  0  0  0
    0.2097    1.1286   -0.2653 H   0  0  0  0  0  0  0  0  0  0  0  0
   -2.7538    2.1021    1.8401 H   0  0  0  0  0  0  0  0  0  0  0  0
   -2.7723    4.0355    3.3658 H   0  0  0  0  0  0  0  0  0  0  0  0
   -1.5961    6.0320    4.2485 H   0  0  0  0  0  0  0  0  0  0  0  0
    1.0863    5.2444    1.8931 H   0  0  0  0  0  0  0  0  0  0  0  0
    1.1116    3.3217    0.3782 H   0  0  0  0  0  0  0  0  0  0  0  0
    0.9723    3.7073   -3.6351 H   0  0  0  0  0  0  0  0  0  0  0  0
   -0.0992    4.0351   -2.2095 H   0  0  0  0  0  0  0  0  0  0  0  0
    1.5933    3.5399   -1.9419 H   0  0  0  0  0  0  0  0  0  0  0  0
    0.8354   -0.0599   -2.7670 H   0  0  0  0  0  0  0  0  0  0  0  0
    1.7464    0.0903   -5.1103 H   0  0  0  0  0  0  0  0  0  0  0  0
    0.0188    0.5549   -4.9870 H   0  0  0  0  0  0  0  0  0  0  0  0
    1.2718    1.8414   -5.1632 H   0  0  0  0  0  0  0  0  0  0  0  0
    3.3546   -0.9033   -2.6333 H   0  0  0  0  0  0  0  0  0  0  0  0
    4.8040    0.8438   -0.9344 H   0  0  0  0  0  0  0  0  0  0  0  0
    2.5017    1.6754   -0.2353 H   0  0  0  0  0  0  0  0  0  0  0  0
    2.1514    0.0830    0.4760 H   0  0  0  0  0  0  0  0  0  0  0  0
    4.1446    3.2037    0.7698 H   0  0  0  0  0  0  0  0  0  0  0  0
    5.2828    3.9043    2.8446 H   0  0  0  0  0  0  0  0  0  0  0  0
    5.4861    2.3259    4.7468 H   0  0  0  0  0  0  0  0  0  0  0  0
    4.5211    0.0525    4.5797 H   0  0  0  0  0  0  0  0  0  0  0  0
    3.3647   -0.6600    2.5218 H   0  0  0  0  0  0  0  0  0  0  0  0
    3.9824   -3.0757    0.5581 H   0  0  0  0  0  0  0  0  0  0  0  0
    1.8402   -1.6348   -1.0263 H   0  0  0  0  0  0  0  0  0  0  0  0
    2.5828   -3.1508   -1.6736 H   0  0  0  0  0  0  0  0  0  0  0  0
    1.8261   -4.3281    0.4219 H   0  0  0  0  0  0  0  0  0  0  0  0
    1.1562   -2.7786    1.0347 H   0  0  0  0  0  0  0  0  0  0  0  0
    0.0255   -4.7410   -0.8949 H   0  0  0  0  0  0  0  0  0  0  0  0
    0.0661   -3.1252   -1.6502 H   0  0  0  0  0  0  0  0  0  0  0  0
   -1.0294   -2.2178    0.5306 H   0  0  0  0  0  0  0  0  0  0  0  0
   -1.2814   -3.9194    0.9975 H   0  0  0  0  0  0  0  0  0  0  0  0
   -2.1289   -5.1093   -1.6678 H   0  0  0  0  0  0  0  0  0  0  0  0
   -1.9454   -3.6083   -2.6740 H   0  0  0  0  0  0  0  0  0  0  0  0
   -3.5735   -4.2103   -2.2054 H   0  0  0  0  0  0  0  0  0  0  0  0
  1  2  1  0
  2  3  1  0
  2  4  1  0
  4  5  1  0
  5  6  1  0
  6  7  2  0
  6  8  1  0
  8  9  1  0
  9 10  1  0
 10 11  1  0
 11 12  2  0
 12 13  1  0
 13 14  2  0
 14 15  1  0
 14 16  1  0
 16 17  2  0
  9 18  1  0
 18 19  2  0
 18 20  1  0
 20 21  1  0
 20 22  1  0
 22 23  1  0
 22 24  1  0
 24 25  2  0
 24 26  1  0
 26 27  1  0
 27 28  1  0
 28 29  1  0
 29 30  2  0
 30 31  1  0
 31 32  2  0
 32 33  1  0
 33 34  2  0
 27 35  1  0
 35 36  2  0
 35 37  1  0
 37 38  1  0
 38 39  1  0
 39 40  1  0
 40 41  1  0
 41 42  1  0
 42 43  1  0
 42  5  1  0
 17 11  1  0
 34 29  1  0
  1 44  1  0
  1 45  1  0
  1 46  1  0
  2 47  1  0
  3 48  1  0
  3 49  1  0
  3 50  1  0
  4 51  1  0
  4 52  1  0
  5 53  1  6
  8 54  1  0
  9 55  1  1
 10 56  1  0
 10 57  1  0
 12 58  1  0
 13 59  1  0
 15 60  1  0
 16 61  1  0
 17 62  1  0
 21 63  1  0
 21 64  1  0
 21 65  1  0
 22 66  1  1
 23 67  1  0
 23 68  1  0
 23 69  1  0
 26 70  1  0
 27 71  1  6
 28 72  1  0
 28 73  1  0
 30 74  1  0
 31 75  1  0
 32 76  1  0
 33 77  1  0
 34 78  1  0
 37 79  1  0
 38 80  1  0
 38 81  1  0
 39 82  1  0
 39 83  1  0
 40 84  1  0
 40 85  1  0
 41 86  1  0
 41 87  1  0
 43 88  1  0
 43 89  1  0
 43 90  1  0
M  END
$$$$
