
     RDKit          3D

 84 86  0  0  0  0  0  0  0  0999 V2000
   -3.7658   -0.5713    3.3572 C   0  0  0  0  0  0  0  0  0  0  0  0
   -3.7312    0.7516    2.5788 C   0  0  0  0  0  0  0  0  0  0  0  0
   -2.5554    1.6257    3.0387 C   0  0  0  0  0  0  0  0  0  0  0  0
   -3.7783    0.5531    1.0411 C   0  0  0  0  0  0  0  0  0  0  0  0
   -2.6547   -0.3266    0.4317 C   0  0  2  0  0  0  0  0  0  0  0  0
   -1.3278    0.2956    0.5401 N   0  0  0  0  0  0  0  0  0  0  0  0
   -0.9547    1.5615   -0.0325 C   0  0  0  0  0  0  0  0  0  0  0  0
   -1.7825    2.2207   -0.7151 O   0  0  0  0  0  0  0  0  0  0  0  0
    0.4647    2.0504    0.0949 C   0  0  2  0  0  0  0  0  0  0  0  0
    0.5712    3.5492    0.4691 C   0  0  0  0  0  0  0  0  0  0  0  0
    0.1531    4.5096   -0.6230 C   0  0  0  0  0  0  0  0  0  0  0  0
    1.0374    4.8313   -1.6672 C   0  0  0  0  0  0  0  0  0  0  0  0
    0.6503    5.7240   -2.6703 C   0  0  0  0  0  0  0  0  0  0  0  0
   -0.6142    6.3266   -2.6296 C   0  0  0  0  0  0  0  0  0  0  0  0
   -1.0061    7.2233   -3.6204 O   0  0  0  0  0  0  0  0  0  0  0  0
   -1.4933    6.0256   -1.5832 C   0  0  0  0  0  0  0  0  0  0  0  0
   -1.1131    5.1253   -0.5835 C   0  0  0  0  0  0  0  0  0  0  0  0
    1.1852    1.7533   -1.1478 N   0  0  0  0  0  0  0  0  0  0  0  0
    2.5143    1.2185   -1.2101 C   0  0  0  0  0  0  0  0  0  0  0  0
    3.2768    1.6065   -2.1373 O   0  0  0  0  0  0  0  0  0  0  0  0
    2.9819    0.1019   -0.2928 C   0  0  2  0  0  0  0  0  0  0  0  0
    4.3559    0.4526    0.3063 C   0  0  0  0  0  0  0  0  0  0  0  0
    4.7472   -0.5253    1.3832 C   0  0  0  0  0  0  0  0  0  0  0  0
    4.3457   -0.3092    2.7118 C   0  0  0  0  0  0  0  0  0  0  0  0
    4.6721   -1.2376    3.7058 C   0  0  0  0  0  0  0  0  0  0  0  0
    5.3901   -2.3899    3.3798 C   0  0  0  0  0  0  0  0  0  0  0  0
    5.7834   -2.6185    2.0579 C   0  0  0  0  0  0  0  0  0  0  0  0
    5.4610   -1.6919    1.0610 C   0  0  0  0  0  0  0  0  0  0  0  0
    3.0678   -1.1750   -1.0242 N   0  0  0  0  0  0  0  0  0  0  0  0
    1.7358   -1.7341   -1.2944 C   0  0  0  0  0  0  0  0  0  0  0  0
    1.8737   -3.1189   -1.9369 C   0  0  0  0  0  0  0  0  0  0  0  0
    0.5153   -3.7536   -2.2739 C   0  0  0  0  0  0  0  0  0  0  0  0
   -0.2253   -4.2623   -1.0305 C   0  0  0  0  0  0  0  0  0  0  0  0
   -1.4152   -5.0174   -1.4298 N   0  0  0  0  0  0  0  0  0  0  0  0
   -2.7405   -4.4658   -1.5211 C   0  0  0  0  0  0  0  0  0  0  0  0
   -3.5740   -5.0191   -2.2902 O   0  0  0  0  0  0  0  0  0  0  0  0
   -3.1483   -3.2356   -0.7392 C   0  0  2  0  0  0  0  0  0  0  0  0
   -4.6434   -3.2635   -0.3906 C   0  0  0  0  0  0  0  0  0  0  0  0
   -2.8295   -2.0264   -1.5121 N   0  0  0  0  0  0  0  0  0  0  0  0
   -2.9442   -0.6831   -1.0129 C   0  0  0  0  0  0  0  0  0  0  0  0
   -3.2507    0.2331   -1.8224 O   0  0  0  0  0  0  0  0  0  0  0  0
   -3.9568   -0.3682    4.4322 H   0  0  0  0  0  0  0  0  0  0  0  0
   -2.7997   -1.1130    3.2800 H   0  0  0  0  0  0  0  0  0  0  0  0
   -4.5825   -1.2218    2.9775 H   0  0  0  0  0  0  0  0  0  0  0  0
   -4.6606    1.3031    2.8452 H   0  0  0  0  0  0  0  0  0  0  0  0
   -1.5931    1.0790    2.9740 H   0  0  0  0  0  0  0  0  0  0  0  0
   -2.4959    2.5504    2.4256 H   0  0  0  0  0  0  0  0  0  0  0  0
   -2.7029    1.9222    4.0984 H   0  0  0  0  0  0  0  0  0  0  0  0
   -3.8049    1.5473    0.5480 H   0  0  0  0  0  0  0  0  0  0  0  0
   -4.7528    0.0728    0.7996 H   0  0  0  0  0  0  0  0  0  0  0  0
   -2.6295   -1.2604    1.0156 H   0  0  0  0  0  0  0  0  0  0  0  0
   -0.6011   -0.2315    1.0788 H   0  0  0  0  0  0  0  0  0  0  0  0
    0.9205    1.5166    0.9488 H   0  0  0  0  0  0  0  0  0  0  0  0
    1.6277    3.7667    0.7434 H   0  0  0  0  0  0  0  0  0  0  0  0
   -0.0316    3.7312    1.3904 H   0  0  0  0  0  0  0  0  0  0  0  0
    2.0258    4.3900   -1.7056 H   0  0  0  0  0  0  0  0  0  0  0  0
    1.3379    5.9543   -3.4713 H   0  0  0  0  0  0  0  0  0  0  0  0
   -0.3955    7.4571   -4.3960 H   0  0  0  0  0  0  0  0  0  0  0  0
   -2.4698    6.4897   -1.5448 H   0  0  0  0  0  0  0  0  0  0  0  0
   -1.8046    4.9057    0.2179 H   0  0  0  0  0  0  0  0  0  0  0  0
    0.7831    2.1183   -2.0409 H   0  0  0  0  0  0  0  0  0  0  0  0
    2.2863   -0.0273    0.5593 H   0  0  0  0  0  0  0  0  0  0  0  0
    5.1299    0.4705   -0.4917 H   0  0  0  0  0  0  0  0  0  0  0  0
    4.3187    1.4757    0.7420 H   0  0  0  0  0  0  0  0  0  0  0  0
    3.7789    0.5760    2.9764 H   0  0  0  0  0  0  0  0  0  0  0  0
    4.3674   -1.0613    4.7292 H   0  0  0  0  0  0  0  0  0  0  0  0
    5.6409   -3.1079    4.1488 H   0  0  0  0  0  0  0  0  0  0  0  0
    6.3299   -3.5189    1.8020 H   0  0  0  0  0  0  0  0  0  0  0  0
    5.7616   -1.8875    0.0394 H   0  0  0  0  0  0  0  0  0  0  0  0
    3.5669   -1.0266   -1.9329 H   0  0  0  0  0  0  0  0  0  0  0  0
    1.1748   -1.8300   -0.3410 H   0  0  0  0  0  0  0  0  0  0  0  0
    1.1682   -1.0628   -1.9777 H   0  0  0  0  0  0  0  0  0  0  0  0
    2.4539   -3.0143   -2.8807 H   0  0  0  0  0  0  0  0  0  0  0  0
    2.4495   -3.7880   -1.2626 H   0  0  0  0  0  0  0  0  0  0  0  0
    0.6958   -4.6133   -2.9554 H   0  0  0  0  0  0  0  0  0  0  0  0
   -0.1229   -3.0242   -2.8180 H   0  0  0  0  0  0  0  0  0  0  0  0
   -0.4870   -3.4125   -0.3723 H   0  0  0  0  0  0  0  0  0  0  0  0
    0.4411   -4.9373   -0.4542 H   0  0  0  0  0  0  0  0  0  0  0  0
   -1.2522   -5.9491   -1.8750 H   0  0  0  0  0  0  0  0  0  0  0  0
   -2.5943   -3.2505    0.2186 H   0  0  0  0  0  0  0  0  0  0  0  0
   -4.9012   -2.4060    0.2675 H   0  0  0  0  0  0  0  0  0  0  0  0
   -5.2636   -3.2017   -1.3102 H   0  0  0  0  0  0  0  0  0  0  0  0
   -4.8947   -4.2009    0.1515 H   0  0  0  0  0  0  0  0  0  0  0  0
   -2.6963   -2.1259   -2.5463 H   0  0  0  0  0  0  0  0  0  0  0  0
  1  2  1  0
  2  3  1  0
  2  4  1  0
  4  5  1  0
  5  6  1  0
  6  7  1  0
  7  8  2  0
  7  9  1  0
  9 10  1  0
 10 11  1  0
 11 12  2  0
 12 13  1  0
 13 14  2  0
 14 15  1  0
 14 16  1  0
 16 17  2  0
  9 18  1  0
 18 19  1  0
 19 20  2  0
 19 21  1  0
 21 22  1  0
 22 23  1  0
 23 24  2  0
 24 25  1  0
 25 26  2  0
 26 27  1  0
 27 28  2  0
 21 29  1  0
 29 30  1  0
 30 31  1  0
 31 32  1  0
 32 33  1  0
 33 34  1  0
 34 35  1  0
 35 36  2  0
 35 37  1  0
 37 38  1  0
 37 39  1  0
 39 40  1  0
 40 41  2  0
 40  5  1  0
 17 11  1  0
 28 23  1  0
  1 42  1  0
  1 43  1  0
  1 44  1  0
  2 45  1  0
  3 46  1  0
  3 47  1  0
  3 48  1  0
  4 49  1  0
  4 50  1  0
  5 51  1  1
  6 52  1  0
  9 53  1  1
 10 54  1  0
 10 55  1  0
 12 56  1  0
 13 57  1  0
 15 58  1  0
 16 59  1  0
 17 60  1  0
 18 61  1  0
 21 62  1  1
 22 63  1  0
 22 64  1  0
 24 65  1  0
 25 66  1  0
 26 67  1  0
 27 68  1  0
 28 69  1  0
 29 70  1  0
 30 71  1  0
 30 72  1  0
 31 73  1  0
 31 74  1  0
 32 75  1  0
 32 76  1  0
 33 77  1  0
 33 78  1  0
 34 79  1  0
 37 80  1  1
 38 81  1  0
 38 82  1  0
 38 83  1  0
 39 84  1  0
M  END
$$$$
