
     RDKit          3D

 78 81  0  0  0  0  0  0  0  0999 V2000
    9.3177    0.6723   -1.2482 C   0  0  0  0  0  0  0  0  0  0  0  0
    8.4444   -0.5176   -0.2543 S   0  0  0  0  0  6  0  0  0  0  0  0
    8.6297   -1.8774   -0.8667 O   0  0  0  0  0  0  0  0  0  0  0  0
    9.0155   -0.5213    1.1358 O   0  0  0  0  0  0  0  0  0  0  0  0
    6.7446   -0.1184   -0.2081 N   0  0  0  0  0  0  0  0  0  0  0  0
    6.5318    1.0884    0.6083 C   0  0  0  0  0  0  0  0  0  0  0  0
    5.0722    1.5724    0.4938 C   0  0  0  0  0  0  0  0  0  0  0  0
    4.1122    0.4522    0.0328 C   0  0  0  0  0  0  0  0  0  0  0  0
    2.6523    0.8234    0.3650 C   0  0  0  0  0  0  0  0  0  0  0  0
    1.6645   -0.1147   -0.2901 C   0  0  0  0  0  0  0  0  0  0  0  0
    1.7210   -0.2532   -1.5453 O   0  0  0  0  0  0  0  0  0  0  0  0
    0.6874   -0.8746    0.4630 N   0  0  0  0  0  0  0  0  0  0  0  0
    0.1578   -2.1137   -0.1303 C   0  0  0  0  0  0  0  0  0  0  0  0
   -1.0565   -1.8205   -1.0261 C   0  0  0  0  0  0  0  0  0  0  0  0
   -2.3848   -2.0476   -0.2870 C   0  0  0  0  0  0  0  0  0  0  0  0
   -3.5488   -1.3754   -1.0360 C   0  0  0  0  0  0  0  0  0  0  0  0
   -4.9806   -1.7093   -0.4898 C   0  0  0  0  0  0  0  0  0  0  0  0
   -5.3953   -3.1096   -1.0258 C   0  0  0  0  0  0  0  0  0  0  0  0
   -6.6833   -3.4618   -0.5958 O   0  0  0  0  0  0  0  0  0  0  0  0
   -5.0756   -1.7055    1.0612 C   0  0  0  0  0  0  0  0  0  0  0  0
   -4.7692   -0.3395    1.7009 C   0  0  0  0  0  0  0  0  0  0  0  0
   -4.8471    0.7623    0.7381 N   0  0  0  0  0  0  0  0  0  0  0  0
   -5.8096    0.7511   -0.3736 C   0  0  0  0  0  0  0  0  0  0  0  0
   -5.9796   -0.6454   -1.0192 C   0  0  0  0  0  0  0  0  0  0  0  0
   -4.2222    2.0039    1.0831 C   0  0  0  0  0  0  0  0  0  0  0  0
   -4.5230    2.5837    2.1612 O   0  0  0  0  0  0  0  0  0  0  0  0
   -3.2221    2.6058    0.1914 C   0  0  0  0  0  0  0  0  0  0  0  0
   -3.5569    3.7499   -0.5498 C   0  0  0  0  0  0  0  0  0  0  0  0
   -2.6091    4.3515   -1.3804 C   0  0  0  0  0  0  0  0  0  0  0  0
   -1.3217    3.8185   -1.4721 C   0  0  0  0  0  0  0  0  0  0  0  0
   -0.9759    2.6864   -0.7286 C   0  0  0  0  0  0  0  0  0  0  0  0
   -1.9188    2.0784    0.1172 C   0  0  0  0  0  0  0  0  0  0  0  0
   -1.5695    0.9566    0.8811 O   0  0  0  0  0  0  0  0  0  0  0  0
   -0.4364    0.9424    1.7492 C   0  0  0  0  0  0  0  0  0  0  0  0
    0.2114   -0.4468    1.7918 C   0  0  0  0  0  0  0  0  0  0  0  0
    4.5196   -0.8870    0.6766 C   0  0  0  0  0  0  0  0  0  0  0  0
    5.9813   -1.2617    0.3368 C   0  0  0  0  0  0  0  0  0  0  0  0
    8.7892    0.8054   -2.2157 H   0  0  0  0  0  0  0  0  0  0  0  0
    9.3707    1.6448   -0.7178 H   0  0  0  0  0  0  0  0  0  0  0  0
   10.3477    0.3098   -1.4417 H   0  0  0  0  0  0  0  0  0  0  0  0
    6.7734    0.8814    1.6760 H   0  0  0  0  0  0  0  0  0  0  0  0
    7.1963    1.9087    0.2655 H   0  0  0  0  0  0  0  0  0  0  0  0
    5.0149    2.4103   -0.2364 H   0  0  0  0  0  0  0  0  0  0  0  0
    4.7561    1.9726    1.4834 H   0  0  0  0  0  0  0  0  0  0  0  0
    4.2120    0.3532   -1.0731 H   0  0  0  0  0  0  0  0  0  0  0  0
    2.5349    0.8469    1.4666 H   0  0  0  0  0  0  0  0  0  0  0  0
    2.4434    1.8492   -0.0108 H   0  0  0  0  0  0  0  0  0  0  0  0
   -0.1013   -2.8499    0.6644 H   0  0  0  0  0  0  0  0  0  0  0  0
    0.9542   -2.6063   -0.7337 H   0  0  0  0  0  0  0  0  0  0  0  0
   -1.0309   -2.4871   -1.9143 H   0  0  0  0  0  0  0  0  0  0  0  0
   -1.0008   -0.7752   -1.4026 H   0  0  0  0  0  0  0  0  0  0  0  0
   -2.5569   -3.1415   -0.1890 H   0  0  0  0  0  0  0  0  0  0  0  0
   -2.3152   -1.6134    0.7274 H   0  0  0  0  0  0  0  0  0  0  0  0
   -3.3667   -0.2803   -1.0185 H   0  0  0  0  0  0  0  0  0  0  0  0
   -3.4962   -1.6578   -2.1102 H   0  0  0  0  0  0  0  0  0  0  0  0
   -5.3733   -3.1080   -2.1393 H   0  0  0  0  0  0  0  0  0  0  0  0
   -4.6784   -3.8823   -0.6745 H   0  0  0  0  0  0  0  0  0  0  0  0
   -6.8799   -4.3470   -0.9998 H   0  0  0  0  0  0  0  0  0  0  0  0
   -4.4134   -2.4843    1.5002 H   0  0  0  0  0  0  0  0  0  0  0  0
   -6.1121   -1.9852    1.3599 H   0  0  0  0  0  0  0  0  0  0  0  0
   -5.4765   -0.1482    2.5376 H   0  0  0  0  0  0  0  0  0  0  0  0
   -3.7469   -0.3713    2.1385 H   0  0  0  0  0  0  0  0  0  0  0  0
   -5.4821    1.4662   -1.1627 H   0  0  0  0  0  0  0  0  0  0  0  0
   -6.7929    1.1074    0.0032 H   0  0  0  0  0  0  0  0  0  0  0  0
   -7.0246   -0.9814   -0.8258 H   0  0  0  0  0  0  0  0  0  0  0  0
   -5.8819   -0.5539   -2.1247 H   0  0  0  0  0  0  0  0  0  0  0  0
   -4.5525    4.1718   -0.4847 H   0  0  0  0  0  0  0  0  0  0  0  0
   -2.8728    5.2295   -1.9556 H   0  0  0  0  0  0  0  0  0  0  0  0
   -0.5907    4.2844   -2.1188 H   0  0  0  0  0  0  0  0  0  0  0  0
    0.0221    2.2787   -0.8207 H   0  0  0  0  0  0  0  0  0  0  0  0
   -0.7727    1.2120    2.7731 H   0  0  0  0  0  0  0  0  0  0  0  0
    0.3095    1.7040    1.4480 H   0  0  0  0  0  0  0  0  0  0  0  0
   -0.5334   -1.1660    2.1957 H   0  0  0  0  0  0  0  0  0  0  0  0
    1.0565   -0.4465    2.5112 H   0  0  0  0  0  0  0  0  0  0  0  0
    4.4099   -0.8119    1.7819 H   0  0  0  0  0  0  0  0  0  0  0  0
    3.8444   -1.6991    0.3286 H   0  0  0  0  0  0  0  0  0  0  0  0
    6.4708   -1.6670    1.2526 H   0  0  0  0  0  0  0  0  0  0  0  0
    5.9686   -2.0709   -0.4259 H   0  0  0  0  0  0  0  0  0  0  0  0
  1  2  1  0
  2  3  2  0
  2  4  2  0
  2  5  1  0
  5  6  1  0
  6  7  1  0
  7  8  1  0
  8  9  1  0
  9 10  1  0
 10 11  2  0
 10 12  1  0
 12 13  1  0
 13 14  1  0
 14 15  1  0
 15 16  1  0
 16 17  1  0
 17 18  1  0
 18 19  1  0
 17 20  1  0
 20 21  1  0
 21 22  1  0
 22 23  1  0
 23 24  1  0
 22 25  1  0
 25 26  2  0
 25 27  1  0
 27 28  2  0
 28 29  1  0
 29 30  2  0
 30 31  1  0
 31 32  2  0
 32 33  1  0
 33 34  1  0
 34 35  1  0
  8 36  1  0
 36 37  1  0
 37  5  1  0
 35 12  1  0
 24 17  1  0
 32 27  1  0
  1 38  1  0
  1 39  1  0
  1 40  1  0
  6 41  1  0
  6 42  1  0
  7 43  1  0
  7 44  1  0
  8 45  1  0
  9 46  1  0
  9 47  1  0
 13 48  1  0
 13 49  1  0
 14 50  1  0
 14 51  1  0
 15 52  1  0
 15 53  1  0
 16 54  1  0
 16 55  1  0
 18 56  1  0
 18 57  1  0
 19 58  1  0
 20 59  1  0
 20 60  1  0
 21 61  1  0
 21 62  1  0
 23 63  1  0
 23 64  1  0
 24 65  1  0
 24 66  1  0
 28 67  1  0
 29 68  1  0
 30 69  1  0
 31 70  1  0
 34 71  1  0
 34 72  1  0
 35 73  1  0
 35 74  1  0
 36 75  1  0
 36 76  1  0
 37 77  1  0
 37 78  1  0
M  END
$$$$
