
     RDKit          3D

 86 89  0  0  0  0  0  0  0  0999 V2000
    5.1521    0.1909    4.1372 C   0  0  0  0  0  0  0  0  0  0  0  0
    4.5898    1.3681    3.3440 C   0  0  0  0  0  0  0  0  0  0  0  0
    5.1996    1.4448    2.0534 O   0  0  0  0  0  0  0  0  0  0  0  0
    4.9357    0.5869    0.9704 C   0  0  0  0  0  0  0  0  0  0  0  0
    3.8797   -0.3448    0.9872 C   0  0  0  0  0  0  0  0  0  0  0  0
    3.6516   -1.1745   -0.1104 C   0  0  0  0  0  0  0  0  0  0  0  0
    4.4803   -1.1021   -1.2380 C   0  0  0  0  0  0  0  0  0  0  0  0
    4.2278   -1.9947   -2.4320 C   0  0  0  0  0  0  0  0  0  0  0  0
    3.8001   -1.2105   -3.6876 C   0  0  0  0  0  0  0  0  0  0  0  0
    2.6021   -0.2755   -3.4536 C   0  0  0  0  0  0  0  0  0  0  0  0
    1.4010   -1.0181   -3.0626 N   0  0  0  0  0  0  0  0  0  0  0  0
    0.2383   -0.3318   -2.5800 C   0  0  0  0  0  0  0  0  0  0  0  0
    0.2216    0.9332   -2.5506 O   0  0  0  0  0  0  0  0  0  0  0  0
   -0.9447   -1.1168   -2.0653 C   0  0  0  0  0  0  0  0  0  0  0  0
   -0.6631   -1.7747   -0.6934 C   0  0  0  0  0  0  0  0  0  0  0  0
   -0.3052   -0.8267    0.4291 C   0  0  0  0  0  0  0  0  0  0  0  0
    0.4376    0.1623    0.1877 O   0  0  0  0  0  0  0  0  0  0  0  0
   -0.6114   -1.1197    1.8075 N   0  0  0  0  0  0  0  0  0  0  0  0
   -1.8735   -1.6441    2.3448 C   0  0  0  0  0  0  0  0  0  0  0  0
   -1.9184   -3.1901    2.3167 C   0  0  0  0  0  0  0  0  0  0  0  0
   -3.1053   -3.7123    3.1388 C   0  0  0  0  0  0  0  0  0  0  0  0
   -0.7263   -3.6885    2.8655 O   0  0  0  0  0  0  0  0  0  0  0  0
   -3.0645   -0.9688    1.7028 C   0  0  0  0  0  0  0  0  0  0  0  0
   -3.6246   -1.4704    0.6998 O   0  0  0  0  0  0  0  0  0  0  0  0
   -3.4902    0.3134    2.1798 N   0  0  0  0  0  0  0  0  0  0  0  0
   -4.1558    0.5038    3.4608 C   0  0  0  0  0  0  0  0  0  0  0  0
   -4.2261    2.0150    3.6599 C   0  0  0  0  0  0  0  0  0  0  0  0
   -3.2041    2.5935    2.6840 C   0  0  0  0  0  0  0  0  0  0  0  0
   -3.1102    1.5700    1.5479 C   0  0  0  0  0  0  0  0  0  0  0  0
   -4.0777    1.9065    0.3830 C   0  0  0  0  0  0  0  0  0  0  0  0
   -3.3631    1.9578   -0.8550 O   0  0  0  0  0  0  0  0  0  0  0  0
   -3.9923    2.1953   -2.0817 C   0  0  0  0  0  0  0  0  0  0  0  0
   -4.9164    3.2574   -2.1888 C   0  0  0  0  0  0  0  0  0  0  0  0
   -5.5467    3.5420   -3.3993 C   0  0  0  0  0  0  0  0  0  0  0  0
   -5.2662    2.7715   -4.5223 C   0  0  0  0  0  0  0  0  0  0  0  0
   -4.3630    1.7107   -4.4360 C   0  0  0  0  0  0  0  0  0  0  0  0
   -3.7036    1.4029   -3.2260 C   0  0  0  0  0  0  0  0  0  0  0  0
   -2.7349    0.2502   -3.2310 C   0  0  0  0  0  0  0  0  0  0  0  0
   -2.4358   -0.2906   -4.3327 O   0  0  0  0  0  0  0  0  0  0  0  0
   -2.1528   -0.2837   -2.0286 N   0  0  0  0  0  0  0  0  0  0  0  0
    5.5316   -0.1710   -1.2596 C   0  0  0  0  0  0  0  0  0  0  0  0
    5.7563    0.6818   -0.1642 C   0  0  0  0  0  0  0  0  0  0  0  0
    6.7831    1.6360   -0.1628 O   0  0  0  0  0  0  0  0  0  0  0  0
    7.6420    1.8992   -1.2670 C   0  0  0  0  0  0  0  0  0  0  0  0
    4.6676    0.1492    5.1361 H   0  0  0  0  0  0  0  0  0  0  0  0
    6.2439    0.3214    4.2789 H   0  0  0  0  0  0  0  0  0  0  0  0
    4.9731   -0.7669    3.6043 H   0  0  0  0  0  0  0  0  0  0  0  0
    4.8168    2.3043    3.9025 H   0  0  0  0  0  0  0  0  0  0  0  0
    3.4842    1.3031    3.2605 H   0  0  0  0  0  0  0  0  0  0  0  0
    3.2189   -0.4278    1.8390 H   0  0  0  0  0  0  0  0  0  0  0  0
    2.8246   -1.8732   -0.0789 H   0  0  0  0  0  0  0  0  0  0  0  0
    5.1637   -2.5464   -2.6633 H   0  0  0  0  0  0  0  0  0  0  0  0
    3.4610   -2.7615   -2.1938 H   0  0  0  0  0  0  0  0  0  0  0  0
    3.5497   -1.9325   -4.4975 H   0  0  0  0  0  0  0  0  0  0  0  0
    4.6620   -0.5999   -4.0435 H   0  0  0  0  0  0  0  0  0  0  0  0
    2.3925    0.2909   -4.3855 H   0  0  0  0  0  0  0  0  0  0  0  0
    2.8601    0.4608   -2.6667 H   0  0  0  0  0  0  0  0  0  0  0  0
    1.3812   -2.0596   -3.1356 H   0  0  0  0  0  0  0  0  0  0  0  0
   -1.1272   -1.9502   -2.7794 H   0  0  0  0  0  0  0  0  0  0  0  0
   -1.5569   -2.3609   -0.4398 H   0  0  0  0  0  0  0  0  0  0  0  0
    0.1670   -2.5053   -0.7998 H   0  0  0  0  0  0  0  0  0  0  0  0
    0.0499   -0.7165    2.5093 H   0  0  0  0  0  0  0  0  0  0  0  0
   -1.8928   -1.3590    3.4213 H   0  0  0  0  0  0  0  0  0  0  0  0
   -2.0288   -3.5665    1.2800 H   0  0  0  0  0  0  0  0  0  0  0  0
   -3.0119   -3.3963    4.1967 H   0  0  0  0  0  0  0  0  0  0  0  0
   -4.0626   -3.3342    2.7304 H   0  0  0  0  0  0  0  0  0  0  0  0
   -3.1342   -4.8206    3.1047 H   0  0  0  0  0  0  0  0  0  0  0  0
   -0.6831   -4.6564    2.6496 H   0  0  0  0  0  0  0  0  0  0  0  0
   -5.1738    0.0580    3.4257 H   0  0  0  0  0  0  0  0  0  0  0  0
   -3.5625    0.0325    4.2796 H   0  0  0  0  0  0  0  0  0  0  0  0
   -3.9937    2.2986    4.7085 H   0  0  0  0  0  0  0  0  0  0  0  0
   -5.2437    2.3855    3.3962 H   0  0  0  0  0  0  0  0  0  0  0  0
   -2.2174    2.6550    3.1968 H   0  0  0  0  0  0  0  0  0  0  0  0
   -3.4805    3.6171    2.3477 H   0  0  0  0  0  0  0  0  0  0  0  0
   -2.0535    1.5164    1.1927 H   0  0  0  0  0  0  0  0  0  0  0  0
   -4.5996    2.8704    0.5554 H   0  0  0  0  0  0  0  0  0  0  0  0
   -4.8697    1.1240    0.3034 H   0  0  0  0  0  0  0  0  0  0  0  0
   -5.1210    3.8928   -1.3412 H   0  0  0  0  0  0  0  0  0  0  0  0
   -6.2542    4.3647   -3.4674 H   0  0  0  0  0  0  0  0  0  0  0  0
   -5.7531    2.9943   -5.4619 H   0  0  0  0  0  0  0  0  0  0  0  0
   -4.1884    1.1263   -5.3256 H   0  0  0  0  0  0  0  0  0  0  0  0
   -2.6376   -0.1585   -1.1208 H   0  0  0  0  0  0  0  0  0  0  0  0
    6.1645   -0.1150   -2.1344 H   0  0  0  0  0  0  0  0  0  0  0  0
    8.2335    0.9941   -1.5156 H   0  0  0  0  0  0  0  0  0  0  0  0
    8.3345    2.7221   -0.9988 H   0  0  0  0  0  0  0  0  0  0  0  0
    7.0430    2.2181   -2.1417 H   0  0  0  0  0  0  0  0  0  0  0  0
  1  2  1  0
  2  3  1  0
  3  4  1  0
  4  5  2  0
  5  6  1  0
  6  7  2  0
  7  8  1  0
  8  9  1  0
  9 10  1  0
 10 11  1  0
 11 12  1  0
 12 13  2  0
 12 14  1  0
 14 15  1  0
 15 16  1  0
 16 17  2  0
 16 18  1  0
 18 19  1  0
 19 20  1  0
 20 21  1  0
 20 22  1  0
 19 23  1  0
 23 24  2  0
 23 25  1  0
 25 26  1  0
 26 27  1  0
 27 28  1  0
 28 29  1  0
 29 30  1  0
 30 31  1  0
 31 32  1  0
 32 33  2  0
 33 34  1  0
 34 35  2  0
 35 36  1  0
 36 37  2  0
 37 38  1  0
 38 39  2  0
 38 40  1  0
  7 41  1  0
 41 42  2  0
 42 43  1  0
 43 44  1  0
 42  4  1  0
 40 14  1  0
 29 25  1  0
 37 32  1  0
  1 45  1  0
  1 46  1  0
  1 47  1  0
  2 48  1  0
  2 49  1  0
  5 50  1  0
  6 51  1  0
  8 52  1  0
  8 53  1  0
  9 54  1  0
  9 55  1  0
 10 56  1  0
 10 57  1  0
 11 58  1  0
 14 59  1  0
 15 60  1  0
 15 61  1  0
 18 62  1  0
 19 63  1  0
 20 64  1  0
 21 65  1  0
 21 66  1  0
 21 67  1  0
 22 68  1  0
 26 69  1  0
 26 70  1  0
 27 71  1  0
 27 72  1  0
 28 73  1  0
 28 74  1  0
 29 75  1  0
 30 76  1  0
 30 77  1  0
 33 78  1  0
 34 79  1  0
 35 80  1  0
 36 81  1  0
 40 82  1  0
 41 83  1  0
 44 84  1  0
 44 85  1  0
 44 86  1  0
M  END
$$$$
