
     RDKit          3D

 78 81  0  0  0  0  0  0  0  0999 V2000
   -6.3330   -2.1956   -0.3855 C   0  0  0  0  0  0  0  0  0  0  0  0
   -6.2017   -0.8855    0.3837 C   0  0  0  0  0  0  0  0  0  0  0  0
   -4.7932   -0.5721    0.6528 N   0  0  0  0  0  0  0  0  0  0  0  0
   -4.0672   -1.2783    1.7152 C   0  0  0  0  0  0  0  0  0  0  0  0
   -3.2481   -2.4414    1.1364 C   0  0  0  0  0  0  0  0  0  0  0  0
   -1.9513   -2.4640    1.7274 O   0  0  0  0  0  0  0  0  0  0  0  0
   -0.9972   -3.4464    1.4352 C   0  0  0  0  0  0  0  0  0  0  0  0
   -0.5360   -4.2469    2.4873 C   0  0  0  0  0  0  0  0  0  0  0  0
    0.3896   -5.2651    2.2516 C   0  0  0  0  0  0  0  0  0  0  0  0
    0.8683   -5.4890    0.9606 C   0  0  0  0  0  0  0  0  0  0  0  0
    0.4383   -4.6819   -0.0946 C   0  0  0  0  0  0  0  0  0  0  0  0
   -0.4765   -3.6386    0.1306 C   0  0  0  0  0  0  0  0  0  0  0  0
   -0.8368   -2.7597   -1.0034 C   0  0  0  0  0  0  0  0  0  0  0  0
   -1.1395   -3.2848   -2.1081 O   0  0  0  0  0  0  0  0  0  0  0  0
   -0.8587   -1.3282   -0.8853 N   0  0  0  0  0  0  0  0  0  0  0  0
    0.0485   -0.5839   -0.0030 C   0  0  0  0  0  0  0  0  0  0  0  0
    1.3380   -0.2553   -0.7118 C   0  0  0  0  0  0  0  0  0  0  0  0
    1.3951   -0.2864   -1.9724 O   0  0  0  0  0  0  0  0  0  0  0  0
    2.4951    0.1135    0.0520 N   0  0  0  0  0  0  0  0  0  0  0  0
    3.8098    0.3004   -0.5568 C   0  0  0  0  0  0  0  0  0  0  0  0
    4.4335   -1.0564   -0.8972 C   0  0  0  0  0  0  0  0  0  0  0  0
    5.7197   -0.8843   -1.4930 O   0  0  0  0  0  0  0  0  0  0  0  0
    6.8983   -0.5401   -0.8096 C   0  0  0  0  0  0  0  0  0  0  0  0
    6.9638   -0.4289    0.5955 C   0  0  0  0  0  0  0  0  0  0  0  0
    8.1670   -0.0811    1.2176 C   0  0  0  0  0  0  0  0  0  0  0  0
    9.3129    0.1543    0.4504 C   0  0  0  0  0  0  0  0  0  0  0  0
   10.8208    0.5878    1.2351 Cl  0  0  0  0  0  0  0  0  0  0  0  0
    9.2565    0.0389   -0.9418 C   0  0  0  0  0  0  0  0  0  0  0  0
    8.0546   -0.3071   -1.5667 C   0  0  0  0  0  0  0  0  0  0  0  0
   -0.6503    0.6671    0.5689 C   0  0  0  0  0  0  0  0  0  0  0  0
   -1.1070    1.6564   -0.4828 C   0  0  0  0  0  0  0  0  0  0  0  0
   -0.2362    2.1208   -1.2684 O   0  0  0  0  0  0  0  0  0  0  0  0
   -2.4740    2.1355   -0.5810 N   0  0  0  0  0  0  0  0  0  0  0  0
   -2.7970    3.1679   -1.5798 C   0  0  0  0  0  0  0  0  0  0  0  0
   -2.3145    4.5172   -1.1155 C   0  0  0  0  0  0  0  0  0  0  0  0
   -2.9771    5.1814   -0.0695 C   0  0  0  0  0  0  0  0  0  0  0  0
   -2.5181    6.4227    0.3817 C   0  0  0  0  0  0  0  0  0  0  0  0
   -1.3951    7.0097   -0.2071 C   0  0  0  0  0  0  0  0  0  0  0  0
   -0.7298    6.3562   -1.2477 C   0  0  0  0  0  0  0  0  0  0  0  0
   -1.1851    5.1144   -1.7018 C   0  0  0  0  0  0  0  0  0  0  0  0
   -3.5600    1.6282    0.2765 C   0  0  0  0  0  0  0  0  0  0  0  0
   -4.0896    0.3160   -0.2304 C   0  0  0  0  0  0  0  0  0  0  0  0
   -4.0561    0.0645   -1.4659 O   0  0  0  0  0  0  0  0  0  0  0  0
   -5.9951   -3.0459    0.2422 H   0  0  0  0  0  0  0  0  0  0  0  0
   -7.3961   -2.3624   -0.6610 H   0  0  0  0  0  0  0  0  0  0  0  0
   -5.7257   -2.1620   -1.3129 H   0  0  0  0  0  0  0  0  0  0  0  0
   -6.6693   -0.0675   -0.2079 H   0  0  0  0  0  0  0  0  0  0  0  0
   -6.7623   -0.9605    1.3394 H   0  0  0  0  0  0  0  0  0  0  0  0
   -3.4133   -0.5659    2.2597 H   0  0  0  0  0  0  0  0  0  0  0  0
   -4.7803   -1.6777    2.4691 H   0  0  0  0  0  0  0  0  0  0  0  0
   -3.1707   -2.3465    0.0351 H   0  0  0  0  0  0  0  0  0  0  0  0
   -3.7653   -3.4016    1.3537 H   0  0  0  0  0  0  0  0  0  0  0  0
   -0.9118   -4.0892    3.4902 H   0  0  0  0  0  0  0  0  0  0  0  0
    0.7334   -5.8834    3.0707 H   0  0  0  0  0  0  0  0  0  0  0  0
    1.5831   -6.2816    0.7787 H   0  0  0  0  0  0  0  0  0  0  0  0
    0.8422   -4.8533   -1.0853 H   0  0  0  0  0  0  0  0  0  0  0  0
   -1.3309   -0.7991   -1.6541 H   0  0  0  0  0  0  0  0  0  0  0  0
    0.3232   -1.2127    0.8680 H   0  0  0  0  0  0  0  0  0  0  0  0
    2.3994    0.2575    1.0835 H   0  0  0  0  0  0  0  0  0  0  0  0
    3.7194    0.9221   -1.4748 H   0  0  0  0  0  0  0  0  0  0  0  0
    4.4643    0.8450    0.1563 H   0  0  0  0  0  0  0  0  0  0  0  0
    4.4983   -1.7042    0.0045 H   0  0  0  0  0  0  0  0  0  0  0  0
    3.7822   -1.5791   -1.6305 H   0  0  0  0  0  0  0  0  0  0  0  0
    6.0974   -0.6084    1.2175 H   0  0  0  0  0  0  0  0  0  0  0  0
    8.2075    0.0022    2.2969 H   0  0  0  0  0  0  0  0  0  0  0  0
   10.1422    0.2169   -1.5395 H   0  0  0  0  0  0  0  0  0  0  0  0
    8.0188   -0.3928   -2.6455 H   0  0  0  0  0  0  0  0  0  0  0  0
    0.0414    1.1928    1.2600 H   0  0  0  0  0  0  0  0  0  0  0  0
   -1.4883    0.3093    1.1883 H   0  0  0  0  0  0  0  0  0  0  0  0
   -2.3502    2.8957   -2.5609 H   0  0  0  0  0  0  0  0  0  0  0  0
   -3.8935    3.2192   -1.7585 H   0  0  0  0  0  0  0  0  0  0  0  0
   -3.8473    4.7388    0.3968 H   0  0  0  0  0  0  0  0  0  0  0  0
   -3.0323    6.9286    1.1887 H   0  0  0  0  0  0  0  0  0  0  0  0
   -1.0398    7.9694    0.1445 H   0  0  0  0  0  0  0  0  0  0  0  0
    0.1411    6.8112   -1.7005 H   0  0  0  0  0  0  0  0  0  0  0  0
   -0.6558    4.6198   -2.5070 H   0  0  0  0  0  0  0  0  0  0  0  0
   -3.2347    1.5732    1.3338 H   0  0  0  0  0  0  0  0  0  0  0  0
   -4.4119    2.3403    0.2816 H   0  0  0  0  0  0  0  0  0  0  0  0
  1  2  1  0
  2  3  1  0
  3  4  1  0
  4  5  1  0
  5  6  1  0
  6  7  1  0
  7  8  2  0
  8  9  1  0
  9 10  2  0
 10 11  1  0
 11 12  2  0
 12 13  1  0
 13 14  2  0
 13 15  1  0
 15 16  1  0
 16 17  1  0
 17 18  2  0
 17 19  1  0
 19 20  1  0
 20 21  1  0
 21 22  1  0
 22 23  1  0
 23 24  2  0
 24 25  1  0
 25 26  2  0
 26 27  1  0
 26 28  1  0
 28 29  2  0
 16 30  1  0
 30 31  1  0
 31 32  2  0
 31 33  1  0
 33 34  1  0
 34 35  1  0
 35 36  2  0
 36 37  1  0
 37 38  2  0
 38 39  1  0
 39 40  2  0
 33 41  1  0
 41 42  1  0
 42 43  2  0
 42  3  1  0
 12  7  1  0
 29 23  1  0
 40 35  1  0
  1 44  1  0
  1 45  1  0
  1 46  1  0
  2 47  1  0
  2 48  1  0
  4 49  1  0
  4 50  1  0
  5 51  1  0
  5 52  1  0
  8 53  1  0
  9 54  1  0
 10 55  1  0
 11 56  1  0
 15 57  1  0
 16 58  1  0
 19 59  1  0
 20 60  1  0
 20 61  1  0
 21 62  1  0
 21 63  1  0
 24 64  1  0
 25 65  1  0
 28 66  1  0
 29 67  1  0
 30 68  1  0
 30 69  1  0
 34 70  1  0
 34 71  1  0
 36 72  1  0
 37 73  1  0
 38 74  1  0
 39 75  1  0
 40 76  1  0
 41 77  1  0
 41 78  1  0
M  END
$$$$
