
     RDKit          3D

 65 68  0  0  0  0  0  0  0  0999 V2000
   -1.0201   -3.9216    1.7705 C   0  0  0  0  0  0  0  0  0  0  0  0
   -0.4887   -3.1520    0.5499 C   0  0  0  0  0  0  0  0  0  0  0  0
   -0.7438   -3.9464   -0.7387 C   0  0  0  0  0  0  0  0  0  0  0  0
   -1.0289   -1.6937    0.4540 C   0  0  0  0  0  0  0  0  0  0  0  0
   -2.5571   -1.6137    0.2600 C   0  0  0  0  0  0  0  0  0  0  0  0
   -2.9953   -0.2624    0.3992 O   0  0  0  0  0  0  0  0  0  0  0  0
   -4.2770    0.2112    0.0702 C   0  0  0  0  0  0  0  0  0  0  0  0
   -5.1921   -0.5659   -0.6708 C   0  0  0  0  0  0  0  0  0  0  0  0
   -6.4568   -0.0644   -0.9852 C   0  0  0  0  0  0  0  0  0  0  0  0
   -6.8323    1.2096   -0.5584 C   0  0  0  0  0  0  0  0  0  0  0  0
   -8.4255    1.8322   -0.9482 Cl  0  0  0  0  0  0  0  0  0  0  0  0
   -5.9439    1.9824    0.1920 C   0  0  0  0  0  0  0  0  0  0  0  0
   -4.6631    1.4978    0.5018 C   0  0  0  0  0  0  0  0  0  0  0  0
   -3.7956    2.3039    1.3843 C   0  0  0  0  0  0  0  0  0  0  0  0
   -4.2342    2.6375    2.5186 O   0  0  0  0  0  0  0  0  0  0  0  0
   -2.4872    2.7406    0.9889 N   0  0  0  0  0  0  0  0  0  0  0  0
   -2.0252    2.7220   -0.4023 C   0  0  0  0  0  0  0  0  0  0  0  0
   -0.6985    3.4829   -0.5666 C   0  0  0  0  0  0  0  0  0  0  0  0
    0.4866    2.8259    0.1672 C   0  0  0  0  0  0  0  0  0  0  0  0
    1.0589    1.6211   -0.5926 C   0  0  0  0  0  0  0  0  0  0  0  0
    2.0695    0.9235    0.2148 N   0  0  0  0  0  0  0  0  0  0  0  0
    3.3960    1.4703    0.3153 C   0  0  0  0  0  0  0  0  0  0  0  0
    3.5578    2.6057    0.8383 O   0  0  0  0  0  0  0  0  0  0  0  0
    4.5722    0.7253   -0.1914 C   0  0  0  0  0  0  0  0  0  0  0  0
    4.4155   -0.2905   -1.1783 C   0  0  0  0  0  0  0  0  0  0  0  0
    5.5307   -0.9931   -1.6750 C   0  0  0  0  0  0  0  0  0  0  0  0
    6.7772   -0.6471   -1.1681 C   0  0  0  0  0  0  0  0  0  0  0  0
    7.9863   -1.1400   -1.4612 N   0  0  0  0  0  0  0  0  0  0  0  0
    8.8607   -0.4739   -0.7126 N   0  0  0  0  0  0  0  0  0  0  0  0
    8.2510    0.4332    0.0507 N   0  0  0  0  0  0  0  0  0  0  0  0
    6.9418    0.3250   -0.2361 C   0  0  0  0  0  0  0  0  0  0  0  0
    5.8696    1.0423    0.2833 C   0  0  0  0  0  0  0  0  0  0  0  0
    1.7833   -0.4043    0.7757 C   0  0  0  0  0  0  0  0  0  0  0  0
    0.6855   -0.3205    1.8070 C   0  0  0  0  0  0  0  0  0  0  0  0
    0.9186    0.3136    2.8699 O   0  0  0  0  0  0  0  0  0  0  0  0
   -0.6134   -0.9168    1.6298 N   0  0  0  0  0  0  0  0  0  0  0  0
   -0.8562   -3.3410    2.7013 H   0  0  0  0  0  0  0  0  0  0  0  0
   -2.1002   -4.1526    1.6691 H   0  0  0  0  0  0  0  0  0  0  0  0
   -0.4753   -4.8841    1.8716 H   0  0  0  0  0  0  0  0  0  0  0  0
    0.6144   -3.0941    0.6714 H   0  0  0  0  0  0  0  0  0  0  0  0
   -0.2011   -4.9147   -0.7012 H   0  0  0  0  0  0  0  0  0  0  0  0
   -0.3754   -3.3799   -1.6196 H   0  0  0  0  0  0  0  0  0  0  0  0
   -1.8257   -4.1575   -0.8704 H   0  0  0  0  0  0  0  0  0  0  0  0
   -0.6006   -1.2194   -0.4533 H   0  0  0  0  0  0  0  0  0  0  0  0
   -3.0949   -2.2334    1.0050 H   0  0  0  0  0  0  0  0  0  0  0  0
   -2.7879   -1.9802   -0.7614 H   0  0  0  0  0  0  0  0  0  0  0  0
   -4.9442   -1.5614   -1.0076 H   0  0  0  0  0  0  0  0  0  0  0  0
   -7.1474   -0.6705   -1.5574 H   0  0  0  0  0  0  0  0  0  0  0  0
   -6.2516    2.9630    0.5359 H   0  0  0  0  0  0  0  0  0  0  0  0
   -1.9262    3.2516    1.7067 H   0  0  0  0  0  0  0  0  0  0  0  0
   -2.7901    3.2117   -1.0431 H   0  0  0  0  0  0  0  0  0  0  0  0
   -1.9085    1.6792   -0.7538 H   0  0  0  0  0  0  0  0  0  0  0  0
   -0.4615    3.5755   -1.6488 H   0  0  0  0  0  0  0  0  0  0  0  0
   -0.8345    4.5147   -0.1746 H   0  0  0  0  0  0  0  0  0  0  0  0
    1.2836    3.5920    0.2730 H   0  0  0  0  0  0  0  0  0  0  0  0
    0.1908    2.5156    1.1907 H   0  0  0  0  0  0  0  0  0  0  0  0
    0.2407    0.9216   -0.8539 H   0  0  0  0  0  0  0  0  0  0  0  0
    1.5153    1.9593   -1.5490 H   0  0  0  0  0  0  0  0  0  0  0  0
    3.4377   -0.5255   -1.5770 H   0  0  0  0  0  0  0  0  0  0  0  0
    5.4212   -1.7622   -2.4281 H   0  0  0  0  0  0  0  0  0  0  0  0
    8.2240   -1.8992   -2.1380 H   0  0  0  0  0  0  0  0  0  0  0  0
    6.0331    1.8069    1.0311 H   0  0  0  0  0  0  0  0  0  0  0  0
    2.6854   -0.8113    1.2830 H   0  0  0  0  0  0  0  0  0  0  0  0
    1.5532   -1.1050   -0.0479 H   0  0  0  0  0  0  0  0  0  0  0  0
   -1.3004   -0.7983    2.4091 H   0  0  0  0  0  0  0  0  0  0  0  0
  1  2  1  0
  2  3  1  0
  2  4  1  0
  4  5  1  0
  5  6  1  0
  6  7  1  0
  7  8  2  0
  8  9  1  0
  9 10  2  0
 10 11  1  0
 10 12  1  0
 12 13  2  0
 13 14  1  0
 14 15  2  0
 14 16  1  0
 16 17  1  0
 17 18  1  0
 18 19  1  0
 19 20  1  0
 20 21  1  0
 21 22  1  0
 22 23  2  0
 22 24  1  0
 24 25  2  0
 25 26  1  0
 26 27  2  0
 27 28  1  0
 28 29  1  0
 29 30  2  0
 30 31  1  0
 31 32  2  0
 21 33  1  0
 33 34  1  0
 34 35  2  0
 34 36  1  0
 36  4  1  0
 13  7  1  0
 32 24  1  0
 31 27  1  0
  1 37  1  0
  1 38  1  0
  1 39  1  0
  2 40  1  0
  3 41  1  0
  3 42  1  0
  3 43  1  0
  4 44  1  0
  5 45  1  0
  5 46  1  0
  8 47  1  0
  9 48  1  0
 12 49  1  0
 16 50  1  0
 17 51  1  0
 17 52  1  0
 18 53  1  0
 18 54  1  0
 19 55  1  0
 19 56  1  0
 20 57  1  0
 20 58  1  0
 25 59  1  0
 26 60  1  0
 28 61  1  0
 32 62  1  0
 33 63  1  0
 33 64  1  0
 36 65  1  0
M  END
$$$$
