
     RDKit          3D

 85 88  0  0  0  0  0  0  0  0999 V2000
    8.9754    1.9359    4.2118 C   0  0  0  0  0  0  0  0  0  0  0  0
    9.2240    1.0858    3.0969 O   0  0  0  0  0  0  0  0  0  0  0  0
    8.3081    0.8508    2.0608 C   0  0  0  0  0  0  0  0  0  0  0  0
    7.0340    1.4459    2.0315 C   0  0  0  0  0  0  0  0  0  0  0  0
    6.1529    1.1724    0.9821 C   0  0  0  0  0  0  0  0  0  0  0  0
    6.5189    0.2868   -0.0463 C   0  0  0  0  0  0  0  0  0  0  0  0
    7.8122   -0.2732   -0.0376 C   0  0  0  0  0  0  0  0  0  0  0  0
    8.6867   -0.0037    1.0202 C   0  0  0  0  0  0  0  0  0  0  0  0
    8.2374   -1.1114   -1.0748 O   0  0  0  0  0  0  0  0  0  0  0  0
    7.5054   -1.2798   -2.2913 C   0  0  0  0  0  0  0  0  0  0  0  0
    7.8779   -2.6443   -2.8893 C   0  0  0  0  0  0  0  0  0  0  0  0
    7.9080   -0.1707   -3.2812 C   0  0  0  0  0  0  0  0  0  0  0  0
    5.9872   -1.2438   -1.9937 C   0  0  0  0  0  0  0  0  0  0  0  0
    5.5730    0.0126   -1.2000 C   0  0  0  0  0  0  0  0  0  0  0  0
    4.2037   -0.1701   -0.7044 N   0  0  0  0  0  0  0  0  0  0  0  0
    3.1462    0.7715   -0.9467 C   0  0  0  0  0  0  0  0  0  0  0  0
    3.3685    1.8349   -1.5872 O   0  0  0  0  0  0  0  0  0  0  0  0
    1.7538    0.4787   -0.4723 C   0  0  0  0  0  0  0  0  0  0  0  0
    0.8789    0.0107   -1.6388 C   0  0  0  0  0  0  0  0  0  0  0  0
   -0.4897   -0.3881   -1.1536 C   0  0  0  0  0  0  0  0  0  0  0  0
   -0.8064   -1.7385   -0.9605 C   0  0  0  0  0  0  0  0  0  0  0  0
   -2.0673   -2.1040   -0.4907 C   0  0  0  0  0  0  0  0  0  0  0  0
   -3.0259   -1.1309   -0.1882 C   0  0  0  0  0  0  0  0  0  0  0  0
   -2.7251    0.2397   -0.3861 C   0  0  0  0  0  0  0  0  0  0  0  0
   -1.4462    0.5935   -0.8541 C   0  0  0  0  0  0  0  0  0  0  0  0
   -3.7081    1.3527   -0.0733 C   0  0  0  0  0  0  0  0  0  0  0  0
   -5.1036    1.0261   -0.4556 N   0  0  0  0  0  0  0  0  0  0  0  0
   -5.2564    0.8596   -1.9364 C   0  0  0  0  0  0  0  0  0  0  0  0
   -6.3442   -0.1730   -2.2633 C   0  0  0  0  0  0  0  0  0  0  0  0
   -5.4792    2.1699   -2.7152 C   0  0  0  0  0  0  0  0  0  0  0  0
   -6.0358    1.9917    0.1840 C   0  0  0  0  0  0  0  0  0  0  0  0
   -7.4526    1.4940    0.1783 C   0  0  0  0  0  0  0  0  0  0  0  0
   -8.2923    2.0365   -0.5889 O   0  0  0  0  0  0  0  0  0  0  0  0
   -7.8588    0.3807    0.9840 N   0  0  0  0  0  0  0  0  0  0  0  0
   -7.7128    0.3988    2.4419 C   0  0  0  0  0  0  0  0  0  0  0  0
   -7.9408   -0.9986    3.0502 C   0  0  0  0  0  0  0  0  0  0  0  0
   -6.6587   -1.8397    3.1779 C   0  0  0  0  0  0  0  0  0  0  0  0
   -5.9996   -2.1767    1.8251 C   0  0  0  0  0  0  0  0  0  0  0  0
   -4.6982   -1.4015    1.6126 C   0  0  0  0  0  0  0  0  0  0  0  0
   -4.2739   -1.5634    0.2646 O   0  0  0  0  0  0  0  0  0  0  0  0
    9.8589    1.9248    4.8815 H   0  0  0  0  0  0  0  0  0  0  0  0
    8.8039    2.9764    3.8664 H   0  0  0  0  0  0  0  0  0  0  0  0
    8.0947    1.5723    4.7811 H   0  0  0  0  0  0  0  0  0  0  0  0
    6.7151    2.1238    2.8118 H   0  0  0  0  0  0  0  0  0  0  0  0
    5.1835    1.6534    0.9742 H   0  0  0  0  0  0  0  0  0  0  0  0
    9.6725   -0.4534    1.0272 H   0  0  0  0  0  0  0  0  0  0  0  0
    7.3232   -2.8233   -3.8363 H   0  0  0  0  0  0  0  0  0  0  0  0
    7.6327   -3.4598   -2.1748 H   0  0  0  0  0  0  0  0  0  0  0  0
    8.9689   -2.6904   -3.0989 H   0  0  0  0  0  0  0  0  0  0  0  0
    8.9876   -0.2509   -3.5299 H   0  0  0  0  0  0  0  0  0  0  0  0
    7.3204   -0.2523   -4.2206 H   0  0  0  0  0  0  0  0  0  0  0  0
    7.7429    0.8350   -2.8418 H   0  0  0  0  0  0  0  0  0  0  0  0
    5.7195   -2.1448   -1.3972 H   0  0  0  0  0  0  0  0  0  0  0  0
    5.4064   -1.2899   -2.9415 H   0  0  0  0  0  0  0  0  0  0  0  0
    5.6167    0.8853   -1.8859 H   0  0  0  0  0  0  0  0  0  0  0  0
    4.0020   -1.0047   -0.1081 H   0  0  0  0  0  0  0  0  0  0  0  0
    1.3219    1.3989   -0.0214 H   0  0  0  0  0  0  0  0  0  0  0  0
    1.7815   -0.3063    0.3142 H   0  0  0  0  0  0  0  0  0  0  0  0
    0.7812    0.8296   -2.3857 H   0  0  0  0  0  0  0  0  0  0  0  0
    1.3674   -0.8471   -2.1532 H   0  0  0  0  0  0  0  0  0  0  0  0
   -0.0772   -2.5097   -1.1740 H   0  0  0  0  0  0  0  0  0  0  0  0
   -2.3001   -3.1526   -0.3503 H   0  0  0  0  0  0  0  0  0  0  0  0
   -1.1897    1.6380   -0.9910 H   0  0  0  0  0  0  0  0  0  0  0  0
   -3.6314    1.5329    1.0210 H   0  0  0  0  0  0  0  0  0  0  0  0
   -3.3991    2.2996   -0.5688 H   0  0  0  0  0  0  0  0  0  0  0  0
   -4.3247    0.4211   -2.3563 H   0  0  0  0  0  0  0  0  0  0  0  0
   -7.3595    0.2618   -2.1955 H   0  0  0  0  0  0  0  0  0  0  0  0
   -6.2108   -0.5470   -3.3001 H   0  0  0  0  0  0  0  0  0  0  0  0
   -6.2722   -1.0390   -1.5725 H   0  0  0  0  0  0  0  0  0  0  0  0
   -4.7008    2.9161   -2.4557 H   0  0  0  0  0  0  0  0  0  0  0  0
   -6.4814    2.5994   -2.5126 H   0  0  0  0  0  0  0  0  0  0  0  0
   -5.4106    1.9711   -3.8058 H   0  0  0  0  0  0  0  0  0  0  0  0
   -5.9700    2.9945   -0.2878 H   0  0  0  0  0  0  0  0  0  0  0  0
   -5.7551    2.1583    1.2436 H   0  0  0  0  0  0  0  0  0  0  0  0
   -8.6342   -0.2003    0.5920 H   0  0  0  0  0  0  0  0  0  0  0  0
   -8.4757    1.0932    2.8550 H   0  0  0  0  0  0  0  0  0  0  0  0
   -6.7190    0.7874    2.7429 H   0  0  0  0  0  0  0  0  0  0  0  0
   -8.3511   -0.8646    4.0754 H   0  0  0  0  0  0  0  0  0  0  0  0
   -8.7086   -1.5614    2.4753 H   0  0  0  0  0  0  0  0  0  0  0  0
   -6.9351   -2.7939    3.6783 H   0  0  0  0  0  0  0  0  0  0  0  0
   -5.9452   -1.3273    3.8613 H   0  0  0  0  0  0  0  0  0  0  0  0
   -5.7596   -3.2627    1.7967 H   0  0  0  0  0  0  0  0  0  0  0  0
   -6.6966   -1.9849    0.9812 H   0  0  0  0  0  0  0  0  0  0  0  0
   -3.9184   -1.7957    2.3017 H   0  0  0  0  0  0  0  0  0  0  0  0
   -4.8515   -0.3287    1.8350 H   0  0  0  0  0  0  0  0  0  0  0  0
  1  2  1  0
  2  3  1  0
  3  4  2  0
  4  5  1  0
  5  6  2  0
  6  7  1  0
  7  8  2  0
  7  9  1  0
  9 10  1  0
 10 11  1  0
 10 12  1  0
 10 13  1  0
 13 14  1  0
 14 15  1  0
 15 16  1  0
 16 17  2  0
 16 18  1  0
 18 19  1  0
 19 20  1  0
 20 21  2  0
 21 22  1  0
 22 23  2  0
 23 24  1  0
 24 25  2  0
 24 26  1  0
 26 27  1  0
 27 28  1  0
 28 29  1  0
 28 30  1  0
 27 31  1  0
 31 32  1  0
 32 33  2  0
 32 34  1  0
 34 35  1  0
 35 36  1  0
 36 37  1  0
 37 38  1  0
 38 39  1  0
 39 40  1  0
  8  3  1  0
 25 20  1  0
 14  6  1  0
 40 23  1  0
  1 41  1  0
  1 42  1  0
  1 43  1  0
  4 44  1  0
  5 45  1  0
  8 46  1  0
 11 47  1  0
 11 48  1  0
 11 49  1  0
 12 50  1  0
 12 51  1  0
 12 52  1  0
 13 53  1  0
 13 54  1  0
 14 55  1  0
 15 56  1  0
 18 57  1  0
 18 58  1  0
 19 59  1  0
 19 60  1  0
 21 61  1  0
 22 62  1  0
 25 63  1  0
 26 64  1  0
 26 65  1  0
 28 66  1  0
 29 67  1  0
 29 68  1  0
 29 69  1  0
 30 70  1  0
 30 71  1  0
 30 72  1  0
 31 73  1  0
 31 74  1  0
 34 75  1  0
 35 76  1  0
 35 77  1  0
 36 78  1  0
 36 79  1  0
 37 80  1  0
 37 81  1  0
 38 82  1  0
 38 83  1  0
 39 84  1  0
 39 85  1  0
M  END
$$$$
