
     RDKit          3D

123126  0  0  0  0  0  0  0  0999 V2000
    9.4899    5.6349   -0.7829 C   0  0  0  0  0  0  0  0  0  0  0  0
    9.3692    4.5431   -0.2941 C   0  0  0  0  0  0  0  0  0  0  0  0
    9.2216    3.2046    0.2888 C   0  0  0  0  0  0  0  0  0  0  0  0
    7.8122    2.8125    0.3110 N   0  0  0  0  0  0  0  0  0  0  0  0
    7.1120    2.4327   -0.8851 C   0  0  0  0  0  0  0  0  0  0  0  0
    7.6218    2.6539   -2.0194 O   0  0  0  0  0  0  0  0  0  0  0  0
    5.7952    1.7240   -0.7913 C   0  0  0  0  0  0  0  0  0  0  0  0
    5.9676    0.2839   -0.2935 C   0  0  1  0  0  0  0  0  0  0  0  0
    4.6540   -0.3512   -0.1536 N   0  0  0  0  0  0  0  0  0  0  0  0
    4.2014   -0.9417    1.0686 C   0  0  0  0  0  0  0  0  0  0  0  0
    4.7387   -0.6162    2.1634 O   0  0  0  0  0  0  0  0  0  0  0  0
    3.1322   -2.0135    1.0741 C   0  0  0  0  0  0  0  0  0  0  0  0
    1.9232   -1.5813    0.3499 N   0  0  0  0  0  0  0  0  0  0  0  0
    1.2368   -0.3600    0.6579 C   0  0  0  0  0  0  0  0  0  0  0  0
    1.5830    0.3156    1.6660 O   0  0  0  0  0  0  0  0  0  0  0  0
    0.0847    0.1187   -0.2020 C   0  0  1  0  0  0  0  0  0  0  0  0
   -0.9432    0.7033    0.6685 N   0  0  0  0  0  0  0  0  0  0  0  0
   -2.1229    0.2196    0.9374 C   0  0  0  0  0  0  0  0  0  0  0  0
   -2.5641   -1.0296    0.3764 N   0  0  0  0  0  0  0  0  0  0  0  0
   -3.0603   -1.1245   -0.9973 C   0  0  0  0  0  0  0  0  0  0  0  0
   -4.1636   -2.1460   -1.1053 C   0  0  0  0  0  0  0  0  0  0  0  0
   -3.9636   -3.3048   -0.6545 O   0  0  0  0  0  0  0  0  0  0  0  0
   -5.3860   -1.8607   -1.8009 N   0  0  0  0  0  0  0  0  0  0  0  0
   -6.1414   -2.8855   -2.5098 C   0  0  0  0  0  0  0  0  0  0  0  0
   -7.4417   -2.2175   -2.9490 C   0  0  0  0  0  0  0  0  0  0  0  0
   -7.1897   -0.7136   -2.8304 C   0  0  1  0  0  0  0  0  0  0  0  0
   -8.4794    0.0851   -2.5708 C   0  0  0  0  0  0  0  0  0  0  0  0
   -6.0860   -0.5787   -1.7658 C   0  0  0  0  0  0  0  0  0  0  0  0
   -6.6440   -0.3388   -0.3696 C   0  0  0  0  0  0  0  0  0  0  0  0
   -7.0396   -1.3236    0.3084 O   0  0  0  0  0  0  0  0  0  0  0  0
   -6.8093    0.9785    0.1679 N   0  0  0  0  0  0  0  0  0  0  0  0
   -5.9889    2.1296   -0.2239 C   0  0  1  0  0  0  0  0  0  0  0  0
   -6.5610    3.4558    0.3560 C   0  0  0  0  0  0  0  0  0  0  0  0
   -8.0156    3.6782   -0.1057 C   0  0  0  0  0  0  0  0  0  0  0  0
   -5.7066    4.6677   -0.0626 C   0  0  0  0  0  0  0  0  0  0  0  0
   -4.5657    1.8945    0.2253 C   0  0  0  0  0  0  0  0  0  0  0  0
   -3.6190    2.2921   -0.5079 O   0  0  0  0  0  0  0  0  0  0  0  0
   -4.3036    1.2582    1.4871 N   0  0  0  0  0  0  0  0  0  0  0  0
   -2.9567    0.9307    1.9886 C   0  0  1  0  0  0  0  0  0  0  0  0
   -3.0164    0.1536    3.3659 C   0  0  0  0  0  0  0  0  0  0  0  0
   -4.0026   -1.0400    3.3341 C   0  0  0  0  0  0  0  0  0  0  0  0
   -3.4607    1.1218    4.4897 C   0  0  0  0  0  0  0  0  0  0  0  0
   -1.6162   -0.3812    3.7580 C   0  0  0  0  0  0  0  0  0  0  0  0
    0.5281    1.1570   -1.2963 C   0  0  0  0  0  0  0  0  0  0  0  0
   -0.7097    1.7925   -1.9717 C   0  0  0  0  0  0  0  0  0  0  0  0
    1.3847    2.2935   -0.6871 C   0  0  0  0  0  0  0  0  0  0  0  0
    1.3342    0.4492   -2.4022 C   0  0  0  0  0  0  0  0  0  0  0  0
    3.6835   -3.4019    0.5819 C   0  0  1  0  0  0  0  0  0  0  0  0
    3.6293   -3.5886   -0.9520 C   0  0  0  0  0  0  0  0  0  0  0  0
    5.0714   -3.6896    1.1641 C   0  0  0  0  0  0  0  0  0  0  0  0
    5.2185   -3.8168    2.5627 C   0  0  0  0  0  0  0  0  0  0  0  0
    6.4847   -4.0020    3.1354 C   0  0  0  0  0  0  0  0  0  0  0  0
    7.6230   -4.0563    2.3268 C   0  0  0  0  0  0  0  0  0  0  0  0
    7.4941   -3.9392    0.9394 C   0  0  0  0  0  0  0  0  0  0  0  0
    6.2365   -3.7531    0.3583 C   0  0  0  0  0  0  0  0  0  0  0  0
    6.8087   -0.5324   -1.2379 C   0  0  0  0  0  0  0  0  0  0  0  0
    8.0449   -0.9875   -0.9269 N   0  0  0  0  0  0  0  0  0  0  0  0
    8.5779   -1.7366   -1.9268 C   0  0  0  0  0  0  0  0  0  0  0  0
    7.7658   -1.8929   -3.0401 C   0  0  0  0  0  0  0  0  0  0  0  0
    6.3341   -1.0532   -2.7658 S   0  0  0  0  0  0  0  0  0  0  0  0
    9.6019    6.6006   -1.2020 H   0  0  0  0  0  0  0  0  0  0  0  0
    9.6351    3.2077    1.3226 H   0  0  0  0  0  0  0  0  0  0  0  0
    9.8051    2.4746   -0.3120 H   0  0  0  0  0  0  0  0  0  0  0  0
    7.3465    2.6919    1.2401 H   0  0  0  0  0  0  0  0  0  0  0  0
    5.2836    1.7275   -1.7819 H   0  0  0  0  0  0  0  0  0  0  0  0
    5.1396    2.2772   -0.0836 H   0  0  0  0  0  0  0  0  0  0  0  0
    6.4858    0.3153    0.6939 H   0  0  0  0  0  0  0  0  0  0  0  0
    4.0744   -0.4648   -1.0061 H   0  0  0  0  0  0  0  0  0  0  0  0
    2.8243   -2.1603    2.1328 H   0  0  0  0  0  0  0  0  0  0  0  0
    1.3606   -2.2927   -0.1741 H   0  0  0  0  0  0  0  0  0  0  0  0
   -0.3270   -0.7605   -0.7289 H   0  0  0  0  0  0  0  0  0  0  0  0
   -2.1960   -1.9013    0.8190 H   0  0  0  0  0  0  0  0  0  0  0  0
   -3.3890   -0.1344   -1.3539 H   0  0  0  0  0  0  0  0  0  0  0  0
   -2.2357   -1.4507   -1.6649 H   0  0  0  0  0  0  0  0  0  0  0  0
   -6.3472   -3.7505   -1.8439 H   0  0  0  0  0  0  0  0  0  0  0  0
   -5.5558   -3.2255   -3.3931 H   0  0  0  0  0  0  0  0  0  0  0  0
   -8.2649   -2.5362   -2.2707 H   0  0  0  0  0  0  0  0  0  0  0  0
   -7.7093   -2.4988   -3.9894 H   0  0  0  0  0  0  0  0  0  0  0  0
   -6.7667   -0.3697   -3.8028 H   0  0  0  0  0  0  0  0  0  0  0  0
   -9.0042   -0.2802   -1.6660 H   0  0  0  0  0  0  0  0  0  0  0  0
   -9.1676   -0.0291   -3.4374 H   0  0  0  0  0  0  0  0  0  0  0  0
   -8.2392    1.1614   -2.4494 H   0  0  0  0  0  0  0  0  0  0  0  0
   -5.4044    0.2286   -2.0732 H   0  0  0  0  0  0  0  0  0  0  0  0
   -7.4021    1.0552    1.0341 H   0  0  0  0  0  0  0  0  0  0  0  0
   -6.0152    2.2282   -1.3324 H   0  0  0  0  0  0  0  0  0  0  0  0
   -6.5556    3.3967    1.4700 H   0  0  0  0  0  0  0  0  0  0  0  0
   -8.0686    3.7170   -1.2157 H   0  0  0  0  0  0  0  0  0  0  0  0
   -8.4074    4.6322    0.3079 H   0  0  0  0  0  0  0  0  0  0  0  0
   -8.6725    2.8611    0.2551 H   0  0  0  0  0  0  0  0  0  0  0  0
   -4.6930    4.6070    0.3823 H   0  0  0  0  0  0  0  0  0  0  0  0
   -5.6170    4.7214   -1.1687 H   0  0  0  0  0  0  0  0  0  0  0  0
   -6.1680    5.6137    0.3044 H   0  0  0  0  0  0  0  0  0  0  0  0
   -5.0993    1.2940    2.1724 H   0  0  0  0  0  0  0  0  0  0  0  0
   -2.4570    1.9073    2.1895 H   0  0  0  0  0  0  0  0  0  0  0  0
   -3.7319   -1.7748    2.5536 H   0  0  0  0  0  0  0  0  0  0  0  0
   -5.0485   -0.7156    3.1320 H   0  0  0  0  0  0  0  0  0  0  0  0
   -4.0023   -1.5755    4.3080 H   0  0  0  0  0  0  0  0  0  0  0  0
   -2.7666    1.9856    4.5685 H   0  0  0  0  0  0  0  0  0  0  0  0
   -4.4843    1.5188    4.3142 H   0  0  0  0  0  0  0  0  0  0  0  0
   -3.4693    0.6054    5.4734 H   0  0  0  0  0  0  0  0  0  0  0  0
   -1.2784   -1.1740    3.0619 H   0  0  0  0  0  0  0  0  0  0  0  0
   -0.8578    0.4400    3.7556 H   0  0  0  0  0  0  0  0  0  0  0  0
   -1.6350   -0.8280    4.7777 H   0  0  0  0  0  0  0  0  0  0  0  0
   -1.2629    2.4304   -1.2522 H   0  0  0  0  0  0  0  0  0  0  0  0
   -0.4042    2.4441   -2.8174 H   0  0  0  0  0  0  0  0  0  0  0  0
   -1.3842    1.0088   -2.3640 H   0  0  0  0  0  0  0  0  0  0  0  0
    0.8511    2.7738    0.1600 H   0  0  0  0  0  0  0  0  0  0  0  0
    2.3601    1.9080   -0.3204 H   0  0  0  0  0  0  0  0  0  0  0  0
    1.5986    3.0718   -1.4515 H   0  0  0  0  0  0  0  0  0  0  0  0
    1.7225    1.1804   -3.1423 H   0  0  0  0  0  0  0  0  0  0  0  0
    0.6996   -0.2841   -2.9508 H   0  0  0  0  0  0  0  0  0  0  0  0
    2.1875   -0.1101   -1.9856 H   0  0  0  0  0  0  0  0  0  0  0  0
    3.0037   -4.1797    0.9979 H   0  0  0  0  0  0  0  0  0  0  0  0
    2.5877   -3.6446   -1.3206 H   0  0  0  0  0  0  0  0  0  0  0  0
    4.0894   -4.5610   -1.2373 H   0  0  0  0  0  0  0  0  0  0  0  0
    4.1444   -2.7620   -1.4731 H   0  0  0  0  0  0  0  0  0  0  0  0
    4.3535   -3.7488    3.2162 H   0  0  0  0  0  0  0  0  0  0  0  0
    6.5861   -4.0866    4.2095 H   0  0  0  0  0  0  0  0  0  0  0  0
    8.6006   -4.2010    2.7704 H   0  0  0  0  0  0  0  0  0  0  0  0
    8.3747   -4.0011    0.3059 H   0  0  0  0  0  0  0  0  0  0  0  0
    6.1905   -3.6568   -0.7207 H   0  0  0  0  0  0  0  0  0  0  0  0
    9.5584   -2.1898   -1.8445 H   0  0  0  0  0  0  0  0  0  0  0  0
    8.0173   -2.4636   -3.9268 H   0  0  0  0  0  0  0  0  0  0  0  0
  1  2  3  0
  2  3  1  0
  3  4  1  0
  4  5  1  0
  5  6  2  0
  5  7  1  0
  7  8  1  0
  8  9  1  0
  9 10  1  0
 10 11  2  0
 10 12  1  0
 12 13  1  0
 13 14  1  0
 14 15  2  0
 14 16  1  0
 16 17  1  0
 17 18  2  0
 18 19  1  0
 19 20  1  0
 20 21  1  0
 21 22  2  0
 21 23  1  0
 23 24  1  0
 24 25  1  0
 25 26  1  0
 26 27  1  0
 26 28  1  0
 28 29  1  0
 29 30  2  0
 29 31  1  0
 31 32  1  0
 32 33  1  0
 33 34  1  0
 33 35  1  0
 32 36  1  0
 36 37  2  0
 36 38  1  0
 38 39  1  0
 39 40  1  0
 40 41  1  0
 40 42  1  0
 40 43  1  0
 16 44  1  0
 44 45  1  0
 44 46  1  0
 44 47  1  0
 12 48  1  0
 48 49  1  0
 48 50  1  0
 50 51  2  0
 51 52  1  0
 52 53  2  0
 53 54  1  0
 54 55  2  0
  8 56  1  0
 56 57  2  0
 57 58  1  0
 58 59  2  0
 59 60  1  0
 39 18  1  0
 55 50  1  0
 60 56  1  0
 28 23  1  0
  1 61  1  0
  3 62  1  0
  3 63  1  0
  4 64  1  0
  7 65  1  0
  7 66  1  0
  8 67  1  1
  9 68  1  0
 12 69  1  0
 13 70  1  0
 16 71  1  6
 19 72  1  0
 20 73  1  0
 20 74  1  0
 24 75  1  0
 24 76  1  0
 25 77  1  0
 25 78  1  0
 26 79  1  6
 27 80  1  0
 27 81  1  0
 27 82  1  0
 28 83  1  0
 31 84  1  0
 32 85  1  6
 33 86  1  0
 34 87  1  0
 34 88  1  0
 34 89  1  0
 35 90  1  0
 35 91  1  0
 35 92  1  0
 38 93  1  0
 39 94  1  1
 41 95  1  0
 41 96  1  0
 41 97  1  0
 42 98  1  0
 42 99  1  0
 42100  1  0
 43101  1  0
 43102  1  0
 43103  1  0
 45104  1  0
 45105  1  0
 45106  1  0
 46107  1  0
 46108  1  0
 46109  1  0
 47110  1  0
 47111  1  0
 47112  1  0
 48113  1  1
 49114  1  0
 49115  1  0
 49116  1  0
 51117  1  0
 52118  1  0
 53119  1  0
 54120  1  0
 55121  1  0
 58122  1  0
 59123  1  0
M  END
$$$$
