
     RDKit          3D

 90 94  0  0  0  0  0  0  0  0999 V2000
   -6.5690    1.8989    2.2858 C   0  0  0  0  0  0  0  0  0  0  0  0
   -5.2332    1.4462    1.8892 N   0  0  0  0  0  0  0  0  0  0  0  0
   -4.2394    1.1562    2.9367 C   0  0  0  0  0  0  0  0  0  0  0  0
   -4.0705   -0.3521    3.1525 C   0  0  0  0  0  0  0  0  0  0  0  0
   -3.5485   -0.9679    1.9796 O   0  0  0  0  0  0  0  0  0  0  0  0
   -3.4756   -2.3547    1.8400 C   0  0  0  0  0  0  0  0  0  0  0  0
   -4.3828   -2.9881    0.9832 C   0  0  0  0  0  0  0  0  0  0  0  0
   -4.3719   -4.3773    0.8456 C   0  0  0  0  0  0  0  0  0  0  0  0
   -3.4512   -5.1423    1.5635 C   0  0  0  0  0  0  0  0  0  0  0  0
   -2.5292   -4.5192    2.4099 C   0  0  0  0  0  0  0  0  0  0  0  0
   -2.5149   -3.1207    2.5375 C   0  0  0  0  0  0  0  0  0  0  0  0
   -1.4850   -2.4869    3.3892 C   0  0  0  0  0  0  0  0  0  0  0  0
   -1.3193   -2.9121    4.5651 O   0  0  0  0  0  0  0  0  0  0  0  0
   -0.6702   -1.3985    2.9208 N   0  0  0  0  0  0  0  0  0  0  0  0
   -0.3259   -1.1835    1.5077 C   0  0  0  0  0  0  0  0  0  0  0  0
    1.1121   -1.5712    1.2639 C   0  0  0  0  0  0  0  0  0  0  0  0
    1.9804   -1.3597    2.1544 O   0  0  0  0  0  0  0  0  0  0  0  0
    1.4988   -2.1470    0.0072 N   0  0  0  0  0  0  0  0  0  0  0  0
    2.8241   -2.7217   -0.2203 C   0  0  0  0  0  0  0  0  0  0  0  0
    3.8789   -1.6470   -0.2360 C   0  0  0  0  0  0  0  0  0  0  0  0
    4.8493   -1.5865    0.7763 C   0  0  0  0  0  0  0  0  0  0  0  0
    5.8318   -0.5912    0.7541 C   0  0  0  0  0  0  0  0  0  0  0  0
    5.8542    0.3608   -0.2772 C   0  0  0  0  0  0  0  0  0  0  0  0
    6.9293    1.4151   -0.3015 C   0  0  0  0  0  0  0  0  0  0  0  0
    8.2371    0.8029   -0.6284 N   0  0  0  0  0  0  0  0  0  0  0  0
    9.3744    1.5775   -0.0885 C   0  0  0  0  0  0  0  0  0  0  0  0
    9.6581    2.8227   -0.9417 C   0  0  0  0  0  0  0  0  0  0  0  0
    9.9289    2.4534   -2.2783 O   0  0  0  0  0  0  0  0  0  0  0  0
    8.7871    1.8411   -2.8440 C   0  0  0  0  0  0  0  0  0  0  0  0
    8.4079    0.5591   -2.0786 C   0  0  0  0  0  0  0  0  0  0  0  0
    4.8792    0.3047   -1.2837 C   0  0  0  0  0  0  0  0  0  0  0  0
    3.8984   -0.6925   -1.2626 C   0  0  0  0  0  0  0  0  0  0  0  0
   -0.5700    0.2979    1.1526 C   0  0  0  0  0  0  0  0  0  0  0  0
   -0.7093    0.5858   -0.3542 C   0  0  0  0  0  0  0  0  0  0  0  0
   -1.8205   -0.1963   -1.0100 C   0  0  0  0  0  0  0  0  0  0  0  0
   -1.5116   -1.1916   -1.7185 O   0  0  0  0  0  0  0  0  0  0  0  0
   -3.2159    0.1204   -0.8394 N   0  0  0  0  0  0  0  0  0  0  0  0
   -3.7389    1.3444   -0.2164 C   0  0  0  0  0  0  0  0  0  0  0  0
   -3.9272    2.4641   -1.2636 C   0  0  0  0  0  0  0  0  0  0  0  0
   -4.9152    2.1171   -2.3525 C   0  0  0  0  0  0  0  0  0  0  0  0
   -6.2677    2.4877   -2.2310 C   0  0  0  0  0  0  0  0  0  0  0  0
   -7.1883    2.1219   -3.2170 C   0  0  0  0  0  0  0  0  0  0  0  0
   -6.7672    1.3973   -4.3349 C   0  0  0  0  0  0  0  0  0  0  0  0
   -5.4233    1.0347   -4.4698 C   0  0  0  0  0  0  0  0  0  0  0  0
   -4.4998    1.3918   -3.4821 C   0  0  0  0  0  0  0  0  0  0  0  0
   -5.0271    1.0380    0.5226 C   0  0  0  0  0  0  0  0  0  0  0  0
   -5.9542    0.4285   -0.0791 O   0  0  0  0  0  0  0  0  0  0  0  0
   -7.0990    2.3627    1.4234 H   0  0  0  0  0  0  0  0  0  0  0  0
   -7.1604    1.0351    2.6560 H   0  0  0  0  0  0  0  0  0  0  0  0
   -6.4952    2.6625    3.0873 H   0  0  0  0  0  0  0  0  0  0  0  0
   -4.5595    1.6045    3.9006 H   0  0  0  0  0  0  0  0  0  0  0  0
   -3.2693    1.6323    2.7002 H   0  0  0  0  0  0  0  0  0  0  0  0
   -5.0575   -0.7984    3.4057 H   0  0  0  0  0  0  0  0  0  0  0  0
   -3.3771   -0.5231    4.0022 H   0  0  0  0  0  0  0  0  0  0  0  0
   -5.1098   -2.4019    0.4365 H   0  0  0  0  0  0  0  0  0  0  0  0
   -5.0853   -4.8608    0.1921 H   0  0  0  0  0  0  0  0  0  0  0  0
   -3.4492   -6.2196    1.4618 H   0  0  0  0  0  0  0  0  0  0  0  0
   -1.8109   -5.1270    2.9500 H   0  0  0  0  0  0  0  0  0  0  0  0
   -0.1695   -0.8282    3.6418 H   0  0  0  0  0  0  0  0  0  0  0  0
   -0.9628   -1.8311    0.8698 H   0  0  0  0  0  0  0  0  0  0  0  0
    0.7861   -2.2411   -0.7493 H   0  0  0  0  0  0  0  0  0  0  0  0
    3.0366   -3.4869    0.5575 H   0  0  0  0  0  0  0  0  0  0  0  0
    2.8331   -3.2394   -1.2012 H   0  0  0  0  0  0  0  0  0  0  0  0
    4.8502   -2.3108    1.5831 H   0  0  0  0  0  0  0  0  0  0  0  0
    6.5796   -0.5645    1.5381 H   0  0  0  0  0  0  0  0  0  0  0  0
    6.9517    1.8827    0.7078 H   0  0  0  0  0  0  0  0  0  0  0  0
    6.6685    2.2312   -1.0111 H   0  0  0  0  0  0  0  0  0  0  0  0
   10.2790    0.9307   -0.0837 H   0  0  0  0  0  0  0  0  0  0  0  0
    9.1928    1.8748    0.9675 H   0  0  0  0  0  0  0  0  0  0  0  0
    8.8137    3.5467   -0.8887 H   0  0  0  0  0  0  0  0  0  0  0  0
   10.5528    3.3380   -0.5312 H   0  0  0  0  0  0  0  0  0  0  0  0
    9.0228    1.5650   -3.8938 H   0  0  0  0  0  0  0  0  0  0  0  0
    7.9373    2.5561   -2.8888 H   0  0  0  0  0  0  0  0  0  0  0  0
    9.2163   -0.1902   -2.2203 H   0  0  0  0  0  0  0  0  0  0  0  0
    7.4871    0.1209   -2.5210 H   0  0  0  0  0  0  0  0  0  0  0  0
    4.8799    1.0284   -2.0877 H   0  0  0  0  0  0  0  0  0  0  0  0
    3.1554   -0.7243   -2.0495 H   0  0  0  0  0  0  0  0  0  0  0  0
   -1.4851    0.6335    1.6710 H   0  0  0  0  0  0  0  0  0  0  0  0
    0.2571    0.9217    1.5570 H   0  0  0  0  0  0  0  0  0  0  0  0
    0.2533    0.3510   -0.8564 H   0  0  0  0  0  0  0  0  0  0  0  0
   -0.8838    1.6706   -0.5103 H   0  0  0  0  0  0  0  0  0  0  0  0
   -3.8965   -0.5176   -1.3128 H   0  0  0  0  0  0  0  0  0  0  0  0
   -3.0073    1.7382    0.5075 H   0  0  0  0  0  0  0  0  0  0  0  0
   -4.2499    3.3945   -0.7466 H   0  0  0  0  0  0  0  0  0  0  0  0
   -2.9429    2.7005   -1.7232 H   0  0  0  0  0  0  0  0  0  0  0  0
   -6.6121    3.0410   -1.3644 H   0  0  0  0  0  0  0  0  0  0  0  0
   -8.2307    2.3961   -3.1140 H   0  0  0  0  0  0  0  0  0  0  0  0
   -7.4822    1.1157   -5.0973 H   0  0  0  0  0  0  0  0  0  0  0  0
   -5.1008    0.4725   -5.3380 H   0  0  0  0  0  0  0  0  0  0  0  0
   -3.4637    1.0980   -3.5952 H   0  0  0  0  0  0  0  0  0  0  0  0
  1  2  1  0
  2  3  1  0
  3  4  1  0
  4  5  1  0
  5  6  1  0
  6  7  2  0
  7  8  1  0
  8  9  2  0
  9 10  1  0
 10 11  2  0
 11 12  1  0
 12 13  2  0
 12 14  1  0
 14 15  1  0
 15 16  1  0
 16 17  2  0
 16 18  1  0
 18 19  1  0
 19 20  1  0
 20 21  2  0
 21 22  1  0
 22 23  2  0
 23 24  1  0
 24 25  1  0
 25 26  1  0
 26 27  1  0
 27 28  1  0
 28 29  1  0
 29 30  1  0
 23 31  1  0
 31 32  2  0
 15 33  1  0
 33 34  1  0
 34 35  1  0
 35 36  2  0
 35 37  1  0
 37 38  1  0
 38 39  1  0
 39 40  1  0
 40 41  2  0
 41 42  1  0
 42 43  2  0
 43 44  1  0
 44 45  2  0
 38 46  1  0
 46 47  2  0
 46  2  1  0
 11  6  1  0
 32 20  1  0
 45 40  1  0
 30 25  1  0
  1 48  1  0
  1 49  1  0
  1 50  1  0
  3 51  1  0
  3 52  1  0
  4 53  1  0
  4 54  1  0
  7 55  1  0
  8 56  1  0
  9 57  1  0
 10 58  1  0
 14 59  1  0
 15 60  1  0
 18 61  1  0
 19 62  1  0
 19 63  1  0
 21 64  1  0
 22 65  1  0
 24 66  1  0
 24 67  1  0
 26 68  1  0
 26 69  1  0
 27 70  1  0
 27 71  1  0
 29 72  1  0
 29 73  1  0
 30 74  1  0
 30 75  1  0
 31 76  1  0
 32 77  1  0
 33 78  1  0
 33 79  1  0
 34 80  1  0
 34 81  1  0
 37 82  1  0
 38 83  1  0
 39 84  1  0
 39 85  1  0
 41 86  1  0
 42 87  1  0
 43 88  1  0
 44 89  1  0
 45 90  1  0
M  END
$$$$
