
     RDKit          3D

 66 69  0  0  0  0  0  0  0  0999 V2000
    1.4708    5.1667   -1.3487 C   0  0  0  0  0  0  0  0  0  0  0  0
    0.6708    4.1874   -0.5540 C   0  0  0  0  0  0  0  0  0  0  0  0
    1.0624    3.8585    0.5985 O   0  0  0  0  0  0  0  0  0  0  0  0
   -0.5071    3.5973   -1.1230 N   0  0  0  0  0  0  0  0  0  0  0  0
   -1.2918    2.5624   -0.4466 C   0  0  0  0  0  0  0  0  0  0  0  0
   -2.6496    3.1502    0.0100 C   0  0  0  0  0  0  0  0  0  0  0  0
   -3.4675    2.1064    0.7286 C   0  0  0  0  0  0  0  0  0  0  0  0
   -3.0178    1.6022    1.9597 C   0  0  0  0  0  0  0  0  0  0  0  0
   -3.5025    0.3828    2.4316 C   0  0  0  0  0  0  0  0  0  0  0  0
   -4.4373   -0.3341    1.6762 C   0  0  0  0  0  0  0  0  0  0  0  0
   -5.0485    0.2689    0.5714 C   0  0  0  0  0  0  0  0  0  0  0  0
   -4.5445    1.4769    0.0800 C   0  0  0  0  0  0  0  0  0  0  0  0
   -4.5801   -1.7039    1.8955 O   0  0  0  0  0  0  0  0  0  0  0  0
   -3.5786   -2.5378    1.3889 C   0  0  0  0  0  0  0  0  0  0  0  0
   -3.2394   -2.4777    0.0286 C   0  0  0  0  0  0  0  0  0  0  0  0
   -2.0553   -3.0512   -0.4250 C   0  0  0  0  0  0  0  0  0  0  0  0
   -1.1977   -3.7014    0.4737 C   0  0  0  0  0  0  0  0  0  0  0  0
   -1.6174   -3.8975    1.8023 C   0  0  0  0  0  0  0  0  0  0  0  0
   -2.8128   -3.3244    2.2556 C   0  0  0  0  0  0  0  0  0  0  0  0
    0.1683   -4.0791    0.0612 C   0  0  0  0  0  0  0  0  0  0  0  0
    0.6772   -5.1479    0.4946 O   0  0  0  0  0  0  0  0  0  0  0  0
    1.0175   -3.1353   -0.7496 C   0  0  0  0  0  0  0  0  0  0  0  0
    1.5560   -2.0891    0.1171 N   0  0  0  0  0  0  0  0  0  0  0  0
    0.8999   -0.8275    0.3170 C   0  0  0  0  0  0  0  0  0  0  0  0
    0.4536   -0.5544    1.4633 O   0  0  0  0  0  0  0  0  0  0  0  0
    0.7686    0.2177   -0.7726 C   0  0  0  0  0  0  0  0  0  0  0  0
    1.7772    0.0675   -1.9385 C   0  0  0  0  0  0  0  0  0  0  0  0
    3.1583    0.6799   -1.6435 C   0  0  0  0  0  0  0  0  0  0  0  0
    3.9093   -0.0759   -0.5799 C   0  0  0  0  0  0  0  0  0  0  0  0
    4.5521   -1.2853   -0.8932 C   0  0  0  0  0  0  0  0  0  0  0  0
    5.2200   -2.0057    0.1016 C   0  0  0  0  0  0  0  0  0  0  0  0
    5.2490   -1.5261    1.4138 C   0  0  0  0  0  0  0  0  0  0  0  0
    4.6105   -0.3247    1.7336 C   0  0  0  0  0  0  0  0  0  0  0  0
    3.9425    0.3997    0.7420 C   0  0  0  0  0  0  0  0  0  0  0  0
   -0.6032    0.2108   -1.2937 N   0  0  0  0  0  0  0  0  0  0  0  0
   -1.4506    1.3731   -1.3762 C   0  0  0  0  0  0  0  0  0  0  0  0
   -2.3440    1.4062   -2.2652 O   0  0  0  0  0  0  0  0  0  0  0  0
    0.7929    5.8716   -1.8741 H   0  0  0  0  0  0  0  0  0  0  0  0
    2.0829    4.6207   -2.0966 H   0  0  0  0  0  0  0  0  0  0  0  0
    2.1432    5.7492   -0.6836 H   0  0  0  0  0  0  0  0  0  0  0  0
   -0.8369    3.9411   -2.0539 H   0  0  0  0  0  0  0  0  0  0  0  0
   -0.7705    2.2266    0.4732 H   0  0  0  0  0  0  0  0  0  0  0  0
   -2.4640    4.0006    0.7019 H   0  0  0  0  0  0  0  0  0  0  0  0
   -3.2051    3.5554   -0.8645 H   0  0  0  0  0  0  0  0  0  0  0  0
   -2.2042    2.0856    2.4866 H   0  0  0  0  0  0  0  0  0  0  0  0
   -3.0481   -0.0704    3.3034 H   0  0  0  0  0  0  0  0  0  0  0  0
   -5.7917   -0.2722   -0.0001 H   0  0  0  0  0  0  0  0  0  0  0  0
   -4.9190    1.8597   -0.8610 H   0  0  0  0  0  0  0  0  0  0  0  0
   -3.8504   -1.9161   -0.6652 H   0  0  0  0  0  0  0  0  0  0  0  0
   -1.7951   -2.9472   -1.4695 H   0  0  0  0  0  0  0  0  0  0  0  0
   -0.9807   -4.4166    2.5080 H   0  0  0  0  0  0  0  0  0  0  0  0
   -3.0796   -3.3951    3.3022 H   0  0  0  0  0  0  0  0  0  0  0  0
    1.8640   -3.6953   -1.2017 H   0  0  0  0  0  0  0  0  0  0  0  0
    0.4402   -2.6944   -1.5853 H   0  0  0  0  0  0  0  0  0  0  0  0
    2.2029   -2.4043    0.8751 H   0  0  0  0  0  0  0  0  0  0  0  0
    0.9823    1.1954   -0.2994 H   0  0  0  0  0  0  0  0  0  0  0  0
    1.8885   -0.9879   -2.2584 H   0  0  0  0  0  0  0  0  0  0  0  0
    1.3710    0.6136   -2.8186 H   0  0  0  0  0  0  0  0  0  0  0  0
    3.7576    0.6699   -2.5799 H   0  0  0  0  0  0  0  0  0  0  0  0
    3.0438    1.7490   -1.3579 H   0  0  0  0  0  0  0  0  0  0  0  0
    4.5266   -1.6728   -1.9041 H   0  0  0  0  0  0  0  0  0  0  0  0
    5.7109   -2.9386   -0.1438 H   0  0  0  0  0  0  0  0  0  0  0  0
    5.7637   -2.0867    2.1831 H   0  0  0  0  0  0  0  0  0  0  0  0
    4.6294    0.0437    2.7511 H   0  0  0  0  0  0  0  0  0  0  0  0
    3.4425    1.3232    1.0063 H   0  0  0  0  0  0  0  0  0  0  0  0
   -0.9154   -0.6428   -1.8086 H   0  0  0  0  0  0  0  0  0  0  0  0
  1  2  1  0
  2  3  2  0
  2  4  1  0
  4  5  1  0
  5  6  1  0
  6  7  1  0
  7  8  2  0
  8  9  1  0
  9 10  2  0
 10 11  1  0
 11 12  2  0
 10 13  1  0
 13 14  1  0
 14 15  2  0
 15 16  1  0
 16 17  2  0
 17 18  1  0
 18 19  2  0
 17 20  1  0
 20 21  2  0
 20 22  1  0
 22 23  1  0
 23 24  1  0
 24 25  2  0
 24 26  1  0
 26 27  1  0
 27 28  1  0
 28 29  1  0
 29 30  2  0
 30 31  1  0
 31 32  2  0
 32 33  1  0
 33 34  2  0
 26 35  1  0
 35 36  1  0
 36 37  2  0
 36  5  1  0
 12  7  1  0
 19 14  1  0
 34 29  1  0
  1 38  1  0
  1 39  1  0
  1 40  1  0
  4 41  1  0
  5 42  1  0
  6 43  1  0
  6 44  1  0
  8 45  1  0
  9 46  1  0
 11 47  1  0
 12 48  1  0
 15 49  1  0
 16 50  1  0
 18 51  1  0
 19 52  1  0
 22 53  1  0
 22 54  1  0
 23 55  1  0
 26 56  1  0
 27 57  1  0
 27 58  1  0
 28 59  1  0
 28 60  1  0
 30 61  1  0
 31 62  1  0
 32 63  1  0
 33 64  1  0
 34 65  1  0
 35 66  1  0
M  END
$$$$
