
     RDKit          3D

114115  0  0  0  0  0  0  0  0999 V2000
    3.2725    9.7573    0.3294 C   0  0  0  0  0  0  0  0  0  0  0  0
    2.2385    9.2231    0.1051 C   0  0  0  0  0  0  0  0  0  0  0  0
    0.9644    8.4247   -0.0502 C   0  0  0  0  0  0  0  0  0  0  0  0
    1.1062    7.0075    0.6109 C   0  0  0  0  0  0  0  0  0  0  0  0
    2.2065    6.2015   -0.1093 C   0  0  0  0  0  0  0  0  0  0  0  0
    2.2158    4.8617    0.4359 N   0  0  0  0  0  0  0  0  0  0  0  0
    1.2757    3.8768    0.0487 C   0  0  0  0  0  0  0  0  0  0  0  0
    0.6401    4.1961   -1.0036 O   0  0  0  0  0  0  0  0  0  0  0  0
    0.8187    2.9236    0.8925 O   0  0  0  0  0  0  0  0  0  0  0  0
   -0.0236    1.7628    0.6331 C   0  0  0  0  0  0  0  0  0  0  0  0
   -1.3883    2.1812    0.1086 C   0  0  0  0  0  0  0  0  0  0  0  0
   -2.0788    3.3247    0.9581 C   0  0  0  0  0  0  0  0  0  0  0  0
   -2.3297    0.9848    0.0513 C   0  0  0  0  0  0  0  0  0  0  0  0
   -2.4850    0.3821    1.1567 O   0  0  0  0  0  0  0  0  0  0  0  0
   -2.9057    0.4537   -1.1133 O   0  0  0  0  0  0  0  0  0  0  0  0
   -4.2653    0.5325   -1.5044 C   0  0  0  0  0  0  0  0  0  0  0  0
   -4.6716    1.9834   -1.3300 C   0  0  0  0  0  0  0  0  0  0  0  0
   -5.8358    2.4126   -2.2453 C   0  0  0  0  0  0  0  0  0  0  0  0
   -5.1425   -0.5457   -0.7930 C   0  0  0  0  0  0  0  0  0  0  0  0
   -6.5579   -0.4660   -1.3867 C   0  0  0  0  0  0  0  0  0  0  0  0
   -5.1963   -0.1960    0.5619 O   0  0  0  0  0  0  0  0  0  0  0  0
   -4.6103   -2.0034   -0.9590 C   0  0  0  0  0  0  0  0  0  0  0  0
   -5.2219   -2.6428   -2.0507 O   0  0  0  0  0  0  0  0  0  0  0  0
   -4.7289   -2.8927    0.3558 C   0  0  0  0  0  0  0  0  0  0  0  0
   -6.0899   -3.6112    0.4573 C   0  0  0  0  0  0  0  0  0  0  0  0
   -3.6136   -3.8589    0.5176 N   0  0  0  0  0  0  0  0  0  0  0  0
   -3.6449   -5.0109   -0.3938 C   0  0  0  0  0  0  0  0  0  0  0  0
   -2.3280   -3.2009    0.3577 C   0  0  0  0  0  0  0  0  0  0  0  0
   -1.1088   -3.7634    1.0196 C   0  0  0  0  0  0  0  0  0  0  0  0
   -1.4738   -4.1750    2.4560 C   0  0  0  0  0  0  0  0  0  0  0  0
    0.0549   -2.7168    1.1080 C   0  0  0  0  0  0  0  0  0  0  0  0
    0.3617   -1.8352   -0.1382 C   0  0  0  0  0  0  0  0  0  0  0  0
    1.0943   -2.6865   -1.2068 C   0  0  0  0  0  0  0  0  0  0  0  0
   -0.8451   -1.4544   -0.7273 O   0  0  0  0  0  0  0  0  0  0  0  0
    1.1613   -0.5518    0.3040 C   0  0  0  0  0  0  0  0  0  0  0  0
    2.4462   -0.6660   -0.2227 O   0  0  0  0  0  0  0  0  0  0  0  0
    3.4010   -1.2904    0.6162 C   0  0  0  0  0  0  0  0  0  0  0  0
    3.9831   -2.3926   -0.0959 O   0  0  0  0  0  0  0  0  0  0  0  0
    4.7305   -1.9634   -1.2319 C   0  0  0  0  0  0  0  0  0  0  0  0
    5.0743   -3.2052   -2.1018 C   0  0  0  0  0  0  0  0  0  0  0  0
    5.9503   -1.1794   -0.7941 C   0  0  0  0  0  0  0  0  0  0  0  0
    5.9636   -0.9232    0.7281 C   0  0  0  0  0  0  0  0  0  0  0  0
    6.1470   -2.1735    1.5108 N   0  0  0  0  0  0  0  0  0  0  0  0
    6.3364   -1.8602    2.9314 C   0  0  0  0  0  0  0  0  0  0  0  0
    7.3209   -2.9239    1.0120 C   0  0  0  0  0  0  0  0  0  0  0  0
    4.5432   -0.3080    0.9998 C   0  0  0  0  0  0  0  0  0  0  0  0
    4.4322    0.1982    2.3228 O   0  0  0  0  0  0  0  0  0  0  0  0
    0.6426    0.7560   -0.2912 C   0  0  0  0  0  0  0  0  0  0  0  0
    1.4965    1.2813   -1.4841 C   0  0  0  0  0  0  0  0  0  0  0  0
    4.1465   10.0900    0.7254 H   0  0  0  0  0  0  0  0  0  0  0  0
    0.7020    8.2991   -1.1372 H   0  0  0  0  0  0  0  0  0  0  0  0
    0.1301    8.9590    0.5072 H   0  0  0  0  0  0  0  0  0  0  0  0
    1.2862    7.0510    1.6996 H   0  0  0  0  0  0  0  0  0  0  0  0
    0.1255    6.4746    0.4993 H   0  0  0  0  0  0  0  0  0  0  0  0
    2.0399    6.2095   -1.2122 H   0  0  0  0  0  0  0  0  0  0  0  0
    3.2121    6.6886    0.0262 H   0  0  0  0  0  0  0  0  0  0  0  0
    3.0487    4.5249    1.0125 H   0  0  0  0  0  0  0  0  0  0  0  0
   -0.2463    1.3078    1.5333 H   0  0  0  0  0  0  0  0  0  0  0  0
   -1.3270    2.6016   -0.9493 H   0  0  0  0  0  0  0  0  0  0  0  0
   -1.3560    3.8568    1.6309 H   0  0  0  0  0  0  0  0  0  0  0  0
   -2.7609    2.8078    1.7378 H   0  0  0  0  0  0  0  0  0  0  0  0
   -2.6684    4.0356    0.4024 H   0  0  0  0  0  0  0  0  0  0  0  0
   -4.1953    0.2843   -2.5558 H   0  0  0  0  0  0  0  0  0  0  0  0
   -3.8119    2.6679   -1.5550 H   0  0  0  0  0  0  0  0  0  0  0  0
   -4.9753    2.2145   -0.2674 H   0  0  0  0  0  0  0  0  0  0  0  0
   -5.5648    3.3572   -2.8003 H   0  0  0  0  0  0  0  0  0  0  0  0
   -6.7406    2.6558   -1.6757 H   0  0  0  0  0  0  0  0  0  0  0  0
   -6.0815    1.6648   -3.0170 H   0  0  0  0  0  0  0  0  0  0  0  0
   -7.1616    0.4408   -1.1178 H   0  0  0  0  0  0  0  0  0  0  0  0
   -6.4954   -0.4987   -2.5199 H   0  0  0  0  0  0  0  0  0  0  0  0
   -7.1669   -1.4029   -1.1136 H   0  0  0  0  0  0  0  0  0  0  0  0
   -6.1412   -0.2614    0.9591 H   0  0  0  0  0  0  0  0  0  0  0  0
   -3.5709   -1.8229   -1.2690 H   0  0  0  0  0  0  0  0  0  0  0  0
   -5.0113   -2.1489   -2.8876 H   0  0  0  0  0  0  0  0  0  0  0  0
   -4.6902   -2.2013    1.2060 H   0  0  0  0  0  0  0  0  0  0  0  0
   -6.7621   -2.9914    1.1419 H   0  0  0  0  0  0  0  0  0  0  0  0
   -5.9546   -4.6187    0.9264 H   0  0  0  0  0  0  0  0  0  0  0  0
   -6.5798   -3.7224   -0.5722 H   0  0  0  0  0  0  0  0  0  0  0  0
   -4.4650   -5.7075   -0.1530 H   0  0  0  0  0  0  0  0  0  0  0  0
   -3.7231   -4.6771   -1.4388 H   0  0  0  0  0  0  0  0  0  0  0  0
   -2.6995   -5.6203   -0.3073 H   0  0  0  0  0  0  0  0  0  0  0  0
   -2.0683   -3.2204   -0.7014 H   0  0  0  0  0  0  0  0  0  0  0  0
   -2.4703   -2.1657    0.7600 H   0  0  0  0  0  0  0  0  0  0  0  0
   -0.7478   -4.6450    0.4890 H   0  0  0  0  0  0  0  0  0  0  0  0
   -2.1705   -3.4190    2.9283 H   0  0  0  0  0  0  0  0  0  0  0  0
   -0.5882   -4.2144    3.1422 H   0  0  0  0  0  0  0  0  0  0  0  0
   -1.9727   -5.1740    2.4848 H   0  0  0  0  0  0  0  0  0  0  0  0
    0.9596   -3.2463    1.4483 H   0  0  0  0  0  0  0  0  0  0  0  0
   -0.2153   -2.0040    1.9405 H   0  0  0  0  0  0  0  0  0  0  0  0
    0.3999   -3.0768   -2.0514 H   0  0  0  0  0  0  0  0  0  0  0  0
    1.8514   -2.1041   -1.7848 H   0  0  0  0  0  0  0  0  0  0  0  0
    1.5869   -3.6249   -0.7976 H   0  0  0  0  0  0  0  0  0  0  0  0
   -0.8160   -1.3608   -1.7294 H   0  0  0  0  0  0  0  0  0  0  0  0
    1.1720   -0.4506    1.3852 H   0  0  0  0  0  0  0  0  0  0  0  0
    2.9999   -1.6996    1.5828 H   0  0  0  0  0  0  0  0  0  0  0  0
    4.0849   -1.2974   -1.8907 H   0  0  0  0  0  0  0  0  0  0  0  0
    4.8444   -4.1306   -1.5419 H   0  0  0  0  0  0  0  0  0  0  0  0
    6.1329   -3.1933   -2.4394 H   0  0  0  0  0  0  0  0  0  0  0  0
    4.4238   -3.1897   -3.0143 H   0  0  0  0  0  0  0  0  0  0  0  0
    6.9039   -1.5817   -1.1271 H   0  0  0  0  0  0  0  0  0  0  0  0
    5.9594   -0.1853   -1.3286 H   0  0  0  0  0  0  0  0  0  0  0  0
    6.7273   -0.1381    0.9519 H   0  0  0  0  0  0  0  0  0  0  0  0
    6.9968   -0.9733    3.0931 H   0  0  0  0  0  0  0  0  0  0  0  0
    5.3479   -1.6931    3.4517 H   0  0  0  0  0  0  0  0  0  0  0  0
    6.7778   -2.7247    3.4790 H   0  0  0  0  0  0  0  0  0  0  0  0
    7.0448   -3.4643    0.0998 H   0  0  0  0  0  0  0  0  0  0  0  0
    8.2076   -2.2413    0.8586 H   0  0  0  0  0  0  0  0  0  0  0  0
    7.5730   -3.7660    1.7262 H   0  0  0  0  0  0  0  0  0  0  0  0
    4.4604    0.5863    0.3165 H   0  0  0  0  0  0  0  0  0  0  0  0
    3.8999    1.0482    2.2820 H   0  0  0  0  0  0  0  0  0  0  0  0
   -0.2389    0.5408   -0.9838 H   0  0  0  0  0  0  0  0  0  0  0  0
    1.7332    0.3764   -2.1127 H   0  0  0  0  0  0  0  0  0  0  0  0
    0.9116    1.9748   -2.1743 H   0  0  0  0  0  0  0  0  0  0  0  0
    2.4149    1.7118   -1.0646 H   0  0  0  0  0  0  0  0  0  0  0  0
  1  2  3  0
  2  3  1  0
  3  4  1  0
  4  5  1  0
  5  6  1  0
  6  7  1  0
  7  8  2  0
  7  9  1  0
  9 10  1  0
 10 11  1  0
 11 12  1  0
 11 13  1  0
 13 14  2  0
 13 15  1  0
 15 16  1  0
 16 17  1  0
 17 18  1  0
 16 19  1  0
 19 20  1  0
 19 21  1  0
 19 22  1  0
 22 23  1  0
 22 24  1  0
 24 25  1  0
 24 26  1  0
 26 27  1  0
 26 28  1  0
 28 29  1  0
 29 30  1  0
 29 31  1  0
 31 32  1  0
 32 33  1  0
 32 34  1  0
 32 35  1  0
 35 36  1  0
 36 37  1  0
 37 38  1  0
 38 39  1  0
 39 40  1  0
 39 41  1  0
 41 42  1  0
 42 43  1  0
 43 44  1  0
 43 45  1  0
 42 46  1  0
 46 47  1  0
 35 48  1  0
 48 49  1  0
 48 10  1  0
 46 37  1  0
  1 50  1  0
  3 51  1  0
  3 52  1  0
  4 53  1  0
  4 54  1  0
  5 55  1  0
  5 56  1  0
  6 57  1  0
 10 58  1  0
 11 59  1  0
 12 60  1  0
 12 61  1  0
 12 62  1  0
 16 63  1  0
 17 64  1  0
 17 65  1  0
 18 66  1  0
 18 67  1  0
 18 68  1  0
 20 69  1  0
 20 70  1  0
 20 71  1  0
 21 72  1  0
 22 73  1  0
 23 74  1  0
 24 75  1  0
 25 76  1  0
 25 77  1  0
 25 78  1  0
 27 79  1  0
 27 80  1  0
 27 81  1  0
 28 82  1  0
 28 83  1  0
 29 84  1  0
 30 85  1  0
 30 86  1  0
 30 87  1  0
 31 88  1  0
 31 89  1  0
 33 90  1  0
 33 91  1  0
 33 92  1  0
 34 93  1  0
 35 94  1  0
 37 95  1  0
 39 96  1  0
 40 97  1  0
 40 98  1  0
 40 99  1  0
 41100  1  0
 41101  1  0
 42102  1  0
 44103  1  0
 44104  1  0
 44105  1  0
 45106  1  0
 45107  1  0
 45108  1  0
 46109  1  0
 47110  1  0
 48111  1  0
 49112  1  0
 49113  1  0
 49114  1  0
M  END
$$$$
