
     RDKit          3D

 73 75  0  0  0  0  0  0  0  0999 V2000
   -4.9046   -3.4463    1.4937 C   0  0  0  0  0  0  0  0  0  0  0  0
   -4.3804   -2.6066    0.3158 C   0  0  0  0  0  0  0  0  0  0  0  0
   -3.9190   -3.5309   -0.8174 C   0  0  0  0  0  0  0  0  0  0  0  0
   -3.2669   -1.5977    0.7184 C   0  0  0  0  0  0  0  0  0  0  0  0
   -2.1367   -2.2711    1.3782 N   0  0  0  0  0  0  0  0  0  0  0  0
   -0.7986   -2.3825    0.8559 C   0  0  0  0  0  0  0  0  0  0  0  0
    0.1283   -2.7031    1.6471 O   0  0  0  0  0  0  0  0  0  0  0  0
   -0.4622   -2.2304   -0.6066 C   0  0  0  0  0  0  0  0  0  0  0  0
   -0.1162   -0.7966   -1.0580 C   0  0  0  0  0  0  0  0  0  0  0  0
    1.0815   -0.1085   -0.3592 C   0  0  0  0  0  0  0  0  0  0  0  0
    2.2683   -1.0272   -0.1988 C   0  0  0  0  0  0  0  0  0  0  0  0
    2.6869   -1.3296    0.9524 O   0  0  0  0  0  0  0  0  0  0  0  0
    2.9298   -1.5444   -1.3633 N   0  0  0  0  0  0  0  0  0  0  0  0
    4.1797   -2.3007   -1.2918 C   0  0  0  0  0  0  0  0  0  0  0  0
    5.3753   -1.4046   -1.6292 C   0  0  0  0  0  0  0  0  0  0  0  0
    5.4767   -0.2347   -0.6844 C   0  0  0  0  0  0  0  0  0  0  0  0
    5.0159    1.0354   -1.0727 C   0  0  0  0  0  0  0  0  0  0  0  0
    5.0809    2.1106   -0.1817 C   0  0  0  0  0  0  0  0  0  0  0  0
    5.5890    1.9237    1.1070 C   0  0  0  0  0  0  0  0  0  0  0  0
    5.6435    2.9671    1.9716 F   0  0  0  0  0  0  0  0  0  0  0  0
    6.0389    0.6605    1.5046 C   0  0  0  0  0  0  0  0  0  0  0  0
    5.9840   -0.4159    0.6131 C   0  0  0  0  0  0  0  0  0  0  0  0
    0.6780    0.4785    0.9282 N   0  0  0  0  0  0  0  0  0  0  0  0
    0.4593    1.8839    1.1407 C   0  0  0  0  0  0  0  0  0  0  0  0
    0.2560    2.3053    2.3108 O   0  0  0  0  0  0  0  0  0  0  0  0
    0.5076    2.8564    0.0369 C   0  0  0  0  0  0  0  0  0  0  0  0
    1.6879    3.6025   -0.1053 C   0  0  0  0  0  0  0  0  0  0  0  0
    1.8662    4.4503   -1.1988 C   0  0  0  0  0  0  0  0  0  0  0  0
    0.8672    4.5628   -2.1634 C   0  0  0  0  0  0  0  0  0  0  0  0
   -0.3205    3.8413   -2.0266 C   0  0  0  0  0  0  0  0  0  0  0  0
   -0.5331    3.0034   -0.9230 C   0  0  0  0  0  0  0  0  0  0  0  0
   -1.7837    2.3627   -0.8552 O   0  0  0  0  0  0  0  0  0  0  0  0
   -2.4305    1.8928    0.3248 C   0  0  0  0  0  0  0  0  0  0  0  0
   -3.8367    1.4071   -0.0244 C   0  0  0  0  0  0  0  0  0  0  0  0
   -4.4271    0.6893    1.1160 N   0  0  0  0  0  0  0  0  0  0  0  0
   -5.5721    1.2639    1.8303 C   0  0  0  0  0  0  0  0  0  0  0  0
   -3.8358   -0.5237    1.6330 C   0  0  0  0  0  0  0  0  0  0  0  0
   -3.8572   -0.7285    2.8773 O   0  0  0  0  0  0  0  0  0  0  0  0
   -4.1090   -4.1049    1.9017 H   0  0  0  0  0  0  0  0  0  0  0  0
   -5.2918   -2.7950    2.3031 H   0  0  0  0  0  0  0  0  0  0  0  0
   -5.7451   -4.0896    1.1550 H   0  0  0  0  0  0  0  0  0  0  0  0
   -5.2402   -2.0203   -0.0808 H   0  0  0  0  0  0  0  0  0  0  0  0
   -3.6270   -2.9321   -1.7058 H   0  0  0  0  0  0  0  0  0  0  0  0
   -3.0588   -4.1547   -0.4929 H   0  0  0  0  0  0  0  0  0  0  0  0
   -4.7478   -4.2040   -1.1230 H   0  0  0  0  0  0  0  0  0  0  0  0
   -2.9072   -1.1180   -0.2065 H   0  0  0  0  0  0  0  0  0  0  0  0
   -2.2899   -2.6558    2.3386 H   0  0  0  0  0  0  0  0  0  0  0  0
   -1.3067   -2.5982   -1.2199 H   0  0  0  0  0  0  0  0  0  0  0  0
    0.3907   -2.9003   -0.8504 H   0  0  0  0  0  0  0  0  0  0  0  0
    0.1138   -0.8496   -2.1446 H   0  0  0  0  0  0  0  0  0  0  0  0
   -1.0098   -0.1541   -0.9871 H   0  0  0  0  0  0  0  0  0  0  0  0
    1.4255    0.7033   -1.0349 H   0  0  0  0  0  0  0  0  0  0  0  0
    2.5906   -1.2526   -2.3070 H   0  0  0  0  0  0  0  0  0  0  0  0
    4.3143   -2.7576   -0.2876 H   0  0  0  0  0  0  0  0  0  0  0  0
    4.1367   -3.1323   -2.0272 H   0  0  0  0  0  0  0  0  0  0  0  0
    6.3073   -2.0076   -1.5710 H   0  0  0  0  0  0  0  0  0  0  0  0
    5.2842   -1.0501   -2.6793 H   0  0  0  0  0  0  0  0  0  0  0  0
    4.6048    1.1926   -2.0622 H   0  0  0  0  0  0  0  0  0  0  0  0
    4.7365    3.0886   -0.4915 H   0  0  0  0  0  0  0  0  0  0  0  0
    6.4292    0.5142    2.5041 H   0  0  0  0  0  0  0  0  0  0  0  0
    6.3281   -1.3914    0.9344 H   0  0  0  0  0  0  0  0  0  0  0  0
    0.5214   -0.1528    1.7450 H   0  0  0  0  0  0  0  0  0  0  0  0
    2.4857    3.5061    0.6212 H   0  0  0  0  0  0  0  0  0  0  0  0
    2.7864    5.0105   -1.3049 H   0  0  0  0  0  0  0  0  0  0  0  0
    1.0101    5.2128   -3.0172 H   0  0  0  0  0  0  0  0  0  0  0  0
   -1.0949    3.9501   -2.7759 H   0  0  0  0  0  0  0  0  0  0  0  0
   -2.4921    2.7103    1.0750 H   0  0  0  0  0  0  0  0  0  0  0  0
   -1.8732    1.0437    0.7538 H   0  0  0  0  0  0  0  0  0  0  0  0
   -4.4507    2.2899   -0.3063 H   0  0  0  0  0  0  0  0  0  0  0  0
   -3.8155    0.7503   -0.9185 H   0  0  0  0  0  0  0  0  0  0  0  0
   -5.2751    1.5292    2.8673 H   0  0  0  0  0  0  0  0  0  0  0  0
   -6.3986    0.5227    1.8644 H   0  0  0  0  0  0  0  0  0  0  0  0
   -5.9513    2.1822    1.3346 H   0  0  0  0  0  0  0  0  0  0  0  0
  1  2  1  0
  2  3  1  0
  2  4  1  0
  4  5  1  0
  5  6  1  0
  6  7  2  0
  6  8  1  0
  8  9  1  0
  9 10  1  0
 10 11  1  0
 11 12  2  0
 11 13  1  0
 13 14  1  0
 14 15  1  0
 15 16  1  0
 16 17  2  0
 17 18  1  0
 18 19  2  0
 19 20  1  0
 19 21  1  0
 21 22  2  0
 10 23  1  0
 23 24  1  0
 24 25  2  0
 24 26  1  0
 26 27  2  0
 27 28  1  0
 28 29  2  0
 29 30  1  0
 30 31  2  0
 31 32  1  0
 32 33  1  0
 33 34  1  0
 34 35  1  0
 35 36  1  0
 35 37  1  0
 37 38  2  0
 37  4  1  0
 22 16  1  0
 31 26  1  0
  1 39  1  0
  1 40  1  0
  1 41  1  0
  2 42  1  0
  3 43  1  0
  3 44  1  0
  3 45  1  0
  4 46  1  0
  5 47  1  0
  8 48  1  0
  8 49  1  0
  9 50  1  0
  9 51  1  0
 10 52  1  0
 13 53  1  0
 14 54  1  0
 14 55  1  0
 15 56  1  0
 15 57  1  0
 17 58  1  0
 18 59  1  0
 21 60  1  0
 22 61  1  0
 23 62  1  0
 27 63  1  0
 28 64  1  0
 29 65  1  0
 30 66  1  0
 33 67  1  0
 33 68  1  0
 34 69  1  0
 34 70  1  0
 36 71  1  0
 36 72  1  0
 36 73  1  0
M  END
$$$$
