
     RDKit          3D

 89 92  0  0  0  0  0  0  0  0999 V2000
   -4.6286    1.0816    2.1619 C   0  0  0  0  0  0  0  0  0  0  0  0
   -4.2623    1.4854    0.7277 C   0  0  0  0  0  0  0  0  0  0  0  0
   -3.8393    2.9657    0.6649 C   0  0  0  0  0  0  0  0  0  0  0  0
   -5.3600    1.1226   -0.2221 N   0  0  0  0  0  0  0  0  0  0  0  0
   -6.5017    2.0718   -0.1739 C   0  0  0  0  0  0  0  0  0  0  0  0
   -7.7256    1.5285   -0.8657 C   0  0  0  0  0  0  0  0  0  0  0  0
   -8.1086    2.0740   -1.9353 O   0  0  0  0  0  0  0  0  0  0  0  0
   -8.4731    0.4189   -0.3469 N   0  0  0  0  0  0  0  0  0  0  0  0
   -8.0798   -0.3429    0.8392 C   0  0  0  0  0  0  0  0  0  0  0  0
   -8.6585   -1.7641    0.8022 C   0  0  0  0  0  0  0  0  0  0  0  0
   -8.2050   -2.5719   -0.4343 C   0  0  0  0  0  0  0  0  0  0  0  0
   -7.0076   -3.5019   -0.1757 C   0  0  0  0  0  0  0  0  0  0  0  0
   -5.6828   -2.7797    0.0843 C   0  0  0  0  0  0  0  0  0  0  0  0
   -5.4018   -1.8397   -0.9589 O   0  0  0  0  0  0  0  0  0  0  0  0
   -4.1091   -1.4852   -1.3801 C   0  0  0  0  0  0  0  0  0  0  0  0
   -3.0901   -2.4500   -1.4933 C   0  0  0  0  0  0  0  0  0  0  0  0
   -1.8090   -2.0865   -1.9110 C   0  0  0  0  0  0  0  0  0  0  0  0
   -1.5224   -0.7565   -2.2401 C   0  0  0  0  0  0  0  0  0  0  0  0
   -0.1253   -0.3592   -2.6372 C   0  0  0  0  0  0  0  0  0  0  0  0
    0.7344   -0.1019   -1.3910 C   0  0  0  0  0  0  0  0  0  0  0  0
    2.1412    0.3423   -1.7220 C   0  0  0  0  0  0  0  0  0  0  0  0
    2.5358    0.2983   -2.9217 O   0  0  0  0  0  0  0  0  0  0  0  0
    3.0517    0.8037   -0.6962 N   0  0  0  0  0  0  0  0  0  0  0  0
    4.3045    1.4546   -1.1174 C   0  0  0  0  0  0  0  0  0  0  0  0
    5.1899    1.8306    0.0767 C   0  0  0  0  0  0  0  0  0  0  0  0
    5.2698    0.6454    1.0559 C   0  0  0  0  0  0  0  0  0  0  0  0
    6.2439    0.9283    2.2201 C   0  0  0  0  0  0  0  0  0  0  0  0
    7.6663    1.0631    1.7498 C   0  0  0  0  0  0  0  0  0  0  0  0
    8.3957   -0.0621    1.3451 C   0  0  0  0  0  0  0  0  0  0  0  0
    9.7124    0.1110    0.8814 C   0  0  0  0  0  0  0  0  0  0  0  0
   10.5186   -1.0067    0.4377 N   0  0  0  0  0  0  0  0  0  0  0  0
   11.8966   -0.7597   -0.0025 C   0  0  0  0  0  0  0  0  0  0  0  0
    9.9821   -2.3731    0.4145 C   0  0  0  0  0  0  0  0  0  0  0  0
   10.2325    1.3700    0.8480 N   0  0  0  0  0  0  0  0  0  0  0  0
    9.5126    2.4499    1.2455 C   0  0  0  0  0  0  0  0  0  0  0  0
    8.2398    2.2935    1.6878 N   0  0  0  0  0  0  0  0  0  0  0  0
    3.8657    0.2693    1.5981 C   0  0  0  0  0  0  0  0  0  0  0  0
    2.6978    0.7805    0.7338 C   0  0  0  0  0  0  0  0  0  0  0  0
   -2.5331    0.2088   -2.1423 C   0  0  0  0  0  0  0  0  0  0  0  0
   -3.8295   -0.1452   -1.7283 C   0  0  0  0  0  0  0  0  0  0  0  0
   -4.8847    0.9341   -1.6160 C   0  0  0  0  0  0  0  0  0  0  0  0
   -3.7489    1.2101    2.8280 H   0  0  0  0  0  0  0  0  0  0  0  0
   -5.4563    1.6976    2.5667 H   0  0  0  0  0  0  0  0  0  0  0  0
   -4.9253    0.0129    2.1895 H   0  0  0  0  0  0  0  0  0  0  0  0
   -3.3513    0.8934    0.4987 H   0  0  0  0  0  0  0  0  0  0  0  0
   -4.6329    3.6310    1.0639 H   0  0  0  0  0  0  0  0  0  0  0  0
   -3.6022    3.2619   -0.3764 H   0  0  0  0  0  0  0  0  0  0  0  0
   -2.9258    3.1199    1.2778 H   0  0  0  0  0  0  0  0  0  0  0  0
   -6.2220    3.0406   -0.6456 H   0  0  0  0  0  0  0  0  0  0  0  0
   -6.7926    2.2905    0.8731 H   0  0  0  0  0  0  0  0  0  0  0  0
   -9.3513    0.1526   -0.8492 H   0  0  0  0  0  0  0  0  0  0  0  0
   -8.4484    0.1837    1.7450 H   0  0  0  0  0  0  0  0  0  0  0  0
   -6.9830   -0.4080    0.9122 H   0  0  0  0  0  0  0  0  0  0  0  0
   -9.7674   -1.6837    0.7927 H   0  0  0  0  0  0  0  0  0  0  0  0
   -8.3840   -2.2968    1.7384 H   0  0  0  0  0  0  0  0  0  0  0  0
   -7.9920   -1.9140   -1.3031 H   0  0  0  0  0  0  0  0  0  0  0  0
   -9.0551   -3.2184   -0.7427 H   0  0  0  0  0  0  0  0  0  0  0  0
   -6.8757   -4.1504   -1.0696 H   0  0  0  0  0  0  0  0  0  0  0  0
   -7.2336   -4.1720    0.6822 H   0  0  0  0  0  0  0  0  0  0  0  0
   -4.8945   -3.5542    0.1657 H   0  0  0  0  0  0  0  0  0  0  0  0
   -5.7098   -2.2564    1.0610 H   0  0  0  0  0  0  0  0  0  0  0  0
   -3.2824   -3.4936   -1.2924 H   0  0  0  0  0  0  0  0  0  0  0  0
   -1.0383   -2.8446   -1.9808 H   0  0  0  0  0  0  0  0  0  0  0  0
    0.3306   -1.1704   -3.2472 H   0  0  0  0  0  0  0  0  0  0  0  0
   -0.1558    0.5568   -3.2684 H   0  0  0  0  0  0  0  0  0  0  0  0
    0.2461    0.6878   -0.7787 H   0  0  0  0  0  0  0  0  0  0  0  0
    0.7897   -1.0384   -0.7944 H   0  0  0  0  0  0  0  0  0  0  0  0
    4.8753    0.7573   -1.7702 H   0  0  0  0  0  0  0  0  0  0  0  0
    4.0714    2.3703   -1.7031 H   0  0  0  0  0  0  0  0  0  0  0  0
    4.7721    2.7241    0.5913 H   0  0  0  0  0  0  0  0  0  0  0  0
    6.2002    2.0944   -0.3035 H   0  0  0  0  0  0  0  0  0  0  0  0
    5.6558   -0.2343    0.4909 H   0  0  0  0  0  0  0  0  0  0  0  0
    5.9349    1.8550    2.7519 H   0  0  0  0  0  0  0  0  0  0  0  0
    6.1942    0.0951    2.9558 H   0  0  0  0  0  0  0  0  0  0  0  0
    7.9346   -1.0400    1.3923 H   0  0  0  0  0  0  0  0  0  0  0  0
   11.8959   -0.0504   -0.8569 H   0  0  0  0  0  0  0  0  0  0  0  0
   12.4841   -0.3258    0.8341 H   0  0  0  0  0  0  0  0  0  0  0  0
   12.4013   -1.6918   -0.3316 H   0  0  0  0  0  0  0  0  0  0  0  0
    9.0914   -2.4164   -0.2474 H   0  0  0  0  0  0  0  0  0  0  0  0
    9.7006   -2.6843    1.4427 H   0  0  0  0  0  0  0  0  0  0  0  0
   10.7249   -3.1032    0.0305 H   0  0  0  0  0  0  0  0  0  0  0  0
    9.9531    3.4361    1.2060 H   0  0  0  0  0  0  0  0  0  0  0  0
    3.7191    0.6656    2.6276 H   0  0  0  0  0  0  0  0  0  0  0  0
    3.8009   -0.8389    1.6709 H   0  0  0  0  0  0  0  0  0  0  0  0
    2.4298    1.8122    1.0494 H   0  0  0  0  0  0  0  0  0  0  0  0
    1.8192    0.1373    0.9377 H   0  0  0  0  0  0  0  0  0  0  0  0
   -2.3052    1.2418   -2.3777 H   0  0  0  0  0  0  0  0  0  0  0  0
   -5.7272    0.6146   -2.2656 H   0  0  0  0  0  0  0  0  0  0  0  0
   -4.5176    1.8975   -2.0333 H   0  0  0  0  0  0  0  0  0  0  0  0
  1  2  1  0
  2  3  1  0
  2  4  1  0
  4  5  1  0
  5  6  1  0
  6  7  2  0
  6  8  1  0
  8  9  1  0
  9 10  1  0
 10 11  1  0
 11 12  1  0
 12 13  1  0
 13 14  1  0
 14 15  1  0
 15 16  2  0
 16 17  1  0
 17 18  2  0
 18 19  1  0
 19 20  1  0
 20 21  1  0
 21 22  2  0
 21 23  1  0
 23 24  1  0
 24 25  1  0
 25 26  1  0
 26 27  1  0
 27 28  1  0
 28 29  2  0
 29 30  1  0
 30 31  1  0
 31 32  1  0
 31 33  1  0
 30 34  2  0
 34 35  1  0
 35 36  2  0
 26 37  1  0
 37 38  1  0
 18 39  1  0
 39 40  2  0
 40 41  1  0
 41  4  1  0
 40 15  1  0
 38 23  1  0
 36 28  1  0
  1 42  1  0
  1 43  1  0
  1 44  1  0
  2 45  1  0
  3 46  1  0
  3 47  1  0
  3 48  1  0
  5 49  1  0
  5 50  1  0
  8 51  1  0
  9 52  1  0
  9 53  1  0
 10 54  1  0
 10 55  1  0
 11 56  1  0
 11 57  1  0
 12 58  1  0
 12 59  1  0
 13 60  1  0
 13 61  1  0
 16 62  1  0
 17 63  1  0
 19 64  1  0
 19 65  1  0
 20 66  1  0
 20 67  1  0
 24 68  1  0
 24 69  1  0
 25 70  1  0
 25 71  1  0
 26 72  1  0
 27 73  1  0
 27 74  1  0
 29 75  1  0
 32 76  1  0
 32 77  1  0
 32 78  1  0
 33 79  1  0
 33 80  1  0
 33 81  1  0
 35 82  1  0
 37 83  1  0
 37 84  1  0
 38 85  1  0
 38 86  1  0
 39 87  1  0
 41 88  1  0
 41 89  1  0
M  END
$$$$
