
     RDKit          3D

 78 81  0  0  0  0  0  0  0  0999 V2000
   -0.6725   -0.5182   -3.8230 C   0  0  0  0  0  0  0  0  0  0  0  0
   -0.7952   -1.5381   -2.7742 N   0  0  0  0  0  0  0  0  0  0  0  0
   -1.9944   -2.3883   -2.7523 C   0  0  0  0  0  0  0  0  0  0  0  0
   -3.2420   -1.5584   -2.5902 C   0  0  0  0  0  0  0  0  0  0  0  0
   -4.1155   -1.6032   -3.4982 O   0  0  0  0  0  0  0  0  0  0  0  0
   -3.4282   -0.6718   -1.4652 N   0  0  0  0  0  0  0  0  0  0  0  0
   -4.0609    0.6285   -1.7312 C   0  0  0  0  0  0  0  0  0  0  0  0
   -3.1120   -1.1300   -0.0909 C   0  0  0  0  0  0  0  0  0  0  0  0
   -4.3036   -1.8780    0.5474 C   0  0  0  0  0  0  0  0  0  0  0  0
   -5.5727   -1.0643    0.6155 C   0  0  0  0  0  0  0  0  0  0  0  0
   -6.4959   -1.1034   -0.4428 C   0  0  0  0  0  0  0  0  0  0  0  0
   -7.6664   -0.3406   -0.3853 C   0  0  0  0  0  0  0  0  0  0  0  0
   -7.9308    0.4553    0.7328 C   0  0  0  0  0  0  0  0  0  0  0  0
   -7.0248    0.4904    1.7952 C   0  0  0  0  0  0  0  0  0  0  0  0
   -5.8499   -0.2670    1.7393 C   0  0  0  0  0  0  0  0  0  0  0  0
   -2.5541   -0.0107    0.8111 C   0  0  0  0  0  0  0  0  0  0  0  0
   -1.5129    0.6807    0.1261 O   0  0  0  0  0  0  0  0  0  0  0  0
   -0.9809    1.8947    0.5721 C   0  0  0  0  0  0  0  0  0  0  0  0
   -1.0779    3.0037   -0.2778 C   0  0  0  0  0  0  0  0  0  0  0  0
   -0.6007    4.2515    0.1272 C   0  0  0  0  0  0  0  0  0  0  0  0
   -0.0128    4.3999    1.3849 C   0  0  0  0  0  0  0  0  0  0  0  0
    0.1172    3.2972    2.2311 C   0  0  0  0  0  0  0  0  0  0  0  0
   -0.3429    2.0330    1.8289 C   0  0  0  0  0  0  0  0  0  0  0  0
   -0.0867    0.8813    2.7172 C   0  0  0  0  0  0  0  0  0  0  0  0
   -0.6178    0.8724    3.8596 O   0  0  0  0  0  0  0  0  0  0  0  0
    0.7818   -0.2039    2.3427 N   0  0  0  0  0  0  0  0  0  0  0  0
    1.5548   -0.2548    1.0949 C   0  0  0  0  0  0  0  0  0  0  0  0
    3.0155   -0.4891    1.3876 C   0  0  0  0  0  0  0  0  0  0  0  0
    3.3549   -1.2401    2.3427 O   0  0  0  0  0  0  0  0  0  0  0  0
    4.0177    0.0859    0.5384 N   0  0  0  0  0  0  0  0  0  0  0  0
    5.4411   -0.1710    0.7531 C   0  0  0  0  0  0  0  0  0  0  0  0
    6.2872    0.5143   -0.3233 C   0  0  0  0  0  0  0  0  0  0  0  0
    7.7437    0.2082   -0.1301 C   0  0  0  0  0  0  0  0  0  0  0  0
    8.5216    0.9367    0.7821 C   0  0  0  0  0  0  0  0  0  0  0  0
    9.8345    0.6231    0.9414 N   0  0  0  0  0  0  0  0  0  0  0  0
   10.4077   -0.3869    0.2355 C   0  0  0  0  0  0  0  0  0  0  0  0
    9.6336   -1.1203   -0.6660 C   0  0  0  0  0  0  0  0  0  0  0  0
    8.3204   -0.8084   -0.8265 N   0  0  0  0  0  0  0  0  0  0  0  0
    0.9984   -1.3736    0.1924 C   0  0  0  0  0  0  0  0  0  0  0  0
    1.2436   -1.0977   -1.2959 C   0  0  0  0  0  0  0  0  0  0  0  0
    0.4050   -2.0145   -2.1400 C   0  0  0  0  0  0  0  0  0  0  0  0
    0.7326   -3.2273   -2.2467 O   0  0  0  0  0  0  0  0  0  0  0  0
    0.1843    0.1599   -3.6314 H   0  0  0  0  0  0  0  0  0  0  0  0
   -1.5885    0.1039   -3.8719 H   0  0  0  0  0  0  0  0  0  0  0  0
   -0.5173   -1.0129   -4.8044 H   0  0  0  0  0  0  0  0  0  0  0  0
   -1.9397   -3.1345   -1.9304 H   0  0  0  0  0  0  0  0  0  0  0  0
   -2.0457   -2.9667   -3.7015 H   0  0  0  0  0  0  0  0  0  0  0  0
   -3.3558    1.2723   -2.2983 H   0  0  0  0  0  0  0  0  0  0  0  0
   -4.9861    0.4931   -2.3313 H   0  0  0  0  0  0  0  0  0  0  0  0
   -4.3541    1.1532   -0.8013 H   0  0  0  0  0  0  0  0  0  0  0  0
   -2.2938   -1.8741   -0.1421 H   0  0  0  0  0  0  0  0  0  0  0  0
   -4.4958   -2.8041   -0.0378 H   0  0  0  0  0  0  0  0  0  0  0  0
   -4.0241   -2.2178    1.5698 H   0  0  0  0  0  0  0  0  0  0  0  0
   -6.3048   -1.7196   -1.3134 H   0  0  0  0  0  0  0  0  0  0  0  0
   -8.3702   -0.3703   -1.2053 H   0  0  0  0  0  0  0  0  0  0  0  0
   -8.8391    1.0413    0.7786 H   0  0  0  0  0  0  0  0  0  0  0  0
   -7.2329    1.1039    2.6636 H   0  0  0  0  0  0  0  0  0  0  0  0
   -5.1584   -0.2343    2.5725 H   0  0  0  0  0  0  0  0  0  0  0  0
   -2.1554   -0.4670    1.7405 H   0  0  0  0  0  0  0  0  0  0  0  0
   -3.3451    0.7078    1.1056 H   0  0  0  0  0  0  0  0  0  0  0  0
   -1.5445    2.9011   -1.2501 H   0  0  0  0  0  0  0  0  0  0  0  0
   -0.6878    5.1054   -0.5322 H   0  0  0  0  0  0  0  0  0  0  0  0
    0.3565    5.3685    1.6971 H   0  0  0  0  0  0  0  0  0  0  0  0
    0.6055    3.4235    3.1913 H   0  0  0  0  0  0  0  0  0  0  0  0
    0.8269   -1.0279    2.9856 H   0  0  0  0  0  0  0  0  0  0  0  0
    1.4764    0.7208    0.5742 H   0  0  0  0  0  0  0  0  0  0  0  0
    3.7158    0.6809   -0.2675 H   0  0  0  0  0  0  0  0  0  0  0  0
    5.7331    0.2099    1.7557 H   0  0  0  0  0  0  0  0  0  0  0  0
    5.6229   -1.2681    0.7214 H   0  0  0  0  0  0  0  0  0  0  0  0
    6.1285    1.6143   -0.2822 H   0  0  0  0  0  0  0  0  0  0  0  0
    5.9656    0.1607   -1.3279 H   0  0  0  0  0  0  0  0  0  0  0  0
    8.0893    1.7443    1.3601 H   0  0  0  0  0  0  0  0  0  0  0  0
   11.4538   -0.6222    0.3789 H   0  0  0  0  0  0  0  0  0  0  0  0
   10.0714   -1.9346   -1.2297 H   0  0  0  0  0  0  0  0  0  0  0  0
    1.4392   -2.3569    0.4703 H   0  0  0  0  0  0  0  0  0  0  0  0
   -0.0923   -1.4595    0.3621 H   0  0  0  0  0  0  0  0  0  0  0  0
    2.3182   -1.2484   -1.5353 H   0  0  0  0  0  0  0  0  0  0  0  0
    0.9838   -0.0434   -1.5251 H   0  0  0  0  0  0  0  0  0  0  0  0
  1  2  1  0
  2  3  1  0
  3  4  1  0
  4  5  2  0
  4  6  1  0
  6  7  1  0
  6  8  1  0
  8  9  1  0
  9 10  1  0
 10 11  2  0
 11 12  1  0
 12 13  2  0
 13 14  1  0
 14 15  2  0
  8 16  1  0
 16 17  1  0
 17 18  1  0
 18 19  2  0
 19 20  1  0
 20 21  2  0
 21 22  1  0
 22 23  2  0
 23 24  1  0
 24 25  2  0
 24 26  1  0
 26 27  1  0
 27 28  1  0
 28 29  2  0
 28 30  1  0
 30 31  1  0
 31 32  1  0
 32 33  1  0
 33 34  2  0
 34 35  1  0
 35 36  2  0
 36 37  1  0
 37 38  2  0
 27 39  1  0
 39 40  1  0
 40 41  1  0
 41 42  2  0
 41  2  1  0
 15 10  1  0
 23 18  1  0
 38 33  1  0
  1 43  1  0
  1 44  1  0
  1 45  1  0
  3 46  1  0
  3 47  1  0
  7 48  1  0
  7 49  1  0
  7 50  1  0
  8 51  1  0
  9 52  1  0
  9 53  1  0
 11 54  1  0
 12 55  1  0
 13 56  1  0
 14 57  1  0
 15 58  1  0
 16 59  1  0
 16 60  1  0
 19 61  1  0
 20 62  1  0
 21 63  1  0
 22 64  1  0
 26 65  1  0
 27 66  1  0
 30 67  1  0
 31 68  1  0
 31 69  1  0
 32 70  1  0
 32 71  1  0
 34 72  1  0
 36 73  1  0
 37 74  1  0
 39 75  1  0
 39 76  1  0
 40 77  1  0
 40 78  1  0
M  END
$$$$
