
     RDKit          3D

 79 83  0  0  0  0  0  0  0  0999 V2000
   10.0075    1.4963   -0.1456 C   0  0  0  0  0  0  0  0  0  0  0  0
    9.5854    1.1121    1.2703 C   0  0  0  0  0  0  0  0  0  0  0  0
    8.2738    0.4512    1.2426 N   0  0  0  0  0  0  0  0  0  0  0  0
    8.0207   -0.8816    1.2460 C   0  0  0  0  0  0  0  0  0  0  0  0
    8.9153   -1.7549    1.3403 O   0  0  0  0  0  0  0  0  0  0  0  0
    6.7011   -1.1694    1.1380 N   0  0  0  0  0  0  0  0  0  0  0  0
    6.0756   -2.4892    1.1293 C   0  0  0  0  0  0  0  0  0  0  0  0
    5.6079   -2.8501    2.5321 C   0  0  0  0  0  0  0  0  0  0  0  0
    6.0989    0.0344    1.0869 C   0  0  0  0  0  0  0  0  0  0  0  0
    4.7369    0.3270    0.9637 C   0  0  0  0  0  0  0  0  0  0  0  0
    4.3623    1.6823    0.8522 C   0  0  0  0  0  0  0  0  0  0  0  0
    2.9959    2.0260    0.6022 N   0  0  0  0  0  0  0  0  0  0  0  0
    1.9186    1.5377    1.4021 C   0  0  0  0  0  0  0  0  0  0  0  0
    2.1317    1.1817    2.5912 O   0  0  0  0  0  0  0  0  0  0  0  0
    0.5620    1.3381    0.7911 C   0  0  0  0  0  0  0  0  0  0  0  0
    0.5142   -0.0002    0.1651 N   0  0  0  0  0  0  0  0  0  0  0  0
    0.2393   -1.0876    1.1299 C   0  0  0  0  0  0  0  0  0  0  0  0
   -1.2190   -1.5699    1.0724 C   0  0  0  0  0  0  0  0  0  0  0  0
   -2.0924   -0.5185    0.6898 O   0  0  0  0  0  0  0  0  0  0  0  0
   -1.9043   -0.1455   -0.6749 C   0  0  0  0  0  0  0  0  0  0  0  0
   -2.5813   -1.2013   -1.6376 C   0  0  0  0  0  0  0  0  0  0  0  0
   -3.7836   -2.0170   -1.0744 C   0  0  0  0  0  0  0  0  0  0  0  0
   -5.0609   -1.1961   -1.0339 C   0  0  0  0  0  0  0  0  0  0  0  0
   -6.3496   -2.0036   -1.0490 C   0  0  0  0  0  0  0  0  0  0  0  0
   -7.6062   -1.1749   -1.3011 C   0  0  0  0  0  0  0  0  0  0  0  0
   -8.7453   -1.8936   -1.7077 C   0  0  0  0  0  0  0  0  0  0  0  0
   -9.9268   -1.2372   -2.0565 C   0  0  0  0  0  0  0  0  0  0  0  0
   -9.9968    0.1513   -1.9903 C   0  0  0  0  0  0  0  0  0  0  0  0
   -8.8939    0.8881   -1.5569 C   0  0  0  0  0  0  0  0  0  0  0  0
   -7.6877    0.2442   -1.2017 C   0  0  0  0  0  0  0  0  0  0  0  0
   -6.5872    1.0193   -0.7903 O   0  0  0  0  0  0  0  0  0  0  0  0
   -6.1387    2.1548   -1.5305 C   0  0  0  0  0  0  0  0  0  0  0  0
   -4.6933    2.5744   -1.1677 C   0  0  0  0  0  0  0  0  0  0  0  0
   -3.9268    1.4943   -0.5341 N   0  0  0  0  0  0  0  0  0  0  0  0
   -2.5454    1.2522   -0.8448 C   0  0  0  0  0  0  0  0  0  0  0  0
   -1.8228    2.2630   -1.1200 O   0  0  0  0  0  0  0  0  0  0  0  0
   -0.3563   -0.0644   -1.0287 C   0  0  0  0  0  0  0  0  0  0  0  0
    5.3530    2.6940    0.8842 C   0  0  0  0  0  0  0  0  0  0  0  0
    6.7130    2.3739    1.0390 C   0  0  0  0  0  0  0  0  0  0  0  0
    7.0515    1.0224    1.1287 C   0  0  0  0  0  0  0  0  0  0  0  0
    9.9727    0.6042   -0.8071 H   0  0  0  0  0  0  0  0  0  0  0  0
   11.0286    1.9311   -0.1307 H   0  0  0  0  0  0  0  0  0  0  0  0
    9.3021    2.2535   -0.5526 H   0  0  0  0  0  0  0  0  0  0  0  0
    9.5261    2.0252    1.9010 H   0  0  0  0  0  0  0  0  0  0  0  0
   10.3529    0.4407    1.7187 H   0  0  0  0  0  0  0  0  0  0  0  0
    5.2093   -2.4997    0.4405 H   0  0  0  0  0  0  0  0  0  0  0  0
    6.8004   -3.2513    0.7730 H   0  0  0  0  0  0  0  0  0  0  0  0
    6.4807   -2.8999    3.2110 H   0  0  0  0  0  0  0  0  0  0  0  0
    4.8874   -2.0937    2.9052 H   0  0  0  0  0  0  0  0  0  0  0  0
    5.1006   -3.8365    2.5185 H   0  0  0  0  0  0  0  0  0  0  0  0
    3.9832   -0.4574    0.9158 H   0  0  0  0  0  0  0  0  0  0  0  0
    2.7850    2.7370   -0.1348 H   0  0  0  0  0  0  0  0  0  0  0  0
   -0.2301    1.4560    1.5584 H   0  0  0  0  0  0  0  0  0  0  0  0
    0.4182    2.1547    0.0514 H   0  0  0  0  0  0  0  0  0  0  0  0
    0.4877   -0.7760    2.1679 H   0  0  0  0  0  0  0  0  0  0  0  0
    0.9039   -1.9481    0.8893 H   0  0  0  0  0  0  0  0  0  0  0  0
   -1.5150   -1.9329    2.0819 H   0  0  0  0  0  0  0  0  0  0  0  0
   -1.2946   -2.4375    0.3744 H   0  0  0  0  0  0  0  0  0  0  0  0
   -2.8429   -0.7432   -2.6149 H   0  0  0  0  0  0  0  0  0  0  0  0
   -1.8352   -1.9828   -1.9264 H   0  0  0  0  0  0  0  0  0  0  0  0
   -3.9284   -2.8833   -1.7483 H   0  0  0  0  0  0  0  0  0  0  0  0
   -3.5666   -2.4334   -0.0702 H   0  0  0  0  0  0  0  0  0  0  0  0
   -5.0610   -0.6626   -0.0728 H   0  0  0  0  0  0  0  0  0  0  0  0
   -5.0645   -0.5302   -1.9267 H   0  0  0  0  0  0  0  0  0  0  0  0
   -6.2660   -2.7481   -1.8627 H   0  0  0  0  0  0  0  0  0  0  0  0
   -6.4522   -2.5631   -0.0896 H   0  0  0  0  0  0  0  0  0  0  0  0
   -8.7056   -2.9722   -1.7711 H   0  0  0  0  0  0  0  0  0  0  0  0
  -10.7780   -1.8107   -2.3961 H   0  0  0  0  0  0  0  0  0  0  0  0
  -10.9134    0.6663   -2.2602 H   0  0  0  0  0  0  0  0  0  0  0  0
   -8.9781    1.9592   -1.4874 H   0  0  0  0  0  0  0  0  0  0  0  0
   -6.1703    1.9098   -2.6222 H   0  0  0  0  0  0  0  0  0  0  0  0
   -6.8341    3.0095   -1.3674 H   0  0  0  0  0  0  0  0  0  0  0  0
   -4.1922    2.8984   -2.1136 H   0  0  0  0  0  0  0  0  0  0  0  0
   -4.7095    3.4565   -0.4895 H   0  0  0  0  0  0  0  0  0  0  0  0
   -4.2267    1.2099    0.4218 H   0  0  0  0  0  0  0  0  0  0  0  0
   -0.0253   -0.9568   -1.6048 H   0  0  0  0  0  0  0  0  0  0  0  0
   -0.1273    0.7645   -1.7397 H   0  0  0  0  0  0  0  0  0  0  0  0
    5.0673    3.7296    0.7910 H   0  0  0  0  0  0  0  0  0  0  0  0
    7.4646    3.1495    1.0695 H   0  0  0  0  0  0  0  0  0  0  0  0
  1  2  1  0
  2  3  1  0
  3  4  1  0
  4  5  2  0
  4  6  1  0
  6  7  1  0
  7  8  1  0
  6  9  1  0
  9 10  2  0
 10 11  1  0
 11 12  1  0
 12 13  1  0
 13 14  2  0
 13 15  1  0
 15 16  1  0
 16 17  1  0
 17 18  1  0
 18 19  1  0
 19 20  1  0
 20 21  1  0
 21 22  1  0
 22 23  1  0
 23 24  1  0
 24 25  1  0
 25 26  2  0
 26 27  1  0
 27 28  2  0
 28 29  1  0
 29 30  2  0
 30 31  1  0
 31 32  1  0
 32 33  1  0
 33 34  1  0
 34 35  1  0
 35 36  2  0
 20 37  1  0
 11 38  2  0
 38 39  1  0
 39 40  2  0
 40  3  1  0
 40  9  1  0
 37 16  1  0
 35 20  1  0
 30 25  1  0
  1 41  1  0
  1 42  1  0
  1 43  1  0
  2 44  1  0
  2 45  1  0
  7 46  1  0
  7 47  1  0
  8 48  1  0
  8 49  1  0
  8 50  1  0
 10 51  1  0
 12 52  1  0
 15 53  1  0
 15 54  1  0
 17 55  1  0
 17 56  1  0
 18 57  1  0
 18 58  1  0
 21 59  1  0
 21 60  1  0
 22 61  1  0
 22 62  1  0
 23 63  1  0
 23 64  1  0
 24 65  1  0
 24 66  1  0
 26 67  1  0
 27 68  1  0
 28 69  1  0
 29 70  1  0
 32 71  1  0
 32 72  1  0
 33 73  1  0
 33 74  1  0
 34 75  1  0
 37 76  1  0
 37 77  1  0
 38 78  1  0
 39 79  1  0
M  END
$$$$
