
     RDKit          3D

 68 71  0  0  0  0  0  0  0  0999 V2000
    2.5043   -1.4786    0.4094 O   0  0  0  0  0  0  0  0  0  0  0  0
    2.0859   -0.3176    0.1454 C   0  0  0  0  0  0  0  0  0  0  0  0
    0.6688   -0.1098   -0.3342 C   0  0  0  0  0  0  0  0  0  0  0  0
   -0.3318   -1.0311    0.2616 N   0  0  0  0  0  0  0  0  0  0  0  0
   -0.3781   -2.3561   -0.4010 C   0  0  0  0  0  0  0  0  0  0  0  0
   -1.2098   -2.2838   -1.7065 C   0  0  0  0  0  0  0  0  0  0  0  0
   -2.4415   -3.2197   -1.7327 C   0  0  0  0  0  0  0  0  0  0  0  0
   -3.7309   -2.5673   -1.1946 C   0  0  0  0  0  0  0  0  0  0  0  0
   -3.6532   -2.2753    0.3101 C   0  0  0  0  0  0  0  0  0  0  0  0
   -4.8282   -1.4564    0.8603 C   0  0  0  0  0  0  0  0  0  0  0  0
   -5.2097   -0.3789    0.0041 O   0  0  0  0  0  0  0  0  0  0  0  0
   -4.4765    0.7651   -0.3600 C   0  0  0  0  0  0  0  0  0  0  0  0
   -5.0173    1.5233   -1.4093 C   0  0  0  0  0  0  0  0  0  0  0  0
   -4.3671    2.6591   -1.8906 C   0  0  0  0  0  0  0  0  0  0  0  0
   -3.1526    3.0491   -1.3358 C   0  0  0  0  0  0  0  0  0  0  0  0
   -2.6036    2.3244   -0.2786 C   0  0  0  0  0  0  0  0  0  0  0  0
   -3.2604    1.1891    0.2448 C   0  0  0  0  0  0  0  0  0  0  0  0
   -2.6971    0.4819    1.3185 O   0  0  0  0  0  0  0  0  0  0  0  0
   -1.6826    0.9861    2.1477 C   0  0  0  0  0  0  0  0  0  0  0  0
   -1.8201    2.2207    2.7071 N   0  0  0  0  0  0  0  0  0  0  0  0
   -0.8568    2.7638    3.4982 C   0  0  0  0  0  0  0  0  0  0  0  0
    0.3152    2.0546    3.7618 C   0  0  0  0  0  0  0  0  0  0  0  0
    0.4858    0.7871    3.2062 C   0  0  0  0  0  0  0  0  0  0  0  0
   -0.5116    0.2346    2.3864 C   0  0  0  0  0  0  0  0  0  0  0  0
   -0.2954   -1.1165    1.7421 C   0  0  0  0  0  0  0  0  0  0  0  0
    2.9792    0.8069    0.2128 N   0  0  0  0  0  0  0  0  0  0  0  0
    4.4164    0.6696    0.4799 C   0  0  0  0  0  0  0  0  0  0  0  0
    4.8126    1.5679    1.6613 C   0  0  0  0  0  0  0  0  0  0  0  0
    4.4983    2.9067    1.3904 O   0  0  0  0  0  0  0  0  0  0  0  0
    5.2359    1.0138   -0.7813 C   0  0  0  0  0  0  0  0  0  0  0  0
    4.8123    0.2142   -1.9818 C   0  0  0  0  0  0  0  0  0  0  0  0
    4.6627    0.6982   -3.2635 C   0  0  0  0  0  0  0  0  0  0  0  0
    4.3117   -0.3153   -4.0806 N   0  0  0  0  0  0  0  0  0  0  0  0
    4.2660   -1.3981   -3.2716 C   0  0  0  0  0  0  0  0  0  0  0  0
    4.5803   -1.1103   -1.9948 N   0  0  0  0  0  0  0  0  0  0  0  0
    0.6622   -0.1914   -1.4447 H   0  0  0  0  0  0  0  0  0  0  0  0
    0.3583    0.9336   -0.1079 H   0  0  0  0  0  0  0  0  0  0  0  0
   -0.8104   -3.1214    0.2781 H   0  0  0  0  0  0  0  0  0  0  0  0
    0.6442   -2.7200   -0.6374 H   0  0  0  0  0  0  0  0  0  0  0  0
   -0.5426   -2.5709   -2.5469 H   0  0  0  0  0  0  0  0  0  0  0  0
   -1.5342   -1.2421   -1.9190 H   0  0  0  0  0  0  0  0  0  0  0  0
   -2.6372   -3.4845   -2.7946 H   0  0  0  0  0  0  0  0  0  0  0  0
   -2.2333   -4.1729   -1.2019 H   0  0  0  0  0  0  0  0  0  0  0  0
   -3.9166   -1.6318   -1.7665 H   0  0  0  0  0  0  0  0  0  0  0  0
   -4.5850   -3.2545   -1.3821 H   0  0  0  0  0  0  0  0  0  0  0  0
   -3.5814   -3.2329    0.8681 H   0  0  0  0  0  0  0  0  0  0  0  0
   -2.7445   -1.7137    0.5074 H   0  0  0  0  0  0  0  0  0  0  0  0
   -4.5988   -1.0759    1.8751 H   0  0  0  0  0  0  0  0  0  0  0  0
   -5.7023   -2.1324    0.9583 H   0  0  0  0  0  0  0  0  0  0  0  0
   -5.9577    1.2222   -1.8595 H   0  0  0  0  0  0  0  0  0  0  0  0
   -4.8011    3.2302   -2.7032 H   0  0  0  0  0  0  0  0  0  0  0  0
   -2.6437    3.9253   -1.7085 H   0  0  0  0  0  0  0  0  0  0  0  0
   -1.6520    2.6514    0.1176 H   0  0  0  0  0  0  0  0  0  0  0  0
   -1.0007    3.7481    3.9201 H   0  0  0  0  0  0  0  0  0  0  0  0
    1.0866    2.4877    4.3838 H   0  0  0  0  0  0  0  0  0  0  0  0
    1.4049    0.2472    3.3962 H   0  0  0  0  0  0  0  0  0  0  0  0
    0.6563   -1.5769    2.0887 H   0  0  0  0  0  0  0  0  0  0  0  0
   -1.1076   -1.7858    2.1079 H   0  0  0  0  0  0  0  0  0  0  0  0
    2.6123    1.7539   -0.0438 H   0  0  0  0  0  0  0  0  0  0  0  0
    4.6607   -0.3750    0.7764 H   0  0  0  0  0  0  0  0  0  0  0  0
    4.2654    1.2355    2.5739 H   0  0  0  0  0  0  0  0  0  0  0  0
    5.9049    1.4661    1.8541 H   0  0  0  0  0  0  0  0  0  0  0  0
    4.7922    3.4248    2.1811 H   0  0  0  0  0  0  0  0  0  0  0  0
    6.3115    0.8138   -0.5896 H   0  0  0  0  0  0  0  0  0  0  0  0
    5.1232    2.0946   -1.0147 H   0  0  0  0  0  0  0  0  0  0  0  0
    4.8040    1.7210   -3.5863 H   0  0  0  0  0  0  0  0  0  0  0  0
    4.0159   -2.3935   -3.6161 H   0  0  0  0  0  0  0  0  0  0  0  0
    4.6355   -1.7815   -1.1965 H   0  0  0  0  0  0  0  0  0  0  0  0
  1  2  2  0
  2  3  1  0
  3  4  1  0
  4  5  1  0
  5  6  1  0
  6  7  1  0
  7  8  1  0
  8  9  1  0
  9 10  1  0
 10 11  1  0
 11 12  1  0
 12 13  2  0
 13 14  1  0
 14 15  2  0
 15 16  1  0
 16 17  2  0
 17 18  1  0
 18 19  1  0
 19 20  2  0
 20 21  1  0
 21 22  2  0
 22 23  1  0
 23 24  2  0
 24 25  1  0
  2 26  1  0
 26 27  1  0
 27 28  1  0
 28 29  1  0
 27 30  1  0
 30 31  1  0
 31 32  2  0
 32 33  1  0
 33 34  2  0
 34 35  1  0
 25  4  1  0
 35 31  1  0
 17 12  1  0
 24 19  1  0
  3 36  1  0
  3 37  1  0
  5 38  1  0
  5 39  1  0
  6 40  1  0
  6 41  1  0
  7 42  1  0
  7 43  1  0
  8 44  1  0
  8 45  1  0
  9 46  1  0
  9 47  1  0
 10 48  1  0
 10 49  1  0
 13 50  1  0
 14 51  1  0
 15 52  1  0
 16 53  1  0
 21 54  1  0
 22 55  1  0
 23 56  1  0
 25 57  1  0
 25 58  1  0
 26 59  1  0
 27 60  1  0
 28 61  1  0
 28 62  1  0
 29 63  1  0
 30 64  1  0
 30 65  1  0
 32 66  1  0
 34 67  1  0
 35 68  1  0
M  END
$$$$
