
     RDKit          3D

 57 60  0  0  0  0  0  0  0  0999 V2000
    7.4223    0.7462    2.1022 C   0  0  0  0  0  0  0  0  0  0  0  0
    6.2718   -0.0848    1.6456 C   0  0  0  0  0  0  0  0  0  0  0  0
    5.3116    0.2981    0.7290 C   0  0  0  0  0  0  0  0  0  0  0  0
    4.5323   -0.8365    0.5893 C   0  0  0  0  0  0  0  0  0  0  0  0
    3.3630   -1.0404   -0.2908 C   0  0  0  0  0  0  0  0  0  0  0  0
    3.1119   -2.2195   -0.6572 O   0  0  0  0  0  0  0  0  0  0  0  0
    2.4957    0.0391   -0.7121 N   0  0  0  0  0  0  0  0  0  0  0  0
    2.3490    1.2664    0.0790 C   0  0  0  0  0  0  0  0  0  0  0  0
    1.0409    1.9752   -0.2819 C   0  0  0  0  0  0  0  0  0  0  0  0
   -0.0127    1.0350   -0.3630 O   0  0  0  0  0  0  0  0  0  0  0  0
    0.1148    0.1504   -1.4758 C   0  0  0  0  0  0  0  0  0  0  0  0
   -0.5669   -1.1920   -1.0887 C   0  0  0  0  0  0  0  0  0  0  0  0
   -0.0889   -1.7747    0.2638 C   0  0  0  0  0  0  0  0  0  0  0  0
   -1.2501   -2.2456    1.1537 C   0  0  0  0  0  0  0  0  0  0  0  0
   -2.0386   -1.0746    1.7861 C   0  0  0  0  0  0  0  0  0  0  0  0
   -3.4813   -1.0651    1.3444 C   0  0  0  0  0  0  0  0  0  0  0  0
   -4.3716   -1.9902    1.9141 C   0  0  0  0  0  0  0  0  0  0  0  0
   -5.7052   -2.0348    1.5060 C   0  0  0  0  0  0  0  0  0  0  0  0
   -6.1657   -1.1631    0.5214 C   0  0  0  0  0  0  0  0  0  0  0  0
   -5.2953   -0.2405   -0.0577 C   0  0  0  0  0  0  0  0  0  0  0  0
   -3.9441   -0.1771    0.3476 C   0  0  0  0  0  0  0  0  0  0  0  0
   -3.0499    0.7460   -0.2208 O   0  0  0  0  0  0  0  0  0  0  0  0
   -3.3948    1.6748   -1.2447 C   0  0  0  0  0  0  0  0  0  0  0  0
   -2.1762    2.5203   -1.6236 C   0  0  0  0  0  0  0  0  0  0  0  0
   -1.4050    1.9159   -2.7181 N   0  0  0  0  0  0  0  0  0  0  0  0
   -0.6197    0.7028   -2.6983 C   0  0  0  0  0  0  0  0  0  0  0  0
   -0.4848    0.0816   -3.7883 O   0  0  0  0  0  0  0  0  0  0  0  0
    1.6110   -0.1248   -1.8730 C   0  0  0  0  0  0  0  0  0  0  0  0
    5.0305   -1.7836    1.3590 O   0  0  0  0  0  0  0  0  0  0  0  0
    6.0789   -1.3681    2.0108 N   0  0  0  0  0  0  0  0  0  0  0  0
    8.1723    0.8160    1.2888 H   0  0  0  0  0  0  0  0  0  0  0  0
    7.0704    1.7661    2.3620 H   0  0  0  0  0  0  0  0  0  0  0  0
    7.8974    0.2889    2.9994 H   0  0  0  0  0  0  0  0  0  0  0  0
    5.2507    1.2375    0.2004 H   0  0  0  0  0  0  0  0  0  0  0  0
    2.3339    1.0131    1.1608 H   0  0  0  0  0  0  0  0  0  0  0  0
    3.1857    1.9610   -0.1286 H   0  0  0  0  0  0  0  0  0  0  0  0
    1.1458    2.5385   -1.2375 H   0  0  0  0  0  0  0  0  0  0  0  0
    0.7988    2.7169    0.5086 H   0  0  0  0  0  0  0  0  0  0  0  0
   -1.6641   -1.0538   -1.0749 H   0  0  0  0  0  0  0  0  0  0  0  0
   -0.3962   -1.9494   -1.8854 H   0  0  0  0  0  0  0  0  0  0  0  0
    0.5622   -2.6489    0.0564 H   0  0  0  0  0  0  0  0  0  0  0  0
    0.5311   -1.0566    0.8400 H   0  0  0  0  0  0  0  0  0  0  0  0
   -1.9119   -2.9219    0.5697 H   0  0  0  0  0  0  0  0  0  0  0  0
   -0.8236   -2.8609    1.9749 H   0  0  0  0  0  0  0  0  0  0  0  0
   -2.0110   -1.1802    2.8906 H   0  0  0  0  0  0  0  0  0  0  0  0
   -1.5576   -0.0955    1.5780 H   0  0  0  0  0  0  0  0  0  0  0  0
   -4.0292   -2.6813    2.6726 H   0  0  0  0  0  0  0  0  0  0  0  0
   -6.3843   -2.7504    1.9506 H   0  0  0  0  0  0  0  0  0  0  0  0
   -7.1993   -1.1995    0.2084 H   0  0  0  0  0  0  0  0  0  0  0  0
   -5.6840    0.4221   -0.8193 H   0  0  0  0  0  0  0  0  0  0  0  0
   -3.7850    1.1362   -2.1370 H   0  0  0  0  0  0  0  0  0  0  0  0
   -4.1847    2.3545   -0.8525 H   0  0  0  0  0  0  0  0  0  0  0  0
   -1.5514    2.7614   -0.7439 H   0  0  0  0  0  0  0  0  0  0  0  0
   -2.5562    3.5028   -1.9817 H   0  0  0  0  0  0  0  0  0  0  0  0
   -1.5602    2.3428   -3.6667 H   0  0  0  0  0  0  0  0  0  0  0  0
    1.7290   -1.1233   -2.3477 H   0  0  0  0  0  0  0  0  0  0  0  0
    1.9386    0.6087   -2.6436 H   0  0  0  0  0  0  0  0  0  0  0  0
  1  2  1  0
  2  3  1  0
  3  4  2  0
  4  5  1  0
  5  6  2  0
  5  7  1  0
  7  8  1  0
  8  9  1  0
  9 10  1  0
 10 11  1  0
 11 12  1  0
 12 13  1  0
 13 14  1  0
 14 15  1  0
 15 16  1  0
 16 17  2  0
 17 18  1  0
 18 19  2  0
 19 20  1  0
 20 21  2  0
 21 22  1  0
 22 23  1  0
 23 24  1  0
 24 25  1  0
 25 26  1  0
 26 27  2  0
 11 28  1  0
  4 29  1  0
 29 30  1  0
 30  2  2  0
 28  7  1  0
 26 11  1  0
 21 16  1  0
  1 31  1  0
  1 32  1  0
  1 33  1  0
  3 34  1  0
  8 35  1  0
  8 36  1  0
  9 37  1  0
  9 38  1  0
 12 39  1  0
 12 40  1  0
 13 41  1  0
 13 42  1  0
 14 43  1  0
 14 44  1  0
 15 45  1  0
 15 46  1  0
 17 47  1  0
 18 48  1  0
 19 49  1  0
 20 50  1  0
 23 51  1  0
 23 52  1  0
 24 53  1  0
 24 54  1  0
 25 55  1  0
 28 56  1  0
 28 57  1  0
M  END
$$$$
