
     RDKit          3D

100103  0  0  0  0  0  0  0  0999 V2000
   11.9180    0.7616    3.3543 C   0  0  0  0  0  0  0  0  0  0  0  0
   11.4904   -0.1018    2.3039 O   0  0  0  0  0  0  0  0  0  0  0  0
   10.2765    0.0290    1.6129 C   0  0  0  0  0  0  0  0  0  0  0  0
    9.9810   -0.9001    0.6099 C   0  0  0  0  0  0  0  0  0  0  0  0
    8.7814   -0.8198   -0.1023 C   0  0  0  0  0  0  0  0  0  0  0  0
    7.8490    0.1877    0.1848 C   0  0  0  0  0  0  0  0  0  0  0  0
    6.6336    0.2629   -0.5820 N   0  0  0  0  0  0  0  0  0  0  0  0
    5.3963    0.7912   -0.0720 C   0  0  0  0  0  0  0  0  0  0  0  0
    5.2155    0.8493    1.1755 O   0  0  0  0  0  0  0  0  0  0  0  0
    4.3463    1.2209   -0.9685 N   0  0  0  0  0  0  0  0  0  0  0  0
    4.5169    1.1151   -2.4215 C   0  0  0  0  0  0  0  0  0  0  0  0
    3.0962    1.7882   -0.4406 C   0  0  0  0  0  0  0  0  0  0  0  0
    1.9748    0.7228   -0.3723 C   0  0  1  0  0  0  0  0  0  0  0  0
    2.3482   -0.2683    0.5810 O   0  0  0  0  0  0  0  0  0  0  0  0
    2.8969   -1.4319   -0.0185 C   0  0  0  0  0  0  0  0  0  0  0  0
    1.8312   -2.5180   -0.1718 C   0  0  0  0  0  0  0  0  0  0  0  0
    1.3965   -3.0999    1.1822 C   0  0  0  0  0  0  0  0  0  0  0  0
    0.2882   -4.1601    1.0371 C   0  0  0  0  0  0  0  0  0  0  0  0
   -1.0802   -3.5619    0.6567 C   0  0  1  0  0  0  0  0  0  0  0  0
   -2.1359   -4.6670    0.5704 C   0  0  0  0  0  0  0  0  0  0  0  0
   -1.4592   -2.5990    1.6453 O   0  0  0  0  0  0  0  0  0  0  0  0
   -2.6190   -1.8061    1.6370 C   0  0  0  0  0  0  0  0  0  0  0  0
   -3.3139   -1.6895    2.8453 C   0  0  0  0  0  0  0  0  0  0  0  0
   -4.4668   -0.9096    2.9379 C   0  0  0  0  0  0  0  0  0  0  0  0
   -4.9547   -0.2251    1.8193 C   0  0  0  0  0  0  0  0  0  0  0  0
   -6.1166    0.6130    1.9598 N   0  0  0  0  0  0  0  0  0  0  0  0
   -7.0215    0.9433    0.8951 C   0  0  0  0  0  0  0  0  0  0  0  0
   -7.0200    0.2753   -0.1743 O   0  0  0  0  0  0  0  0  0  0  0  0
   -7.9241    2.0448    1.0568 N   0  0  0  0  0  0  0  0  0  0  0  0
   -8.9423    2.3829    0.1044 C   0  0  0  0  0  0  0  0  0  0  0  0
   -9.3074    3.6525   -0.2860 C   0  0  0  0  0  0  0  0  0  0  0  0
   -8.6609    4.9333    0.1276 C   0  0  0  0  0  0  0  0  0  0  0  0
  -10.3643    3.5686   -1.1189 N   0  0  0  0  0  0  0  0  0  0  0  0
  -10.6687    2.3050   -1.2274 O   0  0  0  0  0  0  0  0  0  0  0  0
   -9.8667    1.5536   -0.5051 C   0  0  0  0  0  0  0  0  0  0  0  0
   -9.9991    0.0710   -0.3868 C   0  0  0  0  0  0  0  0  0  0  0  0
   -4.2458   -0.3081    0.6093 C   0  0  0  0  0  0  0  0  0  0  0  0
   -3.0847   -1.0913    0.5040 C   0  0  0  0  0  0  0  0  0  0  0  0
   -2.3664   -1.0562   -0.7836 C   0  0  0  0  0  0  0  0  0  0  0  0
   -2.8320   -1.7532   -1.7232 O   0  0  0  0  0  0  0  0  0  0  0  0
   -1.2150   -0.1928   -1.0008 N   0  0  0  0  0  0  0  0  0  0  0  0
   -0.8548    0.1797   -2.3932 C   0  0  2  0  0  0  0  0  0  0  0  0
   -1.9541    1.0543   -3.0172 C   0  0  0  0  0  0  0  0  0  0  0  0
   -0.4757   -1.0507   -3.2636 C   0  0  0  0  0  0  0  0  0  0  0  0
   -1.5351   -1.4831   -4.0776 O   0  0  0  0  0  0  0  0  0  0  0  0
   -0.5569    0.3542    0.2190 C   0  0  0  0  0  0  0  0  0  0  0  0
    0.6268    1.3605    0.0970 C   0  0  2  0  0  0  0  0  0  0  0  0
    0.2256    2.6915   -0.5822 C   0  0  0  0  0  0  0  0  0  0  0  0
    8.1546    1.1388    1.1756 C   0  0  0  0  0  0  0  0  0  0  0  0
    9.3547    1.0571    1.8891 C   0  0  0  0  0  0  0  0  0  0  0  0
   12.0143    1.8038    2.9816 H   0  0  0  0  0  0  0  0  0  0  0  0
   12.9098    0.4231    3.7187 H   0  0  0  0  0  0  0  0  0  0  0  0
   11.1979    0.7222    4.1985 H   0  0  0  0  0  0  0  0  0  0  0  0
   10.6859   -1.6906    0.3827 H   0  0  0  0  0  0  0  0  0  0  0  0
    8.5727   -1.5508   -0.8738 H   0  0  0  0  0  0  0  0  0  0  0  0
    6.6380   -0.1723   -1.5308 H   0  0  0  0  0  0  0  0  0  0  0  0
    5.4130    1.6896   -2.7379 H   0  0  0  0  0  0  0  0  0  0  0  0
    4.6327    0.0502   -2.7134 H   0  0  0  0  0  0  0  0  0  0  0  0
    3.6337    1.5186   -2.9629 H   0  0  0  0  0  0  0  0  0  0  0  0
    2.7962    2.6345   -1.0931 H   0  0  0  0  0  0  0  0  0  0  0  0
    3.2562    2.2275    0.5685 H   0  0  0  0  0  0  0  0  0  0  0  0
    1.8372    0.3011   -1.3892 H   0  0  0  0  0  0  0  0  0  0  0  0
    3.7111   -1.8099    0.6348 H   0  0  0  0  0  0  0  0  0  0  0  0
    3.3715   -1.2430   -1.0070 H   0  0  0  0  0  0  0  0  0  0  0  0
    2.2392   -3.3350   -0.8056 H   0  0  0  0  0  0  0  0  0  0  0  0
    0.9678   -2.0741   -0.6954 H   0  0  0  0  0  0  0  0  0  0  0  0
    2.2790   -3.5845    1.6553 H   0  0  0  0  0  0  0  0  0  0  0  0
    1.0633   -2.2896    1.8648 H   0  0  0  0  0  0  0  0  0  0  0  0
    0.5964   -4.9117    0.2776 H   0  0  0  0  0  0  0  0  0  0  0  0
    0.1902   -4.6918    2.0088 H   0  0  0  0  0  0  0  0  0  0  0  0
   -0.9869   -3.0991   -0.3402 H   0  0  0  0  0  0  0  0  0  0  0  0
   -1.8308   -5.4335   -0.1741 H   0  0  0  0  0  0  0  0  0  0  0  0
   -2.2678   -5.1520    1.5615 H   0  0  0  0  0  0  0  0  0  0  0  0
   -3.1084   -4.2373    0.2492 H   0  0  0  0  0  0  0  0  0  0  0  0
   -2.9577   -2.2132    3.7228 H   0  0  0  0  0  0  0  0  0  0  0  0
   -4.9832   -0.8383    3.8869 H   0  0  0  0  0  0  0  0  0  0  0  0
   -6.3462    0.9766    2.9121 H   0  0  0  0  0  0  0  0  0  0  0  0
   -7.7358    2.7200    1.8316 H   0  0  0  0  0  0  0  0  0  0  0  0
   -8.7634    5.0652    1.2251 H   0  0  0  0  0  0  0  0  0  0  0  0
   -7.5846    4.9101   -0.1419 H   0  0  0  0  0  0  0  0  0  0  0  0
   -9.1459    5.7898   -0.3871 H   0  0  0  0  0  0  0  0  0  0  0  0
  -11.0605   -0.2210   -0.5322 H   0  0  0  0  0  0  0  0  0  0  0  0
   -9.6738   -0.2677    0.6195 H   0  0  0  0  0  0  0  0  0  0  0  0
   -9.3844   -0.4224   -1.1673 H   0  0  0  0  0  0  0  0  0  0  0  0
   -4.5596    0.2796   -0.2440 H   0  0  0  0  0  0  0  0  0  0  0  0
    0.0415    0.8030   -2.4027 H   0  0  0  0  0  0  0  0  0  0  0  0
   -1.6379    1.4070   -4.0221 H   0  0  0  0  0  0  0  0  0  0  0  0
   -2.9087    0.4973   -3.1158 H   0  0  0  0  0  0  0  0  0  0  0  0
   -2.1376    1.9433   -2.3790 H   0  0  0  0  0  0  0  0  0  0  0  0
    0.4124   -0.8083   -3.8940 H   0  0  0  0  0  0  0  0  0  0  0  0
   -0.1715   -1.8972   -2.6174 H   0  0  0  0  0  0  0  0  0  0  0  0
   -1.4769   -0.9727   -4.9263 H   0  0  0  0  0  0  0  0  0  0  0  0
   -1.3344    0.8671    0.8277 H   0  0  0  0  0  0  0  0  0  0  0  0
   -0.2056   -0.4960    0.8348 H   0  0  0  0  0  0  0  0  0  0  0  0
    0.8196    1.6541    1.1555 H   0  0  0  0  0  0  0  0  0  0  0  0
    0.4978    2.7335   -1.6552 H   0  0  0  0  0  0  0  0  0  0  0  0
   -0.8638    2.8821   -0.4757 H   0  0  0  0  0  0  0  0  0  0  0  0
    0.7517    3.5371   -0.0882 H   0  0  0  0  0  0  0  0  0  0  0  0
    7.4795    1.9578    1.3850 H   0  0  0  0  0  0  0  0  0  0  0  0
    9.5602    1.8030    2.6456 H   0  0  0  0  0  0  0  0  0  0  0  0
  1  2  1  0
  2  3  1  0
  3  4  2  0
  4  5  1  0
  5  6  2  0
  6  7  1  0
  7  8  1  0
  8  9  2  0
  8 10  1  0
 10 11  1  0
 10 12  1  0
 12 13  1  0
 13 14  1  0
 14 15  1  0
 15 16  1  0
 16 17  1  0
 17 18  1  0
 18 19  1  0
 19 20  1  0
 19 21  1  0
 21 22  1  0
 22 23  2  0
 23 24  1  0
 24 25  2  0
 25 26  1  0
 26 27  1  0
 27 28  2  0
 27 29  1  0
 29 30  1  0
 30 31  1  0
 31 32  1  0
 31 33  2  0
 33 34  1  0
 34 35  1  0
 35 36  1  0
 25 37  1  0
 37 38  2  0
 38 39  1  0
 39 40  2  0
 39 41  1  0
 41 42  1  0
 42 43  1  0
 42 44  1  0
 44 45  1  0
 41 46  1  0
 46 47  1  0
 47 48  1  0
  6 49  1  0
 49 50  2  0
 50  3  1  0
 47 13  1  0
 38 22  1  0
 35 30  2  0
  1 51  1  0
  1 52  1  0
  1 53  1  0
  4 54  1  0
  5 55  1  0
  7 56  1  0
 11 57  1  0
 11 58  1  0
 11 59  1  0
 12 60  1  0
 12 61  1  0
 13 62  1  6
 15 63  1  0
 15 64  1  0
 16 65  1  0
 16 66  1  0
 17 67  1  0
 17 68  1  0
 18 69  1  0
 18 70  1  0
 19 71  1  6
 20 72  1  0
 20 73  1  0
 20 74  1  0
 23 75  1  0
 24 76  1  0
 26 77  1  0
 29 78  1  0
 32 79  1  0
 32 80  1  0
 32 81  1  0
 36 82  1  0
 36 83  1  0
 36 84  1  0
 37 85  1  0
 42 86  1  1
 43 87  1  0
 43 88  1  0
 43 89  1  0
 44 90  1  0
 44 91  1  0
 45 92  1  0
 46 93  1  0
 46 94  1  0
 47 95  1  1
 48 96  1  0
 48 97  1  0
 48 98  1  0
 49 99  1  0
 50100  1  0
M  END
$$$$
