
     RDKit          3D

115118  0  0  0  0  0  0  0  0999 V2000
   -6.0145    2.7241   -0.6031 C   0  0  0  0  0  0  0  0  0  0  0  0
   -4.5851    2.7526   -0.0513 C   0  0  0  0  0  0  0  0  0  0  0  0
   -3.4730    2.7759   -1.1389 C   0  0  1  0  0  0  0  0  0  0  0  0
   -3.8866    1.9525   -2.2345 O   0  0  0  0  0  0  0  0  0  0  0  0
   -3.3952    0.6612   -2.4326 C   0  0  0  0  0  0  0  0  0  0  0  0
   -4.1878   -0.3142   -2.3714 O   0  0  0  0  0  0  0  0  0  0  0  0
   -1.9475    0.4445   -2.7898 C   0  0  2  0  0  0  0  0  0  0  0  0
   -1.8529   -0.3292   -4.1138 C   0  0  0  0  0  0  0  0  0  0  0  0
   -1.1627   -0.2011   -1.6138 C   0  0  1  0  0  0  0  0  0  0  0  0
   -1.6217   -1.5381   -1.4394 O   0  0  0  0  0  0  0  0  0  0  0  0
   -1.8545   -1.8901   -0.0850 C   0  0  1  0  0  0  0  0  0  0  0  0
   -3.0854   -2.8142   -0.0391 C   0  0  0  0  0  0  0  0  0  0  0  0
   -3.0946   -3.7947    1.1762 C   0  0  0  0  0  0  0  0  0  0  0  0
   -2.5260   -5.1608    0.7087 C   0  0  0  0  0  0  0  0  0  0  0  0
   -4.4740   -3.9212    1.5337 O   0  0  0  0  0  0  0  0  0  0  0  0
   -4.7384   -4.6892    2.6899 C   0  0  0  0  0  0  0  0  0  0  0  0
   -2.2267   -3.1671    2.3207 C   0  0  1  0  0  0  0  0  0  0  0  0
   -2.1312   -4.0286    3.4275 O   0  0  0  0  0  0  0  0  0  0  0  0
   -0.8009   -2.7395    1.8150 C   0  0  0  0  0  0  0  0  0  0  0  0
    0.2937   -3.7317    2.2334 C   0  0  0  0  0  0  0  0  0  0  0  0
   -0.7311   -2.5874    0.4043 O   0  0  0  0  0  0  0  0  0  0  0  0
    0.3883   -0.1434   -1.8540 C   0  0  2  0  0  0  0  0  0  0  0  0
    0.8949   -1.4677   -2.4693 C   0  0  0  0  0  0  0  0  0  0  0  0
    1.2174    0.2228   -0.5655 C   0  0  1  0  0  0  0  0  0  0  0  0
    2.5858   -0.1287   -0.7884 O   0  0  0  0  0  0  0  0  0  0  0  0
    3.0552   -1.1586    0.0741 C   0  0  2  0  0  0  0  0  0  0  0  0
    3.6533   -0.5614    1.2055 O   0  0  0  0  0  0  0  0  0  0  0  0
    3.8394   -1.5195    2.2237 C   0  0  2  0  0  0  0  0  0  0  0  0
    4.3635   -0.8086    3.4744 C   0  0  0  0  0  0  0  0  0  0  0  0
    4.7834   -2.6694    1.7785 C   0  0  0  0  0  0  0  0  0  0  0  0
    5.1731   -2.6626    0.2644 C   0  0  0  0  0  0  0  0  0  0  0  0
    6.5318   -2.1189   -0.0187 N   0  0  0  0  0  0  0  0  0  0  0  0
    7.6106   -3.0519    0.3493 C   0  0  0  0  0  0  0  0  0  0  0  0
    6.7865   -0.7813    0.5407 C   0  0  0  0  0  0  0  0  0  0  0  0
    4.1167   -1.9961   -0.6763 C   0  0  0  0  0  0  0  0  0  0  0  0
    3.4935   -2.9656   -1.4859 O   0  0  0  0  0  0  0  0  0  0  0  0
    1.1736    1.7315   -0.1117 C   0  0  1  0  0  0  0  0  0  0  0  0
    1.9373    1.8869    1.2235 C   0  0  0  0  0  0  0  0  0  0  0  0
    1.7353    2.7651   -1.1249 C   0  0  0  0  0  0  0  0  0  0  0  0
    0.8101    3.9287   -0.9251 C   0  0  0  0  0  0  0  0  0  0  0  0
    1.1176    5.3216   -1.3844 C   0  0  0  0  0  0  0  0  0  0  0  0
   -0.2425    3.5589   -0.1987 C   0  0  0  0  0  0  0  0  0  0  0  0
   -0.1432    2.2110    0.1281 O   0  0  0  0  0  0  0  0  0  0  0  0
   -1.2838    4.4773    0.4223 C   0  0  2  0  0  0  0  0  0  0  0  0
   -1.8499    3.8412    1.7067 C   0  0  0  0  0  0  0  0  0  0  0  0
   -2.4007    5.0886   -0.5107 C   0  0  1  0  0  0  0  0  0  0  0  0
   -1.9112    6.2766   -1.0889 O   0  0  0  0  0  0  0  0  0  0  0  0
   -3.0747    4.2060   -1.6361 C   0  0  1  0  0  0  0  0  0  0  0  0
   -2.1448    4.1034   -2.8723 C   0  0  0  0  0  0  0  0  0  0  0  0
   -4.2591    4.8426   -2.0549 O   0  0  0  0  0  0  0  0  0  0  0  0
   -6.2000    1.7797   -1.1666 H   0  0  0  0  0  0  0  0  0  0  0  0
   -6.2104    3.5914   -1.2638 H   0  0  0  0  0  0  0  0  0  0  0  0
   -6.7374    2.7669    0.2396 H   0  0  0  0  0  0  0  0  0  0  0  0
   -4.4929    3.6136    0.6380 H   0  0  0  0  0  0  0  0  0  0  0  0
   -4.4514    1.8352    0.5627 H   0  0  0  0  0  0  0  0  0  0  0  0
   -2.5704    2.3279   -0.6937 H   0  0  0  0  0  0  0  0  0  0  0  0
   -1.5058    1.4379   -2.9848 H   0  0  0  0  0  0  0  0  0  0  0  0
   -2.5369    0.1148   -4.8694 H   0  0  0  0  0  0  0  0  0  0  0  0
   -2.1281   -1.3967   -3.9775 H   0  0  0  0  0  0  0  0  0  0  0  0
   -0.8281   -0.2566   -4.5326 H   0  0  0  0  0  0  0  0  0  0  0  0
   -1.3947    0.4309   -0.7429 H   0  0  0  0  0  0  0  0  0  0  0  0
   -2.0882   -1.0080    0.5609 H   0  0  0  0  0  0  0  0  0  0  0  0
   -3.1750   -3.3841   -0.9924 H   0  0  0  0  0  0  0  0  0  0  0  0
   -3.9838   -2.1570   -0.0004 H   0  0  0  0  0  0  0  0  0  0  0  0
   -2.2620   -5.8162    1.5653 H   0  0  0  0  0  0  0  0  0  0  0  0
   -1.6057   -5.0263    0.1048 H   0  0  0  0  0  0  0  0  0  0  0  0
   -3.2725   -5.6911    0.0794 H   0  0  0  0  0  0  0  0  0  0  0  0
   -4.1350   -5.6149    2.7533 H   0  0  0  0  0  0  0  0  0  0  0  0
   -4.6126   -4.0682    3.6014 H   0  0  0  0  0  0  0  0  0  0  0  0
   -5.8033   -5.0032    2.6628 H   0  0  0  0  0  0  0  0  0  0  0  0
   -2.7608   -2.2404    2.6404 H   0  0  0  0  0  0  0  0  0  0  0  0
   -1.9060   -3.4646    4.2135 H   0  0  0  0  0  0  0  0  0  0  0  0
   -0.5393   -1.7681    2.2894 H   0  0  0  0  0  0  0  0  0  0  0  0
    1.2639   -3.4568    1.7723 H   0  0  0  0  0  0  0  0  0  0  0  0
    0.4260   -3.7309    3.3367 H   0  0  0  0  0  0  0  0  0  0  0  0
    0.0442   -4.7577    1.8933 H   0  0  0  0  0  0  0  0  0  0  0  0
    0.6028    0.6267   -2.6168 H   0  0  0  0  0  0  0  0  0  0  0  0
    1.9137   -1.3356   -2.8849 H   0  0  0  0  0  0  0  0  0  0  0  0
    0.9079   -2.2700   -1.7052 H   0  0  0  0  0  0  0  0  0  0  0  0
    0.2544   -1.8167   -3.3008 H   0  0  0  0  0  0  0  0  0  0  0  0
    0.7553   -0.3498    0.2715 H   0  0  0  0  0  0  0  0  0  0  0  0
    2.2310   -1.8564    0.3605 H   0  0  0  0  0  0  0  0  0  0  0  0
    2.8538   -1.9460    2.5194 H   0  0  0  0  0  0  0  0  0  0  0  0
    5.3460   -0.3285    3.2784 H   0  0  0  0  0  0  0  0  0  0  0  0
    3.6427   -0.0183    3.7825 H   0  0  0  0  0  0  0  0  0  0  0  0
    4.4724   -1.5360    4.3107 H   0  0  0  0  0  0  0  0  0  0  0  0
    4.2520   -3.6280    1.9900 H   0  0  0  0  0  0  0  0  0  0  0  0
    5.6937   -2.7069    2.4112 H   0  0  0  0  0  0  0  0  0  0  0  0
    5.1965   -3.7399   -0.0241 H   0  0  0  0  0  0  0  0  0  0  0  0
    8.5786   -2.6872   -0.0622 H   0  0  0  0  0  0  0  0  0  0  0  0
    7.4325   -4.0550   -0.0979 H   0  0  0  0  0  0  0  0  0  0  0  0
    7.7077   -3.1559    1.4523 H   0  0  0  0  0  0  0  0  0  0  0  0
    7.7217   -0.3698    0.1107 H   0  0  0  0  0  0  0  0  0  0  0  0
    5.9748   -0.0786    0.2697 H   0  0  0  0  0  0  0  0  0  0  0  0
    6.8990   -0.8162    1.6425 H   0  0  0  0  0  0  0  0  0  0  0  0
    4.6528   -1.3114   -1.3694 H   0  0  0  0  0  0  0  0  0  0  0  0
    3.0317   -3.6056   -0.8833 H   0  0  0  0  0  0  0  0  0  0  0  0
    1.7542    2.8895    1.6648 H   0  0  0  0  0  0  0  0  0  0  0  0
    3.0317    1.7962    1.0682 H   0  0  0  0  0  0  0  0  0  0  0  0
    1.6018    1.1315    1.9661 H   0  0  0  0  0  0  0  0  0  0  0  0
    2.7871    3.0562   -0.9086 H   0  0  0  0  0  0  0  0  0  0  0  0
    1.6710    2.4410   -2.1803 H   0  0  0  0  0  0  0  0  0  0  0  0
    0.3472    5.6645   -2.1047 H   0  0  0  0  0  0  0  0  0  0  0  0
    1.1599    6.0150   -0.5170 H   0  0  0  0  0  0  0  0  0  0  0  0
    2.1013    5.3429   -1.8981 H   0  0  0  0  0  0  0  0  0  0  0  0
   -0.7105    5.3448    0.8189 H   0  0  0  0  0  0  0  0  0  0  0  0
   -2.5725    4.5225    2.2045 H   0  0  0  0  0  0  0  0  0  0  0  0
   -2.3389    2.8683    1.5081 H   0  0  0  0  0  0  0  0  0  0  0  0
   -1.0238    3.6491    2.4273 H   0  0  0  0  0  0  0  0  0  0  0  0
   -3.2426    5.3870    0.1599 H   0  0  0  0  0  0  0  0  0  0  0  0
   -1.9123    6.9760   -0.3820 H   0  0  0  0  0  0  0  0  0  0  0  0
   -1.8971    5.1086   -3.2744 H   0  0  0  0  0  0  0  0  0  0  0  0
   -2.6459    3.5543   -3.6967 H   0  0  0  0  0  0  0  0  0  0  0  0
   -1.1957    3.5961   -2.6357 H   0  0  0  0  0  0  0  0  0  0  0  0
   -4.0311    5.7516   -2.3868 H   0  0  0  0  0  0  0  0  0  0  0  0
  1  2  1  0
  2  3  1  0
  3  4  1  0
  4  5  1  0
  5  6  2  0
  5  7  1  0
  7  8  1  0
  7  9  1  0
  9 10  1  0
 10 11  1  0
 11 12  1  0
 12 13  1  0
 13 14  1  0
 13 15  1  0
 15 16  1  0
 13 17  1  0
 17 18  1  0
 17 19  1  0
 19 20  1  0
 19 21  1  0
  9 22  1  0
 22 23  1  0
 22 24  1  0
 24 25  1  0
 25 26  1  0
 26 27  1  0
 27 28  1  0
 28 29  1  0
 28 30  1  0
 30 31  1  0
 31 32  1  0
 32 33  1  0
 32 34  1  0
 31 35  1  0
 35 36  1  0
 24 37  1  0
 37 38  1  1
 37 39  1  0
 39 40  1  0
 40 41  1  0
 40 42  2  0
 42 43  1  0
 42 44  1  0
 44 45  1  0
 44 46  1  0
 46 47  1  0
 46 48  1  0
 48 49  1  0
 48 50  1  6
 48  3  1  0
 21 11  1  0
 35 26  1  0
 43 37  1  0
  1 51  1  0
  1 52  1  0
  1 53  1  0
  2 54  1  0
  2 55  1  0
  3 56  1  1
  7 57  1  6
  8 58  1  0
  8 59  1  0
  8 60  1  0
  9 61  1  1
 11 62  1  1
 12 63  1  0
 12 64  1  0
 14 65  1  0
 14 66  1  0
 14 67  1  0
 16 68  1  0
 16 69  1  0
 16 70  1  0
 17 71  1  1
 18 72  1  0
 19 73  1  0
 20 74  1  0
 20 75  1  0
 20 76  1  0
 22 77  1  6
 23 78  1  0
 23 79  1  0
 23 80  1  0
 24 81  1  1
 26 82  1  1
 28 83  1  1
 29 84  1  0
 29 85  1  0
 29 86  1  0
 30 87  1  0
 30 88  1  0
 31 89  1  0
 33 90  1  0
 33 91  1  0
 33 92  1  0
 34 93  1  0
 34 94  1  0
 34 95  1  0
 35 96  1  0
 36 97  1  0
 38 98  1  0
 38 99  1  0
 38100  1  0
 39101  1  0
 39102  1  0
 41103  1  0
 41104  1  0
 41105  1  0
 44106  1  1
 45107  1  0
 45108  1  0
 45109  1  0
 46110  1  1
 47111  1  0
 49112  1  0
 49113  1  0
 49114  1  0
 50115  1  0
M  END
$$$$
