
     RDKit          3D

120123  0  0  0  0  0  0  0  0999 V2000
   -6.4031    1.7068    4.3304 C   0  0  0  0  0  0  0  0  0  0  0  0
   -6.5281    1.2334    2.8708 C   0  0  0  0  0  0  0  0  0  0  0  0
   -6.9419    2.4147    1.9817 C   0  0  0  0  0  0  0  0  0  0  0  0
   -5.2568    0.5211    2.3147 C   0  0  2  0  0  0  0  0  0  0  0  0
   -5.1073   -0.8081    2.9335 N   0  0  0  0  0  0  0  0  0  0  0  0
   -4.7402   -2.0354    2.2689 C   0  0  0  0  0  0  0  0  0  0  0  0
   -4.4163   -3.0242    2.9798 O   0  0  0  0  0  0  0  0  0  0  0  0
   -4.7454   -2.2053    0.7588 C   0  0  2  0  0  0  0  0  0  0  0  0
   -5.9852   -2.9490    0.2004 C   0  0  2  0  0  0  0  0  0  0  0  0
   -6.8131   -3.7398    1.2290 C   0  0  0  0  0  0  0  0  0  0  0  0
   -5.4254   -3.8871   -0.8790 C   0  0  0  0  0  0  0  0  0  0  0  0
   -3.9659   -4.1051   -0.5187 C   0  0  0  0  0  0  0  0  0  0  0  0
   -3.5789   -2.9625    0.3014 N   0  0  0  0  0  0  0  0  0  0  0  0
   -2.2174   -2.4756    0.3185 C   0  0  0  0  0  0  0  0  0  0  0  0
   -1.3331   -3.0873   -0.3411 O   0  0  0  0  0  0  0  0  0  0  0  0
   -1.7754   -1.3197    1.1770 C   0  0  0  0  0  0  0  0  0  0  0  0
   -1.0598   -0.3168    0.3839 N   0  0  0  0  0  0  0  0  0  0  0  0
   -1.4591    1.0731    0.3322 C   0  0  0  0  0  0  0  0  0  0  0  0
   -0.5861    2.0449    0.3637 N   0  0  0  0  0  0  0  0  0  0  0  0
    0.8867    2.0346    0.4396 C   0  0  2  0  0  0  0  0  0  0  0  0
    1.4750    1.2558   -0.7309 C   0  0  0  0  0  0  0  0  0  0  0  0
    0.7310    1.0000   -1.7169 O   0  0  0  0  0  0  0  0  0  0  0  0
    2.8694    0.9404   -0.8257 N   0  0  0  0  0  0  0  0  0  0  0  0
    3.3778   -0.0764   -1.7520 C   0  0  0  0  0  0  0  0  0  0  0  0
    3.8022   -1.2879   -0.9604 C   0  0  0  0  0  0  0  0  0  0  0  0
    2.9759   -2.2325   -0.8160 O   0  0  0  0  0  0  0  0  0  0  0  0
    5.0711   -1.3504   -0.2882 N   0  0  0  0  0  0  0  0  0  0  0  0
    5.4872   -2.5471    0.4587 C   0  0  2  0  0  0  0  0  0  0  0  0
    6.7670   -2.2919    1.2840 C   0  0  0  0  0  0  0  0  0  0  0  0
    7.9356   -1.7854    0.4771 C   0  0  0  0  0  0  0  0  0  0  0  0
    8.2662   -2.3657   -0.5935 O   0  0  0  0  0  0  0  0  0  0  0  0
    8.7044   -0.6709    0.9512 N   0  0  0  0  0  0  0  0  0  0  0  0
    9.7937   -0.1626    0.2237 N   0  0  0  0  0  0  0  0  0  0  0  0
    5.6558   -3.7290   -0.4616 C   0  0  0  0  0  0  0  0  0  0  0  0
    5.9451   -3.6300   -1.7778 N   0  0  0  0  0  0  0  0  0  0  0  0
    6.0969   -4.8512   -2.3608 C   0  0  0  0  0  0  0  0  0  0  0  0
    5.9482   -5.9363   -1.5048 C   0  0  0  0  0  0  0  0  0  0  0  0
    5.6020   -5.3373    0.0293 S   0  0  0  0  0  0  0  0  0  0  0  0
    4.4813    0.5351   -2.6559 C   0  0  1  0  0  0  0  0  0  0  0  0
    5.1404   -0.5028   -3.5760 C   0  0  0  0  0  0  0  0  0  0  0  0
    3.9019    1.6838   -3.4700 C   0  0  0  0  0  0  0  0  0  0  0  0
    4.2571    3.0141   -3.1671 C   0  0  0  0  0  0  0  0  0  0  0  0
    3.6936    4.0765   -3.8813 C   0  0  0  0  0  0  0  0  0  0  0  0
    2.7687    3.8281   -4.8962 C   0  0  0  0  0  0  0  0  0  0  0  0
    2.4010    2.5153   -5.2002 C   0  0  0  0  0  0  0  0  0  0  0  0
    2.9601    1.4478   -4.4907 C   0  0  0  0  0  0  0  0  0  0  0  0
    1.4110    1.7544    1.9121 C   0  0  0  0  0  0  0  0  0  0  0  0
    1.3994    0.2589    2.2802 C   0  0  0  0  0  0  0  0  0  0  0  0
    0.5065    2.5103    2.9235 C   0  0  0  0  0  0  0  0  0  0  0  0
    2.8544    2.2905    2.1160 C   0  0  0  0  0  0  0  0  0  0  0  0
   -2.9307    1.4343    0.2066 C   0  0  2  0  0  0  0  0  0  0  0  0
   -3.3002    2.2743   -1.0724 C   0  0  0  0  0  0  0  0  0  0  0  0
   -4.8343    2.4491   -1.1376 C   0  0  0  0  0  0  0  0  0  0  0  0
   -2.8620    1.5072   -2.3414 C   0  0  0  0  0  0  0  0  0  0  0  0
   -2.6550    3.6838   -1.0984 C   0  0  0  0  0  0  0  0  0  0  0  0
   -3.3908    2.0767    1.4453 N   0  0  0  0  0  0  0  0  0  0  0  0
   -3.9899    1.3336    2.5157 C   0  0  0  0  0  0  0  0  0  0  0  0
   -3.4653    1.3906    3.6577 O   0  0  0  0  0  0  0  0  0  0  0  0
   -6.1158    0.8784    5.0037 H   0  0  0  0  0  0  0  0  0  0  0  0
   -7.3783    2.0968    4.6832 H   0  0  0  0  0  0  0  0  0  0  0  0
   -5.6584    2.5253    4.4271 H   0  0  0  0  0  0  0  0  0  0  0  0
   -7.3597    0.4973    2.8349 H   0  0  0  0  0  0  0  0  0  0  0  0
   -7.1195    2.0679    0.9422 H   0  0  0  0  0  0  0  0  0  0  0  0
   -6.1565    3.2004    1.9750 H   0  0  0  0  0  0  0  0  0  0  0  0
   -7.8913    2.8574    2.3539 H   0  0  0  0  0  0  0  0  0  0  0  0
   -5.4438    0.4115    1.2362 H   0  0  0  0  0  0  0  0  0  0  0  0
   -5.0993   -0.8473    3.9762 H   0  0  0  0  0  0  0  0  0  0  0  0
   -4.7055   -1.2432    0.2377 H   0  0  0  0  0  0  0  0  0  0  0  0
   -6.6661   -2.2110   -0.2791 H   0  0  0  0  0  0  0  0  0  0  0  0
   -6.2016   -4.5263    1.7176 H   0  0  0  0  0  0  0  0  0  0  0  0
   -7.6686   -4.2314    0.7220 H   0  0  0  0  0  0  0  0  0  0  0  0
   -7.2250   -3.0523    1.9982 H   0  0  0  0  0  0  0  0  0  0  0  0
   -5.4798   -3.3794   -1.8671 H   0  0  0  0  0  0  0  0  0  0  0  0
   -5.9735   -4.8526   -0.9518 H   0  0  0  0  0  0  0  0  0  0  0  0
   -3.8472   -5.0343    0.0780 H   0  0  0  0  0  0  0  0  0  0  0  0
   -3.3539   -4.1740   -1.4451 H   0  0  0  0  0  0  0  0  0  0  0  0
   -2.6023   -0.8485    1.7185 H   0  0  0  0  0  0  0  0  0  0  0  0
   -1.0962   -1.7247    1.9538 H   0  0  0  0  0  0  0  0  0  0  0  0
   -0.1477   -0.6135   -0.0157 H   0  0  0  0  0  0  0  0  0  0  0  0
    1.1774    3.0862    0.2223 H   0  0  0  0  0  0  0  0  0  0  0  0
    3.5633    1.4904   -0.2885 H   0  0  0  0  0  0  0  0  0  0  0  0
    2.5637   -0.4201   -2.4250 H   0  0  0  0  0  0  0  0  0  0  0  0
    5.7128   -0.5262   -0.3430 H   0  0  0  0  0  0  0  0  0  0  0  0
    4.6805   -2.8029    1.1832 H   0  0  0  0  0  0  0  0  0  0  0  0
    6.5171   -1.5499    2.0735 H   0  0  0  0  0  0  0  0  0  0  0  0
    7.0688   -3.2245    1.8046 H   0  0  0  0  0  0  0  0  0  0  0  0
    8.4549   -0.2188    1.8601 H   0  0  0  0  0  0  0  0  0  0  0  0
    9.4347    0.1481   -0.7095 H   0  0  0  0  0  0  0  0  0  0  0  0
   10.4644   -0.9488    0.0574 H   0  0  0  0  0  0  0  0  0  0  0  0
    6.3479   -4.9581   -3.4102 H   0  0  0  0  0  0  0  0  0  0  0  0
    6.0560   -6.9769   -1.7768 H   0  0  0  0  0  0  0  0  0  0  0  0
    5.2859    0.9395   -2.0052 H   0  0  0  0  0  0  0  0  0  0  0  0
    4.3818   -1.0844   -4.1371 H   0  0  0  0  0  0  0  0  0  0  0  0
    5.7589   -1.2080   -2.9828 H   0  0  0  0  0  0  0  0  0  0  0  0
    5.8129    0.0038   -4.3052 H   0  0  0  0  0  0  0  0  0  0  0  0
    4.9617    3.2287   -2.3724 H   0  0  0  0  0  0  0  0  0  0  0  0
    3.9676    5.0958   -3.6377 H   0  0  0  0  0  0  0  0  0  0  0  0
    2.3294    4.6523   -5.4430 H   0  0  0  0  0  0  0  0  0  0  0  0
    1.6836    2.3230   -5.9866 H   0  0  0  0  0  0  0  0  0  0  0  0
    2.6547    0.4399   -4.7375 H   0  0  0  0  0  0  0  0  0  0  0  0
    0.3716   -0.0883    2.4796 H   0  0  0  0  0  0  0  0  0  0  0  0
    1.8571   -0.3583    1.4807 H   0  0  0  0  0  0  0  0  0  0  0  0
    1.9705    0.0855    3.2206 H   0  0  0  0  0  0  0  0  0  0  0  0
   -0.5358    2.1237    2.9070 H   0  0  0  0  0  0  0  0  0  0  0  0
    0.4831    3.5973    2.6805 H   0  0  0  0  0  0  0  0  0  0  0  0
    0.8803    2.3907    3.9648 H   0  0  0  0  0  0  0  0  0  0  0  0
    3.6196    1.5394    1.8355 H   0  0  0  0  0  0  0  0  0  0  0  0
    3.0300    3.2299    1.5475 H   0  0  0  0  0  0  0  0  0  0  0  0
    3.0574    2.5160    3.1877 H   0  0  0  0  0  0  0  0  0  0  0  0
   -3.4727    0.4861    0.0818 H   0  0  0  0  0  0  0  0  0  0  0  0
   -5.3484    1.4658   -1.0971 H   0  0  0  0  0  0  0  0  0  0  0  0
   -5.1347    2.9559   -2.0802 H   0  0  0  0  0  0  0  0  0  0  0  0
   -5.1879    3.0741   -0.2915 H   0  0  0  0  0  0  0  0  0  0  0  0
   -3.1793    2.0490   -3.2609 H   0  0  0  0  0  0  0  0  0  0  0  0
   -1.7589    1.4027   -2.3800 H   0  0  0  0  0  0  0  0  0  0  0  0
   -3.3094    0.4913   -2.3621 H   0  0  0  0  0  0  0  0  0  0  0  0
   -2.8782    4.2507   -0.1713 H   0  0  0  0  0  0  0  0  0  0  0  0
   -3.0543    4.2717   -1.9510 H   0  0  0  0  0  0  0  0  0  0  0  0
   -1.5557    3.6349   -1.2397 H   0  0  0  0  0  0  0  0  0  0  0  0
   -2.9422    2.9807    1.7092 H   0  0  0  0  0  0  0  0  0  0  0  0
  1  2  1  0
  2  3  1  0
  2  4  1  0
  4  5  1  0
  5  6  1  0
  6  7  2  0
  6  8  1  0
  8  9  1  0
  9 10  1  0
  9 11  1  0
 11 12  1  0
 12 13  1  0
 13 14  1  0
 14 15  2  0
 14 16  1  0
 16 17  1  0
 17 18  1  0
 18 19  2  0
 19 20  1  0
 20 21  1  0
 21 22  2  0
 21 23  1  0
 23 24  1  0
 24 25  1  0
 25 26  2  0
 25 27  1  0
 27 28  1  0
 28 29  1  0
 29 30  1  0
 30 31  2  0
 30 32  1  0
 32 33  1  0
 28 34  1  0
 34 35  2  0
 35 36  1  0
 36 37  2  0
 37 38  1  0
 24 39  1  0
 39 40  1  0
 39 41  1  0
 41 42  2  0
 42 43  1  0
 43 44  2  0
 44 45  1  0
 45 46  2  0
 20 47  1  0
 47 48  1  0
 47 49  1  0
 47 50  1  0
 18 51  1  0
 51 52  1  0
 52 53  1  0
 52 54  1  0
 52 55  1  0
 51 56  1  0
 56 57  1  0
 57 58  2  0
 57  4  1  0
 13  8  1  0
 38 34  1  0
 46 41  1  0
  1 59  1  0
  1 60  1  0
  1 61  1  0
  2 62  1  0
  3 63  1  0
  3 64  1  0
  3 65  1  0
  4 66  1  6
  5 67  1  0
  8 68  1  6
  9 69  1  6
 10 70  1  0
 10 71  1  0
 10 72  1  0
 11 73  1  0
 11 74  1  0
 12 75  1  0
 12 76  1  0
 16 77  1  0
 16 78  1  0
 17 79  1  0
 20 80  1  6
 23 81  1  0
 24 82  1  0
 27 83  1  0
 28 84  1  1
 29 85  1  0
 29 86  1  0
 32 87  1  0
 33 88  1  0
 33 89  1  0
 36 90  1  0
 37 91  1  0
 39 92  1  1
 40 93  1  0
 40 94  1  0
 40 95  1  0
 42 96  1  0
 43 97  1  0
 44 98  1  0
 45 99  1  0
 46100  1  0
 48101  1  0
 48102  1  0
 48103  1  0
 49104  1  0
 49105  1  0
 49106  1  0
 50107  1  0
 50108  1  0
 50109  1  0
 51110  1  6
 53111  1  0
 53112  1  0
 53113  1  0
 54114  1  0
 54115  1  0
 54116  1  0
 55117  1  0
 55118  1  0
 55119  1  0
 56120  1  0
M  END
$$$$
