
     RDKit          3D

 80 83  0  0  0  0  0  0  0  0999 V2000
   -3.9273   -1.7888   -3.1301 C   0  0  0  0  0  0  0  0  0  0  0  0
   -3.8640   -2.5845   -1.8178 C   0  0  0  0  0  0  0  0  0  0  0  0
   -3.0600   -3.8753   -2.0338 C   0  0  0  0  0  0  0  0  0  0  0  0
   -3.2957   -1.7793   -0.6143 C   0  0  0  0  0  0  0  0  0  0  0  0
   -4.2192   -0.6525   -0.1259 C   0  0  0  0  0  0  0  0  0  0  0  0
   -5.4513   -1.1702    0.3711 O   0  0  0  0  0  0  0  0  0  0  0  0
   -6.5275   -0.3340    0.6971 C   0  0  0  0  0  0  0  0  0  0  0  0
   -7.7678   -0.5935    0.1019 C   0  0  0  0  0  0  0  0  0  0  0  0
   -8.8510    0.2608    0.3201 C   0  0  0  0  0  0  0  0  0  0  0  0
   -8.7063    1.3768    1.1463 C   0  0  0  0  0  0  0  0  0  0  0  0
   -7.4853    1.6274    1.7768 C   0  0  0  0  0  0  0  0  0  0  0  0
   -6.3921    0.7706    1.5733 C   0  0  0  0  0  0  0  0  0  0  0  0
   -5.1739    0.9705    2.3804 C   0  0  0  0  0  0  0  0  0  0  0  0
   -4.8090    0.0536    3.1640 O   0  0  0  0  0  0  0  0  0  0  0  0
   -4.3935    2.1740    2.3004 N   0  0  0  0  0  0  0  0  0  0  0  0
   -4.3816    3.0603    1.1351 C   0  0  0  0  0  0  0  0  0  0  0  0
   -3.3085    2.6575    0.1565 C   0  0  0  0  0  0  0  0  0  0  0  0
   -2.0108    2.6335    0.5008 C   0  0  0  0  0  0  0  0  0  0  0  0
   -0.9072    2.3713   -0.5030 C   0  0  0  0  0  0  0  0  0  0  0  0
   -0.4903    0.8662   -0.6257 C   0  0  0  0  0  0  0  0  0  0  0  0
    0.7292    0.7531   -1.5868 C   0  0  0  0  0  0  0  0  0  0  0  0
    2.0635    1.0286   -0.8709 C   0  0  0  0  0  0  0  0  0  0  0  0
    2.3224    0.1168    0.2785 N   0  0  0  0  0  0  0  0  0  0  0  0
    3.4107   -0.8439   -0.0075 C   0  0  0  0  0  0  0  0  0  0  0  0
    4.7677   -0.2067    0.1222 C   0  0  0  0  0  0  0  0  0  0  0  0
    4.8769    1.0449    0.2364 O   0  0  0  0  0  0  0  0  0  0  0  0
    5.9382   -1.0359    0.0531 N   0  0  0  0  0  0  0  0  0  0  0  0
    7.2644   -0.6107    0.4140 C   0  0  0  0  0  0  0  0  0  0  0  0
    8.3699   -1.2234   -0.1951 C   0  0  0  0  0  0  0  0  0  0  0  0
    9.6717   -0.8586    0.1608 C   0  0  0  0  0  0  0  0  0  0  0  0
    9.8889    0.1210    1.1482 C   0  0  0  0  0  0  0  0  0  0  0  0
   11.1736    0.5179    1.5499 O   0  0  0  0  0  0  0  0  0  0  0  0
   12.3879   -0.0447    1.0605 C   0  0  0  0  0  0  0  0  0  0  0  0
   12.4613   -1.3826    1.4049 F   0  0  0  0  0  0  0  0  0  0  0  0
   13.4553    0.6235    1.6275 F   0  0  0  0  0  0  0  0  0  0  0  0
    8.7863    0.7227    1.7649 C   0  0  0  0  0  0  0  0  0  0  0  0
    7.4848    0.3555    1.4124 C   0  0  0  0  0  0  0  0  0  0  0  0
    1.1204   -0.5981    0.7651 C   0  0  0  0  0  0  0  0  0  0  0  0
   -0.1070    0.3244    0.7944 C   0  0  0  0  0  0  0  0  0  0  0  0
   -1.6357    0.0749   -1.2592 C   0  0  0  0  0  0  0  0  0  0  0  0
   -2.2885    0.5970   -2.2037 O   0  0  0  0  0  0  0  0  0  0  0  0
   -1.9339   -1.2800   -0.8681 N   0  0  0  0  0  0  0  0  0  0  0  0
   -4.4201   -2.4005   -3.9161 H   0  0  0  0  0  0  0  0  0  0  0  0
   -4.5262   -0.8641   -3.0091 H   0  0  0  0  0  0  0  0  0  0  0  0
   -2.9084   -1.5313   -3.4874 H   0  0  0  0  0  0  0  0  0  0  0  0
   -4.9036   -2.8902   -1.5647 H   0  0  0  0  0  0  0  0  0  0  0  0
   -3.0373   -4.4796   -1.1014 H   0  0  0  0  0  0  0  0  0  0  0  0
   -3.5323   -4.4918   -2.8284 H   0  0  0  0  0  0  0  0  0  0  0  0
   -2.0164   -3.6443   -2.3386 H   0  0  0  0  0  0  0  0  0  0  0  0
   -3.2283   -2.4897    0.2415 H   0  0  0  0  0  0  0  0  0  0  0  0
   -3.6804   -0.1210    0.6809 H   0  0  0  0  0  0  0  0  0  0  0  0
   -4.4322    0.0705   -0.9389 H   0  0  0  0  0  0  0  0  0  0  0  0
   -7.8816   -1.4440   -0.5583 H   0  0  0  0  0  0  0  0  0  0  0  0
   -9.8017    0.0609   -0.1570 H   0  0  0  0  0  0  0  0  0  0  0  0
   -9.5472    2.0376    1.3135 H   0  0  0  0  0  0  0  0  0  0  0  0
   -7.4008    2.4729    2.4492 H   0  0  0  0  0  0  0  0  0  0  0  0
   -3.6474    2.3140    3.0193 H   0  0  0  0  0  0  0  0  0  0  0  0
   -4.1914    4.1013    1.4739 H   0  0  0  0  0  0  0  0  0  0  0  0
   -5.3663    3.0568    0.6245 H   0  0  0  0  0  0  0  0  0  0  0  0
   -3.6001    2.4520   -0.8683 H   0  0  0  0  0  0  0  0  0  0  0  0
   -1.7250    2.8816    1.5196 H   0  0  0  0  0  0  0  0  0  0  0  0
   -0.0306    2.9694   -0.1758 H   0  0  0  0  0  0  0  0  0  0  0  0
   -1.1941    2.7879   -1.4943 H   0  0  0  0  0  0  0  0  0  0  0  0
    0.6196    1.4550   -2.4427 H   0  0  0  0  0  0  0  0  0  0  0  0
    0.7874   -0.2704   -2.0223 H   0  0  0  0  0  0  0  0  0  0  0  0
    2.0686    2.0715   -0.4926 H   0  0  0  0  0  0  0  0  0  0  0  0
    2.8780    0.9832   -1.6283 H   0  0  0  0  0  0  0  0  0  0  0  0
    3.3865   -1.6870    0.7182 H   0  0  0  0  0  0  0  0  0  0  0  0
    3.2955   -1.2815   -1.0239 H   0  0  0  0  0  0  0  0  0  0  0  0
    5.8234   -1.9995   -0.3368 H   0  0  0  0  0  0  0  0  0  0  0  0
    8.2213   -1.9832   -0.9525 H   0  0  0  0  0  0  0  0  0  0  0  0
   10.4996   -1.3470   -0.3345 H   0  0  0  0  0  0  0  0  0  0  0  0
   12.4447    0.0659   -0.0428 H   0  0  0  0  0  0  0  0  0  0  0  0
    8.9404    1.4692    2.5341 H   0  0  0  0  0  0  0  0  0  0  0  0
    6.6576    0.8059    1.9437 H   0  0  0  0  0  0  0  0  0  0  0  0
    0.9161   -1.4901    0.1348 H   0  0  0  0  0  0  0  0  0  0  0  0
    1.3086   -0.9574    1.8011 H   0  0  0  0  0  0  0  0  0  0  0  0
   -0.9627   -0.1982    1.2742 H   0  0  0  0  0  0  0  0  0  0  0  0
    0.1525    1.1642    1.4772 H   0  0  0  0  0  0  0  0  0  0  0  0
   -1.1512   -1.8891   -0.5505 H   0  0  0  0  0  0  0  0  0  0  0  0
  1  2  1  0
  2  3  1  0
  2  4  1  0
  4  5  1  0
  5  6  1  0
  6  7  1  0
  7  8  2  0
  8  9  1  0
  9 10  2  0
 10 11  1  0
 11 12  2  0
 12 13  1  0
 13 14  2  0
 13 15  1  0
 15 16  1  0
 16 17  1  0
 17 18  2  0
 18 19  1  0
 19 20  1  0
 20 21  1  0
 21 22  1  0
 22 23  1  0
 23 24  1  0
 24 25  1  0
 25 26  2  0
 25 27  1  0
 27 28  1  0
 28 29  2  0
 29 30  1  0
 30 31  2  0
 31 32  1  0
 32 33  1  0
 33 34  1  0
 33 35  1  0
 31 36  1  0
 36 37  2  0
 23 38  1  0
 38 39  1  0
 20 40  1  0
 40 41  2  0
 40 42  1  0
 42  4  1  0
 12  7  1  0
 39 20  1  0
 37 28  1  0
  1 43  1  0
  1 44  1  0
  1 45  1  0
  2 46  1  0
  3 47  1  0
  3 48  1  0
  3 49  1  0
  4 50  1  0
  5 51  1  0
  5 52  1  0
  8 53  1  0
  9 54  1  0
 10 55  1  0
 11 56  1  0
 15 57  1  0
 16 58  1  0
 16 59  1  0
 17 60  1  0
 18 61  1  0
 19 62  1  0
 19 63  1  0
 21 64  1  0
 21 65  1  0
 22 66  1  0
 22 67  1  0
 24 68  1  0
 24 69  1  0
 27 70  1  0
 29 71  1  0
 30 72  1  0
 33 73  1  0
 36 74  1  0
 37 75  1  0
 38 76  1  0
 38 77  1  0
 39 78  1  0
 39 79  1  0
 42 80  1  0
M  END
$$$$
