
     RDKit          3D

 77 80  0  0  0  0  0  0  0  0999 V2000
   -6.2631    3.5864   -0.7449 C   0  0  0  0  0  0  0  0  0  0  0  0
   -5.6781    2.8832    0.4409 C   0  0  0  0  0  0  0  0  0  0  0  0
   -4.8745    3.5069    1.1895 O   0  0  0  0  0  0  0  0  0  0  0  0
   -6.0202    1.5164    0.7337 N   0  0  0  0  0  0  0  0  0  0  0  0
   -6.9774    0.7380   -0.0397 C   0  0  0  0  0  0  0  0  0  0  0  0
   -6.9429   -0.6635    0.5552 C   0  0  0  0  0  0  0  0  0  0  0  0
   -6.2941   -0.5163    1.9290 C   0  0  0  0  0  0  0  0  0  0  0  0
   -5.4809    0.7783    1.8682 C   0  0  1  0  0  0  0  0  0  0  0  0
   -4.0128    0.4879    1.6783 C   0  0  0  0  0  0  0  0  0  0  0  0
   -3.2457    0.5512    2.6783 O   0  0  0  0  0  0  0  0  0  0  0  0
   -3.4988    0.0870    0.3963 N   0  0  0  0  0  0  0  0  0  0  0  0
   -2.0833   -0.2492    0.1905 C   0  0  2  0  0  0  0  0  0  0  0  0
   -1.2971    1.0140   -0.1988 C   0  0  0  0  0  0  0  0  0  0  0  0
   -0.7850    1.6348    0.9805 O   0  0  0  0  0  0  0  0  0  0  0  0
    0.5384    2.0674    1.1312 C   0  0  0  0  0  0  0  0  0  0  0  0
    0.9463    2.3824    2.2802 O   0  0  0  0  0  0  0  0  0  0  0  0
    1.4633    2.1963   -0.0152 C   0  0  0  0  0  0  0  0  0  0  0  0
    1.1596    3.1544   -0.9922 C   0  0  0  0  0  0  0  0  0  0  0  0
    2.0277    3.3814   -2.0552 C   0  0  0  0  0  0  0  0  0  0  0  0
    3.2309    2.6846   -2.1345 C   0  0  0  0  0  0  0  0  0  0  0  0
    3.5669    1.7221   -1.1696 C   0  0  0  0  0  0  0  0  0  0  0  0
    4.8954    1.0782   -1.2694 C   0  0  0  0  0  0  0  0  0  0  0  0
    5.8374    1.2307   -0.2413 C   0  0  0  0  0  0  0  0  0  0  0  0
    7.0926    0.6264   -0.3378 C   0  0  0  0  0  0  0  0  0  0  0  0
    7.4360   -0.1250   -1.4759 C   0  0  0  0  0  0  0  0  0  0  0  0
    8.7655   -0.7661   -1.5816 C   0  0  0  0  0  0  0  0  0  0  0  0
    9.5808   -0.7074   -0.6199 O   0  0  0  0  0  0  0  0  0  0  0  0
    9.1313   -1.4360   -2.7470 O   0  0  0  0  0  0  0  0  0  0  0  0
    6.4975   -0.2576   -2.5141 C   0  0  0  0  0  0  0  0  0  0  0  0
    5.2386    0.3408   -2.4120 C   0  0  0  0  0  0  0  0  0  0  0  0
    2.6484    1.4173   -0.1261 C   0  0  0  0  0  0  0  0  0  0  0  0
    2.9013    0.2568    0.8297 C   0  0  0  0  0  0  0  0  0  0  0  0
    3.2316   -1.3436   -0.0155 S   0  0  0  0  0  0  0  0  0  0  0  0
    1.6855   -1.4884   -0.9946 C   0  0  0  0  0  0  0  0  0  0  0  0
    0.4937   -1.9756   -0.1531 C   0  0  2  0  0  0  0  0  0  0  0  0
    0.7663   -3.3391    0.4505 C   0  0  0  0  0  0  0  0  0  0  0  0
    1.1154   -4.2728   -0.3249 O   0  0  0  0  0  0  0  0  0  0  0  0
    0.5431   -3.6313    1.8483 N   0  0  0  0  0  0  0  0  0  0  0  0
    0.5072   -5.0343    2.2771 C   0  0  0  0  0  0  0  0  0  0  0  0
    0.3921   -2.5636    2.8421 C   0  0  0  0  0  0  0  0  0  0  0  0
   -0.6955   -2.0745   -1.0107 N   0  0  0  0  0  0  0  0  0  0  0  0
   -1.9168   -1.3250   -0.8648 C   0  0  0  0  0  0  0  0  0  0  0  0
   -2.8556   -1.5468   -1.6775 O   0  0  0  0  0  0  0  0  0  0  0  0
   -6.0175    3.0298   -1.6736 H   0  0  0  0  0  0  0  0  0  0  0  0
   -7.3658    3.6513   -0.6326 H   0  0  0  0  0  0  0  0  0  0  0  0
   -5.8500    4.6133   -0.8342 H   0  0  0  0  0  0  0  0  0  0  0  0
   -6.6848    0.7118   -1.1109 H   0  0  0  0  0  0  0  0  0  0  0  0
   -7.9924    1.1807    0.0641 H   0  0  0  0  0  0  0  0  0  0  0  0
   -7.9613   -1.1000    0.6311 H   0  0  0  0  0  0  0  0  0  0  0  0
   -6.3122   -1.3234   -0.0803 H   0  0  0  0  0  0  0  0  0  0  0  0
   -5.6768   -1.4078    2.1817 H   0  0  0  0  0  0  0  0  0  0  0  0
   -7.0905   -0.4131    2.6979 H   0  0  0  0  0  0  0  0  0  0  0  0
   -5.6345    1.3624    2.8035 H   0  0  0  0  0  0  0  0  0  0  0  0
   -4.1168    0.1845   -0.4394 H   0  0  0  0  0  0  0  0  0  0  0  0
   -1.6857   -0.6612    1.1382 H   0  0  0  0  0  0  0  0  0  0  0  0
   -0.4726    0.7485   -0.8916 H   0  0  0  0  0  0  0  0  0  0  0  0
   -1.9471    1.7344   -0.7404 H   0  0  0  0  0  0  0  0  0  0  0  0
    0.2490    3.7385   -0.9215 H   0  0  0  0  0  0  0  0  0  0  0  0
    1.7810    4.1261   -2.8010 H   0  0  0  0  0  0  0  0  0  0  0  0
    3.9141    2.9086   -2.9459 H   0  0  0  0  0  0  0  0  0  0  0  0
    5.6043    1.8281    0.6307 H   0  0  0  0  0  0  0  0  0  0  0  0
    7.7987    0.7534    0.4745 H   0  0  0  0  0  0  0  0  0  0  0  0
   10.0416   -1.8766   -2.8298 H   0  0  0  0  0  0  0  0  0  0  0  0
    6.7329   -0.8282   -3.4041 H   0  0  0  0  0  0  0  0  0  0  0  0
    4.5252    0.2184   -3.2175 H   0  0  0  0  0  0  0  0  0  0  0  0
    2.0590    0.0906    1.5251 H   0  0  0  0  0  0  0  0  0  0  0  0
    3.7726    0.5005    1.4698 H   0  0  0  0  0  0  0  0  0  0  0  0
    1.4433   -0.5199   -1.4770 H   0  0  0  0  0  0  0  0  0  0  0  0
    1.8757   -2.2093   -1.8185 H   0  0  0  0  0  0  0  0  0  0  0  0
    0.3451   -1.2251    0.6368 H   0  0  0  0  0  0  0  0  0  0  0  0
   -0.2597   -5.5851    1.6913 H   0  0  0  0  0  0  0  0  0  0  0  0
    1.5008   -5.5032    2.1166 H   0  0  0  0  0  0  0  0  0  0  0  0
    0.2439   -5.1322    3.3511 H   0  0  0  0  0  0  0  0  0  0  0  0
    0.3798   -2.9651    3.8770 H   0  0  0  0  0  0  0  0  0  0  0  0
   -0.5629   -2.0262    2.6767 H   0  0  0  0  0  0  0  0  0  0  0  0
    1.2449   -1.8553    2.7732 H   0  0  0  0  0  0  0  0  0  0  0  0
   -0.6520   -2.7559   -1.8027 H   0  0  0  0  0  0  0  0  0  0  0  0
  1  2  1  0
  2  3  2  0
  2  4  1  0
  4  5  1  0
  5  6  1  0
  6  7  1  0
  7  8  1  0
  8  9  1  0
  9 10  2  0
  9 11  1  0
 11 12  1  0
 12 13  1  0
 13 14  1  0
 14 15  1  0
 15 16  2  0
 15 17  1  0
 17 18  2  0
 18 19  1  0
 19 20  2  0
 20 21  1  0
 21 22  1  0
 22 23  2  0
 23 24  1  0
 24 25  2  0
 25 26  1  0
 26 27  2  0
 26 28  1  0
 25 29  1  0
 29 30  2  0
 21 31  2  0
 31 32  1  0
 32 33  1  0
 33 34  1  0
 34 35  1  0
 35 36  1  0
 36 37  2  0
 36 38  1  0
 38 39  1  0
 38 40  1  0
 35 41  1  0
 41 42  1  0
 42 43  2  0
  8  4  1  0
 42 12  1  0
 31 17  1  0
 30 22  1  0
  1 44  1  0
  1 45  1  0
  1 46  1  0
  5 47  1  0
  5 48  1  0
  6 49  1  0
  6 50  1  0
  7 51  1  0
  7 52  1  0
  8 53  1  1
 11 54  1  0
 12 55  1  1
 13 56  1  0
 13 57  1  0
 18 58  1  0
 19 59  1  0
 20 60  1  0
 23 61  1  0
 24 62  1  0
 28 63  1  0
 29 64  1  0
 30 65  1  0
 32 66  1  0
 32 67  1  0
 34 68  1  0
 34 69  1  0
 35 70  1  1
 39 71  1  0
 39 72  1  0
 39 73  1  0
 40 74  1  0
 40 75  1  0
 40 76  1  0
 41 77  1  0
M  END
$$$$
