
     RDKit          3D

 88 89  0  0  0  0  0  0  0  0999 V2000
    8.1108    0.6379   -1.1077 C   0  0  0  0  0  0  0  0  0  0  0  0
    7.7319   -0.1668    0.1323 C   0  0  0  0  0  0  0  0  0  0  0  0
    7.3577   -1.6093   -0.2371 C   0  0  0  0  0  0  0  0  0  0  0  0
    7.0670   -2.4876    0.9950 C   0  0  0  0  0  0  0  0  0  0  0  0
    5.8307   -2.0665    1.8118 C   0  0  0  0  0  0  0  0  0  0  0  0
    4.5272   -2.1469    1.0000 C   0  0  0  0  0  0  0  0  0  0  0  0
    3.2656   -1.9640    1.8604 C   0  0  0  0  0  0  0  0  0  0  0  0
    3.1810   -0.6244    2.6222 C   0  0  0  0  0  0  0  0  0  0  0  0
    3.3028    0.6381    1.7473 C   0  0  0  0  0  0  0  0  0  0  0  0
    2.1702    0.8446    0.7760 C   0  0  0  0  0  0  0  0  0  0  0  0
    1.1535    0.0994    0.8092 O   0  0  0  0  0  0  0  0  0  0  0  0
    2.2388    1.9417   -0.1537 N   0  0  0  0  0  0  0  0  0  0  0  0
    1.2029    2.2879   -1.1412 C   0  0  1  0  0  0  0  0  0  0  0  0
    1.3802    1.4602   -2.4404 C   0  0  0  0  0  0  0  0  0  0  0  0
    1.1984   -0.0309   -2.2817 C   0  0  0  0  0  0  0  0  0  0  0  0
   -0.0448   -0.6332   -2.5408 C   0  0  0  0  0  0  0  0  0  0  0  0
   -0.2042   -2.0166   -2.4103 C   0  0  0  0  0  0  0  0  0  0  0  0
    0.8778   -2.8117   -2.0298 C   0  0  0  0  0  0  0  0  0  0  0  0
    2.1251   -2.2276   -1.8003 C   0  0  0  0  0  0  0  0  0  0  0  0
    2.2889   -0.8442   -1.9317 C   0  0  0  0  0  0  0  0  0  0  0  0
   -0.1890    2.2685   -0.5390 C   0  0  0  0  0  0  0  0  0  0  0  0
   -0.3250    2.4847    0.6955 O   0  0  0  0  0  0  0  0  0  0  0  0
   -1.3578    2.1360   -1.3652 N   0  0  0  0  0  0  0  0  0  0  0  0
   -2.6026    1.4827   -0.9354 C   0  0  1  0  0  0  0  0  0  0  0  0
   -2.3282    0.2475   -0.1094 C   0  0  0  0  0  0  0  0  0  0  0  0
   -2.8091   -0.9607   -0.4442 C   0  0  0  0  0  0  0  0  0  0  0  0
   -2.6097   -2.1533    0.4490 C   0  0  0  0  0  0  0  0  0  0  0  0
   -3.4676   -2.0562    1.7183 C   0  0  0  0  0  0  0  0  0  0  0  0
   -4.8775   -2.3197    1.4259 N   0  0  0  0  0  0  0  0  0  0  0  0
   -5.9143   -1.6043    2.1090 C   0  0  0  0  0  0  0  0  0  0  0  0
   -6.7267   -2.2353    2.8352 O   0  0  0  0  0  0  0  0  0  0  0  0
   -6.0518   -0.1441    1.9753 C   0  0  0  0  0  0  0  0  0  0  0  0
   -5.6898    0.4840    0.8552 C   0  0  0  0  0  0  0  0  0  0  0  0
   -5.8014    1.9797    0.6934 C   0  0  2  0  0  0  0  0  0  0  0  0
   -7.2676    2.4221    0.4298 C   0  0  0  0  0  0  0  0  0  0  0  0
   -7.8899    1.7823   -0.8253 C   0  0  0  0  0  0  0  0  0  0  0  0
   -7.3741    3.9497    0.3540 C   0  0  0  0  0  0  0  0  0  0  0  0
   -4.8954    2.4143   -0.3762 N   0  0  0  0  0  0  0  0  0  0  0  0
   -3.4824    2.4155   -0.1478 C   0  0  0  0  0  0  0  0  0  0  0  0
   -3.0092    3.0775    0.8117 O   0  0  0  0  0  0  0  0  0  0  0  0
    8.4363    1.6556   -0.8023 H   0  0  0  0  0  0  0  0  0  0  0  0
    7.2390    0.7291   -1.7872 H   0  0  0  0  0  0  0  0  0  0  0  0
    8.9459    0.1483   -1.6479 H   0  0  0  0  0  0  0  0  0  0  0  0
    8.5919   -0.1714    0.8358 H   0  0  0  0  0  0  0  0  0  0  0  0
    6.8741    0.3386    0.6227 H   0  0  0  0  0  0  0  0  0  0  0  0
    8.2110   -2.0686   -0.7827 H   0  0  0  0  0  0  0  0  0  0  0  0
    6.4928   -1.6140   -0.9332 H   0  0  0  0  0  0  0  0  0  0  0  0
    7.9555   -2.4794    1.6650 H   0  0  0  0  0  0  0  0  0  0  0  0
    6.9296   -3.5369    0.6550 H   0  0  0  0  0  0  0  0  0  0  0  0
    5.9771   -1.0412    2.2072 H   0  0  0  0  0  0  0  0  0  0  0  0
    5.7515   -2.7489    2.6868 H   0  0  0  0  0  0  0  0  0  0  0  0
    4.5269   -1.3945    0.1864 H   0  0  0  0  0  0  0  0  0  0  0  0
    4.4679   -3.1486    0.5213 H   0  0  0  0  0  0  0  0  0  0  0  0
    3.2222   -2.7886    2.6048 H   0  0  0  0  0  0  0  0  0  0  0  0
    2.3743   -2.0809    1.2078 H   0  0  0  0  0  0  0  0  0  0  0  0
    3.9769   -0.5957    3.3966 H   0  0  0  0  0  0  0  0  0  0  0  0
    2.2152   -0.5911    3.1724 H   0  0  0  0  0  0  0  0  0  0  0  0
    4.2669    0.6403    1.1970 H   0  0  0  0  0  0  0  0  0  0  0  0
    3.3262    1.5192    2.4235 H   0  0  0  0  0  0  0  0  0  0  0  0
    3.0964    2.5397   -0.1362 H   0  0  0  0  0  0  0  0  0  0  0  0
    1.3740    3.3466   -1.4379 H   0  0  0  0  0  0  0  0  0  0  0  0
    0.6987    1.8419   -3.2301 H   0  0  0  0  0  0  0  0  0  0  0  0
    2.4017    1.6540   -2.8333 H   0  0  0  0  0  0  0  0  0  0  0  0
   -0.8870   -0.0381   -2.8621 H   0  0  0  0  0  0  0  0  0  0  0  0
   -1.1671   -2.4729   -2.6071 H   0  0  0  0  0  0  0  0  0  0  0  0
    0.7526   -3.8821   -1.9283 H   0  0  0  0  0  0  0  0  0  0  0  0
    2.9652   -2.8495   -1.5236 H   0  0  0  0  0  0  0  0  0  0  0  0
    3.2642   -0.4081   -1.7551 H   0  0  0  0  0  0  0  0  0  0  0  0
   -1.3031    2.4489   -2.3598 H   0  0  0  0  0  0  0  0  0  0  0  0
   -3.1579    1.1913   -1.8558 H   0  0  0  0  0  0  0  0  0  0  0  0
   -1.7873    0.3568    0.8234 H   0  0  0  0  0  0  0  0  0  0  0  0
   -3.3579   -1.0924   -1.3719 H   0  0  0  0  0  0  0  0  0  0  0  0
   -2.8657   -3.0800   -0.1084 H   0  0  0  0  0  0  0  0  0  0  0  0
   -1.5363   -2.2187    0.7319 H   0  0  0  0  0  0  0  0  0  0  0  0
   -3.1125   -2.8139    2.4496 H   0  0  0  0  0  0  0  0  0  0  0  0
   -3.3426   -1.0574    2.1900 H   0  0  0  0  0  0  0  0  0  0  0  0
   -5.1183   -3.2592    1.0398 H   0  0  0  0  0  0  0  0  0  0  0  0
   -6.5031    0.4151    2.7858 H   0  0  0  0  0  0  0  0  0  0  0  0
   -5.3276   -0.0939    0.0158 H   0  0  0  0  0  0  0  0  0  0  0  0
   -5.4687    2.4524    1.6477 H   0  0  0  0  0  0  0  0  0  0  0  0
   -7.8767    2.0975    1.3016 H   0  0  0  0  0  0  0  0  0  0  0  0
   -7.7618    0.6817   -0.8165 H   0  0  0  0  0  0  0  0  0  0  0  0
   -8.9806    1.9906   -0.8480 H   0  0  0  0  0  0  0  0  0  0  0  0
   -7.4448    2.1890   -1.7567 H   0  0  0  0  0  0  0  0  0  0  0  0
   -8.4362    4.2534    0.2358 H   0  0  0  0  0  0  0  0  0  0  0  0
   -6.9848    4.4086    1.2877 H   0  0  0  0  0  0  0  0  0  0  0  0
   -6.7944    4.3448   -0.5061 H   0  0  0  0  0  0  0  0  0  0  0  0
   -5.2121    2.3317   -1.3678 H   0  0  0  0  0  0  0  0  0  0  0  0
  1  2  1  0
  2  3  1  0
  3  4  1  0
  4  5  1  0
  5  6  1  0
  6  7  1  0
  7  8  1  0
  8  9  1  0
  9 10  1  0
 10 11  2  0
 10 12  1  0
 12 13  1  0
 13 14  1  0
 14 15  1  0
 15 16  2  0
 16 17  1  0
 17 18  2  0
 18 19  1  0
 19 20  2  0
 13 21  1  0
 21 22  2  0
 21 23  1  0
 23 24  1  0
 24 25  1  0
 25 26  2  0
 26 27  1  0
 27 28  1  0
 28 29  1  0
 29 30  1  0
 30 31  2  0
 30 32  1  0
 32 33  2  0
 33 34  1  0
 34 35  1  0
 35 36  1  0
 35 37  1  0
 34 38  1  0
 38 39  1  0
 39 40  2  0
 20 15  1  0
 39 24  1  0
  1 41  1  0
  1 42  1  0
  1 43  1  0
  2 44  1  0
  2 45  1  0
  3 46  1  0
  3 47  1  0
  4 48  1  0
  4 49  1  0
  5 50  1  0
  5 51  1  0
  6 52  1  0
  6 53  1  0
  7 54  1  0
  7 55  1  0
  8 56  1  0
  8 57  1  0
  9 58  1  0
  9 59  1  0
 12 60  1  0
 13 61  1  6
 14 62  1  0
 14 63  1  0
 16 64  1  0
 17 65  1  0
 18 66  1  0
 19 67  1  0
 20 68  1  0
 23 69  1  0
 24 70  1  6
 25 71  1  0
 26 72  1  0
 27 73  1  0
 27 74  1  0
 28 75  1  0
 28 76  1  0
 29 77  1  0
 32 78  1  0
 33 79  1  0
 34 80  1  1
 35 81  1  0
 36 82  1  0
 36 83  1  0
 36 84  1  0
 37 85  1  0
 37 86  1  0
 37 87  1  0
 38 88  1  0
M  END
$$$$
