
     RDKit          3D

 59 62  0  0  0  0  0  0  0  0999 V2000
   -8.9034    0.4169    0.1486 C   0  0  0  0  0  0  0  0  0  0  0  0
   -8.1442   -0.8686    0.1239 C   0  0  0  0  0  0  0  0  0  0  0  0
   -8.6978   -2.0833   -0.0303 N   0  0  0  0  0  0  0  0  0  0  0  0
   -7.7006   -2.9272   -0.0171 O   0  0  0  0  0  0  0  0  0  0  0  0
   -6.5313   -2.3644    0.1297 N   0  0  0  0  0  0  0  0  0  0  0  0
   -6.7852   -1.0481    0.2204 C   0  0  0  0  0  0  0  0  0  0  0  0
   -5.7966   -0.0208    0.3789 N   0  0  0  0  0  0  0  0  0  0  0  0
   -4.4001   -0.2886    0.5773 C   0  0  0  0  0  0  0  0  0  0  0  0
   -3.9836   -1.4733    0.7046 O   0  0  0  0  0  0  0  0  0  0  0  0
   -3.4278    0.8491    0.7011 C   0  0  0  0  0  0  0  0  0  0  0  0
   -2.1767    0.5566   -0.0264 N   0  0  0  0  0  0  0  0  0  0  0  0
   -2.3900    0.5302   -1.4933 C   0  0  0  0  0  0  0  0  0  0  0  0
   -1.0933    0.8378   -2.2665 C   0  0  0  0  0  0  0  0  0  0  0  0
    0.0391    0.3808   -1.5532 O   0  0  0  0  0  0  0  0  0  0  0  0
    0.2197    1.0518   -0.3018 C   0  0  0  0  0  0  0  0  0  0  0  0
    1.1701    2.2614   -0.5071 C   0  0  0  0  0  0  0  0  0  0  0  0
    2.4681    1.8464   -1.1491 C   0  0  0  0  0  0  0  0  0  0  0  0
    3.5365    1.4940   -0.4223 C   0  0  0  0  0  0  0  0  0  0  0  0
    4.7425    0.8931   -1.0905 C   0  0  0  0  0  0  0  0  0  0  0  0
    5.6564    0.1827   -0.1177 C   0  0  0  0  0  0  0  0  0  0  0  0
    7.0340    0.4630   -0.1474 C   0  0  0  0  0  0  0  0  0  0  0  0
    7.9246   -0.2733    0.6334 C   0  0  0  0  0  0  0  0  0  0  0  0
    7.4563   -1.3038    1.4471 C   0  0  0  0  0  0  0  0  0  0  0  0
    6.0935   -1.5983    1.4896 C   0  0  0  0  0  0  0  0  0  0  0  0
    5.1791   -0.8650    0.7067 C   0  0  0  0  0  0  0  0  0  0  0  0
    3.7990   -1.1271    0.7479 O   0  0  0  0  0  0  0  0  0  0  0  0
    3.2070   -2.4006    0.9979 C   0  0  0  0  0  0  0  0  0  0  0  0
    1.7085   -2.2467    1.2640 C   0  0  0  0  0  0  0  0  0  0  0  0
    1.0992   -1.3009    0.3278 N   0  0  0  0  0  0  0  0  0  0  0  0
    0.8568    0.0750    0.6803 C   0  0  0  0  0  0  0  0  0  0  0  0
    1.1788    0.4878    1.8297 O   0  0  0  0  0  0  0  0  0  0  0  0
   -1.1312    1.5325    0.3152 C   0  0  0  0  0  0  0  0  0  0  0  0
   -8.6125    1.0068    1.0441 H   0  0  0  0  0  0  0  0  0  0  0  0
   -8.6758    0.9993   -0.7681 H   0  0  0  0  0  0  0  0  0  0  0  0
   -9.9947    0.2145    0.1909 H   0  0  0  0  0  0  0  0  0  0  0  0
   -6.1115    0.9752    0.3609 H   0  0  0  0  0  0  0  0  0  0  0  0
   -3.8833    1.7976    0.3375 H   0  0  0  0  0  0  0  0  0  0  0  0
   -3.2189    0.9736    1.7851 H   0  0  0  0  0  0  0  0  0  0  0  0
   -2.7392   -0.4867   -1.7769 H   0  0  0  0  0  0  0  0  0  0  0  0
   -3.1693    1.2609   -1.8125 H   0  0  0  0  0  0  0  0  0  0  0  0
   -1.1262    0.3269   -3.2515 H   0  0  0  0  0  0  0  0  0  0  0  0
   -1.0134    1.9282   -2.4727 H   0  0  0  0  0  0  0  0  0  0  0  0
    0.6892    3.0046   -1.1757 H   0  0  0  0  0  0  0  0  0  0  0  0
    1.3614    2.7786    0.4593 H   0  0  0  0  0  0  0  0  0  0  0  0
    2.4903    1.7289   -2.2264 H   0  0  0  0  0  0  0  0  0  0  0  0
    3.5112    1.5946    0.6579 H   0  0  0  0  0  0  0  0  0  0  0  0
    5.2799    1.7038   -1.6294 H   0  0  0  0  0  0  0  0  0  0  0  0
    4.4144    0.1490   -1.8481 H   0  0  0  0  0  0  0  0  0  0  0  0
    7.4229    1.2380   -0.7956 H   0  0  0  0  0  0  0  0  0  0  0  0
    8.9837   -0.0579    0.5911 H   0  0  0  0  0  0  0  0  0  0  0  0
    8.1516   -1.8756    2.0476 H   0  0  0  0  0  0  0  0  0  0  0  0
    5.7658   -2.3900    2.1463 H   0  0  0  0  0  0  0  0  0  0  0  0
    3.3653   -3.0509    0.1131 H   0  0  0  0  0  0  0  0  0  0  0  0
    3.6543   -2.8868    1.8872 H   0  0  0  0  0  0  0  0  0  0  0  0
    1.2139   -3.2360    1.1569 H   0  0  0  0  0  0  0  0  0  0  0  0
    1.5499   -1.9150    2.3141 H   0  0  0  0  0  0  0  0  0  0  0  0
    0.9361   -1.6332   -0.6484 H   0  0  0  0  0  0  0  0  0  0  0  0
   -1.0405    1.6450    1.4193 H   0  0  0  0  0  0  0  0  0  0  0  0
   -1.4123    2.5373   -0.0776 H   0  0  0  0  0  0  0  0  0  0  0  0
  1  2  1  0
  2  3  2  0
  3  4  1  0
  4  5  1  0
  5  6  2  0
  6  7  1  0
  7  8  1  0
  8  9  2  0
  8 10  1  0
 10 11  1  0
 11 12  1  0
 12 13  1  0
 13 14  1  0
 14 15  1  0
 15 16  1  0
 16 17  1  0
 17 18  2  0
 18 19  1  0
 19 20  1  0
 20 21  2  0
 21 22  1  0
 22 23  2  0
 23 24  1  0
 24 25  2  0
 25 26  1  0
 26 27  1  0
 27 28  1  0
 28 29  1  0
 29 30  1  0
 30 31  2  0
 15 32  1  0
  6  2  1  0
 32 11  1  0
 30 15  1  0
 25 20  1  0
  1 33  1  0
  1 34  1  0
  1 35  1  0
  7 36  1  0
 10 37  1  0
 10 38  1  0
 12 39  1  0
 12 40  1  0
 13 41  1  0
 13 42  1  0
 16 43  1  0
 16 44  1  0
 17 45  1  0
 18 46  1  0
 19 47  1  0
 19 48  1  0
 21 49  1  0
 22 50  1  0
 23 51  1  0
 24 52  1  0
 27 53  1  0
 27 54  1  0
 28 55  1  0
 28 56  1  0
 29 57  1  0
 32 58  1  0
 32 59  1  0
M  END
$$$$
