
     RDKit          3D

 79 81  0  0  0  0  0  0  0  0999 V2000
   -6.2978   -2.5182    0.1890 C   0  0  0  0  0  0  0  0  0  0  0  0
   -5.2969   -2.4698    1.3579 C   0  0  0  0  0  0  0  0  0  0  0  0
   -4.9125   -3.9034    1.7588 C   0  0  0  0  0  0  0  0  0  0  0  0
   -4.0161   -1.6136    1.1100 C   0  0  0  0  0  0  0  0  0  0  0  0
   -3.2330   -2.0865   -0.0389 N   0  0  0  0  0  0  0  0  0  0  0  0
   -1.8204   -2.3629   -0.0116 C   0  0  0  0  0  0  0  0  0  0  0  0
   -1.3540   -3.1845   -0.8454 O   0  0  0  0  0  0  0  0  0  0  0  0
   -0.8548   -1.6488    0.9079 C   0  0  0  0  0  0  0  0  0  0  0  0
   -0.4056   -0.2974    0.3300 C   0  0  0  0  0  0  0  0  0  0  0  0
    0.4255   -0.4416   -0.9812 C   0  0  0  0  0  0  0  0  0  0  0  0
    1.8118    0.1571   -0.9029 C   0  0  0  0  0  0  0  0  0  0  0  0
    2.2950    0.7367   -1.9139 O   0  0  0  0  0  0  0  0  0  0  0  0
    2.6389   -0.0663    0.2510 N   0  0  0  0  0  0  0  0  0  0  0  0
    3.9700    0.5300    0.4029 C   0  0  0  0  0  0  0  0  0  0  0  0
    5.1252   -0.4785    0.0999 C   0  0  0  0  0  0  0  0  0  0  0  0
    5.0225   -1.6674    1.0845 C   0  0  0  0  0  0  0  0  0  0  0  0
    4.9640   -0.9991   -1.3484 C   0  0  0  0  0  0  0  0  0  0  0  0
    6.5240    0.1694    0.2468 C   0  0  0  0  0  0  0  0  0  0  0  0
    7.6838   -0.5990   -0.0180 C   0  0  0  0  0  0  0  0  0  0  0  0
    8.9610   -0.0444    0.0952 C   0  0  0  0  0  0  0  0  0  0  0  0
    9.1163    1.2857    0.4787 C   0  0  0  0  0  0  0  0  0  0  0  0
   10.3576    1.8204    0.5861 F   0  0  0  0  0  0  0  0  0  0  0  0
    7.9935    2.0638    0.7551 C   0  0  0  0  0  0  0  0  0  0  0  0
    6.7112    1.5179    0.6438 C   0  0  0  0  0  0  0  0  0  0  0  0
   -0.3078    0.0602   -2.1567 N   0  0  0  0  0  0  0  0  0  0  0  0
   -0.7245    1.4199   -2.3987 C   0  0  0  0  0  0  0  0  0  0  0  0
   -1.0136    1.7680   -3.5748 O   0  0  0  0  0  0  0  0  0  0  0  0
   -0.8655    2.4169   -1.3227 C   0  0  0  0  0  0  0  0  0  0  0  0
    0.2814    3.1228   -0.9212 C   0  0  0  0  0  0  0  0  0  0  0  0
    0.2034    4.1199    0.0507 C   0  0  0  0  0  0  0  0  0  0  0  0
   -1.0261    4.4492    0.6144 C   0  0  0  0  0  0  0  0  0  0  0  0
   -2.1813    3.7863    0.2019 C   0  0  0  0  0  0  0  0  0  0  0  0
   -2.1276    2.7690   -0.7617 C   0  0  0  0  0  0  0  0  0  0  0  0
   -3.3580    2.1727   -1.0963 O   0  0  0  0  0  0  0  0  0  0  0  0
   -3.5698    0.9186   -1.7414 C   0  0  0  0  0  0  0  0  0  0  0  0
   -4.9535    0.3857   -1.3740 C   0  0  0  0  0  0  0  0  0  0  0  0
   -5.1861    0.4667    0.0784 N   0  0  0  0  0  0  0  0  0  0  0  0
   -6.2517    1.3239    0.6039 C   0  0  0  0  0  0  0  0  0  0  0  0
   -4.2781   -0.1231    1.0286 C   0  0  0  0  0  0  0  0  0  0  0  0
   -3.7076    0.6293    1.8649 O   0  0  0  0  0  0  0  0  0  0  0  0
   -7.1685   -3.1489    0.4697 H   0  0  0  0  0  0  0  0  0  0  0  0
   -5.8487   -2.9594   -0.7232 H   0  0  0  0  0  0  0  0  0  0  0  0
   -6.7035   -1.5156   -0.0399 H   0  0  0  0  0  0  0  0  0  0  0  0
   -5.8327   -2.0246    2.2262 H   0  0  0  0  0  0  0  0  0  0  0  0
   -5.8207   -4.4898    2.0147 H   0  0  0  0  0  0  0  0  0  0  0  0
   -4.2523   -3.8941    2.6526 H   0  0  0  0  0  0  0  0  0  0  0  0
   -4.3815   -4.4139    0.9272 H   0  0  0  0  0  0  0  0  0  0  0  0
   -3.4155   -1.7640    2.0304 H   0  0  0  0  0  0  0  0  0  0  0  0
   -3.7283   -2.3242   -0.9235 H   0  0  0  0  0  0  0  0  0  0  0  0
    0.0389   -2.2898    1.0726 H   0  0  0  0  0  0  0  0  0  0  0  0
   -1.2939   -1.4823    1.9094 H   0  0  0  0  0  0  0  0  0  0  0  0
    0.1753    0.2379    1.1102 H   0  0  0  0  0  0  0  0  0  0  0  0
   -1.3075    0.3187    0.1826 H   0  0  0  0  0  0  0  0  0  0  0  0
    0.6200   -1.5214   -1.1587 H   0  0  0  0  0  0  0  0  0  0  0  0
    2.2940   -0.6985    1.0074 H   0  0  0  0  0  0  0  0  0  0  0  0
    4.0586    0.8933    1.4503 H   0  0  0  0  0  0  0  0  0  0  0  0
    4.0558    1.4182   -0.2611 H   0  0  0  0  0  0  0  0  0  0  0  0
    5.1088   -1.3101    2.1335 H   0  0  0  0  0  0  0  0  0  0  0  0
    5.8218   -2.4164    0.9080 H   0  0  0  0  0  0  0  0  0  0  0  0
    4.0573   -2.2042    0.9709 H   0  0  0  0  0  0  0  0  0  0  0  0
    5.0287   -0.1560   -2.0699 H   0  0  0  0  0  0  0  0  0  0  0  0
    5.7454   -1.7419   -1.6109 H   0  0  0  0  0  0  0  0  0  0  0  0
    3.9878   -1.5097   -1.4850 H   0  0  0  0  0  0  0  0  0  0  0  0
    7.6110   -1.6355   -0.3162 H   0  0  0  0  0  0  0  0  0  0  0  0
    9.8325   -0.6506   -0.1167 H   0  0  0  0  0  0  0  0  0  0  0  0
    8.1149    3.0958    1.0573 H   0  0  0  0  0  0  0  0  0  0  0  0
    5.8831    2.1713    0.8732 H   0  0  0  0  0  0  0  0  0  0  0  0
   -0.4435   -0.6144   -2.9441 H   0  0  0  0  0  0  0  0  0  0  0  0
    1.2395    2.9269   -1.3800 H   0  0  0  0  0  0  0  0  0  0  0  0
    1.0964    4.6498    0.3551 H   0  0  0  0  0  0  0  0  0  0  0  0
   -1.0872    5.2284    1.3633 H   0  0  0  0  0  0  0  0  0  0  0  0
   -3.1327    4.0602    0.6410 H   0  0  0  0  0  0  0  0  0  0  0  0
   -3.4978    1.0433   -2.8423 H   0  0  0  0  0  0  0  0  0  0  0  0
   -2.8284    0.1725   -1.4111 H   0  0  0  0  0  0  0  0  0  0  0  0
   -5.0611   -0.6603   -1.7220 H   0  0  0  0  0  0  0  0  0  0  0  0
   -5.7101    0.9819   -1.9277 H   0  0  0  0  0  0  0  0  0  0  0  0
   -6.9360    1.6696   -0.1993 H   0  0  0  0  0  0  0  0  0  0  0  0
   -6.8534    0.7578    1.3456 H   0  0  0  0  0  0  0  0  0  0  0  0
   -5.8090    2.2146    1.0976 H   0  0  0  0  0  0  0  0  0  0  0  0
  1  2  1  0
  2  3  1  0
  2  4  1  0
  4  5  1  0
  5  6  1  0
  6  7  2  0
  6  8  1  0
  8  9  1  0
  9 10  1  0
 10 11  1  0
 11 12  2  0
 11 13  1  0
 13 14  1  0
 14 15  1  0
 15 16  1  0
 15 17  1  0
 15 18  1  0
 18 19  2  0
 19 20  1  0
 20 21  2  0
 21 22  1  0
 21 23  1  0
 23 24  2  0
 10 25  1  0
 25 26  1  0
 26 27  2  0
 26 28  1  0
 28 29  2  0
 29 30  1  0
 30 31  2  0
 31 32  1  0
 32 33  2  0
 33 34  1  0
 34 35  1  0
 35 36  1  0
 36 37  1  0
 37 38  1  0
 37 39  1  0
 39 40  2  0
 39  4  1  0
 24 18  1  0
 33 28  1  0
  1 41  1  0
  1 42  1  0
  1 43  1  0
  2 44  1  0
  3 45  1  0
  3 46  1  0
  3 47  1  0
  4 48  1  0
  5 49  1  0
  8 50  1  0
  8 51  1  0
  9 52  1  0
  9 53  1  0
 10 54  1  0
 13 55  1  0
 14 56  1  0
 14 57  1  0
 16 58  1  0
 16 59  1  0
 16 60  1  0
 17 61  1  0
 17 62  1  0
 17 63  1  0
 19 64  1  0
 20 65  1  0
 23 66  1  0
 24 67  1  0
 25 68  1  0
 29 69  1  0
 30 70  1  0
 31 71  1  0
 32 72  1  0
 35 73  1  0
 35 74  1  0
 36 75  1  0
 36 76  1  0
 38 77  1  0
 38 78  1  0
 38 79  1  0
M  END
$$$$
