
     RDKit          3D

 79 82  0  0  0  0  0  0  0  0999 V2000
   -4.3705    5.0246   -0.2332 C   0  0  0  0  0  0  0  0  0  0  0  0
   -3.8898    3.9983    0.8008 C   0  0  0  0  0  0  0  0  0  0  0  0
   -3.0619    4.6430    1.7353 O   0  0  0  0  0  0  0  0  0  0  0  0
   -3.0981    2.8472    0.1373 C   0  0  0  0  0  0  0  0  0  0  0  0
   -2.5695    1.9338    1.1580 N   0  0  0  0  0  0  0  0  0  0  0  0
   -1.6108    0.8948    0.8928 C   0  0  0  0  0  0  0  0  0  0  0  0
   -1.4332    0.0058    1.7697 O   0  0  0  0  0  0  0  0  0  0  0  0
   -0.7126    0.9210   -0.3249 C   0  0  0  0  0  0  0  0  0  0  0  0
   -0.3286   -0.4874   -0.8234 C   0  0  0  0  0  0  0  0  0  0  0  0
    0.8946   -0.4047   -1.6991 C   0  0  0  0  0  0  0  0  0  0  0  0
    0.7781   -0.1107   -2.9209 O   0  0  0  0  0  0  0  0  0  0  0  0
    2.1953   -0.5889   -1.1258 N   0  0  0  0  0  0  0  0  0  0  0  0
    3.4156   -0.3861   -1.9109 C   0  0  0  0  0  0  0  0  0  0  0  0
    4.7008   -0.5301   -1.0408 C   0  0  0  0  0  0  0  0  0  0  0  0
    4.6284    0.4609    0.1499 C   0  0  0  0  0  0  0  0  0  0  0  0
    4.4518    1.8414   -0.1029 C   0  0  0  0  0  0  0  0  0  0  0  0
    4.3553    2.7608    0.9436 C   0  0  0  0  0  0  0  0  0  0  0  0
    4.4391    2.3294    2.2653 C   0  0  0  0  0  0  0  0  0  0  0  0
    4.6290    0.9768    2.5441 C   0  0  0  0  0  0  0  0  0  0  0  0
    4.7224    0.5606    3.8310 F   0  0  0  0  0  0  0  0  0  0  0  0
    4.7259    0.0496    1.5019 C   0  0  0  0  0  0  0  0  0  0  0  0
    5.9394   -0.1966   -1.9124 C   0  0  0  0  0  0  0  0  0  0  0  0
    7.2634   -0.5003   -1.1709 C   0  0  0  0  0  0  0  0  0  0  0  0
    7.0793   -1.2464    0.0208 O   0  0  0  0  0  0  0  0  0  0  0  0
    6.2989   -2.3972   -0.2352 C   0  0  0  0  0  0  0  0  0  0  0  0
    4.8486   -2.0290   -0.6220 C   0  0  0  0  0  0  0  0  0  0  0  0
   -1.4366   -1.0900   -1.5744 N   0  0  0  0  0  0  0  0  0  0  0  0
   -1.8486   -2.4472   -1.3751 C   0  0  0  0  0  0  0  0  0  0  0  0
   -2.1688   -3.1550   -2.3670 O   0  0  0  0  0  0  0  0  0  0  0  0
   -1.9935   -2.9955   -0.0209 C   0  0  0  0  0  0  0  0  0  0  0  0
   -0.9493   -3.7335    0.5533 C   0  0  0  0  0  0  0  0  0  0  0  0
   -1.0648   -4.2085    1.8614 C   0  0  0  0  0  0  0  0  0  0  0  0
   -2.2227   -3.9509    2.5996 C   0  0  0  0  0  0  0  0  0  0  0  0
   -3.2740   -3.2268    2.0282 C   0  0  0  0  0  0  0  0  0  0  0  0
   -3.1717   -2.7516    0.7064 C   0  0  0  0  0  0  0  0  0  0  0  0
   -4.2128   -2.0477    0.0801 O   0  0  0  0  0  0  0  0  0  0  0  0
   -5.4114   -1.6198    0.7194 C   0  0  0  0  0  0  0  0  0  0  0  0
   -6.3223   -0.9013   -0.2863 C   0  0  0  0  0  0  0  0  0  0  0  0
   -5.5871    0.1517   -1.1318 C   0  0  0  0  0  0  0  0  0  0  0  0
   -4.9820    1.1879   -0.2972 N   0  0  0  0  0  0  0  0  0  0  0  0
   -3.9688    2.0629   -0.8104 C   0  0  0  0  0  0  0  0  0  0  0  0
   -3.7849    2.1627   -2.0557 O   0  0  0  0  0  0  0  0  0  0  0  0
   -5.0795    4.5573   -0.9478 H   0  0  0  0  0  0  0  0  0  0  0  0
   -3.5092    5.4447   -0.7944 H   0  0  0  0  0  0  0  0  0  0  0  0
   -4.8976    5.8559    0.2796 H   0  0  0  0  0  0  0  0  0  0  0  0
   -4.7819    3.5745    1.3203 H   0  0  0  0  0  0  0  0  0  0  0  0
   -3.6582    5.1343    2.3589 H   0  0  0  0  0  0  0  0  0  0  0  0
   -2.2476    3.3045   -0.4153 H   0  0  0  0  0  0  0  0  0  0  0  0
   -3.0071    1.9406    2.1082 H   0  0  0  0  0  0  0  0  0  0  0  0
    0.2054    1.4792   -0.0375 H   0  0  0  0  0  0  0  0  0  0  0  0
   -1.1806    1.4717   -1.1645 H   0  0  0  0  0  0  0  0  0  0  0  0
   -0.0665   -1.1239    0.0481 H   0  0  0  0  0  0  0  0  0  0  0  0
    2.2582   -0.8289   -0.1104 H   0  0  0  0  0  0  0  0  0  0  0  0
    3.3780    0.6196   -2.3814 H   0  0  0  0  0  0  0  0  0  0  0  0
    3.4318   -1.1195   -2.7469 H   0  0  0  0  0  0  0  0  0  0  0  0
    4.3837    2.2181   -1.1138 H   0  0  0  0  0  0  0  0  0  0  0  0
    4.2145    3.8121    0.7277 H   0  0  0  0  0  0  0  0  0  0  0  0
    4.3637    3.0452    3.0739 H   0  0  0  0  0  0  0  0  0  0  0  0
    4.8864   -0.9808    1.7757 H   0  0  0  0  0  0  0  0  0  0  0  0
    5.9116   -0.8160   -2.8372 H   0  0  0  0  0  0  0  0  0  0  0  0
    5.9296    0.8622   -2.2489 H   0  0  0  0  0  0  0  0  0  0  0  0
    7.9745   -1.0279   -1.8458 H   0  0  0  0  0  0  0  0  0  0  0  0
    7.7405    0.4642   -0.8945 H   0  0  0  0  0  0  0  0  0  0  0  0
    6.7698   -3.0194   -1.0316 H   0  0  0  0  0  0  0  0  0  0  0  0
    6.2799   -3.0214    0.6833 H   0  0  0  0  0  0  0  0  0  0  0  0
    4.1394   -2.2987    0.1885 H   0  0  0  0  0  0  0  0  0  0  0  0
    4.5674   -2.6879   -1.4727 H   0  0  0  0  0  0  0  0  0  0  0  0
   -1.7763   -0.6027   -2.4353 H   0  0  0  0  0  0  0  0  0  0  0  0
   -0.0418   -3.9243   -0.0067 H   0  0  0  0  0  0  0  0  0  0  0  0
   -0.2533   -4.7702    2.3060 H   0  0  0  0  0  0  0  0  0  0  0  0
   -2.3069   -4.3167    3.6150 H   0  0  0  0  0  0  0  0  0  0  0  0
   -4.1623   -3.0476    2.6181 H   0  0  0  0  0  0  0  0  0  0  0  0
   -5.9557   -2.4997    1.1238 H   0  0  0  0  0  0  0  0  0  0  0  0
   -5.1613   -0.9418    1.5634 H   0  0  0  0  0  0  0  0  0  0  0  0
   -7.1610   -0.4193    0.2607 H   0  0  0  0  0  0  0  0  0  0  0  0
   -6.7600   -1.6572   -0.9737 H   0  0  0  0  0  0  0  0  0  0  0  0
   -6.3062    0.6256   -1.8329 H   0  0  0  0  0  0  0  0  0  0  0  0
   -4.8001   -0.3489   -1.7378 H   0  0  0  0  0  0  0  0  0  0  0  0
   -5.2130    1.2352    0.7205 H   0  0  0  0  0  0  0  0  0  0  0  0
  1  2  1  0
  2  3  1  0
  2  4  1  0
  4  5  1  0
  5  6  1  0
  6  7  2  0
  6  8  1  0
  8  9  1  0
  9 10  1  0
 10 11  2  0
 10 12  1  0
 12 13  1  0
 13 14  1  0
 14 15  1  0
 15 16  2  0
 16 17  1  0
 17 18  2  0
 18 19  1  0
 19 20  1  0
 19 21  2  0
 14 22  1  0
 22 23  1  0
 23 24  1  0
 24 25  1  0
 25 26  1  0
  9 27  1  0
 27 28  1  0
 28 29  2  0
 28 30  1  0
 30 31  2  0
 31 32  1  0
 32 33  2  0
 33 34  1  0
 34 35  2  0
 35 36  1  0
 36 37  1  0
 37 38  1  0
 38 39  1  0
 39 40  1  0
 40 41  1  0
 41 42  2  0
 41  4  1  0
 26 14  1  0
 35 30  1  0
 21 15  1  0
  1 43  1  0
  1 44  1  0
  1 45  1  0
  2 46  1  0
  3 47  1  0
  4 48  1  0
  5 49  1  0
  8 50  1  0
  8 51  1  0
  9 52  1  0
 12 53  1  0
 13 54  1  0
 13 55  1  0
 16 56  1  0
 17 57  1  0
 18 58  1  0
 21 59  1  0
 22 60  1  0
 22 61  1  0
 23 62  1  0
 23 63  1  0
 25 64  1  0
 25 65  1  0
 26 66  1  0
 26 67  1  0
 27 68  1  0
 31 69  1  0
 32 70  1  0
 33 71  1  0
 34 72  1  0
 37 73  1  0
 37 74  1  0
 38 75  1  0
 38 76  1  0
 39 77  1  0
 39 78  1  0
 40 79  1  0
M  END
$$$$
