
     RDKit          3D

 58 60  0  0  0  0  0  0  0  0999 V2000
    4.6992   -3.2210    0.8051 C   0  0  0  0  0  0  0  0  0  0  0  0
    4.8808   -1.7133    0.9826 C   0  0  0  0  0  0  0  0  0  0  0  0
    3.6935   -0.9926    0.4989 N   0  0  0  0  0  0  0  0  0  0  0  0
    2.7463   -0.4367    1.4758 C   0  0  0  0  0  0  0  0  0  0  0  0
    2.8862    1.0830    1.5785 C   0  0  0  0  0  0  0  0  0  0  0  0
    4.1874    1.4133    1.9910 O   0  0  0  0  0  0  0  0  0  0  0  0
    3.5116   -0.7872   -0.9219 C   0  0  0  0  0  0  0  0  0  0  0  0
    4.4723   -0.9851   -1.7190 O   0  0  0  0  0  0  0  0  0  0  0  0
    2.2151   -0.3705   -1.4824 C   0  0  0  0  0  0  0  0  0  0  0  0
    2.0969    0.8550   -2.1497 C   0  0  0  0  0  0  0  0  0  0  0  0
    0.8560    1.2652   -2.6390 C   0  0  0  0  0  0  0  0  0  0  0  0
   -0.2756    0.4522   -2.4944 C   0  0  0  0  0  0  0  0  0  0  0  0
   -0.1460   -0.8273   -1.8982 C   0  0  0  0  0  0  0  0  0  0  0  0
    1.1023   -1.2150   -1.3787 C   0  0  0  0  0  0  0  0  0  0  0  0
   -1.2990   -1.8078   -1.8260 C   0  0  0  0  0  0  0  0  0  0  0  0
   -2.1794   -1.6357   -0.6052 C   0  0  0  0  0  0  0  0  0  0  0  0
   -3.5301   -2.0196   -0.6821 C   0  0  0  0  0  0  0  0  0  0  0  0
   -4.4033   -1.7686    0.3854 C   0  0  0  0  0  0  0  0  0  0  0  0
   -3.9355   -1.1267    1.5342 C   0  0  0  0  0  0  0  0  0  0  0  0
   -2.5828   -0.7632    1.6354 C   0  0  0  0  0  0  0  0  0  0  0  0
   -1.7014   -1.0656    0.5927 C   0  0  0  0  0  0  0  0  0  0  0  0
   -2.1186    0.0702    2.7605 C   0  0  0  0  0  0  0  0  0  0  0  0
   -1.2009   -0.3564    3.5109 O   0  0  0  0  0  0  0  0  0  0  0  0
   -2.6090    1.4109    2.9436 N   0  0  0  0  0  0  0  0  0  0  0  0
   -3.2362    2.1874    1.8679 C   0  0  0  0  0  0  0  0  0  0  0  0
   -2.2078    2.5743    0.8061 C   0  0  0  0  0  0  0  0  0  0  0  0
   -2.8760    3.0627   -0.3468 O   0  0  0  0  0  0  0  0  0  0  0  0
   -2.1113    2.8099   -1.5177 C   0  0  0  0  0  0  0  0  0  0  0  0
   -2.5226    1.4604   -2.1347 C   0  0  0  0  0  0  0  0  0  0  0  0
   -1.5013    0.9249   -2.9822 O   0  0  0  0  0  0  0  0  0  0  0  0
    4.6351   -3.4728   -0.2753 H   0  0  0  0  0  0  0  0  0  0  0  0
    5.5675   -3.7607    1.2414 H   0  0  0  0  0  0  0  0  0  0  0  0
    3.7724   -3.5589    1.3217 H   0  0  0  0  0  0  0  0  0  0  0  0
    5.7916   -1.3709    0.4382 H   0  0  0  0  0  0  0  0  0  0  0  0
    5.0577   -1.4979    2.0607 H   0  0  0  0  0  0  0  0  0  0  0  0
    1.7053   -0.7023    1.2002 H   0  0  0  0  0  0  0  0  0  0  0  0
    2.9208   -0.8748    2.4829 H   0  0  0  0  0  0  0  0  0  0  0  0
    2.1438    1.4595    2.3230 H   0  0  0  0  0  0  0  0  0  0  0  0
    2.6701    1.5626    0.5942 H   0  0  0  0  0  0  0  0  0  0  0  0
    4.2016    2.4049    2.0852 H   0  0  0  0  0  0  0  0  0  0  0  0
    2.9584    1.5062   -2.2632 H   0  0  0  0  0  0  0  0  0  0  0  0
    0.7682    2.2288   -3.1192 H   0  0  0  0  0  0  0  0  0  0  0  0
    1.2105   -2.1801   -0.8961 H   0  0  0  0  0  0  0  0  0  0  0  0
   -1.9113   -1.6986   -2.7493 H   0  0  0  0  0  0  0  0  0  0  0  0
   -0.9133   -2.8511   -1.8334 H   0  0  0  0  0  0  0  0  0  0  0  0
   -3.9182   -2.4791   -1.5840 H   0  0  0  0  0  0  0  0  0  0  0  0
   -5.4559   -2.0350    0.3086 H   0  0  0  0  0  0  0  0  0  0  0  0
   -4.6313   -0.8920    2.3340 H   0  0  0  0  0  0  0  0  0  0  0  0
   -0.6693   -0.7624    0.6854 H   0  0  0  0  0  0  0  0  0  0  0  0
   -2.3956    1.9027    3.8432 H   0  0  0  0  0  0  0  0  0  0  0  0
   -3.6798    3.1111    2.2935 H   0  0  0  0  0  0  0  0  0  0  0  0
   -4.0620    1.6058    1.4102 H   0  0  0  0  0  0  0  0  0  0  0  0
   -1.5716    1.6890    0.5872 H   0  0  0  0  0  0  0  0  0  0  0  0
   -1.5494    3.3685    1.2115 H   0  0  0  0  0  0  0  0  0  0  0  0
   -1.0133    2.8604   -1.3265 H   0  0  0  0  0  0  0  0  0  0  0  0
   -2.3243    3.6145   -2.2565 H   0  0  0  0  0  0  0  0  0  0  0  0
   -3.4439    1.6044   -2.7380 H   0  0  0  0  0  0  0  0  0  0  0  0
   -2.7743    0.7415   -1.3344 H   0  0  0  0  0  0  0  0  0  0  0  0
  1  2  1  0
  2  3  1  0
  3  4  1  0
  4  5  1  0
  5  6  1  0
  3  7  1  0
  7  8  2  0
  7  9  1  0
  9 10  2  0
 10 11  1  0
 11 12  2  0
 12 13  1  0
 13 14  2  0
 13 15  1  0
 15 16  1  0
 16 17  2  0
 17 18  1  0
 18 19  2  0
 19 20  1  0
 20 21  2  0
 20 22  1  0
 22 23  2  0
 22 24  1  0
 24 25  1  0
 25 26  1  0
 26 27  1  0
 27 28  1  0
 28 29  1  0
 29 30  1  0
 14  9  1  0
 21 16  1  0
 30 12  1  0
  1 31  1  0
  1 32  1  0
  1 33  1  0
  2 34  1  0
  2 35  1  0
  4 36  1  0
  4 37  1  0
  5 38  1  0
  5 39  1  0
  6 40  1  0
 10 41  1  0
 11 42  1  0
 14 43  1  0
 15 44  1  0
 15 45  1  0
 17 46  1  0
 18 47  1  0
 19 48  1  0
 21 49  1  0
 24 50  1  0
 25 51  1  0
 25 52  1  0
 26 53  1  0
 26 54  1  0
 28 55  1  0
 28 56  1  0
 29 57  1  0
 29 58  1  0
M  END
$$$$
