
     RDKit          3D

 71 73  0  0  0  0  0  0  0  0999 V2000
    5.8111   -3.0364    0.3797 C   0  0  0  0  0  0  0  0  0  0  0  0
    5.6478   -1.5511    0.0166 C   0  0  0  0  0  0  0  0  0  0  0  0
    6.9525   -1.0120   -0.5814 C   0  0  0  0  0  0  0  0  0  0  0  0
    4.4801   -1.3294   -0.9788 C   0  0  0  0  0  0  0  0  0  0  0  0
    3.0661   -1.5620   -0.3882 C   0  0  0  0  0  0  0  0  0  0  0  0
    2.0349   -1.2539   -1.3905 N   0  0  0  0  0  0  0  0  0  0  0  0
    0.7029   -1.7926   -1.3643 C   0  0  0  0  0  0  0  0  0  0  0  0
    0.1583   -2.1230   -2.4541 O   0  0  0  0  0  0  0  0  0  0  0  0
   -0.0938   -1.9151   -0.0981 C   0  0  0  0  0  0  0  0  0  0  0  0
   -0.5675   -0.5576    0.4621 C   0  0  0  0  0  0  0  0  0  0  0  0
   -1.6023    0.2376   -0.3750 C   0  0  0  0  0  0  0  0  0  0  0  0
   -2.7511   -0.6243   -0.8557 C   0  0  0  0  0  0  0  0  0  0  0  0
   -2.6098   -1.2479   -1.9463 O   0  0  0  0  0  0  0  0  0  0  0  0
   -3.9970   -0.7416   -0.1311 N   0  0  0  0  0  0  0  0  0  0  0  0
   -5.2082   -1.2250   -0.8136 C   0  0  0  0  0  0  0  0  0  0  0  0
   -5.7647   -2.4456   -0.0769 C   0  0  0  0  0  0  0  0  0  0  0  0
   -5.9736   -2.1427    1.4158 C   0  0  0  0  0  0  0  0  0  0  0  0
   -6.4309   -3.2833    2.0950 O   0  0  0  0  0  0  0  0  0  0  0  0
   -4.6834   -1.6097    2.0637 C   0  0  0  0  0  0  0  0  0  0  0  0
   -4.1401   -0.3996    1.2922 C   0  0  0  0  0  0  0  0  0  0  0  0
   -0.9689    0.9225   -1.5108 N   0  0  0  0  0  0  0  0  0  0  0  0
   -1.3201    2.2739   -1.8510 C   0  0  0  0  0  0  0  0  0  0  0  0
   -1.6452    2.5534   -3.0435 O   0  0  0  0  0  0  0  0  0  0  0  0
   -1.2729    3.3604   -0.8473 C   0  0  0  0  0  0  0  0  0  0  0  0
   -2.2447    4.3750   -0.8834 C   0  0  0  0  0  0  0  0  0  0  0  0
   -2.1764    5.4503    0.0066 C   0  0  0  0  0  0  0  0  0  0  0  0
   -1.1421    5.5252    0.9417 C   0  0  0  0  0  0  0  0  0  0  0  0
   -0.1553    4.5379    0.9730 C   0  0  0  0  0  0  0  0  0  0  0  0
   -0.1998    3.4636    0.0655 C   0  0  0  0  0  0  0  0  0  0  0  0
    0.8168    2.5059    0.0432 O   0  0  0  0  0  0  0  0  0  0  0  0
    2.2041    2.8423    0.0682 C   0  0  0  0  0  0  0  0  0  0  0  0
    3.0349    1.5775   -0.1364 C   0  0  0  0  0  0  0  0  0  0  0  0
    2.8355    0.6539    0.9795 N   0  0  0  0  0  0  0  0  0  0  0  0
    2.8474   -0.7847    0.8974 C   0  0  0  0  0  0  0  0  0  0  0  0
    2.6891   -1.4389    1.9607 O   0  0  0  0  0  0  0  0  0  0  0  0
    6.6736   -3.1655    1.0616 H   0  0  0  0  0  0  0  0  0  0  0  0
    5.9827   -3.6420   -0.5339 H   0  0  0  0  0  0  0  0  0  0  0  0
    4.9145   -3.4218    0.9063 H   0  0  0  0  0  0  0  0  0  0  0  0
    5.4577   -0.9798    0.9501 H   0  0  0  0  0  0  0  0  0  0  0  0
    7.2248   -1.5811   -1.4987 H   0  0  0  0  0  0  0  0  0  0  0  0
    6.8507    0.0626   -0.8453 H   0  0  0  0  0  0  0  0  0  0  0  0
    7.7774   -1.1042    0.1599 H   0  0  0  0  0  0  0  0  0  0  0  0
    4.5455   -0.3013   -1.3823 H   0  0  0  0  0  0  0  0  0  0  0  0
    4.6103   -2.0074   -1.8510 H   0  0  0  0  0  0  0  0  0  0  0  0
    2.9837   -2.6488   -0.1581 H   0  0  0  0  0  0  0  0  0  0  0  0
    2.3435   -0.8738   -2.3122 H   0  0  0  0  0  0  0  0  0  0  0  0
   -0.9695   -2.5773   -0.2656 H   0  0  0  0  0  0  0  0  0  0  0  0
    0.5293   -2.4197    0.6687 H   0  0  0  0  0  0  0  0  0  0  0  0
    0.3039    0.0911    0.6470 H   0  0  0  0  0  0  0  0  0  0  0  0
   -1.0038   -0.7624    1.4614 H   0  0  0  0  0  0  0  0  0  0  0  0
   -2.0110    1.0228    0.2937 H   0  0  0  0  0  0  0  0  0  0  0  0
   -5.9726   -0.4143   -0.8324 H   0  0  0  0  0  0  0  0  0  0  0  0
   -5.0086   -1.5066   -1.8690 H   0  0  0  0  0  0  0  0  0  0  0  0
   -5.0516   -3.2905   -0.1917 H   0  0  0  0  0  0  0  0  0  0  0  0
   -6.7304   -2.7423   -0.5386 H   0  0  0  0  0  0  0  0  0  0  0  0
   -6.7549   -1.3595    1.5106 H   0  0  0  0  0  0  0  0  0  0  0  0
   -5.7620   -4.0031    1.9636 H   0  0  0  0  0  0  0  0  0  0  0  0
   -4.8919   -1.3123    3.1138 H   0  0  0  0  0  0  0  0  0  0  0  0
   -3.9101   -2.4134    2.0833 H   0  0  0  0  0  0  0  0  0  0  0  0
   -3.1859   -0.0966    1.7544 H   0  0  0  0  0  0  0  0  0  0  0  0
   -4.8474    0.4525    1.3918 H   0  0  0  0  0  0  0  0  0  0  0  0
   -0.5360    0.3537   -2.2677 H   0  0  0  0  0  0  0  0  0  0  0  0
   -3.0595    4.3405   -1.6009 H   0  0  0  0  0  0  0  0  0  0  0  0
   -2.9302    6.2255   -0.0288 H   0  0  0  0  0  0  0  0  0  0  0  0
   -1.1049    6.3501    1.6453 H   0  0  0  0  0  0  0  0  0  0  0  0
    0.6358    4.6041    1.7102 H   0  0  0  0  0  0  0  0  0  0  0  0
    2.4794    3.3254    1.0346 H   0  0  0  0  0  0  0  0  0  0  0  0
    2.4231    3.5561   -0.7577 H   0  0  0  0  0  0  0  0  0  0  0  0
    2.7261    1.1232   -1.0966 H   0  0  0  0  0  0  0  0  0  0  0  0
    4.1115    1.8467   -0.2020 H   0  0  0  0  0  0  0  0  0  0  0  0
    2.8231    1.0664    1.9416 H   0  0  0  0  0  0  0  0  0  0  0  0
  1  2  1  0
  2  3  1  0
  2  4  1  0
  4  5  1  0
  5  6  1  0
  6  7  1  0
  7  8  2  0
  7  9  1  0
  9 10  1  0
 10 11  1  0
 11 12  1  0
 12 13  2  0
 12 14  1  0
 14 15  1  0
 15 16  1  0
 16 17  1  0
 17 18  1  0
 17 19  1  0
 19 20  1  0
 11 21  1  0
 21 22  1  0
 22 23  2  0
 22 24  1  0
 24 25  2  0
 25 26  1  0
 26 27  2  0
 27 28  1  0
 28 29  2  0
 29 30  1  0
 30 31  1  0
 31 32  1  0
 32 33  1  0
 33 34  1  0
 34 35  2  0
 34  5  1  0
 20 14  1  0
 29 24  1  0
  1 36  1  0
  1 37  1  0
  1 38  1  0
  2 39  1  0
  3 40  1  0
  3 41  1  0
  3 42  1  0
  4 43  1  0
  4 44  1  0
  5 45  1  0
  6 46  1  0
  9 47  1  0
  9 48  1  0
 10 49  1  0
 10 50  1  0
 11 51  1  0
 15 52  1  0
 15 53  1  0
 16 54  1  0
 16 55  1  0
 17 56  1  0
 18 57  1  0
 19 58  1  0
 19 59  1  0
 20 60  1  0
 20 61  1  0
 21 62  1  0
 25 63  1  0
 26 64  1  0
 27 65  1  0
 28 66  1  0
 31 67  1  0
 31 68  1  0
 32 69  1  0
 32 70  1  0
 33 71  1  0
M  END
$$$$
