
     RDKit          3D

 64 65  0  0  0  0  0  0  0  0999 V2000
   -3.0883   -0.0617    3.2800 C   0  0  0  0  0  0  0  0  0  0  0  0
   -3.4539   -0.2900    1.9340 O   0  0  0  0  0  0  0  0  0  0  0  0
   -2.8897    0.6924    1.0757 C   0  0  0  0  0  0  0  0  0  0  0  0
   -1.4555    0.2739    0.6480 C   0  0  0  0  0  0  0  0  0  0  0  0
   -1.2750   -1.1824    0.5209 N   0  0  0  0  0  0  0  0  0  0  0  0
   -2.0388   -1.9250   -0.4466 C   0  0  0  0  0  0  0  0  0  0  0  0
   -2.6120   -3.2632   -0.1083 C   0  0  0  0  0  0  0  0  0  0  0  0
   -2.1974   -1.4660   -1.6085 O   0  0  0  0  0  0  0  0  0  0  0  0
   -0.1736   -1.8427    1.2449 C   0  0  0  0  0  0  0  0  0  0  0  0
    1.2058   -1.3039    0.8100 C   0  0  0  0  0  0  0  0  0  0  0  0
    1.5367   -1.5966   -0.6678 C   0  0  0  0  0  0  0  0  0  0  0  0
    2.3824   -0.5353   -1.2511 N   0  0  0  0  0  0  0  0  0  0  0  0
    3.7163   -0.2548   -0.7566 C   0  0  0  0  0  0  0  0  0  0  0  0
    4.3479    0.7442   -1.1967 O   0  0  0  0  0  0  0  0  0  0  0  0
    4.3773   -1.1138    0.2479 C   0  0  0  0  0  0  0  0  0  0  0  0
    4.4807   -2.4516    0.0069 N   0  0  0  0  0  0  0  0  0  0  0  0
    5.0985   -3.2989    0.8719 C   0  0  0  0  0  0  0  0  0  0  0  0
    5.6636   -2.8059    2.0482 C   0  0  0  0  0  0  0  0  0  0  0  0
    5.5790   -1.4392    2.3269 C   0  0  0  0  0  0  0  0  0  0  0  0
    4.9355   -0.5771    1.4335 C   0  0  0  0  0  0  0  0  0  0  0  0
    4.8397    0.7770    1.7611 O   0  0  0  0  0  0  0  0  0  0  0  0
    1.8274    0.3013   -2.3309 C   0  0  0  0  0  0  0  0  0  0  0  0
    1.3238    1.6472   -1.7749 C   0  0  0  0  0  0  0  0  0  0  0  0
    0.1279    2.1846   -2.5776 C   0  0  0  0  0  0  0  0  0  0  0  0
   -0.4782    3.4531   -1.9453 C   0  0  0  0  0  0  0  0  0  0  0  0
   -1.8857    3.4983   -2.1466 O   0  0  0  0  0  0  0  0  0  0  0  0
   -2.6191    3.0538   -1.0094 C   0  0  0  0  0  0  0  0  0  0  0  0
   -3.3536    1.7291   -1.3358 C   0  0  0  0  0  0  0  0  0  0  0  0
   -4.3886    1.9566   -2.2614 O   0  0  0  0  0  0  0  0  0  0  0  0
   -3.8876    0.9362   -0.1003 C   0  0  0  0  0  0  0  0  0  0  0  0
   -5.0624    1.5266    0.3996 O   0  0  0  0  0  0  0  0  0  0  0  0
   -3.5179    0.8942    3.6485 H   0  0  0  0  0  0  0  0  0  0  0  0
   -3.5021   -0.8829    3.9052 H   0  0  0  0  0  0  0  0  0  0  0  0
   -1.9848   -0.0652    3.4067 H   0  0  0  0  0  0  0  0  0  0  0  0
   -2.7941    1.6759    1.5976 H   0  0  0  0  0  0  0  0  0  0  0  0
   -0.7675    0.6708    1.4257 H   0  0  0  0  0  0  0  0  0  0  0  0
   -1.1362    0.7587   -0.2883 H   0  0  0  0  0  0  0  0  0  0  0  0
   -2.7100   -3.3734    0.9905 H   0  0  0  0  0  0  0  0  0  0  0  0
   -1.9531   -4.0629   -0.5013 H   0  0  0  0  0  0  0  0  0  0  0  0
   -3.6204   -3.3662   -0.5605 H   0  0  0  0  0  0  0  0  0  0  0  0
   -0.3024   -1.6702    2.3345 H   0  0  0  0  0  0  0  0  0  0  0  0
   -0.1940   -2.9419    1.0853 H   0  0  0  0  0  0  0  0  0  0  0  0
    1.9790   -1.7789    1.4512 H   0  0  0  0  0  0  0  0  0  0  0  0
    1.2640   -0.2136    1.0064 H   0  0  0  0  0  0  0  0  0  0  0  0
    0.5988   -1.6942   -1.2495 H   0  0  0  0  0  0  0  0  0  0  0  0
    2.0390   -2.5813   -0.7601 H   0  0  0  0  0  0  0  0  0  0  0  0
    5.1564   -4.3556    0.6425 H   0  0  0  0  0  0  0  0  0  0  0  0
    6.1626   -3.4765    2.7372 H   0  0  0  0  0  0  0  0  0  0  0  0
    6.0167   -1.0438    3.2374 H   0  0  0  0  0  0  0  0  0  0  0  0
    4.3476    1.4540    1.1937 H   0  0  0  0  0  0  0  0  0  0  0  0
    2.6023    0.4821   -3.1062 H   0  0  0  0  0  0  0  0  0  0  0  0
    1.0083   -0.2405   -2.8504 H   0  0  0  0  0  0  0  0  0  0  0  0
    1.0215    1.5173   -0.7139 H   0  0  0  0  0  0  0  0  0  0  0  0
    2.1492    2.3908   -1.7968 H   0  0  0  0  0  0  0  0  0  0  0  0
   -0.6395    1.3907   -2.6343 H   0  0  0  0  0  0  0  0  0  0  0  0
    0.4476    2.4044   -3.6192 H   0  0  0  0  0  0  0  0  0  0  0  0
   -0.1702    3.5779   -0.8821 H   0  0  0  0  0  0  0  0  0  0  0  0
   -0.0350    4.3324   -2.4600 H   0  0  0  0  0  0  0  0  0  0  0  0
   -2.0070    2.9466   -0.0908 H   0  0  0  0  0  0  0  0  0  0  0  0
   -3.3694    3.8340   -0.7601 H   0  0  0  0  0  0  0  0  0  0  0  0
   -2.6457    1.0611   -1.8519 H   0  0  0  0  0  0  0  0  0  0  0  0
   -5.0164    2.6147   -1.8601 H   0  0  0  0  0  0  0  0  0  0  0  0
   -4.1831   -0.0618   -0.4862 H   0  0  0  0  0  0  0  0  0  0  0  0
   -4.8273    2.4372    0.7179 H   0  0  0  0  0  0  0  0  0  0  0  0
  1  2  1  0
  2  3  1  0
  3  4  1  0
  4  5  1  0
  5  6  1  0
  6  7  1  0
  6  8  2  0
  5  9  1  0
  9 10  1  0
 10 11  1  0
 11 12  1  0
 12 13  1  0
 13 14  2  0
 13 15  1  0
 15 16  2  0
 16 17  1  0
 17 18  2  0
 18 19  1  0
 19 20  2  0
 20 21  1  0
 12 22  1  0
 22 23  1  0
 23 24  1  0
 24 25  1  0
 25 26  1  0
 26 27  1  0
 27 28  1  0
 28 29  1  0
 28 30  1  0
 30 31  1  0
 30  3  1  0
 20 15  1  0
  1 32  1  0
  1 33  1  0
  1 34  1  0
  3 35  1  0
  4 36  1  0
  4 37  1  0
  7 38  1  0
  7 39  1  0
  7 40  1  0
  9 41  1  0
  9 42  1  0
 10 43  1  0
 10 44  1  0
 11 45  1  0
 11 46  1  0
 17 47  1  0
 18 48  1  0
 19 49  1  0
 21 50  1  0
 22 51  1  0
 22 52  1  0
 23 53  1  0
 23 54  1  0
 24 55  1  0
 24 56  1  0
 25 57  1  0
 25 58  1  0
 27 59  1  0
 27 60  1  0
 28 61  1  0
 29 62  1  0
 30 63  1  0
 31 64  1  0
M  END
$$$$
