
     RDKit          3D

129132  0  0  0  0  0  0  0  0999 V2000
   11.5315    1.2999   -0.1432 C   0  0  0  0  0  0  0  0  0  0  0  0
   10.7236    0.0144   -0.3484 C   0  0  0  0  0  0  0  0  0  0  0  0
   11.4327   -1.1723    0.3158 C   0  0  0  0  0  0  0  0  0  0  0  0
    9.3744    0.1766    0.2049 N   0  0  0  0  0  0  0  0  0  0  0  0
    8.3722    0.9840   -0.4317 C   0  0  0  0  0  0  0  0  0  0  0  0
    8.6465    1.6312   -1.4798 O   0  0  0  0  0  0  0  0  0  0  0  0
    7.0525    1.0477    0.1254 N   0  0  0  0  0  0  0  0  0  0  0  0
    5.9948    1.8926   -0.4431 C   0  0  0  0  0  0  0  0  0  0  0  0
    4.9977    1.0660   -1.2765 C   0  0  0  0  0  0  0  0  0  0  0  0
    4.3531    0.0372   -0.4555 N   0  0  0  0  0  0  0  0  0  0  0  0
    3.1383    0.3101    0.2558 C   0  0  0  0  0  0  0  0  0  0  0  0
    2.9059    1.4946    0.6223 O   0  0  0  0  0  0  0  0  0  0  0  0
    2.1041   -0.7774    0.5272 C   0  0  0  0  0  0  0  0  0  0  0  0
    1.0039   -0.2268    1.3443 N   0  0  0  0  0  0  0  0  0  0  0  0
    0.0902    0.7415    0.8072 C   0  0  0  0  0  0  0  0  0  0  0  0
    0.1630    1.0500   -0.4187 O   0  0  0  0  0  0  0  0  0  0  0  0
   -0.9553    1.4056    1.6893 C   0  0  0  0  0  0  0  0  0  0  0  0
   -2.1270    1.8040    0.8926 N   0  0  0  0  0  0  0  0  0  0  0  0
   -2.8721    1.0333    0.1433 C   0  0  0  0  0  0  0  0  0  0  0  0
   -2.6056   -0.3760    0.0429 N   0  0  0  0  0  0  0  0  0  0  0  0
   -2.9465   -1.2874    1.1391 C   0  0  0  0  0  0  0  0  0  0  0  0
   -3.2770   -2.6554    0.6082 C   0  0  0  0  0  0  0  0  0  0  0  0
   -2.3519   -3.3547    0.1144 O   0  0  0  0  0  0  0  0  0  0  0  0
   -4.6038   -3.2053    0.7086 N   0  0  0  0  0  0  0  0  0  0  0  0
   -4.8213   -4.6064    1.0301 C   0  0  0  0  0  0  0  0  0  0  0  0
   -6.3310   -4.8022    0.9870 C   0  0  0  0  0  0  0  0  0  0  0  0
   -6.8533   -3.6732    0.0970 C   0  0  1  0  0  0  0  0  0  0  0  0
   -8.3163   -3.3190    0.4078 C   0  0  0  0  0  0  0  0  0  0  0  0
   -5.8139   -2.5380    0.2332 C   0  0  1  0  0  0  0  0  0  0  0  0
   -6.2068   -1.4484    1.1989 C   0  0  0  0  0  0  0  0  0  0  0  0
   -6.3037   -1.7201    2.4297 O   0  0  0  0  0  0  0  0  0  0  0  0
   -6.3513   -0.0866    0.7671 N   0  0  0  0  0  0  0  0  0  0  0  0
   -7.0467    0.2795   -0.4777 C   0  0  1  0  0  0  0  0  0  0  0  0
   -8.0713    1.4351   -0.2378 C   0  0  0  0  0  0  0  0  0  0  0  0
   -7.4395    2.7649    0.2096 C   0  0  0  0  0  0  0  0  0  0  0  0
   -8.9763    1.6709   -1.4613 C   0  0  0  0  0  0  0  0  0  0  0  0
   -6.0839    0.5021   -1.6325 C   0  0  0  0  0  0  0  0  0  0  0  0
   -6.5394    0.4677   -2.8080 O   0  0  0  0  0  0  0  0  0  0  0  0
   -4.6587    0.5917   -1.4563 N   0  0  0  0  0  0  0  0  0  0  0  0
   -4.0026    1.6465   -0.6718 C   0  0  0  0  0  0  0  0  0  0  0  0
   -3.5448    2.8535   -1.5947 C   0  0  0  0  0  0  0  0  0  0  0  0
   -2.1356    2.6239   -2.1905 C   0  0  0  0  0  0  0  0  0  0  0  0
   -4.5119    3.0700   -2.7859 C   0  0  0  0  0  0  0  0  0  0  0  0
   -3.5346    4.1626   -0.7727 C   0  0  0  0  0  0  0  0  0  0  0  0
   -0.3936    2.6567    2.4507 C   0  0  0  0  0  0  0  0  0  0  0  0
    0.1258    3.7253    1.4678 C   0  0  0  0  0  0  0  0  0  0  0  0
    0.7553    2.2563    3.3992 C   0  0  0  0  0  0  0  0  0  0  0  0
   -1.5133    3.2858    3.3123 C   0  0  0  0  0  0  0  0  0  0  0  0
    2.6957   -2.0564    1.2095 C   0  0  0  0  0  0  0  0  0  0  0  0
    3.5917   -1.6805    2.4100 C   0  0  0  0  0  0  0  0  0  0  0  0
    3.3995   -3.0664    0.2848 C   0  0  0  0  0  0  0  0  0  0  0  0
    3.5091   -2.8989   -1.1169 C   0  0  0  0  0  0  0  0  0  0  0  0
    4.1835   -3.8364   -1.9010 C   0  0  0  0  0  0  0  0  0  0  0  0
    4.7312   -4.9764   -1.3204 C   0  0  0  0  0  0  0  0  0  0  0  0
    4.6028   -5.1867    0.0519 C   0  0  0  0  0  0  0  0  0  0  0  0
    3.9318   -4.2520    0.8429 C   0  0  0  0  0  0  0  0  0  0  0  0
    5.6541    0.4579   -2.4910 C   0  0  0  0  0  0  0  0  0  0  0  0
    5.6413    1.0528   -3.7017 N   0  0  0  0  0  0  0  0  0  0  0  0
    6.3336    0.3449   -4.6295 C   0  0  0  0  0  0  0  0  0  0  0  0
    6.9216   -0.8237   -4.1631 C   0  0  0  0  0  0  0  0  0  0  0  0
    6.5490   -0.9667   -2.5307 S   0  0  0  0  0  0  0  0  0  0  0  0
   11.0986    2.1255   -0.7453 H   0  0  0  0  0  0  0  0  0  0  0  0
   12.5884    1.1565   -0.4619 H   0  0  0  0  0  0  0  0  0  0  0  0
   11.5053    1.6100    0.9248 H   0  0  0  0  0  0  0  0  0  0  0  0
   10.6483   -0.2038   -1.4362 H   0  0  0  0  0  0  0  0  0  0  0  0
   12.4412   -1.3165   -0.1310 H   0  0  0  0  0  0  0  0  0  0  0  0
   11.5432   -0.9991    1.4117 H   0  0  0  0  0  0  0  0  0  0  0  0
   10.8446   -2.1020    0.1566 H   0  0  0  0  0  0  0  0  0  0  0  0
    9.1062   -0.3373    1.0798 H   0  0  0  0  0  0  0  0  0  0  0  0
    6.8178    0.4267    0.9297 H   0  0  0  0  0  0  0  0  0  0  0  0
    5.4497    2.3855    0.3928 H   0  0  0  0  0  0  0  0  0  0  0  0
    6.4245    2.7123   -1.0651 H   0  0  0  0  0  0  0  0  0  0  0  0
    4.2119    1.7658   -1.6450 H   0  0  0  0  0  0  0  0  0  0  0  0
    4.8762   -0.8410   -0.2460 H   0  0  0  0  0  0  0  0  0  0  0  0
    1.6484   -1.0751   -0.4408 H   0  0  0  0  0  0  0  0  0  0  0  0
    0.8902   -0.5230    2.3469 H   0  0  0  0  0  0  0  0  0  0  0  0
   -1.2841    0.6680    2.4538 H   0  0  0  0  0  0  0  0  0  0  0  0
   -1.9575   -0.7038   -0.7108 H   0  0  0  0  0  0  0  0  0  0  0  0
   -2.0676   -1.3942    1.8147 H   0  0  0  0  0  0  0  0  0  0  0  0
   -3.7796   -0.8714    1.7457 H   0  0  0  0  0  0  0  0  0  0  0  0
   -4.4164   -4.8343    2.0429 H   0  0  0  0  0  0  0  0  0  0  0  0
   -4.3280   -5.2535    0.2646 H   0  0  0  0  0  0  0  0  0  0  0  0
   -6.5905   -5.8001    0.5709 H   0  0  0  0  0  0  0  0  0  0  0  0
   -6.7447   -4.7177    2.0188 H   0  0  0  0  0  0  0  0  0  0  0  0
   -6.8117   -4.0387   -0.9544 H   0  0  0  0  0  0  0  0  0  0  0  0
   -8.4411   -2.9712    1.4565 H   0  0  0  0  0  0  0  0  0  0  0  0
   -8.9490   -4.2169    0.2685 H   0  0  0  0  0  0  0  0  0  0  0  0
   -8.6773   -2.5401   -0.2887 H   0  0  0  0  0  0  0  0  0  0  0  0
   -5.6150   -2.1053   -0.7671 H   0  0  0  0  0  0  0  0  0  0  0  0
   -6.0892    0.6488    1.4573 H   0  0  0  0  0  0  0  0  0  0  0  0
   -7.6596   -0.5940   -0.7816 H   0  0  0  0  0  0  0  0  0  0  0  0
   -8.7422    1.0997    0.5912 H   0  0  0  0  0  0  0  0  0  0  0  0
   -8.2287    3.5401    0.3142 H   0  0  0  0  0  0  0  0  0  0  0  0
   -6.9471    2.6645    1.1971 H   0  0  0  0  0  0  0  0  0  0  0  0
   -6.7123    3.1226   -0.5425 H   0  0  0  0  0  0  0  0  0  0  0  0
   -8.4064    2.1516   -2.2877 H   0  0  0  0  0  0  0  0  0  0  0  0
   -9.8196    2.3413   -1.1800 H   0  0  0  0  0  0  0  0  0  0  0  0
   -9.4044    0.7080   -1.8234 H   0  0  0  0  0  0  0  0  0  0  0  0
   -4.0787    0.1071   -2.1777 H   0  0  0  0  0  0  0  0  0  0  0  0
   -4.7271    2.0269    0.0700 H   0  0  0  0  0  0  0  0  0  0  0  0
   -2.0614    1.6137   -2.6401 H   0  0  0  0  0  0  0  0  0  0  0  0
   -1.9103    3.3716   -2.9822 H   0  0  0  0  0  0  0  0  0  0  0  0
   -1.3548    2.7405   -1.4151 H   0  0  0  0  0  0  0  0  0  0  0  0
   -5.5539    3.2082   -2.4480 H   0  0  0  0  0  0  0  0  0  0  0  0
   -4.2347    3.9799   -3.3558 H   0  0  0  0  0  0  0  0  0  0  0  0
   -4.4719    2.2228   -3.5005 H   0  0  0  0  0  0  0  0  0  0  0  0
   -4.5587    4.4242   -0.4390 H   0  0  0  0  0  0  0  0  0  0  0  0
   -3.1457    5.0045   -1.3796 H   0  0  0  0  0  0  0  0  0  0  0  0
   -2.9045    4.0781    0.1344 H   0  0  0  0  0  0  0  0  0  0  0  0
    0.5056    4.6089    2.0172 H   0  0  0  0  0  0  0  0  0  0  0  0
   -0.6740    4.0768    0.7882 H   0  0  0  0  0  0  0  0  0  0  0  0
    0.9577    3.3334    0.8501 H   0  0  0  0  0  0  0  0  0  0  0  0
    0.4187    1.4792    4.1142 H   0  0  0  0  0  0  0  0  0  0  0  0
    1.6282    1.8661    2.8365 H   0  0  0  0  0  0  0  0  0  0  0  0
    1.1031    3.1350    3.9825 H   0  0  0  0  0  0  0  0  0  0  0  0
   -1.8941    2.5565    4.0581 H   0  0  0  0  0  0  0  0  0  0  0  0
   -2.3749    3.6159    2.6920 H   0  0  0  0  0  0  0  0  0  0  0  0
   -1.1333    4.1723    3.8596 H   0  0  0  0  0  0  0  0  0  0  0  0
    1.8294   -2.6094    1.6273 H   0  0  0  0  0  0  0  0  0  0  0  0
    3.1437   -0.8617    3.0034 H   0  0  0  0  0  0  0  0  0  0  0  0
    4.5982   -1.3556    2.0686 H   0  0  0  0  0  0  0  0  0  0  0  0
    3.7161   -2.5401    3.0975 H   0  0  0  0  0  0  0  0  0  0  0  0
    3.1242   -2.0315   -1.6216 H   0  0  0  0  0  0  0  0  0  0  0  0
    4.2709   -3.6798   -2.9663 H   0  0  0  0  0  0  0  0  0  0  0  0
    5.2527   -5.6986   -1.9400 H   0  0  0  0  0  0  0  0  0  0  0  0
    5.0281   -6.0788    0.4975 H   0  0  0  0  0  0  0  0  0  0  0  0
    3.8209   -4.4687    1.8971 H   0  0  0  0  0  0  0  0  0  0  0  0
    6.4248    0.6879   -5.6485 H   0  0  0  0  0  0  0  0  0  0  0  0
    7.5117   -1.5165   -4.7464 H   0  0  0  0  0  0  0  0  0  0  0  0
  1  2  1  0
  2  3  1  0
  2  4  1  0
  4  5  1  0
  5  6  2  0
  5  7  1  0
  7  8  1  0
  8  9  1  0
  9 10  1  0
 10 11  1  0
 11 12  2  0
 11 13  1  0
 13 14  1  0
 14 15  1  0
 15 16  2  0
 15 17  1  0
 17 18  1  0
 18 19  2  0
 19 20  1  0
 20 21  1  0
 21 22  1  0
 22 23  2  0
 22 24  1  0
 24 25  1  0
 25 26  1  0
 26 27  1  0
 27 28  1  0
 27 29  1  0
 29 30  1  0
 30 31  2  0
 30 32  1  0
 32 33  1  0
 33 34  1  0
 34 35  1  0
 34 36  1  0
 33 37  1  0
 37 38  2  0
 37 39  1  0
 39 40  1  0
 40 41  1  0
 41 42  1  0
 41 43  1  0
 41 44  1  0
 17 45  1  0
 45 46  1  0
 45 47  1  0
 45 48  1  0
 13 49  1  0
 49 50  1  0
 49 51  1  0
 51 52  2  0
 52 53  1  0
 53 54  2  0
 54 55  1  0
 55 56  2  0
  9 57  1  0
 57 58  2  0
 58 59  1  0
 59 60  2  0
 60 61  1  0
 40 19  1  0
 56 51  1  0
 61 57  1  0
 29 24  1  0
  1 62  1  0
  1 63  1  0
  1 64  1  0
  2 65  1  0
  3 66  1  0
  3 67  1  0
  3 68  1  0
  4 69  1  0
  7 70  1  0
  8 71  1  0
  8 72  1  0
  9 73  1  0
 10 74  1  0
 13 75  1  0
 14 76  1  0
 17 77  1  0
 20 78  1  0
 21 79  1  0
 21 80  1  0
 25 81  1  0
 25 82  1  0
 26 83  1  0
 26 84  1  0
 27 85  1  6
 28 86  1  0
 28 87  1  0
 28 88  1  0
 29 89  1  6
 32 90  1  0
 33 91  1  6
 34 92  1  0
 35 93  1  0
 35 94  1  0
 35 95  1  0
 36 96  1  0
 36 97  1  0
 36 98  1  0
 39 99  1  0
 40100  1  0
 42101  1  0
 42102  1  0
 42103  1  0
 43104  1  0
 43105  1  0
 43106  1  0
 44107  1  0
 44108  1  0
 44109  1  0
 46110  1  0
 46111  1  0
 46112  1  0
 47113  1  0
 47114  1  0
 47115  1  0
 48116  1  0
 48117  1  0
 48118  1  0
 49119  1  0
 50120  1  0
 50121  1  0
 50122  1  0
 52123  1  0
 53124  1  0
 54125  1  0
 55126  1  0
 56127  1  0
 59128  1  0
 60129  1  0
M  END
$$$$
