
     RDKit          3D

140146  0  0  0  0  0  0  0  0999 V2000
   -8.7034   -5.0175   -4.1692 C   0  0  0  0  0  0  0  0  0  0  0  0
   -7.7273   -4.2431   -3.2675 C   0  0  0  0  0  0  0  0  0  0  0  0
   -8.3285   -3.9716   -1.8674 C   0  0  2  0  0  0  0  0  0  0  0  0
   -9.4281   -2.8880   -1.9280 C   0  0  0  0  0  0  0  0  0  0  0  0
   -7.1981   -3.5617   -0.8724 C   0  0  1  0  0  0  0  0  0  0  0  0
   -6.6015   -2.3489   -1.3376 O   0  0  0  0  0  0  0  0  0  0  0  0
   -5.7942   -1.6880   -0.3710 C   0  0  2  0  0  0  0  0  0  0  0  0
   -6.6718   -1.2943    0.7874 C   0  0  0  0  0  0  0  0  0  0  0  0
   -7.6221   -2.1398    1.1976 C   0  0  0  0  0  0  0  0  0  0  0  0
   -7.7618   -3.5079    0.5931 C   0  0  2  0  0  0  0  0  0  0  0  0
   -7.0855   -4.5479    1.5037 C   0  0  0  0  0  0  0  0  0  0  0  0
   -5.2662   -0.3697   -1.0146 C   0  0  0  0  0  0  0  0  0  0  0  0
   -4.0286    0.1628   -0.2874 C   0  0  2  0  0  0  0  0  0  0  0  0
   -2.9697   -0.9254   -0.1147 C   0  0  0  0  0  0  0  0  0  0  0  0
   -3.4890   -2.3274   -0.5065 C   0  0  1  0  0  0  0  0  0  0  0  0
   -2.4934   -3.4372   -0.0732 C   0  0  0  0  0  0  0  0  0  0  0  0
   -1.0637   -3.0846   -0.4912 C   0  0  0  0  0  0  0  0  0  0  0  0
    0.0448   -3.3426    0.2452 C   0  0  0  0  0  0  0  0  0  0  0  0
    0.0157   -4.3789    1.3555 C   0  0  0  0  0  0  0  0  0  0  0  0
    1.3385   -2.5376    0.0692 C   0  0  1  0  0  0  0  0  0  0  0  0
    1.1943   -1.6239   -1.0008 O   0  0  0  0  0  0  0  0  0  0  0  0
    2.3081   -1.5278   -1.9033 C   0  0  1  0  0  0  0  0  0  0  0  0
    2.0823   -0.2302   -2.7261 C   0  0  0  0  0  0  0  0  0  0  0  0
    2.8450    0.9306   -2.0957 C   0  0  2  0  0  0  0  0  0  0  0  0
    2.5575    2.1311   -2.8043 O   0  0  0  0  0  0  0  0  0  0  0  0
    2.1965    3.1703   -1.9149 C   0  0  0  0  0  0  0  0  0  0  0  0
    4.3496    0.6225   -2.1748 C   0  0  1  0  0  0  0  0  0  0  0  0
    5.0244    1.3978   -1.2036 O   0  0  0  0  0  0  0  0  0  0  0  0
    5.7450    2.4698   -1.7914 C   0  0  1  0  0  0  0  0  0  0  0  0
    6.3422    3.3338   -0.6602 C   0  0  0  0  0  0  0  0  0  0  0  0
    7.7242    2.8075   -0.2817 C   0  0  2  0  0  0  0  0  0  0  0  0
    8.2502    3.6154    0.7597 O   0  0  0  0  0  0  0  0  0  0  0  0
    8.5268    2.8081    1.8876 C   0  0  0  0  0  0  0  0  0  0  0  0
    8.6823    2.8566   -1.5111 C   0  0  1  0  0  0  0  0  0  0  0  0
    9.7001    1.8009   -1.3966 N   0  0  0  0  0  0  0  0  0  0  0  0
   10.9207    1.8457   -2.1343 C   0  0  0  0  0  0  0  0  0  0  0  0
   12.2199    2.0952   -1.4194 C   0  0  0  0  0  0  0  0  0  0  0  0
   10.9255    1.5944   -3.3702 O   0  0  0  0  0  0  0  0  0  0  0  0
    7.8856    2.7318   -2.8457 C   0  0  2  0  0  0  0  0  0  0  0  0
    7.5947    4.1045   -3.5219 C   0  0  0  0  0  0  0  0  0  0  0  0
    6.7224    1.9371   -2.6894 O   0  0  0  0  0  0  0  0  0  0  0  0
    4.6248   -0.8904   -1.8809 C   0  0  2  0  0  0  0  0  0  0  0  0
    5.0532   -1.6803   -3.1303 C   0  0  0  0  0  0  0  0  0  0  0  0
    3.5580   -1.5264   -1.1973 O   0  0  0  0  0  0  0  0  0  0  0  0
    1.5954   -1.7579    1.4019 C   0  0  1  0  0  0  0  0  0  0  0  0
    2.9774   -1.0969    1.5071 C   0  0  0  0  0  0  0  0  0  0  0  0
    0.5031   -0.7724    1.7597 C   0  0  0  0  0  0  0  0  0  0  0  0
    0.2389    0.3299    1.0383 C   0  0  0  0  0  0  0  0  0  0  0  0
   -0.8587    1.2551    1.3673 C   0  0  0  0  0  0  0  0  0  0  0  0
   -1.0648    1.8014    2.5833 C   0  0  0  0  0  0  0  0  0  0  0  0
   -0.2523    1.5586    3.8015 C   0  0  0  0  0  0  0  0  0  0  0  0
   -0.5349    2.5796    4.7291 O   0  0  0  0  0  0  0  0  0  0  0  0
   -1.7457    3.2006    4.3530 C   0  0  2  0  0  0  0  0  0  0  0  0
   -2.8338    2.8886    5.4117 C   0  0  2  0  0  0  0  0  0  0  0  0
   -2.8596    1.5137    5.6981 O   0  0  0  0  0  0  0  0  0  0  0  0
   -4.1808    3.3447    4.8808 C   0  0  0  0  0  0  0  0  0  0  0  0
   -5.1173    4.1787    5.7157 C   0  0  0  0  0  0  0  0  0  0  0  0
   -4.5263    2.9881    3.6273 C   0  0  0  0  0  0  0  0  0  0  0  0
   -3.5627    2.1729    2.8083 C   0  0  1  0  0  0  0  0  0  0  0  0
   -4.0663    1.9726    1.4083 C   0  0  0  0  0  0  0  0  0  0  0  0
   -4.2115    2.9522    0.6196 O   0  0  0  0  0  0  0  0  0  0  0  0
   -4.3821    0.6827    1.0001 O   0  0  0  0  0  0  0  0  0  0  0  0
   -2.1282    2.8007    2.8934 C   0  0  2  0  0  0  0  0  0  0  0  0
   -2.0087    3.9591    2.0942 O   0  0  0  0  0  0  0  0  0  0  0  0
   -4.7629   -2.5694    0.0874 O   0  0  0  0  0  0  0  0  0  0  0  0
   -9.1104   -5.9053   -3.6411 H   0  0  0  0  0  0  0  0  0  0  0  0
   -9.5434   -4.3715   -4.4931 H   0  0  0  0  0  0  0  0  0  0  0  0
   -8.1694   -5.3760   -5.0684 H   0  0  0  0  0  0  0  0  0  0  0  0
   -7.4341   -3.2965   -3.7504 H   0  0  0  0  0  0  0  0  0  0  0  0
   -6.8138   -4.8727   -3.1559 H   0  0  0  0  0  0  0  0  0  0  0  0
   -8.7918   -4.9116   -1.4911 H   0  0  0  0  0  0  0  0  0  0  0  0
   -9.0046   -1.8671   -1.7667 H   0  0  0  0  0  0  0  0  0  0  0  0
   -9.9696   -2.8750   -2.8937 H   0  0  0  0  0  0  0  0  0  0  0  0
  -10.1799   -3.0762   -1.1394 H   0  0  0  0  0  0  0  0  0  0  0  0
   -6.4211   -4.3507   -0.9296 H   0  0  0  0  0  0  0  0  0  0  0  0
   -6.6435   -0.3109    1.2303 H   0  0  0  0  0  0  0  0  0  0  0  0
   -8.2740   -1.8493    2.0154 H   0  0  0  0  0  0  0  0  0  0  0  0
   -8.8490   -3.7461    0.6066 H   0  0  0  0  0  0  0  0  0  0  0  0
   -7.5260   -5.5534    1.3254 H   0  0  0  0  0  0  0  0  0  0  0  0
   -5.9782   -4.5994    1.3444 H   0  0  0  0  0  0  0  0  0  0  0  0
   -7.2469   -4.2895    2.5757 H   0  0  0  0  0  0  0  0  0  0  0  0
   -6.0573    0.4144   -1.0382 H   0  0  0  0  0  0  0  0  0  0  0  0
   -4.9980   -0.5336   -2.0805 H   0  0  0  0  0  0  0  0  0  0  0  0
   -3.5884    0.9773   -0.9180 H   0  0  0  0  0  0  0  0  0  0  0  0
   -2.0974   -0.6526   -0.7490 H   0  0  0  0  0  0  0  0  0  0  0  0
   -2.6183   -0.9410    0.9496 H   0  0  0  0  0  0  0  0  0  0  0  0
   -3.5705   -2.3857   -1.6214 H   0  0  0  0  0  0  0  0  0  0  0  0
   -2.7840   -4.3995   -0.5441 H   0  0  0  0  0  0  0  0  0  0  0  0
   -2.5642   -3.5424    1.0327 H   0  0  0  0  0  0  0  0  0  0  0  0
   -0.9870   -2.4948   -1.4009 H   0  0  0  0  0  0  0  0  0  0  0  0
   -0.5020   -3.9646    2.2482 H   0  0  0  0  0  0  0  0  0  0  0  0
   -0.5031   -5.3025    1.0093 H   0  0  0  0  0  0  0  0  0  0  0  0
    1.0538   -4.6682    1.6440 H   0  0  0  0  0  0  0  0  0  0  0  0
    2.1501   -3.2716   -0.1067 H   0  0  0  0  0  0  0  0  0  0  0  0
    2.2945   -2.3994   -2.5930 H   0  0  0  0  0  0  0  0  0  0  0  0
    0.9969    0.0389   -2.7663 H   0  0  0  0  0  0  0  0  0  0  0  0
    2.4174   -0.3625   -3.7793 H   0  0  0  0  0  0  0  0  0  0  0  0
    2.5612    0.9742   -1.0043 H   0  0  0  0  0  0  0  0  0  0  0  0
    1.2367    2.9445   -1.4033 H   0  0  0  0  0  0  0  0  0  0  0  0
    2.0642    4.0955   -2.4979 H   0  0  0  0  0  0  0  0  0  0  0  0
    2.9897    3.3485   -1.1623 H   0  0  0  0  0  0  0  0  0  0  0  0
    4.6781    0.8368   -3.2155 H   0  0  0  0  0  0  0  0  0  0  0  0
    5.0356    3.1054   -2.3629 H   0  0  0  0  0  0  0  0  0  0  0  0
    5.6699    3.3238    0.2311 H   0  0  0  0  0  0  0  0  0  0  0  0
    6.4402    4.3870   -0.9997 H   0  0  0  0  0  0  0  0  0  0  0  0
    7.5664    1.7355    0.0015 H   0  0  0  0  0  0  0  0  0  0  0  0
    7.5897    2.3286    2.2662 H   0  0  0  0  0  0  0  0  0  0  0  0
    9.3142    2.0473    1.6621 H   0  0  0  0  0  0  0  0  0  0  0  0
    8.9224    3.4689    2.6999 H   0  0  0  0  0  0  0  0  0  0  0  0
    9.2117    3.8259   -1.5081 H   0  0  0  0  0  0  0  0  0  0  0  0
    9.7283    1.2431   -0.5116 H   0  0  0  0  0  0  0  0  0  0  0  0
   13.0150    1.4225   -1.7861 H   0  0  0  0  0  0  0  0  0  0  0  0
   12.0838    1.9063   -0.3197 H   0  0  0  0  0  0  0  0  0  0  0  0
   12.5173    3.1580   -1.5624 H   0  0  0  0  0  0  0  0  0  0  0  0
    8.5227    2.1799   -3.5658 H   0  0  0  0  0  0  0  0  0  0  0  0
    7.8830    4.9635   -2.8732 H   0  0  0  0  0  0  0  0  0  0  0  0
    8.1247    4.1844   -4.4919 H   0  0  0  0  0  0  0  0  0  0  0  0
    6.5130    4.2295   -3.7558 H   0  0  0  0  0  0  0  0  0  0  0  0
    5.5013   -0.9569   -1.1916 H   0  0  0  0  0  0  0  0  0  0  0  0
    5.9891   -1.2576   -3.5266 H   0  0  0  0  0  0  0  0  0  0  0  0
    4.2854   -1.6456   -3.9289 H   0  0  0  0  0  0  0  0  0  0  0  0
    5.2100   -2.7559   -2.8480 H   0  0  0  0  0  0  0  0  0  0  0  0
    1.6139   -2.5031    2.2153 H   0  0  0  0  0  0  0  0  0  0  0  0
    3.0591   -0.2045    0.8501 H   0  0  0  0  0  0  0  0  0  0  0  0
    3.7737   -1.8332    1.2551 H   0  0  0  0  0  0  0  0  0  0  0  0
    3.1528   -0.7553    2.5553 H   0  0  0  0  0  0  0  0  0  0  0  0
   -0.0680   -0.9872    2.6396 H   0  0  0  0  0  0  0  0  0  0  0  0
    0.7133    0.4824    0.0990 H   0  0  0  0  0  0  0  0  0  0  0  0
   -1.4528    1.5773    0.5138 H   0  0  0  0  0  0  0  0  0  0  0  0
    0.8389    1.5671    3.5753 H   0  0  0  0  0  0  0  0  0  0  0  0
   -0.5394    0.5848    4.2539 H   0  0  0  0  0  0  0  0  0  0  0  0
   -1.5578    4.2995    4.3767 H   0  0  0  0  0  0  0  0  0  0  0  0
   -2.5698    3.4335    6.3474 H   0  0  0  0  0  0  0  0  0  0  0  0
   -3.6254    1.3532    6.3136 H   0  0  0  0  0  0  0  0  0  0  0  0
   -5.2828    5.1542    5.2188 H   0  0  0  0  0  0  0  0  0  0  0  0
   -6.0995    3.6599    5.7908 H   0  0  0  0  0  0  0  0  0  0  0  0
   -4.7189    4.3553    6.7257 H   0  0  0  0  0  0  0  0  0  0  0  0
   -5.4809    3.2938    3.2120 H   0  0  0  0  0  0  0  0  0  0  0  0
   -3.5204    1.1644    3.2853 H   0  0  0  0  0  0  0  0  0  0  0  0
   -1.9933    3.6961    1.1411 H   0  0  0  0  0  0  0  0  0  0  0  0
  1  2  1  0
  2  3  1  0
  3  4  1  0
  3  5  1  0
  5  6  1  0
  7  6  1  6
  7  8  1  0
  8  9  2  0
  9 10  1  0
 10 11  1  0
  7 12  1  0
 12 13  1  0
 13 14  1  0
 14 15  1  0
 15 16  1  0
 16 17  1  0
 17 18  2  0
 18 19  1  0
 18 20  1  0
 20 21  1  0
 21 22  1  0
 22 23  1  0
 23 24  1  0
 24 25  1  0
 25 26  1  0
 24 27  1  0
 27 28  1  0
 28 29  1  0
 29 30  1  0
 30 31  1  0
 31 32  1  0
 32 33  1  0
 31 34  1  0
 34 35  1  0
 35 36  1  0
 36 37  1  0
 36 38  2  0
 34 39  1  0
 39 40  1  0
 39 41  1  0
 27 42  1  0
 42 43  1  0
 42 44  1  0
 20 45  1  0
 45 46  1  0
 45 47  1  0
 47 48  2  0
 48 49  1  0
 49 50  2  0
 50 51  1  0
 51 52  1  0
 52 53  1  0
 53 54  1  0
 54 55  1  0
 54 56  1  0
 56 57  1  0
 56 58  2  0
 58 59  1  0
 59 60  1  0
 60 61  2  0
 60 62  1  0
 59 63  1  0
 63 64  1  6
 15 65  1  0
 10  5  1  0
 62 13  1  0
 65  7  1  0
 44 22  1  0
 63 50  1  0
 41 29  1  0
 63 53  1  0
  1 66  1  0
  1 67  1  0
  1 68  1  0
  2 69  1  0
  2 70  1  0
  3 71  1  1
  4 72  1  0
  4 73  1  0
  4 74  1  0
  5 75  1  1
  8 76  1  0
  9 77  1  0
 10 78  1  6
 11 79  1  0
 11 80  1  0
 11 81  1  0
 12 82  1  0
 12 83  1  0
 13 84  1  6
 14 85  1  0
 14 86  1  0
 15 87  1  6
 16 88  1  0
 16 89  1  0
 17 90  1  0
 19 91  1  0
 19 92  1  0
 19 93  1  0
 20 94  1  6
 22 95  1  6
 23 96  1  0
 23 97  1  0
 24 98  1  1
 26 99  1  0
 26100  1  0
 26101  1  0
 27102  1  6
 29103  1  6
 30104  1  0
 30105  1  0
 31106  1  1
 33107  1  0
 33108  1  0
 33109  1  0
 34110  1  6
 35111  1  0
 37112  1  0
 37113  1  0
 37114  1  0
 39115  1  6
 40116  1  0
 40117  1  0
 40118  1  0
 42119  1  1
 43120  1  0
 43121  1  0
 43122  1  0
 45123  1  1
 46124  1  0
 46125  1  0
 46126  1  0
 47127  1  0
 48128  1  0
 49129  1  0
 51130  1  0
 51131  1  0
 53132  1  6
 54133  1  1
 55134  1  0
 57135  1  0
 57136  1  0
 57137  1  0
 58138  1  0
 59139  1  1
 64140  1  0
M  END
$$$$
