
     RDKit          3D

 68 71  0  0  0  0  0  0  0  0999 V2000
   -4.0794   -4.4856   -0.2833 C   0  0  0  0  0  0  0  0  0  0  0  0
   -2.9663   -3.6418   -0.0893 O   0  0  0  0  0  0  0  0  0  0  0  0
   -3.4078   -2.3677    0.3373 C   0  0  0  0  0  0  0  0  0  0  0  0
   -2.2021   -1.3918    0.4864 C   0  0  0  0  0  0  0  0  0  0  0  0
   -1.2828   -1.9564    1.6219 C   0  0  0  0  0  0  0  0  0  0  0  0
   -0.0262   -1.1211    1.9705 C   0  0  0  0  0  0  0  0  0  0  0  0
    1.2765   -1.7793    1.4959 C   0  0  0  0  0  0  0  0  0  0  0  0
    2.5343   -1.0396    1.9937 C   0  0  0  0  0  0  0  0  0  0  0  0
    2.6880    0.2964    1.3878 N   0  0  0  0  0  0  0  0  0  0  0  0
    3.6486    0.5512    0.3297 C   0  0  0  0  0  0  0  0  0  0  0  0
    4.2611    1.6550    0.3235 O   0  0  0  0  0  0  0  0  0  0  0  0
    3.9070   -0.3989   -0.7865 C   0  0  0  0  0  0  0  0  0  0  0  0
    4.6005    0.0262   -1.9349 C   0  0  0  0  0  0  0  0  0  0  0  0
    4.8212   -0.8718   -2.9809 C   0  0  0  0  0  0  0  0  0  0  0  0
    4.3618   -2.1851   -2.8800 C   0  0  0  0  0  0  0  0  0  0  0  0
    3.6801   -2.5829   -1.7253 C   0  0  0  0  0  0  0  0  0  0  0  0
    3.1980   -3.9205   -1.5899 N   0  0  0  0  0  0  0  0  0  0  0  0
    3.4733   -1.6873   -0.7233 N   0  0  0  0  0  0  0  0  0  0  0  0
    2.1025    1.4556    2.0896 C   0  0  0  0  0  0  0  0  0  0  0  0
    1.3149    2.3593    1.1238 C   0  0  0  0  0  0  0  0  0  0  0  0
    0.0171    2.6422    1.6487 O   0  0  0  0  0  0  0  0  0  0  0  0
   -0.8250    3.6164    1.0967 C   0  0  0  0  0  0  0  0  0  0  0  0
   -1.2752    4.6465    1.9307 C   0  0  0  0  0  0  0  0  0  0  0  0
   -2.0476    5.6904    1.4153 C   0  0  0  0  0  0  0  0  0  0  0  0
   -2.3827    5.7097    0.0608 C   0  0  0  0  0  0  0  0  0  0  0  0
   -1.9717    4.6704   -0.7757 C   0  0  0  0  0  0  0  0  0  0  0  0
   -1.2162    3.6040   -0.2637 C   0  0  0  0  0  0  0  0  0  0  0  0
   -0.9434    2.4487   -1.1361 C   0  0  0  0  0  0  0  0  0  0  0  0
   -0.2420    2.6158   -2.1702 O   0  0  0  0  0  0  0  0  0  0  0  0
   -1.4718    1.1448   -0.8286 N   0  0  0  0  0  0  0  0  0  0  0  0
   -0.7055   -0.0484   -1.2103 C   0  0  0  0  0  0  0  0  0  0  0  0
   -1.4545   -1.3552   -0.8945 C   0  0  0  0  0  0  0  0  0  0  0  0
   -2.8181    0.9968   -0.2641 C   0  0  0  0  0  0  0  0  0  0  0  0
   -2.7774    0.0105    0.8982 C   0  0  0  0  0  0  0  0  0  0  0  0
   -3.7143   -5.4870   -0.5890 H   0  0  0  0  0  0  0  0  0  0  0  0
   -4.7350   -4.1030   -1.0967 H   0  0  0  0  0  0  0  0  0  0  0  0
   -4.6598   -4.6125    0.6577 H   0  0  0  0  0  0  0  0  0  0  0  0
   -4.1266   -1.9375   -0.4005 H   0  0  0  0  0  0  0  0  0  0  0  0
   -3.9343   -2.4562    1.3167 H   0  0  0  0  0  0  0  0  0  0  0  0
   -0.9849   -2.9995    1.3802 H   0  0  0  0  0  0  0  0  0  0  0  0
   -1.8943   -2.0324    2.5482 H   0  0  0  0  0  0  0  0  0  0  0  0
   -0.0928   -0.1065    1.5456 H   0  0  0  0  0  0  0  0  0  0  0  0
    0.0224   -1.0054    3.0745 H   0  0  0  0  0  0  0  0  0  0  0  0
    1.3198   -2.8159    1.8933 H   0  0  0  0  0  0  0  0  0  0  0  0
    1.2706   -1.8488    0.3927 H   0  0  0  0  0  0  0  0  0  0  0  0
    3.4355   -1.6573    1.7956 H   0  0  0  0  0  0  0  0  0  0  0  0
    2.4920   -0.9514    3.1018 H   0  0  0  0  0  0  0  0  0  0  0  0
    4.9584    1.0441   -2.0301 H   0  0  0  0  0  0  0  0  0  0  0  0
    5.3482   -0.5503   -3.8700 H   0  0  0  0  0  0  0  0  0  0  0  0
    4.5329   -2.8828   -3.6902 H   0  0  0  0  0  0  0  0  0  0  0  0
    2.6991   -4.2143   -0.7203 H   0  0  0  0  0  0  0  0  0  0  0  0
    3.3364   -4.6209   -2.3515 H   0  0  0  0  0  0  0  0  0  0  0  0
    1.4410    1.1218    2.9181 H   0  0  0  0  0  0  0  0  0  0  0  0
    2.9166    2.0431    2.5673 H   0  0  0  0  0  0  0  0  0  0  0  0
    1.8688    3.3131    0.9837 H   0  0  0  0  0  0  0  0  0  0  0  0
    1.2289    1.8781    0.1326 H   0  0  0  0  0  0  0  0  0  0  0  0
   -1.0003    4.6528    2.9777 H   0  0  0  0  0  0  0  0  0  0  0  0
   -2.3772    6.4909    2.0647 H   0  0  0  0  0  0  0  0  0  0  0  0
   -2.9752    6.5231   -0.3375 H   0  0  0  0  0  0  0  0  0  0  0  0
   -2.2734    4.6780   -1.8152 H   0  0  0  0  0  0  0  0  0  0  0  0
    0.2739   -0.0420   -0.6986 H   0  0  0  0  0  0  0  0  0  0  0  0
   -0.4971   -0.0192   -2.3016 H   0  0  0  0  0  0  0  0  0  0  0  0
   -0.7492   -2.2103   -0.9777 H   0  0  0  0  0  0  0  0  0  0  0  0
   -2.1918   -1.4922   -1.7178 H   0  0  0  0  0  0  0  0  0  0  0  0
   -3.5101    0.6264   -1.0512 H   0  0  0  0  0  0  0  0  0  0  0  0
   -3.2184    1.9664    0.1011 H   0  0  0  0  0  0  0  0  0  0  0  0
   -3.8057   -0.0800    1.3129 H   0  0  0  0  0  0  0  0  0  0  0  0
   -2.1934    0.4813    1.7156 H   0  0  0  0  0  0  0  0  0  0  0  0
  1  2  1  0
  2  3  1  0
  3  4  1  0
  4  5  1  0
  5  6  1  0
  6  7  1  0
  7  8  1  0
  8  9  1  0
  9 10  1  0
 10 11  2  0
 10 12  1  0
 12 13  2  0
 13 14  1  0
 14 15  2  0
 15 16  1  0
 16 17  1  0
 16 18  2  0
  9 19  1  0
 19 20  1  0
 20 21  1  0
 21 22  1  0
 22 23  2  0
 23 24  1  0
 24 25  2  0
 25 26  1  0
 26 27  2  0
 27 28  1  0
 28 29  2  0
 28 30  1  0
 30 31  1  0
 31 32  1  0
 30 33  1  0
 33 34  1  0
 32  4  1  0
 34  4  1  0
 18 12  1  0
 27 22  1  0
  1 35  1  0
  1 36  1  0
  1 37  1  0
  3 38  1  0
  3 39  1  0
  5 40  1  0
  5 41  1  0
  6 42  1  0
  6 43  1  0
  7 44  1  0
  7 45  1  0
  8 46  1  0
  8 47  1  0
 13 48  1  0
 14 49  1  0
 15 50  1  0
 17 51  1  0
 17 52  1  0
 19 53  1  0
 19 54  1  0
 20 55  1  0
 20 56  1  0
 23 57  1  0
 24 58  1  0
 25 59  1  0
 26 60  1  0
 31 61  1  0
 31 62  1  0
 32 63  1  0
 32 64  1  0
 33 65  1  0
 33 66  1  0
 34 67  1  0
 34 68  1  0
M  END
$$$$
