
     RDKit          3D

 67 71  0  0  0  0  0  0  0  0999 V2000
   10.2059   -1.0291    1.5678 C   0  0  0  0  0  0  0  0  0  0  0  0
    8.8236   -0.5253    1.3134 C   0  0  0  0  0  0  0  0  0  0  0  0
    8.2874    0.5295    1.9837 N   0  0  0  0  0  0  0  0  0  0  0  0
    7.0392    0.5927    1.4820 C   0  0  0  0  0  0  0  0  0  0  0  0
    6.0403    1.5101    1.7955 C   0  0  0  0  0  0  0  0  0  0  0  0
    4.8036    1.3868    1.1305 C   0  0  0  0  0  0  0  0  0  0  0  0
    4.5856    0.3497    0.1872 C   0  0  0  0  0  0  0  0  0  0  0  0
    3.3222    0.2722   -0.4931 N   0  0  0  0  0  0  0  0  0  0  0  0
    2.7223   -0.9620   -0.9172 C   0  0  0  0  0  0  0  0  0  0  0  0
    3.0805   -2.0541   -0.3967 O   0  0  0  0  0  0  0  0  0  0  0  0
    1.6992   -0.9758   -2.0157 C   0  0  0  0  0  0  0  0  0  0  0  0
    0.7476    0.1444   -1.8385 N   0  0  0  0  0  0  0  0  0  0  0  0
    0.7434    1.0467   -3.0057 C   0  0  0  0  0  0  0  0  0  0  0  0
   -0.3988    2.0724   -2.9087 C   0  0  0  0  0  0  0  0  0  0  0  0
   -0.9263    2.1393   -1.5962 O   0  0  0  0  0  0  0  0  0  0  0  0
   -1.5174    0.9100   -1.1727 C   0  0  0  0  0  0  0  0  0  0  0  0
   -2.9385    0.7822   -1.8260 C   0  0  0  0  0  0  0  0  0  0  0  0
   -3.9498   -0.0408   -1.0689 C   0  0  0  0  0  0  0  0  0  0  0  0
   -3.7660   -1.3322   -0.7364 C   0  0  0  0  0  0  0  0  0  0  0  0
   -4.7300   -2.1216    0.1282 C   0  0  0  0  0  0  0  0  0  0  0  0
   -5.7769   -1.2699    0.8174 C   0  0  0  0  0  0  0  0  0  0  0  0
   -6.9787   -1.0091    0.1297 C   0  0  0  0  0  0  0  0  0  0  0  0
   -7.9479   -0.1752    0.6811 C   0  0  0  0  0  0  0  0  0  0  0  0
   -7.7445    0.3964    1.9358 C   0  0  0  0  0  0  0  0  0  0  0  0
   -6.5664    0.1383    2.6399 C   0  0  0  0  0  0  0  0  0  0  0  0
   -5.5695   -0.6780    2.0920 C   0  0  0  0  0  0  0  0  0  0  0  0
   -4.4388   -0.9305    2.8784 O   0  0  0  0  0  0  0  0  0  0  0  0
   -3.1095   -0.5057    2.5734 C   0  0  0  0  0  0  0  0  0  0  0  0
   -2.9937    1.0285    2.4450 C   0  0  0  0  0  0  0  0  0  0  0  0
   -2.7388    1.4306    1.0593 N   0  0  0  0  0  0  0  0  0  0  0  0
   -1.5662    0.9950    0.3522 C   0  0  0  0  0  0  0  0  0  0  0  0
   -0.5228    0.7304    1.0125 O   0  0  0  0  0  0  0  0  0  0  0  0
   -0.6260   -0.3179   -1.5756 C   0  0  0  0  0  0  0  0  0  0  0  0
    5.6344   -0.5546   -0.1117 C   0  0  0  0  0  0  0  0  0  0  0  0
    6.8430   -0.3938    0.5637 C   0  0  0  0  0  0  0  0  0  0  0  0
    7.9644   -1.1166    0.4460 N   0  0  0  0  0  0  0  0  0  0  0  0
   10.1805   -1.7617    2.4036 H   0  0  0  0  0  0  0  0  0  0  0  0
   10.6046   -1.5232    0.6563 H   0  0  0  0  0  0  0  0  0  0  0  0
   10.8778   -0.1857    1.8369 H   0  0  0  0  0  0  0  0  0  0  0  0
    6.2077    2.2931    2.5250 H   0  0  0  0  0  0  0  0  0  0  0  0
    4.0094    2.0879    1.3558 H   0  0  0  0  0  0  0  0  0  0  0  0
    2.7909    1.1637   -0.6383 H   0  0  0  0  0  0  0  0  0  0  0  0
    2.2520   -0.9103   -2.9828 H   0  0  0  0  0  0  0  0  0  0  0  0
    1.1805   -1.9646   -2.0203 H   0  0  0  0  0  0  0  0  0  0  0  0
    0.6162    0.4703   -3.9486 H   0  0  0  0  0  0  0  0  0  0  0  0
    1.7158    1.5811   -3.0537 H   0  0  0  0  0  0  0  0  0  0  0  0
   -1.1976    1.8385   -3.6448 H   0  0  0  0  0  0  0  0  0  0  0  0
   -0.0102    3.0774   -3.1817 H   0  0  0  0  0  0  0  0  0  0  0  0
   -2.8741    0.3807   -2.8597 H   0  0  0  0  0  0  0  0  0  0  0  0
   -3.3601    1.8059   -1.9335 H   0  0  0  0  0  0  0  0  0  0  0  0
   -4.8432    0.4848   -0.7549 H   0  0  0  0  0  0  0  0  0  0  0  0
   -2.8838   -1.8523   -1.0886 H   0  0  0  0  0  0  0  0  0  0  0  0
   -4.1573   -2.6947    0.8857 H   0  0  0  0  0  0  0  0  0  0  0  0
   -5.2267   -2.8825   -0.5130 H   0  0  0  0  0  0  0  0  0  0  0  0
   -7.1532   -1.4383   -0.8498 H   0  0  0  0  0  0  0  0  0  0  0  0
   -8.8618    0.0252    0.1359 H   0  0  0  0  0  0  0  0  0  0  0  0
   -8.5004    1.0410    2.3622 H   0  0  0  0  0  0  0  0  0  0  0  0
   -6.4238    0.5802    3.6183 H   0  0  0  0  0  0  0  0  0  0  0  0
   -2.7268   -1.0304    1.6789 H   0  0  0  0  0  0  0  0  0  0  0  0
   -2.4595   -0.8299    3.4131 H   0  0  0  0  0  0  0  0  0  0  0  0
   -3.9173    1.5206    2.8128 H   0  0  0  0  0  0  0  0  0  0  0  0
   -2.1595    1.3961    3.0796 H   0  0  0  0  0  0  0  0  0  0  0  0
   -3.4293    2.0559    0.5851 H   0  0  0  0  0  0  0  0  0  0  0  0
   -1.0209   -0.8319   -2.4832 H   0  0  0  0  0  0  0  0  0  0  0  0
   -0.6252   -1.0878   -0.7691 H   0  0  0  0  0  0  0  0  0  0  0  0
    5.5247   -1.3307   -0.8580 H   0  0  0  0  0  0  0  0  0  0  0  0
    8.1347   -1.9414   -0.1711 H   0  0  0  0  0  0  0  0  0  0  0  0
  1  2  1  0
  2  3  2  0
  3  4  1  0
  4  5  2  0
  5  6  1  0
  6  7  2  0
  7  8  1  0
  8  9  1  0
  9 10  2  0
  9 11  1  0
 11 12  1  0
 12 13  1  0
 13 14  1  0
 14 15  1  0
 15 16  1  0
 16 17  1  0
 17 18  1  0
 18 19  2  0
 19 20  1  0
 20 21  1  0
 21 22  2  0
 22 23  1  0
 23 24  2  0
 24 25  1  0
 25 26  2  0
 26 27  1  0
 27 28  1  0
 28 29  1  0
 29 30  1  0
 30 31  1  0
 31 32  2  0
 16 33  1  0
  7 34  1  0
 34 35  2  0
 35 36  1  0
 36  2  1  0
 35  4  1  0
 33 12  1  0
 31 16  1  0
 26 21  1  0
  1 37  1  0
  1 38  1  0
  1 39  1  0
  5 40  1  0
  6 41  1  0
  8 42  1  0
 11 43  1  0
 11 44  1  0
 13 45  1  0
 13 46  1  0
 14 47  1  0
 14 48  1  0
 17 49  1  0
 17 50  1  0
 18 51  1  0
 19 52  1  0
 20 53  1  0
 20 54  1  0
 22 55  1  0
 23 56  1  0
 24 57  1  0
 25 58  1  0
 28 59  1  0
 28 60  1  0
 29 61  1  0
 29 62  1  0
 30 63  1  0
 33 64  1  0
 33 65  1  0
 34 66  1  0
 36 67  1  0
M  END
$$$$
