
     RDKit          3D

 62 64  0  0  0  0  0  0  0  0999 V2000
   -2.2913   -3.9651    0.5985 C   0  0  0  0  0  0  0  0  0  0  0  0
   -1.7053   -3.0506   -0.4788 C   0  0  0  0  0  0  0  0  0  0  0  0
   -2.7926   -2.1066   -1.0427 C   0  0  0  0  0  0  0  0  0  0  0  0
   -3.2530   -1.1493   -0.0765 O   0  0  0  0  0  0  0  0  0  0  0  0
   -4.1951   -0.1388   -0.3652 C   0  0  0  0  0  0  0  0  0  0  0  0
   -5.0471   -0.2552   -1.4848 C   0  0  0  0  0  0  0  0  0  0  0  0
   -5.9915    0.7294   -1.7741 C   0  0  0  0  0  0  0  0  0  0  0  0
   -6.1068    1.8501   -0.9587 C   0  0  0  0  0  0  0  0  0  0  0  0
   -5.2724    1.9933    0.1490 C   0  0  0  0  0  0  0  0  0  0  0  0
   -4.3078    1.0153    0.4618 C   0  0  0  0  0  0  0  0  0  0  0  0
   -3.3964    1.2946    1.6455 C   0  0  0  0  0  0  0  0  0  0  0  0
   -2.3110    2.3632    1.3083 C   0  0  0  0  0  0  0  0  0  0  0  0
   -0.8687    1.8304    1.1516 C   0  0  0  0  0  0  0  0  0  0  0  0
   -0.8337    0.5916    0.2532 C   0  0  0  0  0  0  0  0  0  0  0  0
    0.5352   -0.0001   -0.1834 C   0  0  0  0  0  0  0  0  0  0  0  0
    1.5006   -0.1874    1.0325 C   0  0  0  0  0  0  0  0  0  0  0  0
    2.5683    0.9065    1.1244 C   0  0  0  0  0  0  0  0  0  0  0  0
    3.3480    0.9537   -0.1213 N   0  0  0  0  0  0  0  0  0  0  0  0
    4.7380    1.3375   -0.0738 C   0  0  0  0  0  0  0  0  0  0  0  0
    5.1577    2.0391    0.8853 O   0  0  0  0  0  0  0  0  0  0  0  0
    5.7125    0.9256   -1.1472 C   0  0  0  0  0  0  0  0  0  0  0  0
    6.9095    0.1468   -0.5767 C   0  0  0  0  0  0  0  0  0  0  0  0
    6.5345   -1.2453   -0.0468 C   0  0  0  0  0  0  0  0  0  0  0  0
    7.6878   -1.9083    0.3405 F   0  0  0  0  0  0  0  0  0  0  0  0
    5.9041   -1.9889   -1.0326 F   0  0  0  0  0  0  0  0  0  0  0  0
    5.6958   -1.1375    1.0476 F   0  0  0  0  0  0  0  0  0  0  0  0
    2.6772    0.7156   -1.4103 C   0  0  0  0  0  0  0  0  0  0  0  0
    1.1619    0.9135   -1.2840 C   0  0  0  0  0  0  0  0  0  0  0  0
    0.2029   -1.3861   -0.7461 C   0  0  0  0  0  0  0  0  0  0  0  0
    0.5649   -1.7283   -1.9067 O   0  0  0  0  0  0  0  0  0  0  0  0
   -0.5594   -2.3060    0.0540 N   0  0  0  0  0  0  0  0  0  0  0  0
   -2.6769   -3.3642    1.4515 H   0  0  0  0  0  0  0  0  0  0  0  0
   -3.1204   -4.5752    0.1788 H   0  0  0  0  0  0  0  0  0  0  0  0
   -1.5049   -4.6517    0.9737 H   0  0  0  0  0  0  0  0  0  0  0  0
   -1.3449   -3.7034   -1.3014 H   0  0  0  0  0  0  0  0  0  0  0  0
   -2.3786   -1.5620   -1.9203 H   0  0  0  0  0  0  0  0  0  0  0  0
   -3.6444   -2.7256   -1.3970 H   0  0  0  0  0  0  0  0  0  0  0  0
   -5.0003   -1.1100   -2.1424 H   0  0  0  0  0  0  0  0  0  0  0  0
   -6.6403    0.6184   -2.6344 H   0  0  0  0  0  0  0  0  0  0  0  0
   -6.8422    2.6109   -1.1872 H   0  0  0  0  0  0  0  0  0  0  0  0
   -5.3685    2.8809    0.7626 H   0  0  0  0  0  0  0  0  0  0  0  0
   -4.0294    1.6997    2.4676 H   0  0  0  0  0  0  0  0  0  0  0  0
   -2.9753    0.3632    2.0719 H   0  0  0  0  0  0  0  0  0  0  0  0
   -2.2949    3.1232    2.1207 H   0  0  0  0  0  0  0  0  0  0  0  0
   -2.5894    2.9136    0.3816 H   0  0  0  0  0  0  0  0  0  0  0  0
   -0.4729    1.5806    2.1585 H   0  0  0  0  0  0  0  0  0  0  0  0
   -0.2367    2.6369    0.7290 H   0  0  0  0  0  0  0  0  0  0  0  0
   -1.3216   -0.1803    0.8632 H   0  0  0  0  0  0  0  0  0  0  0  0
   -1.4501    0.7823   -0.6532 H   0  0  0  0  0  0  0  0  0  0  0  0
    2.0468   -1.1543    0.9429 H   0  0  0  0  0  0  0  0  0  0  0  0
    0.9447   -0.2414    1.9915 H   0  0  0  0  0  0  0  0  0  0  0  0
    3.2295    0.6691    1.9877 H   0  0  0  0  0  0  0  0  0  0  0  0
    2.1013    1.8956    1.3101 H   0  0  0  0  0  0  0  0  0  0  0  0
    5.2255    0.3108   -1.9319 H   0  0  0  0  0  0  0  0  0  0  0  0
    6.0880    1.8483   -1.6420 H   0  0  0  0  0  0  0  0  0  0  0  0
    7.6573    0.0196   -1.3900 H   0  0  0  0  0  0  0  0  0  0  0  0
    7.3949    0.7347    0.2338 H   0  0  0  0  0  0  0  0  0  0  0  0
    2.8968   -0.3167   -1.7550 H   0  0  0  0  0  0  0  0  0  0  0  0
    3.0551    1.4333   -2.1716 H   0  0  0  0  0  0  0  0  0  0  0  0
    0.6727    0.7467   -2.2679 H   0  0  0  0  0  0  0  0  0  0  0  0
    0.9936    1.9836   -1.0439 H   0  0  0  0  0  0  0  0  0  0  0  0
   -0.3809   -2.3196    1.0850 H   0  0  0  0  0  0  0  0  0  0  0  0
  1  2  1  0
  2  3  1  0
  3  4  1  0
  4  5  1  0
  5  6  2  0
  6  7  1  0
  7  8  2  0
  8  9  1  0
  9 10  2  0
 10 11  1  0
 11 12  1  0
 12 13  1  0
 13 14  1  0
 14 15  1  0
 15 16  1  0
 16 17  1  0
 17 18  1  0
 18 19  1  0
 19 20  2  0
 19 21  1  0
 21 22  1  0
 22 23  1  0
 23 24  1  0
 23 25  1  0
 23 26  1  0
 18 27  1  0
 27 28  1  0
 15 29  1  0
 29 30  2  0
 29 31  1  0
 31  2  1  0
 10  5  1  0
 28 15  1  0
  1 32  1  0
  1 33  1  0
  1 34  1  0
  2 35  1  0
  3 36  1  0
  3 37  1  0
  6 38  1  0
  7 39  1  0
  8 40  1  0
  9 41  1  0
 11 42  1  0
 11 43  1  0
 12 44  1  0
 12 45  1  0
 13 46  1  0
 13 47  1  0
 14 48  1  0
 14 49  1  0
 16 50  1  0
 16 51  1  0
 17 52  1  0
 17 53  1  0
 21 54  1  0
 21 55  1  0
 22 56  1  0
 22 57  1  0
 27 58  1  0
 27 59  1  0
 28 60  1  0
 28 61  1  0
 31 62  1  0
M  END
$$$$
