
     RDKit          3D

 73 76  0  0  0  0  0  0  0  0999 V2000
    8.1815   -1.0004    0.8909 C   0  0  0  0  0  0  0  0  0  0  0  0
    8.0848   -0.1895   -0.3752 C   0  0  0  0  0  0  0  0  0  0  0  0
    9.2493    0.0332   -1.1327 C   0  0  0  0  0  0  0  0  0  0  0  0
    9.1985    0.7838   -2.3092 C   0  0  0  0  0  0  0  0  0  0  0  0
    7.9876    1.3222   -2.7443 C   0  0  0  0  0  0  0  0  0  0  0  0
    6.8248    1.1218   -1.9999 C   0  0  0  0  0  0  0  0  0  0  0  0
    6.8570    0.3800   -0.8051 C   0  0  0  0  0  0  0  0  0  0  0  0
    5.5628    0.1792   -0.0486 C   0  0  0  0  0  0  0  0  0  0  0  0
    4.7706   -0.9977   -0.6267 C   0  0  0  0  0  0  0  0  0  0  0  0
    3.6031   -1.2856    0.2044 N   0  0  0  0  0  0  0  0  0  0  0  0
    2.4512   -0.4316    0.2503 C   0  0  0  0  0  0  0  0  0  0  0  0
    2.3878    0.5901   -0.4872 O   0  0  0  0  0  0  0  0  0  0  0  0
    1.3540   -0.7151    1.2392 C   0  0  0  0  0  0  0  0  0  0  0  0
    0.0708   -0.1111    0.8146 N   0  0  0  0  0  0  0  0  0  0  0  0
   -0.5136   -0.8514   -0.3377 C   0  0  0  0  0  0  0  0  0  0  0  0
   -1.0862    0.1327   -1.3745 C   0  0  0  0  0  0  0  0  0  0  0  0
   -2.0709   -0.5304   -2.3756 C   0  0  0  0  0  0  0  0  0  0  0  0
   -3.5906   -0.2589   -2.1137 C   0  0  0  0  0  0  0  0  0  0  0  0
   -3.8901    1.2612   -2.1700 C   0  0  0  0  0  0  0  0  0  0  0  0
   -4.4055   -0.9485   -3.2296 C   0  0  0  0  0  0  0  0  0  0  0  0
   -4.0182   -0.8544   -0.7477 C   0  0  0  0  0  0  0  0  0  0  0  0
   -5.2549   -0.3000   -0.2970 O   0  0  0  0  0  0  0  0  0  0  0  0
   -5.8462   -0.5915    0.9421 C   0  0  0  0  0  0  0  0  0  0  0  0
   -7.2300   -0.8094    0.9597 C   0  0  0  0  0  0  0  0  0  0  0  0
   -7.8788   -1.1788    2.1403 C   0  0  0  0  0  0  0  0  0  0  0  0
   -7.1495   -1.3294    3.3200 C   0  0  0  0  0  0  0  0  0  0  0  0
   -5.7756   -1.0808    3.3289 C   0  0  0  0  0  0  0  0  0  0  0  0
   -5.1183   -0.6758    2.1604 C   0  0  0  0  0  0  0  0  0  0  0  0
   -3.7598   -0.3509    2.2547 O   0  0  0  0  0  0  0  0  0  0  0  0
   -3.2462    0.9175    1.9501 C   0  0  0  0  0  0  0  0  0  0  0  0
   -4.0911    1.9757    1.7941 N   0  0  0  0  0  0  0  0  0  0  0  0
   -3.6399    3.2241    1.5088 C   0  0  0  0  0  0  0  0  0  0  0  0
   -2.2718    3.4588    1.3786 C   0  0  0  0  0  0  0  0  0  0  0  0
   -1.3790    2.3982    1.5320 C   0  0  0  0  0  0  0  0  0  0  0  0
   -1.8548    1.1041    1.7979 C   0  0  0  0  0  0  0  0  0  0  0  0
   -0.8703   -0.0323    1.9647 C   0  0  0  0  0  0  0  0  0  0  0  0
    9.1833   -1.4689    1.0001 H   0  0  0  0  0  0  0  0  0  0  0  0
    7.4273   -1.8160    0.8826 H   0  0  0  0  0  0  0  0  0  0  0  0
    8.0086   -0.3443    1.7712 H   0  0  0  0  0  0  0  0  0  0  0  0
   10.2009   -0.3764   -0.8145 H   0  0  0  0  0  0  0  0  0  0  0  0
   10.0987    0.9466   -2.8867 H   0  0  0  0  0  0  0  0  0  0  0  0
    7.9508    1.8992   -3.6586 H   0  0  0  0  0  0  0  0  0  0  0  0
    5.8936    1.5474   -2.3551 H   0  0  0  0  0  0  0  0  0  0  0  0
    5.7502    0.0086    1.0311 H   0  0  0  0  0  0  0  0  0  0  0  0
    4.9530    1.1052   -0.1133 H   0  0  0  0  0  0  0  0  0  0  0  0
    4.4461   -0.7759   -1.6671 H   0  0  0  0  0  0  0  0  0  0  0  0
    5.4211   -1.8997   -0.6574 H   0  0  0  0  0  0  0  0  0  0  0  0
    3.6098   -2.1574    0.7816 H   0  0  0  0  0  0  0  0  0  0  0  0
    1.2380   -1.8127    1.3856 H   0  0  0  0  0  0  0  0  0  0  0  0
    1.6958   -0.2809    2.2029 H   0  0  0  0  0  0  0  0  0  0  0  0
   -1.2706   -1.5934   -0.0089 H   0  0  0  0  0  0  0  0  0  0  0  0
    0.2548   -1.4594   -0.8676 H   0  0  0  0  0  0  0  0  0  0  0  0
   -1.5542    0.9910   -0.8658 H   0  0  0  0  0  0  0  0  0  0  0  0
   -0.2303    0.5562   -1.9440 H   0  0  0  0  0  0  0  0  0  0  0  0
   -1.8213   -0.1531   -3.3926 H   0  0  0  0  0  0  0  0  0  0  0  0
   -1.8873   -1.6274   -2.4109 H   0  0  0  0  0  0  0  0  0  0  0  0
   -3.3853    1.7296   -3.0426 H   0  0  0  0  0  0  0  0  0  0  0  0
   -4.9820    1.4482   -2.2711 H   0  0  0  0  0  0  0  0  0  0  0  0
   -3.5628    1.7813   -1.2472 H   0  0  0  0  0  0  0  0  0  0  0  0
   -4.1481   -0.5221   -4.2241 H   0  0  0  0  0  0  0  0  0  0  0  0
   -5.4970   -0.8108   -3.0651 H   0  0  0  0  0  0  0  0  0  0  0  0
   -4.1951   -2.0402   -3.2556 H   0  0  0  0  0  0  0  0  0  0  0  0
   -4.1078   -1.9616   -0.8095 H   0  0  0  0  0  0  0  0  0  0  0  0
   -3.2384   -0.6433   -0.0181 H   0  0  0  0  0  0  0  0  0  0  0  0
   -7.8007   -0.7231    0.0431 H   0  0  0  0  0  0  0  0  0  0  0  0
   -8.9462   -1.3589    2.1378 H   0  0  0  0  0  0  0  0  0  0  0  0
   -7.6508   -1.6260    4.2325 H   0  0  0  0  0  0  0  0  0  0  0  0
   -5.2230   -1.1677    4.2560 H   0  0  0  0  0  0  0  0  0  0  0  0
   -4.3451    4.0362    1.3908 H   0  0  0  0  0  0  0  0  0  0  0  0
   -1.9060    4.4531    1.1611 H   0  0  0  0  0  0  0  0  0  0  0  0
   -0.3159    2.5823    1.4331 H   0  0  0  0  0  0  0  0  0  0  0  0
   -1.3780   -1.0074    2.1322 H   0  0  0  0  0  0  0  0  0  0  0  0
   -0.3286    0.1827    2.9125 H   0  0  0  0  0  0  0  0  0  0  0  0
  1  2  1  0
  2  3  2  0
  3  4  1  0
  4  5  2  0
  5  6  1  0
  6  7  2  0
  7  8  1  0
  8  9  1  0
  9 10  1  0
 10 11  1  0
 11 12  2  0
 11 13  1  0
 13 14  1  0
 14 15  1  0
 15 16  1  0
 16 17  1  0
 17 18  1  0
 18 19  1  0
 18 20  1  0
 18 21  1  0
 21 22  1  0
 22 23  1  0
 23 24  2  0
 24 25  1  0
 25 26  2  0
 26 27  1  0
 27 28  2  0
 28 29  1  0
 29 30  1  0
 30 31  2  0
 31 32  1  0
 32 33  2  0
 33 34  1  0
 34 35  2  0
 35 36  1  0
  7  2  1  0
 36 14  1  0
 28 23  1  0
 35 30  1  0
  1 37  1  0
  1 38  1  0
  1 39  1  0
  3 40  1  0
  4 41  1  0
  5 42  1  0
  6 43  1  0
  8 44  1  0
  8 45  1  0
  9 46  1  0
  9 47  1  0
 10 48  1  0
 13 49  1  0
 13 50  1  0
 15 51  1  0
 15 52  1  0
 16 53  1  0
 16 54  1  0
 17 55  1  0
 17 56  1  0
 19 57  1  0
 19 58  1  0
 19 59  1  0
 20 60  1  0
 20 61  1  0
 20 62  1  0
 21 63  1  0
 21 64  1  0
 24 65  1  0
 25 66  1  0
 26 67  1  0
 27 68  1  0
 32 69  1  0
 33 70  1  0
 34 71  1  0
 36 72  1  0
 36 73  1  0
M  END
$$$$
