
     RDKit          3D

102107  0  0  0  0  0  0  0  0999 V2000
    1.4448    3.0712   -3.3399 O   0  0  0  0  0  0  0  0  0  0  0  0
    1.7046    2.4527   -2.2743 C   0  0  0  0  0  0  0  0  0  0  0  0
    0.7272    1.4081   -1.7986 C   0  0  0  0  0  0  0  0  0  0  0  0
    0.7681    0.1772   -2.7134 C   0  0  0  0  0  0  0  0  0  0  0  0
   -0.2142   -0.9254   -2.2699 C   0  0  0  0  0  0  0  0  0  0  0  0
   -1.6378   -0.4645   -2.4545 C   0  0  0  0  0  0  0  0  0  0  0  0
   -2.1038   -0.3360   -3.6201 O   0  0  0  0  0  0  0  0  0  0  0  0
   -2.4484   -0.1450   -1.3155 N   0  0  0  0  0  0  0  0  0  0  0  0
   -3.7802    0.4457   -1.4815 C   0  0  0  0  0  0  0  0  0  0  0  0
   -4.3705    0.9625   -0.1367 C   0  0  0  0  0  0  0  0  0  0  0  0
   -4.5365   -0.2241    0.8470 C   0  0  0  0  0  0  0  0  0  0  0  0
   -5.4296   -1.2739    0.5274 C   0  0  0  0  0  0  0  0  0  0  0  0
   -5.6495   -2.3313    1.4125 C   0  0  0  0  0  0  0  0  0  0  0  0
   -4.9593   -2.3856    2.6219 C   0  0  0  0  0  0  0  0  0  0  0  0
   -4.0394   -1.3866    2.9448 C   0  0  0  0  0  0  0  0  0  0  0  0
   -3.3572   -1.4496    4.1140 F   0  0  0  0  0  0  0  0  0  0  0  0
   -3.8309   -0.3138    2.0713 C   0  0  0  0  0  0  0  0  0  0  0  0
   -5.7563    1.6147   -0.4090 C   0  0  0  0  0  0  0  0  0  0  0  0
   -6.3070    2.3437    0.8415 C   0  0  0  0  0  0  0  0  0  0  0  0
   -5.3835    2.3701    1.9165 O   0  0  0  0  0  0  0  0  0  0  0  0
   -4.1626    2.9503    1.4994 C   0  0  0  0  0  0  0  0  0  0  0  0
   -3.4657    2.1153    0.3981 C   0  0  0  0  0  0  0  0  0  0  0  0
    0.0094   -2.1528   -3.0460 N   0  0  0  0  0  0  0  0  0  0  0  0
   -0.7492   -3.3560   -2.8463 C   0  0  0  0  0  0  0  0  0  0  0  0
   -0.8994   -4.1502   -3.8113 O   0  0  0  0  0  0  0  0  0  0  0  0
   -1.3605   -3.6922   -1.5452 C   0  0  0  0  0  0  0  0  0  0  0  0
   -2.7353   -3.9859   -1.4911 C   0  0  0  0  0  0  0  0  0  0  0  0
   -3.3516   -4.2665   -0.2701 C   0  0  0  0  0  0  0  0  0  0  0  0
   -2.6079   -4.2490    0.9099 C   0  0  0  0  0  0  0  0  0  0  0  0
   -1.2397   -3.9689    0.8676 C   0  0  0  0  0  0  0  0  0  0  0  0
   -0.6005   -3.7236   -0.3528 C   0  0  0  0  0  0  0  0  0  0  0  0
    0.7794   -3.5047   -0.3399 O   0  0  0  0  0  0  0  0  0  0  0  0
    1.7074   -4.3747   -0.9883 C   0  0  0  0  0  0  0  0  0  0  0  0
    3.1288   -3.8533   -0.7887 C   0  0  0  0  0  0  0  0  0  0  0  0
    3.2626   -2.4206   -1.3150 C   0  0  0  0  0  0  0  0  0  0  0  0
    4.6438   -1.9526   -1.2340 N   0  0  0  0  0  0  0  0  0  0  0  0
    5.3065   -1.5896   -0.0133 C   0  0  0  0  0  0  0  0  0  0  0  0
    6.5191   -1.2519   -0.0552 O   0  0  0  0  0  0  0  0  0  0  0  0
    4.6452   -1.6793    1.3012 C   0  0  0  0  0  0  0  0  0  0  0  0
    5.0941   -2.6919    2.1694 C   0  0  0  0  0  0  0  0  0  0  0  0
    4.4744   -2.9009    3.4025 C   0  0  0  0  0  0  0  0  0  0  0  0
    3.4047   -2.1001    3.7895 C   0  0  0  0  0  0  0  0  0  0  0  0
    2.9705   -1.0659    2.9558 C   0  0  0  0  0  0  0  0  0  0  0  0
    3.5891   -0.8195    1.7225 C   0  0  0  0  0  0  0  0  0  0  0  0
    3.1120    0.2954    1.0091 O   0  0  0  0  0  0  0  0  0  0  0  0
    3.7452    0.9697   -0.0784 C   0  0  0  0  0  0  0  0  0  0  0  0
    3.1796    2.4017   -0.1753 C   0  0  0  0  0  0  0  0  0  0  0  0
    4.1450    3.4124    0.4798 C   0  0  0  0  0  0  0  0  0  0  0  0
    3.5266    4.7834    0.5880 C   0  0  0  0  0  0  0  0  0  0  0  0
    2.6806    5.0940    1.6666 C   0  0  0  0  0  0  0  0  0  0  0  0
    2.1110    6.3662    1.7696 C   0  0  0  0  0  0  0  0  0  0  0  0
    2.3648    7.3293    0.7873 C   0  0  0  0  0  0  0  0  0  0  0  0
    3.1930    7.0218   -0.2956 C   0  0  0  0  0  0  0  0  0  0  0  0
    3.7792    5.7559   -0.3957 C   0  0  0  0  0  0  0  0  0  0  0  0
    2.9301    2.7503   -1.5795 N   0  0  0  0  0  0  0  0  0  0  0  0
    0.9248    1.0918   -0.7599 H   0  0  0  0  0  0  0  0  0  0  0  0
   -0.2859    1.8550   -1.8106 H   0  0  0  0  0  0  0  0  0  0  0  0
    1.7974   -0.2338   -2.7021 H   0  0  0  0  0  0  0  0  0  0  0  0
    0.5449    0.4784   -3.7580 H   0  0  0  0  0  0  0  0  0  0  0  0
   -0.0207   -1.1453   -1.2020 H   0  0  0  0  0  0  0  0  0  0  0  0
   -2.0538   -0.2991   -0.3596 H   0  0  0  0  0  0  0  0  0  0  0  0
   -4.4547   -0.3087   -1.9435 H   0  0  0  0  0  0  0  0  0  0  0  0
   -3.7090    1.2941   -2.2012 H   0  0  0  0  0  0  0  0  0  0  0  0
   -5.9746   -1.2766   -0.4070 H   0  0  0  0  0  0  0  0  0  0  0  0
   -6.3468   -3.1188    1.1538 H   0  0  0  0  0  0  0  0  0  0  0  0
   -5.1204   -3.2139    3.2995 H   0  0  0  0  0  0  0  0  0  0  0  0
   -3.1283    0.4404    2.3821 H   0  0  0  0  0  0  0  0  0  0  0  0
   -6.4976    0.8738   -0.7732 H   0  0  0  0  0  0  0  0  0  0  0  0
   -5.6570    2.3678   -1.2246 H   0  0  0  0  0  0  0  0  0  0  0  0
   -7.2174    1.8122    1.1921 H   0  0  0  0  0  0  0  0  0  0  0  0
   -6.6214    3.3795    0.5837 H   0  0  0  0  0  0  0  0  0  0  0  0
   -4.3289    3.9973    1.1553 H   0  0  0  0  0  0  0  0  0  0  0  0
   -3.4908    3.0109    2.3833 H   0  0  0  0  0  0  0  0  0  0  0  0
   -3.2287    2.8099   -0.4396 H   0  0  0  0  0  0  0  0  0  0  0  0
   -2.4801    1.7436    0.7500 H   0  0  0  0  0  0  0  0  0  0  0  0
    0.6116   -2.1062   -3.8985 H   0  0  0  0  0  0  0  0  0  0  0  0
   -3.3341   -3.9874   -2.3950 H   0  0  0  0  0  0  0  0  0  0  0  0
   -4.4096   -4.4927   -0.2387 H   0  0  0  0  0  0  0  0  0  0  0  0
   -3.0874   -4.4705    1.8550 H   0  0  0  0  0  0  0  0  0  0  0  0
   -0.6673   -3.9736    1.7856 H   0  0  0  0  0  0  0  0  0  0  0  0
    1.4922   -4.4444   -2.0740 H   0  0  0  0  0  0  0  0  0  0  0  0
    1.6270   -5.3943   -0.5491 H   0  0  0  0  0  0  0  0  0  0  0  0
    3.8384   -4.5130   -1.3337 H   0  0  0  0  0  0  0  0  0  0  0  0
    3.3765   -3.8947    0.2936 H   0  0  0  0  0  0  0  0  0  0  0  0
    2.5990   -1.7381   -0.7485 H   0  0  0  0  0  0  0  0  0  0  0  0
    2.9422   -2.3973   -2.3785 H   0  0  0  0  0  0  0  0  0  0  0  0
    5.1644   -1.8170   -2.1282 H   0  0  0  0  0  0  0  0  0  0  0  0
    5.9153   -3.3388    1.8812 H   0  0  0  0  0  0  0  0  0  0  0  0
    4.8186   -3.6917    4.0566 H   0  0  0  0  0  0  0  0  0  0  0  0
    2.9242   -2.2597    4.7461 H   0  0  0  0  0  0  0  0  0  0  0  0
    2.1557   -0.4328    3.2848 H   0  0  0  0  0  0  0  0  0  0  0  0
    3.5309    0.4152   -1.0159 H   0  0  0  0  0  0  0  0  0  0  0  0
    4.8507    0.9984    0.0644 H   0  0  0  0  0  0  0  0  0  0  0  0
    2.2219    2.4681    0.3891 H   0  0  0  0  0  0  0  0  0  0  0  0
    4.4163    3.0586    1.4986 H   0  0  0  0  0  0  0  0  0  0  0  0
    5.0942    3.4643   -0.1010 H   0  0  0  0  0  0  0  0  0  0  0  0
    2.4685    4.3483    2.4245 H   0  0  0  0  0  0  0  0  0  0  0  0
    1.4659    6.6027    2.6069 H   0  0  0  0  0  0  0  0  0  0  0  0
    1.9219    8.3124    0.8651 H   0  0  0  0  0  0  0  0  0  0  0  0
    3.3842    7.7653   -1.0580 H   0  0  0  0  0  0  0  0  0  0  0  0
    4.4182    5.5315   -1.2397 H   0  0  0  0  0  0  0  0  0  0  0  0
    3.6396    3.3229   -2.0891 H   0  0  0  0  0  0  0  0  0  0  0  0
  1  2  2  0
  2  3  1  0
  3  4  1  0
  4  5  1  0
  5  6  1  0
  6  7  2  0
  6  8  1  0
  8  9  1  0
  9 10  1  0
 10 11  1  0
 11 12  2  0
 12 13  1  0
 13 14  2  0
 14 15  1  0
 15 16  1  0
 15 17  2  0
 10 18  1  0
 18 19  1  0
 19 20  1  0
 20 21  1  0
 21 22  1  0
  5 23  1  0
 23 24  1  0
 24 25  2  0
 24 26  1  0
 26 27  2  0
 27 28  1  0
 28 29  2  0
 29 30  1  0
 30 31  2  0
 31 32  1  0
 32 33  1  0
 33 34  1  0
 34 35  1  0
 35 36  1  0
 36 37  1  0
 37 38  2  0
 37 39  1  0
 39 40  2  0
 40 41  1  0
 41 42  2  0
 42 43  1  0
 43 44  2  0
 44 45  1  0
 45 46  1  0
 46 47  1  0
 47 48  1  0
 48 49  1  0
 49 50  2  0
 50 51  1  0
 51 52  2  0
 52 53  1  0
 53 54  2  0
 47 55  1  0
 55  2  1  0
 22 10  1  0
 31 26  1  0
 44 39  1  0
 54 49  1  0
 17 11  1  0
  3 56  1  0
  3 57  1  0
  4 58  1  0
  4 59  1  0
  5 60  1  0
  8 61  1  0
  9 62  1  0
  9 63  1  0
 12 64  1  0
 13 65  1  0
 14 66  1  0
 17 67  1  0
 18 68  1  0
 18 69  1  0
 19 70  1  0
 19 71  1  0
 21 72  1  0
 21 73  1  0
 22 74  1  0
 22 75  1  0
 23 76  1  0
 27 77  1  0
 28 78  1  0
 29 79  1  0
 30 80  1  0
 33 81  1  0
 33 82  1  0
 34 83  1  0
 34 84  1  0
 35 85  1  0
 35 86  1  0
 36 87  1  0
 40 88  1  0
 41 89  1  0
 42 90  1  0
 43 91  1  0
 46 92  1  0
 46 93  1  0
 47 94  1  0
 48 95  1  0
 48 96  1  0
 50 97  1  0
 51 98  1  0
 52 99  1  0
 53100  1  0
 54101  1  0
 55102  1  0
M  END
$$$$
