
     RDKit          3D

100103  0  0  0  0  0  0  0  0999 V2000
   10.3822    4.7892    1.8643 C   0  0  0  0  0  0  0  0  0  0  0  0
    9.7303    4.5480    0.6199 O   0  0  0  0  0  0  0  0  0  0  0  0
    9.0692    3.3545    0.2857 C   0  0  0  0  0  0  0  0  0  0  0  0
    8.4750    3.2528   -0.9774 C   0  0  0  0  0  0  0  0  0  0  0  0
    7.7842    2.0951   -1.3455 C   0  0  0  0  0  0  0  0  0  0  0  0
    7.6724    1.0151   -0.4554 C   0  0  0  0  0  0  0  0  0  0  0  0
    6.9623   -0.1688   -0.8669 N   0  0  0  0  0  0  0  0  0  0  0  0
    6.0610   -0.9067   -0.0171 C   0  0  0  0  0  0  0  0  0  0  0  0
    6.0365   -0.6669    1.2241 O   0  0  0  0  0  0  0  0  0  0  0  0
    5.1395   -1.8776   -0.5736 N   0  0  0  0  0  0  0  0  0  0  0  0
    5.2195   -2.2618   -1.9888 C   0  0  0  0  0  0  0  0  0  0  0  0
    4.1215   -2.5272    0.2683 C   0  0  0  0  0  0  0  0  0  0  0  0
    2.6889   -1.9703   -0.0099 C   0  0  1  0  0  0  0  0  0  0  0  0
    1.7071   -2.8260    0.5703 O   0  0  0  0  0  0  0  0  0  0  0  0
    1.6058   -4.0718   -0.1036 C   0  0  0  0  0  0  0  0  0  0  0  0
    0.1913   -4.6760    0.0002 C   0  0  0  0  0  0  0  0  0  0  0  0
   -0.5403   -4.3562    1.3163 C   0  0  0  0  0  0  0  0  0  0  0  0
   -1.3113   -3.0286    1.2183 C   0  0  0  0  0  0  0  0  0  0  0  0
   -1.5123   -2.3420    2.5786 C   0  0  2  0  0  0  0  0  0  0  0  0
   -2.5678   -3.0416    3.4465 C   0  0  0  0  0  0  0  0  0  0  0  0
   -1.7814   -0.9433    2.3880 O   0  0  0  0  0  0  0  0  0  0  0  0
   -2.7514   -0.3975    1.5308 C   0  0  0  0  0  0  0  0  0  0  0  0
   -4.1043   -0.7317    1.6718 C   0  0  0  0  0  0  0  0  0  0  0  0
   -5.0823   -0.0763    0.9225 C   0  0  0  0  0  0  0  0  0  0  0  0
   -4.7286    0.9101   -0.0140 C   0  0  0  0  0  0  0  0  0  0  0  0
   -5.7099    1.6815   -0.7358 N   0  0  0  0  0  0  0  0  0  0  0  0
   -7.1256    1.4548   -0.7232 C   0  0  0  0  0  0  0  0  0  0  0  0
   -7.5810    0.2835   -0.6530 O   0  0  0  0  0  0  0  0  0  0  0  0
   -8.0143    2.5766   -0.8062 N   0  0  0  0  0  0  0  0  0  0  0  0
   -9.4328    2.4841   -0.6164 C   0  0  0  0  0  0  0  0  0  0  0  0
  -10.2076    3.3024    0.1750 C   0  0  0  0  0  0  0  0  0  0  0  0
   -9.7221    4.3915    1.0752 C   0  0  0  0  0  0  0  0  0  0  0  0
  -11.4954    2.9068    0.0894 N   0  0  0  0  0  0  0  0  0  0  0  0
  -11.5359    1.9093   -0.7491 O   0  0  0  0  0  0  0  0  0  0  0  0
  -10.3383    1.6221   -1.2134 C   0  0  0  0  0  0  0  0  0  0  0  0
  -10.0767    0.5463   -2.2177 C   0  0  0  0  0  0  0  0  0  0  0  0
   -3.3720    1.2277   -0.1720 C   0  0  0  0  0  0  0  0  0  0  0  0
   -2.3818    0.5797    0.5824 C   0  0  0  0  0  0  0  0  0  0  0  0
   -0.9906    1.0566    0.4582 C   0  0  0  0  0  0  0  0  0  0  0  0
   -0.7428    2.2550    0.7544 O   0  0  0  0  0  0  0  0  0  0  0  0
    0.0870    0.2132   -0.0047 N   0  0  0  0  0  0  0  0  0  0  0  0
    0.2873    0.0352   -1.4683 C   0  0  2  0  0  0  0  0  0  0  0  0
    0.0423    1.3378   -2.2476 C   0  0  0  0  0  0  0  0  0  0  0  0
   -0.5374   -1.1270   -2.0448 C   0  0  0  0  0  0  0  0  0  0  0  0
   -1.9139   -0.9470   -1.8300 O   0  0  0  0  0  0  0  0  0  0  0  0
    1.1019   -0.1067    1.0332 C   0  0  0  0  0  0  0  0  0  0  0  0
    2.5394   -0.5220    0.5907 C   0  0  2  0  0  0  0  0  0  0  0  0
    3.2359    0.5956   -0.2285 C   0  0  0  0  0  0  0  0  0  0  0  0
    8.3031    1.0996    0.8005 C   0  0  0  0  0  0  0  0  0  0  0  0
    8.9813    2.2651    1.1726 C   0  0  0  0  0  0  0  0  0  0  0  0
   10.7886    5.8221    1.8664 H   0  0  0  0  0  0  0  0  0  0  0  0
   11.2236    4.0784    1.9990 H   0  0  0  0  0  0  0  0  0  0  0  0
    9.6614    4.6891    2.7021 H   0  0  0  0  0  0  0  0  0  0  0  0
    8.5342    4.0865   -1.6737 H   0  0  0  0  0  0  0  0  0  0  0  0
    7.3171    2.0409   -2.3230 H   0  0  0  0  0  0  0  0  0  0  0  0
    6.9579   -0.3699   -1.8899 H   0  0  0  0  0  0  0  0  0  0  0  0
    6.2389   -2.6414   -2.2173 H   0  0  0  0  0  0  0  0  0  0  0  0
    4.4917   -3.0660   -2.2290 H   0  0  0  0  0  0  0  0  0  0  0  0
    4.9793   -1.3858   -2.6292 H   0  0  0  0  0  0  0  0  0  0  0  0
    4.3651   -2.4358    1.3493 H   0  0  0  0  0  0  0  0  0  0  0  0
    4.1678   -3.6164    0.0652 H   0  0  0  0  0  0  0  0  0  0  0  0
    2.5393   -1.9130   -1.1077 H   0  0  0  0  0  0  0  0  0  0  0  0
    2.3130   -4.7922    0.3637 H   0  0  0  0  0  0  0  0  0  0  0  0
    1.8448   -3.9967   -1.1916 H   0  0  0  0  0  0  0  0  0  0  0  0
    0.2870   -5.7797   -0.0889 H   0  0  0  0  0  0  0  0  0  0  0  0
   -0.4308   -4.3495   -0.8642 H   0  0  0  0  0  0  0  0  0  0  0  0
   -1.2729   -5.1724    1.5217 H   0  0  0  0  0  0  0  0  0  0  0  0
    0.1929   -4.3502    2.1564 H   0  0  0  0  0  0  0  0  0  0  0  0
   -0.7487   -2.3262    0.5804 H   0  0  0  0  0  0  0  0  0  0  0  0
   -2.2895   -3.1941    0.7157 H   0  0  0  0  0  0  0  0  0  0  0  0
   -0.5569   -2.3899    3.1478 H   0  0  0  0  0  0  0  0  0  0  0  0
   -3.4403   -3.3737    2.8457 H   0  0  0  0  0  0  0  0  0  0  0  0
   -2.1233   -3.9439    3.9219 H   0  0  0  0  0  0  0  0  0  0  0  0
   -2.9073   -2.3588    4.2546 H   0  0  0  0  0  0  0  0  0  0  0  0
   -4.4314   -1.4213    2.4283 H   0  0  0  0  0  0  0  0  0  0  0  0
   -6.1132   -0.3172    1.1322 H   0  0  0  0  0  0  0  0  0  0  0  0
   -5.3836    2.5471   -1.2221 H   0  0  0  0  0  0  0  0  0  0  0  0
   -7.5880    3.5303   -0.7928 H   0  0  0  0  0  0  0  0  0  0  0  0
   -9.2046    3.9409    1.9463 H   0  0  0  0  0  0  0  0  0  0  0  0
   -9.0135    5.0527    0.5311 H   0  0  0  0  0  0  0  0  0  0  0  0
  -10.5781    5.0036    1.4359 H   0  0  0  0  0  0  0  0  0  0  0  0
  -10.9304    0.4883   -2.9257 H   0  0  0  0  0  0  0  0  0  0  0  0
   -9.9748   -0.4323   -1.7007 H   0  0  0  0  0  0  0  0  0  0  0  0
   -9.1588    0.7693   -2.7982 H   0  0  0  0  0  0  0  0  0  0  0  0
   -3.0845    2.0100   -0.8661 H   0  0  0  0  0  0  0  0  0  0  0  0
    1.3320   -0.2199   -1.6932 H   0  0  0  0  0  0  0  0  0  0  0  0
   -1.0289    1.6228   -2.2281 H   0  0  0  0  0  0  0  0  0  0  0  0
    0.3494    1.2164   -3.3083 H   0  0  0  0  0  0  0  0  0  0  0  0
    0.6406    2.1620   -1.8095 H   0  0  0  0  0  0  0  0  0  0  0  0
   -0.3134   -1.2418   -3.1305 H   0  0  0  0  0  0  0  0  0  0  0  0
   -0.2197   -2.0713   -1.5687 H   0  0  0  0  0  0  0  0  0  0  0  0
   -2.3222   -0.7168   -2.7033 H   0  0  0  0  0  0  0  0  0  0  0  0
    1.2375    0.7894    1.6844 H   0  0  0  0  0  0  0  0  0  0  0  0
    0.6956   -0.8750    1.7149 H   0  0  0  0  0  0  0  0  0  0  0  0
    3.0861   -0.5561    1.5635 H   0  0  0  0  0  0  0  0  0  0  0  0
    3.5686    0.2308   -1.2227 H   0  0  0  0  0  0  0  0  0  0  0  0
    2.5695    1.4677   -0.3894 H   0  0  0  0  0  0  0  0  0  0  0  0
    4.1253    0.9809    0.3131 H   0  0  0  0  0  0  0  0  0  0  0  0
    8.3002    0.2594    1.4866 H   0  0  0  0  0  0  0  0  0  0  0  0
    9.4399    2.3029    2.1512 H   0  0  0  0  0  0  0  0  0  0  0  0
  1  2  1  0
  2  3  1  0
  3  4  2  0
  4  5  1  0
  5  6  2  0
  6  7  1  0
  7  8  1  0
  8  9  2  0
  8 10  1  0
 10 11  1  0
 10 12  1  0
 12 13  1  0
 13 14  1  0
 14 15  1  0
 15 16  1  0
 16 17  1  0
 17 18  1  0
 18 19  1  0
 19 20  1  0
 19 21  1  0
 21 22  1  0
 22 23  2  0
 23 24  1  0
 24 25  2  0
 25 26  1  0
 26 27  1  0
 27 28  2  0
 27 29  1  0
 29 30  1  0
 30 31  1  0
 31 32  1  0
 31 33  2  0
 33 34  1  0
 34 35  1  0
 35 36  1  0
 25 37  1  0
 37 38  2  0
 38 39  1  0
 39 40  2  0
 39 41  1  0
 41 42  1  0
 42 43  1  0
 42 44  1  0
 44 45  1  0
 41 46  1  0
 46 47  1  0
 47 48  1  0
  6 49  1  0
 49 50  2  0
 50  3  1  0
 47 13  1  0
 38 22  1  0
 35 30  2  0
  1 51  1  0
  1 52  1  0
  1 53  1  0
  4 54  1  0
  5 55  1  0
  7 56  1  0
 11 57  1  0
 11 58  1  0
 11 59  1  0
 12 60  1  0
 12 61  1  0
 13 62  1  6
 15 63  1  0
 15 64  1  0
 16 65  1  0
 16 66  1  0
 17 67  1  0
 17 68  1  0
 18 69  1  0
 18 70  1  0
 19 71  1  1
 20 72  1  0
 20 73  1  0
 20 74  1  0
 23 75  1  0
 24 76  1  0
 26 77  1  0
 29 78  1  0
 32 79  1  0
 32 80  1  0
 32 81  1  0
 36 82  1  0
 36 83  1  0
 36 84  1  0
 37 85  1  0
 42 86  1  1
 43 87  1  0
 43 88  1  0
 43 89  1  0
 44 90  1  0
 44 91  1  0
 45 92  1  0
 46 93  1  0
 46 94  1  0
 47 95  1  1
 48 96  1  0
 48 97  1  0
 48 98  1  0
 49 99  1  0
 50100  1  0
M  END
$$$$
