
     RDKit          3D

129131  0  0  0  0  0  0  0  0999 V2000
   -5.1569    2.3837    2.6716 C   0  0  0  0  0  0  0  0  0  0  0  0
   -4.6733    1.9314    1.2874 C   0  0  0  0  0  0  0  0  0  0  0  0
   -4.0589    0.4962    1.2611 C   0  0  1  0  0  0  0  0  0  0  0  0
   -2.8511    0.3849    2.0535 O   0  0  0  0  0  0  0  0  0  0  0  0
   -1.8931    1.3931    2.3113 C   0  0  0  0  0  0  0  0  0  0  0  0
   -2.2491    2.5653    2.6099 O   0  0  0  0  0  0  0  0  0  0  0  0
   -0.4145    1.0790    2.2457 C   0  0  2  0  0  0  0  0  0  0  0  0
    0.3582    1.8389    3.3390 C   0  0  0  0  0  0  0  0  0  0  0  0
    0.1410    1.3811    0.8128 C   0  0  1  0  0  0  0  0  0  0  0  0
    0.2861    2.7932    0.6889 O   0  0  0  0  0  0  0  0  0  0  0  0
   -0.7321    3.3979   -0.0956 C   0  0  1  0  0  0  0  0  0  0  0  0
   -1.0552    4.7844    0.5258 C   0  0  0  0  0  0  0  0  0  0  0  0
   -0.4631    5.9633   -0.2976 C   0  0  0  0  0  0  0  0  0  0  0  0
    1.0919    5.9316   -0.2303 C   0  0  0  0  0  0  0  0  0  0  0  0
   -0.9468    7.2373    0.1424 O   0  0  0  0  0  0  0  0  0  0  0  0
   -0.8240    7.4615    1.5346 C   0  0  0  0  0  0  0  0  0  0  0  0
   -0.9472    5.8080   -1.7753 C   0  0  1  0  0  0  0  0  0  0  0  0
   -0.0762    6.4779   -2.6615 O   0  0  0  0  0  0  0  0  0  0  0  0
   -1.1374    4.3140   -2.1900 C   0  0  0  0  0  0  0  0  0  0  0  0
   -0.8928    4.0731   -3.6812 C   0  0  0  0  0  0  0  0  0  0  0  0
   -0.2815    3.4793   -1.4380 O   0  0  0  0  0  0  0  0  0  0  0  0
    1.4977    0.6080    0.4906 C   0  0  2  0  0  0  0  0  0  0  0  0
    2.6343    1.5631    0.0255 C   0  0  0  0  0  0  0  0  0  0  0  0
    1.4531   -0.6991   -0.4383 C   0  0  1  0  0  0  0  0  0  0  0  0
    2.3380   -1.6540    0.1443 O   0  0  0  0  0  0  0  0  0  0  0  0
    3.5001   -1.8856   -0.6408 C   0  0  0  0  0  0  0  0  0  0  0  0
    3.1839   -2.7436   -1.7225 O   0  0  0  0  0  0  0  0  0  0  0  0
    4.2622   -2.8831   -2.6456 C   0  0  0  0  0  0  0  0  0  0  0  0
    3.9613   -2.0599   -3.8953 C   0  0  0  0  0  0  0  0  0  0  0  0
    5.6744   -2.5473   -2.0879 C   0  0  0  0  0  0  0  0  0  0  0  0
    5.8064   -2.9493   -0.5934 C   0  0  1  0  0  0  0  0  0  0  0  0
    7.0346   -2.4130    0.0576 N   0  0  0  0  0  0  0  0  0  0  0  0
    7.2463   -0.9601   -0.1190 C   0  0  0  0  0  0  0  0  0  0  0  0
    8.2433   -3.1610   -0.3244 C   0  0  0  0  0  0  0  0  0  0  0  0
    4.5502   -2.5653    0.2417 C   0  0  0  0  0  0  0  0  0  0  0  0
    3.9684   -3.7387    0.8161 O   0  0  0  0  0  0  0  0  0  0  0  0
    3.5652   -3.7886    2.1544 C   0  0  0  0  0  0  0  0  0  0  0  0
    4.5512   -3.5594    3.2540 C   0  0  0  0  0  0  0  0  0  0  0  0
    2.3541   -4.0169    2.4307 O   0  0  0  0  0  0  0  0  0  0  0  0
    0.0351   -1.3782   -0.6513 C   0  0  2  0  0  0  0  0  0  0  0  0
   -0.7361   -0.5692   -1.7569 C   0  0  0  0  0  0  0  0  0  0  0  0
   -0.6614   -1.3293    0.5638 O   0  0  0  0  0  0  0  0  0  0  0  0
    0.1029   -2.8916   -1.0960 C   0  0  0  0  0  0  0  0  0  0  0  0
   -1.1698   -3.7771   -0.8201 C   0  0  1  0  0  0  0  0  0  0  0  0
   -1.1111   -4.4544    0.5674 C   0  0  0  0  0  0  0  0  0  0  0  0
   -2.5266   -3.0537   -1.0744 C   0  0  0  0  0  0  0  0  0  0  0  0
   -3.6957   -3.7255   -0.4587 N   0  0  0  0  0  0  0  0  0  0  0  0
   -4.1555   -4.8580   -1.2797 C   0  0  0  0  0  0  0  0  0  0  0  0
   -4.8009   -2.7626   -0.1345 C   0  0  2  0  0  0  0  0  0  0  0  0
   -5.1190   -1.8215   -1.3270 C   0  0  0  0  0  0  0  0  0  0  0  0
   -4.5722   -2.1025    1.2971 C   0  0  1  0  0  0  0  0  0  0  0  0
   -3.2319   -2.2504    1.6982 O   0  0  0  0  0  0  0  0  0  0  0  0
   -5.0826   -0.6453    1.6594 C   0  0  0  0  0  0  0  0  0  0  0  0
   -6.5008   -0.3953    1.0641 C   0  0  0  0  0  0  0  0  0  0  0  0
   -5.1917   -0.5915    3.0653 O   0  0  0  0  0  0  0  0  0  0  0  0
   -5.0437    3.4875    2.7633 H   0  0  0  0  0  0  0  0  0  0  0  0
   -6.2292    2.1358    2.8092 H   0  0  0  0  0  0  0  0  0  0  0  0
   -4.5857    1.9085    3.4995 H   0  0  0  0  0  0  0  0  0  0  0  0
   -3.9187    2.6504    0.8982 H   0  0  0  0  0  0  0  0  0  0  0  0
   -5.5081    2.0208    0.5669 H   0  0  0  0  0  0  0  0  0  0  0  0
   -3.7470    0.3374    0.2139 H   0  0  0  0  0  0  0  0  0  0  0  0
   -0.3003    0.0123    2.4995 H   0  0  0  0  0  0  0  0  0  0  0  0
   -0.0353    1.5626    4.3392 H   0  0  0  0  0  0  0  0  0  0  0  0
    0.2712    2.9393    3.2172 H   0  0  0  0  0  0  0  0  0  0  0  0
    1.4392    1.5637    3.3213 H   0  0  0  0  0  0  0  0  0  0  0  0
   -0.6096    1.0139    0.1113 H   0  0  0  0  0  0  0  0  0  0  0  0
   -1.6904    2.8204   -0.0689 H   0  0  0  0  0  0  0  0  0  0  0  0
   -2.1601    4.9071    0.5640 H   0  0  0  0  0  0  0  0  0  0  0  0
   -0.6935    4.8026    1.5788 H   0  0  0  0  0  0  0  0  0  0  0  0
    1.4574    5.7847    0.8077 H   0  0  0  0  0  0  0  0  0  0  0  0
    1.5159    5.1081   -0.8413 H   0  0  0  0  0  0  0  0  0  0  0  0
    1.5131    6.8836   -0.6164 H   0  0  0  0  0  0  0  0  0  0  0  0
   -1.5906    6.8900    2.1006 H   0  0  0  0  0  0  0  0  0  0  0  0
   -1.0220    8.5345    1.7226 H   0  0  0  0  0  0  0  0  0  0  0  0
    0.1951    7.2478    1.9175 H   0  0  0  0  0  0  0  0  0  0  0  0
   -1.9595    6.2764   -1.8617 H   0  0  0  0  0  0  0  0  0  0  0  0
   -0.2178    7.4495   -2.5194 H   0  0  0  0  0  0  0  0  0  0  0  0
   -2.2062    4.0331   -2.0140 H   0  0  0  0  0  0  0  0  0  0  0  0
   -1.5522    4.7363   -4.2831 H   0  0  0  0  0  0  0  0  0  0  0  0
    0.1693    4.2649   -3.9386 H   0  0  0  0  0  0  0  0  0  0  0  0
   -1.1331    3.0177   -3.9301 H   0  0  0  0  0  0  0  0  0  0  0  0
    1.8534    0.2254    1.4749 H   0  0  0  0  0  0  0  0  0  0  0  0
    3.2761    1.1232   -0.7566 H   0  0  0  0  0  0  0  0  0  0  0  0
    2.2653    2.4987   -0.4318 H   0  0  0  0  0  0  0  0  0  0  0  0
    3.2969    1.8125    0.8767 H   0  0  0  0  0  0  0  0  0  0  0  0
    1.7858   -0.4113   -1.4628 H   0  0  0  0  0  0  0  0  0  0  0  0
    3.9297   -0.9271   -1.0095 H   0  0  0  0  0  0  0  0  0  0  0  0
    4.2850   -3.9546   -2.9498 H   0  0  0  0  0  0  0  0  0  0  0  0
    3.8777   -0.9818   -3.6374 H   0  0  0  0  0  0  0  0  0  0  0  0
    3.0066   -2.3939   -4.3463 H   0  0  0  0  0  0  0  0  0  0  0  0
    4.7702   -2.1882   -4.6429 H   0  0  0  0  0  0  0  0  0  0  0  0
    6.4434   -3.0817   -2.6911 H   0  0  0  0  0  0  0  0  0  0  0  0
    5.8537   -1.4584   -2.2251 H   0  0  0  0  0  0  0  0  0  0  0  0
    5.8597   -4.0655   -0.5809 H   0  0  0  0  0  0  0  0  0  0  0  0
    7.9186   -0.5905    0.6823 H   0  0  0  0  0  0  0  0  0  0  0  0
    6.2946   -0.3948   -0.0364 H   0  0  0  0  0  0  0  0  0  0  0  0
    7.7123   -0.7331   -1.0996 H   0  0  0  0  0  0  0  0  0  0  0  0
    8.4285   -3.0996   -1.4148 H   0  0  0  0  0  0  0  0  0  0  0  0
    8.1394   -4.2200   -0.0177 H   0  0  0  0  0  0  0  0  0  0  0  0
    9.1252   -2.7496    0.2116 H   0  0  0  0  0  0  0  0  0  0  0  0
    4.8253   -1.8490    1.0466 H   0  0  0  0  0  0  0  0  0  0  0  0
    5.4740   -4.1490    3.0570 H   0  0  0  0  0  0  0  0  0  0  0  0
    4.8058   -2.4785    3.3227 H   0  0  0  0  0  0  0  0  0  0  0  0
    4.1211   -3.8872    4.2243 H   0  0  0  0  0  0  0  0  0  0  0  0
   -1.7176   -0.1842   -1.3950 H   0  0  0  0  0  0  0  0  0  0  0  0
   -0.9329   -1.1703   -2.6684 H   0  0  0  0  0  0  0  0  0  0  0  0
   -0.1776    0.3302   -2.1083 H   0  0  0  0  0  0  0  0  0  0  0  0
   -0.1094   -1.8125    1.2362 H   0  0  0  0  0  0  0  0  0  0  0  0
    0.3555   -2.9492   -2.1753 H   0  0  0  0  0  0  0  0  0  0  0  0
    0.9442   -3.4026   -0.5925 H   0  0  0  0  0  0  0  0  0  0  0  0
   -1.1234   -4.6126   -1.5538 H   0  0  0  0  0  0  0  0  0  0  0  0
   -1.2197   -3.7323    1.3944 H   0  0  0  0  0  0  0  0  0  0  0  0
   -1.9158   -5.2143    0.6622 H   0  0  0  0  0  0  0  0  0  0  0  0
   -0.1499   -4.9900    0.6960 H   0  0  0  0  0  0  0  0  0  0  0  0
   -2.4846   -2.0528   -0.6504 H   0  0  0  0  0  0  0  0  0  0  0  0
   -2.6648   -2.9240   -2.1683 H   0  0  0  0  0  0  0  0  0  0  0  0
   -3.3339   -5.5996   -1.4049 H   0  0  0  0  0  0  0  0  0  0  0  0
   -4.4731   -4.5334   -2.2975 H   0  0  0  0  0  0  0  0  0  0  0  0
   -4.9938   -5.3856   -0.7826 H   0  0  0  0  0  0  0  0  0  0  0  0
   -5.7484   -3.3448   -0.0243 H   0  0  0  0  0  0  0  0  0  0  0  0
   -4.9475   -2.3330   -2.2965 H   0  0  0  0  0  0  0  0  0  0  0  0
   -6.1954   -1.5616   -1.3516 H   0  0  0  0  0  0  0  0  0  0  0  0
   -4.4945   -0.9144   -1.3353 H   0  0  0  0  0  0  0  0  0  0  0  0
   -5.1628   -2.7851    1.9620 H   0  0  0  0  0  0  0  0  0  0  0  0
   -3.2177   -2.2456    2.6947 H   0  0  0  0  0  0  0  0  0  0  0  0
   -7.0868   -1.3395    1.0203 H   0  0  0  0  0  0  0  0  0  0  0  0
   -6.4573    0.0511    0.0549 H   0  0  0  0  0  0  0  0  0  0  0  0
   -7.0760    0.3066    1.6965 H   0  0  0  0  0  0  0  0  0  0  0  0
   -5.9545   -1.1511    3.3583 H   0  0  0  0  0  0  0  0  0  0  0  0
  1  2  1  0
  2  3  1  0
  3  4  1  0
  4  5  1  0
  5  6  2  0
  5  7  1  0
  7  8  1  0
  7  9  1  0
  9 10  1  0
 10 11  1  0
 11 12  1  0
 12 13  1  0
 13 14  1  0
 13 15  1  0
 15 16  1  0
 13 17  1  0
 17 18  1  0
 17 19  1  0
 19 20  1  0
 19 21  1  0
  9 22  1  0
 22 23  1  0
 22 24  1  0
 24 25  1  0
 25 26  1  0
 26 27  1  0
 27 28  1  0
 28 29  1  0
 28 30  1  0
 30 31  1  0
 31 32  1  0
 32 33  1  0
 32 34  1  0
 31 35  1  0
 35 36  1  0
 36 37  1  0
 37 38  1  0
 37 39  2  0
 24 40  1  0
 40 41  1  0
 40 42  1  1
 40 43  1  0
 43 44  1  0
 44 45  1  0
 44 46  1  0
 46 47  1  0
 47 48  1  0
 47 49  1  0
 49 50  1  0
 49 51  1  0
 51 52  1  0
 51 53  1  0
 53 54  1  0
 53 55  1  0
 53  3  1  0
 21 11  1  0
 35 26  1  0
  1 56  1  0
  1 57  1  0
  1 58  1  0
  2 59  1  0
  2 60  1  0
  3 61  1  6
  7 62  1  1
  8 63  1  0
  8 64  1  0
  8 65  1  0
  9 66  1  6
 11 67  1  6
 12 68  1  0
 12 69  1  0
 14 70  1  0
 14 71  1  0
 14 72  1  0
 16 73  1  0
 16 74  1  0
 16 75  1  0
 17 76  1  1
 18 77  1  0
 19 78  1  0
 20 79  1  0
 20 80  1  0
 20 81  1  0
 22 82  1  1
 23 83  1  0
 23 84  1  0
 23 85  1  0
 24 86  1  6
 26 87  1  0
 28 88  1  0
 29 89  1  0
 29 90  1  0
 29 91  1  0
 30 92  1  0
 30 93  1  0
 31 94  1  6
 33 95  1  0
 33 96  1  0
 33 97  1  0
 34 98  1  0
 34 99  1  0
 34100  1  0
 35101  1  0
 38102  1  0
 38103  1  0
 38104  1  0
 41105  1  0
 41106  1  0
 41107  1  0
 42108  1  0
 43109  1  0
 43110  1  0
 44111  1  6
 45112  1  0
 45113  1  0
 45114  1  0
 46115  1  0
 46116  1  0
 48117  1  0
 48118  1  0
 48119  1  0
 49120  1  1
 50121  1  0
 50122  1  0
 50123  1  0
 51124  1  1
 52125  1  0
 54126  1  0
 54127  1  0
 54128  1  0
 55129  1  0
M  END
$$$$
