
     RDKit          3D

 91 95  0  0  0  0  0  0  0  0999 V2000
    3.2338   -1.7647    5.0310 C   0  0  0  0  0  0  0  0  0  0  0  0
    3.0237   -0.9986    3.7245 C   0  0  0  0  0  0  0  0  0  0  0  0
    1.8616   -1.5280    3.0104 N   0  0  0  0  0  0  0  0  0  0  0  0
    0.5509   -0.9682    3.1547 C   0  0  0  0  0  0  0  0  0  0  0  0
    0.2702   -0.2456    4.1487 O   0  0  0  0  0  0  0  0  0  0  0  0
   -0.4369   -1.1128    2.0381 C   0  0  0  0  0  0  0  0  0  0  0  0
   -0.3251    0.1044    1.1015 C   0  0  0  0  0  0  0  0  0  0  0  0
   -0.8123   -0.1520   -0.3328 C   0  0  0  0  0  0  0  0  0  0  0  0
   -2.2570   -0.5815   -0.3818 C   0  0  0  0  0  0  0  0  0  0  0  0
   -2.5563   -1.8010   -0.5116 O   0  0  0  0  0  0  0  0  0  0  0  0
   -3.2935    0.4052   -0.2729 N   0  0  0  0  0  0  0  0  0  0  0  0
   -4.5761    0.2633   -0.9662 C   0  0  0  0  0  0  0  0  0  0  0  0
   -5.7869    0.0211   -0.0113 C   0  0  0  0  0  0  0  0  0  0  0  0
   -7.0199   -0.1359   -0.9424 C   0  0  0  0  0  0  0  0  0  0  0  0
   -7.5189   -1.4110   -1.3199 C   0  0  0  0  0  0  0  0  0  0  0  0
   -8.5771   -1.5336   -2.2267 C   0  0  0  0  0  0  0  0  0  0  0  0
   -9.1343   -0.4003   -2.8134 C   0  0  0  0  0  0  0  0  0  0  0  0
   -8.6125    0.8590   -2.5219 C   0  0  0  0  0  0  0  0  0  0  0  0
   -9.1130    1.9559   -3.1401 F   0  0  0  0  0  0  0  0  0  0  0  0
   -7.5537    0.9889   -1.6186 C   0  0  0  0  0  0  0  0  0  0  0  0
   -5.9707    1.2333    0.9745 C   0  0  0  0  0  0  0  0  0  0  0  0
   -6.5424    0.7764    2.3280 C   0  0  0  0  0  0  0  0  0  0  0  0
   -5.6813   -0.1034    3.0447 O   0  0  0  0  0  0  0  0  0  0  0  0
   -4.8925   -0.9441    2.2084 C   0  0  0  0  0  0  0  0  0  0  0  0
   -5.5522   -1.2668    0.8543 C   0  0  0  0  0  0  0  0  0  0  0  0
    0.0601   -1.1195   -1.0198 N   0  0  0  0  0  0  0  0  0  0  0  0
    1.3066   -0.7632   -1.6431 C   0  0  0  0  0  0  0  0  0  0  0  0
    2.1936   -1.6464   -1.7885 O   0  0  0  0  0  0  0  0  0  0  0  0
    1.5584    0.5928   -2.1758 C   0  0  0  0  0  0  0  0  0  0  0  0
    0.6036    1.1623   -3.0396 C   0  0  0  0  0  0  0  0  0  0  0  0
    0.8524    2.3786   -3.6775 C   0  0  0  0  0  0  0  0  0  0  0  0
    2.0665    3.0333   -3.4819 C   0  0  0  0  0  0  0  0  0  0  0  0
    3.0326    2.4726   -2.6466 C   0  0  0  0  0  0  0  0  0  0  0  0
    2.7907    1.2670   -1.9740 C   0  0  0  0  0  0  0  0  0  0  0  0
    3.8181    0.7769   -1.1565 O   0  0  0  0  0  0  0  0  0  0  0  0
    3.6633    0.3668    0.2002 C   0  0  0  0  0  0  0  0  0  0  0  0
    5.0434    0.3141    0.8868 C   0  0  0  0  0  0  0  0  0  0  0  0
    5.9757   -0.7562    0.2669 C   0  0  0  0  0  0  0  0  0  0  0  0
    6.5262   -0.3298   -1.0702 C   0  0  0  0  0  0  0  0  0  0  0  0
    7.5337    0.6454   -1.1359 C   0  0  0  0  0  0  0  0  0  0  0  0
    8.0162    1.0766   -2.3744 C   0  0  0  0  0  0  0  0  0  0  0  0
    7.4986    0.5358   -3.5548 C   0  0  0  0  0  0  0  0  0  0  0  0
    6.5001   -0.4389   -3.4987 C   0  0  0  0  0  0  0  0  0  0  0  0
    6.0140   -0.8722   -2.2619 C   0  0  0  0  0  0  0  0  0  0  0  0
    4.8822    0.0877    2.3375 N   0  0  0  0  0  0  0  0  0  0  0  0
    5.3730    1.0811    3.2981 C   0  0  0  0  0  0  0  0  0  0  0  0
    4.2389   -1.0968    2.8389 C   0  0  0  0  0  0  0  0  0  0  0  0
    4.6683   -2.2339    2.5033 O   0  0  0  0  0  0  0  0  0  0  0  0
    4.1210   -1.3669    5.5699 H   0  0  0  0  0  0  0  0  0  0  0  0
    2.3454   -1.6450    5.6858 H   0  0  0  0  0  0  0  0  0  0  0  0
    3.3854   -2.8484    4.8322 H   0  0  0  0  0  0  0  0  0  0  0  0
    2.8458    0.0691    3.9702 H   0  0  0  0  0  0  0  0  0  0  0  0
    1.9968   -2.2956    2.3110 H   0  0  0  0  0  0  0  0  0  0  0  0
   -1.4662   -1.1762    2.4532 H   0  0  0  0  0  0  0  0  0  0  0  0
   -0.2352   -2.0604    1.4983 H   0  0  0  0  0  0  0  0  0  0  0  0
    0.7340    0.4308    1.0374 H   0  0  0  0  0  0  0  0  0  0  0  0
   -0.8959    0.9510    1.5423 H   0  0  0  0  0  0  0  0  0  0  0  0
   -0.7628    0.8234   -0.8552 H   0  0  0  0  0  0  0  0  0  0  0  0
   -3.0356    1.3555    0.0790 H   0  0  0  0  0  0  0  0  0  0  0  0
   -4.7515    1.1902   -1.5547 H   0  0  0  0  0  0  0  0  0  0  0  0
   -4.5130   -0.5631   -1.7119 H   0  0  0  0  0  0  0  0  0  0  0  0
   -7.0848   -2.3276   -0.9489 H   0  0  0  0  0  0  0  0  0  0  0  0
   -8.9521   -2.5137   -2.4929 H   0  0  0  0  0  0  0  0  0  0  0  0
   -9.9482   -0.4989   -3.5204 H   0  0  0  0  0  0  0  0  0  0  0  0
   -7.1316    1.9737   -1.4921 H   0  0  0  0  0  0  0  0  0  0  0  0
   -5.0008    1.7272    1.1840 H   0  0  0  0  0  0  0  0  0  0  0  0
   -6.6310    2.0275    0.5836 H   0  0  0  0  0  0  0  0  0  0  0  0
   -7.5316    0.2869    2.1766 H   0  0  0  0  0  0  0  0  0  0  0  0
   -6.7161    1.6755    2.9577 H   0  0  0  0  0  0  0  0  0  0  0  0
   -3.8972   -0.4808    2.0621 H   0  0  0  0  0  0  0  0  0  0  0  0
   -4.7160   -1.8980    2.7488 H   0  0  0  0  0  0  0  0  0  0  0  0
   -6.5217   -1.7419    1.1153 H   0  0  0  0  0  0  0  0  0  0  0  0
   -4.9573   -2.0266    0.3051 H   0  0  0  0  0  0  0  0  0  0  0  0
   -0.0856   -2.1380   -0.8314 H   0  0  0  0  0  0  0  0  0  0  0  0
   -0.3287    0.6506   -3.2473 H   0  0  0  0  0  0  0  0  0  0  0  0
    0.1102    2.8039   -4.3399 H   0  0  0  0  0  0  0  0  0  0  0  0
    2.2639    3.9724   -3.9861 H   0  0  0  0  0  0  0  0  0  0  0  0
    3.9771    2.9845   -2.5139 H   0  0  0  0  0  0  0  0  0  0  0  0
    3.0268    1.1043    0.7328 H   0  0  0  0  0  0  0  0  0  0  0  0
    3.1817   -0.6273    0.2599 H   0  0  0  0  0  0  0  0  0  0  0  0
    5.5117    1.3125    0.7289 H   0  0  0  0  0  0  0  0  0  0  0  0
    6.8329   -0.9356    0.9549 H   0  0  0  0  0  0  0  0  0  0  0  0
    5.4352   -1.7196    0.1610 H   0  0  0  0  0  0  0  0  0  0  0  0
    7.9377    1.0758   -0.2279 H   0  0  0  0  0  0  0  0  0  0  0  0
    8.7879    1.8345   -2.4184 H   0  0  0  0  0  0  0  0  0  0  0  0
    7.8710    0.8769   -4.5116 H   0  0  0  0  0  0  0  0  0  0  0  0
    6.1009   -0.8565   -4.4141 H   0  0  0  0  0  0  0  0  0  0  0  0
    5.2270   -1.6122   -2.2352 H   0  0  0  0  0  0  0  0  0  0  0  0
    6.1266    1.7562    2.8316 H   0  0  0  0  0  0  0  0  0  0  0  0
    5.8712    0.5681    4.1499 H   0  0  0  0  0  0  0  0  0  0  0  0
    4.5288    1.6876    3.6856 H   0  0  0  0  0  0  0  0  0  0  0  0
  1  2  1  0
  2  3  1  0
  3  4  1  0
  4  5  2  0
  4  6  1  0
  6  7  1  0
  7  8  1  0
  8  9  1  0
  9 10  2  0
  9 11  1  0
 11 12  1  0
 12 13  1  0
 13 14  1  0
 14 15  2  0
 15 16  1  0
 16 17  2  0
 17 18  1  0
 18 19  1  0
 18 20  2  0
 13 21  1  0
 21 22  1  0
 22 23  1  0
 23 24  1  0
 24 25  1  0
  8 26  1  0
 26 27  1  0
 27 28  2  0
 27 29  1  0
 29 30  2  0
 30 31  1  0
 31 32  2  0
 32 33  1  0
 33 34  2  0
 34 35  1  0
 35 36  1  0
 36 37  1  0
 37 38  1  0
 38 39  1  0
 39 40  2  0
 40 41  1  0
 41 42  2  0
 42 43  1  0
 43 44  2  0
 37 45  1  0
 45 46  1  0
 45 47  1  0
 47 48  2  0
 47  2  1  0
 25 13  1  0
 34 29  1  0
 44 39  1  0
 20 14  1  0
  1 49  1  0
  1 50  1  0
  1 51  1  0
  2 52  1  0
  3 53  1  0
  6 54  1  0
  6 55  1  0
  7 56  1  0
  7 57  1  0
  8 58  1  0
 11 59  1  0
 12 60  1  0
 12 61  1  0
 15 62  1  0
 16 63  1  0
 17 64  1  0
 20 65  1  0
 21 66  1  0
 21 67  1  0
 22 68  1  0
 22 69  1  0
 24 70  1  0
 24 71  1  0
 25 72  1  0
 25 73  1  0
 26 74  1  0
 30 75  1  0
 31 76  1  0
 32 77  1  0
 33 78  1  0
 36 79  1  0
 36 80  1  0
 37 81  1  0
 38 82  1  0
 38 83  1  0
 40 84  1  0
 41 85  1  0
 42 86  1  0
 43 87  1  0
 44 88  1  0
 46 89  1  0
 46 90  1  0
 46 91  1  0
M  END
$$$$
