
     RDKit          3D

142145  0  0  0  0  0  0  0  0999 V2000
   -2.5062   -3.7310   -2.5089 C   0  0  0  0  0  0  0  0  0  0  0  0
   -2.4717   -2.7497   -3.6824 C   0  0  0  0  0  0  0  0  0  0  0  0
   -3.5157   -1.6375   -3.5271 C   0  0  0  0  0  0  0  0  0  0  0  0
   -2.9533   -0.4934   -2.9011 O   0  0  0  0  0  0  0  0  0  0  0  0
   -3.4903   -0.2539   -1.6066 C   0  0  0  0  0  0  0  0  0  0  0  0
   -2.4783    0.6233   -0.8022 C   0  0  2  0  0  0  0  0  0  0  0  0
   -1.4150   -0.1372   -0.2288 O   0  0  0  0  0  0  0  0  0  0  0  0
   -0.2178   -0.1061   -1.0027 C   0  0  2  0  0  0  0  0  0  0  0  0
    0.3541   -1.5592   -1.0795 C   0  0  1  0  0  0  0  0  0  0  0  0
    1.6719   -1.5777   -1.6175 O   0  0  0  0  0  0  0  0  0  0  0  0
    1.6659   -1.5012   -3.0286 C   0  0  0  0  0  0  0  0  0  0  0  0
    0.2672   -2.3543    0.2773 C   0  0  2  0  0  0  0  0  0  0  0  0
    0.2046   -1.4704    1.3715 O   0  0  0  0  0  0  0  0  0  0  0  0
    1.4263   -3.3429    0.5344 C   0  0  0  0  0  0  0  0  0  0  0  0
    1.6083   -4.4383   -0.4789 C   0  0  0  0  0  0  0  0  0  0  0  0
    1.1422   -4.3460   -1.6455 O   0  0  0  0  0  0  0  0  0  0  0  0
    2.4070   -5.5327   -0.1272 O   0  0  0  0  0  0  0  0  0  0  0  0
    3.4336   -6.0393   -0.9845 C   0  0  2  0  0  0  0  0  0  0  0  0
    3.3568   -7.5650   -0.9985 C   0  0  0  0  0  0  0  0  0  0  0  0
    4.8064   -5.5663   -0.4680 C   0  0  0  0  0  0  0  0  0  0  0  0
    4.9042   -4.0700   -0.5079 C   0  0  0  0  0  0  0  0  0  0  0  0
    5.2975   -3.3571    0.5568 C   0  0  0  0  0  0  0  0  0  0  0  0
    5.3621   -1.8772    0.5862 C   0  0  0  0  0  0  0  0  0  0  0  0
    4.6725   -1.0866   -0.2484 C   0  0  0  0  0  0  0  0  0  0  0  0
    4.7331    0.4226   -0.2057 C   0  0  2  0  0  0  0  0  0  0  0  0
    5.0696    0.8857    1.0999 O   0  0  0  0  0  0  0  0  0  0  0  0
    6.2493    1.6734    1.0702 C   0  0  1  0  0  0  0  0  0  0  0  0
    6.5126    2.2506    2.4710 C   0  0  0  0  0  0  0  0  0  0  0  0
    7.7947    3.0974    2.4382 C   0  0  0  0  0  0  0  0  0  0  0  0
    8.9619    2.2917    1.8059 C   0  0  2  0  0  0  0  0  0  0  0  0
   10.2255    3.0657    1.6651 N   0  0  0  0  0  0  0  0  0  0  0  0
   10.0885    4.3951    1.0398 C   0  0  0  0  0  0  0  0  0  0  0  0
   10.9739    3.1607    2.9296 C   0  0  0  0  0  0  0  0  0  0  0  0
    8.4943    1.6988    0.4546 C   0  0  1  0  0  0  0  0  0  0  0  0
    9.5843    0.8495   -0.1949 C   0  0  0  0  0  0  0  0  0  0  0  0
    7.3574    0.8764    0.6718 O   0  0  0  0  0  0  0  0  0  0  0  0
    3.4026    1.0670   -0.6905 C   0  0  2  0  0  0  0  0  0  0  0  0
    3.5494    2.6010   -0.7431 C   0  0  0  0  0  0  0  0  0  0  0  0
    2.1460    0.6510    0.1357 C   0  0  0  0  0  0  0  0  0  0  0  0
    0.7980    1.0559   -0.5791 C   0  0  2  0  0  0  0  0  0  0  0  0
    0.1532    2.2522    0.1929 C   0  0  0  0  0  0  0  0  0  0  0  0
   -0.5876    3.2220   -0.6876 C   0  0  0  0  0  0  0  0  0  0  0  0
   -0.0563    3.7179   -1.6718 O   0  0  0  0  0  0  0  0  0  0  0  0
   -3.0641    1.4354    0.2176 O   0  0  0  0  0  0  0  0  0  0  0  0
   -4.2454    0.9111    0.8047 C   0  0  2  0  0  0  0  0  0  0  0  0
   -3.9503   -0.3062    1.7003 C   0  0  0  0  0  0  0  0  0  0  0  0
   -5.3884    0.6749   -0.2343 C   0  0  1  0  0  0  0  0  0  0  0  0
   -6.2872    1.7762   -0.2115 O   0  0  0  0  0  0  0  0  0  0  0  0
   -7.4407    1.5629    0.5920 C   0  0  1  0  0  0  0  0  0  0  0  0
   -7.3901    2.5244    1.7942 C   0  0  0  0  0  0  0  0  0  0  0  0
   -8.6834    2.4702    2.6707 C   0  0  1  0  0  0  0  0  0  0  0  0
   -8.3538    1.9252    4.0779 C   0  0  0  0  0  0  0  0  0  0  0  0
   -9.2175    3.7686    2.7868 O   0  0  0  0  0  0  0  0  0  0  0  0
   -9.7470    1.5454    2.0140 C   0  0  1  0  0  0  0  0  0  0  0  0
  -11.0069    1.7035    2.6261 O   0  0  0  0  0  0  0  0  0  0  0  0
   -9.8229    1.7850    0.4751 C   0  0  2  0  0  0  0  0  0  0  0  0
  -10.6794    0.7075   -0.1947 C   0  0  0  0  0  0  0  0  0  0  0  0
   -8.5711    1.8615   -0.2097 O   0  0  0  0  0  0  0  0  0  0  0  0
   -4.8024    0.5627   -1.6696 C   0  0  2  0  0  0  0  0  0  0  0  0
   -5.7307    0.0481   -2.7236 N   0  0  0  0  0  0  0  0  0  0  0  0
   -6.1678    1.1123   -3.6577 C   0  0  0  0  0  0  0  0  0  0  0  0
   -6.8778   -0.7724   -2.2831 C   0  0  0  0  0  0  0  0  0  0  0  0
   -3.4712   -4.2752   -2.5000 H   0  0  0  0  0  0  0  0  0  0  0  0
   -1.6910   -4.4773   -2.6190 H   0  0  0  0  0  0  0  0  0  0  0  0
   -2.3889   -3.2005   -1.5440 H   0  0  0  0  0  0  0  0  0  0  0  0
   -1.4551   -2.3114   -3.7911 H   0  0  0  0  0  0  0  0  0  0  0  0
   -2.6842   -3.3195   -4.6133 H   0  0  0  0  0  0  0  0  0  0  0  0
   -4.4172   -2.0523   -3.0209 H   0  0  0  0  0  0  0  0  0  0  0  0
   -3.8439   -1.3260   -4.5389 H   0  0  0  0  0  0  0  0  0  0  0  0
   -3.6573   -1.2101   -1.0679 H   0  0  0  0  0  0  0  0  0  0  0  0
   -2.1027    1.3609   -1.5442 H   0  0  0  0  0  0  0  0  0  0  0  0
   -0.4740    0.1025   -2.0696 H   0  0  0  0  0  0  0  0  0  0  0  0
   -0.3268   -2.1178   -1.7531 H   0  0  0  0  0  0  0  0  0  0  0  0
    2.7158   -1.5438   -3.3876 H   0  0  0  0  0  0  0  0  0  0  0  0
    1.1298   -2.3685   -3.4759 H   0  0  0  0  0  0  0  0  0  0  0  0
    1.2368   -0.5388   -3.3794 H   0  0  0  0  0  0  0  0  0  0  0  0
   -0.6698   -2.9614    0.2450 H   0  0  0  0  0  0  0  0  0  0  0  0
   -0.4334   -1.8493    2.0314 H   0  0  0  0  0  0  0  0  0  0  0  0
    1.2475   -3.8296    1.5151 H   0  0  0  0  0  0  0  0  0  0  0  0
    2.3766   -2.7880    0.6323 H   0  0  0  0  0  0  0  0  0  0  0  0
    3.2987   -5.6852   -2.0343 H   0  0  0  0  0  0  0  0  0  0  0  0
    2.3697   -7.8879   -1.4043 H   0  0  0  0  0  0  0  0  0  0  0  0
    4.1575   -7.9813   -1.6500 H   0  0  0  0  0  0  0  0  0  0  0  0
    3.4816   -7.9678    0.0321 H   0  0  0  0  0  0  0  0  0  0  0  0
    4.9557   -5.9510    0.5690 H   0  0  0  0  0  0  0  0  0  0  0  0
    5.6198   -5.9864   -1.1046 H   0  0  0  0  0  0  0  0  0  0  0  0
    4.6770   -3.5812   -1.4474 H   0  0  0  0  0  0  0  0  0  0  0  0
    5.6070   -3.8740    1.4584 H   0  0  0  0  0  0  0  0  0  0  0  0
    5.9376   -1.4272    1.3957 H   0  0  0  0  0  0  0  0  0  0  0  0
    4.0846   -1.5242   -1.0349 H   0  0  0  0  0  0  0  0  0  0  0  0
    5.4957    0.6908   -0.9739 H   0  0  0  0  0  0  0  0  0  0  0  0
    6.1018    2.5350    0.3767 H   0  0  0  0  0  0  0  0  0  0  0  0
    5.6548    2.8838    2.7876 H   0  0  0  0  0  0  0  0  0  0  0  0
    6.6316    1.4179    3.1996 H   0  0  0  0  0  0  0  0  0  0  0  0
    8.0525    3.4131    3.4760 H   0  0  0  0  0  0  0  0  0  0  0  0
    7.5821    4.0149    1.8393 H   0  0  0  0  0  0  0  0  0  0  0  0
    9.1518    1.4232    2.4759 H   0  0  0  0  0  0  0  0  0  0  0  0
   11.0870    4.7582    0.7189 H   0  0  0  0  0  0  0  0  0  0  0  0
    9.6523    5.1267    1.7502 H   0  0  0  0  0  0  0  0  0  0  0  0
    9.4527    4.3479    0.1320 H   0  0  0  0  0  0  0  0  0  0  0  0
   11.2347    2.1442    3.2846 H   0  0  0  0  0  0  0  0  0  0  0  0
   11.9349    3.7019    2.7756 H   0  0  0  0  0  0  0  0  0  0  0  0
   10.3831    3.6742    3.7111 H   0  0  0  0  0  0  0  0  0  0  0  0
    8.2404    2.5118   -0.2646 H   0  0  0  0  0  0  0  0  0  0  0  0
    9.2259    0.4709   -1.1747 H   0  0  0  0  0  0  0  0  0  0  0  0
   10.4919    1.4605   -0.3823 H   0  0  0  0  0  0  0  0  0  0  0  0
    9.8456   -0.0127    0.4490 H   0  0  0  0  0  0  0  0  0  0  0  0
    3.2490    0.7209   -1.7383 H   0  0  0  0  0  0  0  0  0  0  0  0
    4.4327    2.8761   -1.3585 H   0  0  0  0  0  0  0  0  0  0  0  0
    3.6677    3.0205    0.2783 H   0  0  0  0  0  0  0  0  0  0  0  0
    2.6682    3.0744   -1.2134 H   0  0  0  0  0  0  0  0  0  0  0  0
    2.2218    1.1046    1.1464 H   0  0  0  0  0  0  0  0  0  0  0  0
    2.1897   -0.4191    0.3619 H   0  0  0  0  0  0  0  0  0  0  0  0
    1.1034    1.4720   -1.5630 H   0  0  0  0  0  0  0  0  0  0  0  0
    0.9378    2.8612    0.6923 H   0  0  0  0  0  0  0  0  0  0  0  0
   -0.5131    1.8875    1.0010 H   0  0  0  0  0  0  0  0  0  0  0  0
   -1.6096    3.4943   -0.4499 H   0  0  0  0  0  0  0  0  0  0  0  0
   -4.5834    1.6932    1.5100 H   0  0  0  0  0  0  0  0  0  0  0  0
   -3.5323   -1.1618    1.1335 H   0  0  0  0  0  0  0  0  0  0  0  0
   -4.8869   -0.6471    2.2004 H   0  0  0  0  0  0  0  0  0  0  0  0
   -3.2172   -0.0253    2.4920 H   0  0  0  0  0  0  0  0  0  0  0  0
   -5.8667   -0.2938    0.0199 H   0  0  0  0  0  0  0  0  0  0  0  0
   -7.5306    0.5196    0.9773 H   0  0  0  0  0  0  0  0  0  0  0  0
   -6.5002    2.2896    2.4141 H   0  0  0  0  0  0  0  0  0  0  0  0
   -7.2386    3.5512    1.4018 H   0  0  0  0  0  0  0  0  0  0  0  0
   -9.2610    1.9221    4.7174 H   0  0  0  0  0  0  0  0  0  0  0  0
   -7.9588    0.8923    4.0109 H   0  0  0  0  0  0  0  0  0  0  0  0
   -7.5847    2.5571    4.5696 H   0  0  0  0  0  0  0  0  0  0  0  0
   -8.5564    4.3320    3.2676 H   0  0  0  0  0  0  0  0  0  0  0  0
   -9.4483    0.4880    2.1761 H   0  0  0  0  0  0  0  0  0  0  0  0
  -11.3658    2.5955    2.3777 H   0  0  0  0  0  0  0  0  0  0  0  0
  -10.3354    2.7570    0.3079 H   0  0  0  0  0  0  0  0  0  0  0  0
  -11.7111    0.7046    0.2307 H   0  0  0  0  0  0  0  0  0  0  0  0
  -10.2216   -0.2921   -0.0607 H   0  0  0  0  0  0  0  0  0  0  0  0
  -10.7609    0.9175   -1.2841 H   0  0  0  0  0  0  0  0  0  0  0  0
   -4.5010    1.6024   -1.9471 H   0  0  0  0  0  0  0  0  0  0  0  0
   -6.8468    0.7017   -4.4336 H   0  0  0  0  0  0  0  0  0  0  0  0
   -5.2827    1.5394   -4.1811 H   0  0  0  0  0  0  0  0  0  0  0  0
   -6.7013    1.9215   -3.1077 H   0  0  0  0  0  0  0  0  0  0  0  0
   -7.6540   -0.1479   -1.7990 H   0  0  0  0  0  0  0  0  0  0  0  0
   -6.5309   -1.5811   -1.6088 H   0  0  0  0  0  0  0  0  0  0  0  0
   -7.3257   -1.2791   -3.1611 H   0  0  0  0  0  0  0  0  0  0  0  0
  1  2  1  0
  2  3  1  0
  3  4  1  0
  4  5  1  0
  5  6  1  0
  6  7  1  0
  7  8  1  0
  8  9  1  0
  9 10  1  0
 10 11  1  0
  9 12  1  0
 12 13  1  0
 12 14  1  0
 14 15  1  0
 15 16  2  0
 15 17  1  0
 17 18  1  0
 18 19  1  0
 18 20  1  0
 20 21  1  0
 21 22  2  0
 22 23  1  0
 23 24  2  0
 24 25  1  0
 25 26  1  0
 26 27  1  0
 27 28  1  0
 28 29  1  0
 29 30  1  0
 30 31  1  0
 31 32  1  0
 31 33  1  0
 30 34  1  0
 34 35  1  0
 34 36  1  0
 25 37  1  0
 37 38  1  0
 37 39  1  0
 39 40  1  0
 40 41  1  0
 41 42  1  0
 42 43  2  0
  6 44  1  0
 44 45  1  0
 45 46  1  0
 45 47  1  0
 47 48  1  0
 48 49  1  0
 49 50  1  0
 50 51  1  0
 51 52  1  0
 51 53  1  1
 51 54  1  0
 54 55  1  0
 54 56  1  0
 56 57  1  0
 56 58  1  0
 47 59  1  0
 59 60  1  0
 60 61  1  0
 60 62  1  0
 59  5  1  0
 40  8  1  0
 58 49  1  0
 36 27  1  0
  1 63  1  0
  1 64  1  0
  1 65  1  0
  2 66  1  0
  2 67  1  0
  3 68  1  0
  3 69  1  0
  5 70  1  0
  6 71  1  6
  8 72  1  6
  9 73  1  6
 11 74  1  0
 11 75  1  0
 11 76  1  0
 12 77  1  6
 13 78  1  0
 14 79  1  0
 14 80  1  0
 18 81  1  6
 19 82  1  0
 19 83  1  0
 19 84  1  0
 20 85  1  0
 20 86  1  0
 21 87  1  0
 22 88  1  0
 23 89  1  0
 24 90  1  0
 25 91  1  6
 27 92  1  6
 28 93  1  0
 28 94  1  0
 29 95  1  0
 29 96  1  0
 30 97  1  1
 32 98  1  0
 32 99  1  0
 32100  1  0
 33101  1  0
 33102  1  0
 33103  1  0
 34104  1  6
 35105  1  0
 35106  1  0
 35107  1  0
 37108  1  6
 38109  1  0
 38110  1  0
 38111  1  0
 39112  1  0
 39113  1  0
 40114  1  6
 41115  1  0
 41116  1  0
 42117  1  0
 45118  1  1
 46119  1  0
 46120  1  0
 46121  1  0
 47122  1  1
 49123  1  1
 50124  1  0
 50125  1  0
 52126  1  0
 52127  1  0
 52128  1  0
 53129  1  0
 54130  1  6
 55131  1  0
 56132  1  1
 57133  1  0
 57134  1  0
 57135  1  0
 59136  1  6
 61137  1  0
 61138  1  0
 61139  1  0
 62140  1  0
 62141  1  0
 62142  1  0
M  END
$$$$
