
     RDKit          3D

117121  0  0  0  0  0  0  0  0999 V2000
   -5.0918    4.4036    3.9649 C   0  0  0  0  0  0  0  0  0  0  0  0
   -4.1977    4.0950    2.9160 O   0  0  0  0  0  0  0  0  0  0  0  0
   -4.8950    3.8923    1.6970 C   0  0  1  0  0  0  0  0  0  0  0  0
   -4.0943    4.4719    0.5472 C   0  0  0  0  0  0  0  0  0  0  0  0
   -2.7643    4.5490    0.5313 C   0  0  0  0  0  0  0  0  0  0  0  0
   -2.0948    4.8443   -0.6662 O   0  0  0  0  0  0  0  0  0  0  0  0
   -1.5314    3.8127   -1.4822 C   0  0  1  0  0  0  0  0  0  0  0  0
   -2.6017    2.7977   -1.9224 C   0  0  0  0  0  0  0  0  0  0  0  0
   -0.9174    4.3524   -2.6512 O   0  0  0  0  0  0  0  0  0  0  0  0
    0.2709    3.6766   -2.9062 C   0  0  0  0  0  0  0  0  0  0  0  0
    0.8964    3.5930   -4.1450 C   0  0  0  0  0  0  0  0  0  0  0  0
    0.4267    4.4644   -5.2771 C   0  0  0  0  0  0  0  0  0  0  0  0
    1.8294    2.5452   -4.3438 C   0  0  0  0  0  0  0  0  0  0  0  0
    2.3429    2.3234   -5.6199 O   0  0  0  0  0  0  0  0  0  0  0  0
    2.1844    1.6756   -3.2587 C   0  0  0  0  0  0  0  0  0  0  0  0
    2.9195    0.4698   -3.4572 C   0  0  0  0  0  0  0  0  0  0  0  0
    3.5243    0.1297   -4.6725 O   0  0  0  0  0  0  0  0  0  0  0  0
    3.0424   -0.4698   -2.4196 C   0  0  0  0  0  0  0  0  0  0  0  0
    2.7255   -0.0947   -1.0935 C   0  0  0  0  0  0  0  0  0  0  0  0
    2.9901   -0.9840    0.0566 C   0  0  0  0  0  0  0  0  0  0  0  0
    4.1983   -1.3909    0.3111 N   0  0  0  0  0  0  0  0  0  0  0  0
    4.5632   -2.1914    1.4113 N   0  0  0  0  0  0  0  0  0  0  0  0
    3.6126   -2.5402    2.4749 C   0  0  0  0  0  0  0  0  0  0  0  0
    4.3027   -3.3485    3.5814 C   0  0  0  0  0  0  0  0  0  0  0  0
    5.6285   -2.7887    3.9254 N   0  0  0  0  0  0  0  0  0  0  0  0
    5.5146   -1.5132    4.6543 C   0  0  0  0  0  0  0  0  0  0  0  0
    6.5616   -2.6879    2.7726 C   0  0  0  0  0  0  0  0  0  0  0  0
    5.8851   -2.8117    1.3950 C   0  0  0  0  0  0  0  0  0  0  0  0
    2.0736    1.1351   -0.8642 C   0  0  0  0  0  0  0  0  0  0  0  0
    1.8690    1.5981    0.4404 O   0  0  0  0  0  0  0  0  0  0  0  0
    1.6616    1.9309   -1.9550 C   0  0  0  0  0  0  0  0  0  0  0  0
    0.6869    2.9386   -1.8232 C   0  0  0  0  0  0  0  0  0  0  0  0
   -0.3756    3.1161   -0.8308 C   0  0  0  0  0  0  0  0  0  0  0  0
   -0.3358    2.7859    0.3817 O   0  0  0  0  0  0  0  0  0  0  0  0
    3.2654   -1.8467   -2.7835 N   0  0  0  0  0  0  0  0  0  0  0  0
    4.3175   -2.6618   -2.2638 C   0  0  0  0  0  0  0  0  0  0  0  0
    5.4456   -2.1384   -2.0646 O   0  0  0  0  0  0  0  0  0  0  0  0
    4.1158   -4.1180   -1.9926 C   0  0  0  0  0  0  0  0  0  0  0  0
    5.3265   -4.9693   -1.7229 C   0  0  0  0  0  0  0  0  0  0  0  0
    2.9210   -4.7557   -2.0424 C   0  0  0  0  0  0  0  0  0  0  0  0
    1.6037   -4.1416   -2.2902 C   0  0  0  0  0  0  0  0  0  0  0  0
    0.9879   -3.3803   -1.3782 C   0  0  0  0  0  0  0  0  0  0  0  0
   -0.4045   -2.8204   -1.6042 C   0  0  2  0  0  0  0  0  0  0  0  0
   -0.3716   -1.7664   -2.7233 C   0  0  0  0  0  0  0  0  0  0  0  0
   -0.9736   -2.2419   -0.2666 C   0  0  2  0  0  0  0  0  0  0  0  0
   -1.0066   -3.2277    0.7309 O   0  0  0  0  0  0  0  0  0  0  0  0
   -2.3614   -1.5071   -0.3667 C   0  0  1  0  0  0  0  0  0  0  0  0
   -3.4857   -2.4592   -0.8087 C   0  0  0  0  0  0  0  0  0  0  0  0
   -2.7058   -0.7815    0.9896 C   0  0  1  0  0  0  0  0  0  0  0  0
   -1.6275    0.0435    1.3685 O   0  0  0  0  0  0  0  0  0  0  0  0
   -4.0603    0.0299    0.9871 C   0  0  1  0  0  0  0  0  0  0  0  0
   -5.1672   -0.8093    1.6594 C   0  0  0  0  0  0  0  0  0  0  0  0
   -3.9691    1.4465    1.6622 C   0  0  2  0  0  0  0  0  0  0  0  0
   -3.7404    1.2707    3.0657 O   0  0  0  0  0  0  0  0  0  0  0  0
   -2.6150    1.7278    3.7558 C   0  0  0  0  0  0  0  0  0  0  0  0
   -2.5277    1.5116    5.2277 C   0  0  0  0  0  0  0  0  0  0  0  0
   -1.6614    2.2981    3.1532 O   0  0  0  0  0  0  0  0  0  0  0  0
   -5.2233    2.3791    1.4700 C   0  0  2  0  0  0  0  0  0  0  0  0
   -5.9716    2.1991    0.1327 C   0  0  0  0  0  0  0  0  0  0  0  0
   -5.8955    3.6410    4.0626 H   0  0  0  0  0  0  0  0  0  0  0  0
   -5.5314    5.4113    3.8118 H   0  0  0  0  0  0  0  0  0  0  0  0
   -4.5288    4.4177    4.9221 H   0  0  0  0  0  0  0  0  0  0  0  0
   -5.8579    4.4577    1.6843 H   0  0  0  0  0  0  0  0  0  0  0  0
   -4.6283    4.7023   -0.3640 H   0  0  0  0  0  0  0  0  0  0  0  0
   -2.1870    4.3161    1.4155 H   0  0  0  0  0  0  0  0  0  0  0  0
   -3.4748    3.3249   -2.3697 H   0  0  0  0  0  0  0  0  0  0  0  0
   -2.1858    2.0949   -2.6828 H   0  0  0  0  0  0  0  0  0  0  0  0
   -2.9457    2.1842   -1.0669 H   0  0  0  0  0  0  0  0  0  0  0  0
    1.2925    4.9523   -5.7702 H   0  0  0  0  0  0  0  0  0  0  0  0
   -0.2412    5.2709   -4.9168 H   0  0  0  0  0  0  0  0  0  0  0  0
   -0.1304    3.8524   -6.0119 H   0  0  0  0  0  0  0  0  0  0  0  0
    2.1283    2.8919   -6.4295 H   0  0  0  0  0  0  0  0  0  0  0  0
    3.9947    0.7969   -5.2650 H   0  0  0  0  0  0  0  0  0  0  0  0
    2.1788   -1.2050    0.7351 H   0  0  0  0  0  0  0  0  0  0  0  0
    2.7739   -3.1343    2.0513 H   0  0  0  0  0  0  0  0  0  0  0  0
    3.1960   -1.6065    2.9070 H   0  0  0  0  0  0  0  0  0  0  0  0
    4.4300   -4.4009    3.2423 H   0  0  0  0  0  0  0  0  0  0  0  0
    3.6485   -3.3891    4.4757 H   0  0  0  0  0  0  0  0  0  0  0  0
    6.5120   -1.2168    5.0485 H   0  0  0  0  0  0  0  0  0  0  0  0
    4.8336   -1.6258    5.5289 H   0  0  0  0  0  0  0  0  0  0  0  0
    5.1425   -0.7047    3.9876 H   0  0  0  0  0  0  0  0  0  0  0  0
    7.1393   -1.7388    2.7994 H   0  0  0  0  0  0  0  0  0  0  0  0
    7.3084   -3.5009    2.8580 H   0  0  0  0  0  0  0  0  0  0  0  0
    6.5289   -2.3354    0.6197 H   0  0  0  0  0  0  0  0  0  0  0  0
    5.7711   -3.8866    1.1305 H   0  0  0  0  0  0  0  0  0  0  0  0
    2.1437    1.0945    1.2713 H   0  0  0  0  0  0  0  0  0  0  0  0
    2.7779   -2.2012   -3.6414 H   0  0  0  0  0  0  0  0  0  0  0  0
    6.2204   -4.3703   -1.4763 H   0  0  0  0  0  0  0  0  0  0  0  0
    5.1351   -5.6495   -0.8699 H   0  0  0  0  0  0  0  0  0  0  0  0
    5.5551   -5.5787   -2.6266 H   0  0  0  0  0  0  0  0  0  0  0  0
    2.9010   -5.8342   -1.9250 H   0  0  0  0  0  0  0  0  0  0  0  0
    1.0790   -4.4275   -3.1932 H   0  0  0  0  0  0  0  0  0  0  0  0
    1.4863   -3.2016   -0.4350 H   0  0  0  0  0  0  0  0  0  0  0  0
   -1.0460   -3.6630   -1.9367 H   0  0  0  0  0  0  0  0  0  0  0  0
    0.1802   -2.1460   -3.6073 H   0  0  0  0  0  0  0  0  0  0  0  0
   -1.4020   -1.5373   -3.0682 H   0  0  0  0  0  0  0  0  0  0  0  0
    0.1171   -0.8344   -2.3707 H   0  0  0  0  0  0  0  0  0  0  0  0
   -0.2286   -1.4845    0.0584 H   0  0  0  0  0  0  0  0  0  0  0  0
   -1.5076   -4.0025    0.3696 H   0  0  0  0  0  0  0  0  0  0  0  0
   -2.2818   -0.7137   -1.1389 H   0  0  0  0  0  0  0  0  0  0  0  0
   -4.3882   -1.8882   -1.0935 H   0  0  0  0  0  0  0  0  0  0  0  0
   -3.1907   -3.0432   -1.7086 H   0  0  0  0  0  0  0  0  0  0  0  0
   -3.7441   -3.1706    0.0052 H   0  0  0  0  0  0  0  0  0  0  0  0
   -2.7630   -1.5739    1.7717 H   0  0  0  0  0  0  0  0  0  0  0  0
   -1.3949    0.5983    0.5780 H   0  0  0  0  0  0  0  0  0  0  0  0
   -4.3437    0.1878   -0.0733 H   0  0  0  0  0  0  0  0  0  0  0  0
   -4.8490   -1.1728    2.6615 H   0  0  0  0  0  0  0  0  0  0  0  0
   -6.1066   -0.2303    1.8108 H   0  0  0  0  0  0  0  0  0  0  0  0
   -5.4329   -1.6900    1.0322 H   0  0  0  0  0  0  0  0  0  0  0  0
   -3.1158    1.9673    1.1960 H   0  0  0  0  0  0  0  0  0  0  0  0
   -1.8496    2.2588    5.6923 H   0  0  0  0  0  0  0  0  0  0  0  0
   -2.1325    0.4907    5.4162 H   0  0  0  0  0  0  0  0  0  0  0  0
   -3.5369    1.6084    5.6873 H   0  0  0  0  0  0  0  0  0  0  0  0
   -5.9554    2.0972    2.2593 H   0  0  0  0  0  0  0  0  0  0  0  0
   -5.2852    2.3105   -0.7279 H   0  0  0  0  0  0  0  0  0  0  0  0
   -6.7757    2.9583    0.0368 H   0  0  0  0  0  0  0  0  0  0  0  0
   -6.4587    1.2104    0.0751 H   0  0  0  0  0  0  0  0  0  0  0  0
  1  2  1  0
  2  3  1  0
  3  4  1  0
  4  5  2  0
  5  6  1  0
  6  7  1  0
  7  8  1  6
  7  9  1  0
  9 10  1  0
 10 11  2  0
 11 12  1  0
 11 13  1  0
 13 14  1  0
 13 15  2  0
 15 16  1  0
 16 17  1  0
 16 18  2  0
 18 19  1  0
 19 20  1  0
 20 21  2  0
 21 22  1  0
 22 23  1  0
 23 24  1  0
 24 25  1  0
 25 26  1  0
 25 27  1  0
 27 28  1  0
 19 29  2  0
 29 30  1  0
 29 31  1  0
 31 32  2  0
 32 33  1  0
 33 34  2  0
 18 35  1  0
 35 36  1  0
 36 37  2  0
 36 38  1  0
 38 39  1  0
 38 40  2  0
 40 41  1  0
 41 42  2  0
 42 43  1  0
 43 44  1  0
 43 45  1  0
 45 46  1  0
 45 47  1  0
 47 48  1  0
 47 49  1  0
 49 50  1  0
 49 51  1  0
 51 52  1  0
 51 53  1  0
 53 54  1  0
 54 55  1  0
 55 56  1  0
 55 57  2  0
 53 58  1  0
 58 59  1  0
 58  3  1  0
 33  7  1  0
 32 10  1  0
 31 15  1  0
 28 22  1  0
  1 60  1  0
  1 61  1  0
  1 62  1  0
  3 63  1  1
  4 64  1  0
  5 65  1  0
  8 66  1  0
  8 67  1  0
  8 68  1  0
 12 69  1  0
 12 70  1  0
 12 71  1  0
 14 72  1  0
 17 73  1  0
 20 74  1  0
 23 75  1  0
 23 76  1  0
 24 77  1  0
 24 78  1  0
 26 79  1  0
 26 80  1  0
 26 81  1  0
 27 82  1  0
 27 83  1  0
 28 84  1  0
 28 85  1  0
 30 86  1  0
 35 87  1  0
 39 88  1  0
 39 89  1  0
 39 90  1  0
 40 91  1  0
 41 92  1  0
 42 93  1  0
 43 94  1  6
 44 95  1  0
 44 96  1  0
 44 97  1  0
 45 98  1  1
 46 99  1  0
 47100  1  6
 48101  1  0
 48102  1  0
 48103  1  0
 49104  1  1
 50105  1  0
 51106  1  6
 52107  1  0
 52108  1  0
 52109  1  0
 53110  1  6
 56111  1  0
 56112  1  0
 56113  1  0
 58114  1  1
 59115  1  0
 59116  1  0
 59117  1  0
M  END
$$$$
