
     RDKit          3D

 71 75  0  0  0  0  0  0  0  0999 V2000
   -7.2508    2.0064   -2.2661 C   0  0  0  0  0  0  0  0  0  0  0  0
   -5.8951    1.6091   -2.0923 O   0  0  0  0  0  0  0  0  0  0  0  0
   -5.4035    0.8967   -0.9841 C   0  0  0  0  0  0  0  0  0  0  0  0
   -6.1813    0.7186    0.1730 C   0  0  0  0  0  0  0  0  0  0  0  0
   -5.6765    0.0101    1.2639 C   0  0  0  0  0  0  0  0  0  0  0  0
   -4.3846   -0.5466    1.2259 C   0  0  0  0  0  0  0  0  0  0  0  0
   -3.5975   -0.3538    0.0786 C   0  0  0  0  0  0  0  0  0  0  0  0
   -4.1030    0.3468   -1.0319 C   0  0  0  0  0  0  0  0  0  0  0  0
   -3.2329    0.5137   -2.2473 C   0  0  0  0  0  0  0  0  0  0  0  0
   -2.2917    1.5352   -2.0032 O   0  0  0  0  0  0  0  0  0  0  0  0
   -1.5378    1.7892   -3.1731 C   0  0  0  0  0  0  0  0  0  0  0  0
   -0.1429    2.1945   -2.7950 C   0  0  0  0  0  0  0  0  0  0  0  0
    0.7261    1.3708   -2.1914 C   0  0  0  0  0  0  0  0  0  0  0  0
    0.3858   -0.0296   -1.7575 C   0  0  0  0  0  0  0  0  0  0  0  0
    1.5678   -0.6985   -1.3797 O   0  0  0  0  0  0  0  0  0  0  0  0
    1.2746   -1.8996   -0.6936 C   0  0  0  0  0  0  0  0  0  0  0  0
    1.4399   -1.6993    0.7919 C   0  0  0  0  0  0  0  0  0  0  0  0
    0.3368   -1.8685    1.6518 C   0  0  0  0  0  0  0  0  0  0  0  0
    0.4821   -1.7082    3.0420 C   0  0  0  0  0  0  0  0  0  0  0  0
    1.7427   -1.3824    3.5570 C   0  0  0  0  0  0  0  0  0  0  0  0
    2.8416   -1.2198    2.7153 C   0  0  0  0  0  0  0  0  0  0  0  0
    2.7066   -1.3834    1.3259 C   0  0  0  0  0  0  0  0  0  0  0  0
    3.8031   -1.2628    0.4506 O   0  0  0  0  0  0  0  0  0  0  0  0
    5.1529   -0.9896    0.8265 C   0  0  0  0  0  0  0  0  0  0  0  0
    5.3670    0.5014    1.1812 C   0  0  0  0  0  0  0  0  0  0  0  0
    5.5096    1.4161    0.0244 N   0  0  0  0  0  0  0  0  0  0  0  0
    4.3431    1.4456   -0.8633 C   0  0  0  0  0  0  0  0  0  0  0  0
    4.7006    0.6603   -2.1088 C   0  0  0  0  0  0  0  0  0  0  0  0
    6.2067    0.7698   -2.2107 C   0  0  0  0  0  0  0  0  0  0  0  0
    6.6898    1.1460   -0.8130 C   0  0  0  0  0  0  0  0  0  0  0  0
   -0.5869   -1.9850    3.9680 N   0  0  0  0  0  0  0  0  0  0  0  0
   -1.9874   -2.0324    3.6668 C   0  0  0  0  0  0  0  0  0  0  0  0
   -2.8151   -2.7278    4.4907 N   0  0  0  0  0  0  0  0  0  0  0  0
   -4.1528   -2.7645    4.2765 C   0  0  0  0  0  0  0  0  0  0  0  0
   -4.7043   -2.0671    3.2069 C   0  0  0  0  0  0  0  0  0  0  0  0
   -3.8522   -1.3225    2.3751 C   0  0  0  0  0  0  0  0  0  0  0  0
   -2.5118   -1.3271    2.6272 N   0  0  0  0  0  0  0  0  0  0  0  0
   -7.5459    2.7305   -1.4759 H   0  0  0  0  0  0  0  0  0  0  0  0
   -7.3627    2.4956   -3.2591 H   0  0  0  0  0  0  0  0  0  0  0  0
   -7.9112    1.1131   -2.2379 H   0  0  0  0  0  0  0  0  0  0  0  0
   -7.1823    1.1284    0.2419 H   0  0  0  0  0  0  0  0  0  0  0  0
   -6.2992   -0.0863    2.1454 H   0  0  0  0  0  0  0  0  0  0  0  0
   -2.5962   -0.7720    0.0332 H   0  0  0  0  0  0  0  0  0  0  0  0
   -2.7100   -0.4484   -2.4406 H   0  0  0  0  0  0  0  0  0  0  0  0
   -3.8526    0.7441   -3.1433 H   0  0  0  0  0  0  0  0  0  0  0  0
   -1.4699    0.9254   -3.8742 H   0  0  0  0  0  0  0  0  0  0  0  0
   -2.0133    2.6264   -3.7271 H   0  0  0  0  0  0  0  0  0  0  0  0
    0.1927    3.1946   -3.0600 H   0  0  0  0  0  0  0  0  0  0  0  0
    1.7259    1.7410   -2.0080 H   0  0  0  0  0  0  0  0  0  0  0  0
   -0.0815   -0.5765   -2.6066 H   0  0  0  0  0  0  0  0  0  0  0  0
   -0.3392    0.0327   -0.9093 H   0  0  0  0  0  0  0  0  0  0  0  0
    2.0064   -2.6661   -1.0197 H   0  0  0  0  0  0  0  0  0  0  0  0
    0.2721   -2.3243   -0.9456 H   0  0  0  0  0  0  0  0  0  0  0  0
   -0.6153   -2.1740    1.2366 H   0  0  0  0  0  0  0  0  0  0  0  0
    1.8777   -1.2719    4.6239 H   0  0  0  0  0  0  0  0  0  0  0  0
    3.7977   -0.9788    3.1655 H   0  0  0  0  0  0  0  0  0  0  0  0
    5.8144   -1.2946   -0.0065 H   0  0  0  0  0  0  0  0  0  0  0  0
    5.4382   -1.6324    1.6866 H   0  0  0  0  0  0  0  0  0  0  0  0
    4.5342    0.8606    1.8204 H   0  0  0  0  0  0  0  0  0  0  0  0
    6.2812    0.5822    1.8057 H   0  0  0  0  0  0  0  0  0  0  0  0
    3.4196    1.0666   -0.3790 H   0  0  0  0  0  0  0  0  0  0  0  0
    4.1478    2.5032   -1.1522 H   0  0  0  0  0  0  0  0  0  0  0  0
    4.1972    1.0689   -3.0070 H   0  0  0  0  0  0  0  0  0  0  0  0
    4.4110   -0.4028   -1.9888 H   0  0  0  0  0  0  0  0  0  0  0  0
    6.4737    1.5719   -2.9341 H   0  0  0  0  0  0  0  0  0  0  0  0
    6.6544   -0.1918   -2.5482 H   0  0  0  0  0  0  0  0  0  0  0  0
    7.3441    0.3474   -0.3966 H   0  0  0  0  0  0  0  0  0  0  0  0
    7.3009    2.0726   -0.8676 H   0  0  0  0  0  0  0  0  0  0  0  0
   -0.3207   -2.2177    4.9506 H   0  0  0  0  0  0  0  0  0  0  0  0
   -4.7885   -3.3369    4.9393 H   0  0  0  0  0  0  0  0  0  0  0  0
   -5.7694   -2.1268    3.0300 H   0  0  0  0  0  0  0  0  0  0  0  0
  1  2  1  0
  2  3  1  0
  3  4  2  0
  4  5  1  0
  5  6  2  0
  6  7  1  0
  7  8  2  0
  8  9  1  0
  9 10  1  0
 10 11  1  0
 11 12  1  0
 12 13  2  3
 13 14  1  0
 14 15  1  0
 15 16  1  0
 16 17  1  0
 17 18  2  0
 18 19  1  0
 19 20  2  0
 20 21  1  0
 21 22  2  0
 22 23  1  0
 23 24  1  0
 24 25  1  0
 25 26  1  0
 26 27  1  0
 27 28  1  0
 28 29  1  0
 29 30  1  0
 19 31  1  0
 31 32  1  0
 32 33  1  0
 33 34  2  0
 34 35  1  0
 35 36  2  0
 36 37  1  0
  8  3  1  0
 22 17  1  0
 30 26  1  0
 37 32  2  0
 36  6  1  0
  1 38  1  0
  1 39  1  0
  1 40  1  0
  4 41  1  0
  5 42  1  0
  7 43  1  0
  9 44  1  0
  9 45  1  0
 11 46  1  0
 11 47  1  0
 12 48  1  0
 13 49  1  0
 14 50  1  0
 14 51  1  0
 16 52  1  0
 16 53  1  0
 18 54  1  0
 20 55  1  0
 21 56  1  0
 24 57  1  0
 24 58  1  0
 25 59  1  0
 25 60  1  0
 27 61  1  0
 27 62  1  0
 28 63  1  0
 28 64  1  0
 29 65  1  0
 29 66  1  0
 30 67  1  0
 30 68  1  0
 31 69  1  0
 34 70  1  0
 35 71  1  0
M  END
$$$$
