
     RDKit          3D

 73 76  0  0  0  0  0  0  0  0999 V2000
   -5.7645   -0.8572   -1.1977 C   0  0  0  0  0  0  0  0  0  0  0  0
   -4.4367   -0.6445   -0.6165 N   0  0  0  0  0  0  0  0  0  0  0  0
   -3.7734   -1.7454    0.0960 C   0  0  0  0  0  0  0  0  0  0  0  0
   -3.2075   -2.7718   -0.9004 C   0  0  0  0  0  0  0  0  0  0  0  0
   -1.7801   -2.7224   -0.9462 O   0  0  0  0  0  0  0  0  0  0  0  0
   -0.9214   -3.4067   -0.0656 C   0  0  0  0  0  0  0  0  0  0  0  0
   -1.3862   -3.9943    1.1278 C   0  0  0  0  0  0  0  0  0  0  0  0
   -0.5097   -4.6944    1.9621 C   0  0  0  0  0  0  0  0  0  0  0  0
    0.8360   -4.8167    1.6182 C   0  0  0  0  0  0  0  0  0  0  0  0
    1.3122   -4.2346    0.4409 C   0  0  0  0  0  0  0  0  0  0  0  0
    0.4424   -3.5233   -0.3980 C   0  0  0  0  0  0  0  0  0  0  0  0
    0.9647   -2.9077   -1.6288 C   0  0  0  0  0  0  0  0  0  0  0  0
    1.3474   -3.6482   -2.5731 O   0  0  0  0  0  0  0  0  0  0  0  0
    1.0440   -1.4829   -1.7678 N   0  0  0  0  0  0  0  0  0  0  0  0
    1.2867   -0.6123   -0.6147 C   0  0  0  0  0  0  0  0  0  0  0  0
    2.7428   -0.6706   -0.2365 C   0  0  0  0  0  0  0  0  0  0  0  0
    3.0640   -1.0260    0.9311 O   0  0  0  0  0  0  0  0  0  0  0  0
    3.7597   -0.3252   -1.1898 N   0  0  0  0  0  0  0  0  0  0  0  0
    5.1732   -0.2274   -0.8311 C   0  0  0  0  0  0  0  0  0  0  0  0
    5.4285    1.0439   -0.0159 C   0  0  0  0  0  0  0  0  0  0  0  0
    6.8880    1.1817    0.3108 C   0  0  0  0  0  0  0  0  0  0  0  0
    7.4439    0.4962    1.4011 C   0  0  0  0  0  0  0  0  0  0  0  0
    8.8113    0.6180    1.6614 C   0  0  0  0  0  0  0  0  0  0  0  0
    9.6065    1.4149    0.8378 C   0  0  0  0  0  0  0  0  0  0  0  0
    9.0212    2.0772   -0.2450 C   0  0  0  0  0  0  0  0  0  0  0  0
    7.6888    1.9441   -0.4863 N   0  0  0  0  0  0  0  0  0  0  0  0
    0.8787    0.8378   -0.9215 C   0  0  0  0  0  0  0  0  0  0  0  0
   -0.6055    0.9777   -1.0984 C   0  0  0  0  0  0  0  0  0  0  0  0
   -1.0677    1.2744   -2.2323 O   0  0  0  0  0  0  0  0  0  0  0  0
   -1.4827    0.7982    0.0263 N   0  0  0  0  0  0  0  0  0  0  0  0
   -2.8707    1.2661    0.0787 C   0  0  0  0  0  0  0  0  0  0  0  0
   -2.9241    2.8029   -0.0457 C   0  0  0  0  0  0  0  0  0  0  0  0
   -4.2902    3.3463    0.2949 C   0  0  0  0  0  0  0  0  0  0  0  0
   -4.6856    3.4693    1.6380 C   0  0  0  0  0  0  0  0  0  0  0  0
   -5.9477    3.9810    1.9555 C   0  0  0  0  0  0  0  0  0  0  0  0
   -6.8228    4.3723    0.9387 C   0  0  0  0  0  0  0  0  0  0  0  0
   -6.4443    4.2385   -0.3997 C   0  0  0  0  0  0  0  0  0  0  0  0
   -5.1843    3.7237   -0.7238 C   0  0  0  0  0  0  0  0  0  0  0  0
   -3.7254    0.5595   -0.9501 C   0  0  0  0  0  0  0  0  0  0  0  0
   -3.8450    1.0448   -2.1085 O   0  0  0  0  0  0  0  0  0  0  0  0
   -6.2544   -1.7513   -0.7552 H   0  0  0  0  0  0  0  0  0  0  0  0
   -5.6766   -1.0046   -2.2966 H   0  0  0  0  0  0  0  0  0  0  0  0
   -6.4090    0.0275   -0.9947 H   0  0  0  0  0  0  0  0  0  0  0  0
   -2.9689   -1.3632    0.7601 H   0  0  0  0  0  0  0  0  0  0  0  0
   -4.5088   -2.2484    0.7608 H   0  0  0  0  0  0  0  0  0  0  0  0
   -3.5490   -3.8003   -0.6441 H   0  0  0  0  0  0  0  0  0  0  0  0
   -3.5892   -2.5649   -1.9236 H   0  0  0  0  0  0  0  0  0  0  0  0
   -2.4213   -3.9128    1.4220 H   0  0  0  0  0  0  0  0  0  0  0  0
   -0.8755   -5.1410    2.8787 H   0  0  0  0  0  0  0  0  0  0  0  0
    1.5113   -5.3611    2.2651 H   0  0  0  0  0  0  0  0  0  0  0  0
    2.3620   -4.3262    0.1904 H   0  0  0  0  0  0  0  0  0  0  0  0
    1.2215   -1.1021   -2.7246 H   0  0  0  0  0  0  0  0  0  0  0  0
    0.6850   -0.9641    0.2511 H   0  0  0  0  0  0  0  0  0  0  0  0
    3.4905   -0.1592   -2.1862 H   0  0  0  0  0  0  0  0  0  0  0  0
    5.7808   -0.1905   -1.7612 H   0  0  0  0  0  0  0  0  0  0  0  0
    5.4797   -1.1302   -0.2577 H   0  0  0  0  0  0  0  0  0  0  0  0
    5.0950    1.9290   -0.6005 H   0  0  0  0  0  0  0  0  0  0  0  0
    4.8344    1.0215    0.9226 H   0  0  0  0  0  0  0  0  0  0  0  0
    6.8263   -0.1287    2.0357 H   0  0  0  0  0  0  0  0  0  0  0  0
    9.2544    0.0923    2.4969 H   0  0  0  0  0  0  0  0  0  0  0  0
   10.6679    1.5122    1.0307 H   0  0  0  0  0  0  0  0  0  0  0  0
    9.6272    2.6960   -0.8954 H   0  0  0  0  0  0  0  0  0  0  0  0
    1.4015    1.2000   -1.8331 H   0  0  0  0  0  0  0  0  0  0  0  0
    1.1866    1.4938   -0.0794 H   0  0  0  0  0  0  0  0  0  0  0  0
   -1.0750    0.4347    0.9167 H   0  0  0  0  0  0  0  0  0  0  0  0
   -3.2754    1.0089    1.0834 H   0  0  0  0  0  0  0  0  0  0  0  0
   -2.1843    3.2478    0.6550 H   0  0  0  0  0  0  0  0  0  0  0  0
   -2.6211    3.1233   -1.0670 H   0  0  0  0  0  0  0  0  0  0  0  0
   -4.0134    3.1794    2.4364 H   0  0  0  0  0  0  0  0  0  0  0  0
   -6.2436    4.0804    2.9910 H   0  0  0  0  0  0  0  0  0  0  0  0
   -7.7951    4.7761    1.1878 H   0  0  0  0  0  0  0  0  0  0  0  0
   -7.1241    4.5373   -1.1883 H   0  0  0  0  0  0  0  0  0  0  0  0
   -4.9041    3.6316   -1.7673 H   0  0  0  0  0  0  0  0  0  0  0  0
  1  2  1  0
  2  3  1  0
  3  4  1  0
  4  5  1  0
  5  6  1  0
  6  7  2  0
  7  8  1  0
  8  9  2  0
  9 10  1  0
 10 11  2  0
 11 12  1  0
 12 13  2  0
 12 14  1  0
 14 15  1  0
 15 16  1  0
 16 17  2  0
 16 18  1  0
 18 19  1  0
 19 20  1  0
 20 21  1  0
 21 22  2  0
 22 23  1  0
 23 24  2  0
 24 25  1  0
 25 26  2  0
 15 27  1  0
 27 28  1  0
 28 29  2  0
 28 30  1  0
 30 31  1  0
 31 32  1  0
 32 33  1  0
 33 34  2  0
 34 35  1  0
 35 36  2  0
 36 37  1  0
 37 38  2  0
 31 39  1  0
 39 40  2  0
 39  2  1  0
 11  6  1  0
 26 21  1  0
 38 33  1  0
  1 41  1  0
  1 42  1  0
  1 43  1  0
  3 44  1  0
  3 45  1  0
  4 46  1  0
  4 47  1  0
  7 48  1  0
  8 49  1  0
  9 50  1  0
 10 51  1  0
 14 52  1  0
 15 53  1  0
 18 54  1  0
 19 55  1  0
 19 56  1  0
 20 57  1  0
 20 58  1  0
 22 59  1  0
 23 60  1  0
 24 61  1  0
 25 62  1  0
 27 63  1  0
 27 64  1  0
 30 65  1  0
 31 66  1  0
 32 67  1  0
 32 68  1  0
 34 69  1  0
 35 70  1  0
 36 71  1  0
 37 72  1  0
 38 73  1  0
M  END
$$$$
