
     RDKit          3D

 84 86  0  0  0  0  0  0  0  0999 V2000
   -6.3855   -3.0553    0.7847 C   0  0  0  0  0  0  0  0  0  0  0  0
   -5.0332   -2.3596    0.9976 C   0  0  0  0  0  0  0  0  0  0  0  0
   -4.2914   -3.0390    2.1607 C   0  0  0  0  0  0  0  0  0  0  0  0
   -4.2060   -2.3831   -0.3174 C   0  0  0  0  0  0  0  0  0  0  0  0
   -3.2108   -1.2062   -0.4612 C   0  0  2  0  0  0  0  0  0  0  0  0
   -2.7329   -1.1115   -1.8481 N   0  0  0  0  0  0  0  0  0  0  0  0
   -2.1726    0.0718   -2.4477 C   0  0  0  0  0  0  0  0  0  0  0  0
   -1.8415    0.0335   -3.6643 O   0  0  0  0  0  0  0  0  0  0  0  0
   -2.0285    1.3695   -1.6888 C   0  0  2  0  0  0  0  0  0  0  0  0
   -3.3375    2.1783   -1.7584 C   0  0  0  0  0  0  0  0  0  0  0  0
   -3.2976    3.3375   -0.7971 C   0  0  0  0  0  0  0  0  0  0  0  0
   -3.5999    3.1383    0.5605 C   0  0  0  0  0  0  0  0  0  0  0  0
   -3.5120    4.2000    1.4657 C   0  0  0  0  0  0  0  0  0  0  0  0
   -3.1125    5.4642    1.0248 C   0  0  0  0  0  0  0  0  0  0  0  0
   -2.7970    5.6683   -0.3211 C   0  0  0  0  0  0  0  0  0  0  0  0
   -2.8841    4.6088   -1.2300 C   0  0  0  0  0  0  0  0  0  0  0  0
   -0.9323    2.1651   -2.2531 N   0  0  0  0  0  0  0  0  0  0  0  0
    0.1797    2.6213   -1.4742 C   0  0  0  0  0  0  0  0  0  0  0  0
    0.5576    3.8180   -1.5947 O   0  0  0  0  0  0  0  0  0  0  0  0
    0.9250    1.6943   -0.5414 C   0  0  2  0  0  0  0  0  0  0  0  0
    0.7044    2.1312    0.9089 C   0  0  0  0  0  0  0  0  0  0  0  0
    2.3566    1.7145   -0.8697 N   0  0  0  0  0  0  0  0  0  0  0  0
    3.2095    0.5611   -0.8258 C   0  0  0  0  0  0  0  0  0  0  0  0
    4.1287    0.4574   -1.6831 O   0  0  0  0  0  0  0  0  0  0  0  0
    3.1292   -0.4547    0.2919 C   0  0  2  0  0  0  0  0  0  0  0  0
    3.9321    0.0350    1.5223 C   0  0  0  0  0  0  0  0  0  0  0  0
    5.4046    0.2348    1.2447 C   0  0  0  0  0  0  0  0  0  0  0  0
    5.8752    1.4766    0.7840 C   0  0  0  0  0  0  0  0  0  0  0  0
    7.2340    1.6614    0.5130 C   0  0  0  0  0  0  0  0  0  0  0  0
    8.1385    0.6080    0.7002 C   0  0  0  0  0  0  0  0  0  0  0  0
    9.4949    0.7812    0.4341 O   0  0  0  0  0  0  0  0  0  0  0  0
    7.6762   -0.6290    1.1610 C   0  0  0  0  0  0  0  0  0  0  0  0
    6.3178   -0.8163    1.4339 C   0  0  0  0  0  0  0  0  0  0  0  0
    3.6194   -1.7662   -0.1851 N   0  0  0  0  0  0  0  0  0  0  0  0
    2.5686   -2.5312   -0.8804 C   0  0  0  0  0  0  0  0  0  0  0  0
    1.7485   -3.3837    0.1075 C   0  0  0  0  0  0  0  0  0  0  0  0
    0.5015   -4.0209   -0.5306 C   0  0  0  0  0  0  0  0  0  0  0  0
   -0.6464   -3.0285   -0.7805 C   0  0  0  0  0  0  0  0  0  0  0  0
   -1.1436   -2.4435    0.4659 N   0  0  0  0  0  0  0  0  0  0  0  0
   -2.0521   -1.3346    0.5004 C   0  0  0  0  0  0  0  0  0  0  0  0
   -1.9357   -0.4862    1.4255 O   0  0  0  0  0  0  0  0  0  0  0  0
   -6.9637   -2.5392   -0.0110 H   0  0  0  0  0  0  0  0  0  0  0  0
   -6.2353   -4.1165    0.4907 H   0  0  0  0  0  0  0  0  0  0  0  0
   -6.9892   -3.0230    1.7172 H   0  0  0  0  0  0  0  0  0  0  0  0
   -5.2469   -1.3072    1.2870 H   0  0  0  0  0  0  0  0  0  0  0  0
   -4.9451   -3.0903    3.0580 H   0  0  0  0  0  0  0  0  0  0  0  0
   -3.9883   -4.0718    1.8856 H   0  0  0  0  0  0  0  0  0  0  0  0
   -3.3920   -2.4656    2.4535 H   0  0  0  0  0  0  0  0  0  0  0  0
   -3.6831   -3.3577   -0.4272 H   0  0  0  0  0  0  0  0  0  0  0  0
   -4.9089   -2.3102   -1.1781 H   0  0  0  0  0  0  0  0  0  0  0  0
   -3.7745   -0.2811   -0.2227 H   0  0  0  0  0  0  0  0  0  0  0  0
   -2.8309   -1.9481   -2.4679 H   0  0  0  0  0  0  0  0  0  0  0  0
   -1.8096    1.1381   -0.6281 H   0  0  0  0  0  0  0  0  0  0  0  0
   -3.5054    2.5431   -2.7964 H   0  0  0  0  0  0  0  0  0  0  0  0
   -4.2109    1.5376   -1.5131 H   0  0  0  0  0  0  0  0  0  0  0  0
   -3.8979    2.1597    0.9164 H   0  0  0  0  0  0  0  0  0  0  0  0
   -3.7483    4.0407    2.5096 H   0  0  0  0  0  0  0  0  0  0  0  0
   -3.0400    6.2840    1.7271 H   0  0  0  0  0  0  0  0  0  0  0  0
   -2.4786    6.6456   -0.6596 H   0  0  0  0  0  0  0  0  0  0  0  0
   -2.6239    4.7774   -2.2679 H   0  0  0  0  0  0  0  0  0  0  0  0
   -1.0745    2.6067   -3.1900 H   0  0  0  0  0  0  0  0  0  0  0  0
    0.5313    0.6628   -0.6760 H   0  0  0  0  0  0  0  0  0  0  0  0
   -0.3818    2.2219    1.1250 H   0  0  0  0  0  0  0  0  0  0  0  0
    1.1293    1.3858    1.6095 H   0  0  0  0  0  0  0  0  0  0  0  0
    1.1905    3.1122    1.0959 H   0  0  0  0  0  0  0  0  0  0  0  0
    2.7546    2.5658   -1.3248 H   0  0  0  0  0  0  0  0  0  0  0  0
    2.0730   -0.5473    0.6241 H   0  0  0  0  0  0  0  0  0  0  0  0
    3.4964    0.9899    1.8891 H   0  0  0  0  0  0  0  0  0  0  0  0
    3.8054   -0.6935    2.3525 H   0  0  0  0  0  0  0  0  0  0  0  0
    5.1892    2.3009    0.6327 H   0  0  0  0  0  0  0  0  0  0  0  0
    7.5827    2.6226    0.1576 H   0  0  0  0  0  0  0  0  0  0  0  0
    9.8601    1.6662    0.1023 H   0  0  0  0  0  0  0  0  0  0  0  0
    8.3711   -1.4457    1.3091 H   0  0  0  0  0  0  0  0  0  0  0  0
    5.9826   -1.7791    1.7988 H   0  0  0  0  0  0  0  0  0  0  0  0
    3.9802   -2.3392    0.6128 H   0  0  0  0  0  0  0  0  0  0  0  0
    3.0559   -3.2089   -1.6146 H   0  0  0  0  0  0  0  0  0  0  0  0
    1.9148   -1.8500   -1.4654 H   0  0  0  0  0  0  0  0  0  0  0  0
    2.4016   -4.2047    0.4764 H   0  0  0  0  0  0  0  0  0  0  0  0
    1.4679   -2.7806    0.9946 H   0  0  0  0  0  0  0  0  0  0  0  0
    0.1303   -4.8273    0.1401 H   0  0  0  0  0  0  0  0  0  0  0  0
    0.7849   -4.5005   -1.4931 H   0  0  0  0  0  0  0  0  0  0  0  0
   -0.3076   -2.2237   -1.4641 H   0  0  0  0  0  0  0  0  0  0  0  0
   -1.4703   -3.5778   -1.2808 H   0  0  0  0  0  0  0  0  0  0  0  0
   -0.7436   -2.7528    1.3806 H   0  0  0  0  0  0  0  0  0  0  0  0
  1  2  1  0
  2  3  1  0
  2  4  1  0
  4  5  1  0
  5  6  1  0
  6  7  1  0
  7  8  2  0
  7  9  1  0
  9 10  1  0
 10 11  1  0
 11 12  2  0
 12 13  1  0
 13 14  2  0
 14 15  1  0
 15 16  2  0
  9 17  1  0
 17 18  1  0
 18 19  2  0
 18 20  1  0
 20 21  1  0
 20 22  1  0
 22 23  1  0
 23 24  2  0
 23 25  1  0
 25 26  1  0
 26 27  1  0
 27 28  2  0
 28 29  1  0
 29 30  2  0
 30 31  1  0
 30 32  1  0
 32 33  2  0
 25 34  1  0
 34 35  1  0
 35 36  1  0
 36 37  1  0
 37 38  1  0
 38 39  1  0
 39 40  1  0
 40 41  2  0
 40  5  1  0
 16 11  1  0
 33 27  1  0
  1 42  1  0
  1 43  1  0
  1 44  1  0
  2 45  1  0
  3 46  1  0
  3 47  1  0
  3 48  1  0
  4 49  1  0
  4 50  1  0
  5 51  1  1
  6 52  1  0
  9 53  1  1
 10 54  1  0
 10 55  1  0
 12 56  1  0
 13 57  1  0
 14 58  1  0
 15 59  1  0
 16 60  1  0
 17 61  1  0
 20 62  1  1
 21 63  1  0
 21 64  1  0
 21 65  1  0
 22 66  1  0
 25 67  1  1
 26 68  1  0
 26 69  1  0
 28 70  1  0
 29 71  1  0
 31 72  1  0
 32 73  1  0
 33 74  1  0
 34 75  1  0
 35 76  1  0
 35 77  1  0
 36 78  1  0
 36 79  1  0
 37 80  1  0
 37 81  1  0
 38 82  1  0
 38 83  1  0
 39 84  1  0
M  END
$$$$
