
     RDKit          3D

 60 60  0  0  0  0  0  0  0  0999 V2000
   -4.3933   -0.3403    2.3327 C   0  0  0  0  0  0  0  0  0  0  0  0
   -3.8259   -1.2198    1.2070 C   0  0  0  0  0  0  0  0  0  0  0  0
   -4.9585   -2.0403    0.5764 C   0  0  0  0  0  0  0  0  0  0  0  0
   -3.1107   -0.3658    0.1293 C   0  0  0  0  0  0  0  0  0  0  0  0
   -1.6574    0.0121    0.5214 C   0  0  1  0  0  0  0  0  0  0  0  0
   -0.6683   -1.0613    0.3208 N   0  0  0  0  0  0  0  0  0  0  0  0
   -0.8373   -2.2336   -0.4920 C   0  0  0  0  0  0  0  0  0  0  0  0
   -1.8125   -3.0063   -0.2903 O   0  0  0  0  0  0  0  0  0  0  0  0
    0.1506   -2.5772   -1.5819 C   0  0  1  0  0  0  0  0  0  0  0  0
   -0.2124   -1.7891   -2.8443 C   0  0  0  0  0  0  0  0  0  0  0  0
    1.5361   -2.2699   -1.1821 N   0  0  0  0  0  0  0  0  0  0  0  0
    2.0180   -3.1802   -0.1329 C   0  0  0  0  0  0  0  0  0  0  0  0
    3.4469   -2.8137    0.3012 C   0  0  0  0  0  0  0  0  0  0  0  0
    3.5661   -1.3754    0.8451 C   0  0  0  0  0  0  0  0  0  0  0  0
    4.0204   -0.3779   -0.2360 C   0  0  0  0  0  0  0  0  0  0  0  0
    3.9506    1.0800    0.2459 C   0  0  0  0  0  0  0  0  0  0  0  0
    2.5372    1.6646    0.1148 C   0  0  0  0  0  0  0  0  0  0  0  0
    2.5021    3.0564    0.5691 N   0  0  0  0  0  0  0  0  0  0  0  0
    1.3170    3.8665    0.5190 C   0  0  0  0  0  0  0  0  0  0  0  0
    1.3082    4.9602    1.1463 O   0  0  0  0  0  0  0  0  0  0  0  0
    0.0853    3.4230   -0.2484 C   0  0  2  0  0  0  0  0  0  0  0  0
   -0.9333    4.5554   -0.4473 C   0  0  0  0  0  0  0  0  0  0  0  0
   -0.3579    5.5921   -1.1941 O   0  0  0  0  0  0  0  0  0  0  0  0
   -0.5564    2.3096    0.4529 N   0  0  0  0  0  0  0  0  0  0  0  0
   -1.2028    1.2303   -0.2391 C   0  0  0  0  0  0  0  0  0  0  0  0
   -1.3431    1.2735   -1.4918 O   0  0  0  0  0  0  0  0  0  0  0  0
   -5.1833    0.3350    1.9405 H   0  0  0  0  0  0  0  0  0  0  0  0
   -4.8348   -0.9762    3.1283 H   0  0  0  0  0  0  0  0  0  0  0  0
   -3.5989    0.2775    2.7960 H   0  0  0  0  0  0  0  0  0  0  0  0
   -3.1039   -1.9320    1.6615 H   0  0  0  0  0  0  0  0  0  0  0  0
   -4.5497   -2.7463   -0.1770 H   0  0  0  0  0  0  0  0  0  0  0  0
   -5.6940   -1.3735    0.0782 H   0  0  0  0  0  0  0  0  0  0  0  0
   -5.4820   -2.6356    1.3540 H   0  0  0  0  0  0  0  0  0  0  0  0
   -3.1071   -0.8793   -0.8567 H   0  0  0  0  0  0  0  0  0  0  0  0
   -3.7046    0.5624   -0.0297 H   0  0  0  0  0  0  0  0  0  0  0  0
   -1.6473    0.2708    1.6010 H   0  0  0  0  0  0  0  0  0  0  0  0
    0.3047   -0.8335    0.6193 H   0  0  0  0  0  0  0  0  0  0  0  0
    0.0612   -3.6612   -1.8270 H   0  0  0  0  0  0  0  0  0  0  0  0
    0.4124   -2.1286   -3.6975 H   0  0  0  0  0  0  0  0  0  0  0  0
   -1.2793   -1.9497   -3.1118 H   0  0  0  0  0  0  0  0  0  0  0  0
   -0.0357   -0.7045   -2.6866 H   0  0  0  0  0  0  0  0  0  0  0  0
    2.1516   -2.4205   -2.0173 H   0  0  0  0  0  0  0  0  0  0  0  0
    1.3555   -3.1340    0.7587 H   0  0  0  0  0  0  0  0  0  0  0  0
    2.0189   -4.2290   -0.5067 H   0  0  0  0  0  0  0  0  0  0  0  0
    4.1525   -2.9779   -0.5429 H   0  0  0  0  0  0  0  0  0  0  0  0
    3.7425   -3.5201    1.1076 H   0  0  0  0  0  0  0  0  0  0  0  0
    2.6053   -1.0584    1.3011 H   0  0  0  0  0  0  0  0  0  0  0  0
    4.3243   -1.3672    1.6588 H   0  0  0  0  0  0  0  0  0  0  0  0
    5.0745   -0.6101   -0.5017 H   0  0  0  0  0  0  0  0  0  0  0  0
    3.4214   -0.4913   -1.1627 H   0  0  0  0  0  0  0  0  0  0  0  0
    4.6388    1.6894   -0.3780 H   0  0  0  0  0  0  0  0  0  0  0  0
    4.2983    1.1532    1.2994 H   0  0  0  0  0  0  0  0  0  0  0  0
    2.2250    1.6147   -0.9500 H   0  0  0  0  0  0  0  0  0  0  0  0
    1.8295    1.0700    0.7267 H   0  0  0  0  0  0  0  0  0  0  0  0
    3.3558    3.4749    1.0055 H   0  0  0  0  0  0  0  0  0  0  0  0
    0.4190    3.0919   -1.2561 H   0  0  0  0  0  0  0  0  0  0  0  0
   -1.8188    4.1579   -0.9920 H   0  0  0  0  0  0  0  0  0  0  0  0
   -1.2734    4.9392    0.5414 H   0  0  0  0  0  0  0  0  0  0  0  0
   -1.0591    6.2892   -1.2840 H   0  0  0  0  0  0  0  0  0  0  0  0
   -0.5878    2.3299    1.4980 H   0  0  0  0  0  0  0  0  0  0  0  0
  1  2  1  0
  2  3  1  0
  2  4  1  0
  4  5  1  0
  5  6  1  0
  6  7  1  0
  7  8  2  0
  7  9  1  0
  9 10  1  0
  9 11  1  0
 11 12  1  0
 12 13  1  0
 13 14  1  0
 14 15  1  0
 15 16  1  0
 16 17  1  0
 17 18  1  0
 18 19  1  0
 19 20  2  0
 19 21  1  0
 21 22  1  0
 22 23  1  0
 21 24  1  0
 24 25  1  0
 25 26  2  0
 25  5  1  0
  1 27  1  0
  1 28  1  0
  1 29  1  0
  2 30  1  0
  3 31  1  0
  3 32  1  0
  3 33  1  0
  4 34  1  0
  4 35  1  0
  5 36  1  1
  6 37  1  0
  9 38  1  6
 10 39  1  0
 10 40  1  0
 10 41  1  0
 11 42  1  0
 12 43  1  0
 12 44  1  0
 13 45  1  0
 13 46  1  0
 14 47  1  0
 14 48  1  0
 15 49  1  0
 15 50  1  0
 16 51  1  0
 16 52  1  0
 17 53  1  0
 17 54  1  0
 18 55  1  0
 21 56  1  6
 22 57  1  0
 22 58  1  0
 23 59  1  0
 24 60  1  0
M  END
$$$$
