
     RDKit          3D

 67 70  0  0  0  0  0  0  0  0999 V2000
   -3.7761   -4.4543   -1.4686 C   0  0  0  0  0  0  0  0  0  0  0  0
   -3.4970   -3.2862   -0.7305 O   0  0  0  0  0  0  0  0  0  0  0  0
   -3.0484   -2.2696   -1.6057 C   0  0  0  0  0  0  0  0  0  0  0  0
   -2.6708   -0.9934   -0.8017 C   0  0  0  0  0  0  0  0  0  0  0  0
   -1.6787   -1.3454    0.3591 C   0  0  0  0  0  0  0  0  0  0  0  0
   -0.4338   -2.1764   -0.0440 C   0  0  0  0  0  0  0  0  0  0  0  0
    0.8297   -1.7230    0.7083 C   0  0  0  0  0  0  0  0  0  0  0  0
    1.5036   -0.5267    0.0113 C   0  0  0  0  0  0  0  0  0  0  0  0
    2.3895    0.2084    0.9299 N   0  0  0  0  0  0  0  0  0  0  0  0
    3.4168   -0.4706    1.6801 C   0  0  0  0  0  0  0  0  0  0  0  0
    3.6427   -0.1295    2.8731 O   0  0  0  0  0  0  0  0  0  0  0  0
    4.2165   -1.5596    1.0794 C   0  0  0  0  0  0  0  0  0  0  0  0
    4.6793   -1.4489   -0.2428 C   0  0  0  0  0  0  0  0  0  0  0  0
    5.4418   -2.4728   -0.8128 C   0  0  0  0  0  0  0  0  0  0  0  0
    5.7535   -3.6124   -0.0665 C   0  0  0  0  0  0  0  0  0  0  0  0
    5.3094   -3.7262    1.2530 C   0  0  0  0  0  0  0  0  0  0  0  0
    4.5478   -2.7042    1.8298 C   0  0  0  0  0  0  0  0  0  0  0  0
    4.1130   -2.8458    3.1078 F   0  0  0  0  0  0  0  0  0  0  0  0
    2.1384    1.6358    1.1691 C   0  0  0  0  0  0  0  0  0  0  0  0
    0.9561    1.8253    2.1221 C   0  0  0  0  0  0  0  0  0  0  0  0
    0.6326    3.2101    2.2577 O   0  0  0  0  0  0  0  0  0  0  0  0
    0.1390    3.9990    1.2082 C   0  0  0  0  0  0  0  0  0  0  0  0
    0.8969    5.1071    0.8084 C   0  0  0  0  0  0  0  0  0  0  0  0
    0.4718    5.9152   -0.2475 C   0  0  0  0  0  0  0  0  0  0  0  0
   -0.7278    5.6351   -0.9011 C   0  0  0  0  0  0  0  0  0  0  0  0
   -1.5097    4.5512   -0.4959 C   0  0  0  0  0  0  0  0  0  0  0  0
   -1.0868    3.7178    0.5547 C   0  0  0  0  0  0  0  0  0  0  0  0
   -1.9843    2.6416    1.0304 C   0  0  0  0  0  0  0  0  0  0  0  0
   -2.2415    2.5899    2.2647 O   0  0  0  0  0  0  0  0  0  0  0  0
   -2.5626    1.6580    0.1363 N   0  0  0  0  0  0  0  0  0  0  0  0
   -3.7107    0.8720    0.6199 C   0  0  0  0  0  0  0  0  0  0  0  0
   -3.9741   -0.3788   -0.2304 C   0  0  0  0  0  0  0  0  0  0  0  0
   -2.0917    1.5206   -1.2561 C   0  0  0  0  0  0  0  0  0  0  0  0
   -2.0515    0.0576   -1.7640 C   0  0  0  0  0  0  0  0  0  0  0  0
   -4.5786   -4.2753   -2.2193 H   0  0  0  0  0  0  0  0  0  0  0  0
   -4.1380   -5.2356   -0.7686 H   0  0  0  0  0  0  0  0  0  0  0  0
   -2.8593   -4.8445   -1.9648 H   0  0  0  0  0  0  0  0  0  0  0  0
   -2.1674   -2.6147   -2.1925 H   0  0  0  0  0  0  0  0  0  0  0  0
   -3.8508   -2.0164   -2.3379 H   0  0  0  0  0  0  0  0  0  0  0  0
   -1.3441   -0.4104    0.8486 H   0  0  0  0  0  0  0  0  0  0  0  0
   -2.2239   -1.9081    1.1502 H   0  0  0  0  0  0  0  0  0  0  0  0
   -0.2310   -2.1366   -1.1329 H   0  0  0  0  0  0  0  0  0  0  0  0
   -0.6298   -3.2435    0.1996 H   0  0  0  0  0  0  0  0  0  0  0  0
    1.5500   -2.5691    0.7395 H   0  0  0  0  0  0  0  0  0  0  0  0
    0.5735   -1.4676    1.7600 H   0  0  0  0  0  0  0  0  0  0  0  0
    2.0775   -0.8856   -0.8675 H   0  0  0  0  0  0  0  0  0  0  0  0
    0.7246    0.1604   -0.3831 H   0  0  0  0  0  0  0  0  0  0  0  0
    4.4653   -0.5632   -0.8279 H   0  0  0  0  0  0  0  0  0  0  0  0
    5.7957   -2.3813   -1.8319 H   0  0  0  0  0  0  0  0  0  0  0  0
    6.3446   -4.4042   -0.5088 H   0  0  0  0  0  0  0  0  0  0  0  0
    5.5559   -4.6089    1.8292 H   0  0  0  0  0  0  0  0  0  0  0  0
    3.0411    2.1258    1.5955 H   0  0  0  0  0  0  0  0  0  0  0  0
    1.9260    2.1376    0.2002 H   0  0  0  0  0  0  0  0  0  0  0  0
    0.0812    1.2528    1.7629 H   0  0  0  0  0  0  0  0  0  0  0  0
    1.2284    1.4269    3.1222 H   0  0  0  0  0  0  0  0  0  0  0  0
    1.8310    5.3316    1.3083 H   0  0  0  0  0  0  0  0  0  0  0  0
    1.0714    6.7611   -0.5565 H   0  0  0  0  0  0  0  0  0  0  0  0
   -1.0637    6.2697   -1.7110 H   0  0  0  0  0  0  0  0  0  0  0  0
   -2.4594    4.3802   -0.9861 H   0  0  0  0  0  0  0  0  0  0  0  0
   -4.6176    1.5133    0.6398 H   0  0  0  0  0  0  0  0  0  0  0  0
   -3.5157    0.5312    1.6609 H   0  0  0  0  0  0  0  0  0  0  0  0
   -4.6511   -0.0978   -1.0688 H   0  0  0  0  0  0  0  0  0  0  0  0
   -4.5194   -1.1246    0.3894 H   0  0  0  0  0  0  0  0  0  0  0  0
   -2.7693    2.1116   -1.9122 H   0  0  0  0  0  0  0  0  0  0  0  0
   -1.0692    1.9441   -1.3683 H   0  0  0  0  0  0  0  0  0  0  0  0
   -1.0079   -0.2142   -2.0232 H   0  0  0  0  0  0  0  0  0  0  0  0
   -2.6029    0.0342   -2.7310 H   0  0  0  0  0  0  0  0  0  0  0  0
  1  2  1  0
  2  3  1  0
  3  4  1  0
  4  5  1  0
  5  6  1  0
  6  7  1  0
  7  8  1  0
  8  9  1  0
  9 10  1  0
 10 11  2  0
 10 12  1  0
 12 13  2  0
 13 14  1  0
 14 15  2  0
 15 16  1  0
 16 17  2  0
 17 18  1  0
  9 19  1  0
 19 20  1  0
 20 21  1  0
 21 22  1  0
 22 23  2  0
 23 24  1  0
 24 25  2  0
 25 26  1  0
 26 27  2  0
 27 28  1  0
 28 29  2  0
 28 30  1  0
 30 31  1  0
 31 32  1  0
 30 33  1  0
 33 34  1  0
 32  4  1  0
 34  4  1  0
 17 12  1  0
 27 22  1  0
  1 35  1  0
  1 36  1  0
  1 37  1  0
  3 38  1  0
  3 39  1  0
  5 40  1  0
  5 41  1  0
  6 42  1  0
  6 43  1  0
  7 44  1  0
  7 45  1  0
  8 46  1  0
  8 47  1  0
 13 48  1  0
 14 49  1  0
 15 50  1  0
 16 51  1  0
 19 52  1  0
 19 53  1  0
 20 54  1  0
 20 55  1  0
 23 56  1  0
 24 57  1  0
 25 58  1  0
 26 59  1  0
 31 60  1  0
 31 61  1  0
 32 62  1  0
 32 63  1  0
 33 64  1  0
 33 65  1  0
 34 66  1  0
 34 67  1  0
M  END
$$$$
