
     RDKit          3D

 73 76  0  0  0  0  0  0  0  0999 V2000
    4.5712    0.8783   -1.0194 C   0  0  0  0  0  0  0  0  0  0  0  0
    3.6704   -0.2550   -0.5015 C   0  0  0  0  0  0  0  0  0  0  0  0
    3.7451   -1.4359   -1.4830 C   0  0  0  0  0  0  0  0  0  0  0  0
    4.0626   -0.6769    0.9515 C   0  0  2  0  0  0  0  0  0  0  0  0
    3.1639   -1.7033    1.4980 N   0  0  0  0  0  0  0  0  0  0  0  0
    3.3290   -3.1129    1.2710 C   0  0  0  0  0  0  0  0  0  0  0  0
    4.3743   -3.5600    0.7285 O   0  0  0  0  0  0  0  0  0  0  0  0
    2.2197   -4.0532    1.6380 C   0  0  0  0  0  0  0  0  0  0  0  0
    0.9361   -3.6045    0.9966 C   0  0  0  0  0  0  0  0  0  0  0  0
   -0.2500   -4.0316    1.4435 C   0  0  0  0  0  0  0  0  0  0  0  0
   -1.5467   -3.5409    0.9119 C   0  0  0  0  0  0  0  0  0  0  0  0
   -2.7051   -4.3040    1.1459 C   0  0  0  0  0  0  0  0  0  0  0  0
   -3.9550   -3.8635    0.6992 C   0  0  0  0  0  0  0  0  0  0  0  0
   -4.0636   -2.6462    0.0137 C   0  0  0  0  0  0  0  0  0  0  0  0
   -5.3021   -2.1693   -0.4318 C   0  0  0  0  0  0  0  0  0  0  0  0
   -5.3737   -0.9510   -1.1120 C   0  0  0  0  0  0  0  0  0  0  0  0
   -4.1998   -0.2172   -1.3555 C   0  0  0  0  0  0  0  0  0  0  0  0
   -3.0088   -0.6979   -0.9053 N   0  0  0  0  0  0  0  0  0  0  0  0
   -2.9087   -1.8756   -0.2323 C   0  0  0  0  0  0  0  0  0  0  0  0
   -1.6635   -2.3130    0.2276 C   0  0  0  0  0  0  0  0  0  0  0  0
   -4.2634    1.0797   -2.1292 C   0  0  1  0  0  0  0  0  0  0  0  0
   -4.7694    2.2532   -1.2827 C   0  0  0  0  0  0  0  0  0  0  0  0
   -3.0497    1.3689   -2.8450 O   0  0  0  0  0  0  0  0  0  0  0  0
   -1.7563    1.6565   -2.3629 C   0  0  0  0  0  0  0  0  0  0  0  0
   -0.8179    1.6549   -3.2043 O   0  0  0  0  0  0  0  0  0  0  0  0
   -1.4462    2.0581   -0.9288 C   0  0  2  0  0  0  0  0  0  0  0  0
   -1.5110    3.5938   -0.7696 C   0  0  0  0  0  0  0  0  0  0  0  0
   -0.3528    4.2986   -1.4910 C   0  0  0  0  0  0  0  0  0  0  0  0
    0.9688    3.5263   -1.3631 C   0  0  0  0  0  0  0  0  0  0  0  0
    0.8469    2.4902   -0.3299 N   0  0  0  0  0  0  0  0  0  0  0  0
   -0.1532    1.4985   -0.4566 N   0  0  0  0  0  0  0  0  0  0  0  0
    1.7467    2.4522    0.7984 C   0  0  0  0  0  0  0  0  0  0  0  0
    2.5564    3.4014    0.9922 O   0  0  0  0  0  0  0  0  0  0  0  0
    1.6903    1.3221    1.7967 C   0  0  2  0  0  0  0  0  0  0  0  0
    0.6012    1.6031    2.8350 C   0  0  0  0  0  0  0  0  0  0  0  0
    2.9891    1.1633    2.4658 N   0  0  0  0  0  0  0  0  0  0  0  0
    4.1430    0.4989    1.9121 C   0  0  0  0  0  0  0  0  0  0  0  0
    5.2870    0.8763    2.2879 O   0  0  0  0  0  0  0  0  0  0  0  0
    4.2913    1.1487   -2.0600 H   0  0  0  0  0  0  0  0  0  0  0  0
    4.4496    1.7923   -0.4016 H   0  0  0  0  0  0  0  0  0  0  0  0
    5.6387    0.5714   -1.0006 H   0  0  0  0  0  0  0  0  0  0  0  0
    2.6281    0.1125   -0.5299 H   0  0  0  0  0  0  0  0  0  0  0  0
    4.7537   -1.9019   -1.4674 H   0  0  0  0  0  0  0  0  0  0  0  0
    2.9815   -2.1973   -1.2337 H   0  0  0  0  0  0  0  0  0  0  0  0
    3.5318   -1.0940   -2.5199 H   0  0  0  0  0  0  0  0  0  0  0  0
    5.0869   -1.1120    0.9028 H   0  0  0  0  0  0  0  0  0  0  0  0
    2.3727   -1.4207    2.1208 H   0  0  0  0  0  0  0  0  0  0  0  0
    2.4531   -5.0883    1.3046 H   0  0  0  0  0  0  0  0  0  0  0  0
    2.1100   -4.0514    2.7455 H   0  0  0  0  0  0  0  0  0  0  0  0
    0.9910   -2.9161    0.1628 H   0  0  0  0  0  0  0  0  0  0  0  0
   -0.2707   -4.7766    2.2329 H   0  0  0  0  0  0  0  0  0  0  0  0
   -2.6425   -5.2458    1.6795 H   0  0  0  0  0  0  0  0  0  0  0  0
   -4.8358   -4.4662    0.8953 H   0  0  0  0  0  0  0  0  0  0  0  0
   -6.2092   -2.7364   -0.2557 H   0  0  0  0  0  0  0  0  0  0  0  0
   -6.3338   -0.5882   -1.4578 H   0  0  0  0  0  0  0  0  0  0  0  0
   -0.8060   -1.6745    0.0658 H   0  0  0  0  0  0  0  0  0  0  0  0
   -5.0290    0.9357   -2.9217 H   0  0  0  0  0  0  0  0  0  0  0  0
   -4.6324    3.2064   -1.8343 H   0  0  0  0  0  0  0  0  0  0  0  0
   -4.2694    2.3171   -0.2999 H   0  0  0  0  0  0  0  0  0  0  0  0
   -5.8553    2.1289   -1.0920 H   0  0  0  0  0  0  0  0  0  0  0  0
   -2.2153    1.6306   -0.2635 H   0  0  0  0  0  0  0  0  0  0  0  0
   -2.4735    3.9895   -1.1518 H   0  0  0  0  0  0  0  0  0  0  0  0
   -1.4623    3.8402    0.3143 H   0  0  0  0  0  0  0  0  0  0  0  0
   -0.2360    5.3180   -1.0650 H   0  0  0  0  0  0  0  0  0  0  0  0
   -0.6069    4.4190   -2.5661 H   0  0  0  0  0  0  0  0  0  0  0  0
    1.2140    3.0379   -2.3285 H   0  0  0  0  0  0  0  0  0  0  0  0
    1.7958    4.2362   -1.1497 H   0  0  0  0  0  0  0  0  0  0  0  0
    0.2089    0.7464   -1.0884 H   0  0  0  0  0  0  0  0  0  0  0  0
    1.4101    0.3852    1.2819 H   0  0  0  0  0  0  0  0  0  0  0  0
   -0.3885    1.6941    2.3412 H   0  0  0  0  0  0  0  0  0  0  0  0
    0.5527    0.7657    3.5607 H   0  0  0  0  0  0  0  0  0  0  0  0
    0.8166    2.5447    3.3848 H   0  0  0  0  0  0  0  0  0  0  0  0
    3.1754    1.7864    3.2849 H   0  0  0  0  0  0  0  0  0  0  0  0
  1  2  1  0
  2  3  1  0
  2  4  1  0
  4  5  1  0
  5  6  1  0
  6  7  2  0
  6  8  1  0
  8  9  1  0
  9 10  2  0
 10 11  1  0
 11 12  2  0
 12 13  1  0
 13 14  2  0
 14 15  1  0
 15 16  2  0
 16 17  1  0
 17 18  2  0
 18 19  1  0
 19 20  2  0
 17 21  1  0
 21 22  1  0
 21 23  1  0
 23 24  1  0
 24 25  2  0
 24 26  1  0
 26 27  1  0
 27 28  1  0
 28 29  1  0
 29 30  1  0
 30 31  1  0
 30 32  1  0
 32 33  2  0
 32 34  1  0
 34 35  1  0
 34 36  1  0
 36 37  1  0
 37 38  2  0
 37  4  1  0
 20 11  1  0
 31 26  1  0
 19 14  1  0
  1 39  1  0
  1 40  1  0
  1 41  1  0
  2 42  1  0
  3 43  1  0
  3 44  1  0
  3 45  1  0
  4 46  1  6
  5 47  1  0
  8 48  1  0
  8 49  1  0
  9 50  1  0
 10 51  1  0
 12 52  1  0
 13 53  1  0
 15 54  1  0
 16 55  1  0
 20 56  1  0
 21 57  1  6
 22 58  1  0
 22 59  1  0
 22 60  1  0
 26 61  1  1
 27 62  1  0
 27 63  1  0
 28 64  1  0
 28 65  1  0
 29 66  1  0
 29 67  1  0
 31 68  1  0
 34 69  1  6
 35 70  1  0
 35 71  1  0
 35 72  1  0
 36 73  1  0
M  END
$$$$
