
     RDKit          3D

 72 73  0  0  0  0  0  0  0  0999 V2000
   -4.4510    3.0521   -1.3590 C   0  0  0  0  0  0  0  0  0  0  0  0
   -4.5755    2.7618    0.1411 C   0  0  0  0  0  0  0  0  0  0  0  0
   -3.8425    3.8232    0.9696 C   0  0  0  0  0  0  0  0  0  0  0  0
   -4.1357    1.3225    0.4910 C   0  0  0  0  0  0  0  0  0  0  0  0
   -2.7722    1.0034    0.0216 N   0  0  0  0  0  0  0  0  0  0  0  0
   -2.6251    0.0317   -1.0777 C   0  0  0  0  0  0  0  0  0  0  0  0
   -2.7298   -1.3892   -0.5792 C   0  0  0  0  0  0  0  0  0  0  0  0
   -3.4395   -1.6454    0.4315 O   0  0  0  0  0  0  0  0  0  0  0  0
   -2.1528   -2.4759   -1.3239 N   0  0  0  0  0  0  0  0  0  0  0  0
   -3.0038   -3.6077   -1.6936 C   0  0  0  0  0  0  0  0  0  0  0  0
   -0.7152   -2.5028   -1.6246 C   0  0  0  0  0  0  0  0  0  0  0  0
    0.0266   -3.5898   -0.8238 C   0  0  0  0  0  0  0  0  0  0  0  0
   -0.3851   -3.6453    0.6636 C   0  0  0  0  0  0  0  0  0  0  0  0
    0.7408   -4.1479    1.5862 C   0  0  0  0  0  0  0  0  0  0  0  0
    1.8892   -3.1413    1.8221 C   0  0  0  0  0  0  0  0  0  0  0  0
    1.4320   -1.8132    2.4670 C   0  0  0  0  0  0  0  0  0  0  0  0
    1.1797   -0.7589    1.4662 N   0  0  0  0  0  0  0  0  0  0  0  0
    2.3452    0.0995    1.1651 C   0  0  1  0  0  0  0  0  0  0  0  0
    2.8458   -0.0753   -0.2916 C   0  0  0  0  0  0  0  0  0  0  0  0
    4.1314    0.6745   -0.5352 C   0  0  0  0  0  0  0  0  0  0  0  0
    4.1118    1.9421   -1.1416 C   0  0  0  0  0  0  0  0  0  0  0  0
    5.3027    2.6485   -1.3348 C   0  0  0  0  0  0  0  0  0  0  0  0
    6.5190    2.0986   -0.9198 C   0  0  0  0  0  0  0  0  0  0  0  0
    6.5459    0.8420   -0.3089 C   0  0  0  0  0  0  0  0  0  0  0  0
    5.3573    0.1317   -0.1141 C   0  0  0  0  0  0  0  0  0  0  0  0
    1.9908    1.5412    1.4599 C   0  0  0  0  0  0  0  0  0  0  0  0
    2.8699    2.2694    1.9951 O   0  0  0  0  0  0  0  0  0  0  0  0
    0.6943    2.1151    1.1999 N   0  0  0  0  0  0  0  0  0  0  0  0
   -0.2685    1.6693    0.1808 C   0  0  2  0  0  0  0  0  0  0  0  0
   -0.3494    2.7360   -0.9150 C   0  0  0  0  0  0  0  0  0  0  0  0
   -1.6295    1.4230    0.8065 C   0  0  0  0  0  0  0  0  0  0  0  0
   -1.7719    1.6079    2.0470 O   0  0  0  0  0  0  0  0  0  0  0  0
   -4.8842    4.0482   -1.5904 H   0  0  0  0  0  0  0  0  0  0  0  0
   -3.3885    3.0482   -1.6769 H   0  0  0  0  0  0  0  0  0  0  0  0
   -5.0060    2.2890   -1.9450 H   0  0  0  0  0  0  0  0  0  0  0  0
   -5.6542    2.8405    0.4031 H   0  0  0  0  0  0  0  0  0  0  0  0
   -4.3104    4.8176    0.8069 H   0  0  0  0  0  0  0  0  0  0  0  0
   -2.7759    3.8938    0.6800 H   0  0  0  0  0  0  0  0  0  0  0  0
   -3.9112    3.5843    2.0519 H   0  0  0  0  0  0  0  0  0  0  0  0
   -4.2153    1.1537    1.5867 H   0  0  0  0  0  0  0  0  0  0  0  0
   -4.8710    0.6251    0.0308 H   0  0  0  0  0  0  0  0  0  0  0  0
   -3.4303    0.1926   -1.8260 H   0  0  0  0  0  0  0  0  0  0  0  0
   -1.6801    0.1896   -1.6273 H   0  0  0  0  0  0  0  0  0  0  0  0
   -3.3960   -4.1005   -0.7794 H   0  0  0  0  0  0  0  0  0  0  0  0
   -2.4372   -4.3581   -2.2849 H   0  0  0  0  0  0  0  0  0  0  0  0
   -3.8547   -3.2484   -2.3097 H   0  0  0  0  0  0  0  0  0  0  0  0
   -0.2489   -1.5221   -1.4055 H   0  0  0  0  0  0  0  0  0  0  0  0
   -0.5705   -2.6866   -2.7109 H   0  0  0  0  0  0  0  0  0  0  0  0
   -0.1634   -4.5830   -1.2852 H   0  0  0  0  0  0  0  0  0  0  0  0
    1.1143   -3.3958   -0.9274 H   0  0  0  0  0  0  0  0  0  0  0  0
   -0.7649   -2.6703    1.0272 H   0  0  0  0  0  0  0  0  0  0  0  0
   -1.2418   -4.3479    0.7547 H   0  0  0  0  0  0  0  0  0  0  0  0
    1.1649   -5.0865    1.1665 H   0  0  0  0  0  0  0  0  0  0  0  0
    0.2955   -4.4088    2.5713 H   0  0  0  0  0  0  0  0  0  0  0  0
    2.4481   -2.9557    0.8834 H   0  0  0  0  0  0  0  0  0  0  0  0
    2.6116   -3.6263    2.5144 H   0  0  0  0  0  0  0  0  0  0  0  0
    2.1787   -1.4820    3.2219 H   0  0  0  0  0  0  0  0  0  0  0  0
    0.4978   -1.9774    3.0455 H   0  0  0  0  0  0  0  0  0  0  0  0
    0.8012   -1.1801    0.5930 H   0  0  0  0  0  0  0  0  0  0  0  0
    3.2041   -0.1676    1.8229 H   0  0  0  0  0  0  0  0  0  0  0  0
    2.0797    0.2510   -1.0238 H   0  0  0  0  0  0  0  0  0  0  0  0
    3.0244   -1.1528   -0.4921 H   0  0  0  0  0  0  0  0  0  0  0  0
    3.1761    2.3841   -1.4600 H   0  0  0  0  0  0  0  0  0  0  0  0
    5.2826    3.6240   -1.8034 H   0  0  0  0  0  0  0  0  0  0  0  0
    7.4398    2.6477   -1.0693 H   0  0  0  0  0  0  0  0  0  0  0  0
    7.4877    0.4197    0.0170 H   0  0  0  0  0  0  0  0  0  0  0  0
    5.3901   -0.8376    0.3682 H   0  0  0  0  0  0  0  0  0  0  0  0
    0.4874    3.0248    1.6731 H   0  0  0  0  0  0  0  0  0  0  0  0
    0.0647    0.7333   -0.2887 H   0  0  0  0  0  0  0  0  0  0  0  0
   -0.7001    3.7025   -0.4969 H   0  0  0  0  0  0  0  0  0  0  0  0
    0.6566    2.8911   -1.3589 H   0  0  0  0  0  0  0  0  0  0  0  0
   -1.0354    2.4260   -1.7280 H   0  0  0  0  0  0  0  0  0  0  0  0
  1  2  1  0
  2  3  1  0
  2  4  1  0
  4  5  1  0
  5  6  1  0
  6  7  1  0
  7  8  2  0
  7  9  1  0
  9 10  1  0
  9 11  1  0
 11 12  1  0
 12 13  1  0
 13 14  1  0
 14 15  1  0
 15 16  1  0
 16 17  1  0
 17 18  1  0
 18 19  1  0
 19 20  1  0
 20 21  2  0
 21 22  1  0
 22 23  2  0
 23 24  1  0
 24 25  2  0
 18 26  1  0
 26 27  2  0
 26 28  1  0
 28 29  1  0
 29 30  1  0
 29 31  1  0
 31 32  2  0
 31  5  1  0
 25 20  1  0
  1 33  1  0
  1 34  1  0
  1 35  1  0
  2 36  1  0
  3 37  1  0
  3 38  1  0
  3 39  1  0
  4 40  1  0
  4 41  1  0
  6 42  1  0
  6 43  1  0
 10 44  1  0
 10 45  1  0
 10 46  1  0
 11 47  1  0
 11 48  1  0
 12 49  1  0
 12 50  1  0
 13 51  1  0
 13 52  1  0
 14 53  1  0
 14 54  1  0
 15 55  1  0
 15 56  1  0
 16 57  1  0
 16 58  1  0
 17 59  1  0
 18 60  1  1
 19 61  1  0
 19 62  1  0
 21 63  1  0
 22 64  1  0
 23 65  1  0
 24 66  1  0
 25 67  1  0
 28 68  1  0
 29 69  1  6
 30 70  1  0
 30 71  1  0
 30 72  1  0
M  END
$$$$
