
     RDKit          3D

 70 73  0  0  0  0  0  0  0  0999 V2000
   -5.8032    3.5341    0.2929 C   0  0  0  0  0  0  0  0  0  0  0  0
   -4.4947    3.0570    0.0760 O   0  0  0  0  0  0  0  0  0  0  0  0
   -4.5455    1.7071   -0.3416 C   0  0  0  0  0  0  0  0  0  0  0  0
   -3.1103    1.1902   -0.6535 C   0  0  0  0  0  0  0  0  0  0  0  0
   -2.5205    2.0345   -1.8576 C   0  0  0  0  0  0  0  0  0  0  0  0
   -1.4508    3.1261   -1.5775 C   0  0  0  0  0  0  0  0  0  0  0  0
   -0.0056    2.6840   -1.2214 C   0  0  0  0  0  0  0  0  0  0  0  0
    0.5728    1.5080   -2.0413 C   0  0  0  0  0  0  0  0  0  0  0  0
    1.6261    0.8031   -1.2920 N   0  0  0  0  0  0  0  0  0  0  0  0
    2.9249    1.4135   -1.1245 C   0  0  0  0  0  0  0  0  0  0  0  0
    3.0581    2.6628   -1.2426 O   0  0  0  0  0  0  0  0  0  0  0  0
    4.1243    0.6028   -0.8569 C   0  0  0  0  0  0  0  0  0  0  0  0
    4.5654   -0.3370   -1.7984 C   0  0  0  0  0  0  0  0  0  0  0  0
    5.7313   -1.0633   -1.5455 C   0  0  0  0  0  0  0  0  0  0  0  0
    6.4204   -0.8691   -0.3901 N   0  0  0  0  0  0  0  0  0  0  0  0
    6.0104    0.0304    0.5459 C   0  0  0  0  0  0  0  0  0  0  0  0
    6.7353    0.2116    1.7259 O   0  0  0  0  0  0  0  0  0  0  0  0
    7.9843   -0.4292    1.9730 C   0  0  0  0  0  0  0  0  0  0  0  0
    4.8484    0.7813    0.3290 C   0  0  0  0  0  0  0  0  0  0  0  0
    1.3459   -0.5300   -0.7233 C   0  0  0  0  0  0  0  0  0  0  0  0
    1.2432   -0.4670    0.8128 C   0  0  0  0  0  0  0  0  0  0  0  0
    0.0692   -1.1472    1.2695 O   0  0  0  0  0  0  0  0  0  0  0  0
   -0.1089   -2.5409    1.3202 C   0  0  0  0  0  0  0  0  0  0  0  0
    0.9238   -3.4366    0.9696 C   0  0  0  0  0  0  0  0  0  0  0  0
    0.7247   -4.8155    1.0559 C   0  0  0  0  0  0  0  0  0  0  0  0
   -0.4899   -5.3199    1.5143 C   0  0  0  0  0  0  0  0  0  0  0  0
   -1.5181   -4.4478    1.8795 C   0  0  0  0  0  0  0  0  0  0  0  0
   -1.3492   -3.0572    1.7625 C   0  0  0  0  0  0  0  0  0  0  0  0
   -2.4905   -2.1661    2.0600 C   0  0  0  0  0  0  0  0  0  0  0  0
   -3.2717   -2.4344    3.0097 O   0  0  0  0  0  0  0  0  0  0  0  0
   -2.7780   -1.0516    1.2067 N   0  0  0  0  0  0  0  0  0  0  0  0
   -3.5747   -1.2822    0.0005 C   0  0  0  0  0  0  0  0  0  0  0  0
   -3.1767   -0.2986   -1.1131 C   0  0  0  0  0  0  0  0  0  0  0  0
   -2.6898    0.3050    1.7399 C   0  0  0  0  0  0  0  0  0  0  0  0
   -2.2314    1.2561    0.6284 C   0  0  0  0  0  0  0  0  0  0  0  0
   -6.3849    3.5523   -0.6565 H   0  0  0  0  0  0  0  0  0  0  0  0
   -6.3339    2.9372    1.0677 H   0  0  0  0  0  0  0  0  0  0  0  0
   -5.7394    4.5742    0.6680 H   0  0  0  0  0  0  0  0  0  0  0  0
   -5.0224    1.0867    0.4449 H   0  0  0  0  0  0  0  0  0  0  0  0
   -5.1705    1.6056   -1.2598 H   0  0  0  0  0  0  0  0  0  0  0  0
   -2.1845    1.3879   -2.6937 H   0  0  0  0  0  0  0  0  0  0  0  0
   -3.3590    2.5785   -2.3485 H   0  0  0  0  0  0  0  0  0  0  0  0
   -1.3753    3.7459   -2.4974 H   0  0  0  0  0  0  0  0  0  0  0  0
   -1.8223    3.8109   -0.7841 H   0  0  0  0  0  0  0  0  0  0  0  0
    0.6486    3.5679   -1.3885 H   0  0  0  0  0  0  0  0  0  0  0  0
    0.0863    2.4953   -0.1367 H   0  0  0  0  0  0  0  0  0  0  0  0
   -0.2118    0.7847   -2.3105 H   0  0  0  0  0  0  0  0  0  0  0  0
    0.9859    1.8848   -3.0027 H   0  0  0  0  0  0  0  0  0  0  0  0
    4.0314   -0.4769   -2.7290 H   0  0  0  0  0  0  0  0  0  0  0  0
    6.0870   -1.7865   -2.2677 H   0  0  0  0  0  0  0  0  0  0  0  0
    8.3990   -0.0640    2.9353 H   0  0  0  0  0  0  0  0  0  0  0  0
    7.8403   -1.5293    2.0304 H   0  0  0  0  0  0  0  0  0  0  0  0
    8.7052   -0.1869    1.1628 H   0  0  0  0  0  0  0  0  0  0  0  0
    4.5172    1.4902    1.0759 H   0  0  0  0  0  0  0  0  0  0  0  0
    0.3954   -0.9350   -1.1308 H   0  0  0  0  0  0  0  0  0  0  0  0
    2.1329   -1.2524   -1.0232 H   0  0  0  0  0  0  0  0  0  0  0  0
    1.1644    0.5885    1.1412 H   0  0  0  0  0  0  0  0  0  0  0  0
    2.1528   -0.8839    1.2956 H   0  0  0  0  0  0  0  0  0  0  0  0
    1.8821   -3.0837    0.6193 H   0  0  0  0  0  0  0  0  0  0  0  0
    1.5148   -5.4938    0.7653 H   0  0  0  0  0  0  0  0  0  0  0  0
   -0.6395   -6.3877    1.5820 H   0  0  0  0  0  0  0  0  0  0  0  0
   -2.4621   -4.8607    2.2135 H   0  0  0  0  0  0  0  0  0  0  0  0
   -3.4121   -2.3174   -0.3723 H   0  0  0  0  0  0  0  0  0  0  0  0
   -4.6534   -1.1859    0.2439 H   0  0  0  0  0  0  0  0  0  0  0  0
   -2.1738   -0.6111   -1.4835 H   0  0  0  0  0  0  0  0  0  0  0  0
   -3.8874   -0.4080   -1.9612 H   0  0  0  0  0  0  0  0  0  0  0  0
   -3.6664    0.6133    2.1660 H   0  0  0  0  0  0  0  0  0  0  0  0
   -1.9466    0.3407    2.5663 H   0  0  0  0  0  0  0  0  0  0  0  0
   -1.2189    0.9151    0.3607 H   0  0  0  0  0  0  0  0  0  0  0  0
   -2.1778    2.2894    1.0331 H   0  0  0  0  0  0  0  0  0  0  0  0
  1  2  1  0
  2  3  1  0
  3  4  1  0
  4  5  1  0
  5  6  1  0
  6  7  1  0
  7  8  1  0
  8  9  1  0
  9 10  1  0
 10 11  2  0
 10 12  1  0
 12 13  2  0
 13 14  1  0
 14 15  2  0
 15 16  1  0
 16 17  1  0
 17 18  1  0
 16 19  2  0
  9 20  1  0
 20 21  1  0
 21 22  1  0
 22 23  1  0
 23 24  2  0
 24 25  1  0
 25 26  2  0
 26 27  1  0
 27 28  2  0
 28 29  1  0
 29 30  2  0
 29 31  1  0
 31 32  1  0
 32 33  1  0
 31 34  1  0
 34 35  1  0
 33  4  1  0
 35  4  1  0
 19 12  1  0
 28 23  1  0
  1 36  1  0
  1 37  1  0
  1 38  1  0
  3 39  1  0
  3 40  1  0
  5 41  1  0
  5 42  1  0
  6 43  1  0
  6 44  1  0
  7 45  1  0
  7 46  1  0
  8 47  1  0
  8 48  1  0
 13 49  1  0
 14 50  1  0
 18 51  1  0
 18 52  1  0
 18 53  1  0
 19 54  1  0
 20 55  1  0
 20 56  1  0
 21 57  1  0
 21 58  1  0
 24 59  1  0
 25 60  1  0
 26 61  1  0
 27 62  1  0
 32 63  1  0
 32 64  1  0
 33 65  1  0
 33 66  1  0
 34 67  1  0
 34 68  1  0
 35 69  1  0
 35 70  1  0
M  END
$$$$
