
     RDKit          3D

 82 84  0  0  0  0  0  0  0  0999 V2000
   -6.1880    3.1198    0.1142 C   0  0  0  0  0  0  0  0  0  0  0  0
   -5.1075    3.0787    1.1941 C   0  0  0  0  0  0  0  0  0  0  0  0
   -4.2806    1.7652    1.1988 C   0  0  0  0  0  0  0  0  0  0  0  0
   -3.4223    1.7127    2.4715 C   0  0  0  0  0  0  0  0  0  0  0  0
   -3.3884    1.5357   -0.0629 C   0  0  0  0  0  0  0  0  0  0  0  0
   -2.6039    2.7408   -0.3877 N   0  0  0  0  0  0  0  0  0  0  0  0
   -1.1826    2.8861   -0.2161 C   0  0  0  0  0  0  0  0  0  0  0  0
   -0.6254    3.9432   -0.6191 O   0  0  0  0  0  0  0  0  0  0  0  0
   -0.3268    1.8151    0.4000 C   0  0  0  0  0  0  0  0  0  0  0  0
    0.0559    0.7496   -0.6390 C   0  0  0  0  0  0  0  0  0  0  0  0
    0.5888   -0.5319    0.0243 C   0  0  0  0  0  0  0  0  0  0  0  0
    1.9265   -0.2961    0.6745 C   0  0  0  0  0  0  0  0  0  0  0  0
    2.0107   -0.2411    1.9315 O   0  0  0  0  0  0  0  0  0  0  0  0
    3.0962   -0.0688   -0.1217 N   0  0  0  0  0  0  0  0  0  0  0  0
    3.9223   -1.1985   -0.5415 C   0  0  0  0  0  0  0  0  0  0  0  0
    5.2330   -1.1815    0.2535 C   0  0  0  0  0  0  0  0  0  0  0  0
    5.9233    0.1244    0.1561 N   0  0  0  0  0  0  0  0  0  0  0  0
    6.5584    0.3407   -1.1651 C   0  0  0  0  0  0  0  0  0  0  0  0
    7.8045    1.2276   -1.0370 C   0  0  0  0  0  0  0  0  0  0  0  0
    8.6326    0.7891    0.0252 O   0  0  0  0  0  0  0  0  0  0  0  0
    9.6064   -0.1147   -0.4492 C   0  0  0  0  0  0  0  0  0  0  0  0
    5.0465    1.2432    0.5806 C   0  0  0  0  0  0  0  0  0  0  0  0
    3.7000    1.2617   -0.1614 C   0  0  0  0  0  0  0  0  0  0  0  0
    0.6957   -1.5985   -0.9771 N   0  0  0  0  0  0  0  0  0  0  0  0
   -0.2398   -2.6846   -1.0652 C   0  0  0  0  0  0  0  0  0  0  0  0
   -0.4554   -3.2185   -2.1866 O   0  0  0  0  0  0  0  0  0  0  0  0
   -0.9412   -3.2055    0.1279 C   0  0  0  0  0  0  0  0  0  0  0  0
   -0.2103   -3.4599    1.3021 C   0  0  0  0  0  0  0  0  0  0  0  0
   -0.8421   -3.9965    2.4266 C   0  0  0  0  0  0  0  0  0  0  0  0
   -2.2044   -4.2971    2.3872 C   0  0  0  0  0  0  0  0  0  0  0  0
   -2.9404   -4.0569    1.2234 C   0  0  0  0  0  0  0  0  0  0  0  0
   -2.3226   -3.5038    0.0956 C   0  0  0  0  0  0  0  0  0  0  0  0
   -3.0967   -3.2676   -1.0450 O   0  0  0  0  0  0  0  0  0  0  0  0
   -3.4249   -1.9555   -1.4988 C   0  0  0  0  0  0  0  0  0  0  0  0
   -4.5152   -1.3434   -0.6170 C   0  0  0  0  0  0  0  0  0  0  0  0
   -5.0194   -0.0987   -1.2118 N   0  0  0  0  0  0  0  0  0  0  0  0
   -6.2760   -0.1416   -1.9643 C   0  0  0  0  0  0  0  0  0  0  0  0
   -4.2021    1.0885   -1.2623 C   0  0  0  0  0  0  0  0  0  0  0  0
   -4.1675    1.7648   -2.3274 O   0  0  0  0  0  0  0  0  0  0  0  0
   -5.7393    3.3180   -0.8799 H   0  0  0  0  0  0  0  0  0  0  0  0
   -6.7528    2.1644    0.0884 H   0  0  0  0  0  0  0  0  0  0  0  0
   -6.9031    3.9397    0.3355 H   0  0  0  0  0  0  0  0  0  0  0  0
   -4.4483    3.9667    1.0974 H   0  0  0  0  0  0  0  0  0  0  0  0
   -5.6275    3.1710    2.1733 H   0  0  0  0  0  0  0  0  0  0  0  0
   -4.9998    0.9217    1.2851 H   0  0  0  0  0  0  0  0  0  0  0  0
   -2.6881    2.5461    2.4808 H   0  0  0  0  0  0  0  0  0  0  0  0
   -4.0616    1.7922    3.3764 H   0  0  0  0  0  0  0  0  0  0  0  0
   -2.8784    0.7459    2.5315 H   0  0  0  0  0  0  0  0  0  0  0  0
   -2.7049    0.6914    0.1502 H   0  0  0  0  0  0  0  0  0  0  0  0
   -3.1141    3.5659   -0.7773 H   0  0  0  0  0  0  0  0  0  0  0  0
   -0.8555    1.3635    1.2615 H   0  0  0  0  0  0  0  0  0  0  0  0
    0.5978    2.2749    0.8094 H   0  0  0  0  0  0  0  0  0  0  0  0
   -0.8366    0.4826   -1.2454 H   0  0  0  0  0  0  0  0  0  0  0  0
    0.8134    1.1656   -1.3402 H   0  0  0  0  0  0  0  0  0  0  0  0
   -0.1342   -0.8266    0.8146 H   0  0  0  0  0  0  0  0  0  0  0  0
    4.1379   -1.1138   -1.6278 H   0  0  0  0  0  0  0  0  0  0  0  0
    3.3956   -2.1632   -0.3685 H   0  0  0  0  0  0  0  0  0  0  0  0
    5.8952   -2.0048   -0.0932 H   0  0  0  0  0  0  0  0  0  0  0  0
    5.0094   -1.3919    1.3230 H   0  0  0  0  0  0  0  0  0  0  0  0
    5.8538    0.7978   -1.8910 H   0  0  0  0  0  0  0  0  0  0  0  0
    6.8802   -0.6255   -1.6118 H   0  0  0  0  0  0  0  0  0  0  0  0
    8.3334    1.2789   -2.0186 H   0  0  0  0  0  0  0  0  0  0  0  0
    7.4881    2.2677   -0.8157 H   0  0  0  0  0  0  0  0  0  0  0  0
   10.3239    0.3976   -1.1266 H   0  0  0  0  0  0  0  0  0  0  0  0
    9.1449   -0.9878   -0.9595 H   0  0  0  0  0  0  0  0  0  0  0  0
   10.1813   -0.5012    0.4175 H   0  0  0  0  0  0  0  0  0  0  0  0
    4.8488    1.1455    1.6709 H   0  0  0  0  0  0  0  0  0  0  0  0
    5.5557    2.2197    0.4425 H   0  0  0  0  0  0  0  0  0  0  0  0
    3.0304    2.0150    0.3089 H   0  0  0  0  0  0  0  0  0  0  0  0
    3.8412    1.5686   -1.2184 H   0  0  0  0  0  0  0  0  0  0  0  0
    1.3205   -1.4350   -1.7997 H   0  0  0  0  0  0  0  0  0  0  0  0
    0.8533   -3.2541    1.3433 H   0  0  0  0  0  0  0  0  0  0  0  0
   -0.2728   -4.1872    3.3275 H   0  0  0  0  0  0  0  0  0  0  0  0
   -2.6920   -4.7130    3.2599 H   0  0  0  0  0  0  0  0  0  0  0  0
   -3.9983   -4.2891    1.2019 H   0  0  0  0  0  0  0  0  0  0  0  0
   -3.7988   -2.0327   -2.5414 H   0  0  0  0  0  0  0  0  0  0  0  0
   -2.5276   -1.3035   -1.5037 H   0  0  0  0  0  0  0  0  0  0  0  0
   -4.1229   -1.1579    0.4043 H   0  0  0  0  0  0  0  0  0  0  0  0
   -5.3428   -2.0793   -0.5161 H   0  0  0  0  0  0  0  0  0  0  0  0
   -6.1314   -0.7161   -2.9044 H   0  0  0  0  0  0  0  0  0  0  0  0
   -6.6245    0.8819   -2.2188 H   0  0  0  0  0  0  0  0  0  0  0  0
   -7.0667   -0.6257   -1.3531 H   0  0  0  0  0  0  0  0  0  0  0  0
  1  2  1  0
  2  3  1  0
  3  4  1  0
  3  5  1  0
  5  6  1  0
  6  7  1  0
  7  8  2  0
  7  9  1  0
  9 10  1  0
 10 11  1  0
 11 12  1  0
 12 13  2  0
 12 14  1  0
 14 15  1  0
 15 16  1  0
 16 17  1  0
 17 18  1  0
 18 19  1  0
 19 20  1  0
 20 21  1  0
 17 22  1  0
 22 23  1  0
 11 24  1  0
 24 25  1  0
 25 26  2  0
 25 27  1  0
 27 28  2  0
 28 29  1  0
 29 30  2  0
 30 31  1  0
 31 32  2  0
 32 33  1  0
 33 34  1  0
 34 35  1  0
 35 36  1  0
 36 37  1  0
 36 38  1  0
 38 39  2  0
 38  5  1  0
 23 14  1  0
 32 27  1  0
  1 40  1  0
  1 41  1  0
  1 42  1  0
  2 43  1  0
  2 44  1  0
  3 45  1  0
  4 46  1  0
  4 47  1  0
  4 48  1  0
  5 49  1  0
  6 50  1  0
  9 51  1  0
  9 52  1  0
 10 53  1  0
 10 54  1  0
 11 55  1  0
 15 56  1  0
 15 57  1  0
 16 58  1  0
 16 59  1  0
 18 60  1  0
 18 61  1  0
 19 62  1  0
 19 63  1  0
 21 64  1  0
 21 65  1  0
 21 66  1  0
 22 67  1  0
 22 68  1  0
 23 69  1  0
 23 70  1  0
 24 71  1  0
 28 72  1  0
 29 73  1  0
 30 74  1  0
 31 75  1  0
 34 76  1  0
 34 77  1  0
 35 78  1  0
 35 79  1  0
 37 80  1  0
 37 81  1  0
 37 82  1  0
M  END
$$$$
