
     RDKit          3D

 61 63  0  0  0  0  0  0  0  0999 V2000
    3.7611   -2.3830    1.0952 O   0  0  0  0  0  0  0  0  0  0  0  0
    3.3601   -1.1870    1.0813 C   0  0  0  0  0  0  0  0  0  0  0  0
    1.9687   -0.8706    1.5474 C   0  0  0  0  0  0  0  0  0  0  0  0
    1.2853    0.0246    0.5895 N   0  0  0  0  0  0  0  0  0  0  0  0
    0.9156   -0.6776   -0.6712 C   0  0  0  0  0  0  0  0  0  0  0  0
   -0.4149   -1.4484   -0.6022 C   0  0  0  0  0  0  0  0  0  0  0  0
   -0.6720   -2.2524   -1.8843 C   0  0  0  0  0  0  0  0  0  0  0  0
   -2.1263   -2.7536   -1.9820 C   0  0  0  0  0  0  0  0  0  0  0  0
   -3.1442   -1.6092   -2.1945 C   0  0  0  0  0  0  0  0  0  0  0  0
   -3.9136   -1.2532   -0.9160 C   0  0  0  0  0  0  0  0  0  0  0  0
   -4.4433    0.0644   -1.0329 O   0  0  0  0  0  0  0  0  0  0  0  0
   -4.9484    0.7559    0.0695 C   0  0  0  0  0  0  0  0  0  0  0  0
   -6.3233    1.0104    0.1397 C   0  0  0  0  0  0  0  0  0  0  0  0
   -6.8635    1.6614    1.2531 C   0  0  0  0  0  0  0  0  0  0  0  0
   -6.0307    2.0657    2.2997 C   0  0  0  0  0  0  0  0  0  0  0  0
   -4.6537    1.8375    2.2260 C   0  0  0  0  0  0  0  0  0  0  0  0
   -4.1017    1.2039    1.1051 C   0  0  0  0  0  0  0  0  0  0  0  0
   -2.7147    1.0420    1.0333 O   0  0  0  0  0  0  0  0  0  0  0  0
   -1.8943    1.8730    0.2577 C   0  0  0  0  0  0  0  0  0  0  0  0
   -2.4513    2.8099   -0.5617 N   0  0  0  0  0  0  0  0  0  0  0  0
   -1.6971    3.6595   -1.3057 C   0  0  0  0  0  0  0  0  0  0  0  0
   -0.3062    3.6024   -1.2340 C   0  0  0  0  0  0  0  0  0  0  0  0
    0.2977    2.6584   -0.4039 C   0  0  0  0  0  0  0  0  0  0  0  0
   -0.4883    1.7602    0.3344 C   0  0  0  0  0  0  0  0  0  0  0  0
    0.1766    0.7549    1.2515 C   0  0  0  0  0  0  0  0  0  0  0  0
    4.2331   -0.1344    0.6451 N   0  0  0  0  0  0  0  0  0  0  0  0
    5.5838   -0.3917    0.1494 C   0  0  0  0  0  0  0  0  0  0  0  0
    6.5454   -0.6292    1.3202 C   0  0  0  0  0  0  0  0  0  0  0  0
    7.9722   -0.8907    0.8349 C   0  0  0  0  0  0  0  0  0  0  0  0
    8.0304   -2.1087    0.1446 O   0  0  0  0  0  0  0  0  0  0  0  0
    2.0709   -0.3798    2.5400 H   0  0  0  0  0  0  0  0  0  0  0  0
    1.3876   -1.8067    1.7000 H   0  0  0  0  0  0  0  0  0  0  0  0
    1.7239   -1.3770   -0.9786 H   0  0  0  0  0  0  0  0  0  0  0  0
    0.8493    0.0743   -1.4868 H   0  0  0  0  0  0  0  0  0  0  0  0
   -0.4325   -2.1295    0.2728 H   0  0  0  0  0  0  0  0  0  0  0  0
   -1.2177   -0.7047   -0.4939 H   0  0  0  0  0  0  0  0  0  0  0  0
   -0.4408   -1.6337   -2.7797 H   0  0  0  0  0  0  0  0  0  0  0  0
    0.0127   -3.1285   -1.9006 H   0  0  0  0  0  0  0  0  0  0  0  0
   -2.1845   -3.4375   -2.8566 H   0  0  0  0  0  0  0  0  0  0  0  0
   -2.3819   -3.3621   -1.0866 H   0  0  0  0  0  0  0  0  0  0  0  0
   -3.8825   -1.9133   -2.9694 H   0  0  0  0  0  0  0  0  0  0  0  0
   -2.6314   -0.7016   -2.5850 H   0  0  0  0  0  0  0  0  0  0  0  0
   -4.7488   -1.9727   -0.7733 H   0  0  0  0  0  0  0  0  0  0  0  0
   -3.2652   -1.3228   -0.0196 H   0  0  0  0  0  0  0  0  0  0  0  0
   -6.9756    0.6843   -0.6608 H   0  0  0  0  0  0  0  0  0  0  0  0
   -7.9291    1.8454    1.3086 H   0  0  0  0  0  0  0  0  0  0  0  0
   -6.4508    2.5626    3.1647 H   0  0  0  0  0  0  0  0  0  0  0  0
   -4.0114    2.1702    3.0315 H   0  0  0  0  0  0  0  0  0  0  0  0
   -2.1783    4.3879   -1.9446 H   0  0  0  0  0  0  0  0  0  0  0  0
    0.2994    4.2866   -1.8143 H   0  0  0  0  0  0  0  0  0  0  0  0
    1.3784    2.6213   -0.3422 H   0  0  0  0  0  0  0  0  0  0  0  0
    0.5800    1.3333    2.1114 H   0  0  0  0  0  0  0  0  0  0  0  0
   -0.5580    0.0355    1.6744 H   0  0  0  0  0  0  0  0  0  0  0  0
    3.8854    0.8503    0.6522 H   0  0  0  0  0  0  0  0  0  0  0  0
    5.9287    0.4911   -0.4334 H   0  0  0  0  0  0  0  0  0  0  0  0
    5.5723   -1.2688   -0.5359 H   0  0  0  0  0  0  0  0  0  0  0  0
    6.2009   -1.4954    1.9262 H   0  0  0  0  0  0  0  0  0  0  0  0
    6.5475    0.2710    1.9735 H   0  0  0  0  0  0  0  0  0  0  0  0
    8.6484   -0.9358    1.7168 H   0  0  0  0  0  0  0  0  0  0  0  0
    8.3068   -0.0577    0.1755 H   0  0  0  0  0  0  0  0  0  0  0  0
    8.9535   -2.1809   -0.2103 H   0  0  0  0  0  0  0  0  0  0  0  0
  1  2  2  0
  2  3  1  0
  3  4  1  0
  4  5  1  0
  5  6  1  0
  6  7  1  0
  7  8  1  0
  8  9  1  0
  9 10  1  0
 10 11  1  0
 11 12  1  0
 12 13  2  0
 13 14  1  0
 14 15  2  0
 15 16  1  0
 16 17  2  0
 17 18  1  0
 18 19  1  0
 19 20  2  0
 20 21  1  0
 21 22  2  0
 22 23  1  0
 23 24  2  0
 24 25  1  0
  2 26  1  0
 26 27  1  0
 27 28  1  0
 28 29  1  0
 29 30  1  0
 25  4  1  0
 17 12  1  0
 24 19  1  0
  3 31  1  0
  3 32  1  0
  5 33  1  0
  5 34  1  0
  6 35  1  0
  6 36  1  0
  7 37  1  0
  7 38  1  0
  8 39  1  0
  8 40  1  0
  9 41  1  0
  9 42  1  0
 10 43  1  0
 10 44  1  0
 13 45  1  0
 14 46  1  0
 15 47  1  0
 16 48  1  0
 21 49  1  0
 22 50  1  0
 23 51  1  0
 25 52  1  0
 25 53  1  0
 26 54  1  0
 27 55  1  0
 27 56  1  0
 28 57  1  0
 28 58  1  0
 29 59  1  0
 29 60  1  0
 30 61  1  0
M  END
$$$$
