
     RDKit          3D

 66 69  0  0  0  0  0  0  0  0999 V2000
   -5.3366   -3.2776   -0.4058 C   0  0  0  0  0  0  0  0  0  0  0  0
   -4.5136   -2.1602   -0.1555 O   0  0  0  0  0  0  0  0  0  0  0  0
   -3.3068   -2.2873   -0.8833 C   0  0  0  0  0  0  0  0  0  0  0  0
   -2.4174   -1.0259   -0.6870 C   0  0  0  0  0  0  0  0  0  0  0  0
   -1.1072   -1.1619   -1.5415 C   0  0  0  0  0  0  0  0  0  0  0  0
   -0.1063   -2.3145   -1.2208 C   0  0  0  0  0  0  0  0  0  0  0  0
    0.9872   -2.0231   -0.1685 C   0  0  0  0  0  0  0  0  0  0  0  0
    1.9698   -0.9050   -0.5823 C   0  0  0  0  0  0  0  0  0  0  0  0
    2.6545   -0.3103    0.5799 N   0  0  0  0  0  0  0  0  0  0  0  0
    4.0940   -0.2725    0.6127 C   0  0  0  0  0  0  0  0  0  0  0  0
    4.6780    0.8204    0.8475 O   0  0  0  0  0  0  0  0  0  0  0  0
    4.8957   -1.4930    0.3747 C   0  0  0  0  0  0  0  0  0  0  0  0
    6.2743   -1.4212    0.1371 C   0  0  0  0  0  0  0  0  0  0  0  0
    6.9942   -2.5968   -0.0639 C   0  0  0  0  0  0  0  0  0  0  0  0
    6.3249   -3.8196   -0.0232 C   0  0  0  0  0  0  0  0  0  0  0  0
    6.9578   -4.8944   -0.1995 O   0  0  0  0  0  0  0  0  0  0  0  0
    4.9854   -3.8432    0.2121 N   0  0  0  0  0  0  0  0  0  0  0  0
    4.2990   -2.7156    0.4087 N   0  0  0  0  0  0  0  0  0  0  0  0
    1.9055    0.5594    1.5047 C   0  0  0  0  0  0  0  0  0  0  0  0
    1.6215    1.9426    0.8935 C   0  0  0  0  0  0  0  0  0  0  0  0
    0.2581    2.3050    1.1204 O   0  0  0  0  0  0  0  0  0  0  0  0
   -0.3009    3.5595    0.8184 C   0  0  0  0  0  0  0  0  0  0  0  0
    0.4729    4.6036    0.2732 C   0  0  0  0  0  0  0  0  0  0  0  0
   -0.0951    5.8596    0.0447 C   0  0  0  0  0  0  0  0  0  0  0  0
   -1.4357    6.0911    0.3551 C   0  0  0  0  0  0  0  0  0  0  0  0
   -2.2191    5.0611    0.8785 C   0  0  0  0  0  0  0  0  0  0  0  0
   -1.6665    3.7894    1.0924 C   0  0  0  0  0  0  0  0  0  0  0  0
   -2.5300    2.7070    1.6006 C   0  0  0  0  0  0  0  0  0  0  0  0
   -3.1180    2.8582    2.7065 O   0  0  0  0  0  0  0  0  0  0  0  0
   -2.7272    1.5011    0.8397 N   0  0  0  0  0  0  0  0  0  0  0  0
   -2.7210    1.5503   -0.6306 C   0  0  0  0  0  0  0  0  0  0  0  0
   -3.2034    0.2200   -1.2349 C   0  0  0  0  0  0  0  0  0  0  0  0
   -2.9438    0.2196    1.5185 C   0  0  0  0  0  0  0  0  0  0  0  0
   -2.0802   -0.8391    0.8293 C   0  0  0  0  0  0  0  0  0  0  0  0
   -6.2723   -3.1665    0.1810 H   0  0  0  0  0  0  0  0  0  0  0  0
   -5.6182   -3.3366   -1.4813 H   0  0  0  0  0  0  0  0  0  0  0  0
   -4.8461   -4.2224   -0.0793 H   0  0  0  0  0  0  0  0  0  0  0  0
   -2.7666   -3.1898   -0.5284 H   0  0  0  0  0  0  0  0  0  0  0  0
   -3.5170   -2.4086   -1.9722 H   0  0  0  0  0  0  0  0  0  0  0  0
   -0.5872   -0.1879   -1.5403 H   0  0  0  0  0  0  0  0  0  0  0  0
   -1.4167   -1.3096   -2.6016 H   0  0  0  0  0  0  0  0  0  0  0  0
   -0.6440   -3.2317   -0.9183 H   0  0  0  0  0  0  0  0  0  0  0  0
    0.4177   -2.5792   -2.1659 H   0  0  0  0  0  0  0  0  0  0  0  0
    1.5805   -2.9546   -0.0394 H   0  0  0  0  0  0  0  0  0  0  0  0
    0.5385   -1.8546    0.8224 H   0  0  0  0  0  0  0  0  0  0  0  0
    2.7069   -1.3370   -1.2943 H   0  0  0  0  0  0  0  0  0  0  0  0
    1.4760   -0.0971   -1.1468 H   0  0  0  0  0  0  0  0  0  0  0  0
    6.7887   -0.4684    0.1079 H   0  0  0  0  0  0  0  0  0  0  0  0
    8.0614   -2.5558   -0.2466 H   0  0  0  0  0  0  0  0  0  0  0  0
    4.4788   -4.7564    0.2440 H   0  0  0  0  0  0  0  0  0  0  0  0
    2.4784    0.6876    2.4498 H   0  0  0  0  0  0  0  0  0  0  0  0
    0.9611    0.0724    1.8056 H   0  0  0  0  0  0  0  0  0  0  0  0
    1.8232    1.9554   -0.1985 H   0  0  0  0  0  0  0  0  0  0  0  0
    2.2972    2.6863    1.3716 H   0  0  0  0  0  0  0  0  0  0  0  0
    1.5171    4.4579    0.0305 H   0  0  0  0  0  0  0  0  0  0  0  0
    0.5075    6.6578   -0.3691 H   0  0  0  0  0  0  0  0  0  0  0  0
   -1.8697    7.0686    0.1838 H   0  0  0  0  0  0  0  0  0  0  0  0
   -3.2628    5.2479    1.1005 H   0  0  0  0  0  0  0  0  0  0  0  0
   -1.6973    1.7818   -0.9921 H   0  0  0  0  0  0  0  0  0  0  0  0
   -3.3984    2.3614   -0.9768 H   0  0  0  0  0  0  0  0  0  0  0  0
   -4.2870    0.1369   -1.0021 H   0  0  0  0  0  0  0  0  0  0  0  0
   -3.1377    0.2796   -2.3437 H   0  0  0  0  0  0  0  0  0  0  0  0
   -4.0183   -0.0576    1.4736 H   0  0  0  0  0  0  0  0  0  0  0  0
   -2.6460    0.2856    2.5882 H   0  0  0  0  0  0  0  0  0  0  0  0
   -2.1379   -1.7984    1.3863 H   0  0  0  0  0  0  0  0  0  0  0  0
   -1.0536   -0.4538    0.9291 H   0  0  0  0  0  0  0  0  0  0  0  0
  1  2  1  0
  2  3  1  0
  3  4  1  0
  4  5  1  0
  5  6  1  0
  6  7  1  0
  7  8  1  0
  8  9  1  0
  9 10  1  0
 10 11  2  0
 10 12  1  0
 12 13  1  0
 13 14  2  0
 14 15  1  0
 15 16  2  0
 15 17  1  0
 17 18  1  0
  9 19  1  0
 19 20  1  0
 20 21  1  0
 21 22  1  0
 22 23  2  0
 23 24  1  0
 24 25  2  0
 25 26  1  0
 26 27  2  0
 27 28  1  0
 28 29  2  0
 28 30  1  0
 30 31  1  0
 31 32  1  0
 30 33  1  0
 33 34  1  0
 32  4  1  0
 34  4  1  0
 18 12  2  0
 27 22  1  0
  1 35  1  0
  1 36  1  0
  1 37  1  0
  3 38  1  0
  3 39  1  0
  5 40  1  0
  5 41  1  0
  6 42  1  0
  6 43  1  0
  7 44  1  0
  7 45  1  0
  8 46  1  0
  8 47  1  0
 13 48  1  0
 14 49  1  0
 17 50  1  0
 19 51  1  0
 19 52  1  0
 20 53  1  0
 20 54  1  0
 23 55  1  0
 24 56  1  0
 25 57  1  0
 26 58  1  0
 31 59  1  0
 31 60  1  0
 32 61  1  0
 32 62  1  0
 33 63  1  0
 33 64  1  0
 34 65  1  0
 34 66  1  0
M  END
$$$$
