
     RDKit          3D

 70 73  0  0  0  0  0  0  0  0999 V2000
    6.3898   -0.4434   -2.9253 C   0  0  0  0  0  0  0  0  0  0  0  0
    6.3234    0.2078   -1.5668 C   0  0  0  0  0  0  0  0  0  0  0  0
    7.3928    1.0232   -1.1541 C   0  0  0  0  0  0  0  0  0  0  0  0
    7.3685    1.6521    0.0903 C   0  0  0  0  0  0  0  0  0  0  0  0
    6.2775    1.4789    0.9380 C   0  0  0  0  0  0  0  0  0  0  0  0
    5.2107    0.6659    0.5522 C   0  0  0  0  0  0  0  0  0  0  0  0
    5.2236   -0.0055   -0.6918 C   0  0  0  0  0  0  0  0  0  0  0  0
    4.0621   -0.8922   -1.1224 C   0  0  0  0  0  0  0  0  0  0  0  0
    3.1709   -1.3416    0.0123 C   0  0  0  0  0  0  0  0  0  0  0  0
    3.5240   -2.3645    0.6613 O   0  0  0  0  0  0  0  0  0  0  0  0
    1.9642   -0.6267    0.3903 N   0  0  0  0  0  0  0  0  0  0  0  0
    1.6098    0.6335   -0.3055 C   0  0  0  0  0  0  0  0  0  0  0  0
    0.7113    1.5990    0.5018 C   0  0  0  0  0  0  0  0  0  0  0  0
   -0.7900    1.3824    0.2344 C   0  0  0  0  0  0  0  0  0  0  0  0
   -1.6468    2.4649    0.9211 C   0  0  0  0  0  0  0  0  0  0  0  0
   -3.1918    2.4663    0.6192 C   0  0  0  0  0  0  0  0  0  0  0  0
   -3.7421    3.8445    1.0937 C   0  0  0  0  0  0  0  0  0  0  0  0
   -3.4941    4.0424    2.4605 O   0  0  0  0  0  0  0  0  0  0  0  0
   -3.4894    2.3408   -0.9108 C   0  0  0  0  0  0  0  0  0  0  0  0
   -3.8724    0.9263   -1.3928 C   0  0  0  0  0  0  0  0  0  0  0  0
   -3.3764   -0.1304   -0.5009 N   0  0  0  0  0  0  0  0  0  0  0  0
   -3.7062   -0.0703    0.9292 C   0  0  0  0  0  0  0  0  0  0  0  0
   -3.9612    1.3656    1.4101 C   0  0  0  0  0  0  0  0  0  0  0  0
   -2.8598   -1.3531   -1.0700 C   0  0  0  0  0  0  0  0  0  0  0  0
   -2.2830   -1.3315   -2.1904 O   0  0  0  0  0  0  0  0  0  0  0  0
   -3.0776   -2.6599   -0.4210 C   0  0  0  0  0  0  0  0  0  0  0  0
   -4.1625   -3.4366   -0.8569 C   0  0  0  0  0  0  0  0  0  0  0  0
   -4.4506   -4.6585   -0.2452 C   0  0  0  0  0  0  0  0  0  0  0  0
   -3.6622   -5.1142    0.8117 C   0  0  0  0  0  0  0  0  0  0  0  0
   -2.5778   -4.3536    1.2529 C   0  0  0  0  0  0  0  0  0  0  0  0
   -2.2635   -3.1360    0.6359 C   0  0  0  0  0  0  0  0  0  0  0  0
   -1.1702   -2.4170    1.1286 O   0  0  0  0  0  0  0  0  0  0  0  0
   -0.0130   -2.1158    0.3548 C   0  0  0  0  0  0  0  0  0  0  0  0
    0.9779   -1.3392    1.2242 C   0  0  0  0  0  0  0  0  0  0  0  0
    7.2188   -0.0271   -3.5379 H   0  0  0  0  0  0  0  0  0  0  0  0
    6.5583   -1.5345   -2.8085 H   0  0  0  0  0  0  0  0  0  0  0  0
    5.4448   -0.2701   -3.4812 H   0  0  0  0  0  0  0  0  0  0  0  0
    8.2487    1.1782   -1.7995 H   0  0  0  0  0  0  0  0  0  0  0  0
    8.1958    2.2810    0.3947 H   0  0  0  0  0  0  0  0  0  0  0  0
    6.2575    1.9761    1.8992 H   0  0  0  0  0  0  0  0  0  0  0  0
    4.3811    0.5653    1.2386 H   0  0  0  0  0  0  0  0  0  0  0  0
    4.4677   -1.8106   -1.5978 H   0  0  0  0  0  0  0  0  0  0  0  0
    3.4719   -0.3788   -1.9092 H   0  0  0  0  0  0  0  0  0  0  0  0
    1.1525    0.3973   -1.2910 H   0  0  0  0  0  0  0  0  0  0  0  0
    2.5402    1.2027   -0.5155 H   0  0  0  0  0  0  0  0  0  0  0  0
    0.9392    1.5404    1.5872 H   0  0  0  0  0  0  0  0  0  0  0  0
    0.9637    2.6353    0.1846 H   0  0  0  0  0  0  0  0  0  0  0  0
   -1.0801    0.3992    0.6201 H   0  0  0  0  0  0  0  0  0  0  0  0
   -0.9550    1.3928   -0.8617 H   0  0  0  0  0  0  0  0  0  0  0  0
   -1.2308    3.4489    0.6071 H   0  0  0  0  0  0  0  0  0  0  0  0
   -1.4878    2.3908    2.0197 H   0  0  0  0  0  0  0  0  0  0  0  0
   -4.8401    3.9048    0.9133 H   0  0  0  0  0  0  0  0  0  0  0  0
   -3.2641    4.6640    0.5090 H   0  0  0  0  0  0  0  0  0  0  0  0
   -3.8322    4.9498    2.6757 H   0  0  0  0  0  0  0  0  0  0  0  0
   -4.3357    3.0034   -1.1998 H   0  0  0  0  0  0  0  0  0  0  0  0
   -2.6326    2.7251   -1.5050 H   0  0  0  0  0  0  0  0  0  0  0  0
   -3.4931    0.7934   -2.4287 H   0  0  0  0  0  0  0  0  0  0  0  0
   -4.9798    0.8432   -1.4451 H   0  0  0  0  0  0  0  0  0  0  0  0
   -4.6074   -0.6913    1.1246 H   0  0  0  0  0  0  0  0  0  0  0  0
   -2.8816   -0.5003    1.5322 H   0  0  0  0  0  0  0  0  0  0  0  0
   -5.0540    1.5546    1.3116 H   0  0  0  0  0  0  0  0  0  0  0  0
   -3.7264    1.4285    2.4952 H   0  0  0  0  0  0  0  0  0  0  0  0
   -4.7956   -3.0886   -1.6645 H   0  0  0  0  0  0  0  0  0  0  0  0
   -5.2918   -5.2483   -0.5853 H   0  0  0  0  0  0  0  0  0  0  0  0
   -3.8924   -6.0570    1.2903 H   0  0  0  0  0  0  0  0  0  0  0  0
   -1.9718   -4.7153    2.0740 H   0  0  0  0  0  0  0  0  0  0  0  0
    0.4597   -3.0586    0.0038 H   0  0  0  0  0  0  0  0  0  0  0  0
   -0.2869   -1.5141   -0.5321 H   0  0  0  0  0  0  0  0  0  0  0  0
    0.4444   -0.6372    1.8931 H   0  0  0  0  0  0  0  0  0  0  0  0
    1.4788   -2.0467    1.9199 H   0  0  0  0  0  0  0  0  0  0  0  0
  1  2  1  0
  2  3  2  0
  3  4  1  0
  4  5  2  0
  5  6  1  0
  6  7  2  0
  7  8  1  0
  8  9  1  0
  9 10  2  0
  9 11  1  0
 11 12  1  0
 12 13  1  0
 13 14  1  0
 14 15  1  0
 15 16  1  0
 16 17  1  0
 17 18  1  0
 16 19  1  0
 19 20  1  0
 20 21  1  0
 21 22  1  0
 22 23  1  0
 21 24  1  0
 24 25  2  0
 24 26  1  0
 26 27  2  0
 27 28  1  0
 28 29  2  0
 29 30  1  0
 30 31  2  0
 31 32  1  0
 32 33  1  0
 33 34  1  0
  7  2  1  0
 34 11  1  0
 23 16  1  0
 31 26  1  0
  1 35  1  0
  1 36  1  0
  1 37  1  0
  3 38  1  0
  4 39  1  0
  5 40  1  0
  6 41  1  0
  8 42  1  0
  8 43  1  0
 12 44  1  0
 12 45  1  0
 13 46  1  0
 13 47  1  0
 14 48  1  0
 14 49  1  0
 15 50  1  0
 15 51  1  0
 17 52  1  0
 17 53  1  0
 18 54  1  0
 19 55  1  0
 19 56  1  0
 20 57  1  0
 20 58  1  0
 22 59  1  0
 22 60  1  0
 23 61  1  0
 23 62  1  0
 27 63  1  0
 28 64  1  0
 29 65  1  0
 30 66  1  0
 33 67  1  0
 33 68  1  0
 34 69  1  0
 34 70  1  0
M  END
$$$$
