
     RDKit          3D

 88 89  0  0  0  0  0  0  0  0999 V2000
    7.9975    1.3786   -1.6381 C   0  0  0  0  0  0  0  0  0  0  0  0
    7.8422    0.5933   -0.3389 C   0  0  0  0  0  0  0  0  0  0  0  0
    7.9577   -0.9170   -0.5894 C   0  0  0  0  0  0  0  0  0  0  0  0
    7.9570   -1.7440    0.7087 C   0  0  0  0  0  0  0  0  0  0  0  0
    6.6941   -1.5889    1.5763 C   0  0  0  0  0  0  0  0  0  0  0  0
    5.4027   -1.9525    0.8249 C   0  0  0  0  0  0  0  0  0  0  0  0
    4.1875   -2.1059    1.7561 C   0  0  0  0  0  0  0  0  0  0  0  0
    3.8393   -0.8566    2.5918 C   0  0  0  0  0  0  0  0  0  0  0  0
    3.5722    0.4229    1.7758 C   0  0  0  0  0  0  0  0  0  0  0  0
    2.3593    0.3600    0.8841 C   0  0  0  0  0  0  0  0  0  0  0  0
    1.5464   -0.5999    0.9753 O   0  0  0  0  0  0  0  0  0  0  0  0
    2.1062    1.4457   -0.0258 N   0  0  0  0  0  0  0  0  0  0  0  0
    0.9698    1.5352   -0.9584 C   0  0  1  0  0  0  0  0  0  0  0  0
    1.2542    0.7298   -2.2516 C   0  0  0  0  0  0  0  0  0  0  0  0
    1.3989   -0.7585   -2.0518 C   0  0  0  0  0  0  0  0  0  0  0  0
    0.2719   -1.5961   -2.0921 C   0  0  0  0  0  0  0  0  0  0  0  0
    0.4082   -2.9743   -1.8985 C   0  0  0  0  0  0  0  0  0  0  0  0
    1.6723   -3.5306   -1.6874 C   0  0  0  0  0  0  0  0  0  0  0  0
    2.8033   -2.7098   -1.6774 C   0  0  0  0  0  0  0  0  0  0  0  0
    2.6698   -1.3294   -1.8576 C   0  0  0  0  0  0  0  0  0  0  0  0
   -0.3573    1.2421   -0.2777 C   0  0  0  0  0  0  0  0  0  0  0  0
   -0.4371    1.3453    0.9762 O   0  0  0  0  0  0  0  0  0  0  0  0
   -1.5475    0.9920   -1.0467 N   0  0  0  0  0  0  0  0  0  0  0  0
   -2.8090    0.4844   -0.4899 C   0  0  1  0  0  0  0  0  0  0  0  0
   -2.5883   -0.7747    0.3778 C   0  0  0  0  0  0  0  0  0  0  0  0
   -3.8673   -1.5470    0.6024 C   0  0  0  0  0  0  0  0  0  0  0  0
   -4.5452   -1.4730    1.7585 C   0  0  0  0  0  0  0  0  0  0  0  0
   -5.7103   -2.3811    2.0533 C   0  0  0  0  0  0  0  0  0  0  0  0
   -6.9212   -1.9661    1.3467 N   0  0  0  0  0  0  0  0  0  0  0  0
   -7.7205   -0.8856    1.8425 C   0  0  0  0  0  0  0  0  0  0  0  0
   -8.7857   -1.1345    2.4646 O   0  0  0  0  0  0  0  0  0  0  0  0
   -7.2991    0.5112    1.6628 C   0  0  0  0  0  0  0  0  0  0  0  0
   -6.5090    0.8631    0.6480 C   0  0  0  0  0  0  0  0  0  0  0  0
   -5.9273    2.2459    0.5182 C   0  0  2  0  0  0  0  0  0  0  0  0
   -6.9525    3.2665   -0.0497 C   0  0  0  0  0  0  0  0  0  0  0  0
   -7.5087    2.8803   -1.4321 C   0  0  0  0  0  0  0  0  0  0  0  0
   -6.3562    4.6806   -0.0894 C   0  0  0  0  0  0  0  0  0  0  0  0
   -4.7150    2.1616   -0.3017 N   0  0  0  0  0  0  0  0  0  0  0  0
   -3.5324    1.5758    0.2570 C   0  0  0  0  0  0  0  0  0  0  0  0
   -3.1205    1.9563    1.3870 O   0  0  0  0  0  0  0  0  0  0  0  0
    7.8896    2.4646   -1.4322 H   0  0  0  0  0  0  0  0  0  0  0  0
    7.2146    1.0750   -2.3668 H   0  0  0  0  0  0  0  0  0  0  0  0
    9.0011    1.1973   -2.0800 H   0  0  0  0  0  0  0  0  0  0  0  0
    8.6287    0.9187    0.3760 H   0  0  0  0  0  0  0  0  0  0  0  0
    6.8479    0.8307    0.0932 H   0  0  0  0  0  0  0  0  0  0  0  0
    8.9137   -1.1222   -1.1180 H   0  0  0  0  0  0  0  0  0  0  0  0
    7.1386   -1.2559   -1.2601 H   0  0  0  0  0  0  0  0  0  0  0  0
    8.8435   -1.4603    1.3177 H   0  0  0  0  0  0  0  0  0  0  0  0
    8.0769   -2.8162    0.4393 H   0  0  0  0  0  0  0  0  0  0  0  0
    6.6342   -0.5501    1.9619 H   0  0  0  0  0  0  0  0  0  0  0  0
    6.8035   -2.2585    2.4571 H   0  0  0  0  0  0  0  0  0  0  0  0
    5.1816   -1.1937    0.0469 H   0  0  0  0  0  0  0  0  0  0  0  0
    5.5521   -2.9233    0.3059 H   0  0  0  0  0  0  0  0  0  0  0  0
    4.3821   -2.9494    2.4545 H   0  0  0  0  0  0  0  0  0  0  0  0
    3.3102   -2.4024    1.1468 H   0  0  0  0  0  0  0  0  0  0  0  0
    4.6662   -0.6550    3.3040 H   0  0  0  0  0  0  0  0  0  0  0  0
    2.9442   -1.0819    3.2121 H   0  0  0  0  0  0  0  0  0  0  0  0
    4.4643    0.6855    1.1702 H   0  0  0  0  0  0  0  0  0  0  0  0
    3.4185    1.2603    2.4901 H   0  0  0  0  0  0  0  0  0  0  0  0
    2.7815    2.2436   -0.0231 H   0  0  0  0  0  0  0  0  0  0  0  0
    0.8976    2.5969   -1.2838 H   0  0  0  0  0  0  0  0  0  0  0  0
    0.4684    0.9260   -3.0096 H   0  0  0  0  0  0  0  0  0  0  0  0
    2.1903    1.1260   -2.7044 H   0  0  0  0  0  0  0  0  0  0  0  0
   -0.7098   -1.1893   -2.2893 H   0  0  0  0  0  0  0  0  0  0  0  0
   -0.4665   -3.6129   -1.9239 H   0  0  0  0  0  0  0  0  0  0  0  0
    1.7759   -4.5986   -1.5402 H   0  0  0  0  0  0  0  0  0  0  0  0
    3.7826   -3.1437   -1.5234 H   0  0  0  0  0  0  0  0  0  0  0  0
    3.5545   -0.7046   -1.8399 H   0  0  0  0  0  0  0  0  0  0  0  0
   -1.5328    1.1903   -2.0704 H   0  0  0  0  0  0  0  0  0  0  0  0
   -3.4486    0.1765   -1.3488 H   0  0  0  0  0  0  0  0  0  0  0  0
   -2.1213   -0.5115    1.3517 H   0  0  0  0  0  0  0  0  0  0  0  0
   -1.8801   -1.4531   -0.1424 H   0  0  0  0  0  0  0  0  0  0  0  0
   -4.2151   -2.2106   -0.1844 H   0  0  0  0  0  0  0  0  0  0  0  0
   -4.2002   -0.8076    2.5462 H   0  0  0  0  0  0  0  0  0  0  0  0
   -5.4481   -3.4240    1.7721 H   0  0  0  0  0  0  0  0  0  0  0  0
   -5.9042   -2.3750    3.1482 H   0  0  0  0  0  0  0  0  0  0  0  0
   -7.3889   -2.6737    0.7360 H   0  0  0  0  0  0  0  0  0  0  0  0
   -7.6416    1.2592    2.3687 H   0  0  0  0  0  0  0  0  0  0  0  0
   -6.2190    0.1190   -0.0865 H   0  0  0  0  0  0  0  0  0  0  0  0
   -5.6401    2.5909    1.5387 H   0  0  0  0  0  0  0  0  0  0  0  0
   -7.8158    3.2968    0.6518 H   0  0  0  0  0  0  0  0  0  0  0  0
   -7.9334    1.8550   -1.4146 H   0  0  0  0  0  0  0  0  0  0  0  0
   -8.3243    3.5786   -1.7162 H   0  0  0  0  0  0  0  0  0  0  0  0
   -6.7243    2.9330   -2.2179 H   0  0  0  0  0  0  0  0  0  0  0  0
   -6.0399    4.9902    0.9291 H   0  0  0  0  0  0  0  0  0  0  0  0
   -7.1119    5.4067   -0.4544 H   0  0  0  0  0  0  0  0  0  0  0  0
   -5.4739    4.7179   -0.7617 H   0  0  0  0  0  0  0  0  0  0  0  0
   -4.8232    2.0896   -1.3368 H   0  0  0  0  0  0  0  0  0  0  0  0
  1  2  1  0
  2  3  1  0
  3  4  1  0
  4  5  1  0
  5  6  1  0
  6  7  1  0
  7  8  1  0
  8  9  1  0
  9 10  1  0
 10 11  2  0
 10 12  1  0
 12 13  1  0
 13 14  1  0
 14 15  1  0
 15 16  2  0
 16 17  1  0
 17 18  2  0
 18 19  1  0
 19 20  2  0
 13 21  1  0
 21 22  2  0
 21 23  1  0
 23 24  1  0
 24 25  1  0
 25 26  1  0
 26 27  2  0
 27 28  1  0
 28 29  1  0
 29 30  1  0
 30 31  2  0
 30 32  1  0
 32 33  2  0
 33 34  1  0
 34 35  1  0
 35 36  1  0
 35 37  1  0
 34 38  1  0
 38 39  1  0
 39 40  2  0
 20 15  1  0
 39 24  1  0
  1 41  1  0
  1 42  1  0
  1 43  1  0
  2 44  1  0
  2 45  1  0
  3 46  1  0
  3 47  1  0
  4 48  1  0
  4 49  1  0
  5 50  1  0
  5 51  1  0
  6 52  1  0
  6 53  1  0
  7 54  1  0
  7 55  1  0
  8 56  1  0
  8 57  1  0
  9 58  1  0
  9 59  1  0
 12 60  1  0
 13 61  1  6
 14 62  1  0
 14 63  1  0
 16 64  1  0
 17 65  1  0
 18 66  1  0
 19 67  1  0
 20 68  1  0
 23 69  1  0
 24 70  1  6
 25 71  1  0
 25 72  1  0
 26 73  1  0
 27 74  1  0
 28 75  1  0
 28 76  1  0
 29 77  1  0
 32 78  1  0
 33 79  1  0
 34 80  1  1
 35 81  1  0
 36 82  1  0
 36 83  1  0
 36 84  1  0
 37 85  1  0
 37 86  1  0
 37 87  1  0
 38 88  1  0
M  END
$$$$
