
     RDKit          3D

 68 70  0  0  0  0  0  0  0  0999 V2000
   -3.7645    2.1741   -2.4095 C   0  0  0  0  0  0  0  0  0  0  0  0
   -4.0957    1.9588   -0.9226 C   0  0  1  0  0  0  0  0  0  0  0  0
   -5.5692    1.5762   -0.6929 C   0  0  0  0  0  0  0  0  0  0  0  0
   -5.9028    0.4034   -1.3809 O   0  0  0  0  0  0  0  0  0  0  0  0
   -3.1798    0.9861   -0.2779 N   0  0  0  0  0  0  0  0  0  0  0  0
   -2.3513    1.4424    0.8596 C   0  0  0  0  0  0  0  0  0  0  0  0
   -0.8357    1.4045    0.4942 C   0  0  1  0  0  0  0  0  0  0  0  0
   -0.3649    2.7859    0.0102 C   0  0  0  0  0  0  0  0  0  0  0  0
    0.0559    0.7136    1.5958 C   0  0  2  0  0  0  0  0  0  0  0  0
    1.0606    1.6258    2.3517 C   0  0  0  0  0  0  0  0  0  0  0  0
    2.2191    2.0308    1.5357 N   0  0  0  0  0  0  0  0  0  0  0  0
    2.5801    3.4464    1.4002 C   0  0  0  0  0  0  0  0  0  0  0  0
    3.1720    1.0472    1.1003 C   0  0  0  0  0  0  0  0  0  0  0  0
    3.5209    0.1239    1.8895 O   0  0  0  0  0  0  0  0  0  0  0  0
    3.7574    1.1127   -0.2797 C   0  0  0  0  0  0  0  0  0  0  0  0
    3.9570   -0.2675   -0.8523 C   0  0  0  0  0  0  0  0  0  0  0  0
    5.1563   -0.9628   -0.6122 C   0  0  0  0  0  0  0  0  0  0  0  0
    5.3331   -2.2589   -1.1125 C   0  0  0  0  0  0  0  0  0  0  0  0
    4.3158   -2.8699   -1.8565 C   0  0  0  0  0  0  0  0  0  0  0  0
    3.1119   -2.1926   -2.0778 C   0  0  0  0  0  0  0  0  0  0  0  0
    2.9272   -0.8989   -1.5754 C   0  0  0  0  0  0  0  0  0  0  0  0
    0.7367   -0.3806    0.9896 O   0  0  0  0  0  0  0  0  0  0  0  0
    0.6712   -1.5587    1.7703 C   0  0  0  0  0  0  0  0  0  0  0  0
    0.9924   -2.7456    0.9128 C   0  0  0  0  0  0  0  0  0  0  0  0
    1.9095   -3.7323    1.2064 C   0  0  0  0  0  0  0  0  0  0  0  0
    1.8232   -4.6771    0.2478 N   0  0  0  0  0  0  0  0  0  0  0  0
    0.8807   -4.2858   -0.5998 N   0  0  0  0  0  0  0  0  0  0  0  0
    0.3632   -3.1252   -0.2217 N   0  0  0  0  0  0  0  0  0  0  0  0
   -0.6814   -2.4299   -0.9797 C   0  0  0  0  0  0  0  0  0  0  0  0
   -2.0909   -2.7367   -0.4343 C   0  0  0  0  0  0  0  0  0  0  0  0
   -2.7670   -1.5242    0.2353 C   0  0  0  0  0  0  0  0  0  0  0  0
   -3.1016   -0.3983   -0.7214 C   0  0  0  0  0  0  0  0  0  0  0  0
   -3.3977   -0.6947   -1.9122 O   0  0  0  0  0  0  0  0  0  0  0  0
   -2.6680    2.2855   -2.5409 H   0  0  0  0  0  0  0  0  0  0  0  0
   -4.2582    3.1026   -2.7731 H   0  0  0  0  0  0  0  0  0  0  0  0
   -4.1204    1.3402   -3.0459 H   0  0  0  0  0  0  0  0  0  0  0  0
   -3.9641    2.9587   -0.4511 H   0  0  0  0  0  0  0  0  0  0  0  0
   -5.7395    1.4381    0.3995 H   0  0  0  0  0  0  0  0  0  0  0  0
   -6.2227    2.4049   -1.0451 H   0  0  0  0  0  0  0  0  0  0  0  0
   -6.8304    0.1761   -1.1119 H   0  0  0  0  0  0  0  0  0  0  0  0
   -2.6093    0.8358    1.7498 H   0  0  0  0  0  0  0  0  0  0  0  0
   -2.6243    2.4733    1.1771 H   0  0  0  0  0  0  0  0  0  0  0  0
   -0.7442    0.7778   -0.4168 H   0  0  0  0  0  0  0  0  0  0  0  0
   -0.3420    3.5245    0.8389 H   0  0  0  0  0  0  0  0  0  0  0  0
   -1.0626    3.1702   -0.7644 H   0  0  0  0  0  0  0  0  0  0  0  0
    0.6328    2.7026   -0.4697 H   0  0  0  0  0  0  0  0  0  0  0  0
   -0.6242    0.3738    2.4089 H   0  0  0  0  0  0  0  0  0  0  0  0
    1.4336    1.0745    3.2434 H   0  0  0  0  0  0  0  0  0  0  0  0
    0.5207    2.5098    2.7549 H   0  0  0  0  0  0  0  0  0  0  0  0
    2.6304    3.7302    0.3277 H   0  0  0  0  0  0  0  0  0  0  0  0
    3.5735    3.6246    1.8630 H   0  0  0  0  0  0  0  0  0  0  0  0
    1.8462    4.1081    1.9052 H   0  0  0  0  0  0  0  0  0  0  0  0
    3.0850    1.6931   -0.9484 H   0  0  0  0  0  0  0  0  0  0  0  0
    4.7276    1.6512   -0.2341 H   0  0  0  0  0  0  0  0  0  0  0  0
    5.9493   -0.5003   -0.0344 H   0  0  0  0  0  0  0  0  0  0  0  0
    6.2620   -2.7884   -0.9354 H   0  0  0  0  0  0  0  0  0  0  0  0
    4.4561   -3.8714   -2.2447 H   0  0  0  0  0  0  0  0  0  0  0  0
    2.3191   -2.6664   -2.6433 H   0  0  0  0  0  0  0  0  0  0  0  0
    1.9834   -0.3933   -1.7523 H   0  0  0  0  0  0  0  0  0  0  0  0
    1.4059   -1.4854    2.6042 H   0  0  0  0  0  0  0  0  0  0  0  0
   -0.3300   -1.7484    2.2095 H   0  0  0  0  0  0  0  0  0  0  0  0
    2.5756   -3.7742    2.0569 H   0  0  0  0  0  0  0  0  0  0  0  0
   -0.6287   -2.7638   -2.0375 H   0  0  0  0  0  0  0  0  0  0  0  0
   -0.4710   -1.3473   -1.0075 H   0  0  0  0  0  0  0  0  0  0  0  0
   -2.0378   -3.5620    0.3102 H   0  0  0  0  0  0  0  0  0  0  0  0
   -2.7365   -3.1096   -1.2604 H   0  0  0  0  0  0  0  0  0  0  0  0
   -2.1160   -1.1770    1.0505 H   0  0  0  0  0  0  0  0  0  0  0  0
   -3.7127   -1.8600    0.7056 H   0  0  0  0  0  0  0  0  0  0  0  0
  1  2  1  0
  2  3  1  0
  3  4  1  0
  2  5  1  0
  5  6  1  0
  6  7  1  0
  7  8  1  0
  7  9  1  0
  9 10  1  0
 10 11  1  0
 11 12  1  0
 11 13  1  0
 13 14  2  0
 13 15  1  0
 15 16  1  0
 16 17  2  0
 17 18  1  0
 18 19  2  0
 19 20  1  0
 20 21  2  0
  9 22  1  0
 22 23  1  0
 23 24  1  0
 24 25  2  0
 25 26  1  0
 26 27  2  0
 27 28  1  0
 28 29  1  0
 29 30  1  0
 30 31  1  0
 31 32  1  0
 32 33  2  0
 32  5  1  0
 21 16  1  0
 28 24  1  0
  1 34  1  0
  1 35  1  0
  1 36  1  0
  2 37  1  1
  3 38  1  0
  3 39  1  0
  4 40  1  0
  6 41  1  0
  6 42  1  0
  7 43  1  6
  8 44  1  0
  8 45  1  0
  8 46  1  0
  9 47  1  1
 10 48  1  0
 10 49  1  0
 12 50  1  0
 12 51  1  0
 12 52  1  0
 15 53  1  0
 15 54  1  0
 17 55  1  0
 18 56  1  0
 19 57  1  0
 20 58  1  0
 21 59  1  0
 23 60  1  0
 23 61  1  0
 25 62  1  0
 29 63  1  0
 29 64  1  0
 30 65  1  0
 30 66  1  0
 31 67  1  0
 31 68  1  0
M  END
$$$$
