
     RDKit          3D

 71 75  0  0  0  0  0  0  0  0999 V2000
   -2.7875   -2.0699    1.9091 O   0  0  0  0  0  0  0  0  0  0  0  0
   -2.8624   -0.8606    1.5572 C   0  0  0  0  0  0  0  0  0  0  0  0
   -1.9363    0.1584    2.1756 C   0  0  0  0  0  0  0  0  0  0  0  0
   -0.5559    0.0968    1.6445 N   0  0  0  0  0  0  0  0  0  0  0  0
    0.2547   -0.9748    2.2612 C   0  0  0  0  0  0  0  0  0  0  0  0
    1.3676   -1.4606    1.3198 C   0  0  0  0  0  0  0  0  0  0  0  0
    1.9309   -0.3816    0.5957 O   0  0  0  0  0  0  0  0  0  0  0  0
    0.9988    0.2720   -0.2718 C   0  0  0  0  0  0  0  0  0  0  0  0
    1.3004    1.7930   -0.2130 C   0  0  0  0  0  0  0  0  0  0  0  0
    2.7018    2.1391   -0.6458 C   0  0  0  0  0  0  0  0  0  0  0  0
    3.7529    2.0268    0.1826 C   0  0  0  0  0  0  0  0  0  0  0  0
    5.1393    2.3985   -0.2710 C   0  0  0  0  0  0  0  0  0  0  0  0
    6.1684    1.3570    0.1076 C   0  0  0  0  0  0  0  0  0  0  0  0
    7.3599    1.7705    0.7303 C   0  0  0  0  0  0  0  0  0  0  0  0
    8.3881    0.8588    0.9750 C   0  0  0  0  0  0  0  0  0  0  0  0
    8.2490   -0.4721    0.5857 C   0  0  0  0  0  0  0  0  0  0  0  0
    7.0771   -0.9007   -0.0399 C   0  0  0  0  0  0  0  0  0  0  0  0
    6.0202    0.0025   -0.2757 C   0  0  0  0  0  0  0  0  0  0  0  0
    4.8143   -0.4106   -0.8661 O   0  0  0  0  0  0  0  0  0  0  0  0
    4.5996   -1.6616   -1.5188 C   0  0  0  0  0  0  0  0  0  0  0  0
    3.1128   -1.8565   -1.8238 C   0  0  0  0  0  0  0  0  0  0  0  0
    2.4761   -0.5976   -2.2086 N   0  0  0  0  0  0  0  0  0  0  0  0
    1.1872   -0.2064   -1.7103 C   0  0  0  0  0  0  0  0  0  0  0  0
    0.2343   -0.0954   -2.5298 O   0  0  0  0  0  0  0  0  0  0  0  0
   -0.4868    0.0687    0.1731 C   0  0  0  0  0  0  0  0  0  0  0  0
   -3.8157   -0.4540    0.5660 N   0  0  0  0  0  0  0  0  0  0  0  0
   -4.5101   -1.3878   -0.2748 C   0  0  0  0  0  0  0  0  0  0  0  0
   -3.9660   -2.5371   -0.8095 C   0  0  0  0  0  0  0  0  0  0  0  0
   -4.9825   -3.0621   -1.5831 C   0  0  0  0  0  0  0  0  0  0  0  0
   -6.0698   -2.2672   -1.5111 N   0  0  0  0  0  0  0  0  0  0  0  0
   -5.7847   -1.2485   -0.7138 N   0  0  0  0  0  0  0  0  0  0  0  0
   -6.7622   -0.1903   -0.4130 C   0  0  0  0  0  0  0  0  0  0  0  0
   -6.9151    0.0769    1.0925 C   0  0  0  0  0  0  0  0  0  0  0  0
   -6.6890    1.5712    1.2965 C   0  0  0  0  0  0  0  0  0  0  0  0
   -6.7876    2.2143   -0.0777 C   0  0  0  0  0  0  0  0  0  0  0  0
   -6.3946    1.1364   -1.0766 C   0  0  0  0  0  0  0  0  0  0  0  0
   -1.9276    0.0229    3.2795 H   0  0  0  0  0  0  0  0  0  0  0  0
   -2.3385    1.1786    1.9984 H   0  0  0  0  0  0  0  0  0  0  0  0
    0.7213   -0.5699    3.1847 H   0  0  0  0  0  0  0  0  0  0  0  0
   -0.3642   -1.8506    2.5516 H   0  0  0  0  0  0  0  0  0  0  0  0
    2.1675   -1.9477    1.9175 H   0  0  0  0  0  0  0  0  0  0  0  0
    0.9635   -2.2301    0.6255 H   0  0  0  0  0  0  0  0  0  0  0  0
    0.5974    2.3381   -0.8806 H   0  0  0  0  0  0  0  0  0  0  0  0
    1.1318    2.1758    0.8178 H   0  0  0  0  0  0  0  0  0  0  0  0
    2.8462    2.5003   -1.6608 H   0  0  0  0  0  0  0  0  0  0  0  0
    3.6053    1.7104    1.2122 H   0  0  0  0  0  0  0  0  0  0  0  0
    5.3861    3.3821    0.1843 H   0  0  0  0  0  0  0  0  0  0  0  0
    5.1771    2.5317   -1.3754 H   0  0  0  0  0  0  0  0  0  0  0  0
    7.5024    2.8053    1.0145 H   0  0  0  0  0  0  0  0  0  0  0  0
    9.3030    1.1892    1.4504 H   0  0  0  0  0  0  0  0  0  0  0  0
    9.0545   -1.1721    0.7647 H   0  0  0  0  0  0  0  0  0  0  0  0
    7.0061   -1.9384   -0.3305 H   0  0  0  0  0  0  0  0  0  0  0  0
    5.1869   -1.6897   -2.4611 H   0  0  0  0  0  0  0  0  0  0  0  0
    4.9151   -2.4981   -0.8628 H   0  0  0  0  0  0  0  0  0  0  0  0
    3.0002   -2.5924   -2.6492 H   0  0  0  0  0  0  0  0  0  0  0  0
    2.6173   -2.2933   -0.9384 H   0  0  0  0  0  0  0  0  0  0  0  0
    2.7983   -0.1573   -3.0999 H   0  0  0  0  0  0  0  0  0  0  0  0
   -0.8647   -0.9086   -0.2060 H   0  0  0  0  0  0  0  0  0  0  0  0
   -1.1410    0.8606   -0.2585 H   0  0  0  0  0  0  0  0  0  0  0  0
   -4.0330    0.5619    0.4789 H   0  0  0  0  0  0  0  0  0  0  0  0
   -2.9638   -2.9243   -0.6826 H   0  0  0  0  0  0  0  0  0  0  0  0
   -4.9303   -3.9681   -2.1712 H   0  0  0  0  0  0  0  0  0  0  0  0
   -7.7598   -0.4997   -0.8044 H   0  0  0  0  0  0  0  0  0  0  0  0
   -7.9465   -0.1886    1.4161 H   0  0  0  0  0  0  0  0  0  0  0  0
   -6.2074   -0.5155    1.7116 H   0  0  0  0  0  0  0  0  0  0  0  0
   -5.6768    1.7452    1.7197 H   0  0  0  0  0  0  0  0  0  0  0  0
   -7.4420    2.0008    1.9920 H   0  0  0  0  0  0  0  0  0  0  0  0
   -7.8395    2.5264   -0.2648 H   0  0  0  0  0  0  0  0  0  0  0  0
   -6.1228    3.1010   -0.1565 H   0  0  0  0  0  0  0  0  0  0  0  0
   -6.9443    1.2686   -2.0369 H   0  0  0  0  0  0  0  0  0  0  0  0
   -5.3051    1.1999   -1.2905 H   0  0  0  0  0  0  0  0  0  0  0  0
  1  2  2  0
  2  3  1  0
  3  4  1  0
  4  5  1  0
  5  6  1  0
  6  7  1  0
  7  8  1  0
  8  9  1  0
  9 10  1  0
 10 11  2  0
 11 12  1  0
 12 13  1  0
 13 14  2  0
 14 15  1  0
 15 16  2  0
 16 17  1  0
 17 18  2  0
 18 19  1  0
 19 20  1  0
 20 21  1  0
 21 22  1  0
 22 23  1  0
 23 24  2  0
  8 25  1  0
  2 26  1  0
 26 27  1  0
 27 28  2  0
 28 29  1  0
 29 30  2  0
 30 31  1  0
 31 32  1  0
 32 33  1  0
 33 34  1  0
 34 35  1  0
 35 36  1  0
 25  4  1  0
 31 27  1  0
 36 32  1  0
 23  8  1  0
 18 13  1  0
  3 37  1  0
  3 38  1  0
  5 39  1  0
  5 40  1  0
  6 41  1  0
  6 42  1  0
  9 43  1  0
  9 44  1  0
 10 45  1  0
 11 46  1  0
 12 47  1  0
 12 48  1  0
 14 49  1  0
 15 50  1  0
 16 51  1  0
 17 52  1  0
 20 53  1  0
 20 54  1  0
 21 55  1  0
 21 56  1  0
 22 57  1  0
 25 58  1  0
 25 59  1  0
 26 60  1  0
 28 61  1  0
 29 62  1  0
 32 63  1  0
 33 64  1  0
 33 65  1  0
 34 66  1  0
 34 67  1  0
 35 68  1  0
 35 69  1  0
 36 70  1  0
 36 71  1  0
M  END
$$$$
