
     RDKit          3D

 74 75  0  0  0  0  0  0  0  0999 V2000
    4.3599    0.4993    2.5575 C   0  0  0  0  0  0  0  0  0  0  0  0
    3.1620   -0.3831    2.3689 C   0  0  0  0  0  0  0  0  0  0  0  0
    3.0030   -1.3451    3.1721 O   0  0  0  0  0  0  0  0  0  0  0  0
    2.1997   -0.1657    1.3068 N   0  0  0  0  0  0  0  0  0  0  0  0
    1.1793   -1.2040    1.0500 C   0  0  0  0  0  0  0  0  0  0  0  0
    1.7871   -2.4805    0.4472 C   0  0  0  0  0  0  0  0  0  0  0  0
    0.7134   -3.5508    0.1808 C   0  0  0  0  0  0  0  0  0  0  0  0
   -0.0744   -3.2789   -1.1166 C   0  0  0  0  0  0  0  0  0  0  0  0
   -1.3505   -4.1330   -1.2342 C   0  0  0  0  0  0  0  0  0  0  0  0
   -2.4901   -3.6806   -0.3044 C   0  0  0  0  0  0  0  0  0  0  0  0
   -2.8395   -2.2817   -0.5483 N   0  0  0  0  0  0  0  0  0  0  0  0
   -2.5279   -1.2304    0.3804 C   0  0  0  0  0  0  0  0  0  0  0  0
   -2.1174   -1.5133    1.5392 O   0  0  0  0  0  0  0  0  0  0  0  0
   -2.7046    0.2219    0.0037 C   0  0  2  0  0  0  0  0  0  0  0  0
   -4.1813    0.5721   -0.2751 C   0  0  0  0  0  0  0  0  0  0  0  0
   -5.1377    0.2956    0.9099 C   0  0  0  0  0  0  0  0  0  0  0  0
   -6.5935    0.4470    0.4513 C   0  0  0  0  0  0  0  0  0  0  0  0
   -4.8683    1.2301    2.0985 C   0  0  0  0  0  0  0  0  0  0  0  0
   -1.8931    0.5344   -1.1790 N   0  0  0  0  0  0  0  0  0  0  0  0
   -1.4007    1.8455   -1.5195 C   0  0  0  0  0  0  0  0  0  0  0  0
   -1.0891    2.0723   -2.7198 O   0  0  0  0  0  0  0  0  0  0  0  0
   -1.1215    2.9144   -0.4817 C   0  0  2  0  0  0  0  0  0  0  0  0
   -1.4105    4.3136   -1.0385 C   0  0  0  0  0  0  0  0  0  0  0  0
    0.2777    2.8196   -0.0593 N   0  0  0  0  0  0  0  0  0  0  0  0
    0.7320    1.7576    0.7895 C   0  0  0  0  0  0  0  0  0  0  0  0
    0.0136    1.3996    1.7630 O   0  0  0  0  0  0  0  0  0  0  0  0
    2.1059    1.1384    0.6004 C   0  0  2  0  0  0  0  0  0  0  0  0
    2.4837    0.9642   -0.8940 C   0  0  0  0  0  0  0  0  0  0  0  0
    3.9800    0.9067   -1.0791 C   0  0  0  0  0  0  0  0  0  0  0  0
    4.6267   -0.3024   -1.3900 C   0  0  0  0  0  0  0  0  0  0  0  0
    6.0169   -0.3408   -1.5410 C   0  0  0  0  0  0  0  0  0  0  0  0
    6.7714    0.8242   -1.3834 C   0  0  0  0  0  0  0  0  0  0  0  0
    6.1367    2.0318   -1.0784 C   0  0  0  0  0  0  0  0  0  0  0  0
    4.7474    2.0753   -0.9294 C   0  0  0  0  0  0  0  0  0  0  0  0
    5.0459    0.0617    3.3111 H   0  0  0  0  0  0  0  0  0  0  0  0
    4.0438    1.4978    2.9218 H   0  0  0  0  0  0  0  0  0  0  0  0
    4.9147    0.5976    1.6030 H   0  0  0  0  0  0  0  0  0  0  0  0
    0.6587   -1.4481    2.0019 H   0  0  0  0  0  0  0  0  0  0  0  0
    0.4082   -0.8170    0.3554 H   0  0  0  0  0  0  0  0  0  0  0  0
    2.3163   -2.2462   -0.4977 H   0  0  0  0  0  0  0  0  0  0  0  0
    2.5305   -2.8999    1.1564 H   0  0  0  0  0  0  0  0  0  0  0  0
    0.0352   -3.6172    1.0579 H   0  0  0  0  0  0  0  0  0  0  0  0
    1.2163   -4.5399    0.0829 H   0  0  0  0  0  0  0  0  0  0  0  0
   -0.3345   -2.2079   -1.2182 H   0  0  0  0  0  0  0  0  0  0  0  0
    0.5862   -3.5222   -1.9780 H   0  0  0  0  0  0  0  0  0  0  0  0
   -1.7147   -4.0793   -2.2827 H   0  0  0  0  0  0  0  0  0  0  0  0
   -1.1049   -5.1966   -1.0223 H   0  0  0  0  0  0  0  0  0  0  0  0
   -2.2156   -3.8499    0.7585 H   0  0  0  0  0  0  0  0  0  0  0  0
   -3.3850   -4.3100   -0.5039 H   0  0  0  0  0  0  0  0  0  0  0  0
   -3.2624   -2.0407   -1.4741 H   0  0  0  0  0  0  0  0  0  0  0  0
   -2.3490    0.8180    0.8608 H   0  0  0  0  0  0  0  0  0  0  0  0
   -4.2490    1.6473   -0.5502 H   0  0  0  0  0  0  0  0  0  0  0  0
   -4.5205   -0.0060   -1.1625 H   0  0  0  0  0  0  0  0  0  0  0  0
   -5.0079   -0.7547    1.2531 H   0  0  0  0  0  0  0  0  0  0  0  0
   -7.2886    0.2423    1.2949 H   0  0  0  0  0  0  0  0  0  0  0  0
   -6.7801    1.4773    0.0740 H   0  0  0  0  0  0  0  0  0  0  0  0
   -6.8142   -0.2768   -0.3615 H   0  0  0  0  0  0  0  0  0  0  0  0
   -4.9346    2.2936    1.7875 H   0  0  0  0  0  0  0  0  0  0  0  0
   -5.6150    1.0529    2.9023 H   0  0  0  0  0  0  0  0  0  0  0  0
   -3.8684    1.0364    2.5333 H   0  0  0  0  0  0  0  0  0  0  0  0
   -1.8720   -0.1733   -1.9479 H   0  0  0  0  0  0  0  0  0  0  0  0
   -1.7835    2.8105    0.3995 H   0  0  0  0  0  0  0  0  0  0  0  0
   -2.4677    4.3798   -1.3748 H   0  0  0  0  0  0  0  0  0  0  0  0
   -1.2482    5.0717   -0.2458 H   0  0  0  0  0  0  0  0  0  0  0  0
   -0.7429    4.5478   -1.8948 H   0  0  0  0  0  0  0  0  0  0  0  0
    0.9849    3.4776   -0.4613 H   0  0  0  0  0  0  0  0  0  0  0  0
    2.7989    1.8780    1.0466 H   0  0  0  0  0  0  0  0  0  0  0  0
    2.1135    1.8089   -1.5090 H   0  0  0  0  0  0  0  0  0  0  0  0
    2.0016    0.0566   -1.3118 H   0  0  0  0  0  0  0  0  0  0  0  0
    4.0611   -1.2133   -1.5264 H   0  0  0  0  0  0  0  0  0  0  0  0
    6.5087   -1.2739   -1.7787 H   0  0  0  0  0  0  0  0  0  0  0  0
    7.8476    0.7929   -1.4966 H   0  0  0  0  0  0  0  0  0  0  0  0
    6.7220    2.9352   -0.9571 H   0  0  0  0  0  0  0  0  0  0  0  0
    4.2680    3.0160   -0.6934 H   0  0  0  0  0  0  0  0  0  0  0  0
  1  2  1  0
  2  3  2  0
  2  4  1  0
  4  5  1  0
  5  6  1  0
  6  7  1  0
  7  8  1  0
  8  9  1  0
  9 10  1  0
 10 11  1  0
 11 12  1  0
 12 13  2  0
 12 14  1  0
 14 15  1  0
 15 16  1  0
 16 17  1  0
 16 18  1  0
 14 19  1  0
 19 20  1  0
 20 21  2  0
 20 22  1  0
 22 23  1  0
 22 24  1  0
 24 25  1  0
 25 26  2  0
 25 27  1  0
 27 28  1  0
 28 29  1  0
 29 30  2  0
 30 31  1  0
 31 32  2  0
 32 33  1  0
 33 34  2  0
 27  4  1  0
 34 29  1  0
  1 35  1  0
  1 36  1  0
  1 37  1  0
  5 38  1  0
  5 39  1  0
  6 40  1  0
  6 41  1  0
  7 42  1  0
  7 43  1  0
  8 44  1  0
  8 45  1  0
  9 46  1  0
  9 47  1  0
 10 48  1  0
 10 49  1  0
 11 50  1  0
 14 51  1  1
 15 52  1  0
 15 53  1  0
 16 54  1  0
 17 55  1  0
 17 56  1  0
 17 57  1  0
 18 58  1  0
 18 59  1  0
 18 60  1  0
 19 61  1  0
 22 62  1  1
 23 63  1  0
 23 64  1  0
 23 65  1  0
 24 66  1  0
 27 67  1  1
 28 68  1  0
 28 69  1  0
 30 70  1  0
 31 71  1  0
 32 72  1  0
 33 73  1  0
 34 74  1  0
M  END
$$$$
