
     RDKit          3D

 74 76  0  0  0  0  0  0  0  0999 V2000
   -2.2270   -4.3947   -1.7694 C   0  0  0  0  0  0  0  0  0  0  0  0
   -2.7177   -3.1553   -1.0064 C   0  0  0  0  0  0  0  0  0  0  0  0
   -4.1542   -3.3953   -0.5175 C   0  0  0  0  0  0  0  0  0  0  0  0
   -1.7510   -2.8292    0.1615 C   0  0  0  0  0  0  0  0  0  0  0  0
   -1.8174   -1.3558    0.6416 C   0  0  0  0  0  0  0  0  0  0  0  0
   -0.5774   -1.0063    1.3491 N   0  0  0  0  0  0  0  0  0  0  0  0
    0.7057   -0.8373    0.7185 C   0  0  0  0  0  0  0  0  0  0  0  0
    1.7353   -0.8231    1.4449 O   0  0  0  0  0  0  0  0  0  0  0  0
    0.8780   -0.6522   -0.7739 C   0  0  0  0  0  0  0  0  0  0  0  0
    1.0802    0.8235   -1.1830 C   0  0  0  0  0  0  0  0  0  0  0  0
    2.2684    1.4191   -0.4616 C   0  0  0  0  0  0  0  0  0  0  0  0
    2.0956    2.1110    0.5799 O   0  0  0  0  0  0  0  0  0  0  0  0
    3.5946    1.1194   -0.9129 N   0  0  0  0  0  0  0  0  0  0  0  0
    4.7758    1.5139   -0.1451 C   0  0  0  0  0  0  0  0  0  0  0  0
    5.9957    0.6764   -0.5410 C   0  0  0  0  0  0  0  0  0  0  0  0
    5.7473   -0.7474   -0.3082 N   0  0  0  0  0  0  0  0  0  0  0  0
    5.7254   -1.7586   -1.3497 C   0  0  0  0  0  0  0  0  0  0  0  0
    5.4041   -3.0903   -0.6437 C   0  0  0  0  0  0  0  0  0  0  0  0
    5.4329   -2.8262    0.8701 C   0  0  0  0  0  0  0  0  0  0  0  0
    5.6221   -1.3655    0.9580 C   0  0  0  0  0  0  0  0  0  0  0  0
    5.6908   -0.7337    2.0459 O   0  0  0  0  0  0  0  0  0  0  0  0
   -0.1429    1.6076   -0.9642 N   0  0  0  0  0  0  0  0  0  0  0  0
   -0.1577    3.0327   -1.1232 C   0  0  0  0  0  0  0  0  0  0  0  0
    0.6014    3.5564   -1.9853 O   0  0  0  0  0  0  0  0  0  0  0  0
   -0.9804    3.9132   -0.2486 C   0  0  0  0  0  0  0  0  0  0  0  0
   -0.5436    5.2402   -0.0561 C   0  0  0  0  0  0  0  0  0  0  0  0
   -1.2577    6.1223    0.7526 C   0  0  0  0  0  0  0  0  0  0  0  0
   -2.4184    5.6981    1.3896 C   0  0  0  0  0  0  0  0  0  0  0  0
   -2.8756    4.3932    1.2124 C   0  0  0  0  0  0  0  0  0  0  0  0
   -2.1809    3.4898    0.3828 C   0  0  0  0  0  0  0  0  0  0  0  0
   -2.6793    2.1918    0.1868 O   0  0  0  0  0  0  0  0  0  0  0  0
   -4.0631    1.9137   -0.0374 C   0  0  0  0  0  0  0  0  0  0  0  0
   -4.3395    0.4083   -0.0071 C   0  0  0  0  0  0  0  0  0  0  0  0
   -4.0486   -0.1676    1.3190 N   0  0  0  0  0  0  0  0  0  0  0  0
   -4.9534    0.1582    2.4287 C   0  0  0  0  0  0  0  0  0  0  0  0
   -2.9991   -1.1371    1.5682 C   0  0  0  0  0  0  0  0  0  0  0  0
   -3.0408   -1.8193    2.6303 O   0  0  0  0  0  0  0  0  0  0  0  0
   -2.1970   -5.2808   -1.0994 H   0  0  0  0  0  0  0  0  0  0  0  0
   -1.2092   -4.2182   -2.1781 H   0  0  0  0  0  0  0  0  0  0  0  0
   -2.9003   -4.6125   -2.6256 H   0  0  0  0  0  0  0  0  0  0  0  0
   -2.7271   -2.3087   -1.7284 H   0  0  0  0  0  0  0  0  0  0  0  0
   -4.1802   -4.1963    0.2522 H   0  0  0  0  0  0  0  0  0  0  0  0
   -4.5897   -2.4719   -0.0918 H   0  0  0  0  0  0  0  0  0  0  0  0
   -4.8027   -3.6985   -1.3669 H   0  0  0  0  0  0  0  0  0  0  0  0
   -0.7138   -3.0298   -0.1821 H   0  0  0  0  0  0  0  0  0  0  0  0
   -1.9201   -3.5291    1.0095 H   0  0  0  0  0  0  0  0  0  0  0  0
   -1.8932   -0.6961   -0.2303 H   0  0  0  0  0  0  0  0  0  0  0  0
   -0.5878   -0.9735    2.3945 H   0  0  0  0  0  0  0  0  0  0  0  0
    1.7702   -1.2347   -1.0936 H   0  0  0  0  0  0  0  0  0  0  0  0
    0.0288   -1.0781   -1.3435 H   0  0  0  0  0  0  0  0  0  0  0  0
    1.2980    0.8386   -2.2735 H   0  0  0  0  0  0  0  0  0  0  0  0
    3.7077    0.5664   -1.7927 H   0  0  0  0  0  0  0  0  0  0  0  0
    4.5828    1.3820    0.9408 H   0  0  0  0  0  0  0  0  0  0  0  0
    4.9877    2.5888   -0.3300 H   0  0  0  0  0  0  0  0  0  0  0  0
    6.2281    0.8517   -1.6141 H   0  0  0  0  0  0  0  0  0  0  0  0
    6.8765    0.9987    0.0546 H   0  0  0  0  0  0  0  0  0  0  0  0
    4.9492   -1.5173   -2.1066 H   0  0  0  0  0  0  0  0  0  0  0  0
    6.7223   -1.8104   -1.8394 H   0  0  0  0  0  0  0  0  0  0  0  0
    4.3932   -3.4438   -0.9463 H   0  0  0  0  0  0  0  0  0  0  0  0
    6.1503   -3.8674   -0.9194 H   0  0  0  0  0  0  0  0  0  0  0  0
    4.4751   -3.1235    1.3491 H   0  0  0  0  0  0  0  0  0  0  0  0
    6.2881   -3.3493    1.3486 H   0  0  0  0  0  0  0  0  0  0  0  0
   -1.0480    1.1218   -1.1290 H   0  0  0  0  0  0  0  0  0  0  0  0
    0.3659    5.5971   -0.5248 H   0  0  0  0  0  0  0  0  0  0  0  0
   -0.9034    7.1357    0.8918 H   0  0  0  0  0  0  0  0  0  0  0  0
   -2.9647    6.3809    2.0264 H   0  0  0  0  0  0  0  0  0  0  0  0
   -3.7643    4.0912    1.7464 H   0  0  0  0  0  0  0  0  0  0  0  0
   -4.7006    2.4071    0.7211 H   0  0  0  0  0  0  0  0  0  0  0  0
   -4.3529    2.3138   -1.0327 H   0  0  0  0  0  0  0  0  0  0  0  0
   -5.4167    0.2498   -0.2342 H   0  0  0  0  0  0  0  0  0  0  0  0
   -3.8026   -0.0998   -0.8287 H   0  0  0  0  0  0  0  0  0  0  0  0
   -5.4393   -0.7668    2.8061 H   0  0  0  0  0  0  0  0  0  0  0  0
   -4.3785    0.6338    3.2514 H   0  0  0  0  0  0  0  0  0  0  0  0
   -5.7591    0.8551    2.1131 H   0  0  0  0  0  0  0  0  0  0  0  0
  1  2  1  0
  2  3  1  0
  2  4  1  0
  4  5  1  0
  5  6  1  0
  6  7  1  0
  7  8  2  0
  7  9  1  0
  9 10  1  0
 10 11  1  0
 11 12  2  0
 11 13  1  0
 13 14  1  0
 14 15  1  0
 15 16  1  0
 16 17  1  0
 17 18  1  0
 18 19  1  0
 19 20  1  0
 20 21  2  0
 10 22  1  0
 22 23  1  0
 23 24  2  0
 23 25  1  0
 25 26  2  0
 26 27  1  0
 27 28  2  0
 28 29  1  0
 29 30  2  0
 30 31  1  0
 31 32  1  0
 32 33  1  0
 33 34  1  0
 34 35  1  0
 34 36  1  0
 36 37  2  0
 36  5  1  0
 20 16  1  0
 30 25  1  0
  1 38  1  0
  1 39  1  0
  1 40  1  0
  2 41  1  0
  3 42  1  0
  3 43  1  0
  3 44  1  0
  4 45  1  0
  4 46  1  0
  5 47  1  0
  6 48  1  0
  9 49  1  0
  9 50  1  0
 10 51  1  0
 13 52  1  0
 14 53  1  0
 14 54  1  0
 15 55  1  0
 15 56  1  0
 17 57  1  0
 17 58  1  0
 18 59  1  0
 18 60  1  0
 19 61  1  0
 19 62  1  0
 22 63  1  0
 26 64  1  0
 27 65  1  0
 28 66  1  0
 29 67  1  0
 32 68  1  0
 32 69  1  0
 33 70  1  0
 33 71  1  0
 35 72  1  0
 35 73  1  0
 35 74  1  0
M  END
$$$$
