
     RDKit          3D

 87 91  0  0  0  0  0  0  0  0999 V2000
   -7.2963    0.3823   -0.5336 O   0  0  0  0  0  0  0  0  0  0  0  0
   -6.3142   -0.3600   -0.7984 C   0  0  0  0  0  0  0  0  0  0  0  0
   -5.0776    0.2594   -1.4280 C   0  0  0  0  0  0  0  0  0  0  0  0
   -4.0483    0.6887   -0.4407 N   0  0  0  0  0  0  0  0  0  0  0  0
   -4.5788    1.6574    0.5492 C   0  0  0  0  0  0  0  0  0  0  0  0
   -4.8709    2.9840   -0.1022 C   0  0  0  0  0  0  0  0  0  0  0  0
   -3.8522    3.6720   -0.7842 C   0  0  0  0  0  0  0  0  0  0  0  0
   -4.1191    4.9007   -1.3922 C   0  0  0  0  0  0  0  0  0  0  0  0
   -5.3994    5.4598   -1.3110 C   0  0  0  0  0  0  0  0  0  0  0  0
   -6.4165    4.7903   -0.6218 C   0  0  0  0  0  0  0  0  0  0  0  0
   -6.1560    3.5575   -0.0170 C   0  0  0  0  0  0  0  0  0  0  0  0
   -3.4438   -0.5002    0.1934 C   0  0  0  0  0  0  0  0  0  0  0  0
   -2.2882   -0.2202    1.1260 C   0  0  0  0  0  0  0  0  0  0  0  0
   -1.3965    0.8317    0.8513 C   0  0  0  0  0  0  0  0  0  0  0  0
   -0.3827    1.1673    1.7600 C   0  0  0  0  0  0  0  0  0  0  0  0
    0.4698    2.3862    1.5169 C   0  0  0  0  0  0  0  0  0  0  0  0
    1.6421    2.0964    0.5654 C   0  0  0  0  0  0  0  0  0  0  0  0
    2.7536    1.3069    1.2101 C   0  0  0  0  0  0  0  0  0  0  0  0
    3.0227    1.5003    2.4252 O   0  0  0  0  0  0  0  0  0  0  0  0
    3.5961    0.4370    0.4232 N   0  0  0  0  0  0  0  0  0  0  0  0
    4.4187   -0.5866    1.0812 C   0  0  0  0  0  0  0  0  0  0  0  0
    5.9001   -0.1524    1.1137 C   0  0  0  0  0  0  0  0  0  0  0  0
    6.2447    0.8564   -0.0146 C   0  0  0  0  0  0  0  0  0  0  0  0
    7.7622    0.9622   -0.2919 C   0  0  0  0  0  0  0  0  0  0  0  0
    8.3768   -0.2792   -0.8932 C   0  0  0  0  0  0  0  0  0  0  0  0
    9.0302   -1.2173   -0.0734 C   0  0  0  0  0  0  0  0  0  0  0  0
    9.6424   -2.3416   -0.6397 C   0  0  0  0  0  0  0  0  0  0  0  0
    9.6063   -2.5391   -2.0247 C   0  0  0  0  0  0  0  0  0  0  0  0
    8.9541   -1.6148   -2.8464 C   0  0  0  0  0  0  0  0  0  0  0  0
    8.3466   -0.4864   -2.2850 C   0  0  0  0  0  0  0  0  0  0  0  0
    5.4090    0.5717   -1.2830 C   0  0  0  0  0  0  0  0  0  0  0  0
    3.9064    0.7620   -0.9815 C   0  0  0  0  0  0  0  0  0  0  0  0
   -0.1985    0.3810    2.9067 C   0  0  0  0  0  0  0  0  0  0  0  0
   -1.0329   -0.7122    3.1532 C   0  0  0  0  0  0  0  0  0  0  0  0
   -2.0656   -1.0381    2.2660 C   0  0  0  0  0  0  0  0  0  0  0  0
   -2.8734   -2.1484    2.5747 O   0  0  0  0  0  0  0  0  0  0  0  0
   -3.0785   -3.2602    1.6946 C   0  0  0  0  0  0  0  0  0  0  0  0
   -4.5786   -3.6060    1.6269 C   0  0  0  0  0  0  0  0  0  0  0  0
   -4.9863   -4.4218    0.3820 C   0  0  0  0  0  0  0  0  0  0  0  0
   -4.8840   -3.6799   -0.9724 C   0  0  0  0  0  0  0  0  0  0  0  0
   -6.1136   -2.8370   -1.3627 C   0  0  0  0  0  0  0  0  0  0  0  0
   -6.3754   -1.7461   -0.4245 N   0  0  0  0  0  0  0  0  0  0  0  0
   -5.3884    1.1353   -2.0396 H   0  0  0  0  0  0  0  0  0  0  0  0
   -4.6284   -0.4550   -2.1521 H   0  0  0  0  0  0  0  0  0  0  0  0
   -5.4666    1.2511    1.0739 H   0  0  0  0  0  0  0  0  0  0  0  0
   -3.8347    1.8591    1.3445 H   0  0  0  0  0  0  0  0  0  0  0  0
   -2.8551    3.2551   -0.8492 H   0  0  0  0  0  0  0  0  0  0  0  0
   -3.3276    5.4279   -1.9162 H   0  0  0  0  0  0  0  0  0  0  0  0
   -5.5970    6.4160   -1.7744 H   0  0  0  0  0  0  0  0  0  0  0  0
   -7.4071    5.2272   -0.5553 H   0  0  0  0  0  0  0  0  0  0  0  0
   -6.9562    3.0481    0.5097 H   0  0  0  0  0  0  0  0  0  0  0  0
   -4.2286   -1.0232    0.7569 H   0  0  0  0  0  0  0  0  0  0  0  0
   -3.0339   -1.1544   -0.6017 H   0  0  0  0  0  0  0  0  0  0  0  0
   -1.5220    1.4259   -0.0446 H   0  0  0  0  0  0  0  0  0  0  0  0
    0.8361    2.8090    2.4782 H   0  0  0  0  0  0  0  0  0  0  0  0
   -0.1622    3.1792    1.0605 H   0  0  0  0  0  0  0  0  0  0  0  0
    2.0603    3.0665    0.2193 H   0  0  0  0  0  0  0  0  0  0  0  0
    1.2641    1.5552   -0.3298 H   0  0  0  0  0  0  0  0  0  0  0  0
    4.0557   -0.8005    2.1108 H   0  0  0  0  0  0  0  0  0  0  0  0
    4.3305   -1.5366    0.5043 H   0  0  0  0  0  0  0  0  0  0  0  0
    6.5211   -1.0705    1.0308 H   0  0  0  0  0  0  0  0  0  0  0  0
    6.1274    0.3170    2.0989 H   0  0  0  0  0  0  0  0  0  0  0  0
    5.9395    1.8659    0.3519 H   0  0  0  0  0  0  0  0  0  0  0  0
    8.2827    1.2091    0.6609 H   0  0  0  0  0  0  0  0  0  0  0  0
    7.9489    1.8265   -0.9699 H   0  0  0  0  0  0  0  0  0  0  0  0
    9.0729   -1.0764    0.9996 H   0  0  0  0  0  0  0  0  0  0  0  0
   10.1524   -3.0565   -0.0058 H   0  0  0  0  0  0  0  0  0  0  0  0
   10.0881   -3.4060   -2.4626 H   0  0  0  0  0  0  0  0  0  0  0  0
    8.9224   -1.7655   -3.9202 H   0  0  0  0  0  0  0  0  0  0  0  0
    7.8638    0.2361   -2.9338 H   0  0  0  0  0  0  0  0  0  0  0  0
    5.7065    1.2555   -2.1092 H   0  0  0  0  0  0  0  0  0  0  0  0
    5.5805   -0.4740   -1.6229 H   0  0  0  0  0  0  0  0  0  0  0  0
    3.2977    0.1212   -1.6546 H   0  0  0  0  0  0  0  0  0  0  0  0
    3.6555    1.8216   -1.1939 H   0  0  0  0  0  0  0  0  0  0  0  0
    0.5856    0.6169    3.6164 H   0  0  0  0  0  0  0  0  0  0  0  0
   -0.8773   -1.3128    4.0423 H   0  0  0  0  0  0  0  0  0  0  0  0
   -2.5247   -4.1367    2.0949 H   0  0  0  0  0  0  0  0  0  0  0  0
   -2.6429   -3.0529    0.6967 H   0  0  0  0  0  0  0  0  0  0  0  0
   -5.2038   -2.7004    1.7114 H   0  0  0  0  0  0  0  0  0  0  0  0
   -4.8210   -4.2102    2.5254 H   0  0  0  0  0  0  0  0  0  0  0  0
   -6.0278   -4.7854    0.5181 H   0  0  0  0  0  0  0  0  0  0  0  0
   -4.3442   -5.3277    0.3370 H   0  0  0  0  0  0  0  0  0  0  0  0
   -3.9684   -3.0739   -1.0439 H   0  0  0  0  0  0  0  0  0  0  0  0
   -4.7747   -4.4584   -1.7603 H   0  0  0  0  0  0  0  0  0  0  0  0
   -7.0096   -3.4976   -1.4062 H   0  0  0  0  0  0  0  0  0  0  0  0
   -5.9634   -2.4306   -2.3868 H   0  0  0  0  0  0  0  0  0  0  0  0
   -6.9804   -1.9836    0.3935 H   0  0  0  0  0  0  0  0  0  0  0  0
  1  2  2  0
  2  3  1  0
  3  4  1  0
  4  5  1  0
  5  6  1  0
  6  7  2  0
  7  8  1  0
  8  9  2  0
  9 10  1  0
 10 11  2  0
  4 12  1  0
 12 13  1  0
 13 14  2  0
 14 15  1  0
 15 16  1  0
 16 17  1  0
 17 18  1  0
 18 19  2  0
 18 20  1  0
 20 21  1  0
 21 22  1  0
 22 23  1  0
 23 24  1  0
 24 25  1  0
 25 26  2  0
 26 27  1  0
 27 28  2  0
 28 29  1  0
 29 30  2  0
 23 31  1  0
 31 32  1  0
 15 33  2  0
 33 34  1  0
 34 35  2  0
 35 36  1  0
 36 37  1  0
 37 38  1  0
 38 39  1  0
 39 40  1  0
 40 41  1  0
 41 42  1  0
 42  2  1  0
 11  6  1  0
 35 13  1  0
 32 20  1  0
 30 25  1  0
  3 43  1  0
  3 44  1  0
  5 45  1  0
  5 46  1  0
  7 47  1  0
  8 48  1  0
  9 49  1  0
 10 50  1  0
 11 51  1  0
 12 52  1  0
 12 53  1  0
 14 54  1  0
 16 55  1  0
 16 56  1  0
 17 57  1  0
 17 58  1  0
 21 59  1  0
 21 60  1  0
 22 61  1  0
 22 62  1  0
 23 63  1  0
 24 64  1  0
 24 65  1  0
 26 66  1  0
 27 67  1  0
 28 68  1  0
 29 69  1  0
 30 70  1  0
 31 71  1  0
 31 72  1  0
 32 73  1  0
 32 74  1  0
 33 75  1  0
 34 76  1  0
 37 77  1  0
 37 78  1  0
 38 79  1  0
 38 80  1  0
 39 81  1  0
 39 82  1  0
 40 83  1  0
 40 84  1  0
 41 85  1  0
 41 86  1  0
 42 87  1  0
M  END
$$$$
