
     RDKit          3D

 90 96  0  0  0  0  0  0  0  0999 V2000
   -8.7625    4.0031   -4.0969 C   0  0  0  0  0  0  0  0  0  0  0  0
   -7.3392    3.9090   -4.1821 O   0  0  0  0  0  0  0  0  0  0  0  0
   -6.5322    3.2080   -3.2730 C   0  0  0  0  0  0  0  0  0  0  0  0
   -5.1444    3.2188   -3.4725 C   0  0  0  0  0  0  0  0  0  0  0  0
   -4.2925    2.5411   -2.5980 C   0  0  0  0  0  0  0  0  0  0  0  0
   -4.8209    1.8389   -1.5046 C   0  0  0  0  0  0  0  0  0  0  0  0
   -4.0050    1.1529   -0.5929 C   0  0  0  0  0  0  0  0  0  0  0  0
   -2.6095    1.1985   -0.7347 O   0  0  0  0  0  0  0  0  0  0  0  0
   -1.6896    0.5200    0.1218 C   0  0  2  0  0  0  0  0  0  0  0  0
   -0.4168    1.3370    0.2652 C   0  0  0  0  0  0  0  0  0  0  0  0
    0.7012    0.3306    0.5401 C   0  0  1  0  0  0  0  0  0  0  0  0
    0.9824    0.2073    2.0366 C   0  0  0  0  0  0  0  0  0  0  0  0
    0.0156    0.0391    2.8291 O   0  0  0  0  0  0  0  0  0  0  0  0
    2.3197    0.2524    2.5853 N   0  0  0  0  0  0  0  0  0  0  0  0
    3.5510    0.0917    1.7996 C   0  0  2  0  0  0  0  0  0  0  0  0
    4.3701    1.3365    1.5488 C   0  0  0  0  0  0  0  0  0  0  0  0
    4.1720    2.3334    2.2933 O   0  0  0  0  0  0  0  0  0  0  0  0
    5.3561    1.4231    0.5082 N   0  0  0  0  0  0  0  0  0  0  0  0
    6.1216    2.9302    0.1157 S   0  0  0  0  0  6  0  0  0  0  0  0
    6.9411    2.7482   -1.1311 O   0  0  0  0  0  0  0  0  0  0  0  0
    5.0665    3.9649   -0.1532 O   0  0  0  0  0  0  0  0  0  0  0  0
    7.1496    3.4581    1.4848 C   0  0  0  0  0  0  0  0  0  0  0  0
    8.5513    2.8754    1.5016 C   0  0  0  0  0  0  0  0  0  0  0  0
    8.3349    4.3253    1.0914 C   0  0  0  0  0  0  0  0  0  0  0  0
    3.4408   -1.0011    0.7846 C   0  0  0  0  0  0  0  0  0  0  0  0
    4.2836   -1.2483    2.0277 C   0  0  1  0  0  0  0  0  0  0  0  0
    5.6450   -1.6301    1.5091 C   0  0  0  0  0  0  0  0  0  0  0  0
    5.8560   -2.7832    0.8292 C   0  0  0  0  0  0  0  0  0  0  0  0
    4.7740   -3.8158    0.5386 C   0  0  0  0  0  0  0  0  0  0  0  0
    4.2349   -3.7263   -0.9060 C   0  0  0  0  0  0  0  0  0  0  0  0
    2.9626   -4.5764   -1.1223 C   0  0  0  0  0  0  0  0  0  0  0  0
    1.6309   -3.8678   -0.7535 C   0  0  0  0  0  0  0  0  0  0  0  0
    1.2713   -2.7954   -1.7035 N   0  0  0  0  0  0  0  0  0  0  0  0
    1.0259   -3.1376   -3.1092 C   0  0  0  0  0  0  0  0  0  0  0  0
    1.0460   -1.4171   -1.3164 C   0  0  0  0  0  0  0  0  0  0  0  0
    1.4124   -0.5043   -2.1097 O   0  0  0  0  0  0  0  0  0  0  0  0
    0.2211   -1.0178   -0.0934 C   0  0  2  0  0  0  0  0  0  0  0  0
   -1.2536   -0.8116   -0.4845 C   0  0  0  0  0  0  0  0  0  0  0  0
   -4.5812    0.4737    0.4385 N   0  0  0  0  0  0  0  0  0  0  0  0
   -5.9326    0.4549    0.6192 C   0  0  0  0  0  0  0  0  0  0  0  0
   -6.5308   -0.2874    1.7556 C   0  0  0  0  0  0  0  0  0  0  0  0
   -7.9231   -0.2626    1.9719 C   0  0  0  0  0  0  0  0  0  0  0  0
   -8.4867   -0.9616    3.0431 C   0  0  0  0  0  0  0  0  0  0  0  0
   -7.6722   -1.6966    3.9076 C   0  0  0  0  0  0  0  0  0  0  0  0
   -6.2907   -1.7323    3.7040 C   0  0  0  0  0  0  0  0  0  0  0  0
   -5.7200   -1.0304    2.6363 C   0  0  0  0  0  0  0  0  0  0  0  0
   -6.7331    1.1297   -0.2506 N   0  0  0  0  0  0  0  0  0  0  0  0
   -6.2158    1.8146   -1.3021 C   0  0  0  0  0  0  0  0  0  0  0  0
   -7.0661    2.4986   -2.1790 C   0  0  0  0  0  0  0  0  0  0  0  0
   -9.1390    4.6209   -4.9385 H   0  0  0  0  0  0  0  0  0  0  0  0
   -9.2172    2.9904   -4.1705 H   0  0  0  0  0  0  0  0  0  0  0  0
   -9.0577    4.4866   -3.1382 H   0  0  0  0  0  0  0  0  0  0  0  0
   -4.7245    3.7569   -4.3126 H   0  0  0  0  0  0  0  0  0  0  0  0
   -3.2250    2.5653   -2.7796 H   0  0  0  0  0  0  0  0  0  0  0  0
   -2.1245    0.3630    1.1356 H   0  0  0  0  0  0  0  0  0  0  0  0
   -0.2050    1.8632   -0.6948 H   0  0  0  0  0  0  0  0  0  0  0  0
   -0.5129    2.1060    1.0640 H   0  0  0  0  0  0  0  0  0  0  0  0
    1.6135    0.7267    0.0443 H   0  0  0  0  0  0  0  0  0  0  0  0
    2.4171    0.2946    3.6246 H   0  0  0  0  0  0  0  0  0  0  0  0
    5.6323    0.5908   -0.0585 H   0  0  0  0  0  0  0  0  0  0  0  0
    6.6997    3.6670    2.4776 H   0  0  0  0  0  0  0  0  0  0  0  0
    8.9947    2.7608    2.5141 H   0  0  0  0  0  0  0  0  0  0  0  0
    8.8106    2.2032    0.6565 H   0  0  0  0  0  0  0  0  0  0  0  0
    8.6482    5.0570    1.8657 H   0  0  0  0  0  0  0  0  0  0  0  0
    8.4748    4.5166    0.0050 H   0  0  0  0  0  0  0  0  0  0  0  0
    2.5582   -1.6416    0.8336 H   0  0  0  0  0  0  0  0  0  0  0  0
    3.9219   -0.7454   -0.1791 H   0  0  0  0  0  0  0  0  0  0  0  0
    3.8020   -1.9481    2.7435 H   0  0  0  0  0  0  0  0  0  0  0  0
    6.4817   -0.9672    1.7020 H   0  0  0  0  0  0  0  0  0  0  0  0
    6.8584   -2.9892    0.4638 H   0  0  0  0  0  0  0  0  0  0  0  0
    5.2178   -4.8240    0.6876 H   0  0  0  0  0  0  0  0  0  0  0  0
    3.9436   -3.7439    1.2678 H   0  0  0  0  0  0  0  0  0  0  0  0
    4.0461   -2.6844   -1.2224 H   0  0  0  0  0  0  0  0  0  0  0  0
    5.0288   -4.1106   -1.5828 H   0  0  0  0  0  0  0  0  0  0  0  0
    2.9328   -4.8952   -2.1863 H   0  0  0  0  0  0  0  0  0  0  0  0
    3.0433   -5.5131   -0.5273 H   0  0  0  0  0  0  0  0  0  0  0  0
    1.6834   -3.5108    0.2890 H   0  0  0  0  0  0  0  0  0  0  0  0
    0.8197   -4.6246   -0.7726 H   0  0  0  0  0  0  0  0  0  0  0  0
    1.7851   -2.6447   -3.7586 H   0  0  0  0  0  0  0  0  0  0  0  0
    0.0127   -2.7912   -3.4063 H   0  0  0  0  0  0  0  0  0  0  0  0
    1.0575   -4.2344   -3.2774 H   0  0  0  0  0  0  0  0  0  0  0  0
    0.2565   -1.8285    0.6653 H   0  0  0  0  0  0  0  0  0  0  0  0
   -1.8884   -1.6368   -0.0877 H   0  0  0  0  0  0  0  0  0  0  0  0
   -1.3746   -0.7745   -1.5914 H   0  0  0  0  0  0  0  0  0  0  0  0
   -8.5773    0.2992    1.3169 H   0  0  0  0  0  0  0  0  0  0  0  0
   -9.5572   -0.9310    3.2039 H   0  0  0  0  0  0  0  0  0  0  0  0
   -8.1140   -2.2411    4.7319 H   0  0  0  0  0  0  0  0  0  0  0  0
   -5.6611   -2.3003    4.3782 H   0  0  0  0  0  0  0  0  0  0  0  0
   -4.6466   -1.0738    2.4996 H   0  0  0  0  0  0  0  0  0  0  0  0
   -8.1343    2.4745   -2.0023 H   0  0  0  0  0  0  0  0  0  0  0  0
  1  2  1  0
  2  3  1  0
  3  4  2  0
  4  5  1  0
  5  6  2  0
  6  7  1  0
  7  8  1  0
  8  9  1  0
  9 10  1  0
 10 11  1  0
 11 12  1  0
 12 13  2  0
 12 14  1  0
 14 15  1  0
 15 16  1  6
 16 17  2  0
 16 18  1  0
 18 19  1  0
 19 20  2  0
 19 21  2  0
 19 22  1  0
 22 23  1  0
 23 24  1  0
 15 25  1  0
 25 26  1  0
 26 27  1  0
 27 28  2  0
 28 29  1  0
 29 30  1  0
 30 31  1  0
 31 32  1  0
 32 33  1  0
 33 34  1  0
 33 35  1  0
 35 36  2  0
 35 37  1  0
 37 38  1  0
  7 39  2  0
 39 40  1  0
 40 41  1  0
 41 42  2  0
 42 43  1  0
 43 44  2  0
 44 45  1  0
 45 46  2  0
 40 47  2  0
 47 48  1  0
 48 49  2  0
 49  3  1  0
 48  6  1  0
 38  9  1  0
 46 41  1  0
 37 11  1  0
 26 15  1  0
 24 22  1  0
  1 50  1  0
  1 51  1  0
  1 52  1  0
  4 53  1  0
  5 54  1  0
  9 55  1  1
 10 56  1  0
 10 57  1  0
 11 58  1  6
 14 59  1  0
 18 60  1  0
 22 61  1  0
 23 62  1  0
 23 63  1  0
 24 64  1  0
 24 65  1  0
 25 66  1  0
 25 67  1  0
 26 68  1  1
 27 69  1  0
 28 70  1  0
 29 71  1  0
 29 72  1  0
 30 73  1  0
 30 74  1  0
 31 75  1  0
 31 76  1  0
 32 77  1  0
 32 78  1  0
 34 79  1  0
 34 80  1  0
 34 81  1  0
 37 82  1  1
 38 83  1  0
 38 84  1  0
 42 85  1  0
 43 86  1  0
 44 87  1  0
 45 88  1  0
 46 89  1  0
 49 90  1  0
M  END
$$$$
