
     RDKit          3D

 62 64  0  0  0  0  0  0  0  0999 V2000
    4.9323    1.5865    0.0969 C   0  0  0  0  0  0  0  0  0  0  0  0
    4.3431    0.7777   -0.8950 O   0  0  0  0  0  0  0  0  0  0  0  0
    3.0534    1.2584   -1.2442 C   0  0  1  0  0  0  0  0  0  0  0  0
    2.9267    1.3289   -2.7705 C   0  0  0  0  0  0  0  0  0  0  0  0
    1.5549    1.9080   -3.1687 C   0  0  0  0  0  0  0  0  0  0  0  0
    0.4908    1.6063   -2.0846 C   0  0  1  0  0  0  0  0  0  0  0  0
   -0.9354    1.6149   -2.6647 C   0  0  0  0  0  0  0  0  0  0  0  0
   -1.9593    1.1201   -1.6379 C   0  0  0  0  0  0  0  0  0  0  0  0
   -1.8543    1.8995   -0.4496 O   0  0  0  0  0  0  0  0  0  0  0  0
   -2.4137    1.6566    0.8236 C   0  0  0  0  0  0  0  0  0  0  0  0
   -2.2104    2.6634    1.7958 C   0  0  0  0  0  0  0  0  0  0  0  0
   -1.4590    3.8534    1.4710 C   0  0  0  0  0  0  0  0  0  0  0  0
   -0.8539    4.8076    1.2162 N   0  0  0  0  0  0  0  0  0  0  0  0
   -2.7126    2.5218    3.0925 C   0  0  0  0  0  0  0  0  0  0  0  0
   -3.4215    1.3787    3.4442 C   0  0  0  0  0  0  0  0  0  0  0  0
   -3.6246    0.3669    2.5118 C   0  0  0  0  0  0  0  0  0  0  0  0
   -3.1293    0.4794    1.2002 C   0  0  0  0  0  0  0  0  0  0  0  0
   -3.4165   -0.6491    0.2952 C   0  0  0  0  0  0  0  0  0  0  0  0
   -4.2572   -0.4735   -0.6319 O   0  0  0  0  0  0  0  0  0  0  0  0
   -2.8845   -1.9703    0.5383 N   0  0  0  0  0  0  0  0  0  0  0  0
   -3.5995   -3.1182   -0.0291 C   0  0  0  0  0  0  0  0  0  0  0  0
   -1.6893   -2.1964    1.3763 C   0  0  0  0  0  0  0  0  0  0  0  0
   -0.3886   -2.2727    0.5359 C   0  0  2  0  0  0  0  0  0  0  0  0
   -0.3050   -3.5960   -0.2355 C   0  0  0  0  0  0  0  0  0  0  0  0
    0.8395   -2.1245    1.4181 C   0  0  0  0  0  0  0  0  0  0  0  0
    0.7780   -2.5490    2.6114 O   0  0  0  0  0  0  0  0  0  0  0  0
    2.0818   -1.5454    0.9460 N   0  0  0  0  0  0  0  0  0  0  0  0
    3.1739   -1.3623    1.9099 C   0  0  0  0  0  0  0  0  0  0  0  0
    2.3052   -1.1267   -0.4482 C   0  0  0  0  0  0  0  0  0  0  0  0
    1.9013    0.3565   -0.6669 C   0  0  2  0  0  0  0  0  0  0  0  0
    0.7488    0.3438   -1.5050 O   0  0  0  0  0  0  0  0  0  0  0  0
    5.8707    1.1006    0.4328 H   0  0  0  0  0  0  0  0  0  0  0  0
    5.1928    2.5820   -0.3226 H   0  0  0  0  0  0  0  0  0  0  0  0
    4.2686    1.6967    0.9848 H   0  0  0  0  0  0  0  0  0  0  0  0
    2.8806    2.3075   -0.8861 H   0  0  0  0  0  0  0  0  0  0  0  0
    3.7396    1.9619   -3.1898 H   0  0  0  0  0  0  0  0  0  0  0  0
    3.0317    0.3078   -3.1949 H   0  0  0  0  0  0  0  0  0  0  0  0
    1.6380    3.0147   -3.2869 H   0  0  0  0  0  0  0  0  0  0  0  0
    1.2614    1.4818   -4.1593 H   0  0  0  0  0  0  0  0  0  0  0  0
    0.5348    2.4030   -1.3035 H   0  0  0  0  0  0  0  0  0  0  0  0
   -0.9872    0.9532   -3.5544 H   0  0  0  0  0  0  0  0  0  0  0  0
   -1.2044    2.6473   -2.9861 H   0  0  0  0  0  0  0  0  0  0  0  0
   -2.9826    1.2226   -2.0593 H   0  0  0  0  0  0  0  0  0  0  0  0
   -1.7395    0.0540   -1.4331 H   0  0  0  0  0  0  0  0  0  0  0  0
   -2.5504    3.2940    3.8347 H   0  0  0  0  0  0  0  0  0  0  0  0
   -3.8098    1.2667    4.4443 H   0  0  0  0  0  0  0  0  0  0  0  0
   -4.1774   -0.5145    2.8255 H   0  0  0  0  0  0  0  0  0  0  0  0
   -3.1898   -4.0798    0.3444 H   0  0  0  0  0  0  0  0  0  0  0  0
   -4.6686   -3.0737    0.2522 H   0  0  0  0  0  0  0  0  0  0  0  0
   -3.5257   -3.0975   -1.1373 H   0  0  0  0  0  0  0  0  0  0  0  0
   -1.5924   -1.3892    2.1333 H   0  0  0  0  0  0  0  0  0  0  0  0
   -1.8110   -3.1333    1.9664 H   0  0  0  0  0  0  0  0  0  0  0  0
   -0.4183   -1.4395   -0.1838 H   0  0  0  0  0  0  0  0  0  0  0  0
   -0.4078   -4.4637    0.4517 H   0  0  0  0  0  0  0  0  0  0  0  0
   -1.1152   -3.6592   -0.9937 H   0  0  0  0  0  0  0  0  0  0  0  0
    0.6622   -3.6998   -0.7719 H   0  0  0  0  0  0  0  0  0  0  0  0
    3.5140   -2.3522    2.2741 H   0  0  0  0  0  0  0  0  0  0  0  0
    2.8234   -0.7555    2.7676 H   0  0  0  0  0  0  0  0  0  0  0  0
    4.0448   -0.8521    1.4502 H   0  0  0  0  0  0  0  0  0  0  0  0
    1.7407   -1.7766   -1.1421 H   0  0  0  0  0  0  0  0  0  0  0  0
    3.3588   -1.3350   -0.7273 H   0  0  0  0  0  0  0  0  0  0  0  0
    1.6028    0.7833    0.3186 H   0  0  0  0  0  0  0  0  0  0  0  0
  1  2  1  0
  2  3  1  0
  3  4  1  0
  4  5  1  0
  5  6  1  0
  6  7  1  0
  7  8  1  0
  8  9  1  0
  9 10  1  0
 10 11  2  0
 11 12  1  0
 12 13  3  0
 11 14  1  0
 14 15  2  0
 15 16  1  0
 16 17  2  0
 17 18  1  0
 18 19  2  0
 18 20  1  0
 20 21  1  0
 20 22  1  0
 22 23  1  0
 23 24  1  0
 23 25  1  0
 25 26  2  0
 25 27  1  0
 27 28  1  0
 27 29  1  0
 29 30  1  0
 30 31  1  0
 30  3  1  0
 31  6  1  0
 17 10  1  0
  1 32  1  0
  1 33  1  0
  1 34  1  0
  3 35  1  1
  4 36  1  0
  4 37  1  0
  5 38  1  0
  5 39  1  0
  6 40  1  1
  7 41  1  0
  7 42  1  0
  8 43  1  0
  8 44  1  0
 14 45  1  0
 15 46  1  0
 16 47  1  0
 21 48  1  0
 21 49  1  0
 21 50  1  0
 22 51  1  0
 22 52  1  0
 23 53  1  6
 24 54  1  0
 24 55  1  0
 24 56  1  0
 28 57  1  0
 28 58  1  0
 28 59  1  0
 29 60  1  0
 29 61  1  0
 30 62  1  1
M  END
$$$$
