
     RDKit          3D

 59 62  0  0  0  0  0  0  0  0999 V2000
    0.0591   -3.4494    0.2516 C   0  0  0  0  0  0  0  0  0  0  0  0
   -0.6690   -2.1880    0.1067 N   0  0  0  0  0  0  0  0  0  0  0  0
   -2.1036   -2.1923   -0.2102 C   0  0  0  0  0  0  0  0  0  0  0  0
   -2.9616   -1.7158    0.9759 C   0  0  0  0  0  0  0  0  0  0  0  0
   -2.9043   -0.2842    1.0847 O   0  0  0  0  0  0  0  0  0  0  0  0
   -3.9804    0.6311    1.0899 C   0  0  0  0  0  0  0  0  0  0  0  0
   -5.3168    0.2546    0.8157 C   0  0  0  0  0  0  0  0  0  0  0  0
   -6.3441    1.1991    0.8704 C   0  0  0  0  0  0  0  0  0  0  0  0
   -6.0580    2.5301    1.1699 C   0  0  0  0  0  0  0  0  0  0  0  0
   -4.7394    2.9287    1.4086 C   0  0  0  0  0  0  0  0  0  0  0  0
   -3.6964    1.9877    1.3761 C   0  0  0  0  0  0  0  0  0  0  0  0
   -2.2804    2.4597    1.6114 C   0  0  0  0  0  0  0  0  0  0  0  0
   -1.6339    2.9918    0.3174 C   0  0  0  0  0  0  0  0  0  0  0  0
   -1.0769    1.8754   -0.5863 C   0  0  0  0  0  0  0  0  0  0  0  0
    0.3423    1.4215   -0.1540 C   0  0  0  0  0  0  0  0  0  0  0  0
    0.6610   -0.0667   -0.4962 C   0  0  0  0  0  0  0  0  0  0  0  0
    2.2074   -0.2917   -0.3666 C   0  0  0  0  0  0  0  0  0  0  0  0
    2.9075    0.3200   -1.4984 N   0  0  0  0  0  0  0  0  0  0  0  0
    4.2860    0.7656   -1.3810 C   0  0  0  0  0  0  0  0  0  0  0  0
    4.5983    1.8836   -1.8361 O   0  0  0  0  0  0  0  0  0  0  0  0
    5.2578    0.1084   -0.5155 C   0  0  0  0  0  0  0  0  0  0  0  0
    5.3240   -0.9102   -1.6367 C   0  0  0  0  0  0  0  0  0  0  0  0
    6.0871   -2.0497   -1.6088 N   0  0  0  0  0  0  0  0  0  0  0  0
    6.8924   -2.3898   -0.5825 C   0  0  0  0  0  0  0  0  0  0  0  0
    6.9422   -1.5361    0.4681 C   0  0  0  0  0  0  0  0  0  0  0  0
    6.2127   -0.3916    0.3844 N   0  0  0  0  0  0  0  0  0  0  0  0
    2.2207    0.3889   -2.7944 C   0  0  0  0  0  0  0  0  0  0  0  0
    1.0771   -0.6253   -2.7981 C   0  0  0  0  0  0  0  0  0  0  0  0
    0.1200   -0.3498   -1.7924 O   0  0  0  0  0  0  0  0  0  0  0  0
   -0.0184   -0.9738    0.5160 C   0  0  0  0  0  0  0  0  0  0  0  0
    0.0652   -0.7160    1.7464 O   0  0  0  0  0  0  0  0  0  0  0  0
   -0.0290   -3.8154    1.3004 H   0  0  0  0  0  0  0  0  0  0  0  0
   -0.3437   -4.2169   -0.4452 H   0  0  0  0  0  0  0  0  0  0  0  0
    1.1333   -3.3138    0.0147 H   0  0  0  0  0  0  0  0  0  0  0  0
   -2.4314   -3.2215   -0.4761 H   0  0  0  0  0  0  0  0  0  0  0  0
   -2.2804   -1.5594   -1.0954 H   0  0  0  0  0  0  0  0  0  0  0  0
   -2.5796   -2.1491    1.9250 H   0  0  0  0  0  0  0  0  0  0  0  0
   -3.9930   -2.1035    0.8449 H   0  0  0  0  0  0  0  0  0  0  0  0
   -5.5939   -0.7485    0.5380 H   0  0  0  0  0  0  0  0  0  0  0  0
   -7.3679    0.8991    0.6734 H   0  0  0  0  0  0  0  0  0  0  0  0
   -6.8595    3.2544    1.2071 H   0  0  0  0  0  0  0  0  0  0  0  0
   -4.5312    3.9685    1.6282 H   0  0  0  0  0  0  0  0  0  0  0  0
   -1.6575    1.6628    2.0554 H   0  0  0  0  0  0  0  0  0  0  0  0
   -2.3024    3.2883    2.3538 H   0  0  0  0  0  0  0  0  0  0  0  0
   -0.8143    3.6842    0.5890 H   0  0  0  0  0  0  0  0  0  0  0  0
   -2.3735    3.5950   -0.2490 H   0  0  0  0  0  0  0  0  0  0  0  0
   -1.0024    2.2759   -1.6060 H   0  0  0  0  0  0  0  0  0  0  0  0
   -1.8007    1.0453   -0.6403 H   0  0  0  0  0  0  0  0  0  0  0  0
    1.0774    2.0936   -0.6563 H   0  0  0  0  0  0  0  0  0  0  0  0
    0.4908    1.6014    0.9354 H   0  0  0  0  0  0  0  0  0  0  0  0
    2.4498   -1.3767   -0.3577 H   0  0  0  0  0  0  0  0  0  0  0  0
    2.5708    0.1485    0.5890 H   0  0  0  0  0  0  0  0  0  0  0  0
    4.8539   -0.9365   -2.6394 H   0  0  0  0  0  0  0  0  0  0  0  0
    7.5117   -3.3027   -0.6179 H   0  0  0  0  0  0  0  0  0  0  0  0
    7.6078   -1.6987    1.2992 H   0  0  0  0  0  0  0  0  0  0  0  0
    1.8118    1.4140   -2.9584 H   0  0  0  0  0  0  0  0  0  0  0  0
    2.9260    0.1462   -3.6330 H   0  0  0  0  0  0  0  0  0  0  0  0
    1.4774   -1.6567   -2.6715 H   0  0  0  0  0  0  0  0  0  0  0  0
    0.5724   -0.5932   -3.7802 H   0  0  0  0  0  0  0  0  0  0  0  0
  1  2  1  0
  2  3  1  0
  3  4  1  0
  4  5  1  0
  5  6  1  0
  6  7  2  0
  7  8  1  0
  8  9  2  0
  9 10  1  0
 10 11  2  0
 11 12  1  0
 12 13  1  0
 13 14  1  0
 14 15  1  0
 15 16  1  0
 16 17  1  0
 17 18  1  0
 18 19  1  0
 19 20  2  0
 19 21  1  0
 21 22  2  0
 22 23  1  0
 23 24  2  0
 24 25  1  0
 25 26  2  0
 18 27  1  0
 27 28  1  0
 28 29  1  0
 16 30  1  0
 30 31  2  0
 30  2  1  0
 11  6  1  0
 29 16  1  0
 26 21  1  0
  1 32  1  0
  1 33  1  0
  1 34  1  0
  3 35  1  0
  3 36  1  0
  4 37  1  0
  4 38  1  0
  7 39  1  0
  8 40  1  0
  9 41  1  0
 10 42  1  0
 12 43  1  0
 12 44  1  0
 13 45  1  0
 13 46  1  0
 14 47  1  0
 14 48  1  0
 15 49  1  0
 15 50  1  0
 17 51  1  0
 17 52  1  0
 22 53  1  0
 24 54  1  0
 25 55  1  0
 27 56  1  0
 27 57  1  0
 28 58  1  0
 28 59  1  0
M  END
$$$$
