
     RDKit          3D

 68 69  0  0  0  0  0  0  0  0999 V2000
   -1.2101    4.7878   -0.2163 C   0  0  0  0  0  0  0  0  0  0  0  0
   -1.4562    3.4980   -0.7318 O   0  0  0  0  0  0  0  0  0  0  0  0
   -1.4766    2.5286    0.3083 C   0  0  2  0  0  0  0  0  0  0  0  0
   -0.0768    1.8581    0.4197 C   0  0  0  0  0  0  0  0  0  0  0  0
    0.4131    1.3282   -0.8655 N   0  0  0  0  0  0  0  0  0  0  0  0
    0.8426    2.2254   -1.9428 C   0  0  0  0  0  0  0  0  0  0  0  0
    0.6469   -0.0756   -1.0503 C   0  0  0  0  0  0  0  0  0  0  0  0
    0.1175   -0.6719   -2.0256 O   0  0  0  0  0  0  0  0  0  0  0  0
    1.5814   -0.8143   -0.1794 C   0  0  0  0  0  0  0  0  0  0  0  0
    2.9446   -0.8514   -0.5015 C   0  0  0  0  0  0  0  0  0  0  0  0
    3.8432   -1.6033    0.2803 C   0  0  0  0  0  0  0  0  0  0  0  0
    5.2539   -1.6561   -0.0079 N   0  0  0  0  0  0  0  0  0  0  0  0
    6.0270   -0.7994   -1.3036 S   0  0  0  0  0  6  0  0  0  0  0  0
    5.3569   -1.1417   -2.6052 O   0  0  0  0  0  0  0  0  0  0  0  0
    7.4641   -1.2307   -1.3733 O   0  0  0  0  0  0  0  0  0  0  0  0
    5.9661    0.9636   -0.9921 C   0  0  0  0  0  0  0  0  0  0  0  0
    6.5280    1.7724   -2.1624 C   0  0  0  0  0  0  0  0  0  0  0  0
    7.8546    1.4450   -2.3783 F   0  0  0  0  0  0  0  0  0  0  0  0
    6.4420    3.1211   -1.8699 F   0  0  0  0  0  0  0  0  0  0  0  0
    5.8025    1.5214   -3.3134 F   0  0  0  0  0  0  0  0  0  0  0  0
    3.3463   -2.3330    1.3724 C   0  0  0  0  0  0  0  0  0  0  0  0
    1.9843   -2.3160    1.6837 C   0  0  0  0  0  0  0  0  0  0  0  0
    1.0972   -1.5481    0.9114 C   0  0  0  0  0  0  0  0  0  0  0  0
   -0.2649   -1.4511    1.1946 O   0  0  0  0  0  0  0  0  0  0  0  0
   -1.0255   -2.2599    2.0803 C   0  0  0  0  0  0  0  0  0  0  0  0
   -2.3682   -1.5539    2.3189 C   0  0  2  0  0  0  0  0  0  0  0  0
   -3.4241   -2.5275    2.8727 C   0  0  0  0  0  0  0  0  0  0  0  0
   -2.7676   -0.7966    1.0863 N   0  0  0  0  0  0  0  0  0  0  0  0
   -3.7850   -1.4112    0.1973 C   0  0  0  0  0  0  0  0  0  0  0  0
   -3.1494   -2.4984   -0.6823 C   0  0  0  0  0  0  0  0  0  0  0  0
   -4.1300   -3.0489   -1.7204 C   0  0  0  0  0  0  0  0  0  0  0  0
   -4.5859   -2.0345   -2.5484 F   0  0  0  0  0  0  0  0  0  0  0  0
   -5.2104   -3.6392   -1.0874 F   0  0  0  0  0  0  0  0  0  0  0  0
   -3.4884   -3.9998   -2.4939 F   0  0  0  0  0  0  0  0  0  0  0  0
   -2.9845    0.6536    1.3173 C   0  0  0  0  0  0  0  0  0  0  0  0
   -2.6277    1.4997    0.0473 C   0  0  1  0  0  0  0  0  0  0  0  0
   -3.8922    2.2329   -0.4509 C   0  0  0  0  0  0  0  0  0  0  0  0
   -2.0608    5.1280    0.4141 H   0  0  0  0  0  0  0  0  0  0  0  0
   -0.2615    4.8192    0.3624 H   0  0  0  0  0  0  0  0  0  0  0  0
   -1.1102    5.4954   -1.0642 H   0  0  0  0  0  0  0  0  0  0  0  0
   -1.6970    2.9969    1.3001 H   0  0  0  0  0  0  0  0  0  0  0  0
    0.6541    2.6034    0.7978 H   0  0  0  0  0  0  0  0  0  0  0  0
   -0.1127    1.0604    1.1885 H   0  0  0  0  0  0  0  0  0  0  0  0
    1.8699    1.9616   -2.2682 H   0  0  0  0  0  0  0  0  0  0  0  0
    0.8739    3.2809   -1.6019 H   0  0  0  0  0  0  0  0  0  0  0  0
    0.1494    2.1329   -2.8058 H   0  0  0  0  0  0  0  0  0  0  0  0
    3.2822   -0.3020   -1.3681 H   0  0  0  0  0  0  0  0  0  0  0  0
    5.8727   -2.2344    0.6035 H   0  0  0  0  0  0  0  0  0  0  0  0
    6.5560    1.1811   -0.0755 H   0  0  0  0  0  0  0  0  0  0  0  0
    4.9172    1.2710   -0.8035 H   0  0  0  0  0  0  0  0  0  0  0  0
    4.0204   -2.9199    1.9851 H   0  0  0  0  0  0  0  0  0  0  0  0
    1.6369   -2.8927    2.5297 H   0  0  0  0  0  0  0  0  0  0  0  0
   -0.5053   -2.3923    3.0547 H   0  0  0  0  0  0  0  0  0  0  0  0
   -1.1715   -3.2587    1.6086 H   0  0  0  0  0  0  0  0  0  0  0  0
   -2.1787   -0.8491    3.1582 H   0  0  0  0  0  0  0  0  0  0  0  0
   -3.6169   -3.3679    2.1739 H   0  0  0  0  0  0  0  0  0  0  0  0
   -3.0668   -2.9623    3.8290 H   0  0  0  0  0  0  0  0  0  0  0  0
   -4.3702   -1.9827    3.0803 H   0  0  0  0  0  0  0  0  0  0  0  0
   -4.6549   -1.8020    0.7620 H   0  0  0  0  0  0  0  0  0  0  0  0
   -4.2061   -0.6494   -0.4882 H   0  0  0  0  0  0  0  0  0  0  0  0
   -2.2685   -2.0703   -1.2075 H   0  0  0  0  0  0  0  0  0  0  0  0
   -2.8002   -3.3402   -0.0509 H   0  0  0  0  0  0  0  0  0  0  0  0
   -2.3632    1.0174    2.1639 H   0  0  0  0  0  0  0  0  0  0  0  0
   -4.0357    0.8184    1.6476 H   0  0  0  0  0  0  0  0  0  0  0  0
   -2.2964    0.8229   -0.7719 H   0  0  0  0  0  0  0  0  0  0  0  0
   -3.7224    2.6668   -1.4585 H   0  0  0  0  0  0  0  0  0  0  0  0
   -4.1646    3.0487    0.2519 H   0  0  0  0  0  0  0  0  0  0  0  0
   -4.7582    1.5449   -0.5345 H   0  0  0  0  0  0  0  0  0  0  0  0
  1  2  1  0
  2  3  1  0
  3  4  1  0
  4  5  1  0
  5  6  1  0
  5  7  1  0
  7  8  2  0
  7  9  1  0
  9 10  2  0
 10 11  1  0
 11 12  1  0
 12 13  1  0
 13 14  2  0
 13 15  2  0
 13 16  1  0
 16 17  1  0
 17 18  1  0
 17 19  1  0
 17 20  1  0
 11 21  2  0
 21 22  1  0
 22 23  2  0
 23 24  1  0
 24 25  1  0
 25 26  1  0
 26 27  1  0
 26 28  1  0
 28 29  1  0
 29 30  1  0
 30 31  1  0
 31 32  1  0
 31 33  1  0
 31 34  1  0
 28 35  1  0
 35 36  1  0
 36 37  1  0
 36  3  1  0
 23  9  1  0
  1 38  1  0
  1 39  1  0
  1 40  1  0
  3 41  1  1
  4 42  1  0
  4 43  1  0
  6 44  1  0
  6 45  1  0
  6 46  1  0
 10 47  1  0
 12 48  1  0
 16 49  1  0
 16 50  1  0
 21 51  1  0
 22 52  1  0
 25 53  1  0
 25 54  1  0
 26 55  1  1
 27 56  1  0
 27 57  1  0
 27 58  1  0
 29 59  1  0
 29 60  1  0
 30 61  1  0
 30 62  1  0
 35 63  1  0
 35 64  1  0
 36 65  1  6
 37 66  1  0
 37 67  1  0
 37 68  1  0
M  END
$$$$
