
     RDKit          3D

 70 73  0  0  0  0  0  0  0  0999 V2000
    3.8864    2.6036   -0.4729 C   0  0  0  0  0  0  0  0  0  0  0  0
    4.9866    1.5349   -0.3321 C   0  0  0  0  0  0  0  0  0  0  0  0
    5.9642    1.9904    0.7695 C   0  0  0  0  0  0  0  0  0  0  0  0
    7.0182    0.9273    1.0617 C   0  0  0  0  0  0  0  0  0  0  0  0
    6.3460   -0.3814    1.4749 C   0  0  0  0  0  0  0  0  0  0  0  0
    5.3598   -0.8821    0.4058 C   0  0  0  0  0  0  0  0  0  0  0  0
    6.0836   -1.4818   -0.8088 C   0  0  0  0  0  0  0  0  0  0  0  0
    4.4378    0.1916   -0.0200 N   0  0  0  0  0  0  0  0  0  0  0  0
    3.1707   -0.2317   -0.5639 C   0  0  0  0  0  0  0  0  0  0  0  0
    2.9158   -0.0262   -1.7809 O   0  0  0  0  0  0  0  0  0  0  0  0
    2.2166   -1.0378    0.2871 C   0  0  0  0  0  0  0  0  0  0  0  0
    0.7908   -0.6733    0.1421 N   0  0  0  0  0  0  0  0  0  0  0  0
    0.4879    0.7354    0.4590 C   0  0  0  0  0  0  0  0  0  0  0  0
   -0.9203    1.1158   -0.0328 C   0  0  0  0  0  0  0  0  0  0  0  0
   -1.7768   -0.0102   -0.0280 O   0  0  0  0  0  0  0  0  0  0  0  0
   -1.3793   -1.0261   -0.9519 C   0  0  0  0  0  0  0  0  0  0  0  0
   -2.0705   -0.7460   -2.3216 C   0  0  0  0  0  0  0  0  0  0  0  0
   -3.5248   -0.3674   -2.1683 C   0  0  0  0  0  0  0  0  0  0  0  0
   -4.4528   -1.2545   -1.7810 C   0  0  0  0  0  0  0  0  0  0  0  0
   -5.8757   -0.8557   -1.5039 C   0  0  0  0  0  0  0  0  0  0  0  0
   -6.0104    0.2762   -0.5015 C   0  0  0  0  0  0  0  0  0  0  0  0
   -6.9321    1.3032   -0.7752 C   0  0  0  0  0  0  0  0  0  0  0  0
   -7.1516    2.3282    0.1445 C   0  0  0  0  0  0  0  0  0  0  0  0
   -6.4740    2.3322    1.3611 C   0  0  0  0  0  0  0  0  0  0  0  0
   -5.5636    1.3181    1.6592 C   0  0  0  0  0  0  0  0  0  0  0  0
   -5.3099    0.2850    0.7326 C   0  0  0  0  0  0  0  0  0  0  0  0
   -4.3644   -0.7216    1.0011 O   0  0  0  0  0  0  0  0  0  0  0  0
   -3.5554   -0.7927    2.1786 C   0  0  0  0  0  0  0  0  0  0  0  0
   -2.3966   -1.7968    2.0163 C   0  0  0  0  0  0  0  0  0  0  0  0
   -2.5373   -2.6072    0.8065 N   0  0  0  0  0  0  0  0  0  0  0  0
   -1.8367   -2.3969   -0.4365 C   0  0  0  0  0  0  0  0  0  0  0  0
   -1.6489   -3.4020   -1.1758 O   0  0  0  0  0  0  0  0  0  0  0  0
    0.1738   -1.0835   -1.1271 C   0  0  0  0  0  0  0  0  0  0  0  0
    4.3433    3.6069   -0.6155 H   0  0  0  0  0  0  0  0  0  0  0  0
    3.2500    2.4124   -1.3597 H   0  0  0  0  0  0  0  0  0  0  0  0
    3.2537    2.6291    0.4391 H   0  0  0  0  0  0  0  0  0  0  0  0
    5.5381    1.4820   -1.2967 H   0  0  0  0  0  0  0  0  0  0  0  0
    6.4788    2.9243    0.4520 H   0  0  0  0  0  0  0  0  0  0  0  0
    5.4047    2.2093    1.7067 H   0  0  0  0  0  0  0  0  0  0  0  0
    7.6697    1.2787    1.8909 H   0  0  0  0  0  0  0  0  0  0  0  0
    7.6630    0.7720    0.1708 H   0  0  0  0  0  0  0  0  0  0  0  0
    7.1226   -1.1525    1.6732 H   0  0  0  0  0  0  0  0  0  0  0  0
    5.7926   -0.2176    2.4261 H   0  0  0  0  0  0  0  0  0  0  0  0
    4.7843   -1.7088    0.8757 H   0  0  0  0  0  0  0  0  0  0  0  0
    5.3436   -1.9243   -1.5080 H   0  0  0  0  0  0  0  0  0  0  0  0
    6.6620   -0.7101   -1.3563 H   0  0  0  0  0  0  0  0  0  0  0  0
    6.7760   -2.2886   -0.4859 H   0  0  0  0  0  0  0  0  0  0  0  0
    2.4983   -0.9114    1.3545 H   0  0  0  0  0  0  0  0  0  0  0  0
    2.3549   -2.1152    0.0550 H   0  0  0  0  0  0  0  0  0  0  0  0
    0.5387    0.8703    1.5610 H   0  0  0  0  0  0  0  0  0  0  0  0
    1.2170    1.4262   -0.0121 H   0  0  0  0  0  0  0  0  0  0  0  0
   -0.8701    1.5643   -1.0496 H   0  0  0  0  0  0  0  0  0  0  0  0
   -1.3461    1.8904    0.6390 H   0  0  0  0  0  0  0  0  0  0  0  0
   -1.5662    0.1061   -2.8248 H   0  0  0  0  0  0  0  0  0  0  0  0
   -1.9763   -1.6152   -3.0083 H   0  0  0  0  0  0  0  0  0  0  0  0
   -3.8095    0.6683   -2.3376 H   0  0  0  0  0  0  0  0  0  0  0  0
   -4.1856   -2.2966   -1.6407 H   0  0  0  0  0  0  0  0  0  0  0  0
   -6.3420   -0.5778   -2.4744 H   0  0  0  0  0  0  0  0  0  0  0  0
   -6.4278   -1.7373   -1.1148 H   0  0  0  0  0  0  0  0  0  0  0  0
   -7.4873    1.3108   -1.7046 H   0  0  0  0  0  0  0  0  0  0  0  0
   -7.8569    3.1161   -0.0827 H   0  0  0  0  0  0  0  0  0  0  0  0
   -6.6547    3.1234    2.0776 H   0  0  0  0  0  0  0  0  0  0  0  0
   -5.0662    1.3479    2.6181 H   0  0  0  0  0  0  0  0  0  0  0  0
   -3.1129    0.2032    2.3978 H   0  0  0  0  0  0  0  0  0  0  0  0
   -4.1965   -1.0913    3.0361 H   0  0  0  0  0  0  0  0  0  0  0  0
   -2.3882   -2.4740    2.8989 H   0  0  0  0  0  0  0  0  0  0  0  0
   -1.4111   -1.2824    2.0279 H   0  0  0  0  0  0  0  0  0  0  0  0
   -3.0582   -3.5069    0.9108 H   0  0  0  0  0  0  0  0  0  0  0  0
    0.4939   -0.3964   -1.9404 H   0  0  0  0  0  0  0  0  0  0  0  0
    0.5133   -2.1016   -1.4218 H   0  0  0  0  0  0  0  0  0  0  0  0
  1  2  1  0
  2  3  1  0
  3  4  1  0
  4  5  1  0
  5  6  1  0
  6  7  1  0
  6  8  1  0
  8  9  1  0
  9 10  2  0
  9 11  1  0
 11 12  1  0
 12 13  1  0
 13 14  1  0
 14 15  1  0
 15 16  1  0
 16 17  1  0
 17 18  1  0
 18 19  2  0
 19 20  1  0
 20 21  1  0
 21 22  2  0
 22 23  1  0
 23 24  2  0
 24 25  1  0
 25 26  2  0
 26 27  1  0
 27 28  1  0
 28 29  1  0
 29 30  1  0
 30 31  1  0
 31 32  2  0
 16 33  1  0
  8  2  1  0
 33 12  1  0
 31 16  1  0
 26 21  1  0
  1 34  1  0
  1 35  1  0
  1 36  1  0
  2 37  1  0
  3 38  1  0
  3 39  1  0
  4 40  1  0
  4 41  1  0
  5 42  1  0
  5 43  1  0
  6 44  1  0
  7 45  1  0
  7 46  1  0
  7 47  1  0
 11 48  1  0
 11 49  1  0
 13 50  1  0
 13 51  1  0
 14 52  1  0
 14 53  1  0
 17 54  1  0
 17 55  1  0
 18 56  1  0
 19 57  1  0
 20 58  1  0
 20 59  1  0
 22 60  1  0
 23 61  1  0
 24 62  1  0
 25 63  1  0
 28 64  1  0
 28 65  1  0
 29 66  1  0
 29 67  1  0
 30 68  1  0
 33 69  1  0
 33 70  1  0
M  END
$$$$
