
     RDKit          3D

 77 80  0  0  0  0  0  0  0  0999 V2000
   -2.5945    2.4652    0.9884 C   0  0  0  0  0  0  0  0  0  0  0  0
   -2.0163    1.0600    1.1963 C   0  0  0  0  0  0  0  0  0  0  0  0
   -1.0756    1.0299    2.4178 C   0  0  0  0  0  0  0  0  0  0  0  0
   -3.1081    0.0366    1.2371 N   0  0  0  0  0  0  0  0  0  0  0  0
   -3.8000   -0.0122    2.5535 C   0  0  0  0  0  0  0  0  0  0  0  0
   -5.0856   -0.8065    2.5143 C   0  0  0  0  0  0  0  0  0  0  0  0
   -5.0457   -2.0269    2.8297 O   0  0  0  0  0  0  0  0  0  0  0  0
   -6.3599   -0.2213    2.1982 N   0  0  0  0  0  0  0  0  0  0  0  0
   -6.5684    1.1061    1.6205 C   0  0  0  0  0  0  0  0  0  0  0  0
   -6.1685    1.1495    0.1438 C   0  0  0  0  0  0  0  0  0  0  0  0
   -6.8857    0.0820   -0.6999 C   0  0  0  0  0  0  0  0  0  0  0  0
   -6.4099    0.1022   -2.1628 C   0  0  0  0  0  0  0  0  0  0  0  0
   -5.2282   -0.8366   -2.4405 C   0  0  0  0  0  0  0  0  0  0  0  0
   -4.1613   -0.6116   -1.5153 O   0  0  0  0  0  0  0  0  0  0  0  0
   -2.8344   -1.0381   -1.6929 C   0  0  0  0  0  0  0  0  0  0  0  0
   -2.2507   -1.1240   -2.9729 C   0  0  0  0  0  0  0  0  0  0  0  0
   -0.9195   -1.5137   -3.1227 C   0  0  0  0  0  0  0  0  0  0  0  0
   -0.1446   -1.8344   -2.0024 C   0  0  0  0  0  0  0  0  0  0  0  0
    1.3060   -2.2029   -2.1656 C   0  0  0  0  0  0  0  0  0  0  0  0
    2.1840   -0.9458   -2.1448 C   0  0  0  0  0  0  0  0  0  0  0  0
    3.6480   -1.2857   -2.2852 C   0  0  0  0  0  0  0  0  0  0  0  0
    3.9934   -2.1509   -3.1363 O   0  0  0  0  0  0  0  0  0  0  0  0
    4.6616   -0.5980   -1.5200 N   0  0  0  0  0  0  0  0  0  0  0  0
    4.3905    0.7339   -0.9561 C   0  0  0  0  0  0  0  0  0  0  0  0
    5.6828    1.4817   -0.6102 C   0  0  0  0  0  0  0  0  0  0  0  0
    6.5785    0.6266    0.1823 N   0  0  0  0  0  0  0  0  0  0  0  0
    7.4267    1.1988    1.1985 C   0  0  0  0  0  0  0  0  0  0  0  0
    8.1493    0.3904    2.0242 N   0  0  0  0  0  0  0  0  0  0  0  0
    8.9619    0.9080    2.9817 C   0  0  0  0  0  0  0  0  0  0  0  0
    9.0664    2.2895    3.1323 C   0  0  0  0  0  0  0  0  0  0  0  0
    8.3244    3.1066    2.2821 C   0  0  0  0  0  0  0  0  0  0  0  0
    7.5239    2.5510    1.3361 N   0  0  0  0  0  0  0  0  0  0  0  0
    6.6954   -0.8057   -0.1306 C   0  0  0  0  0  0  0  0  0  0  0  0
    6.0199   -1.1555   -1.4607 C   0  0  0  0  0  0  0  0  0  0  0  0
   -0.7123   -1.7431   -0.7247 C   0  0  0  0  0  0  0  0  0  0  0  0
   -2.0525   -1.3509   -0.5590 C   0  0  0  0  0  0  0  0  0  0  0  0
   -2.6381   -1.3145    0.8376 C   0  0  0  0  0  0  0  0  0  0  0  0
   -1.7677    3.1975    0.8640 H   0  0  0  0  0  0  0  0  0  0  0  0
   -3.2104    2.4878    0.0654 H   0  0  0  0  0  0  0  0  0  0  0  0
   -3.2179    2.7897    1.8467 H   0  0  0  0  0  0  0  0  0  0  0  0
   -1.3716    0.8939    0.3068 H   0  0  0  0  0  0  0  0  0  0  0  0
   -0.6991    0.0037    2.6017 H   0  0  0  0  0  0  0  0  0  0  0  0
   -1.5866    1.4013    3.3290 H   0  0  0  0  0  0  0  0  0  0  0  0
   -0.1997    1.6849    2.2321 H   0  0  0  0  0  0  0  0  0  0  0  0
   -3.1365   -0.4698    3.3212 H   0  0  0  0  0  0  0  0  0  0  0  0
   -4.0343    1.0049    2.9207 H   0  0  0  0  0  0  0  0  0  0  0  0
   -7.2117   -0.7928    2.3958 H   0  0  0  0  0  0  0  0  0  0  0  0
   -7.6456    1.3688    1.7000 H   0  0  0  0  0  0  0  0  0  0  0  0
   -6.0050    1.8718    2.1917 H   0  0  0  0  0  0  0  0  0  0  0  0
   -5.0769    1.0358    0.0589 H   0  0  0  0  0  0  0  0  0  0  0  0
   -6.4208    2.1564   -0.2557 H   0  0  0  0  0  0  0  0  0  0  0  0
   -7.9773    0.2994   -0.6812 H   0  0  0  0  0  0  0  0  0  0  0  0
   -6.7387   -0.9335   -0.2696 H   0  0  0  0  0  0  0  0  0  0  0  0
   -6.1411    1.1380   -2.4687 H   0  0  0  0  0  0  0  0  0  0  0  0
   -7.2529   -0.2152   -2.8162 H   0  0  0  0  0  0  0  0  0  0  0  0
   -5.5595   -1.8935   -2.3617 H   0  0  0  0  0  0  0  0  0  0  0  0
   -4.9068   -0.6487   -3.4812 H   0  0  0  0  0  0  0  0  0  0  0  0
   -2.7972   -0.8582   -3.8642 H   0  0  0  0  0  0  0  0  0  0  0  0
   -0.4867   -1.5523   -4.1147 H   0  0  0  0  0  0  0  0  0  0  0  0
    1.6179   -2.8894   -1.3482 H   0  0  0  0  0  0  0  0  0  0  0  0
    1.4440   -2.7490   -3.1247 H   0  0  0  0  0  0  0  0  0  0  0  0
    1.8970   -0.2732   -2.9811 H   0  0  0  0  0  0  0  0  0  0  0  0
    2.0014   -0.4124   -1.1892 H   0  0  0  0  0  0  0  0  0  0  0  0
    3.8193    1.3467   -1.6877 H   0  0  0  0  0  0  0  0  0  0  0  0
    3.7826    0.6196   -0.0331 H   0  0  0  0  0  0  0  0  0  0  0  0
    6.2011    1.7871   -1.5451 H   0  0  0  0  0  0  0  0  0  0  0  0
    5.4072    2.3997   -0.0469 H   0  0  0  0  0  0  0  0  0  0  0  0
    9.5279    0.2464    3.6232 H   0  0  0  0  0  0  0  0  0  0  0  0
    9.7098    2.7189    3.8895 H   0  0  0  0  0  0  0  0  0  0  0  0
    8.3855    4.1827    2.3722 H   0  0  0  0  0  0  0  0  0  0  0  0
    6.2299   -1.3948    0.6887 H   0  0  0  0  0  0  0  0  0  0  0  0
    7.7679   -1.0903   -0.2023 H   0  0  0  0  0  0  0  0  0  0  0  0
    6.6173   -0.7464   -2.3034 H   0  0  0  0  0  0  0  0  0  0  0  0
    5.9940   -2.2630   -1.5555 H   0  0  0  0  0  0  0  0  0  0  0  0
   -0.1065   -1.9793    0.1426 H   0  0  0  0  0  0  0  0  0  0  0  0
   -3.4902   -2.0248    0.8239 H   0  0  0  0  0  0  0  0  0  0  0  0
   -1.9147   -1.7105    1.5847 H   0  0  0  0  0  0  0  0  0  0  0  0
  1  2  1  0
  2  3  1  0
  2  4  1  0
  4  5  1  0
  5  6  1  0
  6  7  2  0
  6  8  1  0
  8  9  1  0
  9 10  1  0
 10 11  1  0
 11 12  1  0
 12 13  1  0
 13 14  1  0
 14 15  1  0
 15 16  2  0
 16 17  1  0
 17 18  2  0
 18 19  1  0
 19 20  1  0
 20 21  1  0
 21 22  2  0
 21 23  1  0
 23 24  1  0
 24 25  1  0
 25 26  1  0
 26 27  1  0
 27 28  2  0
 28 29  1  0
 29 30  2  0
 30 31  1  0
 31 32  2  0
 26 33  1  0
 33 34  1  0
 18 35  1  0
 35 36  2  0
 36 37  1  0
 37  4  1  0
 36 15  1  0
 34 23  1  0
 32 27  1  0
  1 38  1  0
  1 39  1  0
  1 40  1  0
  2 41  1  0
  3 42  1  0
  3 43  1  0
  3 44  1  0
  5 45  1  0
  5 46  1  0
  8 47  1  0
  9 48  1  0
  9 49  1  0
 10 50  1  0
 10 51  1  0
 11 52  1  0
 11 53  1  0
 12 54  1  0
 12 55  1  0
 13 56  1  0
 13 57  1  0
 16 58  1  0
 17 59  1  0
 19 60  1  0
 19 61  1  0
 20 62  1  0
 20 63  1  0
 24 64  1  0
 24 65  1  0
 25 66  1  0
 25 67  1  0
 29 68  1  0
 30 69  1  0
 31 70  1  0
 33 71  1  0
 33 72  1  0
 34 73  1  0
 34 74  1  0
 35 75  1  0
 37 76  1  0
 37 77  1  0
M  END
$$$$
