
     RDKit          3D

103105  0  0  0  0  0  0  0  0999 V2000
   13.0145   -0.3948   -0.9932 C   0  0  0  0  0  0  0  0  0  0  0  0
   12.4904    0.5912   -0.1070 O   0  0  0  0  0  0  0  0  0  0  0  0
   11.1369    0.7018    0.2426 C   0  0  0  0  0  0  0  0  0  0  0  0
   10.7468    1.7627    1.0673 C   0  0  0  0  0  0  0  0  0  0  0  0
    9.4067    1.9240    1.4282 C   0  0  0  0  0  0  0  0  0  0  0  0
    8.4342    1.0259    0.9738 C   0  0  0  0  0  0  0  0  0  0  0  0
    7.0978    1.2453    1.3412 O   0  0  0  0  0  0  0  0  0  0  0  0
    6.0056    0.4195    0.9378 C   0  0  0  0  0  0  0  0  0  0  0  0
    4.6903    1.0639    1.3791 C   0  0  0  0  0  0  0  0  0  0  0  0
    3.5531    0.1891    1.0903 N   0  0  0  0  0  0  0  0  0  0  0  0
    3.0848   -0.0549   -0.2504 C   0  0  0  0  0  0  0  0  0  0  0  0
    3.7571    0.3680   -1.2311 O   0  0  0  0  0  0  0  0  0  0  0  0
    1.8221   -0.8394   -0.5455 C   0  0  0  0  0  0  0  0  0  0  0  0
    0.9662   -1.2084    0.6891 C   0  0  0  0  0  0  0  0  0  0  0  0
   -0.2925   -2.0205    0.3144 C   0  0  0  0  0  0  0  0  0  0  0  0
   -1.2435   -2.1982    1.4761 C   0  0  0  0  0  0  0  0  0  0  0  0
   -0.8072   -2.1107    2.6568 O   0  0  0  0  0  0  0  0  0  0  0  0
   -2.6402   -2.4842    1.2738 N   0  0  0  0  0  0  0  0  0  0  0  0
   -3.2171   -2.9238   -0.0047 C   0  0  0  0  0  0  0  0  0  0  0  0
   -4.3114   -3.9917    0.2331 C   0  0  0  0  0  0  0  0  0  0  0  0
   -4.9967   -4.5118   -1.0544 C   0  0  0  0  0  0  0  0  0  0  0  0
   -6.1826   -5.4122   -0.6834 C   0  0  0  0  0  0  0  0  0  0  0  0
   -4.0251   -5.2783   -1.9612 C   0  0  0  0  0  0  0  0  0  0  0  0
   -3.7206   -1.7387   -0.8042 C   0  0  0  0  0  0  0  0  0  0  0  0
   -3.0371   -1.3451   -1.7882 O   0  0  0  0  0  0  0  0  0  0  0  0
   -4.9856   -1.1048   -0.5574 N   0  0  0  0  0  0  0  0  0  0  0  0
   -5.4282   -0.6388    0.7653 C   0  0  0  0  0  0  0  0  0  0  0  0
   -6.9627   -0.3954    0.8122 C   0  0  0  0  0  0  0  0  0  0  0  0
   -7.7310   -1.6707    0.4405 C   0  0  0  0  0  0  0  0  0  0  0  0
   -7.4344    0.7819   -0.0589 C   0  0  0  0  0  0  0  0  0  0  0  0
   -4.6592    0.5881    1.1919 C   0  0  0  0  0  0  0  0  0  0  0  0
   -4.4678    0.7947    2.4220 O   0  0  0  0  0  0  0  0  0  0  0  0
   -4.1402    1.5143    0.2239 N   0  0  0  0  0  0  0  0  0  0  0  0
   -2.8965    2.2465    0.4874 C   0  0  0  0  0  0  0  0  0  0  0  0
   -2.7739    3.5362   -0.3797 C   0  0  0  0  0  0  0  0  0  0  0  0
   -3.7560    4.6107    0.1077 C   0  0  0  0  0  0  0  0  0  0  0  0
   -2.9642    3.3095   -1.8922 C   0  0  0  0  0  0  0  0  0  0  0  0
   -1.7072    1.2881    0.3106 C   0  0  0  0  0  0  0  0  0  0  0  0
   -0.5650    1.7496    1.0298 O   0  0  0  0  0  0  0  0  0  0  0  0
    0.5379    2.4662    0.5397 C   0  0  0  0  0  0  0  0  0  0  0  0
    1.0808    3.4257    1.4064 C   0  0  0  0  0  0  0  0  0  0  0  0
    2.1688    4.2092    1.0232 C   0  0  0  0  0  0  0  0  0  0  0  0
    2.7318    4.0498   -0.2387 C   0  0  0  0  0  0  0  0  0  0  0  0
    2.2229    3.0870   -1.1117 C   0  0  0  0  0  0  0  0  0  0  0  0
    1.1541    2.2563   -0.7270 C   0  0  0  0  0  0  0  0  0  0  0  0
    0.7235    1.2375   -1.7053 C   0  0  0  0  0  0  0  0  0  0  0  0
    0.1338    1.6384   -2.7469 O   0  0  0  0  0  0  0  0  0  0  0  0
    1.0135   -0.1709   -1.5793 N   0  0  0  0  0  0  0  0  0  0  0  0
    8.8260   -0.0535    0.1609 C   0  0  0  0  0  0  0  0  0  0  0  0
   10.1651   -0.2123   -0.2057 C   0  0  0  0  0  0  0  0  0  0  0  0
   12.5392   -0.3010   -1.9951 H   0  0  0  0  0  0  0  0  0  0  0  0
   12.8402   -1.4107   -0.5770 H   0  0  0  0  0  0  0  0  0  0  0  0
   14.1075   -0.2379   -1.1031 H   0  0  0  0  0  0  0  0  0  0  0  0
   11.4840    2.4703    1.4264 H   0  0  0  0  0  0  0  0  0  0  0  0
    9.1196    2.7589    2.0564 H   0  0  0  0  0  0  0  0  0  0  0  0
    6.0127    0.3175   -0.1691 H   0  0  0  0  0  0  0  0  0  0  0  0
    6.1070   -0.5874    1.4051 H   0  0  0  0  0  0  0  0  0  0  0  0
    4.7364    1.2553    2.4738 H   0  0  0  0  0  0  0  0  0  0  0  0
    4.5542    2.0405    0.8667 H   0  0  0  0  0  0  0  0  0  0  0  0
    3.0382   -0.1984    1.9080 H   0  0  0  0  0  0  0  0  0  0  0  0
    2.1669   -1.8067   -0.9715 H   0  0  0  0  0  0  0  0  0  0  0  0
    0.6767   -0.2948    1.2373 H   0  0  0  0  0  0  0  0  0  0  0  0
    1.5739   -1.8351    1.3802 H   0  0  0  0  0  0  0  0  0  0  0  0
    0.0114   -3.0210   -0.0596 H   0  0  0  0  0  0  0  0  0  0  0  0
   -0.8341   -1.5000   -0.4960 H   0  0  0  0  0  0  0  0  0  0  0  0
   -3.2512   -2.4665    2.1218 H   0  0  0  0  0  0  0  0  0  0  0  0
   -2.4159   -3.4236   -0.5887 H   0  0  0  0  0  0  0  0  0  0  0  0
   -5.0855   -3.5781    0.9097 H   0  0  0  0  0  0  0  0  0  0  0  0
   -3.8527   -4.8484    0.7720 H   0  0  0  0  0  0  0  0  0  0  0  0
   -5.4062   -3.6547   -1.6294 H   0  0  0  0  0  0  0  0  0  0  0  0
   -6.9066   -4.8600   -0.0472 H   0  0  0  0  0  0  0  0  0  0  0  0
   -5.8322   -6.3141   -0.1345 H   0  0  0  0  0  0  0  0  0  0  0  0
   -6.7161   -5.7372   -1.6009 H   0  0  0  0  0  0  0  0  0  0  0  0
   -4.5749   -5.7252   -2.8118 H   0  0  0  0  0  0  0  0  0  0  0  0
   -3.5225   -6.0899   -1.4002 H   0  0  0  0  0  0  0  0  0  0  0  0
   -3.2585   -4.5949   -2.3808 H   0  0  0  0  0  0  0  0  0  0  0  0
   -5.4479   -0.6996   -1.3992 H   0  0  0  0  0  0  0  0  0  0  0  0
   -5.2137   -1.4283    1.5121 H   0  0  0  0  0  0  0  0  0  0  0  0
   -7.2270   -0.1506    1.8665 H   0  0  0  0  0  0  0  0  0  0  0  0
   -8.8218   -1.5143    0.5759 H   0  0  0  0  0  0  0  0  0  0  0  0
   -7.4221   -2.5126    1.0957 H   0  0  0  0  0  0  0  0  0  0  0  0
   -7.5441   -1.9508   -0.6186 H   0  0  0  0  0  0  0  0  0  0  0  0
   -6.9270    1.7238    0.2382 H   0  0  0  0  0  0  0  0  0  0  0  0
   -8.5286    0.9396    0.0784 H   0  0  0  0  0  0  0  0  0  0  0  0
   -7.2481    0.5963   -1.1365 H   0  0  0  0  0  0  0  0  0  0  0  0
   -4.4475    1.3975   -0.7663 H   0  0  0  0  0  0  0  0  0  0  0  0
   -2.8911    2.5664    1.5538 H   0  0  0  0  0  0  0  0  0  0  0  0
   -1.7498    3.9466   -0.2381 H   0  0  0  0  0  0  0  0  0  0  0  0
   -3.5487    4.8728    1.1694 H   0  0  0  0  0  0  0  0  0  0  0  0
   -4.8049    4.2505    0.0233 H   0  0  0  0  0  0  0  0  0  0  0  0
   -3.6502    5.5351   -0.5013 H   0  0  0  0  0  0  0  0  0  0  0  0
   -2.3840    2.4421   -2.2539 H   0  0  0  0  0  0  0  0  0  0  0  0
   -2.6104    4.2019   -2.4503 H   0  0  0  0  0  0  0  0  0  0  0  0
   -4.0327    3.1535   -2.1491 H   0  0  0  0  0  0  0  0  0  0  0  0
   -1.9859    0.3204    0.7643 H   0  0  0  0  0  0  0  0  0  0  0  0
   -1.5157    1.0719   -0.7488 H   0  0  0  0  0  0  0  0  0  0  0  0
    0.6446    3.5763    2.3861 H   0  0  0  0  0  0  0  0  0  0  0  0
    2.5672    4.9508    1.7021 H   0  0  0  0  0  0  0  0  0  0  0  0
    3.5726    4.6635   -0.5375 H   0  0  0  0  0  0  0  0  0  0  0  0
    2.6858    2.9695   -2.0844 H   0  0  0  0  0  0  0  0  0  0  0  0
    0.6644   -0.7835   -2.3518 H   0  0  0  0  0  0  0  0  0  0  0  0
    8.1032   -0.7712   -0.1985 H   0  0  0  0  0  0  0  0  0  0  0  0
   10.4333   -1.0464   -0.8384 H   0  0  0  0  0  0  0  0  0  0  0  0
  1  2  1  0
  2  3  1  0
  3  4  2  0
  4  5  1  0
  5  6  2  0
  6  7  1  0
  7  8  1  0
  8  9  1  0
  9 10  1  0
 10 11  1  0
 11 12  2  0
 11 13  1  0
 13 14  1  0
 14 15  1  0
 15 16  1  0
 16 17  2  0
 16 18  1  0
 18 19  1  0
 19 20  1  0
 20 21  1  0
 21 22  1  0
 21 23  1  0
 19 24  1  0
 24 25  2  0
 24 26  1  0
 26 27  1  0
 27 28  1  0
 28 29  1  0
 28 30  1  0
 27 31  1  0
 31 32  2  0
 31 33  1  0
 33 34  1  0
 34 35  1  0
 35 36  1  0
 35 37  1  0
 34 38  1  0
 38 39  1  0
 39 40  1  0
 40 41  2  0
 41 42  1  0
 42 43  2  0
 43 44  1  0
 44 45  2  0
 45 46  1  0
 46 47  2  0
 46 48  1  0
  6 49  1  0
 49 50  2  0
 50  3  1  0
 48 13  1  0
 45 40  1  0
  1 51  1  0
  1 52  1  0
  1 53  1  0
  4 54  1  0
  5 55  1  0
  8 56  1  0
  8 57  1  0
  9 58  1  0
  9 59  1  0
 10 60  1  0
 13 61  1  0
 14 62  1  0
 14 63  1  0
 15 64  1  0
 15 65  1  0
 18 66  1  0
 19 67  1  0
 20 68  1  0
 20 69  1  0
 21 70  1  0
 22 71  1  0
 22 72  1  0
 22 73  1  0
 23 74  1  0
 23 75  1  0
 23 76  1  0
 26 77  1  0
 27 78  1  0
 28 79  1  0
 29 80  1  0
 29 81  1  0
 29 82  1  0
 30 83  1  0
 30 84  1  0
 30 85  1  0
 33 86  1  0
 34 87  1  0
 35 88  1  0
 36 89  1  0
 36 90  1  0
 36 91  1  0
 37 92  1  0
 37 93  1  0
 37 94  1  0
 38 95  1  0
 38 96  1  0
 41 97  1  0
 42 98  1  0
 43 99  1  0
 44100  1  0
 48101  1  0
 49102  1  0
 50103  1  0
M  END
$$$$
