
     RDKit          3D

135140  0  0  0  0  0  0  0  0999 V2000
    1.0745   -4.4657    3.9349 C   0  0  0  0  0  0  0  0  0  0  0  0
    1.9817   -4.3551    2.7004 C   0  0  0  0  0  0  0  0  0  0  0  0
    3.2785   -5.1653    2.8948 C   0  0  0  0  0  0  0  0  0  0  0  0
    2.1676   -2.8690    2.2391 C   0  0  1  0  0  0  0  0  0  0  0  0
    2.8981   -1.9617    3.2425 C   0  0  0  0  0  0  0  0  0  0  0  0
    3.4798   -2.4716    4.2376 O   0  0  0  0  0  0  0  0  0  0  0  0
    2.9462   -0.5605    3.1375 O   0  0  0  0  0  0  0  0  0  0  0  0
    2.3098    0.2382    2.1442 C   0  0  0  0  0  0  0  0  0  0  0  0
    3.1333    1.5201    1.9146 C   0  0  1  0  0  0  0  0  0  0  0  0
    4.5246    1.1563    1.6428 N   0  0  0  0  0  0  0  0  0  0  0  0
    5.6281    1.6391    2.4265 C   0  0  0  0  0  0  0  0  0  0  0  0
    5.4240    2.1690    3.5496 O   0  0  0  0  0  0  0  0  0  0  0  0
    7.0116    1.5217    1.9426 C   0  0  0  0  0  0  0  0  0  0  0  0
    7.4109    1.0863    0.6783 C   0  0  0  0  0  0  0  0  0  0  0  0
    8.7841    1.1835    0.7034 C   0  0  0  0  0  0  0  0  0  0  0  0
    9.7390    0.9042   -0.2725 C   0  0  0  0  0  0  0  0  0  0  0  0
   11.0899    1.1196    0.0526 C   0  0  0  0  0  0  0  0  0  0  0  0
   11.4509    1.5978    1.3333 C   0  0  0  0  0  0  0  0  0  0  0  0
   10.4604    1.8659    2.2979 C   0  0  0  0  0  0  0  0  0  0  0  0
    9.1329    1.6492    1.9426 C   0  0  0  0  0  0  0  0  0  0  0  0
    8.0636    1.8499    2.6739 O   0  0  0  0  0  0  0  0  0  0  0  0
    2.6379    2.3966    0.7835 C   0  0  0  0  0  0  0  0  0  0  0  0
    2.8959    3.6277    0.8293 O   0  0  0  0  0  0  0  0  0  0  0  0
    2.0485    1.8447   -0.4047 N   0  0  0  0  0  0  0  0  0  0  0  0
    2.3646    2.3454   -1.7468 C   0  0  1  0  0  0  0  0  0  0  0  0
    3.3671    1.4103   -2.4456 C   0  0  0  0  0  0  0  0  0  0  0  0
    1.0831    2.5699   -2.5247 C   0  0  0  0  0  0  0  0  0  0  0  0
    0.2694    3.4179   -2.0728 O   0  0  0  0  0  0  0  0  0  0  0  0
    0.8181    1.9557   -3.8056 N   0  0  0  0  0  0  0  0  0  0  0  0
    1.2425    2.6990   -4.9925 C   0  0  0  0  0  0  0  0  0  0  0  0
    0.2628    0.5856   -3.9669 C   0  0  1  0  0  0  0  0  0  0  0  0
   -0.0531   -0.1044   -2.6263 C   0  0  0  0  0  0  0  0  0  0  0  0
   -0.8066   -1.7711   -2.7989 S   0  0  0  0  0  0  0  0  0  0  0  0
    0.6318   -2.8832   -2.4568 C   0  0  0  0  0  0  0  0  0  0  0  0
    0.9690   -3.3086   -0.9767 C   0  0  1  0  0  0  0  0  0  0  0  0
    1.9771   -2.3989   -0.2711 C   0  0  0  0  0  0  0  0  0  0  0  0
    2.3917   -1.3900   -0.8973 O   0  0  0  0  0  0  0  0  0  0  0  0
    2.7540   -2.8168    0.8828 N   0  0  0  0  0  0  0  0  0  0  0  0
    4.2096   -2.9012    0.7036 C   0  0  0  0  0  0  0  0  0  0  0  0
   -0.2111   -3.7273   -0.1632 N   0  0  0  0  0  0  0  0  0  0  0  0
   -0.4030   -5.1584    0.1171 C   0  0  0  0  0  0  0  0  0  0  0  0
   -1.4247   -2.9548   -0.0420 C   0  0  0  0  0  0  0  0  0  0  0  0
   -2.3853   -3.1999   -0.8231 O   0  0  0  0  0  0  0  0  0  0  0  0
   -1.6713   -2.0163    1.1097 C   0  0  2  0  0  0  0  0  0  0  0  0
   -2.7947   -2.5813    1.9959 C   0  0  0  0  0  0  0  0  0  0  0  0
   -2.0125   -0.6931    0.5804 N   0  0  0  0  0  0  0  0  0  0  0  0
   -2.7634    0.2786    1.3122 C   0  0  0  0  0  0  0  0  0  0  0  0
   -2.3760    0.6283    2.4630 O   0  0  0  0  0  0  0  0  0  0  0  0
   -3.9952    0.9190    0.7211 C   0  0  2  0  0  0  0  0  0  0  0  0
   -5.1518    0.6104    1.5643 N   0  0  0  0  0  0  0  0  0  0  0  0
   -6.2761    1.4961    1.6758 C   0  0  0  0  0  0  0  0  0  0  0  0
   -6.2884    2.5853    1.0402 O   0  0  0  0  0  0  0  0  0  0  0  0
   -7.4126    1.1431    2.5402 C   0  0  0  0  0  0  0  0  0  0  0  0
   -8.5526    1.9215    2.7333 C   0  0  0  0  0  0  0  0  0  0  0  0
   -9.3147    1.1946    3.6152 C   0  0  0  0  0  0  0  0  0  0  0  0
  -10.5623    1.4544    4.1785 C   0  0  0  0  0  0  0  0  0  0  0  0
  -11.0895    0.4998    5.0696 C   0  0  0  0  0  0  0  0  0  0  0  0
  -10.3737   -0.6821    5.3576 C   0  0  0  0  0  0  0  0  0  0  0  0
   -9.1184   -0.9185    4.7652 C   0  0  0  0  0  0  0  0  0  0  0  0
   -8.6192    0.0499    3.8959 C   0  0  0  0  0  0  0  0  0  0  0  0
   -7.4823    0.0293    3.2451 O   0  0  0  0  0  0  0  0  0  0  0  0
   -4.2799    0.4870   -0.7272 C   0  0  0  0  0  0  0  0  0  0  0  0
   -3.2571    0.9879   -1.5827 O   0  0  0  0  0  0  0  0  0  0  0  0
   -3.4528    1.2471   -2.9472 C   0  0  0  0  0  0  0  0  0  0  0  0
   -4.4900    0.8307   -3.5377 O   0  0  0  0  0  0  0  0  0  0  0  0
   -2.4791    2.1469   -3.6600 C   0  0  2  0  0  0  0  0  0  0  0  0
   -3.0746    3.5787   -3.8320 C   0  0  0  0  0  0  0  0  0  0  0  0
   -3.4294    4.2096   -2.4702 C   0  0  0  0  0  0  0  0  0  0  0  0
   -2.1012    4.5135   -4.5701 C   0  0  0  0  0  0  0  0  0  0  0  0
   -2.0157    1.5196   -4.9221 N   0  0  0  0  0  0  0  0  0  0  0  0
   -2.8949    1.5043   -6.1061 C   0  0  0  0  0  0  0  0  0  0  0  0
   -0.9271    0.5522   -4.9237 C   0  0  0  0  0  0  0  0  0  0  0  0
   -0.9444   -0.3924   -5.7654 O   0  0  0  0  0  0  0  0  0  0  0  0
    0.1121   -3.9391    3.7559 H   0  0  0  0  0  0  0  0  0  0  0  0
    1.5619   -4.0313    4.8376 H   0  0  0  0  0  0  0  0  0  0  0  0
    0.8410   -5.5323    4.1393 H   0  0  0  0  0  0  0  0  0  0  0  0
    1.4462   -4.8672    1.8884 H   0  0  0  0  0  0  0  0  0  0  0  0
    3.0322   -6.1989    3.2303 H   0  0  0  0  0  0  0  0  0  0  0  0
    3.8217   -5.2724    1.9331 H   0  0  0  0  0  0  0  0  0  0  0  0
    3.9542   -4.7222    3.6528 H   0  0  0  0  0  0  0  0  0  0  0  0
    1.1583   -2.4447    2.1856 H   0  0  0  0  0  0  0  0  0  0  0  0
    1.2812    0.4887    2.4679 H   0  0  0  0  0  0  0  0  0  0  0  0
    2.2674   -0.3217    1.2150 H   0  0  0  0  0  0  0  0  0  0  0  0
    3.0678    2.1151    2.8534 H   0  0  0  0  0  0  0  0  0  0  0  0
    4.7174    0.5585    0.8107 H   0  0  0  0  0  0  0  0  0  0  0  0
    6.7956    0.7667   -0.1514 H   0  0  0  0  0  0  0  0  0  0  0  0
    9.4517    0.5414   -1.2476 H   0  0  0  0  0  0  0  0  0  0  0  0
   11.8571    0.9166   -0.6814 H   0  0  0  0  0  0  0  0  0  0  0  0
   12.4933    1.7577    1.5749 H   0  0  0  0  0  0  0  0  0  0  0  0
   10.7190    2.2382    3.2779 H   0  0  0  0  0  0  0  0  0  0  0  0
    1.5128    0.9631   -0.3289 H   0  0  0  0  0  0  0  0  0  0  0  0
    2.8616    3.3397   -1.6609 H   0  0  0  0  0  0  0  0  0  0  0  0
    2.8849    0.4923   -2.8162 H   0  0  0  0  0  0  0  0  0  0  0  0
    4.1776    1.1366   -1.7409 H   0  0  0  0  0  0  0  0  0  0  0  0
    3.8279    1.9255   -3.3156 H   0  0  0  0  0  0  0  0  0  0  0  0
    0.5965    3.5865   -5.1361 H   0  0  0  0  0  0  0  0  0  0  0  0
    1.1861    2.0698   -5.9076 H   0  0  0  0  0  0  0  0  0  0  0  0
    2.2922    3.0390   -4.8711 H   0  0  0  0  0  0  0  0  0  0  0  0
    1.0633   -0.0308   -4.4316 H   0  0  0  0  0  0  0  0  0  0  0  0
    0.8544   -0.1887   -2.0455 H   0  0  0  0  0  0  0  0  0  0  0  0
   -0.7462    0.5177   -2.0480 H   0  0  0  0  0  0  0  0  0  0  0  0
    1.5344   -2.4733   -2.9670 H   0  0  0  0  0  0  0  0  0  0  0  0
    0.3947   -3.8178   -3.0086 H   0  0  0  0  0  0  0  0  0  0  0  0
    1.5988   -4.2151   -1.1392 H   0  0  0  0  0  0  0  0  0  0  0  0
    4.6021   -1.9380    0.3049 H   0  0  0  0  0  0  0  0  0  0  0  0
    4.7303   -3.1039    1.6632 H   0  0  0  0  0  0  0  0  0  0  0  0
    4.4411   -3.7174   -0.0085 H   0  0  0  0  0  0  0  0  0  0  0  0
   -1.1523   -5.5828   -0.5892 H   0  0  0  0  0  0  0  0  0  0  0  0
   -0.7753   -5.2978    1.1560 H   0  0  0  0  0  0  0  0  0  0  0  0
    0.5377   -5.7384   -0.0050 H   0  0  0  0  0  0  0  0  0  0  0  0
   -0.7722   -1.9163    1.7217 H   0  0  0  0  0  0  0  0  0  0  0  0
   -2.9047   -1.9726    2.9180 H   0  0  0  0  0  0  0  0  0  0  0  0
   -3.7622   -2.5783    1.4491 H   0  0  0  0  0  0  0  0  0  0  0  0
   -2.5553   -3.6233    2.3034 H   0  0  0  0  0  0  0  0  0  0  0  0
   -1.3645   -0.3050   -0.1361 H   0  0  0  0  0  0  0  0  0  0  0  0
   -3.8217    2.0190    0.7270 H   0  0  0  0  0  0  0  0  0  0  0  0
   -5.2027   -0.3348    2.0156 H   0  0  0  0  0  0  0  0  0  0  0  0
   -8.7793    2.8823    2.2912 H   0  0  0  0  0  0  0  0  0  0  0  0
  -11.1045    2.3611    3.9491 H   0  0  0  0  0  0  0  0  0  0  0  0
  -12.0584    0.6690    5.5291 H   0  0  0  0  0  0  0  0  0  0  0  0
  -10.7900   -1.4071    6.0430 H   0  0  0  0  0  0  0  0  0  0  0  0
   -8.5601   -1.8197    4.9864 H   0  0  0  0  0  0  0  0  0  0  0  0
   -5.2535    0.9331   -1.0291 H   0  0  0  0  0  0  0  0  0  0  0  0
   -4.3447   -0.6191   -0.8191 H   0  0  0  0  0  0  0  0  0  0  0  0
   -1.6255    2.2713   -2.9940 H   0  0  0  0  0  0  0  0  0  0  0  0
   -4.0185    3.5275   -4.4105 H   0  0  0  0  0  0  0  0  0  0  0  0
   -3.8555    5.2245   -2.6146 H   0  0  0  0  0  0  0  0  0  0  0  0
   -4.1911    3.6049   -1.9387 H   0  0  0  0  0  0  0  0  0  0  0  0
   -2.5291    4.2868   -1.8259 H   0  0  0  0  0  0  0  0  0  0  0  0
   -1.1617    4.6232   -3.9903 H   0  0  0  0  0  0  0  0  0  0  0  0
   -2.5536    5.5203   -4.6926 H   0  0  0  0  0  0  0  0  0  0  0  0
   -1.8592    4.1301   -5.5784 H   0  0  0  0  0  0  0  0  0  0  0  0
   -2.2976    1.3526   -7.0270 H   0  0  0  0  0  0  0  0  0  0  0  0
   -3.4232    2.4667   -6.2428 H   0  0  0  0  0  0  0  0  0  0  0  0
   -3.6396    0.6903   -6.0184 H   0  0  0  0  0  0  0  0  0  0  0  0
  1  2  1  0
  2  3  1  0
  2  4  1  0
  4  5  1  0
  5  6  2  0
  5  7  1  0
  7  8  1  0
  8  9  1  0
  9 10  1  0
 10 11  1  0
 11 12  2  0
 11 13  1  0
 13 14  2  0
 14 15  1  0
 15 16  2  0
 16 17  1  0
 17 18  2  0
 18 19  1  0
 19 20  2  0
 20 21  1  0
  9 22  1  0
 22 23  2  0
 22 24  1  0
 24 25  1  0
 25 26  1  0
 25 27  1  0
 27 28  2  0
 27 29  1  0
 29 30  1  0
 29 31  1  0
 31 32  1  0
 32 33  1  0
 33 34  1  0
 34 35  1  0
 35 36  1  0
 36 37  2  0
 36 38  1  0
 38 39  1  0
 35 40  1  0
 40 41  1  0
 40 42  1  0
 42 43  2  0
 42 44  1  0
 44 45  1  0
 44 46  1  0
 46 47  1  0
 47 48  2  0
 47 49  1  0
 49 50  1  0
 50 51  1  0
 51 52  2  0
 51 53  1  0
 53 54  2  0
 54 55  1  0
 55 56  2  0
 56 57  1  0
 57 58  2  0
 58 59  1  0
 59 60  2  0
 60 61  1  0
 49 62  1  0
 62 63  1  0
 63 64  1  0
 64 65  2  0
 64 66  1  0
 66 67  1  0
 67 68  1  0
 67 69  1  0
 66 70  1  0
 70 71  1  0
 70 72  1  0
 72 73  2  0
 38  4  1  0
 61 53  1  0
 21 13  1  0
 72 31  1  0
 20 15  1  0
 60 55  1  0
  1 74  1  0
  1 75  1  0
  1 76  1  0
  2 77  1  0
  3 78  1  0
  3 79  1  0
  3 80  1  0
  4 81  1  6
  8 82  1  0
  8 83  1  0
  9 84  1  1
 10 85  1  0
 14 86  1  0
 16 87  1  0
 17 88  1  0
 18 89  1  0
 19 90  1  0
 24 91  1  0
 25 92  1  1
 26 93  1  0
 26 94  1  0
 26 95  1  0
 30 96  1  0
 30 97  1  0
 30 98  1  0
 31 99  1  6
 32100  1  0
 32101  1  0
 34102  1  0
 34103  1  0
 35104  1  6
 39105  1  0
 39106  1  0
 39107  1  0
 41108  1  0
 41109  1  0
 41110  1  0
 44111  1  1
 45112  1  0
 45113  1  0
 45114  1  0
 46115  1  0
 49116  1  6
 50117  1  0
 54118  1  0
 56119  1  0
 57120  1  0
 58121  1  0
 59122  1  0
 62123  1  0
 62124  1  0
 66125  1  1
 67126  1  0
 68127  1  0
 68128  1  0
 68129  1  0
 69130  1  0
 69131  1  0
 69132  1  0
 71133  1  0
 71134  1  0
 71135  1  0
M  END
$$$$
