
     RDKit          3D

 74 77  0  0  0  0  0  0  0  0999 V2000
   -1.1891    1.9952    4.0466 C   0  0  0  0  0  0  0  0  0  0  0  0
   -1.2531    1.9902    2.6361 O   0  0  0  0  0  0  0  0  0  0  0  0
   -1.5098    0.6866    2.1310 C   0  0  2  0  0  0  0  0  0  0  0  0
   -0.5495    0.4004    0.9483 C   0  0  0  0  0  0  0  0  0  0  0  0
   -0.8211    1.1221   -0.3116 N   0  0  0  0  0  0  0  0  0  0  0  0
   -0.7812    2.5930   -0.3078 C   0  0  0  0  0  0  0  0  0  0  0  0
   -0.5146    0.4768   -1.5765 C   0  0  0  0  0  0  0  0  0  0  0  0
   -0.8693    1.0193   -2.6595 O   0  0  0  0  0  0  0  0  0  0  0  0
    0.3585   -0.7186   -1.6570 C   0  0  0  0  0  0  0  0  0  0  0  0
    1.6604   -0.5822   -1.1488 C   0  0  0  0  0  0  0  0  0  0  0  0
    2.5980   -1.6209   -1.2543 C   0  0  0  0  0  0  0  0  0  0  0  0
    3.9351   -1.4826   -0.7464 N   0  0  0  0  0  0  0  0  0  0  0  0
    4.2898   -0.5714    0.3063 C   0  0  0  0  0  0  0  0  0  0  0  0
    3.4503   -0.3169    1.2106 O   0  0  0  0  0  0  0  0  0  0  0  0
    5.6303    0.0558    0.3587 C   0  0  0  0  0  0  0  0  0  0  0  0
    6.5391   -0.0662   -0.7289 C   0  0  0  0  0  0  0  0  0  0  0  0
    7.8053    0.5419   -0.6755 C   0  0  0  0  0  0  0  0  0  0  0  0
    8.1258    1.2832    0.4574 C   0  0  0  0  0  0  0  0  0  0  0  0
    7.2615    1.4185    1.4930 C   0  0  0  0  0  0  0  0  0  0  0  0
    6.0063    0.8179    1.4908 C   0  0  0  0  0  0  0  0  0  0  0  0
    7.8335    2.2105    2.4691 O   0  0  0  0  0  0  0  0  0  0  0  0
    9.1389    2.5964    2.0188 C   0  0  0  0  0  0  0  0  0  0  0  0
    9.2879    1.9780    0.7334 O   0  0  0  0  0  0  0  0  0  0  0  0
    2.2378   -2.7890   -1.9290 C   0  0  0  0  0  0  0  0  0  0  0  0
    0.9513   -2.9428   -2.4449 C   0  0  0  0  0  0  0  0  0  0  0  0
   -0.0104   -1.9353   -2.3017 C   0  0  0  0  0  0  0  0  0  0  0  0
   -1.2956   -2.2367   -2.8001 O   0  0  0  0  0  0  0  0  0  0  0  0
   -2.5426   -1.6966   -2.3606 C   0  0  0  0  0  0  0  0  0  0  0  0
   -2.7943   -1.9798   -0.8661 C   0  0  2  0  0  0  0  0  0  0  0  0
   -3.4172   -3.3777   -0.6404 C   0  0  0  0  0  0  0  0  0  0  0  0
   -3.5426   -0.8657   -0.2127 N   0  0  0  0  0  0  0  0  0  0  0  0
   -4.9613   -0.7258   -0.6586 C   0  0  0  0  0  0  0  0  0  0  0  0
   -5.0845    0.2278   -1.8668 C   0  0  0  0  0  0  0  0  0  0  0  0
   -6.4915    0.8071   -2.0309 C   0  0  0  0  0  0  0  0  0  0  0  0
   -7.3938   -0.2066   -2.2790 F   0  0  0  0  0  0  0  0  0  0  0  0
   -6.8676    1.4940   -0.8920 F   0  0  0  0  0  0  0  0  0  0  0  0
   -6.4993    1.6891   -3.0967 F   0  0  0  0  0  0  0  0  0  0  0  0
   -3.4161   -0.9053    1.2714 C   0  0  0  0  0  0  0  0  0  0  0  0
   -3.0398    0.4737    1.8850 C   0  0  2  0  0  0  0  0  0  0  0  0
   -3.7430    1.6719    1.2198 C   0  0  0  0  0  0  0  0  0  0  0  0
   -1.0568    3.0399    4.3906 H   0  0  0  0  0  0  0  0  0  0  0  0
   -2.1273    1.6107    4.4993 H   0  0  0  0  0  0  0  0  0  0  0  0
   -0.3237    1.4024    4.4042 H   0  0  0  0  0  0  0  0  0  0  0  0
   -1.2239   -0.0963    2.8813 H   0  0  0  0  0  0  0  0  0  0  0  0
    0.4837    0.6437    1.2773 H   0  0  0  0  0  0  0  0  0  0  0  0
   -0.5465   -0.6900    0.7839 H   0  0  0  0  0  0  0  0  0  0  0  0
   -1.4128    3.0139    0.4938 H   0  0  0  0  0  0  0  0  0  0  0  0
    0.2695    2.9428   -0.1784 H   0  0  0  0  0  0  0  0  0  0  0  0
   -1.1821    3.0069   -1.2575 H   0  0  0  0  0  0  0  0  0  0  0  0
    1.9534    0.3643   -0.7169 H   0  0  0  0  0  0  0  0  0  0  0  0
    4.6717   -2.1339   -1.1040 H   0  0  0  0  0  0  0  0  0  0  0  0
    6.2737   -0.6123   -1.6227 H   0  0  0  0  0  0  0  0  0  0  0  0
    8.5078    0.4441   -1.4922 H   0  0  0  0  0  0  0  0  0  0  0  0
    5.3490    0.9454    2.3413 H   0  0  0  0  0  0  0  0  0  0  0  0
    9.1933    3.6962    1.9178 H   0  0  0  0  0  0  0  0  0  0  0  0
    9.9174    2.2242    2.7187 H   0  0  0  0  0  0  0  0  0  0  0  0
    2.9568   -3.5858   -2.0596 H   0  0  0  0  0  0  0  0  0  0  0  0
    0.6879   -3.8684   -2.9443 H   0  0  0  0  0  0  0  0  0  0  0  0
   -3.3456   -2.1592   -2.9686 H   0  0  0  0  0  0  0  0  0  0  0  0
   -2.5787   -0.6216   -2.5870 H   0  0  0  0  0  0  0  0  0  0  0  0
   -1.7933   -2.0410   -0.3969 H   0  0  0  0  0  0  0  0  0  0  0  0
   -2.6748   -4.1591   -0.9134 H   0  0  0  0  0  0  0  0  0  0  0  0
   -4.3133   -3.5490   -1.2703 H   0  0  0  0  0  0  0  0  0  0  0  0
   -3.6901   -3.5236    0.4229 H   0  0  0  0  0  0  0  0  0  0  0  0
   -5.5900   -0.3167    0.1586 H   0  0  0  0  0  0  0  0  0  0  0  0
   -5.4261   -1.7015   -0.9029 H   0  0  0  0  0  0  0  0  0  0  0  0
   -4.8424   -0.3172   -2.8019 H   0  0  0  0  0  0  0  0  0  0  0  0
   -4.3630    1.0638   -1.7665 H   0  0  0  0  0  0  0  0  0  0  0  0
   -4.3627   -1.2631    1.7414 H   0  0  0  0  0  0  0  0  0  0  0  0
   -2.6603   -1.6495    1.6072 H   0  0  0  0  0  0  0  0  0  0  0  0
   -3.4772    0.4460    2.9107 H   0  0  0  0  0  0  0  0  0  0  0  0
   -3.4212    1.8040    0.1710 H   0  0  0  0  0  0  0  0  0  0  0  0
   -4.8432    1.5326    1.2556 H   0  0  0  0  0  0  0  0  0  0  0  0
   -3.5315    2.6097    1.7768 H   0  0  0  0  0  0  0  0  0  0  0  0
  1  2  1  0
  2  3  1  0
  3  4  1  0
  4  5  1  0
  5  6  1  0
  5  7  1  0
  7  8  2  0
  7  9  1  0
  9 10  2  0
 10 11  1  0
 11 12  1  0
 12 13  1  0
 13 14  2  0
 13 15  1  0
 15 16  2  0
 16 17  1  0
 17 18  2  0
 18 19  1  0
 19 20  2  0
 19 21  1  0
 21 22  1  0
 22 23  1  0
 11 24  2  0
 24 25  1  0
 25 26  2  0
 26 27  1  0
 27 28  1  0
 28 29  1  0
 29 30  1  0
 29 31  1  0
 31 32  1  0
 32 33  1  0
 33 34  1  0
 34 35  1  0
 34 36  1  0
 34 37  1  0
 31 38  1  0
 38 39  1  0
 39 40  1  0
 39  3  1  0
 26  9  1  0
 20 15  1  0
 23 18  1  0
  1 41  1  0
  1 42  1  0
  1 43  1  0
  3 44  1  1
  4 45  1  0
  4 46  1  0
  6 47  1  0
  6 48  1  0
  6 49  1  0
 10 50  1  0
 12 51  1  0
 16 52  1  0
 17 53  1  0
 20 54  1  0
 22 55  1  0
 22 56  1  0
 24 57  1  0
 25 58  1  0
 28 59  1  0
 28 60  1  0
 29 61  1  1
 30 62  1  0
 30 63  1  0
 30 64  1  0
 32 65  1  0
 32 66  1  0
 33 67  1  0
 33 68  1  0
 38 69  1  0
 38 70  1  0
 39 71  1  1
 40 72  1  0
 40 73  1  0
 40 74  1  0
M  END
$$$$
