
     RDKit          3D

 67 70  0  0  0  0  0  0  0  0999 V2000
   -3.0979    2.1664   -1.7709 O   0  0  0  0  0  0  0  0  0  0  0  0
   -2.9421    1.8670   -0.5556 C   0  0  0  0  0  0  0  0  0  0  0  0
   -2.2598    2.8385    0.3172 C   0  0  0  0  0  0  0  0  0  0  0  0
   -3.0631    3.6895    1.0944 C   0  0  0  0  0  0  0  0  0  0  0  0
   -2.4876    4.5521    2.0279 C   0  0  0  0  0  0  0  0  0  0  0  0
   -1.1049    4.5683    2.2033 C   0  0  0  0  0  0  0  0  0  0  0  0
   -0.2927    3.7347    1.4321 C   0  0  0  0  0  0  0  0  0  0  0  0
   -0.8477    2.8832    0.4673 C   0  0  0  0  0  0  0  0  0  0  0  0
    0.0483    2.1024   -0.2800 O   0  0  0  0  0  0  0  0  0  0  0  0
   -0.0386    1.8676   -1.6839 C   0  0  0  0  0  0  0  0  0  0  0  0
    1.3423    1.5000   -2.2402 C   0  0  0  0  0  0  0  0  0  0  0  0
    1.9666    0.3967   -1.4899 N   0  0  0  0  0  0  0  0  0  0  0  0
    3.0020    0.6928   -0.5305 C   0  0  0  0  0  0  0  0  0  0  0  0
    2.9025    1.7265    0.1869 O   0  0  0  0  0  0  0  0  0  0  0  0
    4.1975   -0.2204   -0.3625 C   0  0  0  0  0  0  0  0  0  0  0  0
    5.5064    0.5317   -0.1432 C   0  0  0  0  0  0  0  0  0  0  0  0
    6.4130   -0.4535    0.5808 C   0  0  0  0  0  0  0  0  0  0  0  0
    5.4965   -1.4546    1.2833 C   0  0  0  0  0  0  0  0  0  0  0  0
    4.0686   -1.1366    0.8478 C   0  0  0  0  0  0  0  0  0  0  0  0
    1.4492   -0.9732   -1.6380 C   0  0  0  0  0  0  0  0  0  0  0  0
    0.5685   -1.3335   -0.4386 C   0  0  0  0  0  0  0  0  0  0  0  0
   -0.1445   -2.6790   -0.6277 C   0  0  0  0  0  0  0  0  0  0  0  0
   -1.2338   -2.9668    0.4351 C   0  0  0  0  0  0  0  0  0  0  0  0
   -2.5292   -2.0604    0.4600 C   0  0  0  0  0  0  0  0  0  0  0  0
   -3.7095   -2.9342    0.9935 C   0  0  0  0  0  0  0  0  0  0  0  0
   -4.0093   -3.9940    0.1203 O   0  0  0  0  0  0  0  0  0  0  0  0
   -2.3185   -0.8868    1.4851 C   0  0  0  0  0  0  0  0  0  0  0  0
   -3.3587    0.2382    1.3711 C   0  0  0  0  0  0  0  0  0  0  0  0
   -3.5075    0.6405   -0.0319 N   0  0  0  0  0  0  0  0  0  0  0  0
   -3.9573   -0.4198   -0.9358 C   0  0  0  0  0  0  0  0  0  0  0  0
   -2.8895   -1.5132   -0.9673 C   0  0  0  0  0  0  0  0  0  0  0  0
   -4.1421    3.6666    0.9930 H   0  0  0  0  0  0  0  0  0  0  0  0
   -3.1157    5.1979    2.6272 H   0  0  0  0  0  0  0  0  0  0  0  0
   -0.6606    5.2290    2.9364 H   0  0  0  0  0  0  0  0  0  0  0  0
    0.7810    3.7627    1.5717 H   0  0  0  0  0  0  0  0  0  0  0  0
   -0.3933    2.7869   -2.1991 H   0  0  0  0  0  0  0  0  0  0  0  0
   -0.7498    1.0454   -1.8968 H   0  0  0  0  0  0  0  0  0  0  0  0
    1.9939    2.4010   -2.2124 H   0  0  0  0  0  0  0  0  0  0  0  0
    1.2428    1.2145   -3.3100 H   0  0  0  0  0  0  0  0  0  0  0  0
    4.3243   -0.8433   -1.2760 H   0  0  0  0  0  0  0  0  0  0  0  0
    5.3575    1.4215    0.5080 H   0  0  0  0  0  0  0  0  0  0  0  0
    5.9509    0.8586   -1.1087 H   0  0  0  0  0  0  0  0  0  0  0  0
    7.0554   -0.9834   -0.1563 H   0  0  0  0  0  0  0  0  0  0  0  0
    7.0650    0.0742    1.3106 H   0  0  0  0  0  0  0  0  0  0  0  0
    5.7669   -2.4905    0.9829 H   0  0  0  0  0  0  0  0  0  0  0  0
    5.5921   -1.3671    2.3880 H   0  0  0  0  0  0  0  0  0  0  0  0
    3.5379   -0.6171    1.6778 H   0  0  0  0  0  0  0  0  0  0  0  0
    3.5175   -2.0668    0.5886 H   0  0  0  0  0  0  0  0  0  0  0  0
    2.2783   -1.7027   -1.7377 H   0  0  0  0  0  0  0  0  0  0  0  0
    0.8434   -1.0453   -2.5683 H   0  0  0  0  0  0  0  0  0  0  0  0
    1.1713   -1.3581    0.4929 H   0  0  0  0  0  0  0  0  0  0  0  0
   -0.1692   -0.5292   -0.3441 H   0  0  0  0  0  0  0  0  0  0  0  0
    0.6238   -3.4805   -0.5572 H   0  0  0  0  0  0  0  0  0  0  0  0
   -0.5784   -2.7641   -1.6468 H   0  0  0  0  0  0  0  0  0  0  0  0
   -1.5278   -4.0247    0.2614 H   0  0  0  0  0  0  0  0  0  0  0  0
   -0.7554   -2.9667    1.4398 H   0  0  0  0  0  0  0  0  0  0  0  0
   -3.4283   -3.3739    1.9752 H   0  0  0  0  0  0  0  0  0  0  0  0
   -4.6194   -2.3223    1.1853 H   0  0  0  0  0  0  0  0  0  0  0  0
   -4.7795   -3.7064   -0.4363 H   0  0  0  0  0  0  0  0  0  0  0  0
   -2.3470   -1.2833    2.5240 H   0  0  0  0  0  0  0  0  0  0  0  0
   -1.3217   -0.4244    1.3923 H   0  0  0  0  0  0  0  0  0  0  0  0
   -3.0576    1.0857    2.0194 H   0  0  0  0  0  0  0  0  0  0  0  0
   -4.3392   -0.1101    1.7581 H   0  0  0  0  0  0  0  0  0  0  0  0
   -4.1279   -0.0370   -1.9649 H   0  0  0  0  0  0  0  0  0  0  0  0
   -4.9268   -0.8326   -0.5839 H   0  0  0  0  0  0  0  0  0  0  0  0
   -2.0146   -1.0496   -1.4562 H   0  0  0  0  0  0  0  0  0  0  0  0
   -3.2170   -2.3351   -1.6380 H   0  0  0  0  0  0  0  0  0  0  0  0
  1  2  2  0
  2  3  1  0
  3  4  2  0
  4  5  1  0
  5  6  2  0
  6  7  1  0
  7  8  2  0
  8  9  1  0
  9 10  1  0
 10 11  1  0
 11 12  1  0
 12 13  1  0
 13 14  2  0
 13 15  1  0
 15 16  1  0
 16 17  1  0
 17 18  1  0
 18 19  1  0
 12 20  1  0
 20 21  1  0
 21 22  1  0
 22 23  1  0
 23 24  1  0
 24 25  1  0
 25 26  1  0
 24 27  1  0
 27 28  1  0
 28 29  1  0
 29 30  1  0
 30 31  1  0
 29  2  1  0
  8  3  1  0
 19 15  1  0
 31 24  1  0
  4 32  1  0
  5 33  1  0
  6 34  1  0
  7 35  1  0
 10 36  1  0
 10 37  1  0
 11 38  1  0
 11 39  1  0
 15 40  1  0
 16 41  1  0
 16 42  1  0
 17 43  1  0
 17 44  1  0
 18 45  1  0
 18 46  1  0
 19 47  1  0
 19 48  1  0
 20 49  1  0
 20 50  1  0
 21 51  1  0
 21 52  1  0
 22 53  1  0
 22 54  1  0
 23 55  1  0
 23 56  1  0
 25 57  1  0
 25 58  1  0
 26 59  1  0
 27 60  1  0
 27 61  1  0
 28 62  1  0
 28 63  1  0
 30 64  1  0
 30 65  1  0
 31 66  1  0
 31 67  1  0
M  END
$$$$
