
     RDKit          3D

 89 91  0  0  0  0  0  0  0  0999 V2000
   -0.1983    4.5728   -1.9828 C   0  0  0  0  0  0  0  0  0  0  0  0
   -0.0657    3.1992   -1.3200 C   0  0  0  0  0  0  0  0  0  0  0  0
   -0.7507    3.1309    0.0839 C   0  0  1  0  0  0  0  0  0  0  0  0
   -1.5239    1.9353    0.1463 O   0  0  0  0  0  0  0  0  0  0  0  0
   -2.7814    1.8285   -0.4561 C   0  0  0  0  0  0  0  0  0  0  0  0
   -3.6236    2.7622   -0.3394 O   0  0  0  0  0  0  0  0  0  0  0  0
   -3.1153    0.5832   -1.2316 C   0  0  2  0  0  0  0  0  0  0  0  0
   -3.9791    0.9259   -2.4613 C   0  0  0  0  0  0  0  0  0  0  0  0
   -3.7235   -0.5071   -0.2937 C   0  0  1  0  0  0  0  0  0  0  0  0
   -5.0481   -0.1757    0.0585 O   0  0  0  0  0  0  0  0  0  0  0  0
   -3.5934   -1.9687   -0.8716 C   0  0  2  0  0  0  0  0  0  0  0  0
   -4.7988   -2.8687   -0.5352 C   0  0  0  0  0  0  0  0  0  0  0  0
   -2.2249   -2.6802   -0.5459 C   0  0  1  0  0  0  0  0  0  0  0  0
   -1.1651   -1.8524   -0.9526 O   0  0  0  0  0  0  0  0  0  0  0  0
   -2.0022   -3.2021    0.9414 C   0  0  2  0  0  0  0  0  0  0  0  0
   -2.4401   -4.6963    1.0099 C   0  0  0  0  0  0  0  0  0  0  0  0
   -2.7976   -2.4635    1.8368 O   0  0  0  0  0  0  0  0  0  0  0  0
   -0.4847   -3.1376    1.3823 C   0  0  0  0  0  0  0  0  0  0  0  0
   -0.0419   -1.9310    2.2798 C   0  0  1  0  0  0  0  0  0  0  0  0
    1.2696   -2.2836    3.0237 C   0  0  0  0  0  0  0  0  0  0  0  0
    0.0944   -0.5815    1.4890 C   0  0  2  0  0  0  0  0  0  0  0  0
    1.0700   -0.7458    0.4581 O   0  0  0  0  0  0  0  0  0  0  0  0
    2.1580    0.1473    0.5663 C   0  0  0  0  0  0  0  0  0  0  0  0
    3.2089   -0.0874   -0.5371 C   0  0  0  0  0  0  0  0  0  0  0  0
    3.3000   -1.3045   -1.2895 C   0  0  0  0  0  0  0  0  0  0  0  0
    2.4834   -2.5326   -0.9904 C   0  0  0  0  0  0  0  0  0  0  0  0
    4.2007   -1.3992   -2.3639 C   0  0  0  0  0  0  0  0  0  0  0  0
    5.0684   -0.3566   -2.6735 C   0  0  0  0  0  0  0  0  0  0  0  0
    5.9918   -0.4793   -3.8499 C   0  0  0  0  0  0  0  0  0  0  0  0
    5.0712    0.7893   -1.8805 C   0  0  0  0  0  0  0  0  0  0  0  0
    4.1981    0.9176   -0.7894 C   0  0  0  0  0  0  0  0  0  0  0  0
    4.3496    2.1546    0.0586 C   0  0  0  0  0  0  0  0  0  0  0  0
    1.6444    1.4582    0.4521 O   0  0  0  0  0  0  0  0  0  0  0  0
    1.0012    1.8826    1.6426 C   0  0  2  0  0  0  0  0  0  0  0  0
    0.2949    0.6802    2.4088 C   0  0  1  0  0  0  0  0  0  0  0  0
   -0.9780    1.0166    3.2166 C   0  0  0  0  0  0  0  0  0  0  0  0
    0.2069    3.2227    1.3362 C   0  0  1  0  0  0  0  0  0  0  0  0
    1.2285    4.3767    1.1445 C   0  0  0  0  0  0  0  0  0  0  0  0
   -0.5566    3.5682    2.4674 O   0  0  0  0  0  0  0  0  0  0  0  0
    0.3205    5.3497   -1.3836 H   0  0  0  0  0  0  0  0  0  0  0  0
    0.2592    4.5444   -2.9962 H   0  0  0  0  0  0  0  0  0  0  0  0
   -1.2667    4.8557   -2.0925 H   0  0  0  0  0  0  0  0  0  0  0  0
   -0.5456    2.4676   -2.0072 H   0  0  0  0  0  0  0  0  0  0  0  0
    1.0069    2.9283   -1.2891 H   0  0  0  0  0  0  0  0  0  0  0  0
   -1.4550    3.9921    0.1566 H   0  0  0  0  0  0  0  0  0  0  0  0
   -2.1550    0.2118   -1.6396 H   0  0  0  0  0  0  0  0  0  0  0  0
   -4.9427    1.3853   -2.1634 H   0  0  0  0  0  0  0  0  0  0  0  0
   -3.4388    1.6592   -3.1030 H   0  0  0  0  0  0  0  0  0  0  0  0
   -4.1869    0.0194   -3.0743 H   0  0  0  0  0  0  0  0  0  0  0  0
   -3.1469   -0.4655    0.6478 H   0  0  0  0  0  0  0  0  0  0  0  0
   -5.6115   -0.2580   -0.7537 H   0  0  0  0  0  0  0  0  0  0  0  0
   -3.6264   -1.8820   -1.9806 H   0  0  0  0  0  0  0  0  0  0  0  0
   -4.6438   -3.8854   -0.9558 H   0  0  0  0  0  0  0  0  0  0  0  0
   -5.7229   -2.4772   -1.0098 H   0  0  0  0  0  0  0  0  0  0  0  0
   -4.9642   -2.9263    0.5622 H   0  0  0  0  0  0  0  0  0  0  0  0
   -2.1948   -3.5791   -1.2111 H   0  0  0  0  0  0  0  0  0  0  0  0
   -1.0968   -1.9202   -1.9416 H   0  0  0  0  0  0  0  0  0  0  0  0
   -2.3021   -5.1062    2.0353 H   0  0  0  0  0  0  0  0  0  0  0  0
   -3.5106   -4.8265    0.7628 H   0  0  0  0  0  0  0  0  0  0  0  0
   -1.8303   -5.3191    0.3168 H   0  0  0  0  0  0  0  0  0  0  0  0
   -2.7786   -2.9089    2.7256 H   0  0  0  0  0  0  0  0  0  0  0  0
    0.1820   -3.2353    0.5037 H   0  0  0  0  0  0  0  0  0  0  0  0
   -0.2624   -4.0567    1.9673 H   0  0  0  0  0  0  0  0  0  0  0  0
   -0.8045   -1.8267    3.0727 H   0  0  0  0  0  0  0  0  0  0  0  0
    1.2608   -3.3259    3.3971 H   0  0  0  0  0  0  0  0  0  0  0  0
    1.3949   -1.6456    3.9198 H   0  0  0  0  0  0  0  0  0  0  0  0
    2.1548   -2.1680    2.3710 H   0  0  0  0  0  0  0  0  0  0  0  0
   -0.8693   -0.4158    0.9773 H   0  0  0  0  0  0  0  0  0  0  0  0
    2.6983   -0.0084    1.5310 H   0  0  0  0  0  0  0  0  0  0  0  0
    2.5153   -2.7590    0.0954 H   0  0  0  0  0  0  0  0  0  0  0  0
    1.4470   -2.3807   -1.3520 H   0  0  0  0  0  0  0  0  0  0  0  0
    2.8740   -3.4347   -1.5083 H   0  0  0  0  0  0  0  0  0  0  0  0
    4.2400   -2.3007   -2.9655 H   0  0  0  0  0  0  0  0  0  0  0  0
    6.7179    0.3595   -3.8870 H   0  0  0  0  0  0  0  0  0  0  0  0
    6.5589   -1.4331   -3.7898 H   0  0  0  0  0  0  0  0  0  0  0  0
    5.3998   -0.4752   -4.7883 H   0  0  0  0  0  0  0  0  0  0  0  0
    5.7701    1.5860   -2.1061 H   0  0  0  0  0  0  0  0  0  0  0  0
    4.0759    1.9638    1.1161 H   0  0  0  0  0  0  0  0  0  0  0  0
    5.4067    2.5080    0.0608 H   0  0  0  0  0  0  0  0  0  0  0  0
    3.7206    2.9645   -0.3592 H   0  0  0  0  0  0  0  0  0  0  0  0
    1.8138    2.1980    2.3383 H   0  0  0  0  0  0  0  0  0  0  0  0
    1.0307    0.3865    3.1874 H   0  0  0  0  0  0  0  0  0  0  0  0
   -0.7498    1.7755    3.9955 H   0  0  0  0  0  0  0  0  0  0  0  0
   -1.3435    0.1378    3.7816 H   0  0  0  0  0  0  0  0  0  0  0  0
   -1.8066    1.3562    2.5609 H   0  0  0  0  0  0  0  0  0  0  0  0
    0.7019    5.3333    0.9425 H   0  0  0  0  0  0  0  0  0  0  0  0
    1.9293    4.1822    0.3146 H   0  0  0  0  0  0  0  0  0  0  0  0
    1.8316    4.5172    2.0669 H   0  0  0  0  0  0  0  0  0  0  0  0
   -1.0026    4.4407    2.3129 H   0  0  0  0  0  0  0  0  0  0  0  0
  1  2  1  0
  2  3  1  0
  3  4  1  0
  4  5  1  0
  5  6  2  0
  5  7  1  0
  7  8  1  0
  7  9  1  0
  9 10  1  0
  9 11  1  0
 11 12  1  0
 11 13  1  0
 13 14  1  0
 13 15  1  0
 15 16  1  0
 15 17  1  1
 15 18  1  0
 18 19  1  0
 19 20  1  0
 19 21  1  0
 21 22  1  0
 22 23  1  0
 23 24  1  0
 24 25  2  0
 25 26  1  0
 25 27  1  0
 27 28  2  0
 28 29  1  0
 28 30  1  0
 30 31  2  0
 31 32  1  0
 23 33  1  0
 33 34  1  0
 34 35  1  0
 35 36  1  0
 34 37  1  0
 37 38  1  0
 37 39  1  1
 37  3  1  0
 35 21  1  0
 31 24  1  0
  1 40  1  0
  1 41  1  0
  1 42  1  0
  2 43  1  0
  2 44  1  0
  3 45  1  1
  7 46  1  6
  8 47  1  0
  8 48  1  0
  8 49  1  0
  9 50  1  1
 10 51  1  0
 11 52  1  6
 12 53  1  0
 12 54  1  0
 12 55  1  0
 13 56  1  6
 14 57  1  0
 16 58  1  0
 16 59  1  0
 16 60  1  0
 17 61  1  0
 18 62  1  0
 18 63  1  0
 19 64  1  1
 20 65  1  0
 20 66  1  0
 20 67  1  0
 21 68  1  6
 23 69  1  0
 26 70  1  0
 26 71  1  0
 26 72  1  0
 27 73  1  0
 29 74  1  0
 29 75  1  0
 29 76  1  0
 30 77  1  0
 32 78  1  0
 32 79  1  0
 32 80  1  0
 34 81  1  1
 35 82  1  1
 36 83  1  0
 36 84  1  0
 36 85  1  0
 38 86  1  0
 38 87  1  0
 38 88  1  0
 39 89  1  0
M  END
$$$$
