
     RDKit          3D

 69 72  0  0  0  0  0  0  0  0999 V2000
   -6.7723    2.8172   -0.5638 C   0  0  0  0  0  0  0  0  0  0  0  0
   -5.5126    2.4329    0.2164 C   0  0  0  0  0  0  0  0  0  0  0  0
   -5.5873    1.0598    0.7664 N   0  0  0  0  0  0  0  0  0  0  0  0
   -5.7710   -0.0314   -0.2182 C   0  0  0  0  0  0  0  0  0  0  0  0
   -4.5088   -0.3597   -1.0107 C   0  0  0  0  0  0  0  0  0  0  0  0
   -4.6548    0.7377    1.8824 C   0  0  0  0  0  0  0  0  0  0  0  0
   -3.3191    1.5124    1.8998 C   0  0  0  0  0  0  0  0  0  0  0  0
   -2.4864    1.1675    0.7918 O   0  0  0  0  0  0  0  0  0  0  0  0
   -1.2392    1.7654    0.5219 C   0  0  0  0  0  0  0  0  0  0  0  0
   -0.8631    2.9897    1.1121 C   0  0  0  0  0  0  0  0  0  0  0  0
    0.3803    3.5620    0.8380 C   0  0  0  0  0  0  0  0  0  0  0  0
    1.2792    2.9304   -0.0259 C   0  0  0  0  0  0  0  0  0  0  0  0
    0.8952    1.7392   -0.6563 C   0  0  0  0  0  0  0  0  0  0  0  0
   -0.3367    1.1343   -0.3641 C   0  0  0  0  0  0  0  0  0  0  0  0
   -0.6034   -0.2335   -0.9368 C   0  0  0  0  0  0  0  0  0  0  0  0
    0.4087   -1.1350   -0.5296 O   0  0  0  0  0  0  0  0  0  0  0  0
    0.1381   -1.6618    0.7573 C   0  0  0  0  0  0  0  0  0  0  0  0
   -0.6386   -2.9461    0.6421 C   0  0  0  0  0  0  0  0  0  0  0  0
   -0.1172   -4.0999    0.1855 C   0  0  0  0  0  0  0  0  0  0  0  0
    1.3208   -4.2701   -0.2230 C   0  0  0  0  0  0  0  0  0  0  0  0
    1.5940   -3.4576   -1.3462 O   0  0  0  0  0  0  0  0  0  0  0  0
    2.9218   -3.6543   -1.7907 C   0  0  0  0  0  0  0  0  0  0  0  0
    3.9109   -2.8969   -0.9389 C   0  0  0  0  0  0  0  0  0  0  0  0
    4.8418   -3.5947   -0.1535 C   0  0  0  0  0  0  0  0  0  0  0  0
    5.7936   -2.8996    0.5934 C   0  0  0  0  0  0  0  0  0  0  0  0
    5.8309   -1.5038    0.5585 C   0  0  0  0  0  0  0  0  0  0  0  0
    4.9001   -0.7857   -0.2127 C   0  0  0  0  0  0  0  0  0  0  0  0
    3.9273   -1.4908   -0.9449 C   0  0  0  0  0  0  0  0  0  0  0  0
    4.9501    0.6927   -0.2687 C   0  0  0  0  0  0  0  0  0  0  0  0
    6.1721    1.3724   -0.3609 C   0  0  0  0  0  0  0  0  0  0  0  0
    6.1588    2.7636   -0.4399 C   0  0  0  0  0  0  0  0  0  0  0  0
    4.9782    3.4334   -0.4178 N   0  0  0  0  0  0  0  0  0  0  0  0
    3.7952    2.7695   -0.3251 C   0  0  0  0  0  0  0  0  0  0  0  0
    3.7937    1.4095   -0.2497 N   0  0  0  0  0  0  0  0  0  0  0  0
    2.5709    3.5182   -0.2555 N   0  0  0  0  0  0  0  0  0  0  0  0
   -7.6824    2.4867   -0.0198 H   0  0  0  0  0  0  0  0  0  0  0  0
   -6.8134    3.9203   -0.6826 H   0  0  0  0  0  0  0  0  0  0  0  0
   -6.7580    2.3692   -1.5792 H   0  0  0  0  0  0  0  0  0  0  0  0
   -5.4497    3.1582    1.0561 H   0  0  0  0  0  0  0  0  0  0  0  0
   -4.6158    2.5593   -0.4267 H   0  0  0  0  0  0  0  0  0  0  0  0
   -6.1060   -0.9491    0.3130 H   0  0  0  0  0  0  0  0  0  0  0  0
   -6.5910    0.2089   -0.9239 H   0  0  0  0  0  0  0  0  0  0  0  0
   -4.7651   -1.0459   -1.8447 H   0  0  0  0  0  0  0  0  0  0  0  0
   -4.0474    0.5530   -1.4386 H   0  0  0  0  0  0  0  0  0  0  0  0
   -3.7897   -0.8837   -0.3530 H   0  0  0  0  0  0  0  0  0  0  0  0
   -4.4340   -0.3520    1.9237 H   0  0  0  0  0  0  0  0  0  0  0  0
   -5.1809    0.9696    2.8326 H   0  0  0  0  0  0  0  0  0  0  0  0
   -2.7810    1.2516    2.8360 H   0  0  0  0  0  0  0  0  0  0  0  0
   -3.5090    2.6016    1.9321 H   0  0  0  0  0  0  0  0  0  0  0  0
   -1.5155    3.5128    1.7942 H   0  0  0  0  0  0  0  0  0  0  0  0
    0.6535    4.4920    1.3199 H   0  0  0  0  0  0  0  0  0  0  0  0
    1.5580    1.2650   -1.3683 H   0  0  0  0  0  0  0  0  0  0  0  0
   -1.6142   -0.6139   -0.6889 H   0  0  0  0  0  0  0  0  0  0  0  0
   -0.5725   -0.1569   -2.0446 H   0  0  0  0  0  0  0  0  0  0  0  0
   -0.4151   -0.9494    1.4132 H   0  0  0  0  0  0  0  0  0  0  0  0
    1.1021   -1.8557    1.2725 H   0  0  0  0  0  0  0  0  0  0  0  0
   -1.6801   -2.9365    0.9519 H   0  0  0  0  0  0  0  0  0  0  0  0
   -0.7631   -4.9722    0.1426 H   0  0  0  0  0  0  0  0  0  0  0  0
    1.4806   -5.3466   -0.4648 H   0  0  0  0  0  0  0  0  0  0  0  0
    1.9713   -3.9982    0.6377 H   0  0  0  0  0  0  0  0  0  0  0  0
    2.9937   -3.2647   -2.8286 H   0  0  0  0  0  0  0  0  0  0  0  0
    3.1842   -4.7362   -1.8636 H   0  0  0  0  0  0  0  0  0  0  0  0
    4.8376   -4.6778   -0.1271 H   0  0  0  0  0  0  0  0  0  0  0  0
    6.5103   -3.4433    1.1953 H   0  0  0  0  0  0  0  0  0  0  0  0
    6.5782   -0.9859    1.1462 H   0  0  0  0  0  0  0  0  0  0  0  0
    3.2093   -0.9510   -1.5520 H   0  0  0  0  0  0  0  0  0  0  0  0
    7.1131    0.8388   -0.3935 H   0  0  0  0  0  0  0  0  0  0  0  0
    7.0875    3.3126   -0.5198 H   0  0  0  0  0  0  0  0  0  0  0  0
    2.6531    4.5573   -0.1802 H   0  0  0  0  0  0  0  0  0  0  0  0
  1  2  1  0
  2  3  1  0
  3  4  1  0
  4  5  1  0
  3  6  1  0
  6  7  1  0
  7  8  1  0
  8  9  1  0
  9 10  2  0
 10 11  1  0
 11 12  2  0
 12 13  1  0
 13 14  2  0
 14 15  1  0
 15 16  1  0
 16 17  1  0
 17 18  1  0
 18 19  2  3
 19 20  1  0
 20 21  1  0
 21 22  1  0
 22 23  1  0
 23 24  2  0
 24 25  1  0
 25 26  2  0
 26 27  1  0
 27 28  2  0
 27 29  1  0
 29 30  2  0
 30 31  1  0
 31 32  2  0
 32 33  1  0
 33 34  2  0
 33 35  1  0
 14  9  1  0
 28 23  1  0
 34 29  1  0
 35 12  1  0
  1 36  1  0
  1 37  1  0
  1 38  1  0
  2 39  1  0
  2 40  1  0
  4 41  1  0
  4 42  1  0
  5 43  1  0
  5 44  1  0
  5 45  1  0
  6 46  1  0
  6 47  1  0
  7 48  1  0
  7 49  1  0
 10 50  1  0
 11 51  1  0
 13 52  1  0
 15 53  1  0
 15 54  1  0
 17 55  1  0
 17 56  1  0
 18 57  1  0
 19 58  1  0
 20 59  1  0
 20 60  1  0
 22 61  1  0
 22 62  1  0
 24 63  1  0
 25 64  1  0
 26 65  1  0
 28 66  1  0
 30 67  1  0
 31 68  1  0
 35 69  1  0
M  END
$$$$
