
     RDKit          3D

 73 76  0  0  0  0  0  0  0  0999 V2000
    4.1679   -0.3998   -1.0781 C   0  0  0  0  0  0  0  0  0  0  0  0
    5.2126    0.4181   -0.2807 C   0  0  0  0  0  0  0  0  0  0  0  0
    5.3736    1.7824   -0.9995 C   0  0  0  0  0  0  0  0  0  0  0  0
    4.7231    0.6646    1.1743 C   0  0  0  0  0  0  0  0  0  0  0  0
    3.4571    1.4011    1.2213 N   0  0  0  0  0  0  0  0  0  0  0  0
    2.1825    0.7491    1.3592 C   0  0  0  0  0  0  0  0  0  0  0  0
    2.1253   -0.5076    1.4438 O   0  0  0  0  0  0  0  0  0  0  0  0
    0.9215    1.5672    1.4679 C   0  0  0  0  0  0  0  0  0  0  0  0
   -0.1427    1.0260    0.5879 N   0  0  0  0  0  0  0  0  0  0  0  0
   -0.8678   -0.0944    1.2467 C   0  0  0  0  0  0  0  0  0  0  0  0
   -1.1059   -1.2427    0.2488 C   0  0  0  0  0  0  0  0  0  0  0  0
   -2.2809   -2.1412    0.6771 C   0  0  0  0  0  0  0  0  0  0  0  0
   -3.0334   -2.7299   -0.5325 C   0  0  0  0  0  0  0  0  0  0  0  0
   -4.4061   -3.2971   -0.1234 C   0  0  0  0  0  0  0  0  0  0  0  0
   -5.5470   -2.2596   -0.1519 C   0  0  0  0  0  0  0  0  0  0  0  0
   -5.0910   -0.9701    0.2620 O   0  0  0  0  0  0  0  0  0  0  0  0
   -5.9093    0.1278    0.5716 C   0  0  0  0  0  0  0  0  0  0  0  0
   -7.3028   -0.0011    0.7475 C   0  0  0  0  0  0  0  0  0  0  0  0
   -8.0685    1.1005    1.1398 C   0  0  0  0  0  0  0  0  0  0  0  0
   -7.4571    2.3340    1.3687 C   0  0  0  0  0  0  0  0  0  0  0  0
   -6.0816    2.4765    1.1820 C   0  0  0  0  0  0  0  0  0  0  0  0
   -5.3086    1.3910    0.7528 C   0  0  0  0  0  0  0  0  0  0  0  0
   -3.9447    1.5971    0.5072 O   0  0  0  0  0  0  0  0  0  0  0  0
   -3.3501    1.3874   -0.7458 C   0  0  0  0  0  0  0  0  0  0  0  0
   -4.0994    0.9394   -1.7924 N   0  0  0  0  0  0  0  0  0  0  0  0
   -3.5728    0.7396   -3.0286 C   0  0  0  0  0  0  0  0  0  0  0  0
   -2.2280    1.0131   -3.2660 C   0  0  0  0  0  0  0  0  0  0  0  0
   -1.4316    1.4773   -2.2205 C   0  0  0  0  0  0  0  0  0  0  0  0
   -1.9806    1.6664   -0.9419 C   0  0  0  0  0  0  0  0  0  0  0  0
   -1.0787    2.1084    0.1870 C   0  0  0  0  0  0  0  0  0  0  0  0
    6.5377   -0.3734   -0.2139 C   0  0  0  0  0  0  0  0  0  0  0  0
    7.7873    0.1925   -0.5699 C   0  0  0  0  0  0  0  0  0  0  0  0
    8.9680   -0.5495   -0.4665 C   0  0  0  0  0  0  0  0  0  0  0  0
    8.9350   -1.8609    0.0049 C   0  0  0  0  0  0  0  0  0  0  0  0
    7.7203   -2.4353    0.3774 C   0  0  0  0  0  0  0  0  0  0  0  0
    7.6885   -3.7062    0.8476 F   0  0  0  0  0  0  0  0  0  0  0  0
    6.5355   -1.7010    0.2754 C   0  0  0  0  0  0  0  0  0  0  0  0
    3.8572   -1.3159   -0.5363 H   0  0  0  0  0  0  0  0  0  0  0  0
    4.5810   -0.6969   -2.0657 H   0  0  0  0  0  0  0  0  0  0  0  0
    3.2495    0.1963   -1.2645 H   0  0  0  0  0  0  0  0  0  0  0  0
    6.0275    2.4659   -0.4161 H   0  0  0  0  0  0  0  0  0  0  0  0
    5.8050    1.6422   -2.0141 H   0  0  0  0  0  0  0  0  0  0  0  0
    4.3922    2.2890   -1.1273 H   0  0  0  0  0  0  0  0  0  0  0  0
    4.6190   -0.2948    1.7249 H   0  0  0  0  0  0  0  0  0  0  0  0
    5.4913    1.2539    1.7227 H   0  0  0  0  0  0  0  0  0  0  0  0
    3.4926    2.4422    1.1534 H   0  0  0  0  0  0  0  0  0  0  0  0
    0.5877    1.6066    2.5295 H   0  0  0  0  0  0  0  0  0  0  0  0
    1.1757    2.6124    1.1861 H   0  0  0  0  0  0  0  0  0  0  0  0
   -1.8250    0.2615    1.6860 H   0  0  0  0  0  0  0  0  0  0  0  0
   -0.3014   -0.5193    2.1049 H   0  0  0  0  0  0  0  0  0  0  0  0
   -0.1825   -1.8540    0.1596 H   0  0  0  0  0  0  0  0  0  0  0  0
   -1.2939   -0.8295   -0.7611 H   0  0  0  0  0  0  0  0  0  0  0  0
   -2.9941   -1.5678    1.3000 H   0  0  0  0  0  0  0  0  0  0  0  0
   -1.8977   -2.9645    1.3158 H   0  0  0  0  0  0  0  0  0  0  0  0
   -3.1786   -1.9635   -1.3272 H   0  0  0  0  0  0  0  0  0  0  0  0
   -2.4163   -3.5462   -0.9683 H   0  0  0  0  0  0  0  0  0  0  0  0
   -4.3384   -3.7493    0.8926 H   0  0  0  0  0  0  0  0  0  0  0  0
   -4.6740   -4.1204   -0.8225 H   0  0  0  0  0  0  0  0  0  0  0  0
   -6.3437   -2.6261    0.5276 H   0  0  0  0  0  0  0  0  0  0  0  0
   -5.9601   -2.1827   -1.1807 H   0  0  0  0  0  0  0  0  0  0  0  0
   -7.8040   -0.9459    0.5980 H   0  0  0  0  0  0  0  0  0  0  0  0
   -9.1368    0.9960    1.2743 H   0  0  0  0  0  0  0  0  0  0  0  0
   -8.0529    3.1838    1.6737 H   0  0  0  0  0  0  0  0  0  0  0  0
   -5.6173    3.4441    1.3333 H   0  0  0  0  0  0  0  0  0  0  0  0
   -4.2046    0.3809   -3.8304 H   0  0  0  0  0  0  0  0  0  0  0  0
   -1.8057    0.8645   -4.2506 H   0  0  0  0  0  0  0  0  0  0  0  0
   -0.3855    1.6810   -2.4023 H   0  0  0  0  0  0  0  0  0  0  0  0
   -1.6602    2.4746    1.0617 H   0  0  0  0  0  0  0  0  0  0  0  0
   -0.5120    2.9877   -0.1899 H   0  0  0  0  0  0  0  0  0  0  0  0
    7.8755    1.2067   -0.9294 H   0  0  0  0  0  0  0  0  0  0  0  0
    9.9136   -0.1008   -0.7468 H   0  0  0  0  0  0  0  0  0  0  0  0
    9.8536   -2.4272    0.0887 H   0  0  0  0  0  0  0  0  0  0  0  0
    5.6162   -2.1742    0.5929 H   0  0  0  0  0  0  0  0  0  0  0  0
  1  2  1  0
  2  3  1  0
  2  4  1  0
  4  5  1  0
  5  6  1  0
  6  7  2  0
  6  8  1  0
  8  9  1  0
  9 10  1  0
 10 11  1  0
 11 12  1  0
 12 13  1  0
 13 14  1  0
 14 15  1  0
 15 16  1  0
 16 17  1  0
 17 18  2  0
 18 19  1  0
 19 20  2  0
 20 21  1  0
 21 22  2  0
 22 23  1  0
 23 24  1  0
 24 25  2  0
 25 26  1  0
 26 27  2  0
 27 28  1  0
 28 29  2  0
 29 30  1  0
  2 31  1  0
 31 32  2  0
 32 33  1  0
 33 34  2  0
 34 35  1  0
 35 36  1  0
 35 37  2  0
 30  9  1  0
 37 31  1  0
 22 17  1  0
 29 24  1  0
  1 38  1  0
  1 39  1  0
  1 40  1  0
  3 41  1  0
  3 42  1  0
  3 43  1  0
  4 44  1  0
  4 45  1  0
  5 46  1  0
  8 47  1  0
  8 48  1  0
 10 49  1  0
 10 50  1  0
 11 51  1  0
 11 52  1  0
 12 53  1  0
 12 54  1  0
 13 55  1  0
 13 56  1  0
 14 57  1  0
 14 58  1  0
 15 59  1  0
 15 60  1  0
 18 61  1  0
 19 62  1  0
 20 63  1  0
 21 64  1  0
 26 65  1  0
 27 66  1  0
 28 67  1  0
 30 68  1  0
 30 69  1  0
 32 70  1  0
 33 71  1  0
 34 72  1  0
 37 73  1  0
M  END
$$$$
