
     RDKit          3D

 65 66  0  0  0  0  0  0  0  0999 V2000
    7.6508    2.6357    0.5896 C   0  0  0  0  0  0  0  0  0  0  0  0
    6.3784    2.1962    0.1538 O   0  0  0  0  0  0  0  0  0  0  0  0
    5.7146    1.4899    1.1885 C   0  0  0  0  0  0  0  0  0  0  0  0
    5.7764   -0.0206    0.9296 C   0  0  0  0  0  0  0  0  0  0  0  0
    5.0269   -0.4348   -0.3462 C   0  0  0  0  0  0  0  0  0  0  0  0
    3.5765   -0.3126   -0.1841 N   0  0  0  0  0  0  0  0  0  0  0  0
    2.6752   -0.6090   -1.2651 C   0  0  0  0  0  0  0  0  0  0  0  0
    3.1248   -1.0108   -2.3772 O   0  0  0  0  0  0  0  0  0  0  0  0
    1.1938   -0.4370   -1.0802 C   0  0  0  0  0  0  0  0  0  0  0  0
    0.6703    0.7305   -1.9317 C   0  0  0  0  0  0  0  0  0  0  0  0
   -0.7766    1.0035   -1.6389 C   0  0  0  0  0  0  0  0  0  0  0  0
   -1.6338    0.1123   -1.8685 O   0  0  0  0  0  0  0  0  0  0  0  0
   -1.1854    2.2747   -1.1061 N   0  0  0  0  0  0  0  0  0  0  0  0
   -2.2005    2.4062   -0.0500 C   0  0  0  0  0  0  0  0  0  0  0  0
   -1.6618    1.8043    1.2776 C   0  0  0  0  0  0  0  0  0  0  0  0
   -0.2823    2.3664    1.6549 C   0  0  0  0  0  0  0  0  0  0  0  0
   -2.5623    2.0202    2.3363 O   0  0  0  0  0  0  0  0  0  0  0  0
   -3.5109    1.7986   -0.5114 C   0  0  0  0  0  0  0  0  0  0  0  0
   -3.8866    1.9821   -1.7021 O   0  0  0  0  0  0  0  0  0  0  0  0
   -4.3788    1.0856    0.3830 N   0  0  0  0  0  0  0  0  0  0  0  0
   -5.3786    1.8426    1.1295 C   0  0  0  0  0  0  0  0  0  0  0  0
   -4.5586   -0.3676    0.2147 C   0  0  0  0  0  0  0  0  0  0  0  0
   -3.7402   -1.1638    1.2460 C   0  0  0  0  0  0  0  0  0  0  0  0
   -2.5680   -1.7224    0.6471 O   0  0  0  0  0  0  0  0  0  0  0  0
   -2.5471   -2.8395   -0.2112 C   0  0  0  0  0  0  0  0  0  0  0  0
   -3.7239   -3.5414   -0.5527 C   0  0  0  0  0  0  0  0  0  0  0  0
   -3.6657   -4.6431   -1.4123 C   0  0  0  0  0  0  0  0  0  0  0  0
   -2.4400   -5.0488   -1.9482 C   0  0  0  0  0  0  0  0  0  0  0  0
   -1.2676   -4.3602   -1.6199 C   0  0  0  0  0  0  0  0  0  0  0  0
   -1.3142   -3.2632   -0.7463 C   0  0  0  0  0  0  0  0  0  0  0  0
   -0.0826   -2.5279   -0.4371 C   0  0  0  0  0  0  0  0  0  0  0  0
    0.4442   -2.6373    0.7081 O   0  0  0  0  0  0  0  0  0  0  0  0
    0.5019   -1.6781   -1.4340 N   0  0  0  0  0  0  0  0  0  0  0  0
    7.5521    3.4121    1.3827 H   0  0  0  0  0  0  0  0  0  0  0  0
    8.1770    3.0923   -0.2763 H   0  0  0  0  0  0  0  0  0  0  0  0
    8.2723    1.7909    0.9571 H   0  0  0  0  0  0  0  0  0  0  0  0
    4.6521    1.8189    1.2032 H   0  0  0  0  0  0  0  0  0  0  0  0
    6.1222    1.7019    2.2089 H   0  0  0  0  0  0  0  0  0  0  0  0
    5.3572   -0.5663    1.7995 H   0  0  0  0  0  0  0  0  0  0  0  0
    6.8447   -0.3200    0.8354 H   0  0  0  0  0  0  0  0  0  0  0  0
    5.3595    0.1991   -1.1978 H   0  0  0  0  0  0  0  0  0  0  0  0
    5.2793   -1.4952   -0.5786 H   0  0  0  0  0  0  0  0  0  0  0  0
    3.1777   -0.0131    0.7369 H   0  0  0  0  0  0  0  0  0  0  0  0
    0.9948   -0.1898   -0.0118 H   0  0  0  0  0  0  0  0  0  0  0  0
    1.2708    1.6383   -1.7050 H   0  0  0  0  0  0  0  0  0  0  0  0
    0.7916    0.5006   -3.0154 H   0  0  0  0  0  0  0  0  0  0  0  0
   -0.5817    3.1057   -1.2910 H   0  0  0  0  0  0  0  0  0  0  0  0
   -2.3832    3.4902    0.1137 H   0  0  0  0  0  0  0  0  0  0  0  0
   -1.5416    0.7117    1.1441 H   0  0  0  0  0  0  0  0  0  0  0  0
   -0.3149    3.4772    1.6986 H   0  0  0  0  0  0  0  0  0  0  0  0
    0.4719    2.0661    0.8983 H   0  0  0  0  0  0  0  0  0  0  0  0
    0.0418    1.9756    2.6456 H   0  0  0  0  0  0  0  0  0  0  0  0
   -2.5990    2.9969    2.5060 H   0  0  0  0  0  0  0  0  0  0  0  0
   -4.9933    2.8475    1.4001 H   0  0  0  0  0  0  0  0  0  0  0  0
   -6.2911    1.9667    0.5004 H   0  0  0  0  0  0  0  0  0  0  0  0
   -5.6515    1.3090    2.0658 H   0  0  0  0  0  0  0  0  0  0  0  0
   -5.6316   -0.6340    0.3022 H   0  0  0  0  0  0  0  0  0  0  0  0
   -4.2706   -0.6611   -0.8245 H   0  0  0  0  0  0  0  0  0  0  0  0
   -3.4326   -0.5008    2.0858 H   0  0  0  0  0  0  0  0  0  0  0  0
   -4.3545   -1.9681    1.7049 H   0  0  0  0  0  0  0  0  0  0  0  0
   -4.6878   -3.2388   -0.1667 H   0  0  0  0  0  0  0  0  0  0  0  0
   -4.5704   -5.1826   -1.6677 H   0  0  0  0  0  0  0  0  0  0  0  0
   -2.3957   -5.8964   -2.6225 H   0  0  0  0  0  0  0  0  0  0  0  0
   -0.3253   -4.6779   -2.0492 H   0  0  0  0  0  0  0  0  0  0  0  0
    0.2909   -1.8870   -2.4388 H   0  0  0  0  0  0  0  0  0  0  0  0
  1  2  1  0
  2  3  1  0
  3  4  1  0
  4  5  1  0
  5  6  1  0
  6  7  1  0
  7  8  2  0
  7  9  1  0
  9 10  1  0
 10 11  1  0
 11 12  2  0
 11 13  1  0
 13 14  1  0
 14 15  1  0
 15 16  1  0
 15 17  1  0
 14 18  1  0
 18 19  2  0
 18 20  1  0
 20 21  1  0
 20 22  1  0
 22 23  1  0
 23 24  1  0
 24 25  1  0
 25 26  2  0
 26 27  1  0
 27 28  2  0
 28 29  1  0
 29 30  2  0
 30 31  1  0
 31 32  2  0
 31 33  1  0
 33  9  1  0
 30 25  1  0
  1 34  1  0
  1 35  1  0
  1 36  1  0
  3 37  1  0
  3 38  1  0
  4 39  1  0
  4 40  1  0
  5 41  1  0
  5 42  1  0
  6 43  1  0
  9 44  1  0
 10 45  1  0
 10 46  1  0
 13 47  1  0
 14 48  1  0
 15 49  1  0
 16 50  1  0
 16 51  1  0
 16 52  1  0
 17 53  1  0
 21 54  1  0
 21 55  1  0
 21 56  1  0
 22 57  1  0
 22 58  1  0
 23 59  1  0
 23 60  1  0
 26 61  1  0
 27 62  1  0
 28 63  1  0
 29 64  1  0
 33 65  1  0
M  END
$$$$
