
     RDKit          3D

 93 96  0  0  0  0  0  0  0  0999 V2000
    2.4926    1.3324    2.6650 C   0  0  0  0  0  0  0  0  0  0  0  0
    1.6381    0.5561    1.6440 C   0  0  1  0  0  0  0  0  0  0  0  0
    0.1602    1.0622    1.6544 C   0  0  0  0  0  0  0  0  0  0  0  0
   -0.7671   -0.0298    2.0086 N   0  0  0  0  0  0  0  0  0  0  0  0
   -1.4305   -0.0364    3.3280 C   0  0  2  0  0  0  0  0  0  0  0  0
   -0.9711   -1.2218    4.1857 C   0  0  0  0  0  0  0  0  0  0  0  0
   -2.9597    0.0247    3.1820 C   0  0  0  0  0  0  0  0  0  0  0  0
   -3.4622   -1.1088    2.5370 O   0  0  0  0  0  0  0  0  0  0  0  0
   -0.9486   -1.1072    1.0656 C   0  0  0  0  0  0  0  0  0  0  0  0
   -0.7883   -2.2962    1.4368 O   0  0  0  0  0  0  0  0  0  0  0  0
   -1.2344   -0.8336   -0.3628 C   0  0  0  0  0  0  0  0  0  0  0  0
   -2.2283    0.0911   -0.6963 C   0  0  0  0  0  0  0  0  0  0  0  0
   -2.5748    0.3213   -2.0360 C   0  0  0  0  0  0  0  0  0  0  0  0
   -3.7221    1.1271   -2.3610 N   0  0  0  0  0  0  0  0  0  0  0  0
   -4.9806    0.9565   -1.6858 C   0  0  0  0  0  0  0  0  0  0  0  0
   -5.1782   -0.0824   -0.9913 O   0  0  0  0  0  0  0  0  0  0  0  0
   -6.0342    1.9224   -1.8503 N   0  0  0  0  0  0  0  0  0  0  0  0
   -7.2329    1.9326   -1.0518 C   0  0  0  0  0  0  0  0  0  0  0  0
   -7.2167    1.5505    0.3065 C   0  0  0  0  0  0  0  0  0  0  0  0
   -8.3968    1.5780    1.0584 C   0  0  0  0  0  0  0  0  0  0  0  0
   -9.5944    1.9996    0.4713 C   0  0  0  0  0  0  0  0  0  0  0  0
  -10.7334    2.0316    1.2074 F   0  0  0  0  0  0  0  0  0  0  0  0
   -9.6131    2.3951   -0.8691 C   0  0  0  0  0  0  0  0  0  0  0  0
   -8.4374    2.3655   -1.6268 C   0  0  0  0  0  0  0  0  0  0  0  0
   -1.8426   -0.3037   -3.0533 C   0  0  0  0  0  0  0  0  0  0  0  0
   -0.8432   -1.2350   -2.7321 C   0  0  0  0  0  0  0  0  0  0  0  0
   -0.5689   -1.5428   -1.3842 C   0  0  0  0  0  0  0  0  0  0  0  0
    0.3624   -2.5212   -1.0120 O   0  0  0  0  0  0  0  0  0  0  0  0
    0.8017   -3.6413   -1.7722 C   0  0  2  0  0  0  0  0  0  0  0  0
   -0.4089   -4.4901   -2.2005 C   0  0  0  0  0  0  0  0  0  0  0  0
    1.7188   -4.5049   -0.8799 C   0  0  0  0  0  0  0  0  0  0  0  0
    3.1072   -3.8944   -0.5874 C   0  0  0  0  0  0  0  0  0  0  0  0
    3.0719   -2.6052    0.2683 C   0  0  0  0  0  0  0  0  0  0  0  0
    3.4075   -1.3631   -0.5778 C   0  0  0  0  0  0  0  0  0  0  0  0
    3.4649   -0.1992    0.2309 O   0  0  0  0  0  0  0  0  0  0  0  0
    2.2611    0.5599    0.2064 C   0  0  2  0  0  0  0  0  0  0  0  0
    2.5749    2.0053   -0.2917 C   0  0  0  0  0  0  0  0  0  0  0  0
    2.7060    2.1746   -1.7578 N   0  0  0  0  0  0  0  0  0  0  0  0
    1.5975    1.6253   -2.5523 C   0  0  0  0  0  0  0  0  0  0  0  0
    4.2678    1.7736   -2.4362 S   0  0  0  0  0  6  0  0  0  0  0  0
    4.3155    0.3351   -2.8513 O   0  0  0  0  0  0  0  0  0  0  0  0
    4.4655    2.6173   -3.6671 O   0  0  0  0  0  0  0  0  0  0  0  0
    5.6018    2.1310   -1.3480 C   0  0  0  0  0  0  0  0  0  0  0  0
    6.2141    1.2355   -0.4900 C   0  0  0  0  0  0  0  0  0  0  0  0
    7.2276    1.8804    0.1010 N   0  0  0  0  0  0  0  0  0  0  0  0
    8.0684    1.3598    1.1749 C   0  0  0  0  0  0  0  0  0  0  0  0
    7.2111    3.1407   -0.3922 C   0  0  0  0  0  0  0  0  0  0  0  0
    6.2333    3.3269   -1.2964 N   0  0  0  0  0  0  0  0  0  0  0  0
    2.4452    2.4216    2.4679 H   0  0  0  0  0  0  0  0  0  0  0  0
    3.5570    1.0059    2.6178 H   0  0  0  0  0  0  0  0  0  0  0  0
    2.1111    1.1481    3.6939 H   0  0  0  0  0  0  0  0  0  0  0  0
    1.6419   -0.5025    1.9907 H   0  0  0  0  0  0  0  0  0  0  0  0
    0.0470    1.9147    2.3647 H   0  0  0  0  0  0  0  0  0  0  0  0
   -0.1283    1.4859    0.6661 H   0  0  0  0  0  0  0  0  0  0  0  0
   -1.1333    0.8744    3.8901 H   0  0  0  0  0  0  0  0  0  0  0  0
    0.1369   -1.3212    4.1469 H   0  0  0  0  0  0  0  0  0  0  0  0
   -1.4185   -2.1805    3.8411 H   0  0  0  0  0  0  0  0  0  0  0  0
   -1.2770   -1.0596    5.2445 H   0  0  0  0  0  0  0  0  0  0  0  0
   -3.2228    0.9261    2.5804 H   0  0  0  0  0  0  0  0  0  0  0  0
   -3.4266    0.1656    4.1815 H   0  0  0  0  0  0  0  0  0  0  0  0
   -3.7312   -1.7442    3.2527 H   0  0  0  0  0  0  0  0  0  0  0  0
   -2.7734    0.5941    0.0896 H   0  0  0  0  0  0  0  0  0  0  0  0
   -3.6845    1.7480   -3.1968 H   0  0  0  0  0  0  0  0  0  0  0  0
   -5.9645    2.5901   -2.6530 H   0  0  0  0  0  0  0  0  0  0  0  0
   -6.2939    1.2622    0.7977 H   0  0  0  0  0  0  0  0  0  0  0  0
   -8.3776    1.2709    2.0983 H   0  0  0  0  0  0  0  0  0  0  0  0
  -10.5396    2.7246   -1.3220 H   0  0  0  0  0  0  0  0  0  0  0  0
   -8.4659    2.6662   -2.6657 H   0  0  0  0  0  0  0  0  0  0  0  0
   -2.0814   -0.1094   -4.0957 H   0  0  0  0  0  0  0  0  0  0  0  0
   -0.3088   -1.7134   -3.5357 H   0  0  0  0  0  0  0  0  0  0  0  0
    1.3540   -3.2898   -2.6769 H   0  0  0  0  0  0  0  0  0  0  0  0
   -1.0809   -4.6837   -1.3293 H   0  0  0  0  0  0  0  0  0  0  0  0
   -0.9994   -3.9567   -2.9833 H   0  0  0  0  0  0  0  0  0  0  0  0
   -0.0800   -5.4595   -2.6428 H   0  0  0  0  0  0  0  0  0  0  0  0
    1.1972   -4.7251    0.0790 H   0  0  0  0  0  0  0  0  0  0  0  0
    1.9010   -5.4815   -1.3788 H   0  0  0  0  0  0  0  0  0  0  0  0
    3.6629   -3.7447   -1.5382 H   0  0  0  0  0  0  0  0  0  0  0  0
    3.6851   -4.6686   -0.0225 H   0  0  0  0  0  0  0  0  0  0  0  0
    3.8378   -2.6834    1.0775 H   0  0  0  0  0  0  0  0  0  0  0  0
    2.0880   -2.4838    0.7705 H   0  0  0  0  0  0  0  0  0  0  0  0
    4.4207   -1.5285   -1.0041 H   0  0  0  0  0  0  0  0  0  0  0  0
    2.7361   -1.2776   -1.4619 H   0  0  0  0  0  0  0  0  0  0  0  0
    1.4783    0.1127   -0.4388 H   0  0  0  0  0  0  0  0  0  0  0  0
    1.7637    2.6935    0.0438 H   0  0  0  0  0  0  0  0  0  0  0  0
    3.4952    2.3687    0.2132 H   0  0  0  0  0  0  0  0  0  0  0  0
    0.6107    1.8456   -2.0757 H   0  0  0  0  0  0  0  0  0  0  0  0
    1.6974    0.5258   -2.6833 H   0  0  0  0  0  0  0  0  0  0  0  0
    1.6014    2.0900   -3.5658 H   0  0  0  0  0  0  0  0  0  0  0  0
    5.9446    0.2056   -0.3066 H   0  0  0  0  0  0  0  0  0  0  0  0
    8.1985    0.2584    1.0558 H   0  0  0  0  0  0  0  0  0  0  0  0
    7.5913    1.5689    2.1525 H   0  0  0  0  0  0  0  0  0  0  0  0
    9.0697    1.8373    1.1392 H   0  0  0  0  0  0  0  0  0  0  0  0
    7.9134    3.9143   -0.0958 H   0  0  0  0  0  0  0  0  0  0  0  0
  1  2  1  0
  2  3  1  0
  3  4  1  0
  4  5  1  0
  5  6  1  0
  5  7  1  0
  7  8  1  0
  4  9  1  0
  9 10  2  0
  9 11  1  0
 11 12  2  0
 12 13  1  0
 13 14  1  0
 14 15  1  0
 15 16  2  0
 15 17  1  0
 17 18  1  0
 18 19  2  0
 19 20  1  0
 20 21  2  0
 21 22  1  0
 21 23  1  0
 23 24  2  0
 13 25  2  0
 25 26  1  0
 26 27  2  0
 27 28  1  0
 28 29  1  0
 29 30  1  0
 29 31  1  0
 31 32  1  0
 32 33  1  0
 33 34  1  0
 34 35  1  0
 35 36  1  0
 36 37  1  0
 37 38  1  0
 38 39  1  0
 38 40  1  0
 40 41  2  0
 40 42  2  0
 40 43  1  0
 43 44  2  0
 44 45  1  0
 45 46  1  0
 45 47  1  0
 47 48  2  0
 36  2  1  0
 48 43  1  0
 27 11  1  0
 24 18  1  0
  1 49  1  0
  1 50  1  0
  1 51  1  0
  2 52  1  1
  3 53  1  0
  3 54  1  0
  5 55  1  1
  6 56  1  0
  6 57  1  0
  6 58  1  0
  7 59  1  0
  7 60  1  0
  8 61  1  0
 12 62  1  0
 14 63  1  0
 17 64  1  0
 19 65  1  0
 20 66  1  0
 23 67  1  0
 24 68  1  0
 25 69  1  0
 26 70  1  0
 29 71  1  6
 30 72  1  0
 30 73  1  0
 30 74  1  0
 31 75  1  0
 31 76  1  0
 32 77  1  0
 32 78  1  0
 33 79  1  0
 33 80  1  0
 34 81  1  0
 34 82  1  0
 36 83  1  6
 37 84  1  0
 37 85  1  0
 39 86  1  0
 39 87  1  0
 39 88  1  0
 44 89  1  0
 46 90  1  0
 46 91  1  0
 46 92  1  0
 47 93  1  0
M  END
$$$$
