
     RDKit          3D

 85 87  0  0  0  0  0  0  0  0999 V2000
    2.9689    3.6398   -0.6139 C   0  0  0  0  0  0  0  0  0  0  0  0
    1.9145    2.5526   -0.8575 C   0  0  1  0  0  0  0  0  0  0  0  0
    0.9869    2.9487   -2.0223 C   0  0  0  0  0  0  0  0  0  0  0  0
   -0.0222    4.0570   -1.6460 C   0  0  0  0  0  0  0  0  0  0  0  0
   -1.4033    3.8149   -2.2872 C   0  0  0  0  0  0  0  0  0  0  0  0
   -2.3344    2.9522   -1.4159 C   0  0  0  0  0  0  0  0  0  0  0  0
   -1.6261    1.9242   -0.7427 O   0  0  0  0  0  0  0  0  0  0  0  0
   -1.9460    0.6280   -1.2214 C   0  0  2  0  0  0  0  0  0  0  0  0
   -3.2897    0.1577   -0.5907 C   0  0  0  0  0  0  0  0  0  0  0  0
   -3.7381   -1.1355   -1.1509 N   0  0  0  0  0  0  0  0  0  0  0  0
   -4.4175   -0.9819   -2.4505 C   0  0  0  0  0  0  0  0  0  0  0  0
   -4.5391   -1.9351   -0.1963 C   0  0  0  0  0  0  0  0  0  0  0  0
   -5.9127   -1.3590    0.0758 C   0  0  0  0  0  0  0  0  0  0  0  0
   -7.0256   -1.8110   -0.6574 C   0  0  0  0  0  0  0  0  0  0  0  0
   -8.2975   -1.2919   -0.4016 C   0  0  0  0  0  0  0  0  0  0  0  0
   -8.4697   -0.3174    0.5842 C   0  0  0  0  0  0  0  0  0  0  0  0
   -7.3709    0.1361    1.3202 C   0  0  0  0  0  0  0  0  0  0  0  0
   -6.0961   -0.3806    1.0680 C   0  0  0  0  0  0  0  0  0  0  0  0
   -0.7440   -0.3110   -0.8902 C   0  0  2  0  0  0  0  0  0  0  0  0
   -0.8440   -1.6726   -1.6001 C   0  0  0  0  0  0  0  0  0  0  0  0
   -0.5029   -0.4593    0.6318 C   0  0  0  0  0  0  0  0  0  0  0  0
    0.8867   -0.8603    0.9188 N   0  0  0  0  0  0  0  0  0  0  0  0
    1.1909   -2.3030    1.0423 C   0  0  1  0  0  0  0  0  0  0  0  0
    2.3943   -2.7117    0.1780 C   0  0  0  0  0  0  0  0  0  0  0  0
    1.3793   -2.6928    2.5205 C   0  0  0  0  0  0  0  0  0  0  0  0
    1.4428   -4.0887    2.6710 O   0  0  0  0  0  0  0  0  0  0  0  0
    1.8084    0.1385    1.4142 C   0  0  0  0  0  0  0  0  0  0  0  0
    1.4463    0.9164    2.3389 O   0  0  0  0  0  0  0  0  0  0  0  0
    3.1957    0.2243    0.9276 C   0  0  0  0  0  0  0  0  0  0  0  0
    4.2353   -0.2086    1.7665 C   0  0  0  0  0  0  0  0  0  0  0  0
    5.5667   -0.2792    1.3012 C   0  0  0  0  0  0  0  0  0  0  0  0
    6.6359   -0.7519    2.1633 N   0  0  0  0  0  0  0  0  0  0  0  0
    6.3317   -1.5560    3.3533 C   0  0  0  0  0  0  0  0  0  0  0  0
    8.0398   -0.4358    1.8586 C   0  0  0  0  0  0  0  0  0  0  0  0
    5.8303    0.1084   -0.0268 C   0  0  0  0  0  0  0  0  0  0  0  0
    4.8064    0.5906   -0.8449 C   0  0  0  0  0  0  0  0  0  0  0  0
    3.5006    0.6952   -0.3647 C   0  0  0  0  0  0  0  0  0  0  0  0
    2.5452    1.3072   -1.1845 O   0  0  0  0  0  0  0  0  0  0  0  0
    3.5970    3.3814    0.2600 H   0  0  0  0  0  0  0  0  0  0  0  0
    3.6203    3.7446   -1.5048 H   0  0  0  0  0  0  0  0  0  0  0  0
    2.4782    4.6148   -0.4045 H   0  0  0  0  0  0  0  0  0  0  0  0
    1.3065    2.4214    0.0607 H   0  0  0  0  0  0  0  0  0  0  0  0
    1.5981    3.2955   -2.8858 H   0  0  0  0  0  0  0  0  0  0  0  0
    0.4491    2.0459   -2.3780 H   0  0  0  0  0  0  0  0  0  0  0  0
    0.3729    5.0340   -1.9995 H   0  0  0  0  0  0  0  0  0  0  0  0
   -0.1413    4.1494   -0.5456 H   0  0  0  0  0  0  0  0  0  0  0  0
   -1.9020    4.8000   -2.4479 H   0  0  0  0  0  0  0  0  0  0  0  0
   -1.2860    3.3523   -3.2932 H   0  0  0  0  0  0  0  0  0  0  0  0
   -3.1835    2.5939   -2.0409 H   0  0  0  0  0  0  0  0  0  0  0  0
   -2.7798    3.6059   -0.6355 H   0  0  0  0  0  0  0  0  0  0  0  0
   -2.0320    0.6542   -2.3310 H   0  0  0  0  0  0  0  0  0  0  0  0
   -4.0762    0.9275   -0.7410 H   0  0  0  0  0  0  0  0  0  0  0  0
   -3.1471    0.0894    0.5080 H   0  0  0  0  0  0  0  0  0  0  0  0
   -4.7873   -1.9659   -2.8137 H   0  0  0  0  0  0  0  0  0  0  0  0
   -5.2746   -0.2757   -2.3796 H   0  0  0  0  0  0  0  0  0  0  0  0
   -3.7047   -0.6143   -3.2109 H   0  0  0  0  0  0  0  0  0  0  0  0
   -4.6437   -2.9719   -0.5943 H   0  0  0  0  0  0  0  0  0  0  0  0
   -3.9853   -2.0509    0.7633 H   0  0  0  0  0  0  0  0  0  0  0  0
   -6.9090   -2.5670   -1.4236 H   0  0  0  0  0  0  0  0  0  0  0  0
   -9.1503   -1.6483   -0.9631 H   0  0  0  0  0  0  0  0  0  0  0  0
   -9.4529    0.0843    0.7874 H   0  0  0  0  0  0  0  0  0  0  0  0
   -7.5069    0.8873    2.0857 H   0  0  0  0  0  0  0  0  0  0  0  0
   -5.2574   -0.0260    1.6541 H   0  0  0  0  0  0  0  0  0  0  0  0
    0.1593    0.1700   -1.3104 H   0  0  0  0  0  0  0  0  0  0  0  0
   -1.2161   -1.5467   -2.6413 H   0  0  0  0  0  0  0  0  0  0  0  0
   -1.5126   -2.3697   -1.0539 H   0  0  0  0  0  0  0  0  0  0  0  0
    0.1575   -2.1471   -1.6712 H   0  0  0  0  0  0  0  0  0  0  0  0
   -1.2137   -1.1970    1.0620 H   0  0  0  0  0  0  0  0  0  0  0  0
   -0.7273    0.4997    1.1478 H   0  0  0  0  0  0  0  0  0  0  0  0
    0.3231   -2.8888    0.6676 H   0  0  0  0  0  0  0  0  0  0  0  0
    2.2918   -3.7725   -0.1328 H   0  0  0  0  0  0  0  0  0  0  0  0
    2.4455   -2.0881   -0.7385 H   0  0  0  0  0  0  0  0  0  0  0  0
    3.3484   -2.6134    0.7376 H   0  0  0  0  0  0  0  0  0  0  0  0
    0.5367   -2.2844    3.1270 H   0  0  0  0  0  0  0  0  0  0  0  0
    2.3166   -2.2529    2.9180 H   0  0  0  0  0  0  0  0  0  0  0  0
    0.5127   -4.4182    2.5655 H   0  0  0  0  0  0  0  0  0  0  0  0
    3.9946   -0.5083    2.7770 H   0  0  0  0  0  0  0  0  0  0  0  0
    5.6380   -2.3830    3.0802 H   0  0  0  0  0  0  0  0  0  0  0  0
    7.2510   -2.0138    3.7813 H   0  0  0  0  0  0  0  0  0  0  0  0
    5.8662   -0.9156    4.1358 H   0  0  0  0  0  0  0  0  0  0  0  0
    8.7152   -0.7092    2.6986 H   0  0  0  0  0  0  0  0  0  0  0  0
    8.3658   -1.0010    0.9611 H   0  0  0  0  0  0  0  0  0  0  0  0
    8.1518    0.6543    1.6793 H   0  0  0  0  0  0  0  0  0  0  0  0
    6.8280    0.0528   -0.4392 H   0  0  0  0  0  0  0  0  0  0  0  0
    5.0388    0.9224   -1.8469 H   0  0  0  0  0  0  0  0  0  0  0  0
  1  2  1  0
  2  3  1  0
  3  4  1  0
  4  5  1  0
  5  6  1  0
  6  7  1  0
  7  8  1  0
  8  9  1  0
  9 10  1  0
 10 11  1  0
 10 12  1  0
 12 13  1  0
 13 14  2  0
 14 15  1  0
 15 16  2  0
 16 17  1  0
 17 18  2  0
  8 19  1  0
 19 20  1  0
 19 21  1  0
 21 22  1  0
 22 23  1  0
 23 24  1  0
 23 25  1  0
 25 26  1  0
 22 27  1  0
 27 28  2  0
 27 29  1  0
 29 30  2  0
 30 31  1  0
 31 32  1  0
 32 33  1  0
 32 34  1  0
 31 35  2  0
 35 36  1  0
 36 37  2  0
 37 38  1  0
 38  2  1  0
 18 13  1  0
 37 29  1  0
  1 39  1  0
  1 40  1  0
  1 41  1  0
  2 42  1  1
  3 43  1  0
  3 44  1  0
  4 45  1  0
  4 46  1  0
  5 47  1  0
  5 48  1  0
  6 49  1  0
  6 50  1  0
  8 51  1  6
  9 52  1  0
  9 53  1  0
 11 54  1  0
 11 55  1  0
 11 56  1  0
 12 57  1  0
 12 58  1  0
 14 59  1  0
 15 60  1  0
 16 61  1  0
 17 62  1  0
 18 63  1  0
 19 64  1  6
 20 65  1  0
 20 66  1  0
 20 67  1  0
 21 68  1  0
 21 69  1  0
 23 70  1  6
 24 71  1  0
 24 72  1  0
 24 73  1  0
 25 74  1  0
 25 75  1  0
 26 76  1  0
 30 77  1  0
 33 78  1  0
 33 79  1  0
 33 80  1  0
 34 81  1  0
 34 82  1  0
 34 83  1  0
 35 84  1  0
 36 85  1  0
M  END
$$$$
