
     RDKit          3D

 67 70  0  0  0  0  0  0  0  0999 V2000
   -0.4841   -3.9068   -0.6419 C   0  0  0  0  0  0  0  0  0  0  0  0
   -1.8082   -3.1787   -0.4323 C   0  0  0  0  0  0  0  0  0  0  0  0
   -1.6527   -1.7393   -0.6932 N   0  0  0  0  0  0  0  0  0  0  0  0
   -2.4260   -1.1412   -1.7988 C   0  0  0  0  0  0  0  0  0  0  0  0
   -3.8819   -0.9078   -1.3949 C   0  0  0  0  0  0  0  0  0  0  0  0
   -3.9528    0.2579   -0.5852 O   0  0  0  0  0  0  0  0  0  0  0  0
   -5.0816    0.6885    0.1263 C   0  0  0  0  0  0  0  0  0  0  0  0
   -6.3405    0.0789   -0.0277 C   0  0  0  0  0  0  0  0  0  0  0  0
   -7.4324    0.5221    0.7228 C   0  0  0  0  0  0  0  0  0  0  0  0
   -7.2799    1.5727    1.6298 C   0  0  0  0  0  0  0  0  0  0  0  0
   -6.0360    2.1887    1.7869 C   0  0  0  0  0  0  0  0  0  0  0  0
   -4.9316    1.7574    1.0337 C   0  0  0  0  0  0  0  0  0  0  0  0
   -3.5871    2.4279    1.1953 C   0  0  0  0  0  0  0  0  0  0  0  0
   -2.5633    1.4734    1.8420 C   0  0  0  0  0  0  0  0  0  0  0  0
   -1.1040    1.8433    1.5225 C   0  0  0  0  0  0  0  0  0  0  0  0
   -0.6571    1.5544    0.0575 C   0  0  0  0  0  0  0  0  0  0  0  0
    0.0561    0.1787   -0.2263 C   0  0  0  0  0  0  0  0  0  0  0  0
    1.4249    0.0467    0.5035 C   0  0  0  0  0  0  0  0  0  0  0  0
    2.5386    0.6195   -0.2645 N   0  0  0  0  0  0  0  0  0  0  0  0
    3.8670    0.5156    0.2920 C   0  0  0  0  0  0  0  0  0  0  0  0
    4.0090    0.4161    1.5430 O   0  0  0  0  0  0  0  0  0  0  0  0
    5.0914    0.5500   -0.5888 C   0  0  0  0  0  0  0  0  0  0  0  0
    6.2563   -0.1686    0.0427 C   0  0  0  0  0  0  0  0  0  0  0  0
    6.3403   -1.5700   -0.0237 C   0  0  0  0  0  0  0  0  0  0  0  0
    7.4018   -2.2420    0.5899 C   0  0  0  0  0  0  0  0  0  0  0  0
    8.3810   -1.5219    1.2797 C   0  0  0  0  0  0  0  0  0  0  0  0
    8.2986   -0.1283    1.3605 C   0  0  0  0  0  0  0  0  0  0  0  0
    9.2458    0.5677    2.0361 F   0  0  0  0  0  0  0  0  0  0  0  0
    7.2378    0.5477    0.7484 C   0  0  0  0  0  0  0  0  0  0  0  0
    2.2918    1.4505   -1.4502 C   0  0  0  0  0  0  0  0  0  0  0  0
    1.0385    1.0091   -2.2292 C   0  0  0  0  0  0  0  0  0  0  0  0
    0.3003   -0.0291   -1.6117 O   0  0  0  0  0  0  0  0  0  0  0  0
   -0.8596   -0.9527    0.2315 C   0  0  0  0  0  0  0  0  0  0  0  0
   -0.8731   -1.2623    1.4561 O   0  0  0  0  0  0  0  0  0  0  0  0
   -0.1191   -3.7402   -1.6777 H   0  0  0  0  0  0  0  0  0  0  0  0
    0.2790   -3.5407    0.0771 H   0  0  0  0  0  0  0  0  0  0  0  0
   -0.6285   -4.9961   -0.4818 H   0  0  0  0  0  0  0  0  0  0  0  0
   -2.5639   -3.6256   -1.1149 H   0  0  0  0  0  0  0  0  0  0  0  0
   -2.1673   -3.3412    0.6068 H   0  0  0  0  0  0  0  0  0  0  0  0
   -1.9983   -0.1780   -2.1360 H   0  0  0  0  0  0  0  0  0  0  0  0
   -2.3975   -1.8223   -2.6771 H   0  0  0  0  0  0  0  0  0  0  0  0
   -4.2695   -1.7877   -0.8376 H   0  0  0  0  0  0  0  0  0  0  0  0
   -4.4983   -0.7562   -2.3068 H   0  0  0  0  0  0  0  0  0  0  0  0
   -6.4837   -0.7352   -0.7248 H   0  0  0  0  0  0  0  0  0  0  0  0
   -8.3989    0.0497    0.6020 H   0  0  0  0  0  0  0  0  0  0  0  0
   -8.1278    1.9113    2.2113 H   0  0  0  0  0  0  0  0  0  0  0  0
   -5.9365    3.0040    2.4930 H   0  0  0  0  0  0  0  0  0  0  0  0
   -3.2520    2.7701    0.1956 H   0  0  0  0  0  0  0  0  0  0  0  0
   -3.6726    3.3422    1.8220 H   0  0  0  0  0  0  0  0  0  0  0  0
   -2.7498    0.4218    1.5572 H   0  0  0  0  0  0  0  0  0  0  0  0
   -2.7045    1.5168    2.9443 H   0  0  0  0  0  0  0  0  0  0  0  0
   -0.9752    2.9291    1.7286 H   0  0  0  0  0  0  0  0  0  0  0  0
   -0.4543    1.3201    2.2494 H   0  0  0  0  0  0  0  0  0  0  0  0
   -1.5173    1.6516   -0.6338 H   0  0  0  0  0  0  0  0  0  0  0  0
    0.0314    2.3807   -0.2082 H   0  0  0  0  0  0  0  0  0  0  0  0
    1.4015    0.5088    1.5095 H   0  0  0  0  0  0  0  0  0  0  0  0
    1.6529   -1.0335    0.6532 H   0  0  0  0  0  0  0  0  0  0  0  0
    5.3554    1.6088   -0.8014 H   0  0  0  0  0  0  0  0  0  0  0  0
    4.8654    0.0583   -1.5589 H   0  0  0  0  0  0  0  0  0  0  0  0
    5.5825   -2.1403   -0.5473 H   0  0  0  0  0  0  0  0  0  0  0  0
    7.4635   -3.3214    0.5332 H   0  0  0  0  0  0  0  0  0  0  0  0
    9.2011   -2.0450    1.7539 H   0  0  0  0  0  0  0  0  0  0  0  0
    7.1796    1.6265    0.8252 H   0  0  0  0  0  0  0  0  0  0  0  0
    3.1557    1.4255   -2.1448 H   0  0  0  0  0  0  0  0  0  0  0  0
    2.1809    2.5074   -1.1274 H   0  0  0  0  0  0  0  0  0  0  0  0
    0.3785    1.8777   -2.4419 H   0  0  0  0  0  0  0  0  0  0  0  0
    1.3602    0.6345   -3.2242 H   0  0  0  0  0  0  0  0  0  0  0  0
  1  2  1  0
  2  3  1  0
  3  4  1  0
  4  5  1  0
  5  6  1  0
  6  7  1  0
  7  8  2  0
  8  9  1  0
  9 10  2  0
 10 11  1  0
 11 12  2  0
 12 13  1  0
 13 14  1  0
 14 15  1  0
 15 16  1  0
 16 17  1  0
 17 18  1  0
 18 19  1  0
 19 20  1  0
 20 21  2  0
 20 22  1  0
 22 23  1  0
 23 24  2  0
 24 25  1  0
 25 26  2  0
 26 27  1  0
 27 28  1  0
 27 29  2  0
 19 30  1  0
 30 31  1  0
 31 32  1  0
 17 33  1  0
 33 34  2  0
 33  3  1  0
 12  7  1  0
 32 17  1  0
 29 23  1  0
  1 35  1  0
  1 36  1  0
  1 37  1  0
  2 38  1  0
  2 39  1  0
  4 40  1  0
  4 41  1  0
  5 42  1  0
  5 43  1  0
  8 44  1  0
  9 45  1  0
 10 46  1  0
 11 47  1  0
 13 48  1  0
 13 49  1  0
 14 50  1  0
 14 51  1  0
 15 52  1  0
 15 53  1  0
 16 54  1  0
 16 55  1  0
 18 56  1  0
 18 57  1  0
 22 58  1  0
 22 59  1  0
 24 60  1  0
 25 61  1  0
 26 62  1  0
 29 63  1  0
 30 64  1  0
 30 65  1  0
 31 66  1  0
 31 67  1  0
M  END
$$$$
