
     RDKit          3D

 93 96  0  0  0  0  0  0  0  0999 V2000
    1.0247    1.7115   -4.1925 C   0  0  0  0  0  0  0  0  0  0  0  0
    0.1374    1.8444   -2.9399 C   0  0  1  0  0  0  0  0  0  0  0  0
   -1.3363    2.0361   -3.3685 C   0  0  0  0  0  0  0  0  0  0  0  0
   -2.2925    2.5532   -2.2633 C   0  0  0  0  0  0  0  0  0  0  0  0
   -2.8567    1.5009   -1.2835 C   0  0  0  0  0  0  0  0  0  0  0  0
   -3.3423    0.2261   -1.9900 C   0  0  0  0  0  0  0  0  0  0  0  0
   -4.2791   -0.5348   -1.2461 O   0  0  0  0  0  0  0  0  0  0  0  0
   -3.7584   -1.1550   -0.0759 C   0  0  1  0  0  0  0  0  0  0  0  0
   -4.9622   -1.7523    0.6790 C   0  0  0  0  0  0  0  0  0  0  0  0
   -5.9058   -0.6721    1.0557 N   0  0  0  0  0  0  0  0  0  0  0  0
   -7.3007   -1.1314    0.9717 C   0  0  0  0  0  0  0  0  0  0  0  0
   -5.5524   -0.0056    2.6454 S   0  0  0  0  0  6  0  0  0  0  0  0
   -6.8179    0.1838    3.4393 O   0  0  0  0  0  0  0  0  0  0  0  0
   -4.6360   -0.9028    3.4368 O   0  0  0  0  0  0  0  0  0  0  0  0
   -4.7694    1.5561    2.4545 C   0  0  0  0  0  0  0  0  0  0  0  0
   -5.3629    2.7899    2.6089 C   0  0  0  0  0  0  0  0  0  0  0  0
   -4.4173    3.7114    2.3933 N   0  0  0  0  0  0  0  0  0  0  0  0
   -4.5691    5.1620    2.4075 C   0  0  0  0  0  0  0  0  0  0  0  0
   -3.2913    3.0365    2.1143 C   0  0  0  0  0  0  0  0  0  0  0  0
   -3.4651    1.6961    2.1486 N   0  0  0  0  0  0  0  0  0  0  0  0
   -2.6626   -2.2611   -0.3325 C   0  0  1  0  0  0  0  0  0  0  0  0
   -2.7836   -2.9487   -1.7174 C   0  0  0  0  0  0  0  0  0  0  0  0
   -1.2524   -1.6884   -0.0304 C   0  0  0  0  0  0  0  0  0  0  0  0
   -0.1421   -2.5856   -0.3820 N   0  0  0  0  0  0  0  0  0  0  0  0
    0.2443   -3.7787    0.4166 C   0  0  2  0  0  0  0  0  0  0  0  0
   -0.4268   -5.0417   -0.1248 C   0  0  0  0  0  0  0  0  0  0  0  0
   -0.0127   -3.6040    1.9259 C   0  0  0  0  0  0  0  0  0  0  0  0
    0.5029   -4.6915    2.6525 O   0  0  0  0  0  0  0  0  0  0  0  0
    0.7783   -2.1092   -1.3776 C   0  0  0  0  0  0  0  0  0  0  0  0
    0.8963   -2.7240   -2.4739 O   0  0  0  0  0  0  0  0  0  0  0  0
    1.7170   -1.0214   -1.0490 C   0  0  0  0  0  0  0  0  0  0  0  0
    2.9010   -1.3563   -0.3665 C   0  0  0  0  0  0  0  0  0  0  0  0
    3.8651   -0.3806   -0.0685 C   0  0  0  0  0  0  0  0  0  0  0  0
    5.0964   -0.7669    0.5740 N   0  0  0  0  0  0  0  0  0  0  0  0
    6.0201    0.1427    1.1853 C   0  0  0  0  0  0  0  0  0  0  0  0
    5.6071    1.2261    1.6827 O   0  0  0  0  0  0  0  0  0  0  0  0
    7.4145   -0.1962    1.2670 N   0  0  0  0  0  0  0  0  0  0  0  0
    8.4824    0.7514    1.4701 C   0  0  0  0  0  0  0  0  0  0  0  0
    8.3600    2.1032    1.0880 C   0  0  0  0  0  0  0  0  0  0  0  0
    9.4292    2.9869    1.2642 C   0  0  0  0  0  0  0  0  0  0  0  0
   10.6350    2.5375    1.8048 C   0  0  0  0  0  0  0  0  0  0  0  0
   11.6757    3.3933    1.9627 F   0  0  0  0  0  0  0  0  0  0  0  0
   10.7733    1.1929    2.1656 C   0  0  0  0  0  0  0  0  0  0  0  0
    9.7067    0.3048    1.9983 C   0  0  0  0  0  0  0  0  0  0  0  0
    3.6389    0.9405   -0.4924 C   0  0  0  0  0  0  0  0  0  0  0  0
    2.4660    1.2840   -1.1582 C   0  0  0  0  0  0  0  0  0  0  0  0
    1.4854    0.3161   -1.4502 C   0  0  0  0  0  0  0  0  0  0  0  0
    0.2918    0.6653   -2.1269 O   0  0  0  0  0  0  0  0  0  0  0  0
    0.7557    0.7933   -4.7581 H   0  0  0  0  0  0  0  0  0  0  0  0
    0.9046    2.5953   -4.8580 H   0  0  0  0  0  0  0  0  0  0  0  0
    2.0940    1.6407   -3.9072 H   0  0  0  0  0  0  0  0  0  0  0  0
    0.4413    2.7565   -2.3802 H   0  0  0  0  0  0  0  0  0  0  0  0
   -1.7152    1.1161   -3.8590 H   0  0  0  0  0  0  0  0  0  0  0  0
   -1.3539    2.8188   -4.1599 H   0  0  0  0  0  0  0  0  0  0  0  0
   -1.7942    3.3529   -1.6738 H   0  0  0  0  0  0  0  0  0  0  0  0
   -3.1577    3.0343   -2.7757 H   0  0  0  0  0  0  0  0  0  0  0  0
   -3.7171    1.9557   -0.7420 H   0  0  0  0  0  0  0  0  0  0  0  0
   -2.0842    1.2533   -0.5257 H   0  0  0  0  0  0  0  0  0  0  0  0
   -3.8646    0.5215   -2.9265 H   0  0  0  0  0  0  0  0  0  0  0  0
   -2.4777   -0.3729   -2.3151 H   0  0  0  0  0  0  0  0  0  0  0  0
   -3.3477   -0.3825    0.6006 H   0  0  0  0  0  0  0  0  0  0  0  0
   -5.4425   -2.4890   -0.0067 H   0  0  0  0  0  0  0  0  0  0  0  0
   -4.6392   -2.3385    1.5653 H   0  0  0  0  0  0  0  0  0  0  0  0
   -7.5284   -1.4548   -0.0714 H   0  0  0  0  0  0  0  0  0  0  0  0
   -7.4775   -1.9914    1.6593 H   0  0  0  0  0  0  0  0  0  0  0  0
   -7.9951   -0.2968    1.2197 H   0  0  0  0  0  0  0  0  0  0  0  0
   -6.3984    3.0013    2.8594 H   0  0  0  0  0  0  0  0  0  0  0  0
   -3.7496    5.6173    2.9976 H   0  0  0  0  0  0  0  0  0  0  0  0
   -4.5236    5.5575    1.3689 H   0  0  0  0  0  0  0  0  0  0  0  0
   -5.5377    5.4497    2.8720 H   0  0  0  0  0  0  0  0  0  0  0  0
   -2.3504    3.5099    1.8811 H   0  0  0  0  0  0  0  0  0  0  0  0
   -2.8016   -3.0688    0.4206 H   0  0  0  0  0  0  0  0  0  0  0  0
   -2.5024   -4.0168   -1.6450 H   0  0  0  0  0  0  0  0  0  0  0  0
   -3.8294   -2.9282   -2.0951 H   0  0  0  0  0  0  0  0  0  0  0  0
   -2.1168   -2.4901   -2.4759 H   0  0  0  0  0  0  0  0  0  0  0  0
   -1.1231   -0.7338   -0.5682 H   0  0  0  0  0  0  0  0  0  0  0  0
   -1.1864   -1.4075    1.0420 H   0  0  0  0  0  0  0  0  0  0  0  0
    1.3436   -3.9362    0.3013 H   0  0  0  0  0  0  0  0  0  0  0  0
    0.0654   -5.9427    0.2960 H   0  0  0  0  0  0  0  0  0  0  0  0
   -1.4954   -5.0688    0.1656 H   0  0  0  0  0  0  0  0  0  0  0  0
   -0.3319   -5.0852   -1.2294 H   0  0  0  0  0  0  0  0  0  0  0  0
   -1.1057   -3.5401    2.1209 H   0  0  0  0  0  0  0  0  0  0  0  0
    0.4519   -2.6571    2.2889 H   0  0  0  0  0  0  0  0  0  0  0  0
    1.4903   -4.5689    2.6786 H   0  0  0  0  0  0  0  0  0  0  0  0
    3.0831   -2.3864   -0.0799 H   0  0  0  0  0  0  0  0  0  0  0  0
    5.3463   -1.7799    0.5905 H   0  0  0  0  0  0  0  0  0  0  0  0
    7.6736   -1.2040    1.1889 H   0  0  0  0  0  0  0  0  0  0  0  0
    7.4579    2.4691    0.6168 H   0  0  0  0  0  0  0  0  0  0  0  0
    9.3200    4.0251    0.9662 H   0  0  0  0  0  0  0  0  0  0  0  0
   11.7134    0.8364    2.5665 H   0  0  0  0  0  0  0  0  0  0  0  0
    9.8307   -0.7360    2.2800 H   0  0  0  0  0  0  0  0  0  0  0  0
    4.3792    1.7132   -0.3351 H   0  0  0  0  0  0  0  0  0  0  0  0
    2.3426    2.3141   -1.4489 H   0  0  0  0  0  0  0  0  0  0  0  0
  1  2  1  0
  2  3  1  0
  3  4  1  0
  4  5  1  0
  5  6  1  0
  6  7  1  0
  7  8  1  0
  8  9  1  0
  9 10  1  0
 10 11  1  0
 10 12  1  0
 12 13  2  0
 12 14  2  0
 12 15  1  0
 15 16  2  0
 16 17  1  0
 17 18  1  0
 17 19  1  0
 19 20  2  0
  8 21  1  0
 21 22  1  0
 21 23  1  0
 23 24  1  0
 24 25  1  0
 25 26  1  0
 25 27  1  0
 27 28  1  0
 24 29  1  0
 29 30  2  0
 29 31  1  0
 31 32  2  0
 32 33  1  0
 33 34  1  0
 34 35  1  0
 35 36  2  0
 35 37  1  0
 37 38  1  0
 38 39  2  0
 39 40  1  0
 40 41  2  0
 41 42  1  0
 41 43  1  0
 43 44  2  0
 33 45  2  0
 45 46  1  0
 46 47  2  0
 47 48  1  0
 48  2  1  0
 20 15  1  0
 47 31  1  0
 44 38  1  0
  1 49  1  0
  1 50  1  0
  1 51  1  0
  2 52  1  1
  3 53  1  0
  3 54  1  0
  4 55  1  0
  4 56  1  0
  5 57  1  0
  5 58  1  0
  6 59  1  0
  6 60  1  0
  8 61  1  1
  9 62  1  0
  9 63  1  0
 11 64  1  0
 11 65  1  0
 11 66  1  0
 16 67  1  0
 18 68  1  0
 18 69  1  0
 18 70  1  0
 19 71  1  0
 21 72  1  1
 22 73  1  0
 22 74  1  0
 22 75  1  0
 23 76  1  0
 23 77  1  0
 25 78  1  1
 26 79  1  0
 26 80  1  0
 26 81  1  0
 27 82  1  0
 27 83  1  0
 28 84  1  0
 32 85  1  0
 34 86  1  0
 37 87  1  0
 39 88  1  0
 40 89  1  0
 43 90  1  0
 44 91  1  0
 45 92  1  0
 46 93  1  0
M  END
$$$$
