
     RDKit          3D

 96 99  0  0  0  0  0  0  0  0999 V2000
   11.3808   -3.3704   -2.6663 C   0  0  0  0  0  0  0  0  0  0  0  0
   10.8093   -2.2440   -3.3237 O   0  0  0  0  0  0  0  0  0  0  0  0
    9.8148   -1.4235   -2.7719 C   0  0  0  0  0  0  0  0  0  0  0  0
    9.2726   -1.6490   -1.4899 C   0  0  0  0  0  0  0  0  0  0  0  0
    8.2929   -0.7917   -0.9782 C   0  0  0  0  0  0  0  0  0  0  0  0
    7.8253    0.2919   -1.7446 C   0  0  0  0  0  0  0  0  0  0  0  0
    6.8485    1.2132   -1.2273 N   0  0  0  0  0  0  0  0  0  0  0  0
    5.7841    0.8575   -0.3306 C   0  0  0  0  0  0  0  0  0  0  0  0
    5.5155   -0.3558   -0.1096 O   0  0  0  0  0  0  0  0  0  0  0  0
    5.0257    1.8964    0.3068 N   0  0  0  0  0  0  0  0  0  0  0  0
    3.7991    1.6904    1.0285 C   0  0  0  0  0  0  0  0  0  0  0  0
    3.4916    2.5288    2.1033 C   0  0  0  0  0  0  0  0  0  0  0  0
    2.2933    2.3777    2.8009 C   0  0  0  0  0  0  0  0  0  0  0  0
    1.3638    1.3960    2.4388 C   0  0  0  0  0  0  0  0  0  0  0  0
    1.6492    0.5640    1.3181 C   0  0  0  0  0  0  0  0  0  0  0  0
    2.8626    0.7240    0.6283 C   0  0  0  0  0  0  0  0  0  0  0  0
    0.7210   -0.4537    0.7924 C   0  0  0  0  0  0  0  0  0  0  0  0
    0.8938   -1.6434    1.1628 O   0  0  0  0  0  0  0  0  0  0  0  0
   -0.3387   -0.1164   -0.1448 N   0  0  0  0  0  0  0  0  0  0  0  0
   -0.5553   -0.9974   -1.3196 C   0  0  1  0  0  0  0  0  0  0  0  0
    0.6416   -0.9140   -2.2731 C   0  0  0  0  0  0  0  0  0  0  0  0
   -0.8528   -2.4654   -0.9478 C   0  0  0  0  0  0  0  0  0  0  0  0
   -1.7920   -2.5412    0.0881 O   0  0  0  0  0  0  0  0  0  0  0  0
   -0.7837    1.3003   -0.1711 C   0  0  0  0  0  0  0  0  0  0  0  0
   -2.2138    1.6053   -0.7145 C   0  0  1  0  0  0  0  0  0  0  0  0
   -2.2381    1.6886   -2.2608 C   0  0  0  0  0  0  0  0  0  0  0  0
   -3.3613    0.7311   -0.1006 C   0  0  2  0  0  0  0  0  0  0  0  0
   -4.7307    1.4827   -0.1539 C   0  0  0  0  0  0  0  0  0  0  0  0
   -5.1350    1.8403   -1.5216 N   0  0  0  0  0  0  0  0  0  0  0  0
   -5.2156    3.2549   -1.8985 C   0  0  0  0  0  0  0  0  0  0  0  0
   -5.7114    0.8686   -2.4181 C   0  0  0  0  0  0  0  0  0  0  0  0
   -5.4713    0.9450   -3.6532 O   0  0  0  0  0  0  0  0  0  0  0  0
   -6.6924   -0.1268   -1.9517 C   0  0  0  0  0  0  0  0  0  0  0  0
   -6.2848   -1.2943   -1.2832 C   0  0  0  0  0  0  0  0  0  0  0  0
   -7.2393   -2.2274   -0.8605 C   0  0  0  0  0  0  0  0  0  0  0  0
   -8.5975   -2.0175   -1.1341 C   0  0  0  0  0  0  0  0  0  0  0  0
   -9.0013   -0.8785   -1.8353 C   0  0  0  0  0  0  0  0  0  0  0  0
   -8.0558    0.0674   -2.2406 C   0  0  0  0  0  0  0  0  0  0  0  0
   -3.0185    0.4097    1.2472 O   0  0  0  0  0  0  0  0  0  0  0  0
   -3.9584   -0.4672    1.8513 C   0  0  0  0  0  0  0  0  0  0  0  0
   -3.3191   -1.2648    2.9932 C   0  0  0  0  0  0  0  0  0  0  0  0
   -3.0098   -0.4349    4.2599 C   0  0  0  0  0  0  0  0  0  0  0  0
   -1.9554    0.6792    4.0953 C   0  0  0  0  0  0  0  0  0  0  0  0
   -0.6053    0.2061    3.5273 C   0  0  2  0  0  0  0  0  0  0  0  0
    0.1600   -0.6803    4.5155 C   0  0  0  0  0  0  0  0  0  0  0  0
    0.1777    1.3558    3.1991 O   0  0  0  0  0  0  0  0  0  0  0  0
    8.3818    0.5203   -3.0130 C   0  0  0  0  0  0  0  0  0  0  0  0
    9.3602   -0.3362   -3.5253 C   0  0  0  0  0  0  0  0  0  0  0  0
   10.6001   -4.1327   -2.4590 H   0  0  0  0  0  0  0  0  0  0  0  0
   11.8686   -3.0594   -1.7199 H   0  0  0  0  0  0  0  0  0  0  0  0
   12.1483   -3.8237   -3.3249 H   0  0  0  0  0  0  0  0  0  0  0  0
    9.6104   -2.4754   -0.8779 H   0  0  0  0  0  0  0  0  0  0  0  0
    7.9261   -0.9572    0.0261 H   0  0  0  0  0  0  0  0  0  0  0  0
    6.8662    2.1964   -1.5821 H   0  0  0  0  0  0  0  0  0  0  0  0
    5.4419    2.8553    0.3140 H   0  0  0  0  0  0  0  0  0  0  0  0
    4.1900    3.2991    2.4071 H   0  0  0  0  0  0  0  0  0  0  0  0
    2.0827    3.0371    3.6338 H   0  0  0  0  0  0  0  0  0  0  0  0
    3.0560    0.1161   -0.2464 H   0  0  0  0  0  0  0  0  0  0  0  0
   -1.4424   -0.6703   -1.8840 H   0  0  0  0  0  0  0  0  0  0  0  0
    1.5539   -1.3371   -1.7987 H   0  0  0  0  0  0  0  0  0  0  0  0
    0.4253   -1.4808   -3.2043 H   0  0  0  0  0  0  0  0  0  0  0  0
    0.8404    0.1437   -2.5516 H   0  0  0  0  0  0  0  0  0  0  0  0
    0.0665   -3.0041   -0.6400 H   0  0  0  0  0  0  0  0  0  0  0  0
   -1.2307   -3.0037   -1.8484 H   0  0  0  0  0  0  0  0  0  0  0  0
   -2.6855   -2.4693   -0.3332 H   0  0  0  0  0  0  0  0  0  0  0  0
   -0.7771    1.7002    0.8620 H   0  0  0  0  0  0  0  0  0  0  0  0
   -0.0316    1.9042   -0.7254 H   0  0  0  0  0  0  0  0  0  0  0  0
   -2.4064    2.6447   -0.3690 H   0  0  0  0  0  0  0  0  0  0  0  0
   -1.2237    1.6025   -2.7015 H   0  0  0  0  0  0  0  0  0  0  0  0
   -2.8651    0.8930   -2.7131 H   0  0  0  0  0  0  0  0  0  0  0  0
   -2.6356    2.6702   -2.5919 H   0  0  0  0  0  0  0  0  0  0  0  0
   -3.4276   -0.2021   -0.6952 H   0  0  0  0  0  0  0  0  0  0  0  0
   -4.6583    2.3912    0.4833 H   0  0  0  0  0  0  0  0  0  0  0  0
   -5.5434    0.8786    0.2905 H   0  0  0  0  0  0  0  0  0  0  0  0
   -4.5259    3.8715   -1.2818 H   0  0  0  0  0  0  0  0  0  0  0  0
   -4.9273    3.3934   -2.9629 H   0  0  0  0  0  0  0  0  0  0  0  0
   -6.2557    3.6184   -1.7517 H   0  0  0  0  0  0  0  0  0  0  0  0
   -5.2348   -1.4908   -1.1036 H   0  0  0  0  0  0  0  0  0  0  0  0
   -6.9265   -3.1232   -0.3365 H   0  0  0  0  0  0  0  0  0  0  0  0
   -9.3322   -2.7432   -0.8036 H   0  0  0  0  0  0  0  0  0  0  0  0
  -10.0530   -0.7231   -2.0564 H   0  0  0  0  0  0  0  0  0  0  0  0
   -8.3778    0.9524   -2.7759 H   0  0  0  0  0  0  0  0  0  0  0  0
   -4.8008    0.1200    2.2738 H   0  0  0  0  0  0  0  0  0  0  0  0
   -4.3692   -1.2064    1.1279 H   0  0  0  0  0  0  0  0  0  0  0  0
   -2.4287   -1.8142    2.6332 H   0  0  0  0  0  0  0  0  0  0  0  0
   -4.0477   -2.0514    3.2912 H   0  0  0  0  0  0  0  0  0  0  0  0
   -2.6834   -1.1256    5.0675 H   0  0  0  0  0  0  0  0  0  0  0  0
   -3.9548    0.0340    4.6160 H   0  0  0  0  0  0  0  0  0  0  0  0
   -1.7886    1.1595    5.0856 H   0  0  0  0  0  0  0  0  0  0  0  0
   -2.3672    1.4695    3.4317 H   0  0  0  0  0  0  0  0  0  0  0  0
   -0.8232   -0.3635    2.6229 H   0  0  0  0  0  0  0  0  0  0  0  0
    0.3741   -0.1209    5.4533 H   0  0  0  0  0  0  0  0  0  0  0  0
    1.1233   -0.9937    4.0607 H   0  0  0  0  0  0  0  0  0  0  0  0
   -0.4177   -1.5995    4.7534 H   0  0  0  0  0  0  0  0  0  0  0  0
    8.0609    1.3667   -3.6010 H   0  0  0  0  0  0  0  0  0  0  0  0
    9.7794   -0.1478   -4.5063 H   0  0  0  0  0  0  0  0  0  0  0  0
  1  2  1  0
  2  3  1  0
  3  4  2  0
  4  5  1  0
  5  6  2  0
  6  7  1  0
  7  8  1  0
  8  9  2  0
  8 10  1  0
 10 11  1  0
 11 12  2  0
 12 13  1  0
 13 14  2  0
 14 15  1  0
 15 16  2  0
 15 17  1  0
 17 18  2  0
 17 19  1  0
 19 20  1  0
 20 21  1  0
 20 22  1  0
 22 23  1  0
 19 24  1  0
 24 25  1  0
 25 26  1  0
 25 27  1  0
 27 28  1  0
 28 29  1  0
 29 30  1  0
 29 31  1  0
 31 32  2  0
 31 33  1  0
 33 34  2  0
 34 35  1  0
 35 36  2  0
 36 37  1  0
 37 38  2  0
 27 39  1  0
 39 40  1  0
 40 41  1  0
 41 42  1  0
 42 43  1  0
 43 44  1  0
 44 45  1  0
 44 46  1  0
  6 47  1  0
 47 48  2  0
 48  3  1  0
 16 11  1  0
 38 33  1  0
 46 14  1  0
  1 49  1  0
  1 50  1  0
  1 51  1  0
  4 52  1  0
  5 53  1  0
  7 54  1  0
 10 55  1  0
 12 56  1  0
 13 57  1  0
 16 58  1  0
 20 59  1  6
 21 60  1  0
 21 61  1  0
 21 62  1  0
 22 63  1  0
 22 64  1  0
 23 65  1  0
 24 66  1  0
 24 67  1  0
 25 68  1  1
 26 69  1  0
 26 70  1  0
 26 71  1  0
 27 72  1  6
 28 73  1  0
 28 74  1  0
 30 75  1  0
 30 76  1  0
 30 77  1  0
 34 78  1  0
 35 79  1  0
 36 80  1  0
 37 81  1  0
 38 82  1  0
 40 83  1  0
 40 84  1  0
 41 85  1  0
 41 86  1  0
 42 87  1  0
 42 88  1  0
 43 89  1  0
 43 90  1  0
 44 91  1  6
 45 92  1  0
 45 93  1  0
 45 94  1  0
 47 95  1  0
 48 96  1  0
M  END
$$$$
