
     RDKit          3D

 90 92  0  0  0  0  0  0  0  0999 V2000
   -5.3806   -3.7859   -0.5880 C   0  0  0  0  0  0  0  0  0  0  0  0
   -4.7792   -2.4375   -0.1534 C   0  0  0  0  0  0  0  0  0  0  0  0
   -5.8960   -1.3808   -0.0837 C   0  0  0  0  0  0  0  0  0  0  0  0
   -3.6529   -1.9841   -1.1265 C   0  0  0  0  0  0  0  0  0  0  0  0
   -2.2006   -2.0285   -0.5735 C   0  0  1  0  0  0  0  0  0  0  0  0
   -2.0377   -1.4229    0.8263 C   0  0  0  0  0  0  0  0  0  0  0  0
   -1.5199   -2.1173    1.7420 O   0  0  0  0  0  0  0  0  0  0  0  0
   -2.4851   -0.0813    1.1599 N   0  0  0  0  0  0  0  0  0  0  0  0
   -3.1877    0.0785    2.4437 C   0  0  0  0  0  0  0  0  0  0  0  0
   -2.4119    1.0565    0.2034 C   0  0  1  0  0  0  0  0  0  0  0  0
   -2.8156    2.4303    0.8114 C   0  0  0  0  0  0  0  0  0  0  0  0
   -2.6451    3.5729   -0.1626 C   0  0  0  0  0  0  0  0  0  0  0  0
   -1.6070    4.5056    0.0074 C   0  0  0  0  0  0  0  0  0  0  0  0
   -1.4380    5.5469   -0.9107 C   0  0  0  0  0  0  0  0  0  0  0  0
   -2.2985    5.6677   -2.0054 C   0  0  0  0  0  0  0  0  0  0  0  0
   -2.1158    6.7098   -2.9111 O   0  0  0  0  0  0  0  0  0  0  0  0
   -3.3346    4.7416   -2.1805 C   0  0  0  0  0  0  0  0  0  0  0  0
   -3.5084    3.6997   -1.2637 C   0  0  0  0  0  0  0  0  0  0  0  0
   -1.0932    1.1278   -0.5595 C   0  0  0  0  0  0  0  0  0  0  0  0
   -1.1506    0.9734   -1.8100 O   0  0  0  0  0  0  0  0  0  0  0  0
    0.1910    1.4694    0.0017 N   0  0  0  0  0  0  0  0  0  0  0  0
    0.5772    1.6213    1.4138 C   0  0  1  0  0  0  0  0  0  0  0  0
    0.5655    0.2963    2.1857 C   0  0  0  0  0  0  0  0  0  0  0  0
    1.9468    2.2636    1.5078 C   0  0  0  0  0  0  0  0  0  0  0  0
    2.0263    3.4128    2.0200 O   0  0  0  0  0  0  0  0  0  0  0  0
    3.1645    1.6234    1.0688 N   0  0  0  0  0  0  0  0  0  0  0  0
    3.2755    0.3599    0.3176 C   0  0  1  0  0  0  0  0  0  0  0  0
    4.2355    0.5333   -0.8819 C   0  0  0  0  0  0  0  0  0  0  0  0
    5.6536    0.8751   -0.4880 C   0  0  0  0  0  0  0  0  0  0  0  0
    6.0784    2.2147   -0.4577 C   0  0  0  0  0  0  0  0  0  0  0  0
    7.3843    2.5329   -0.0721 C   0  0  0  0  0  0  0  0  0  0  0  0
    8.2766    1.5178    0.2817 C   0  0  0  0  0  0  0  0  0  0  0  0
    7.8658    0.1828    0.2470 C   0  0  0  0  0  0  0  0  0  0  0  0
    6.5607   -0.1395   -0.1379 C   0  0  0  0  0  0  0  0  0  0  0  0
    3.6884   -0.7610    1.2403 C   0  0  0  0  0  0  0  0  0  0  0  0
    4.4234   -0.5043    2.2329 O   0  0  0  0  0  0  0  0  0  0  0  0
    3.2117   -2.1042    1.0607 N   0  0  0  0  0  0  0  0  0  0  0  0
    3.3762   -2.8595   -0.1840 C   0  0  0  0  0  0  0  0  0  0  0  0
    2.1447   -2.7688   -1.0981 C   0  0  0  0  0  0  0  0  0  0  0  0
    0.8513   -3.1815   -0.3787 C   0  0  0  0  0  0  0  0  0  0  0  0
   -0.2906   -3.4767   -1.3688 C   0  0  0  0  0  0  0  0  0  0  0  0
   -1.6338   -3.3995   -0.7503 N   0  0  0  0  0  0  0  0  0  0  0  0
   -1.8940   -4.4254    0.2759 C   0  0  0  0  0  0  0  0  0  0  0  0
   -6.1168   -4.1373    0.1677 H   0  0  0  0  0  0  0  0  0  0  0  0
   -5.8977   -3.6846   -1.5705 H   0  0  0  0  0  0  0  0  0  0  0  0
   -4.5905   -4.5584   -0.6905 H   0  0  0  0  0  0  0  0  0  0  0  0
   -4.3867   -2.5541    0.8803 H   0  0  0  0  0  0  0  0  0  0  0  0
   -6.6939   -1.6982    0.6223 H   0  0  0  0  0  0  0  0  0  0  0  0
   -6.3496   -1.2252   -1.0885 H   0  0  0  0  0  0  0  0  0  0  0  0
   -5.4826   -0.4145    0.2733 H   0  0  0  0  0  0  0  0  0  0  0  0
   -3.6862   -2.5862   -2.0626 H   0  0  0  0  0  0  0  0  0  0  0  0
   -3.8602   -0.9606   -1.4952 H   0  0  0  0  0  0  0  0  0  0  0  0
   -1.6371   -1.3571   -1.2468 H   0  0  0  0  0  0  0  0  0  0  0  0
   -2.6645    0.8150    3.0868 H   0  0  0  0  0  0  0  0  0  0  0  0
   -3.2486   -0.8781    3.0070 H   0  0  0  0  0  0  0  0  0  0  0  0
   -4.2280    0.4151    2.2661 H   0  0  0  0  0  0  0  0  0  0  0  0
   -3.1984    0.8703   -0.5553 H   0  0  0  0  0  0  0  0  0  0  0  0
   -2.2595    2.6401    1.7441 H   0  0  0  0  0  0  0  0  0  0  0  0
   -3.8895    2.3975    1.1001 H   0  0  0  0  0  0  0  0  0  0  0  0
   -0.9290    4.4318    0.8484 H   0  0  0  0  0  0  0  0  0  0  0  0
   -0.6341    6.2592   -0.7730 H   0  0  0  0  0  0  0  0  0  0  0  0
   -2.7180    6.8232   -3.7181 H   0  0  0  0  0  0  0  0  0  0  0  0
   -4.0025    4.8268   -3.0272 H   0  0  0  0  0  0  0  0  0  0  0  0
   -4.3129    2.9917   -1.4133 H   0  0  0  0  0  0  0  0  0  0  0  0
    0.9106    1.7224   -0.7154 H   0  0  0  0  0  0  0  0  0  0  0  0
   -0.1322    2.3069    1.9135 H   0  0  0  0  0  0  0  0  0  0  0  0
    0.7775   -0.5546    1.5167 H   0  0  0  0  0  0  0  0  0  0  0  0
    1.3213    0.2943    3.0042 H   0  0  0  0  0  0  0  0  0  0  0  0
   -0.4144    0.1409    2.6715 H   0  0  0  0  0  0  0  0  0  0  0  0
    4.0519    2.0741    1.3856 H   0  0  0  0  0  0  0  0  0  0  0  0
    2.2961    0.0874   -0.1068 H   0  0  0  0  0  0  0  0  0  0  0  0
    4.2389   -0.3831   -1.5065 H   0  0  0  0  0  0  0  0  0  0  0  0
    3.8302    1.3342   -1.5395 H   0  0  0  0  0  0  0  0  0  0  0  0
    5.3956    3.0132   -0.7239 H   0  0  0  0  0  0  0  0  0  0  0  0
    7.7026    3.5675   -0.0459 H   0  0  0  0  0  0  0  0  0  0  0  0
    9.2871    1.7651    0.5793 H   0  0  0  0  0  0  0  0  0  0  0  0
    8.5582   -0.6019    0.5207 H   0  0  0  0  0  0  0  0  0  0  0  0
    6.2565   -1.1781   -0.1511 H   0  0  0  0  0  0  0  0  0  0  0  0
    3.0830   -2.6708    1.9301 H   0  0  0  0  0  0  0  0  0  0  0  0
    4.2831   -2.5217   -0.7258 H   0  0  0  0  0  0  0  0  0  0  0  0
    3.5458   -3.9305    0.0670 H   0  0  0  0  0  0  0  0  0  0  0  0
    2.3164   -3.4475   -1.9605 H   0  0  0  0  0  0  0  0  0  0  0  0
    2.0425   -1.7403   -1.5049 H   0  0  0  0  0  0  0  0  0  0  0  0
    0.5547   -2.3609    0.2936 H   0  0  0  0  0  0  0  0  0  0  0  0
    1.0396   -4.0890    0.2389 H   0  0  0  0  0  0  0  0  0  0  0  0
   -0.2363   -2.7771   -2.2325 H   0  0  0  0  0  0  0  0  0  0  0  0
   -0.1434   -4.4943   -1.7947 H   0  0  0  0  0  0  0  0  0  0  0  0
   -2.8417   -4.2362    0.8133 H   0  0  0  0  0  0  0  0  0  0  0  0
   -1.0800   -4.4718    1.0266 H   0  0  0  0  0  0  0  0  0  0  0  0
   -1.9780   -5.4200   -0.2103 H   0  0  0  0  0  0  0  0  0  0  0  0
  1  2  1  0
  2  3  1  0
  2  4  1  0
  4  5  1  0
  5  6  1  0
  6  7  2  0
  6  8  1  0
  8  9  1  0
  8 10  1  0
 10 11  1  0
 11 12  1  0
 12 13  2  0
 13 14  1  0
 14 15  2  0
 15 16  1  0
 15 17  1  0
 17 18  2  0
 10 19  1  0
 19 20  2  0
 19 21  1  0
 21 22  1  0
 22 23  1  0
 22 24  1  0
 24 25  2  0
 24 26  1  0
 26 27  1  0
 27 28  1  0
 28 29  1  0
 29 30  2  0
 30 31  1  0
 31 32  2  0
 32 33  1  0
 33 34  2  0
 27 35  1  0
 35 36  2  0
 35 37  1  0
 37 38  1  0
 38 39  1  0
 39 40  1  0
 40 41  1  0
 41 42  1  0
 42 43  1  0
 42  5  1  0
 18 12  1  0
 34 29  1  0
  1 44  1  0
  1 45  1  0
  1 46  1  0
  2 47  1  0
  3 48  1  0
  3 49  1  0
  3 50  1  0
  4 51  1  0
  4 52  1  0
  5 53  1  6
  9 54  1  0
  9 55  1  0
  9 56  1  0
 10 57  1  6
 11 58  1  0
 11 59  1  0
 13 60  1  0
 14 61  1  0
 16 62  1  0
 17 63  1  0
 18 64  1  0
 21 65  1  0
 22 66  1  1
 23 67  1  0
 23 68  1  0
 23 69  1  0
 26 70  1  0
 27 71  1  6
 28 72  1  0
 28 73  1  0
 30 74  1  0
 31 75  1  0
 32 76  1  0
 33 77  1  0
 34 78  1  0
 37 79  1  0
 38 80  1  0
 38 81  1  0
 39 82  1  0
 39 83  1  0
 40 84  1  0
 40 85  1  0
 41 86  1  0
 41 87  1  0
 43 88  1  0
 43 89  1  0
 43 90  1  0
M  END
$$$$
