
     RDKit          3D

 87 89  0  0  0  0  0  0  0  0999 V2000
    6.4834    0.8214    2.5828 C   0  0  0  0  0  0  0  0  0  0  0  0
    5.9187    0.1394    1.3287 C   0  0  0  0  0  0  0  0  0  0  0  0
    6.4016   -1.3181    1.2772 C   0  0  0  0  0  0  0  0  0  0  0  0
    4.3705    0.2567    1.3257 C   0  0  0  0  0  0  0  0  0  0  0  0
    3.6414   -0.1724    0.0243 C   0  0  2  0  0  0  0  0  0  0  0  0
    3.7928   -1.6125   -0.2775 N   0  0  0  0  0  0  0  0  0  0  0  0
    3.0378   -2.5228    0.6096 C   0  0  0  0  0  0  0  0  0  0  0  0
    1.5038   -2.4797    0.4299 C   0  0  0  0  0  0  0  0  0  0  0  0
    1.0205   -3.1206   -0.8825 C   0  0  0  0  0  0  0  0  0  0  0  0
   -0.4501   -2.7923   -1.1665 C   0  0  0  0  0  0  0  0  0  0  0  0
   -1.3417   -3.4546   -0.2112 N   0  0  0  0  0  0  0  0  0  0  0  0
   -1.7803   -2.8598    1.0217 C   0  0  0  0  0  0  0  0  0  0  0  0
   -1.6113   -3.5059    2.0910 O   0  0  0  0  0  0  0  0  0  0  0  0
   -2.4483   -1.4991    1.0959 C   0  0  2  0  0  0  0  0  0  0  0  0
   -3.7582   -1.5443    1.9148 C   0  0  0  0  0  0  0  0  0  0  0  0
   -4.8505   -2.3528    1.2536 C   0  0  0  0  0  0  0  0  0  0  0  0
   -5.7966   -1.7216    0.4286 C   0  0  0  0  0  0  0  0  0  0  0  0
   -6.7937   -2.4712   -0.2020 C   0  0  0  0  0  0  0  0  0  0  0  0
   -6.8536   -3.8547   -0.0160 C   0  0  0  0  0  0  0  0  0  0  0  0
   -5.9182   -4.4906    0.8029 C   0  0  0  0  0  0  0  0  0  0  0  0
   -4.9218   -3.7442    1.4384 C   0  0  0  0  0  0  0  0  0  0  0  0
   -2.7170   -0.9486   -0.2395 N   0  0  0  0  0  0  0  0  0  0  0  0
   -2.3168    0.3553   -0.6983 C   0  0  0  0  0  0  0  0  0  0  0  0
   -2.9293    0.8579   -1.6793 O   0  0  0  0  0  0  0  0  0  0  0  0
   -1.1831    1.1358   -0.0569 C   0  0  2  0  0  0  0  0  0  0  0  0
   -1.7150    2.1734    0.9526 C   0  0  0  0  0  0  0  0  0  0  0  0
   -2.5486    3.2515    0.3033 C   0  0  0  0  0  0  0  0  0  0  0  0
   -3.9460    3.1233    0.2340 C   0  0  0  0  0  0  0  0  0  0  0  0
   -4.7126    4.1031   -0.4031 C   0  0  0  0  0  0  0  0  0  0  0  0
   -4.0948    5.2182   -0.9773 C   0  0  0  0  0  0  0  0  0  0  0  0
   -4.8711    6.1841   -1.6130 O   0  0  0  0  0  0  0  0  0  0  0  0
   -2.7022    5.3529   -0.9087 C   0  0  0  0  0  0  0  0  0  0  0  0
   -1.9328    4.3747   -0.2729 C   0  0  0  0  0  0  0  0  0  0  0  0
   -0.3392    1.7696   -1.0772 N   0  0  0  0  0  0  0  0  0  0  0  0
    1.0587    2.0012   -0.8514 C   0  0  0  0  0  0  0  0  0  0  0  0
    1.4595    2.3249    0.2995 O   0  0  0  0  0  0  0  0  0  0  0  0
    2.0413    1.9007   -1.9938 C   0  0  2  0  0  0  0  0  0  0  0  0
    1.7563    0.6765   -2.8806 C   0  0  0  0  0  0  0  0  0  0  0  0
    3.4371    1.8886   -1.5039 N   0  0  0  0  0  0  0  0  0  0  0  0
    4.2113    3.1301   -1.4657 C   0  0  0  0  0  0  0  0  0  0  0  0
    4.1126    0.6682   -1.1426 C   0  0  0  0  0  0  0  0  0  0  0  0
    5.1524    0.3322   -1.7721 O   0  0  0  0  0  0  0  0  0  0  0  0
    6.1133    0.3185    3.5026 H   0  0  0  0  0  0  0  0  0  0  0  0
    6.1792    1.8895    2.6112 H   0  0  0  0  0  0  0  0  0  0  0  0
    7.5946    0.7856    2.5761 H   0  0  0  0  0  0  0  0  0  0  0  0
    6.3372    0.6799    0.4534 H   0  0  0  0  0  0  0  0  0  0  0  0
    6.2325   -1.7514    0.2720 H   0  0  0  0  0  0  0  0  0  0  0  0
    5.8809   -1.9346    2.0410 H   0  0  0  0  0  0  0  0  0  0  0  0
    7.4957   -1.3711    1.4650 H   0  0  0  0  0  0  0  0  0  0  0  0
    4.1079    1.3241    1.4994 H   0  0  0  0  0  0  0  0  0  0  0  0
    3.9539   -0.2875    2.1981 H   0  0  0  0  0  0  0  0  0  0  0  0
    2.5744    0.0566    0.1708 H   0  0  0  0  0  0  0  0  0  0  0  0
    3.5292   -1.8017   -1.2706 H   0  0  0  0  0  0  0  0  0  0  0  0
    3.2821   -2.3195    1.6709 H   0  0  0  0  0  0  0  0  0  0  0  0
    3.3872   -3.5605    0.4206 H   0  0  0  0  0  0  0  0  0  0  0  0
    1.1172   -1.4472    0.5224 H   0  0  0  0  0  0  0  0  0  0  0  0
    1.0570   -3.0519    1.2722 H   0  0  0  0  0  0  0  0  0  0  0  0
    1.6096   -2.7394   -1.7393 H   0  0  0  0  0  0  0  0  0  0  0  0
    1.1618   -4.2232   -0.8395 H   0  0  0  0  0  0  0  0  0  0  0  0
   -0.5785   -1.6950   -1.1645 H   0  0  0  0  0  0  0  0  0  0  0  0
   -0.7041   -3.1476   -2.1880 H   0  0  0  0  0  0  0  0  0  0  0  0
   -1.3784   -4.4977   -0.2656 H   0  0  0  0  0  0  0  0  0  0  0  0
   -1.7622   -0.8455    1.6654 H   0  0  0  0  0  0  0  0  0  0  0  0
   -4.1130   -0.5018    2.0703 H   0  0  0  0  0  0  0  0  0  0  0  0
   -3.5578   -1.9492    2.9305 H   0  0  0  0  0  0  0  0  0  0  0  0
   -5.7589   -0.6512    0.2682 H   0  0  0  0  0  0  0  0  0  0  0  0
   -7.5202   -1.9797   -0.8357 H   0  0  0  0  0  0  0  0  0  0  0  0
   -7.6250   -4.4330   -0.5071 H   0  0  0  0  0  0  0  0  0  0  0  0
   -5.9654   -5.5624    0.9469 H   0  0  0  0  0  0  0  0  0  0  0  0
   -4.2080   -4.2509    2.0741 H   0  0  0  0  0  0  0  0  0  0  0  0
   -3.3244   -1.5076   -0.8808 H   0  0  0  0  0  0  0  0  0  0  0  0
   -0.5340    0.4246    0.4909 H   0  0  0  0  0  0  0  0  0  0  0  0
   -0.8601    2.6424    1.4856 H   0  0  0  0  0  0  0  0  0  0  0  0
   -2.3132    1.6530    1.7328 H   0  0  0  0  0  0  0  0  0  0  0  0
   -4.4391    2.2595    0.6631 H   0  0  0  0  0  0  0  0  0  0  0  0
   -5.7880    3.9934   -0.4552 H   0  0  0  0  0  0  0  0  0  0  0  0
   -4.4541    7.0022   -2.0420 H   0  0  0  0  0  0  0  0  0  0  0  0
   -2.2151    6.2131   -1.3489 H   0  0  0  0  0  0  0  0  0  0  0  0
   -0.8567    4.4898   -0.2343 H   0  0  0  0  0  0  0  0  0  0  0  0
   -0.7149    1.9298   -2.0390 H   0  0  0  0  0  0  0  0  0  0  0  0
    1.8839    2.7962   -2.6337 H   0  0  0  0  0  0  0  0  0  0  0  0
    1.6873   -0.2468   -2.2678 H   0  0  0  0  0  0  0  0  0  0  0  0
    2.5662    0.5528   -3.6308 H   0  0  0  0  0  0  0  0  0  0  0  0
    0.8024    0.8056   -3.4321 H   0  0  0  0  0  0  0  0  0  0  0  0
    5.0387    3.0818   -2.2040 H   0  0  0  0  0  0  0  0  0  0  0  0
    4.6353    3.2737   -0.4492 H   0  0  0  0  0  0  0  0  0  0  0  0
    3.5769    4.0105   -1.6984 H   0  0  0  0  0  0  0  0  0  0  0  0
  1  2  1  0
  2  3  1  0
  2  4  1  0
  4  5  1  0
  5  6  1  0
  6  7  1  0
  7  8  1  0
  8  9  1  0
  9 10  1  0
 10 11  1  0
 11 12  1  0
 12 13  2  0
 12 14  1  0
 14 15  1  0
 15 16  1  0
 16 17  2  0
 17 18  1  0
 18 19  2  0
 19 20  1  0
 20 21  2  0
 14 22  1  0
 22 23  1  0
 23 24  2  0
 23 25  1  0
 25 26  1  0
 26 27  1  0
 27 28  2  0
 28 29  1  0
 29 30  2  0
 30 31  1  0
 30 32  1  0
 32 33  2  0
 25 34  1  0
 34 35  1  0
 35 36  2  0
 35 37  1  0
 37 38  1  0
 37 39  1  0
 39 40  1  0
 39 41  1  0
 41 42  2  0
 41  5  1  0
 21 16  1  0
 33 27  1  0
  1 43  1  0
  1 44  1  0
  1 45  1  0
  2 46  1  0
  3 47  1  0
  3 48  1  0
  3 49  1  0
  4 50  1  0
  4 51  1  0
  5 52  1  1
  6 53  1  0
  7 54  1  0
  7 55  1  0
  8 56  1  0
  8 57  1  0
  9 58  1  0
  9 59  1  0
 10 60  1  0
 10 61  1  0
 11 62  1  0
 14 63  1  1
 15 64  1  0
 15 65  1  0
 17 66  1  0
 18 67  1  0
 19 68  1  0
 20 69  1  0
 21 70  1  0
 22 71  1  0
 25 72  1  1
 26 73  1  0
 26 74  1  0
 28 75  1  0
 29 76  1  0
 31 77  1  0
 32 78  1  0
 33 79  1  0
 34 80  1  0
 37 81  1  6
 38 82  1  0
 38 83  1  0
 38 84  1  0
 40 85  1  0
 40 86  1  0
 40 87  1  0
M  END
$$$$
