
     RDKit          3D

 80 83  0  0  0  0  0  0  0  0999 V2000
   -3.6868   -4.7903    0.2409 C   0  0  0  0  0  0  0  0  0  0  0  0
   -2.9485   -3.6260   -0.0579 O   0  0  0  0  0  0  0  0  0  0  0  0
   -2.6023   -2.9220    1.1276 C   0  0  1  0  0  0  0  0  0  0  0  0
   -1.1226   -3.2098    1.4758 C   0  0  0  0  0  0  0  0  0  0  0  0
   -0.7481   -2.6163    2.7696 N   0  0  0  0  0  0  0  0  0  0  0  0
   -1.3467   -3.1170    4.0098 C   0  0  0  0  0  0  0  0  0  0  0  0
    0.1714   -1.5133    2.8540 C   0  0  0  0  0  0  0  0  0  0  0  0
   -0.0699   -0.5551    3.6370 O   0  0  0  0  0  0  0  0  0  0  0  0
    1.4492   -1.5261    2.1251 C   0  0  0  0  0  0  0  0  0  0  0  0
    2.5839   -2.0581    2.7513 C   0  0  0  0  0  0  0  0  0  0  0  0
    3.8247   -2.0302    2.1084 C   0  0  0  0  0  0  0  0  0  0  0  0
    3.9530   -1.4510    0.8385 C   0  0  0  0  0  0  0  0  0  0  0  0
    5.2399   -1.4316    0.1974 N   0  0  0  0  0  0  0  0  0  0  0  0
    5.6972   -0.3668   -0.6516 C   0  0  0  0  0  0  0  0  0  0  0  0
    5.0520    0.7150   -0.7156 O   0  0  0  0  0  0  0  0  0  0  0  0
    6.9397   -0.5100   -1.3580 N   0  0  0  0  0  0  0  0  0  0  0  0
    7.4156    0.4174   -2.3482 C   0  0  0  0  0  0  0  0  0  0  0  0
    6.5328    1.0585   -3.2374 C   0  0  0  0  0  0  0  0  0  0  0  0
    7.0246    1.9413   -4.2046 C   0  0  0  0  0  0  0  0  0  0  0  0
    8.3983    2.1832   -4.3011 C   0  0  0  0  0  0  0  0  0  0  0  0
    9.0137    3.2889   -5.5162 Cl  0  0  0  0  0  0  0  0  0  0  0  0
    9.2830    1.5345   -3.4340 C   0  0  0  0  0  0  0  0  0  0  0  0
    8.7943    0.6499   -2.4678 C   0  0  0  0  0  0  0  0  0  0  0  0
    2.8081   -0.9459    0.1984 C   0  0  0  0  0  0  0  0  0  0  0  0
    1.5645   -0.9747    0.8386 C   0  0  0  0  0  0  0  0  0  0  0  0
    0.4456   -0.4890    0.1663 O   0  0  0  0  0  0  0  0  0  0  0  0
   -0.0033    0.8507    0.3135 C   0  0  0  0  0  0  0  0  0  0  0  0
   -1.0313    1.2055   -0.7734 C   0  0  1  0  0  0  0  0  0  0  0  0
   -0.5153    0.8991   -2.1863 C   0  0  0  0  0  0  0  0  0  0  0  0
   -2.3440    0.5662   -0.5367 N   0  0  0  0  0  0  0  0  0  0  0  0
   -3.5211    1.3924   -0.6127 C   0  0  0  0  0  0  0  0  0  0  0  0
   -4.5268    0.9917   -1.2579 O   0  0  0  0  0  0  0  0  0  0  0  0
   -3.5711    2.6357    0.1010 N   0  0  0  0  0  0  0  0  0  0  0  0
   -4.6507    3.5718   -0.0240 C   0  0  0  0  0  0  0  0  0  0  0  0
   -5.2338    4.2902    0.9957 C   0  0  0  0  0  0  0  0  0  0  0  0
   -4.9131    4.1926    2.4508 C   0  0  0  0  0  0  0  0  0  0  0  0
   -6.1705    5.1077    0.4765 N   0  0  0  0  0  0  0  0  0  0  0  0
   -6.1601    4.9304   -0.8158 O   0  0  0  0  0  0  0  0  0  0  0  0
   -5.2619    4.0388   -1.1719 C   0  0  0  0  0  0  0  0  0  0  0  0
   -4.9838    3.6536   -2.5877 C   0  0  0  0  0  0  0  0  0  0  0  0
   -2.5020   -0.9024   -0.4890 C   0  0  0  0  0  0  0  0  0  0  0  0
   -2.8914   -1.3998    0.9319 C   0  0  1  0  0  0  0  0  0  0  0  0
   -4.3764   -1.1163    1.2305 C   0  0  0  0  0  0  0  0  0  0  0  0
   -3.8772   -5.3404   -0.7027 H   0  0  0  0  0  0  0  0  0  0  0  0
   -3.1195   -5.4641    0.9203 H   0  0  0  0  0  0  0  0  0  0  0  0
   -4.6713   -4.5273    0.6863 H   0  0  0  0  0  0  0  0  0  0  0  0
   -3.1972   -3.2598    2.0097 H   0  0  0  0  0  0  0  0  0  0  0  0
   -0.9701   -4.3089    1.5347 H   0  0  0  0  0  0  0  0  0  0  0  0
   -0.4646   -2.8502    0.6612 H   0  0  0  0  0  0  0  0  0  0  0  0
   -0.5475   -3.3593    4.7410 H   0  0  0  0  0  0  0  0  0  0  0  0
   -1.9325   -4.0423    3.8290 H   0  0  0  0  0  0  0  0  0  0  0  0
   -2.0179   -2.3449    4.4410 H   0  0  0  0  0  0  0  0  0  0  0  0
    2.5093   -2.4876    3.7428 H   0  0  0  0  0  0  0  0  0  0  0  0
    4.6923   -2.4428    2.6089 H   0  0  0  0  0  0  0  0  0  0  0  0
    5.9213   -2.1851    0.4417 H   0  0  0  0  0  0  0  0  0  0  0  0
    7.5775   -1.2839   -1.0651 H   0  0  0  0  0  0  0  0  0  0  0  0
    5.4692    0.8610   -3.2038 H   0  0  0  0  0  0  0  0  0  0  0  0
    6.3380    2.4311   -4.8836 H   0  0  0  0  0  0  0  0  0  0  0  0
   10.3476    1.7147   -3.5072 H   0  0  0  0  0  0  0  0  0  0  0  0
    9.4901    0.1544   -1.8022 H   0  0  0  0  0  0  0  0  0  0  0  0
    2.8697   -0.5505   -0.8065 H   0  0  0  0  0  0  0  0  0  0  0  0
    0.8643    1.5414    0.2244 H   0  0  0  0  0  0  0  0  0  0  0  0
   -0.4559    0.9891    1.3189 H   0  0  0  0  0  0  0  0  0  0  0  0
   -1.1463    2.3117   -0.7276 H   0  0  0  0  0  0  0  0  0  0  0  0
   -0.3208   -0.1844   -2.3270 H   0  0  0  0  0  0  0  0  0  0  0  0
   -1.2661    1.2245   -2.9362 H   0  0  0  0  0  0  0  0  0  0  0  0
    0.4286    1.4531   -2.3747 H   0  0  0  0  0  0  0  0  0  0  0  0
   -2.8913    2.7751    0.8816 H   0  0  0  0  0  0  0  0  0  0  0  0
   -3.8517    4.4704    2.6197 H   0  0  0  0  0  0  0  0  0  0  0  0
   -5.5632    4.8782    3.0349 H   0  0  0  0  0  0  0  0  0  0  0  0
   -5.0789    3.1521    2.7994 H   0  0  0  0  0  0  0  0  0  0  0  0
   -5.2176    4.5070   -3.2574 H   0  0  0  0  0  0  0  0  0  0  0  0
   -5.6209    2.7918   -2.8737 H   0  0  0  0  0  0  0  0  0  0  0  0
   -3.9129    3.3884   -2.7136 H   0  0  0  0  0  0  0  0  0  0  0  0
   -1.5665   -1.3980   -0.8075 H   0  0  0  0  0  0  0  0  0  0  0  0
   -3.2611   -1.2253   -1.2349 H   0  0  0  0  0  0  0  0  0  0  0  0
   -2.3028   -0.8240    1.6778 H   0  0  0  0  0  0  0  0  0  0  0  0
   -4.6650   -1.5334    2.2177 H   0  0  0  0  0  0  0  0  0  0  0  0
   -4.5713   -0.0277    1.2910 H   0  0  0  0  0  0  0  0  0  0  0  0
   -5.0279   -1.5672    0.4510 H   0  0  0  0  0  0  0  0  0  0  0  0
  1  2  1  0
  2  3  1  0
  3  4  1  0
  4  5  1  0
  5  6  1  0
  5  7  1  0
  7  8  2  0
  7  9  1  0
  9 10  2  0
 10 11  1  0
 11 12  2  0
 12 13  1  0
 13 14  1  0
 14 15  2  0
 14 16  1  0
 16 17  1  0
 17 18  2  0
 18 19  1  0
 19 20  2  0
 20 21  1  0
 20 22  1  0
 22 23  2  0
 12 24  1  0
 24 25  2  0
 25 26  1  0
 26 27  1  0
 27 28  1  0
 28 29  1  0
 28 30  1  0
 30 31  1  0
 31 32  2  0
 31 33  1  0
 33 34  1  0
 34 35  1  0
 35 36  1  0
 35 37  2  0
 37 38  1  0
 38 39  1  0
 39 40  1  0
 30 41  1  0
 41 42  1  0
 42 43  1  0
 42  3  1  0
 25  9  1  0
 39 34  2  0
 23 17  1  0
  1 44  1  0
  1 45  1  0
  1 46  1  0
  3 47  1  1
  4 48  1  0
  4 49  1  0
  6 50  1  0
  6 51  1  0
  6 52  1  0
 10 53  1  0
 11 54  1  0
 13 55  1  0
 16 56  1  0
 18 57  1  0
 19 58  1  0
 22 59  1  0
 23 60  1  0
 24 61  1  0
 27 62  1  0
 27 63  1  0
 28 64  1  6
 29 65  1  0
 29 66  1  0
 29 67  1  0
 33 68  1  0
 36 69  1  0
 36 70  1  0
 36 71  1  0
 40 72  1  0
 40 73  1  0
 40 74  1  0
 41 75  1  0
 41 76  1  0
 42 77  1  1
 43 78  1  0
 43 79  1  0
 43 80  1  0
M  END
$$$$
