
     RDKit          3D

 67 68  0  0  0  0  0  0  0  0999 V2000
    7.4045    0.6260    1.4828 C   0  0  0  0  0  0  0  0  0  0  0  0
    6.8608    1.5438    0.3951 C   0  0  0  0  0  0  0  0  0  0  0  0
    6.0125    0.7897   -0.5217 N   0  0  0  0  0  0  0  0  0  0  0  0
    6.4145    0.1834   -1.6546 C   0  0  0  0  0  0  0  0  0  0  0  0
    5.3376   -0.4872   -2.1948 C   0  0  0  0  0  0  0  0  0  0  0  0
    4.2958   -0.2353   -1.3179 C   0  0  0  0  0  0  0  0  0  0  0  0
    2.9252   -0.7704   -1.4379 C   0  0  0  0  0  0  0  0  0  0  0  0
    2.6827   -1.6060   -2.3501 O   0  0  0  0  0  0  0  0  0  0  0  0
    1.8652   -0.3681   -0.5420 N   0  0  0  0  0  0  0  0  0  0  0  0
    0.8098   -1.3505   -0.2412 C   0  0  0  0  0  0  0  0  0  0  0  0
    1.3434   -2.6413    0.3922 C   0  0  0  0  0  0  0  0  0  0  0  0
    0.2001   -3.4982    0.9788 C   0  0  0  0  0  0  0  0  0  0  0  0
   -0.8163   -4.0034   -0.0734 C   0  0  0  0  0  0  0  0  0  0  0  0
   -2.1320   -3.5721    0.2408 O   0  0  0  0  0  0  0  0  0  0  0  0
   -2.5102   -2.4752   -0.5698 C   0  0  0  0  0  0  0  0  0  0  0  0
   -3.8724   -1.9199   -0.1190 C   0  0  0  0  0  0  0  0  0  0  0  0
   -4.8829   -2.8585   -0.3922 O   0  0  0  0  0  0  0  0  0  0  0  0
   -4.2297   -0.5255   -0.7478 C   0  0  0  0  0  0  0  0  0  0  0  0
   -3.4365   -0.2260   -1.8690 O   0  0  0  0  0  0  0  0  0  0  0  0
   -4.1721    0.6492    0.2665 C   0  0  0  0  0  0  0  0  0  0  0  0
   -4.7976    1.7851   -0.3135 O   0  0  0  0  0  0  0  0  0  0  0  0
   -6.0726    2.0079    0.2470 C   0  0  0  0  0  0  0  0  0  0  0  0
   -2.7379    1.0256    0.7272 C   0  0  0  0  0  0  0  0  0  0  0  0
   -2.0190    1.8957   -0.2287 N   0  0  0  0  0  0  0  0  0  0  0  0
   -2.3877    3.2791   -0.3796 C   0  0  0  0  0  0  0  0  0  0  0  0
   -2.7305    4.1225    0.8078 C   0  0  0  0  0  0  0  0  0  0  0  0
   -2.4617    3.7804   -1.5310 O   0  0  0  0  0  0  0  0  0  0  0  0
   -0.7282    1.4661   -0.7851 C   0  0  0  0  0  0  0  0  0  0  0  0
    0.3740    1.5694    0.2890 C   0  0  0  0  0  0  0  0  0  0  0  0
    1.7630    1.0656   -0.1699 C   0  0  0  0  0  0  0  0  0  0  0  0
    4.7338    0.5317   -0.2992 N   0  0  0  0  0  0  0  0  0  0  0  0
    8.0330    1.2097    2.1877 H   0  0  0  0  0  0  0  0  0  0  0  0
    8.0257   -0.1750    1.0297 H   0  0  0  0  0  0  0  0  0  0  0  0
    6.5672    0.1644    2.0473 H   0  0  0  0  0  0  0  0  0  0  0  0
    6.2697    2.3601    0.8620 H   0  0  0  0  0  0  0  0  0  0  0  0
    7.7080    2.0028   -0.1607 H   0  0  0  0  0  0  0  0  0  0  0  0
    7.4229    0.2052   -2.0491 H   0  0  0  0  0  0  0  0  0  0  0  0
    5.3208   -1.0904   -3.0945 H   0  0  0  0  0  0  0  0  0  0  0  0
    0.0809   -0.9386    0.4734 H   0  0  0  0  0  0  0  0  0  0  0  0
    0.2960   -1.5995   -1.1915 H   0  0  0  0  0  0  0  0  0  0  0  0
    2.0396   -2.3768    1.2156 H   0  0  0  0  0  0  0  0  0  0  0  0
    1.9081   -3.2358   -0.3563 H   0  0  0  0  0  0  0  0  0  0  0  0
   -0.3228   -2.9186    1.7709 H   0  0  0  0  0  0  0  0  0  0  0  0
    0.6573   -4.3757    1.4855 H   0  0  0  0  0  0  0  0  0  0  0  0
   -0.5014   -3.7626   -1.1147 H   0  0  0  0  0  0  0  0  0  0  0  0
   -0.8213   -5.1136   -0.0381 H   0  0  0  0  0  0  0  0  0  0  0  0
   -2.5614   -2.7801   -1.6396 H   0  0  0  0  0  0  0  0  0  0  0  0
   -1.7890   -1.6566   -0.4673 H   0  0  0  0  0  0  0  0  0  0  0  0
   -3.8259   -1.8155    0.9861 H   0  0  0  0  0  0  0  0  0  0  0  0
   -4.9313   -2.9646   -1.3797 H   0  0  0  0  0  0  0  0  0  0  0  0
   -5.2945   -0.5737   -1.0775 H   0  0  0  0  0  0  0  0  0  0  0  0
   -3.7631   -0.7936   -2.6146 H   0  0  0  0  0  0  0  0  0  0  0  0
   -4.6979    0.3022    1.1917 H   0  0  0  0  0  0  0  0  0  0  0  0
   -6.7312    1.1197    0.1183 H   0  0  0  0  0  0  0  0  0  0  0  0
   -5.9873    2.2792    1.3233 H   0  0  0  0  0  0  0  0  0  0  0  0
   -6.5483    2.8608   -0.2797 H   0  0  0  0  0  0  0  0  0  0  0  0
   -2.1581    0.1036    0.9316 H   0  0  0  0  0  0  0  0  0  0  0  0
   -2.8103    1.5454    1.7057 H   0  0  0  0  0  0  0  0  0  0  0  0
   -3.7846    3.9460    1.1057 H   0  0  0  0  0  0  0  0  0  0  0  0
   -2.5989    5.1982    0.5656 H   0  0  0  0  0  0  0  0  0  0  0  0
   -2.0609    3.8692    1.6552 H   0  0  0  0  0  0  0  0  0  0  0  0
   -0.8330    0.4423   -1.1841 H   0  0  0  0  0  0  0  0  0  0  0  0
   -0.4476    2.1039   -1.6519 H   0  0  0  0  0  0  0  0  0  0  0  0
    0.4820    2.6435    0.5513 H   0  0  0  0  0  0  0  0  0  0  0  0
    0.0720    1.0708    1.2326 H   0  0  0  0  0  0  0  0  0  0  0  0
    2.0741    1.6919   -1.0353 H   0  0  0  0  0  0  0  0  0  0  0  0
    2.4758    1.2677    0.6561 H   0  0  0  0  0  0  0  0  0  0  0  0
  1  2  1  0
  2  3  1  0
  3  4  1  0
  4  5  2  0
  5  6  1  0
  6  7  1  0
  7  8  2  0
  7  9  1  0
  9 10  1  0
 10 11  1  0
 11 12  1  0
 12 13  1  0
 13 14  1  0
 14 15  1  0
 15 16  1  0
 16 17  1  0
 16 18  1  0
 18 19  1  0
 18 20  1  0
 20 21  1  0
 21 22  1  0
 20 23  1  0
 23 24  1  0
 24 25  1  0
 25 26  1  0
 25 27  2  0
 24 28  1  0
 28 29  1  0
 29 30  1  0
  6 31  2  0
 31  3  1  0
 30  9  1  0
  1 32  1  0
  1 33  1  0
  1 34  1  0
  2 35  1  0
  2 36  1  0
  4 37  1  0
  5 38  1  0
 10 39  1  0
 10 40  1  0
 11 41  1  0
 11 42  1  0
 12 43  1  0
 12 44  1  0
 13 45  1  0
 13 46  1  0
 15 47  1  0
 15 48  1  0
 16 49  1  0
 17 50  1  0
 18 51  1  0
 19 52  1  0
 20 53  1  0
 22 54  1  0
 22 55  1  0
 22 56  1  0
 23 57  1  0
 23 58  1  0
 26 59  1  0
 26 60  1  0
 26 61  1  0
 28 62  1  0
 28 63  1  0
 29 64  1  0
 29 65  1  0
 30 66  1  0
 30 67  1  0
M  END
$$$$
