
     RDKit          3D

 75 78  0  0  0  0  0  0  0  0999 V2000
    5.6112    0.5575   -0.9870 C   0  0  0  0  0  0  0  0  0  0  0  0
    4.7616   -0.4180   -0.4259 O   0  0  0  0  0  0  0  0  0  0  0  0
    3.5828   -0.5656   -1.2035 C   0  0  1  0  0  0  0  0  0  0  0  0
    3.6501   -1.8743   -2.0000 C   0  0  0  0  0  0  0  0  0  0  0  0
    3.6141   -3.0855   -1.0630 C   0  0  0  0  0  0  0  0  0  0  0  0
    2.4784   -2.9806   -0.0198 C   0  0  2  0  0  0  0  0  0  0  0  0
    1.0943   -3.4024   -0.5784 C   0  0  0  0  0  0  0  0  0  0  0  0
   -0.0053   -3.2789    0.4884 C   0  0  0  0  0  0  0  0  0  0  0  0
   -1.3290   -3.6351   -0.0549 N   0  0  0  0  0  0  0  0  0  0  0  0
   -1.8064   -5.0113    0.1145 C   0  0  0  0  0  0  0  0  0  0  0  0
   -2.2025   -2.6771   -0.7112 C   0  0  0  0  0  0  0  0  0  0  0  0
   -3.3573   -3.0397   -1.0636 O   0  0  0  0  0  0  0  0  0  0  0  0
   -1.7667   -1.2688   -1.0489 C   0  0  0  0  0  0  0  0  0  0  0  0
   -2.4228   -0.0835   -0.2466 C   0  0  0  0  0  0  0  0  0  0  0  0
   -3.9164    0.1023   -0.7077 C   0  0  0  0  0  0  0  0  0  0  0  0
   -4.9221    0.1819    0.4476 C   0  0  0  0  0  0  0  0  0  0  0  0
   -4.8117   -1.0588    1.3380 C   0  0  0  0  0  0  0  0  0  0  0  0
   -3.3841   -1.2991    1.8694 C   0  0  0  0  0  0  0  0  0  0  0  0
   -2.3380   -0.3220    1.3006 C   0  0  0  0  0  0  0  0  0  0  0  0
   -1.5831    1.1961   -0.6430 C   0  0  0  0  0  0  0  0  0  0  0  0
   -1.6377    2.3032    0.3232 N   0  0  0  0  0  0  0  0  0  0  0  0
   -2.7032    3.3031    0.2750 C   0  0  0  0  0  0  0  0  0  0  0  0
   -0.5198    2.5328    1.1966 C   0  0  0  0  0  0  0  0  0  0  0  0
   -0.4653    1.9594    2.3145 O   0  0  0  0  0  0  0  0  0  0  0  0
    0.5491    3.4679    0.8154 C   0  0  0  0  0  0  0  0  0  0  0  0
    0.4352    4.8105    1.2071 C   0  0  0  0  0  0  0  0  0  0  0  0
    1.4134    5.7418    0.8386 C   0  0  0  0  0  0  0  0  0  0  0  0
    1.2839    7.1190    1.2375 C   0  0  0  0  0  0  0  0  0  0  0  0
    1.1778    8.2255    1.5575 N   0  0  0  0  0  0  0  0  0  0  0  0
    2.5101    5.3341    0.0736 C   0  0  0  0  0  0  0  0  0  0  0  0
    2.6339    3.9995   -0.3179 C   0  0  0  0  0  0  0  0  0  0  0  0
    1.6699    3.0559    0.0572 C   0  0  0  0  0  0  0  0  0  0  0  0
    1.8381    1.7346   -0.3687 O   0  0  0  0  0  0  0  0  0  0  0  0
    2.1717    0.6698    0.5199 C   0  0  0  0  0  0  0  0  0  0  0  0
    2.3564   -0.6295   -0.2737 C   0  0  2  0  0  0  0  0  0  0  0  0
    2.4634   -1.7148    0.6362 O   0  0  0  0  0  0  0  0  0  0  0  0
    5.1296    1.5609   -0.9728 H   0  0  0  0  0  0  0  0  0  0  0  0
    5.9046    0.2807   -2.0239 H   0  0  0  0  0  0  0  0  0  0  0  0
    6.5340    0.6146   -0.3757 H   0  0  0  0  0  0  0  0  0  0  0  0
    3.4167    0.2681   -1.9328 H   0  0  0  0  0  0  0  0  0  0  0  0
    4.5807   -1.8985   -2.6064 H   0  0  0  0  0  0  0  0  0  0  0  0
    2.7910   -1.9267   -2.7042 H   0  0  0  0  0  0  0  0  0  0  0  0
    3.5076   -4.0171   -1.6610 H   0  0  0  0  0  0  0  0  0  0  0  0
    4.5859   -3.1492   -0.5261 H   0  0  0  0  0  0  0  0  0  0  0  0
    2.7239   -3.7316    0.7632 H   0  0  0  0  0  0  0  0  0  0  0  0
    1.1482   -4.4665   -0.8995 H   0  0  0  0  0  0  0  0  0  0  0  0
    0.8347   -2.8156   -1.4825 H   0  0  0  0  0  0  0  0  0  0  0  0
    0.2487   -3.9418    1.3427 H   0  0  0  0  0  0  0  0  0  0  0  0
   -0.0240   -2.2605    0.9130 H   0  0  0  0  0  0  0  0  0  0  0  0
   -1.0321   -5.6581    0.5794 H   0  0  0  0  0  0  0  0  0  0  0  0
   -2.0648   -5.4451   -0.8739 H   0  0  0  0  0  0  0  0  0  0  0  0
   -2.7060   -5.0166    0.7649 H   0  0  0  0  0  0  0  0  0  0  0  0
   -0.6767   -1.2177   -0.9499 H   0  0  0  0  0  0  0  0  0  0  0  0
   -1.9483   -1.1132   -2.1358 H   0  0  0  0  0  0  0  0  0  0  0  0
   -4.2375   -0.7317   -1.3655 H   0  0  0  0  0  0  0  0  0  0  0  0
   -4.0456    1.0068   -1.3371 H   0  0  0  0  0  0  0  0  0  0  0  0
   -4.7466    1.1015    1.0480 H   0  0  0  0  0  0  0  0  0  0  0  0
   -5.9535    0.2449    0.0355 H   0  0  0  0  0  0  0  0  0  0  0  0
   -5.1419   -1.9471    0.7558 H   0  0  0  0  0  0  0  0  0  0  0  0
   -5.5138   -0.9504    2.1942 H   0  0  0  0  0  0  0  0  0  0  0  0
   -3.0845   -2.3484    1.6878 H   0  0  0  0  0  0  0  0  0  0  0  0
   -3.3911   -1.1856    2.9747 H   0  0  0  0  0  0  0  0  0  0  0  0
   -2.5380    0.6300    1.8334 H   0  0  0  0  0  0  0  0  0  0  0  0
   -1.3186   -0.6269    1.6059 H   0  0  0  0  0  0  0  0  0  0  0  0
   -1.8891    1.5690   -1.6459 H   0  0  0  0  0  0  0  0  0  0  0  0
   -0.5166    0.9298   -0.7839 H   0  0  0  0  0  0  0  0  0  0  0  0
   -3.4594    3.0516   -0.4947 H   0  0  0  0  0  0  0  0  0  0  0  0
   -3.2066    3.3596    1.2635 H   0  0  0  0  0  0  0  0  0  0  0  0
   -2.2761    4.2984    0.0245 H   0  0  0  0  0  0  0  0  0  0  0  0
   -0.4191    5.1307    1.7935 H   0  0  0  0  0  0  0  0  0  0  0  0
    3.2690    6.0483   -0.2224 H   0  0  0  0  0  0  0  0  0  0  0  0
    3.4869    3.6946   -0.9117 H   0  0  0  0  0  0  0  0  0  0  0  0
    1.3532    0.5232    1.2528 H   0  0  0  0  0  0  0  0  0  0  0  0
    3.1000    0.9195    1.0776 H   0  0  0  0  0  0  0  0  0  0  0  0
    1.4512   -0.7336   -0.9013 H   0  0  0  0  0  0  0  0  0  0  0  0
  1  2  1  0
  2  3  1  0
  3  4  1  0
  4  5  1  0
  5  6  1  0
  6  7  1  0
  7  8  1  0
  8  9  1  0
  9 10  1  0
  9 11  1  0
 11 12  2  0
 11 13  1  0
 13 14  1  0
 14 15  1  0
 15 16  1  0
 16 17  1  0
 17 18  1  0
 18 19  1  0
 14 20  1  0
 20 21  1  0
 21 22  1  0
 21 23  1  0
 23 24  2  0
 23 25  1  0
 25 26  2  0
 26 27  1  0
 27 28  1  0
 28 29  3  0
 27 30  2  0
 30 31  1  0
 31 32  2  0
 32 33  1  0
 33 34  1  0
 34 35  1  0
 35 36  1  0
 35  3  1  0
 36  6  1  0
 19 14  1  0
 32 25  1  0
  1 37  1  0
  1 38  1  0
  1 39  1  0
  3 40  1  6
  4 41  1  0
  4 42  1  0
  5 43  1  0
  5 44  1  0
  6 45  1  1
  7 46  1  0
  7 47  1  0
  8 48  1  0
  8 49  1  0
 10 50  1  0
 10 51  1  0
 10 52  1  0
 13 53  1  0
 13 54  1  0
 15 55  1  0
 15 56  1  0
 16 57  1  0
 16 58  1  0
 17 59  1  0
 17 60  1  0
 18 61  1  0
 18 62  1  0
 19 63  1  0
 19 64  1  0
 20 65  1  0
 20 66  1  0
 22 67  1  0
 22 68  1  0
 22 69  1  0
 26 70  1  0
 30 71  1  0
 31 72  1  0
 34 73  1  0
 34 74  1  0
 35 75  1  6
M  END
$$$$
