
     RDKit          3D

142142  0  0  0  0  0  0  0  0999 V2000
   12.2017   -0.1444    0.3143 C   0  0  0  0  0  0  0  0  0  0  0  0
   10.8082   -0.2491   -0.2988 C   0  0  0  0  0  0  0  0  0  0  0  0
   10.0050    1.0394   -0.0652 C   0  0  0  0  0  0  0  0  0  0  0  0
    8.6226    1.0062   -0.7365 C   0  0  0  0  0  0  0  0  0  0  0  0
    7.6251    0.1162    0.0237 C   0  0  0  0  0  0  0  0  0  0  0  0
    6.2588    0.0284   -0.6715 C   0  0  0  0  0  0  0  0  0  0  0  0
    5.4525    1.3373   -0.5795 C   0  0  0  0  0  0  0  0  0  0  0  0
    4.0078    1.1429   -1.0696 C   0  0  1  0  0  0  0  0  0  0  0  0
    3.3295    0.2601   -0.1733 O   0  0  0  0  0  0  0  0  0  0  0  0
    2.7635   -0.9432   -0.5976 C   0  0  0  0  0  0  0  0  0  0  0  0
    2.0720   -0.9790   -1.6530 O   0  0  0  0  0  0  0  0  0  0  0  0
    3.0324   -2.2014    0.1890 C   0  0  2  0  0  0  0  0  0  0  0  0
    3.4841   -3.3470   -0.7519 C   0  0  0  0  0  0  0  0  0  0  0  0
    3.9312   -4.6419   -0.0333 C   0  0  0  0  0  0  0  0  0  0  0  0
    4.0548   -5.7853   -1.0512 C   0  0  0  0  0  0  0  0  0  0  0  0
    5.2701   -4.4616    0.6983 C   0  0  0  0  0  0  0  0  0  0  0  0
    1.8986   -2.5767    1.0645 N   0  0  0  0  0  0  0  0  0  0  0  0
    2.1892   -2.8156    2.4830 C   0  0  0  0  0  0  0  0  0  0  0  0
    0.5243   -2.2927    0.7272 C   0  0  0  0  0  0  0  0  0  0  0  0
   -0.1536   -1.5719    1.5097 O   0  0  0  0  0  0  0  0  0  0  0  0
   -0.1659   -2.9618   -0.4448 C   0  0  1  0  0  0  0  0  0  0  0  0
   -0.8943   -4.2471   -0.0145 C   0  0  0  0  0  0  0  0  0  0  0  0
    0.0751   -5.4113    0.2565 C   0  0  0  0  0  0  0  0  0  0  0  0
   -0.6341   -6.6591    0.8175 C   0  0  0  0  0  0  0  0  0  0  0  0
   -1.0591   -7.6796   -0.2526 C   0  0  0  0  0  0  0  0  0  0  0  0
   -2.2495   -7.2225   -1.0944 C   0  0  0  0  0  0  0  0  0  0  0  0
   -1.0566   -2.0646   -1.1246 O   0  0  0  0  0  0  0  0  0  0  0  0
   -2.0718   -1.3141   -0.5194 C   0  0  0  0  0  0  0  0  0  0  0  0
   -1.9150   -0.0701   -0.4144 O   0  0  0  0  0  0  0  0  0  0  0  0
   -3.4016   -1.9207   -0.1726 C   0  0  0  0  0  0  0  0  0  0  0  0
   -3.8922   -1.4270    1.1280 N   0  0  0  0  0  0  0  0  0  0  0  0
   -3.5015   -2.1293    2.3555 C   0  0  0  0  0  0  0  0  0  0  0  0
   -4.6938   -0.2302    1.2646 C   0  0  0  0  0  0  0  0  0  0  0  0
   -4.7889    0.3196    2.3984 O   0  0  0  0  0  0  0  0  0  0  0  0
   -5.4849    0.3562    0.1120 C   0  0  1  0  0  0  0  0  0  0  0  0
   -6.6754   -0.5506   -0.2570 C   0  0  0  0  0  0  0  0  0  0  0  0
   -7.7595   -0.6124    0.8383 C   0  0  0  0  0  0  0  0  0  0  0  0
   -8.7154   -1.8109    0.6796 C   0  0  0  0  0  0  0  0  0  0  0  0
   -9.8872   -1.5701   -0.2901 C   0  0  0  0  0  0  0  0  0  0  0  0
   -9.5137   -1.7550   -1.7602 C   0  0  0  0  0  0  0  0  0  0  0  0
   -5.9745    1.6626    0.4396 O   0  0  0  0  0  0  0  0  0  0  0  0
   -5.1988    2.8253    0.5271 C   0  0  0  0  0  0  0  0  0  0  0  0
   -5.7743    3.9120    0.8027 O   0  0  0  0  0  0  0  0  0  0  0  0
   -3.7079    2.8358    0.2959 C   0  0  0  0  0  0  0  0  0  0  0  0
   -3.3482    3.4372   -1.0034 N   0  0  0  0  0  0  0  0  0  0  0  0
   -4.0732    3.0005   -2.2091 C   0  0  0  0  0  0  0  0  0  0  0  0
   -2.0589    4.0749   -1.2071 C   0  0  0  0  0  0  0  0  0  0  0  0
   -1.6167    4.2072   -2.3802 O   0  0  0  0  0  0  0  0  0  0  0  0
   -1.2026    4.6283   -0.0815 C   0  0  1  0  0  0  0  0  0  0  0  0
   -1.8648    5.8198    0.6368 C   0  0  0  0  0  0  0  0  0  0  0  0
   -2.2977    6.9384   -0.3242 C   0  0  0  0  0  0  0  0  0  0  0  0
   -2.7980    8.1615    0.4556 C   0  0  0  0  0  0  0  0  0  0  0  0
   -3.4567    9.1853   -0.4750 C   0  0  0  0  0  0  0  0  0  0  0  0
   -3.8378   10.4544    0.2845 C   0  0  0  0  0  0  0  0  0  0  0  0
   -0.8842    3.6097    0.8710 O   0  0  0  0  0  0  0  0  0  0  0  0
    0.0032    2.5399    0.6616 C   0  0  0  0  0  0  0  0  0  0  0  0
    0.0912    1.6508    1.5489 O   0  0  0  0  0  0  0  0  0  0  0  0
    0.9095    2.4432   -0.5385 C   0  0  0  0  0  0  0  0  0  0  0  0
    2.2866    2.8505   -0.2226 N   0  0  0  0  0  0  0  0  0  0  0  0
    2.5301    4.0699    0.5534 C   0  0  0  0  0  0  0  0  0  0  0  0
    3.3048    2.4721   -1.1600 C   0  0  0  0  0  0  0  0  0  0  0  0
    3.6433    3.2827   -2.0647 O   0  0  0  0  0  0  0  0  0  0  0  0
   12.7665    0.6934   -0.1492 H   0  0  0  0  0  0  0  0  0  0  0  0
   12.1295    0.0254    1.4109 H   0  0  0  0  0  0  0  0  0  0  0  0
   12.7582   -1.0884    0.1369 H   0  0  0  0  0  0  0  0  0  0  0  0
   10.9101   -0.4362   -1.3887 H   0  0  0  0  0  0  0  0  0  0  0  0
   10.2915   -1.1168    0.1614 H   0  0  0  0  0  0  0  0  0  0  0  0
   10.5750    1.8943   -0.4934 H   0  0  0  0  0  0  0  0  0  0  0  0
    9.8905    1.2246    1.0249 H   0  0  0  0  0  0  0  0  0  0  0  0
    8.2351    2.0465   -0.7591 H   0  0  0  0  0  0  0  0  0  0  0  0
    8.7216    0.6589   -1.7894 H   0  0  0  0  0  0  0  0  0  0  0  0
    8.0286   -0.9145    0.0912 H   0  0  0  0  0  0  0  0  0  0  0  0
    7.4948    0.4931    1.0615 H   0  0  0  0  0  0  0  0  0  0  0  0
    6.3937   -0.2575   -1.7371 H   0  0  0  0  0  0  0  0  0  0  0  0
    5.6921   -0.7879   -0.1777 H   0  0  0  0  0  0  0  0  0  0  0  0
    5.9503    2.1111   -1.2025 H   0  0  0  0  0  0  0  0  0  0  0  0
    5.4333    1.6945    0.4727 H   0  0  0  0  0  0  0  0  0  0  0  0
    4.0403    0.7063   -2.0951 H   0  0  0  0  0  0  0  0  0  0  0  0
    3.9068   -1.9605    0.8310 H   0  0  0  0  0  0  0  0  0  0  0  0
    2.6752   -3.5895   -1.4663 H   0  0  0  0  0  0  0  0  0  0  0  0
    4.3311   -2.9799   -1.3746 H   0  0  0  0  0  0  0  0  0  0  0  0
    3.1588   -4.9456    0.7046 H   0  0  0  0  0  0  0  0  0  0  0  0
    4.8016   -5.5344   -1.8349 H   0  0  0  0  0  0  0  0  0  0  0  0
    4.3667   -6.7244   -0.5438 H   0  0  0  0  0  0  0  0  0  0  0  0
    3.0757   -5.9758   -1.5358 H   0  0  0  0  0  0  0  0  0  0  0  0
    5.5717   -5.4147    1.1860 H   0  0  0  0  0  0  0  0  0  0  0  0
    6.0697   -4.1546   -0.0096 H   0  0  0  0  0  0  0  0  0  0  0  0
    5.1912   -3.6994    1.4984 H   0  0  0  0  0  0  0  0  0  0  0  0
    3.0513   -3.5054    2.5952 H   0  0  0  0  0  0  0  0  0  0  0  0
    2.4283   -1.8528    2.9855 H   0  0  0  0  0  0  0  0  0  0  0  0
    1.3173   -3.2852    2.9920 H   0  0  0  0  0  0  0  0  0  0  0  0
    0.5873   -3.2479   -1.1935 H   0  0  0  0  0  0  0  0  0  0  0  0
   -1.5948   -4.5361   -0.8219 H   0  0  0  0  0  0  0  0  0  0  0  0
   -1.4796   -4.0499    0.9034 H   0  0  0  0  0  0  0  0  0  0  0  0
    0.6448   -5.6621   -0.6673 H   0  0  0  0  0  0  0  0  0  0  0  0
    0.8074   -5.0783    1.0213 H   0  0  0  0  0  0  0  0  0  0  0  0
   -1.5037   -6.3775    1.4497 H   0  0  0  0  0  0  0  0  0  0  0  0
    0.0840   -7.1795    1.4891 H   0  0  0  0  0  0  0  0  0  0  0  0
   -0.2024   -7.9237   -0.9178 H   0  0  0  0  0  0  0  0  0  0  0  0
   -1.3502   -8.6201    0.2692 H   0  0  0  0  0  0  0  0  0  0  0  0
   -3.0335   -6.7639   -0.4559 H   0  0  0  0  0  0  0  0  0  0  0  0
   -2.6922   -8.0988   -1.6144 H   0  0  0  0  0  0  0  0  0  0  0  0
   -1.9193   -6.5025   -1.8706 H   0  0  0  0  0  0  0  0  0  0  0  0
   -3.3336   -3.0259   -0.1548 H   0  0  0  0  0  0  0  0  0  0  0  0
   -4.1120   -1.6938   -0.9894 H   0  0  0  0  0  0  0  0  0  0  0  0
   -4.3985   -2.3094    2.9875 H   0  0  0  0  0  0  0  0  0  0  0  0
   -3.0524   -3.1169    2.1399 H   0  0  0  0  0  0  0  0  0  0  0  0
   -2.7688   -1.5168    2.9228 H   0  0  0  0  0  0  0  0  0  0  0  0
   -4.8317    0.4390   -0.7826 H   0  0  0  0  0  0  0  0  0  0  0  0
   -6.3130   -1.5752   -0.4810 H   0  0  0  0  0  0  0  0  0  0  0  0
   -7.1209   -0.1469   -1.1880 H   0  0  0  0  0  0  0  0  0  0  0  0
   -8.3296    0.3424    0.8621 H   0  0  0  0  0  0  0  0  0  0  0  0
   -7.2656   -0.7212    1.8272 H   0  0  0  0  0  0  0  0  0  0  0  0
   -9.1596   -2.0090    1.6796 H   0  0  0  0  0  0  0  0  0  0  0  0
   -8.1574   -2.7311    0.4057 H   0  0  0  0  0  0  0  0  0  0  0  0
  -10.6826   -2.3111   -0.0505 H   0  0  0  0  0  0  0  0  0  0  0  0
  -10.3250   -0.5597   -0.1333 H   0  0  0  0  0  0  0  0  0  0  0  0
   -8.8909   -2.6632   -1.9023 H   0  0  0  0  0  0  0  0  0  0  0  0
  -10.4397   -1.8710   -2.3609 H   0  0  0  0  0  0  0  0  0  0  0  0
   -8.9791   -0.8662   -2.1456 H   0  0  0  0  0  0  0  0  0  0  0  0
   -3.2742    3.3932    1.1398 H   0  0  0  0  0  0  0  0  0  0  0  0
   -3.2792    1.8227    0.3565 H   0  0  0  0  0  0  0  0  0  0  0  0
   -4.0264    3.7846   -2.9959 H   0  0  0  0  0  0  0  0  0  0  0  0
   -3.6231    2.0612   -2.5970 H   0  0  0  0  0  0  0  0  0  0  0  0
   -5.1494    2.8263   -2.0068 H   0  0  0  0  0  0  0  0  0  0  0  0
   -0.2531    5.0205   -0.5099 H   0  0  0  0  0  0  0  0  0  0  0  0
   -2.7482    5.4943    1.2222 H   0  0  0  0  0  0  0  0  0  0  0  0
   -1.1295    6.2325    1.3625 H   0  0  0  0  0  0  0  0  0  0  0  0
   -3.1141    6.5635   -0.9801 H   0  0  0  0  0  0  0  0  0  0  0  0
   -1.4385    7.2385   -0.9638 H   0  0  0  0  0  0  0  0  0  0  0  0
   -3.5474    7.8368    1.2136 H   0  0  0  0  0  0  0  0  0  0  0  0
   -1.9386    8.6302    0.9878 H   0  0  0  0  0  0  0  0  0  0  0  0
   -2.7591    9.4537   -1.2999 H   0  0  0  0  0  0  0  0  0  0  0  0
   -4.3742    8.7400   -0.9201 H   0  0  0  0  0  0  0  0  0  0  0  0
   -2.9262   11.0467    0.5111 H   0  0  0  0  0  0  0  0  0  0  0  0
   -4.3540   10.2043    1.2345 H   0  0  0  0  0  0  0  0  0  0  0  0
   -4.5183   11.0702   -0.3388 H   0  0  0  0  0  0  0  0  0  0  0  0
    0.9017    1.3895   -0.8899 H   0  0  0  0  0  0  0  0  0  0  0  0
    0.5381    3.0531   -1.3829 H   0  0  0  0  0  0  0  0  0  0  0  0
    2.2199    4.9584   -0.0363 H   0  0  0  0  0  0  0  0  0  0  0  0
    3.6098    4.1616    0.8016 H   0  0  0  0  0  0  0  0  0  0  0  0
    1.9734    4.0481    1.5109 H   0  0  0  0  0  0  0  0  0  0  0  0
  1  2  1  0
  2  3  1  0
  3  4  1  0
  4  5  1  0
  5  6  1  0
  6  7  1  0
  7  8  1  0
  8  9  1  0
  9 10  1  0
 10 11  2  0
 10 12  1  0
 12 13  1  0
 13 14  1  0
 14 15  1  0
 14 16  1  0
 12 17  1  0
 17 18  1  0
 17 19  1  0
 19 20  2  0
 19 21  1  0
 21 22  1  0
 22 23  1  0
 23 24  1  0
 24 25  1  0
 25 26  1  0
 21 27  1  0
 27 28  1  0
 28 29  2  0
 28 30  1  0
 30 31  1  0
 31 32  1  0
 31 33  1  0
 33 34  2  0
 33 35  1  0
 35 36  1  0
 36 37  1  0
 37 38  1  0
 38 39  1  0
 39 40  1  0
 35 41  1  0
 41 42  1  0
 42 43  2  0
 42 44  1  0
 44 45  1  0
 45 46  1  0
 45 47  1  0
 47 48  2  0
 47 49  1  0
 49 50  1  0
 50 51  1  0
 51 52  1  0
 52 53  1  0
 53 54  1  0
 49 55  1  0
 55 56  1  0
 56 57  2  0
 56 58  1  0
 58 59  1  0
 59 60  1  0
 59 61  1  0
 61 62  2  0
 61  8  1  0
  1 63  1  0
  1 64  1  0
  1 65  1  0
  2 66  1  0
  2 67  1  0
  3 68  1  0
  3 69  1  0
  4 70  1  0
  4 71  1  0
  5 72  1  0
  5 73  1  0
  6 74  1  0
  6 75  1  0
  7 76  1  0
  7 77  1  0
  8 78  1  6
 12 79  1  1
 13 80  1  0
 13 81  1  0
 14 82  1  0
 15 83  1  0
 15 84  1  0
 15 85  1  0
 16 86  1  0
 16 87  1  0
 16 88  1  0
 18 89  1  0
 18 90  1  0
 18 91  1  0
 21 92  1  6
 22 93  1  0
 22 94  1  0
 23 95  1  0
 23 96  1  0
 24 97  1  0
 24 98  1  0
 25 99  1  0
 25100  1  0
 26101  1  0
 26102  1  0
 26103  1  0
 30104  1  0
 30105  1  0
 32106  1  0
 32107  1  0
 32108  1  0
 35109  1  6
 36110  1  0
 36111  1  0
 37112  1  0
 37113  1  0
 38114  1  0
 38115  1  0
 39116  1  0
 39117  1  0
 40118  1  0
 40119  1  0
 40120  1  0
 44121  1  0
 44122  1  0
 46123  1  0
 46124  1  0
 46125  1  0
 49126  1  6
 50127  1  0
 50128  1  0
 51129  1  0
 51130  1  0
 52131  1  0
 52132  1  0
 53133  1  0
 53134  1  0
 54135  1  0
 54136  1  0
 54137  1  0
 58138  1  0
 58139  1  0
 60140  1  0
 60141  1  0
 60142  1  0
M  END
$$$$
