
     RDKit          3D

 79 82  0  0  0  0  0  0  0  0999 V2000
    5.0593    0.7317    1.2532 C   0  0  0  0  0  0  0  0  0  0  0  0
    4.9634    0.3118   -0.2207 C   0  0  0  0  0  0  0  0  0  0  0  0
    5.7394    1.2986   -1.1083 C   0  0  0  0  0  0  0  0  0  0  0  0
    3.4830    0.1067   -0.6547 C   0  0  2  0  0  0  0  0  0  0  0  0
    3.4157   -0.5516   -1.9673 N   0  0  0  0  0  0  0  0  0  0  0  0
    3.6272   -1.9598   -2.1966 C   0  0  0  0  0  0  0  0  0  0  0  0
    4.2626   -2.2954   -3.2339 O   0  0  0  0  0  0  0  0  0  0  0  0
    3.1209   -3.0543   -1.2507 C   0  0  0  0  0  0  0  0  0  0  0  0
    2.9479   -4.3796   -2.0273 C   0  0  0  0  0  0  0  0  0  0  0  0
    4.1676   -3.2701   -0.1319 C   0  0  0  0  0  0  0  0  0  0  0  0
    1.7564   -2.6743   -0.6958 C   0  0  0  0  0  0  0  0  0  0  0  0
    1.2012   -3.2670    0.3741 C   0  0  0  0  0  0  0  0  0  0  0  0
   -0.0936   -2.8367    0.9359 C   0  0  0  0  0  0  0  0  0  0  0  0
   -1.1291   -2.3495    0.1232 C   0  0  0  0  0  0  0  0  0  0  0  0
   -2.2993   -1.8582    0.7143 C   0  0  0  0  0  0  0  0  0  0  0  0
   -3.3183   -1.2995   -0.0701 C   0  0  0  0  0  0  0  0  0  0  0  0
   -4.4576   -0.7269    0.5288 C   0  0  0  0  0  0  0  0  0  0  0  0
   -4.6049   -0.8276    1.9283 C   0  0  0  0  0  0  0  0  0  0  0  0
   -3.6009   -1.3995    2.7138 C   0  0  0  0  0  0  0  0  0  0  0  0
   -2.4403   -1.9037    2.1156 C   0  0  0  0  0  0  0  0  0  0  0  0
   -1.4084   -2.4544    2.8851 C   0  0  0  0  0  0  0  0  0  0  0  0
   -0.2720   -2.8948    2.2837 N   0  0  0  0  0  0  0  0  0  0  0  0
   -5.5568   -0.1367   -0.3470 C   0  0  1  0  0  0  0  0  0  0  0  0
   -6.4622    0.8917    0.3528 C   0  0  0  0  0  0  0  0  0  0  0  0
   -5.0509    0.3677   -1.5948 O   0  0  0  0  0  0  0  0  0  0  0  0
   -4.0924    1.3778   -1.8121 C   0  0  0  0  0  0  0  0  0  0  0  0
   -3.5129    1.3909   -2.9312 O   0  0  0  0  0  0  0  0  0  0  0  0
   -3.7161    2.4149   -0.7717 C   0  0  2  0  0  0  0  0  0  0  0  0
   -3.1613    3.7276   -1.3985 C   0  0  0  0  0  0  0  0  0  0  0  0
   -2.2546    4.4560   -0.4075 C   0  0  0  0  0  0  0  0  0  0  0  0
   -1.0517    3.5685   -0.0874 C   0  0  0  0  0  0  0  0  0  0  0  0
   -1.4662    2.1619   -0.0163 N   0  0  0  0  0  0  0  0  0  0  0  0
   -2.8105    1.8140    0.2299 N   0  0  0  0  0  0  0  0  0  0  0  0
   -0.5184    1.1160   -0.2491 C   0  0  0  0  0  0  0  0  0  0  0  0
   -0.6337    0.4061   -1.2835 O   0  0  0  0  0  0  0  0  0  0  0  0
    0.6335    0.8675    0.6915 C   0  0  2  0  0  0  0  0  0  0  0  0
    0.2318    1.0636    2.1549 C   0  0  0  0  0  0  0  0  0  0  0  0
    1.7581    1.7401    0.3499 N   0  0  0  0  0  0  0  0  0  0  0  0
    2.6984    1.4075   -0.6820 C   0  0  0  0  0  0  0  0  0  0  0  0
    2.9199    2.2505   -1.5931 O   0  0  0  0  0  0  0  0  0  0  0  0
    6.1240    0.7898    1.5664 H   0  0  0  0  0  0  0  0  0  0  0  0
    4.5869    1.7241    1.4135 H   0  0  0  0  0  0  0  0  0  0  0  0
    4.5500   -0.0141    1.9007 H   0  0  0  0  0  0  0  0  0  0  0  0
    5.4797   -0.6676   -0.3101 H   0  0  0  0  0  0  0  0  0  0  0  0
    6.8202    1.2562   -0.8573 H   0  0  0  0  0  0  0  0  0  0  0  0
    5.3931    2.3398   -0.9472 H   0  0  0  0  0  0  0  0  0  0  0  0
    5.6314    1.0352   -2.1798 H   0  0  0  0  0  0  0  0  0  0  0  0
    3.0212   -0.5517    0.0984 H   0  0  0  0  0  0  0  0  0  0  0  0
    3.5060    0.0597   -2.8109 H   0  0  0  0  0  0  0  0  0  0  0  0
    2.2452   -4.2428   -2.8786 H   0  0  0  0  0  0  0  0  0  0  0  0
    2.5401   -5.1768   -1.3678 H   0  0  0  0  0  0  0  0  0  0  0  0
    3.9204   -4.7377   -2.4270 H   0  0  0  0  0  0  0  0  0  0  0  0
    4.1402   -2.4545    0.6167 H   0  0  0  0  0  0  0  0  0  0  0  0
    5.1915   -3.3246   -0.5606 H   0  0  0  0  0  0  0  0  0  0  0  0
    3.9877   -4.2230    0.4098 H   0  0  0  0  0  0  0  0  0  0  0  0
    1.2137   -1.8821   -1.1980 H   0  0  0  0  0  0  0  0  0  0  0  0
    1.7476   -4.0269    0.9154 H   0  0  0  0  0  0  0  0  0  0  0  0
   -1.0222   -2.3346   -0.9539 H   0  0  0  0  0  0  0  0  0  0  0  0
   -3.2105   -1.2881   -1.1477 H   0  0  0  0  0  0  0  0  0  0  0  0
   -5.4951   -0.4648    2.4239 H   0  0  0  0  0  0  0  0  0  0  0  0
   -3.7324   -1.4456    3.7882 H   0  0  0  0  0  0  0  0  0  0  0  0
   -1.4938   -2.5130    3.9626 H   0  0  0  0  0  0  0  0  0  0  0  0
   -6.2178   -0.9900   -0.6127 H   0  0  0  0  0  0  0  0  0  0  0  0
   -7.2494    0.3666    0.9335 H   0  0  0  0  0  0  0  0  0  0  0  0
   -6.9651    1.5363   -0.3983 H   0  0  0  0  0  0  0  0  0  0  0  0
   -5.8946    1.5272    1.0630 H   0  0  0  0  0  0  0  0  0  0  0  0
   -4.6478    2.7244   -0.2626 H   0  0  0  0  0  0  0  0  0  0  0  0
   -4.0051    4.3920   -1.6886 H   0  0  0  0  0  0  0  0  0  0  0  0
   -2.5670    3.5266   -2.3164 H   0  0  0  0  0  0  0  0  0  0  0  0
   -2.8207    4.6805    0.5233 H   0  0  0  0  0  0  0  0  0  0  0  0
   -1.9076    5.4178   -0.8445 H   0  0  0  0  0  0  0  0  0  0  0  0
   -0.2989    3.6903   -0.8990 H   0  0  0  0  0  0  0  0  0  0  0  0
   -0.5926    3.8832    0.8731 H   0  0  0  0  0  0  0  0  0  0  0  0
   -3.0577    2.1783    1.1801 H   0  0  0  0  0  0  0  0  0  0  0  0
    0.9303   -0.1935    0.5919 H   0  0  0  0  0  0  0  0  0  0  0  0
   -0.6469    0.4297    2.4008 H   0  0  0  0  0  0  0  0  0  0  0  0
   -0.0220    2.1226    2.3640 H   0  0  0  0  0  0  0  0  0  0  0  0
    1.0733    0.7665    2.8174 H   0  0  0  0  0  0  0  0  0  0  0  0
    1.6702    2.7529    0.5891 H   0  0  0  0  0  0  0  0  0  0  0  0
  1  2  1  0
  2  3  1  0
  2  4  1  0
  4  5  1  0
  5  6  1  0
  6  7  2  0
  6  8  1  0
  8  9  1  0
  8 10  1  0
  8 11  1  0
 11 12  2  0
 12 13  1  0
 13 14  2  0
 14 15  1  0
 15 16  2  0
 16 17  1  0
 17 18  2  0
 18 19  1  0
 19 20  2  0
 20 21  1  0
 21 22  2  0
 17 23  1  0
 23 24  1  0
 23 25  1  0
 25 26  1  0
 26 27  2  0
 26 28  1  0
 28 29  1  0
 29 30  1  0
 30 31  1  0
 31 32  1  0
 32 33  1  0
 32 34  1  0
 34 35  2  0
 34 36  1  0
 36 37  1  0
 36 38  1  0
 38 39  1  0
 39 40  2  0
 39  4  1  0
 22 13  1  0
 33 28  1  0
 20 15  1  0
  1 41  1  0
  1 42  1  0
  1 43  1  0
  2 44  1  0
  3 45  1  0
  3 46  1  0
  3 47  1  0
  4 48  1  1
  5 49  1  0
  9 50  1  0
  9 51  1  0
  9 52  1  0
 10 53  1  0
 10 54  1  0
 10 55  1  0
 11 56  1  0
 12 57  1  0
 14 58  1  0
 16 59  1  0
 18 60  1  0
 19 61  1  0
 21 62  1  0
 23 63  1  6
 24 64  1  0
 24 65  1  0
 24 66  1  0
 28 67  1  1
 29 68  1  0
 29 69  1  0
 30 70  1  0
 30 71  1  0
 31 72  1  0
 31 73  1  0
 33 74  1  0
 36 75  1  1
 37 76  1  0
 37 77  1  0
 37 78  1  0
 38 79  1  0
M  END
$$$$
