
     RDKit          3D

 92 94  0  0  0  0  0  0  0  0999 V2000
   -6.0798    3.1829   -1.8976 C   0  0  0  0  0  0  0  0  0  0  0  0
   -6.1809    2.4642   -0.5476 C   0  0  0  0  0  0  0  0  0  0  0  0
   -5.9087    0.9559   -0.6669 C   0  0  0  0  0  0  0  0  0  0  0  0
   -4.4135    0.5881   -0.6774 C   0  0  0  0  0  0  0  0  0  0  0  0
   -3.7716    0.8065    0.6348 N   0  0  0  0  0  0  0  0  0  0  0  0
   -2.9375    1.9730    0.9872 C   0  0  0  0  0  0  0  0  0  0  0  0
   -2.4169    2.7863   -0.1973 C   0  0  0  0  0  0  0  0  0  0  0  0
   -1.5253    1.9889   -0.9739 O   0  0  0  0  0  0  0  0  0  0  0  0
   -0.9415    2.4143   -2.1748 C   0  0  0  0  0  0  0  0  0  0  0  0
   -1.7090    3.0801   -3.1483 C   0  0  0  0  0  0  0  0  0  0  0  0
   -1.1292    3.4927   -4.3495 C   0  0  0  0  0  0  0  0  0  0  0  0
    0.2172    3.2522   -4.5921 C   0  0  0  0  0  0  0  0  0  0  0  0
    0.9939    2.5987   -3.6324 C   0  0  0  0  0  0  0  0  0  0  0  0
    0.4258    2.1624   -2.4229 C   0  0  0  0  0  0  0  0  0  0  0  0
    1.2916    1.4693   -1.4445 C   0  0  0  0  0  0  0  0  0  0  0  0
    2.4732    1.8787   -1.2684 O   0  0  0  0  0  0  0  0  0  0  0  0
    0.8383    0.2898   -0.7588 N   0  0  0  0  0  0  0  0  0  0  0  0
    1.6612   -0.9135   -0.5715 C   0  0  0  0  0  0  0  0  0  0  0  0
    2.7807   -0.9883   -1.5872 C   0  0  0  0  0  0  0  0  0  0  0  0
    2.5067   -0.9286   -2.8152 O   0  0  0  0  0  0  0  0  0  0  0  0
    4.1504   -1.1284   -1.1698 N   0  0  0  0  0  0  0  0  0  0  0  0
    5.1661   -0.2689   -1.7844 C   0  0  0  0  0  0  0  0  0  0  0  0
    6.5576   -0.5364   -1.1981 C   0  0  0  0  0  0  0  0  0  0  0  0
    6.4981   -0.5939    0.3407 C   0  0  0  0  0  0  0  0  0  0  0  0
    7.7891   -0.9112    0.8453 O   0  0  0  0  0  0  0  0  0  0  0  0
    8.5119    0.2463    1.2243 C   0  0  0  0  0  0  0  0  0  0  0  0
    8.3071    0.5239    2.7166 C   0  0  0  0  0  0  0  0  0  0  0  0
    9.0779    1.7616    3.1657 C   0  0  0  0  0  0  0  0  0  0  0  0
    5.4854   -1.6564    0.8457 C   0  0  0  0  0  0  0  0  0  0  0  0
    4.5437   -2.1976   -0.2423 C   0  0  0  0  0  0  0  0  0  0  0  0
    0.7943   -2.1873   -0.6877 C   0  0  0  0  0  0  0  0  0  0  0  0
   -0.1131   -2.4382    0.5339 C   0  0  0  0  0  0  0  0  0  0  0  0
   -1.4106   -1.6696    0.5095 C   0  0  0  0  0  0  0  0  0  0  0  0
   -2.0441   -1.5439   -0.5725 O   0  0  0  0  0  0  0  0  0  0  0  0
   -1.9721   -1.1816    1.7397 N   0  0  0  0  0  0  0  0  0  0  0  0
   -3.3959   -1.2877    2.1044 C   0  0  0  0  0  0  0  0  0  0  0  0
   -4.0398   -2.5843    1.5462 C   0  0  0  0  0  0  0  0  0  0  0  0
   -5.3418   -3.0161    2.2819 C   0  0  0  0  0  0  0  0  0  0  0  0
   -6.5970   -2.6118    1.4999 C   0  0  0  0  0  0  0  0  0  0  0  0
   -5.3620   -4.5352    2.5075 C   0  0  0  0  0  0  0  0  0  0  0  0
   -4.1613   -0.0375    1.7339 C   0  0  0  0  0  0  0  0  0  0  0  0
   -5.1529    0.2974    2.4411 O   0  0  0  0  0  0  0  0  0  0  0  0
   -6.8170    2.7534   -2.6092 H   0  0  0  0  0  0  0  0  0  0  0  0
   -6.2960    4.2671   -1.7587 H   0  0  0  0  0  0  0  0  0  0  0  0
   -5.0661    3.0711   -2.3301 H   0  0  0  0  0  0  0  0  0  0  0  0
   -7.2154    2.6060   -0.1636 H   0  0  0  0  0  0  0  0  0  0  0  0
   -5.4961    2.9342    0.1879 H   0  0  0  0  0  0  0  0  0  0  0  0
   -6.4113    0.4336    0.1721 H   0  0  0  0  0  0  0  0  0  0  0  0
   -6.3818    0.5689   -1.5981 H   0  0  0  0  0  0  0  0  0  0  0  0
   -3.8934    1.1237   -1.4934 H   0  0  0  0  0  0  0  0  0  0  0  0
   -4.3404   -0.4850   -0.9403 H   0  0  0  0  0  0  0  0  0  0  0  0
   -3.5221    2.6457    1.6496 H   0  0  0  0  0  0  0  0  0  0  0  0
   -2.0571    1.6277    1.5690 H   0  0  0  0  0  0  0  0  0  0  0  0
   -1.8591    3.6700    0.1912 H   0  0  0  0  0  0  0  0  0  0  0  0
   -3.2630    3.1674   -0.7980 H   0  0  0  0  0  0  0  0  0  0  0  0
   -2.7634    3.2708   -2.9950 H   0  0  0  0  0  0  0  0  0  0  0  0
   -1.7333    3.9955   -5.0963 H   0  0  0  0  0  0  0  0  0  0  0  0
    0.6620    3.5633   -5.5298 H   0  0  0  0  0  0  0  0  0  0  0  0
    2.0370    2.4064   -3.8477 H   0  0  0  0  0  0  0  0  0  0  0  0
    0.0085    0.3961   -0.1379 H   0  0  0  0  0  0  0  0  0  0  0  0
    2.1093   -0.8612    0.4429 H   0  0  0  0  0  0  0  0  0  0  0  0
    5.1912   -0.4353   -2.8812 H   0  0  0  0  0  0  0  0  0  0  0  0
    4.8998    0.7920   -1.6028 H   0  0  0  0  0  0  0  0  0  0  0  0
    7.2473    0.2708   -1.5203 H   0  0  0  0  0  0  0  0  0  0  0  0
    6.9456   -1.4968   -1.5989 H   0  0  0  0  0  0  0  0  0  0  0  0
    6.1263    0.3956    0.7071 H   0  0  0  0  0  0  0  0  0  0  0  0
    8.2599    1.1439    0.6077 H   0  0  0  0  0  0  0  0  0  0  0  0
    9.5911    0.0444    1.0551 H   0  0  0  0  0  0  0  0  0  0  0  0
    8.6610   -0.3541    3.3035 H   0  0  0  0  0  0  0  0  0  0  0  0
    7.2272    0.6744    2.9231 H   0  0  0  0  0  0  0  0  0  0  0  0
   10.1626    1.6451    2.9570 H   0  0  0  0  0  0  0  0  0  0  0  0
    8.9476    1.9058    4.2600 H   0  0  0  0  0  0  0  0  0  0  0  0
    8.6956    2.6638    2.6385 H   0  0  0  0  0  0  0  0  0  0  0  0
    4.8695   -1.2100    1.6578 H   0  0  0  0  0  0  0  0  0  0  0  0
    6.0220   -2.5200    1.2982 H   0  0  0  0  0  0  0  0  0  0  0  0
    3.6604   -2.6678    0.2413 H   0  0  0  0  0  0  0  0  0  0  0  0
    5.0619   -2.9945   -0.8186 H   0  0  0  0  0  0  0  0  0  0  0  0
    1.4681   -3.0682   -0.7705 H   0  0  0  0  0  0  0  0  0  0  0  0
    0.2002   -2.1668   -1.6247 H   0  0  0  0  0  0  0  0  0  0  0  0
    0.4525   -2.2319    1.4730 H   0  0  0  0  0  0  0  0  0  0  0  0
   -0.3814   -3.5182    0.5547 H   0  0  0  0  0  0  0  0  0  0  0  0
   -1.3035   -0.9745    2.5134 H   0  0  0  0  0  0  0  0  0  0  0  0
   -3.4232   -1.3558    3.2182 H   0  0  0  0  0  0  0  0  0  0  0  0
   -3.2784   -3.3905    1.6526 H   0  0  0  0  0  0  0  0  0  0  0  0
   -4.2283   -2.4821    0.4561 H   0  0  0  0  0  0  0  0  0  0  0  0
   -5.3954   -2.5398    3.2844 H   0  0  0  0  0  0  0  0  0  0  0  0
   -7.5083   -2.8965    2.0723 H   0  0  0  0  0  0  0  0  0  0  0  0
   -6.6228   -3.1224    0.5111 H   0  0  0  0  0  0  0  0  0  0  0  0
   -6.6208   -1.5178    1.3332 H   0  0  0  0  0  0  0  0  0  0  0  0
   -5.3020   -5.0723    1.5364 H   0  0  0  0  0  0  0  0  0  0  0  0
   -4.4989   -4.8388    3.1400 H   0  0  0  0  0  0  0  0  0  0  0  0
   -6.2938   -4.8334    3.0320 H   0  0  0  0  0  0  0  0  0  0  0  0
  1  2  1  0
  2  3  1  0
  3  4  1  0
  4  5  1  0
  5  6  1  0
  6  7  1  0
  7  8  1  0
  8  9  1  0
  9 10  2  0
 10 11  1  0
 11 12  2  0
 12 13  1  0
 13 14  2  0
 14 15  1  0
 15 16  2  0
 15 17  1  0
 17 18  1  0
 18 19  1  0
 19 20  2  0
 19 21  1  0
 21 22  1  0
 22 23  1  0
 23 24  1  0
 24 25  1  0
 25 26  1  0
 26 27  1  0
 27 28  1  0
 24 29  1  0
 29 30  1  0
 18 31  1  0
 31 32  1  0
 32 33  1  0
 33 34  2  0
 33 35  1  0
 35 36  1  0
 36 37  1  0
 37 38  1  0
 38 39  1  0
 38 40  1  0
 36 41  1  0
 41 42  2  0
 41  5  1  0
 14  9  1  0
 30 21  1  0
  1 43  1  0
  1 44  1  0
  1 45  1  0
  2 46  1  0
  2 47  1  0
  3 48  1  0
  3 49  1  0
  4 50  1  0
  4 51  1  0
  6 52  1  0
  6 53  1  0
  7 54  1  0
  7 55  1  0
 10 56  1  0
 11 57  1  0
 12 58  1  0
 13 59  1  0
 17 60  1  0
 18 61  1  0
 22 62  1  0
 22 63  1  0
 23 64  1  0
 23 65  1  0
 24 66  1  0
 26 67  1  0
 26 68  1  0
 27 69  1  0
 27 70  1  0
 28 71  1  0
 28 72  1  0
 28 73  1  0
 29 74  1  0
 29 75  1  0
 30 76  1  0
 30 77  1  0
 31 78  1  0
 31 79  1  0
 32 80  1  0
 32 81  1  0
 35 82  1  0
 36 83  1  0
 37 84  1  0
 37 85  1  0
 38 86  1  0
 39 87  1  0
 39 88  1  0
 39 89  1  0
 40 90  1  0
 40 91  1  0
 40 92  1  0
M  END
$$$$
