
     RDKit          3D

 63 65  0  0  0  0  0  0  0  0999 V2000
   -4.4405   -1.2583    2.6859 C   0  0  0  0  0  0  0  0  0  0  0  0
   -4.3506   -0.2824    1.5114 C   0  0  0  0  0  0  0  0  0  0  0  0
   -2.8972   -0.0375    1.1131 C   0  0  0  0  0  0  0  0  0  0  0  0
   -2.8194    0.7002   -0.1551 N   0  0  0  0  0  0  0  0  0  0  0  0
   -1.5476    1.2192   -0.6221 C   0  0  0  0  0  0  0  0  0  0  0  0
   -1.5364    2.0962   -1.5326 O   0  0  0  0  0  0  0  0  0  0  0  0
   -0.2144    0.7000   -0.1095 C   0  0  0  0  0  0  0  0  0  0  0  0
    0.5553   -0.0382   -1.2270 C   0  0  0  0  0  0  0  0  0  0  0  0
   -0.0368   -1.4003   -1.4896 C   0  0  0  0  0  0  0  0  0  0  0  0
   -1.0359   -1.4885   -2.2583 O   0  0  0  0  0  0  0  0  0  0  0  0
    0.4641   -2.5958   -0.8597 N   0  0  0  0  0  0  0  0  0  0  0  0
    1.6750   -2.6630   -0.0255 C   0  0  0  0  0  0  0  0  0  0  0  0
    2.0613   -4.1323    0.2212 C   0  0  0  0  0  0  0  0  0  0  0  0
    3.2244   -4.2090    0.9996 O   0  0  0  0  0  0  0  0  0  0  0  0
    1.4342   -1.9626    1.2952 C   0  0  0  0  0  0  0  0  0  0  0  0
    0.4005   -2.2591    1.9580 O   0  0  0  0  0  0  0  0  0  0  0  0
    2.3141   -0.9434    1.8027 N   0  0  0  0  0  0  0  0  0  0  0  0
    3.7617   -0.9056    1.5763 C   0  0  0  0  0  0  0  0  0  0  0  0
    4.2287    0.4942    1.1532 C   0  0  0  0  0  0  0  0  0  0  0  0
    3.2149    1.1408    0.3789 O   0  0  0  0  0  0  0  0  0  0  0  0
    3.3896    2.0636   -0.6719 C   0  0  0  0  0  0  0  0  0  0  0  0
    4.5969    2.1427   -1.4021 C   0  0  0  0  0  0  0  0  0  0  0  0
    4.7263    3.0326   -2.4715 C   0  0  0  0  0  0  0  0  0  0  0  0
    3.6641    3.8590   -2.8277 C   0  0  0  0  0  0  0  0  0  0  0  0
    2.4678    3.8061   -2.1107 C   0  0  0  0  0  0  0  0  0  0  0  0
    2.3096    2.9095   -1.0358 C   0  0  0  0  0  0  0  0  0  0  0  0
    1.0330    2.9260   -0.2762 C   0  0  0  0  0  0  0  0  0  0  0  0
    0.3506    3.9868   -0.2302 O   0  0  0  0  0  0  0  0  0  0  0  0
    0.5838    1.7890    0.4692 N   0  0  0  0  0  0  0  0  0  0  0  0
   -4.0131    0.9611   -0.9890 C   0  0  0  0  0  0  0  0  0  0  0  0
   -5.2919    0.1829   -0.5443 C   0  0  0  0  0  0  0  0  0  0  0  0
   -5.9673   -0.4715   -1.7573 C   0  0  0  0  0  0  0  0  0  0  0  0
   -5.0237   -0.8333    0.4039 O   0  0  0  0  0  0  0  0  0  0  0  0
   -4.0066   -2.2435    2.4087 H   0  0  0  0  0  0  0  0  0  0  0  0
   -3.8849   -0.8511    3.5594 H   0  0  0  0  0  0  0  0  0  0  0  0
   -5.5045   -1.4066    2.9741 H   0  0  0  0  0  0  0  0  0  0  0  0
   -4.8115    0.6810    1.8429 H   0  0  0  0  0  0  0  0  0  0  0  0
   -2.3944    0.5476    1.9119 H   0  0  0  0  0  0  0  0  0  0  0  0
   -2.3832   -1.0192    0.9920 H   0  0  0  0  0  0  0  0  0  0  0  0
   -0.3831   -0.0256    0.7088 H   0  0  0  0  0  0  0  0  0  0  0  0
    0.5477    0.5589   -2.1646 H   0  0  0  0  0  0  0  0  0  0  0  0
    1.6148   -0.1481   -0.9502 H   0  0  0  0  0  0  0  0  0  0  0  0
   -0.0354   -3.4825   -1.0916 H   0  0  0  0  0  0  0  0  0  0  0  0
    2.5020   -2.1880   -0.5919 H   0  0  0  0  0  0  0  0  0  0  0  0
    1.2257   -4.6562    0.7456 H   0  0  0  0  0  0  0  0  0  0  0  0
    2.2313   -4.6396   -0.7584 H   0  0  0  0  0  0  0  0  0  0  0  0
    3.4081   -5.1769    1.1168 H   0  0  0  0  0  0  0  0  0  0  0  0
    1.9259   -0.3059    2.5291 H   0  0  0  0  0  0  0  0  0  0  0  0
    4.2807   -1.1987    2.5158 H   0  0  0  0  0  0  0  0  0  0  0  0
    4.0715   -1.6352    0.8032 H   0  0  0  0  0  0  0  0  0  0  0  0
    4.4321    1.1071    2.0561 H   0  0  0  0  0  0  0  0  0  0  0  0
    5.1845    0.3833    0.6028 H   0  0  0  0  0  0  0  0  0  0  0  0
    5.4388    1.5020   -1.1836 H   0  0  0  0  0  0  0  0  0  0  0  0
    5.6508    3.0755   -3.0332 H   0  0  0  0  0  0  0  0  0  0  0  0
    3.7665    4.5398   -3.6647 H   0  0  0  0  0  0  0  0  0  0  0  0
    1.6576    4.4543   -2.4123 H   0  0  0  0  0  0  0  0  0  0  0  0
    0.6150    1.8634    1.5141 H   0  0  0  0  0  0  0  0  0  0  0  0
   -3.7629    0.7124   -2.0454 H   0  0  0  0  0  0  0  0  0  0  0  0
   -4.2362    2.0533   -0.9635 H   0  0  0  0  0  0  0  0  0  0  0  0
   -6.0306    0.9014   -0.1165 H   0  0  0  0  0  0  0  0  0  0  0  0
   -5.2779   -1.2364   -2.1949 H   0  0  0  0  0  0  0  0  0  0  0  0
   -6.2167    0.2895   -2.5299 H   0  0  0  0  0  0  0  0  0  0  0  0
   -6.9062   -0.9848   -1.4435 H   0  0  0  0  0  0  0  0  0  0  0  0
  1  2  1  0
  2  3  1  0
  3  4  1  0
  4  5  1  0
  5  6  2  0
  5  7  1  0
  7  8  1  0
  8  9  1  0
  9 10  2  0
  9 11  1  0
 11 12  1  0
 12 13  1  0
 13 14  1  0
 12 15  1  0
 15 16  2  0
 15 17  1  0
 17 18  1  0
 18 19  1  0
 19 20  1  0
 20 21  1  0
 21 22  2  0
 22 23  1  0
 23 24  2  0
 24 25  1  0
 25 26  2  0
 26 27  1  0
 27 28  2  0
 27 29  1  0
  4 30  1  0
 30 31  1  0
 31 32  1  0
 31 33  1  0
 33  2  1  0
 29  7  1  0
 26 21  1  0
  1 34  1  0
  1 35  1  0
  1 36  1  0
  2 37  1  0
  3 38  1  0
  3 39  1  0
  7 40  1  0
  8 41  1  0
  8 42  1  0
 11 43  1  0
 12 44  1  0
 13 45  1  0
 13 46  1  0
 14 47  1  0
 17 48  1  0
 18 49  1  0
 18 50  1  0
 19 51  1  0
 19 52  1  0
 22 53  1  0
 23 54  1  0
 24 55  1  0
 25 56  1  0
 29 57  1  0
 30 58  1  0
 30 59  1  0
 31 60  1  0
 32 61  1  0
 32 62  1  0
 32 63  1  0
M  END
$$$$
