
     RDKit          3D

 88 89  0  0  0  0  0  0  0  0999 V2000
    9.6169    0.2148   -2.7161 C   0  0  0  0  0  0  0  0  0  0  0  0
    9.0553    0.5574   -1.3359 C   0  0  0  0  0  0  0  0  0  0  0  0
    8.7616   -0.7132   -0.5245 C   0  0  0  0  0  0  0  0  0  0  0  0
    8.2757   -0.4034    0.9053 C   0  0  0  0  0  0  0  0  0  0  0  0
    6.7476   -0.4622    1.0718 C   0  0  0  0  0  0  0  0  0  0  0  0
    6.0048    0.7579    0.4944 C   0  0  0  0  0  0  0  0  0  0  0  0
    5.2880    0.4319   -0.8324 C   0  0  0  0  0  0  0  0  0  0  0  0
    4.6159    1.6697   -1.4648 C   0  0  0  0  0  0  0  0  0  0  0  0
    3.4478    2.2480   -0.6504 C   0  0  0  0  0  0  0  0  0  0  0  0
    2.2696    1.3201   -0.5858 C   0  0  0  0  0  0  0  0  0  0  0  0
    1.3686    1.4016   -1.4666 O   0  0  0  0  0  0  0  0  0  0  0  0
    2.1424    0.3811    0.4954 N   0  0  0  0  0  0  0  0  0  0  0  0
    0.9087   -0.3790    0.7311 C   0  0  1  0  0  0  0  0  0  0  0  0
    1.0842   -1.3149    1.9468 C   0  0  0  0  0  0  0  0  0  0  0  0
   -0.1274   -2.1893    2.1659 C   0  0  0  0  0  0  0  0  0  0  0  0
   -1.0556   -1.8792    3.1752 C   0  0  0  0  0  0  0  0  0  0  0  0
   -2.1975   -2.6678    3.3408 C   0  0  0  0  0  0  0  0  0  0  0  0
   -2.4306   -3.7602    2.4937 C   0  0  0  0  0  0  0  0  0  0  0  0
   -4.0067   -4.8199    2.7169 Br  0  0  0  0  0  0  0  0  0  0  0  0
   -1.5110   -4.0720    1.4878 C   0  0  0  0  0  0  0  0  0  0  0  0
   -0.3628   -3.2917    1.3271 C   0  0  0  0  0  0  0  0  0  0  0  0
   -0.2446    0.5676    0.9533 C   0  0  0  0  0  0  0  0  0  0  0  0
   -0.0658    1.6208    1.6214 O   0  0  0  0  0  0  0  0  0  0  0  0
   -1.5468    0.2614    0.4347 N   0  0  0  0  0  0  0  0  0  0  0  0
   -2.5949    1.2782    0.3119 C   0  0  1  0  0  0  0  0  0  0  0  0
   -3.2754    1.2788   -1.0450 C   0  0  0  0  0  0  0  0  0  0  0  0
   -3.0936    0.3404   -2.0009 C   0  0  0  0  0  0  0  0  0  0  0  0
   -3.7016    0.4728   -3.3739 C   0  0  0  0  0  0  0  0  0  0  0  0
   -5.2388    0.4629   -3.3566 C   0  0  0  0  0  0  0  0  0  0  0  0
   -5.7629   -0.8961   -3.1862 N   0  0  0  0  0  0  0  0  0  0  0  0
   -6.9067   -1.1536   -2.3570 C   0  0  0  0  0  0  0  0  0  0  0  0
   -7.8980   -1.7572   -2.8420 O   0  0  0  0  0  0  0  0  0  0  0  0
   -6.9483   -0.7340   -0.9433 C   0  0  0  0  0  0  0  0  0  0  0  0
   -5.8207   -0.5840   -0.2375 C   0  0  0  0  0  0  0  0  0  0  0  0
   -5.7793   -0.1827    1.2128 C   0  0  2  0  0  0  0  0  0  0  0  0
   -6.7021    1.0203    1.5847 C   0  0  0  0  0  0  0  0  0  0  0  0
   -6.7199    1.2793    3.0986 C   0  0  0  0  0  0  0  0  0  0  0  0
   -6.4220    2.3186    0.8063 C   0  0  0  0  0  0  0  0  0  0  0  0
   -4.3769   -0.0198    1.6432 N   0  0  0  0  0  0  0  0  0  0  0  0
   -3.5644    1.1510    1.4590 C   0  0  0  0  0  0  0  0  0  0  0  0
   -3.4842    1.9917    2.4022 O   0  0  0  0  0  0  0  0  0  0  0  0
    9.8024    1.1562   -3.2816 H   0  0  0  0  0  0  0  0  0  0  0  0
   10.5719   -0.3445   -2.6109 H   0  0  0  0  0  0  0  0  0  0  0  0
    8.8889   -0.4079   -3.2798 H   0  0  0  0  0  0  0  0  0  0  0  0
    8.1393    1.1624   -1.4659 H   0  0  0  0  0  0  0  0  0  0  0  0
    9.8040    1.1723   -0.7940 H   0  0  0  0  0  0  0  0  0  0  0  0
    9.7058   -1.2929   -0.4423 H   0  0  0  0  0  0  0  0  0  0  0  0
    8.0274   -1.3549   -1.0617 H   0  0  0  0  0  0  0  0  0  0  0  0
    8.6669    0.5767    1.2626 H   0  0  0  0  0  0  0  0  0  0  0  0
    8.7080   -1.1718    1.5834 H   0  0  0  0  0  0  0  0  0  0  0  0
    6.5387   -0.4975    2.1604 H   0  0  0  0  0  0  0  0  0  0  0  0
    6.3464   -1.4100    0.6584 H   0  0  0  0  0  0  0  0  0  0  0  0
    5.2474    1.0741    1.2375 H   0  0  0  0  0  0  0  0  0  0  0  0
    6.6951    1.6172    0.3603 H   0  0  0  0  0  0  0  0  0  0  0  0
    6.0356    0.0446   -1.5616 H   0  0  0  0  0  0  0  0  0  0  0  0
    4.5334   -0.3709   -0.6757 H   0  0  0  0  0  0  0  0  0  0  0  0
    4.2437    1.3943   -2.4823 H   0  0  0  0  0  0  0  0  0  0  0  0
    5.3838    2.4660   -1.6011 H   0  0  0  0  0  0  0  0  0  0  0  0
    3.1247    3.1966   -1.1359 H   0  0  0  0  0  0  0  0  0  0  0  0
    3.7673    2.5252    0.3764 H   0  0  0  0  0  0  0  0  0  0  0  0
    2.9444    0.2787    1.1603 H   0  0  0  0  0  0  0  0  0  0  0  0
    0.7049   -0.9963   -0.1731 H   0  0  0  0  0  0  0  0  0  0  0  0
    1.9735   -1.9666    1.7866 H   0  0  0  0  0  0  0  0  0  0  0  0
    1.2902   -0.7122    2.8618 H   0  0  0  0  0  0  0  0  0  0  0  0
   -0.9022   -1.0236    3.8270 H   0  0  0  0  0  0  0  0  0  0  0  0
   -2.9060   -2.4256    4.1226 H   0  0  0  0  0  0  0  0  0  0  0  0
   -1.6805   -4.9180    0.8314 H   0  0  0  0  0  0  0  0  0  0  0  0
    0.3407   -3.5408    0.5419 H   0  0  0  0  0  0  0  0  0  0  0  0
   -1.7971   -0.7422    0.3028 H   0  0  0  0  0  0  0  0  0  0  0  0
   -2.1203    2.2840    0.3858 H   0  0  0  0  0  0  0  0  0  0  0  0
   -3.8962    2.1380   -1.2729 H   0  0  0  0  0  0  0  0  0  0  0  0
   -2.4666   -0.5261   -1.8232 H   0  0  0  0  0  0  0  0  0  0  0  0
   -3.3395   -0.3663   -4.0128 H   0  0  0  0  0  0  0  0  0  0  0  0
   -3.3376    1.4201   -3.8336 H   0  0  0  0  0  0  0  0  0  0  0  0
   -5.6059    0.8615   -4.3243 H   0  0  0  0  0  0  0  0  0  0  0  0
   -5.6233    1.1459   -2.5742 H   0  0  0  0  0  0  0  0  0  0  0  0
   -5.5439   -1.5880   -3.9389 H   0  0  0  0  0  0  0  0  0  0  0  0
   -7.9152   -0.5878   -0.4762 H   0  0  0  0  0  0  0  0  0  0  0  0
   -4.8906   -0.9029   -0.6833 H   0  0  0  0  0  0  0  0  0  0  0  0
   -6.1862   -1.0628    1.7648 H   0  0  0  0  0  0  0  0  0  0  0  0
   -7.7477    0.7298    1.3290 H   0  0  0  0  0  0  0  0  0  0  0  0
   -7.0804    0.3760    3.6353 H   0  0  0  0  0  0  0  0  0  0  0  0
   -5.7092    1.5381    3.4789 H   0  0  0  0  0  0  0  0  0  0  0  0
   -7.4114    2.1226    3.3321 H   0  0  0  0  0  0  0  0  0  0  0  0
   -7.2949    2.9976    0.9011 H   0  0  0  0  0  0  0  0  0  0  0  0
   -5.5441    2.8652    1.1950 H   0  0  0  0  0  0  0  0  0  0  0  0
   -6.2797    2.1178   -0.2719 H   0  0  0  0  0  0  0  0  0  0  0  0
   -3.9542   -0.7977    2.1944 H   0  0  0  0  0  0  0  0  0  0  0  0
  1  2  1  0
  2  3  1  0
  3  4  1  0
  4  5  1  0
  5  6  1  0
  6  7  1  0
  7  8  1  0
  8  9  1  0
  9 10  1  0
 10 11  2  0
 10 12  1  0
 12 13  1  0
 13 14  1  0
 14 15  1  0
 15 16  2  0
 16 17  1  0
 17 18  2  0
 18 19  1  0
 18 20  1  0
 20 21  2  0
 13 22  1  0
 22 23  2  0
 22 24  1  0
 24 25  1  0
 25 26  1  0
 26 27  2  0
 27 28  1  0
 28 29  1  0
 29 30  1  0
 30 31  1  0
 31 32  2  0
 31 33  1  0
 33 34  2  0
 34 35  1  0
 35 36  1  0
 36 37  1  0
 36 38  1  0
 35 39  1  0
 39 40  1  0
 40 41  2  0
 21 15  1  0
 40 25  1  0
  1 42  1  0
  1 43  1  0
  1 44  1  0
  2 45  1  0
  2 46  1  0
  3 47  1  0
  3 48  1  0
  4 49  1  0
  4 50  1  0
  5 51  1  0
  5 52  1  0
  6 53  1  0
  6 54  1  0
  7 55  1  0
  7 56  1  0
  8 57  1  0
  8 58  1  0
  9 59  1  0
  9 60  1  0
 12 61  1  0
 13 62  1  6
 14 63  1  0
 14 64  1  0
 16 65  1  0
 17 66  1  0
 20 67  1  0
 21 68  1  0
 24 69  1  0
 25 70  1  1
 26 71  1  0
 27 72  1  0
 28 73  1  0
 28 74  1  0
 29 75  1  0
 29 76  1  0
 30 77  1  0
 33 78  1  0
 34 79  1  0
 35 80  1  1
 36 81  1  0
 37 82  1  0
 37 83  1  0
 37 84  1  0
 38 85  1  0
 38 86  1  0
 38 87  1  0
 39 88  1  0
M  END
$$$$
