
     RDKit          3D

 77 80  0  0  0  0  0  0  0  0999 V2000
   -4.8050    2.6207   -1.6063 C   0  0  0  0  0  0  0  0  0  0  0  0
   -5.1490    1.4169   -0.7122 C   0  0  0  0  0  0  0  0  0  0  0  0
   -6.1732    0.5220   -1.4305 C   0  0  0  0  0  0  0  0  0  0  0  0
   -3.8897    0.5944   -0.3219 C   0  0  0  0  0  0  0  0  0  0  0  0
   -2.8111    1.4471    0.3690 C   0  0  0  0  0  0  0  0  0  0  0  0
   -1.7554    0.6083    0.8366 O   0  0  0  0  0  0  0  0  0  0  0  0
   -0.6767    1.1078    1.5720 C   0  0  0  0  0  0  0  0  0  0  0  0
   -0.5452    0.7331    2.9138 C   0  0  0  0  0  0  0  0  0  0  0  0
    0.4967    1.2471    3.6911 C   0  0  0  0  0  0  0  0  0  0  0  0
    1.4194    2.1328    3.1282 C   0  0  0  0  0  0  0  0  0  0  0  0
    1.3120    2.4936    1.7830 C   0  0  0  0  0  0  0  0  0  0  0  0
    0.2810    1.9666    0.9899 C   0  0  0  0  0  0  0  0  0  0  0  0
    0.2590    2.2616   -0.4527 C   0  0  0  0  0  0  0  0  0  0  0  0
    0.2511    3.4612   -0.8378 O   0  0  0  0  0  0  0  0  0  0  0  0
    0.2569    1.2066   -1.4264 N   0  0  0  0  0  0  0  0  0  0  0  0
    0.9367   -0.0758   -1.1861 C   0  0  0  0  0  0  0  0  0  0  0  0
    2.4245    0.1399   -1.1495 C   0  0  0  0  0  0  0  0  0  0  0  0
    2.9680    0.9042   -1.9941 O   0  0  0  0  0  0  0  0  0  0  0  0
    3.2230   -0.5426   -0.1718 N   0  0  0  0  0  0  0  0  0  0  0  0
    4.6272   -0.2153    0.0565 C   0  0  0  0  0  0  0  0  0  0  0  0
    4.7475    1.1138    0.8073 C   0  0  0  0  0  0  0  0  0  0  0  0
    6.1926    1.4580    1.0414 C   0  0  0  0  0  0  0  0  0  0  0  0
    6.9089    2.2005    0.0875 C   0  0  0  0  0  0  0  0  0  0  0  0
    8.2647    2.4804    0.2863 C   0  0  0  0  0  0  0  0  0  0  0  0
    8.9169    2.0128    1.4325 C   0  0  0  0  0  0  0  0  0  0  0  0
   10.2326    2.2824    1.6230 F   0  0  0  0  0  0  0  0  0  0  0  0
    8.2125    1.2651    2.3808 C   0  0  0  0  0  0  0  0  0  0  0  0
    6.8563    0.9823    2.1850 C   0  0  0  0  0  0  0  0  0  0  0  0
    0.5756   -1.1053   -2.2757 C   0  0  0  0  0  0  0  0  0  0  0  0
   -0.8522   -1.6536   -2.0973 C   0  0  0  0  0  0  0  0  0  0  0  0
   -0.9711   -2.7205   -1.0334 C   0  0  0  0  0  0  0  0  0  0  0  0
    0.0615   -3.1671   -0.4602 O   0  0  0  0  0  0  0  0  0  0  0  0
   -2.2471   -3.3079   -0.7294 N   0  0  0  0  0  0  0  0  0  0  0  0
   -2.3988   -4.7239   -0.4357 C   0  0  0  0  0  0  0  0  0  0  0  0
   -3.8935   -4.9488   -0.2320 C   0  0  0  0  0  0  0  0  0  0  0  0
   -4.5785   -3.6923   -0.7686 C   0  0  0  0  0  0  0  0  0  0  0  0
   -3.5165   -2.5923   -0.7240 C   0  0  0  0  0  0  0  0  0  0  0  0
   -3.6479   -1.7901    0.5520 C   0  0  0  0  0  0  0  0  0  0  0  0
   -3.3027   -2.3157    1.6449 O   0  0  0  0  0  0  0  0  0  0  0  0
   -4.2743   -0.5005    0.5763 N   0  0  0  0  0  0  0  0  0  0  0  0
   -4.2788    3.3994   -1.0194 H   0  0  0  0  0  0  0  0  0  0  0  0
   -5.7288    3.0891   -2.0076 H   0  0  0  0  0  0  0  0  0  0  0  0
   -4.1630    2.3109   -2.4574 H   0  0  0  0  0  0  0  0  0  0  0  0
   -5.6284    1.8051    0.2126 H   0  0  0  0  0  0  0  0  0  0  0  0
   -5.7426    0.1020   -2.3646 H   0  0  0  0  0  0  0  0  0  0  0  0
   -6.4913   -0.3161   -0.7745 H   0  0  0  0  0  0  0  0  0  0  0  0
   -7.0841    1.1052   -1.6891 H   0  0  0  0  0  0  0  0  0  0  0  0
   -3.4503    0.1956   -1.2556 H   0  0  0  0  0  0  0  0  0  0  0  0
   -2.4043    2.1882   -0.3497 H   0  0  0  0  0  0  0  0  0  0  0  0
   -3.2557    1.9904    1.2321 H   0  0  0  0  0  0  0  0  0  0  0  0
   -1.2640    0.0568    3.3606 H   0  0  0  0  0  0  0  0  0  0  0  0
    0.5870    0.9619    4.7305 H   0  0  0  0  0  0  0  0  0  0  0  0
    2.2264    2.5277    3.7318 H   0  0  0  0  0  0  0  0  0  0  0  0
    2.0549    3.1538    1.3493 H   0  0  0  0  0  0  0  0  0  0  0  0
   -0.0005    1.4640   -2.4064 H   0  0  0  0  0  0  0  0  0  0  0  0
    0.6176   -0.4852   -0.2047 H   0  0  0  0  0  0  0  0  0  0  0  0
    2.7894   -1.3032    0.3992 H   0  0  0  0  0  0  0  0  0  0  0  0
    5.0937   -1.0215    0.6650 H   0  0  0  0  0  0  0  0  0  0  0  0
    5.1641   -0.1637   -0.9157 H   0  0  0  0  0  0  0  0  0  0  0  0
    4.2128    1.0397    1.7806 H   0  0  0  0  0  0  0  0  0  0  0  0
    4.2582    1.9245    0.2249 H   0  0  0  0  0  0  0  0  0  0  0  0
    6.4182    2.5588   -0.8083 H   0  0  0  0  0  0  0  0  0  0  0  0
    8.8103    3.0565   -0.4487 H   0  0  0  0  0  0  0  0  0  0  0  0
    8.7191    0.8982    3.2651 H   0  0  0  0  0  0  0  0  0  0  0  0
    6.3245    0.3881    2.9191 H   0  0  0  0  0  0  0  0  0  0  0  0
    1.3016   -1.9502   -2.2746 H   0  0  0  0  0  0  0  0  0  0  0  0
    0.6557   -0.6254   -3.2765 H   0  0  0  0  0  0  0  0  0  0  0  0
   -1.5370   -0.8163   -1.8692 H   0  0  0  0  0  0  0  0  0  0  0  0
   -1.1796   -2.0990   -3.0595 H   0  0  0  0  0  0  0  0  0  0  0  0
   -1.8323   -4.9915    0.4839 H   0  0  0  0  0  0  0  0  0  0  0  0
   -2.0309   -5.3255   -1.2958 H   0  0  0  0  0  0  0  0  0  0  0  0
   -4.1119   -5.0559    0.8543 H   0  0  0  0  0  0  0  0  0  0  0  0
   -4.2425   -5.8609   -0.7654 H   0  0  0  0  0  0  0  0  0  0  0  0
   -5.4918   -3.4409   -0.1838 H   0  0  0  0  0  0  0  0  0  0  0  0
   -4.8767   -3.8717   -1.8262 H   0  0  0  0  0  0  0  0  0  0  0  0
   -3.6181   -1.9631   -1.6306 H   0  0  0  0  0  0  0  0  0  0  0  0
   -4.7578   -0.2330    1.4642 H   0  0  0  0  0  0  0  0  0  0  0  0
  1  2  1  0
  2  3  1  0
  2  4  1  0
  4  5  1  0
  5  6  1  0
  6  7  1  0
  7  8  2  0
  8  9  1  0
  9 10  2  0
 10 11  1  0
 11 12  2  0
 12 13  1  0
 13 14  2  0
 13 15  1  0
 15 16  1  0
 16 17  1  0
 17 18  2  0
 17 19  1  0
 19 20  1  0
 20 21  1  0
 21 22  1  0
 22 23  2  0
 23 24  1  0
 24 25  2  0
 25 26  1  0
 25 27  1  0
 27 28  2  0
 16 29  1  0
 29 30  1  0
 30 31  1  0
 31 32  2  0
 31 33  1  0
 33 34  1  0
 34 35  1  0
 35 36  1  0
 36 37  1  0
 37 38  1  0
 38 39  2  0
 38 40  1  0
 40  4  1  0
 12  7  1  0
 28 22  1  0
 37 33  1  0
  1 41  1  0
  1 42  1  0
  1 43  1  0
  2 44  1  0
  3 45  1  0
  3 46  1  0
  3 47  1  0
  4 48  1  0
  5 49  1  0
  5 50  1  0
  8 51  1  0
  9 52  1  0
 10 53  1  0
 11 54  1  0
 15 55  1  0
 16 56  1  0
 19 57  1  0
 20 58  1  0
 20 59  1  0
 21 60  1  0
 21 61  1  0
 23 62  1  0
 24 63  1  0
 27 64  1  0
 28 65  1  0
 29 66  1  0
 29 67  1  0
 30 68  1  0
 30 69  1  0
 34 70  1  0
 34 71  1  0
 35 72  1  0
 35 73  1  0
 36 74  1  0
 36 75  1  0
 37 76  1  0
 40 77  1  0
M  END
$$$$
