
     RDKit          3D

 76 79  0  0  0  0  0  0  0  0999 V2000
    5.4723    1.9186   -1.7882 C   0  0  0  0  0  0  0  0  0  0  0  0
    5.3721    0.6043   -0.9947 C   0  0  0  0  0  0  0  0  0  0  0  0
    4.9585   -0.5234   -1.9509 C   0  0  0  0  0  0  0  0  0  0  0  0
    4.3872    0.7505    0.2005 C   0  0  2  0  0  0  0  0  0  0  0  0
    4.8479    1.8342    1.0848 N   0  0  0  0  0  0  0  0  0  0  0  0
    3.9839    2.7373    1.7943 C   0  0  0  0  0  0  0  0  0  0  0  0
    4.4809    3.5101    2.6538 O   0  0  0  0  0  0  0  0  0  0  0  0
    2.5088    2.8112    1.5280 C   0  0  0  0  0  0  0  0  0  0  0  0
    2.2158    3.6082    0.2496 C   0  0  0  0  0  0  0  0  0  0  0  0
    0.8455    3.2600   -0.2376 C   0  0  0  0  0  0  0  0  0  0  0  0
   -0.1824    4.1196   -0.2081 C   0  0  0  0  0  0  0  0  0  0  0  0
   -1.5483    3.6352   -0.4559 C   0  0  0  0  0  0  0  0  0  0  0  0
   -1.9816    2.4402    0.1317 C   0  0  0  0  0  0  0  0  0  0  0  0
   -3.2327    1.9231   -0.1988 C   0  0  0  0  0  0  0  0  0  0  0  0
   -3.6418    0.6932    0.3147 C   0  0  0  0  0  0  0  0  0  0  0  0
   -4.8226    0.0860   -0.1360 C   0  0  0  0  0  0  0  0  0  0  0  0
   -5.6295    0.7709   -1.0677 C   0  0  0  0  0  0  0  0  0  0  0  0
   -5.2655    2.0444   -1.5215 C   0  0  0  0  0  0  0  0  0  0  0  0
   -4.0555    2.6180   -1.1049 C   0  0  0  0  0  0  0  0  0  0  0  0
   -3.6173    3.8536   -1.6104 C   0  0  0  0  0  0  0  0  0  0  0  0
   -2.3819    4.3260   -1.2821 N   0  0  0  0  0  0  0  0  0  0  0  0
   -5.0777   -1.3558    0.2667 C   0  0  1  0  0  0  0  0  0  0  0  0
   -6.5619   -1.6733    0.4519 C   0  0  0  0  0  0  0  0  0  0  0  0
   -4.5102   -2.2521   -0.6926 O   0  0  0  0  0  0  0  0  0  0  0  0
   -3.1711   -2.1755   -1.1046 C   0  0  0  0  0  0  0  0  0  0  0  0
   -2.8939   -1.5043   -2.1290 O   0  0  0  0  0  0  0  0  0  0  0  0
   -2.0471   -2.8067   -0.3164 C   0  0  2  0  0  0  0  0  0  0  0  0
   -2.5689   -3.8837    0.6539 C   0  0  0  0  0  0  0  0  0  0  0  0
   -1.4039   -4.5075    1.4214 C   0  0  0  0  0  0  0  0  0  0  0  0
   -0.5737   -3.4223    2.1058 C   0  0  0  0  0  0  0  0  0  0  0  0
   -0.2474   -2.3631    1.1450 N   0  0  0  0  0  0  0  0  0  0  0  0
   -1.3060   -1.7673    0.4182 N   0  0  0  0  0  0  0  0  0  0  0  0
    0.9765   -1.6316    1.3506 C   0  0  0  0  0  0  0  0  0  0  0  0
    1.2226   -1.1566    2.4921 O   0  0  0  0  0  0  0  0  0  0  0  0
    1.9683   -1.4022    0.2283 C   0  0  2  0  0  0  0  0  0  0  0  0
    1.7630   -2.3901   -0.9268 C   0  0  0  0  0  0  0  0  0  0  0  0
    3.3336   -1.5731    0.7498 N   0  0  0  0  0  0  0  0  0  0  0  0
    4.3004   -0.5346    1.0051 C   0  0  0  0  0  0  0  0  0  0  0  0
    5.1933   -0.7582    1.8643 O   0  0  0  0  0  0  0  0  0  0  0  0
    6.2060    1.8123   -2.6158 H   0  0  0  0  0  0  0  0  0  0  0  0
    4.4846    2.1907   -2.2167 H   0  0  0  0  0  0  0  0  0  0  0  0
    5.8239    2.7468   -1.1415 H   0  0  0  0  0  0  0  0  0  0  0  0
    6.3856    0.3653   -0.6007 H   0  0  0  0  0  0  0  0  0  0  0  0
    5.0223   -1.5080   -1.4436 H   0  0  0  0  0  0  0  0  0  0  0  0
    3.9213   -0.3637   -2.3158 H   0  0  0  0  0  0  0  0  0  0  0  0
    5.6429   -0.5570   -2.8278 H   0  0  0  0  0  0  0  0  0  0  0  0
    3.4042    1.0121   -0.2231 H   0  0  0  0  0  0  0  0  0  0  0  0
    5.8638    1.8651    1.3305 H   0  0  0  0  0  0  0  0  0  0  0  0
    1.9958    3.3049    2.3860 H   0  0  0  0  0  0  0  0  0  0  0  0
    2.1019    1.7753    1.4712 H   0  0  0  0  0  0  0  0  0  0  0  0
    2.3157    4.6975    0.4506 H   0  0  0  0  0  0  0  0  0  0  0  0
    2.9358    3.3435   -0.5496 H   0  0  0  0  0  0  0  0  0  0  0  0
    0.6744    2.2288   -0.5212 H   0  0  0  0  0  0  0  0  0  0  0  0
   -0.0230    5.1703    0.0149 H   0  0  0  0  0  0  0  0  0  0  0  0
   -1.3304    1.8967    0.8098 H   0  0  0  0  0  0  0  0  0  0  0  0
   -3.0054    0.1724    1.0202 H   0  0  0  0  0  0  0  0  0  0  0  0
   -6.5316    0.3207   -1.4540 H   0  0  0  0  0  0  0  0  0  0  0  0
   -5.9001    2.5568   -2.2357 H   0  0  0  0  0  0  0  0  0  0  0  0
   -4.2373    4.4249   -2.2906 H   0  0  0  0  0  0  0  0  0  0  0  0
   -4.5962   -1.5365    1.2522 H   0  0  0  0  0  0  0  0  0  0  0  0
   -7.0791   -1.7515   -0.5245 H   0  0  0  0  0  0  0  0  0  0  0  0
   -6.6704   -2.6385    0.9820 H   0  0  0  0  0  0  0  0  0  0  0  0
   -7.0519   -0.8907    1.0653 H   0  0  0  0  0  0  0  0  0  0  0  0
   -1.3613   -3.2983   -1.0465 H   0  0  0  0  0  0  0  0  0  0  0  0
   -3.1015   -4.6802    0.0882 H   0  0  0  0  0  0  0  0  0  0  0  0
   -3.2809   -3.4390    1.3865 H   0  0  0  0  0  0  0  0  0  0  0  0
   -0.7588   -5.0794    0.7209 H   0  0  0  0  0  0  0  0  0  0  0  0
   -1.7954   -5.2165    2.1828 H   0  0  0  0  0  0  0  0  0  0  0  0
    0.3547   -3.8851    2.5076 H   0  0  0  0  0  0  0  0  0  0  0  0
   -1.1449   -2.9871    2.9551 H   0  0  0  0  0  0  0  0  0  0  0  0
   -0.9007   -1.0993   -0.2800 H   0  0  0  0  0  0  0  0  0  0  0  0
    1.8040   -0.3804   -0.1656 H   0  0  0  0  0  0  0  0  0  0  0  0
    1.7452   -3.4325   -0.5517 H   0  0  0  0  0  0  0  0  0  0  0  0
    2.5871   -2.3025   -1.6569 H   0  0  0  0  0  0  0  0  0  0  0  0
    0.8185   -2.1768   -1.4657 H   0  0  0  0  0  0  0  0  0  0  0  0
    3.5718   -2.5241    1.1189 H   0  0  0  0  0  0  0  0  0  0  0  0
  1  2  1  0
  2  3  1  0
  2  4  1  0
  4  5  1  0
  5  6  1  0
  6  7  2  0
  6  8  1  0
  8  9  1  0
  9 10  1  0
 10 11  2  0
 11 12  1  0
 12 13  1  0
 13 14  2  0
 14 15  1  0
 15 16  2  0
 16 17  1  0
 17 18  2  0
 18 19  1  0
 19 20  2  0
 20 21  1  0
 16 22  1  0
 22 23  1  0
 22 24  1  0
 24 25  1  0
 25 26  2  0
 25 27  1  0
 27 28  1  0
 28 29  1  0
 29 30  1  0
 30 31  1  0
 31 32  1  0
 31 33  1  0
 33 34  2  0
 33 35  1  0
 35 36  1  0
 35 37  1  0
 37 38  1  0
 38 39  2  0
 38  4  1  0
 21 12  2  0
 32 27  1  0
 19 14  1  0
  1 40  1  0
  1 41  1  0
  1 42  1  0
  2 43  1  0
  3 44  1  0
  3 45  1  0
  3 46  1  0
  4 47  1  6
  5 48  1  0
  8 49  1  0
  8 50  1  0
  9 51  1  0
  9 52  1  0
 10 53  1  0
 11 54  1  0
 13 55  1  0
 15 56  1  0
 17 57  1  0
 18 58  1  0
 20 59  1  0
 22 60  1  1
 23 61  1  0
 23 62  1  0
 23 63  1  0
 27 64  1  6
 28 65  1  0
 28 66  1  0
 29 67  1  0
 29 68  1  0
 30 69  1  0
 30 70  1  0
 32 71  1  0
 35 72  1  6
 36 73  1  0
 36 74  1  0
 36 75  1  0
 37 76  1  0
M  END
$$$$
