
     RDKit          3D

 86 88  0  0  0  0  0  0  0  0999 V2000
   -7.8940    2.3515   -2.7826 C   0  0  0  0  0  0  0  0  0  0  0  0
   -6.5167    1.7241   -3.0329 C   0  0  0  0  0  0  0  0  0  0  0  0
   -6.6690    0.4288   -3.8588 C   0  0  0  0  0  0  0  0  0  0  0  0
   -5.7271    1.5444   -1.7009 C   0  0  1  0  0  0  0  0  0  0  0  0
   -6.3623    0.5183   -0.7812 C   0  0  0  0  0  0  0  0  0  0  0  0
   -6.2960    0.6414    0.5480 C   0  0  0  0  0  0  0  0  0  0  0  0
   -6.8872   -0.3367    1.4785 C   0  0  0  0  0  0  0  0  0  0  0  0
   -7.3509    0.0906    2.5708 O   0  0  0  0  0  0  0  0  0  0  0  0
   -6.9721   -1.7443    1.1952 N   0  0  0  0  0  0  0  0  0  0  0  0
   -5.9292   -2.5294    0.5259 C   0  0  0  0  0  0  0  0  0  0  0  0
   -4.5902   -2.4756    1.2847 C   0  0  0  0  0  0  0  0  0  0  0  0
   -3.7453   -1.3104    0.8489 C   0  0  0  0  0  0  0  0  0  0  0  0
   -3.1737   -1.2741   -0.3659 C   0  0  0  0  0  0  0  0  0  0  0  0
   -2.4182   -0.0656   -0.8619 C   0  0  2  0  0  0  0  0  0  0  0  0
   -1.2303    0.1861   -0.0335 N   0  0  0  0  0  0  0  0  0  0  0  0
   -0.1573   -0.7685    0.0397 C   0  0  0  0  0  0  0  0  0  0  0  0
   -0.2479   -1.8695   -0.5711 O   0  0  0  0  0  0  0  0  0  0  0  0
    1.0937   -0.4749    0.8346 C   0  0  2  0  0  0  0  0  0  0  0  0
    0.7816   -0.1848    2.3177 C   0  0  0  0  0  0  0  0  0  0  0  0
   -0.0008   -1.2956    2.9761 C   0  0  0  0  0  0  0  0  0  0  0  0
   -1.3311   -1.0872    3.3757 C   0  0  0  0  0  0  0  0  0  0  0  0
   -2.0554   -2.1174    3.9847 C   0  0  0  0  0  0  0  0  0  0  0  0
   -1.4571   -3.3603    4.1996 C   0  0  0  0  0  0  0  0  0  0  0  0
   -0.1332   -3.5748    3.8078 C   0  0  0  0  0  0  0  0  0  0  0  0
    0.5940   -2.5484    3.1987 C   0  0  0  0  0  0  0  0  0  0  0  0
    1.8252    0.6496    0.2380 N   0  0  0  0  0  0  0  0  0  0  0  0
    2.3716    0.5927   -1.0925 C   0  0  0  0  0  0  0  0  0  0  0  0
    2.1291   -0.3921   -1.8414 O   0  0  0  0  0  0  0  0  0  0  0  0
    3.2616    1.6925   -1.5975 C   0  0  0  0  0  0  0  0  0  0  0  0
    4.7394    1.2749   -1.5932 C   0  0  0  0  0  0  0  0  0  0  0  0
    5.2998    1.1315   -0.1681 C   0  0  0  0  0  0  0  0  0  0  0  0
    6.7588    0.6482   -0.1524 C   0  0  0  0  0  0  0  0  0  0  0  0
    7.7525    1.7401   -0.5726 C   0  0  0  0  0  0  0  0  0  0  0  0
    9.1666    1.2465   -0.4231 C   0  0  0  0  0  0  0  0  0  0  0  0
    9.8087    0.5992   -1.4927 C   0  0  0  0  0  0  0  0  0  0  0  0
   11.1069    0.1010   -1.3369 C   0  0  0  0  0  0  0  0  0  0  0  0
   11.7669    0.2358   -0.1138 C   0  0  0  0  0  0  0  0  0  0  0  0
   11.1307    0.8686    0.9582 C   0  0  0  0  0  0  0  0  0  0  0  0
    9.8327    1.3681    0.8071 C   0  0  0  0  0  0  0  0  0  0  0  0
   -3.3573    1.1108   -0.9064 C   0  0  0  0  0  0  0  0  0  0  0  0
   -3.3839    1.9480    0.0356 O   0  0  0  0  0  0  0  0  0  0  0  0
   -4.3272    1.1876   -1.9576 N   0  0  0  0  0  0  0  0  0  0  0  0
   -7.7861    3.3274   -2.2635 H   0  0  0  0  0  0  0  0  0  0  0  0
   -8.4123    2.5327   -3.7482 H   0  0  0  0  0  0  0  0  0  0  0  0
   -8.5265    1.6839   -2.1577 H   0  0  0  0  0  0  0  0  0  0  0  0
   -5.9459    2.4455   -3.6586 H   0  0  0  0  0  0  0  0  0  0  0  0
   -7.3868   -0.2759   -3.3901 H   0  0  0  0  0  0  0  0  0  0  0  0
   -7.0521    0.6751   -4.8732 H   0  0  0  0  0  0  0  0  0  0  0  0
   -5.6981   -0.0858   -3.9843 H   0  0  0  0  0  0  0  0  0  0  0  0
   -5.7337    2.5342   -1.1919 H   0  0  0  0  0  0  0  0  0  0  0  0
   -6.8575   -0.3399   -1.2050 H   0  0  0  0  0  0  0  0  0  0  0  0
   -5.8611    1.5355    0.9766 H   0  0  0  0  0  0  0  0  0  0  0  0
   -7.7309   -2.2788    1.6755 H   0  0  0  0  0  0  0  0  0  0  0  0
   -6.2600   -3.5904    0.4966 H   0  0  0  0  0  0  0  0  0  0  0  0
   -5.8144   -2.2148   -0.5292 H   0  0  0  0  0  0  0  0  0  0  0  0
   -4.7820   -2.4053    2.3777 H   0  0  0  0  0  0  0  0  0  0  0  0
   -4.0192   -3.4137    1.1098 H   0  0  0  0  0  0  0  0  0  0  0  0
   -3.6210   -0.4747    1.5310 H   0  0  0  0  0  0  0  0  0  0  0  0
   -3.2944   -2.1164   -1.0433 H   0  0  0  0  0  0  0  0  0  0  0  0
   -2.0810   -0.2691   -1.9012 H   0  0  0  0  0  0  0  0  0  0  0  0
   -1.0984    1.1101    0.4373 H   0  0  0  0  0  0  0  0  0  0  0  0
    1.7578   -1.3695    0.7958 H   0  0  0  0  0  0  0  0  0  0  0  0
    1.7407   -0.0595    2.8691 H   0  0  0  0  0  0  0  0  0  0  0  0
    0.2353    0.7796    2.4050 H   0  0  0  0  0  0  0  0  0  0  0  0
   -1.8076   -0.1277    3.2158 H   0  0  0  0  0  0  0  0  0  0  0  0
   -3.0822   -1.9514    4.2877 H   0  0  0  0  0  0  0  0  0  0  0  0
   -2.0162   -4.1558    4.6747 H   0  0  0  0  0  0  0  0  0  0  0  0
    0.3282   -4.5373    3.9768 H   0  0  0  0  0  0  0  0  0  0  0  0
    1.6182   -2.7300    2.9018 H   0  0  0  0  0  0  0  0  0  0  0  0
    2.1238    1.4402    0.8486 H   0  0  0  0  0  0  0  0  0  0  0  0
    2.9614    1.9422   -2.6393 H   0  0  0  0  0  0  0  0  0  0  0  0
    3.1232    2.6148   -0.9906 H   0  0  0  0  0  0  0  0  0  0  0  0
    4.8571    0.3154   -2.1449 H   0  0  0  0  0  0  0  0  0  0  0  0
    5.3122    2.0551   -2.1379 H   0  0  0  0  0  0  0  0  0  0  0  0
    4.6927    0.3844    0.3872 H   0  0  0  0  0  0  0  0  0  0  0  0
    5.2155    2.0994    0.3720 H   0  0  0  0  0  0  0  0  0  0  0  0
    7.0008    0.3264    0.8846 H   0  0  0  0  0  0  0  0  0  0  0  0
    6.8698   -0.2413   -0.8103 H   0  0  0  0  0  0  0  0  0  0  0  0
    7.5713    2.0340   -1.6278 H   0  0  0  0  0  0  0  0  0  0  0  0
    7.6065    2.6478    0.0542 H   0  0  0  0  0  0  0  0  0  0  0  0
    9.3039    0.4761   -2.4435 H   0  0  0  0  0  0  0  0  0  0  0  0
   11.5975   -0.3973   -2.1637 H   0  0  0  0  0  0  0  0  0  0  0  0
   12.7697   -0.1540    0.0055 H   0  0  0  0  0  0  0  0  0  0  0  0
   11.6393    0.9637    1.9084 H   0  0  0  0  0  0  0  0  0  0  0  0
    9.3441    1.8439    1.6489 H   0  0  0  0  0  0  0  0  0  0  0  0
   -4.0084    0.9508   -2.9255 H   0  0  0  0  0  0  0  0  0  0  0  0
  1  2  1  0
  2  3  1  0
  2  4  1  0
  4  5  1  0
  5  6  2  0
  6  7  1  0
  7  8  2  0
  7  9  1  0
  9 10  1  0
 10 11  1  0
 11 12  1  0
 12 13  2  0
 13 14  1  0
 14 15  1  0
 15 16  1  0
 16 17  2  0
 16 18  1  0
 18 19  1  0
 19 20  1  0
 20 21  2  0
 21 22  1  0
 22 23  2  0
 23 24  1  0
 24 25  2  0
 18 26  1  0
 26 27  1  0
 27 28  2  0
 27 29  1  0
 29 30  1  0
 30 31  1  0
 31 32  1  0
 32 33  1  0
 33 34  1  0
 34 35  2  0
 35 36  1  0
 36 37  2  0
 37 38  1  0
 38 39  2  0
 14 40  1  0
 40 41  2  0
 40 42  1  0
 42  4  1  0
 25 20  1  0
 39 34  1  0
  1 43  1  0
  1 44  1  0
  1 45  1  0
  2 46  1  0
  3 47  1  0
  3 48  1  0
  3 49  1  0
  4 50  1  1
  5 51  1  0
  6 52  1  0
  9 53  1  0
 10 54  1  0
 10 55  1  0
 11 56  1  0
 11 57  1  0
 12 58  1  0
 13 59  1  0
 14 60  1  6
 15 61  1  0
 18 62  1  1
 19 63  1  0
 19 64  1  0
 21 65  1  0
 22 66  1  0
 23 67  1  0
 24 68  1  0
 25 69  1  0
 26 70  1  0
 29 71  1  0
 29 72  1  0
 30 73  1  0
 30 74  1  0
 31 75  1  0
 31 76  1  0
 32 77  1  0
 32 78  1  0
 33 79  1  0
 33 80  1  0
 35 81  1  0
 36 82  1  0
 37 83  1  0
 38 84  1  0
 39 85  1  0
 42 86  1  0
M  END
$$$$
