
     RDKit          3D

 88 89  0  0  0  0  0  0  0  0999 V2000
   11.6540    1.1283   -2.0071 C   0  0  0  0  0  0  0  0  0  0  0  0
   10.6913   -0.0454   -1.8441 C   0  0  0  0  0  0  0  0  0  0  0  0
    9.3012    0.4373   -1.4151 C   0  0  0  0  0  0  0  0  0  0  0  0
    8.3378   -0.7449   -1.2271 C   0  0  0  0  0  0  0  0  0  0  0  0
    6.8926   -0.2925   -0.9622 C   0  0  0  0  0  0  0  0  0  0  0  0
    6.7217    0.3565    0.4222 C   0  0  0  0  0  0  0  0  0  0  0  0
    5.2529    0.6667    0.7511 C   0  0  0  0  0  0  0  0  0  0  0  0
    4.6767    1.7865   -0.1329 C   0  0  0  0  0  0  0  0  0  0  0  0
    3.3196    2.2895    0.3722 C   0  0  0  0  0  0  0  0  0  0  0  0
    2.2550    1.2388    0.2578 C   0  0  0  0  0  0  0  0  0  0  0  0
    1.7276    1.0099   -0.8647 O   0  0  0  0  0  0  0  0  0  0  0  0
    1.8650    0.4767    1.4087 N   0  0  0  0  0  0  0  0  0  0  0  0
    0.6657   -0.3679    1.4090 C   0  0  1  0  0  0  0  0  0  0  0  0
    0.5870   -1.1881    2.7122 C   0  0  0  0  0  0  0  0  0  0  0  0
   -0.5974   -2.1248    2.7188 C   0  0  0  0  0  0  0  0  0  0  0  0
   -1.7743   -1.7646    3.3989 C   0  0  0  0  0  0  0  0  0  0  0  0
   -2.8928   -2.6012    3.3676 C   0  0  0  0  0  0  0  0  0  0  0  0
   -2.8530   -3.7956    2.6453 C   0  0  0  0  0  0  0  0  0  0  0  0
   -1.6907   -4.1601    1.9605 C   0  0  0  0  0  0  0  0  0  0  0  0
   -0.5637   -3.3316    1.9947 C   0  0  0  0  0  0  0  0  0  0  0  0
    0.5537   -3.7013    1.3163 F   0  0  0  0  0  0  0  0  0  0  0  0
   -0.5647    0.4896    1.2423 C   0  0  0  0  0  0  0  0  0  0  0  0
   -0.6227    1.6131    1.8116 O   0  0  0  0  0  0  0  0  0  0  0  0
   -1.6811    0.0053    0.4796 N   0  0  0  0  0  0  0  0  0  0  0  0
   -2.8542    0.8386    0.1889 C   0  0  1  0  0  0  0  0  0  0  0  0
   -3.4569    0.5082   -1.1648 C   0  0  0  0  0  0  0  0  0  0  0  0
   -3.6346   -0.7416   -1.6334 C   0  0  0  0  0  0  0  0  0  0  0  0
   -4.0220   -0.9983   -3.0707 C   0  0  0  0  0  0  0  0  0  0  0  0
   -5.4375   -0.5125   -3.4188 C   0  0  0  0  0  0  0  0  0  0  0  0
   -6.4497   -1.5195   -3.0877 N   0  0  0  0  0  0  0  0  0  0  0  0
   -7.6409   -1.1771   -2.3636 C   0  0  0  0  0  0  0  0  0  0  0  0
   -8.7597   -1.5707   -2.7849 O   0  0  0  0  0  0  0  0  0  0  0  0
   -7.5728   -0.3902   -1.1221 C   0  0  0  0  0  0  0  0  0  0  0  0
   -6.5191   -0.5154   -0.3132 C   0  0  0  0  0  0  0  0  0  0  0  0
   -6.3150    0.2437    0.9694 C   0  0  2  0  0  0  0  0  0  0  0  0
   -6.7251    1.7548    0.9174 C   0  0  0  0  0  0  0  0  0  0  0  0
   -6.6494    2.4324    2.2942 C   0  0  0  0  0  0  0  0  0  0  0  0
   -6.0013    2.5900   -0.1508 C   0  0  0  0  0  0  0  0  0  0  0  0
   -4.9505   -0.0271    1.4640 N   0  0  0  0  0  0  0  0  0  0  0  0
   -3.8078    0.8345    1.3666 C   0  0  0  0  0  0  0  0  0  0  0  0
   -3.4789    1.5012    2.3835 O   0  0  0  0  0  0  0  0  0  0  0  0
   12.6468    0.7516   -2.3310 H   0  0  0  0  0  0  0  0  0  0  0  0
   11.7730    1.6646   -1.0417 H   0  0  0  0  0  0  0  0  0  0  0  0
   11.2752    1.8349   -2.7753 H   0  0  0  0  0  0  0  0  0  0  0  0
   11.0996   -0.7434   -1.0817 H   0  0  0  0  0  0  0  0  0  0  0  0
   10.6183   -0.5878   -2.8122 H   0  0  0  0  0  0  0  0  0  0  0  0
    8.8991    1.1236   -2.1929 H   0  0  0  0  0  0  0  0  0  0  0  0
    9.3954    0.9989   -0.4605 H   0  0  0  0  0  0  0  0  0  0  0  0
    8.6901   -1.3927   -0.3953 H   0  0  0  0  0  0  0  0  0  0  0  0
    8.3387   -1.3596   -2.1539 H   0  0  0  0  0  0  0  0  0  0  0  0
    6.2330   -1.1858   -1.0247 H   0  0  0  0  0  0  0  0  0  0  0  0
    6.5823    0.4142   -1.7609 H   0  0  0  0  0  0  0  0  0  0  0  0
    7.1094   -0.3398    1.1977 H   0  0  0  0  0  0  0  0  0  0  0  0
    7.3123    1.2945    0.4853 H   0  0  0  0  0  0  0  0  0  0  0  0
    5.2013    0.9834    1.8156 H   0  0  0  0  0  0  0  0  0  0  0  0
    4.6422   -0.2564    0.6444 H   0  0  0  0  0  0  0  0  0  0  0  0
    4.5658    1.4290   -1.1781 H   0  0  0  0  0  0  0  0  0  0  0  0
    5.3796    2.6478   -0.1414 H   0  0  0  0  0  0  0  0  0  0  0  0
    3.0177    3.1721   -0.2327 H   0  0  0  0  0  0  0  0  0  0  0  0
    3.4087    2.6301    1.4254 H   0  0  0  0  0  0  0  0  0  0  0  0
    2.4324    0.5694    2.2814 H   0  0  0  0  0  0  0  0  0  0  0  0
    0.7390   -1.0747    0.5532 H   0  0  0  0  0  0  0  0  0  0  0  0
    0.5370   -0.4999    3.5840 H   0  0  0  0  0  0  0  0  0  0  0  0
    1.5198   -1.7811    2.8293 H   0  0  0  0  0  0  0  0  0  0  0  0
   -1.8294   -0.8308    3.9437 H   0  0  0  0  0  0  0  0  0  0  0  0
   -3.7925   -2.3178    3.8967 H   0  0  0  0  0  0  0  0  0  0  0  0
   -3.7227   -4.4379    2.6140 H   0  0  0  0  0  0  0  0  0  0  0  0
   -1.6658   -5.0860    1.4002 H   0  0  0  0  0  0  0  0  0  0  0  0
   -1.6715   -0.9998    0.2010 H   0  0  0  0  0  0  0  0  0  0  0  0
   -2.5050    1.8903    0.0853 H   0  0  0  0  0  0  0  0  0  0  0  0
   -3.6514    1.3430   -1.8316 H   0  0  0  0  0  0  0  0  0  0  0  0
   -3.4420   -1.6006   -0.9993 H   0  0  0  0  0  0  0  0  0  0  0  0
   -3.9326   -2.0841   -3.2889 H   0  0  0  0  0  0  0  0  0  0  0  0
   -3.2923   -0.4787   -3.7274 H   0  0  0  0  0  0  0  0  0  0  0  0
   -5.4871   -0.3224   -4.5127 H   0  0  0  0  0  0  0  0  0  0  0  0
   -5.6546    0.4555   -2.9187 H   0  0  0  0  0  0  0  0  0  0  0  0
   -6.4481   -2.4088   -3.6366 H   0  0  0  0  0  0  0  0  0  0  0  0
   -8.3984    0.2601   -0.8704 H   0  0  0  0  0  0  0  0  0  0  0  0
   -5.8204   -1.3126   -0.5192 H   0  0  0  0  0  0  0  0  0  0  0  0
   -7.0188   -0.2330    1.6892 H   0  0  0  0  0  0  0  0  0  0  0  0
   -7.8039    1.7823    0.6528 H   0  0  0  0  0  0  0  0  0  0  0  0
   -7.0807    1.7745    3.0783 H   0  0  0  0  0  0  0  0  0  0  0  0
   -5.6111    2.6890    2.5703 H   0  0  0  0  0  0  0  0  0  0  0  0
   -7.2305    3.3766    2.2797 H   0  0  0  0  0  0  0  0  0  0  0  0
   -4.9566    2.8202    0.1372 H   0  0  0  0  0  0  0  0  0  0  0  0
   -6.5272    3.5591   -0.2784 H   0  0  0  0  0  0  0  0  0  0  0  0
   -6.0096    2.0730   -1.1314 H   0  0  0  0  0  0  0  0  0  0  0  0
   -4.8505   -0.8350    2.1163 H   0  0  0  0  0  0  0  0  0  0  0  0
  1  2  1  0
  2  3  1  0
  3  4  1  0
  4  5  1  0
  5  6  1  0
  6  7  1  0
  7  8  1  0
  8  9  1  0
  9 10  1  0
 10 11  2  0
 10 12  1  0
 12 13  1  0
 13 14  1  0
 14 15  1  0
 15 16  2  0
 16 17  1  0
 17 18  2  0
 18 19  1  0
 19 20  2  0
 20 21  1  0
 13 22  1  0
 22 23  2  0
 22 24  1  0
 24 25  1  0
 25 26  1  0
 26 27  2  0
 27 28  1  0
 28 29  1  0
 29 30  1  0
 30 31  1  0
 31 32  2  0
 31 33  1  0
 33 34  2  0
 34 35  1  0
 35 36  1  0
 36 37  1  0
 36 38  1  0
 35 39  1  0
 39 40  1  0
 40 41  2  0
 20 15  1  0
 40 25  1  0
  1 42  1  0
  1 43  1  0
  1 44  1  0
  2 45  1  0
  2 46  1  0
  3 47  1  0
  3 48  1  0
  4 49  1  0
  4 50  1  0
  5 51  1  0
  5 52  1  0
  6 53  1  0
  6 54  1  0
  7 55  1  0
  7 56  1  0
  8 57  1  0
  8 58  1  0
  9 59  1  0
  9 60  1  0
 12 61  1  0
 13 62  1  6
 14 63  1  0
 14 64  1  0
 16 65  1  0
 17 66  1  0
 18 67  1  0
 19 68  1  0
 24 69  1  0
 25 70  1  6
 26 71  1  0
 27 72  1  0
 28 73  1  0
 28 74  1  0
 29 75  1  0
 29 76  1  0
 30 77  1  0
 33 78  1  0
 34 79  1  0
 35 80  1  1
 36 81  1  0
 37 82  1  0
 37 83  1  0
 37 84  1  0
 38 85  1  0
 38 86  1  0
 38 87  1  0
 39 88  1  0
M  END
$$$$
