
     RDKit          3D

106110  0  0  0  0  0  0  0  0999 V2000
   -6.9530    0.6667    2.2992 C   0  0  0  0  0  0  0  0  0  0  0  0
   -7.0002   -0.8477    2.5420 C   0  0  0  0  0  0  0  0  0  0  0  0
   -8.0848   -1.5043    1.6815 C   0  0  0  0  0  0  0  0  0  0  0  0
   -5.6121   -1.5207    2.3928 C   0  0  0  0  0  0  0  0  0  0  0  0
   -4.9532   -1.4168    0.9946 C   0  0  0  0  0  0  0  0  0  0  0  0
   -3.4581   -1.7695    1.0893 C   0  0  0  0  0  0  0  0  0  0  0  0
   -2.8394   -1.6087   -0.1797 O   0  0  0  0  0  0  0  0  0  0  0  0
   -1.7550   -2.3798   -0.6079 C   0  0  0  0  0  0  0  0  0  0  0  0
   -1.9325   -3.2068   -1.7269 C   0  0  0  0  0  0  0  0  0  0  0  0
   -0.8979   -4.0381   -2.1647 C   0  0  0  0  0  0  0  0  0  0  0  0
    0.3239   -4.0454   -1.4913 C   0  0  0  0  0  0  0  0  0  0  0  0
    0.5264   -3.1980   -0.3977 C   0  0  0  0  0  0  0  0  0  0  0  0
   -0.4980   -2.3362    0.0345 C   0  0  0  0  0  0  0  0  0  0  0  0
   -0.2423   -1.4171    1.1565 C   0  0  0  0  0  0  0  0  0  0  0  0
   -0.4488   -1.8345    2.3255 O   0  0  0  0  0  0  0  0  0  0  0  0
    0.2227   -0.0646    0.9709 N   0  0  0  0  0  0  0  0  0  0  0  0
    0.9682    0.4603   -0.1905 C   0  0  0  0  0  0  0  0  0  0  0  0
    2.2623   -0.2986   -0.4075 C   0  0  0  0  0  0  0  0  0  0  0  0
    2.7210   -1.0198    0.5204 O   0  0  0  0  0  0  0  0  0  0  0  0
    3.0406   -0.1138   -1.6014 N   0  0  0  0  0  0  0  0  0  0  0  0
    4.1567   -0.9889   -1.9579 C   0  0  0  0  0  0  0  0  0  0  0  0
    5.3234   -0.8088   -1.0207 C   0  0  0  0  0  0  0  0  0  0  0  0
    5.7218    0.4722   -0.5979 C   0  0  0  0  0  0  0  0  0  0  0  0
    6.8243    0.6252    0.2440 C   0  0  0  0  0  0  0  0  0  0  0  0
    7.5703   -0.4935    0.6475 C   0  0  0  0  0  0  0  0  0  0  0  0
    8.7862   -0.3323    1.5214 C   0  0  0  0  0  0  0  0  0  0  0  0
   10.0210   -0.5134    0.7240 N   0  0  0  0  0  0  0  0  0  0  0  0
   11.1790   -0.8895    1.5624 C   0  0  0  0  0  0  0  0  0  0  0  0
   11.7403    0.3205    2.3216 C   0  0  0  0  0  0  0  0  0  0  0  0
   12.1163    1.3378    1.4157 O   0  0  0  0  0  0  0  0  0  0  0  0
   10.9761    1.7992    0.7187 C   0  0  0  0  0  0  0  0  0  0  0  0
   10.3403    0.6684   -0.1076 C   0  0  0  0  0  0  0  0  0  0  0  0
    7.1970   -1.7679    0.1960 C   0  0  0  0  0  0  0  0  0  0  0  0
    6.0816   -1.9259   -0.6298 C   0  0  0  0  0  0  0  0  0  0  0  0
    0.0903    0.5309   -1.4618 C   0  0  0  0  0  0  0  0  0  0  0  0
   -1.2061    1.3172   -1.2217 C   0  0  0  0  0  0  0  0  0  0  0  0
   -2.0805    1.3933   -2.4548 C   0  0  0  0  0  0  0  0  0  0  0  0
   -1.5629    1.2424   -3.5950 O   0  0  0  0  0  0  0  0  0  0  0  0
   -3.4796    1.7194   -2.3730 N   0  0  0  0  0  0  0  0  0  0  0  0
   -4.2071    1.8918   -1.1108 C   0  0  0  0  0  0  0  0  0  0  0  0
   -3.8886    3.2440   -0.5001 C   0  0  0  0  0  0  0  0  0  0  0  0
   -3.9525    4.4207   -1.2717 C   0  0  0  0  0  0  0  0  0  0  0  0
   -3.6736    5.6619   -0.6898 C   0  0  0  0  0  0  0  0  0  0  0  0
   -3.3335    5.7425    0.6631 C   0  0  0  0  0  0  0  0  0  0  0  0
   -3.2712    4.5820    1.4381 C   0  0  0  0  0  0  0  0  0  0  0  0
   -3.5583    3.3397    0.8631 C   0  0  0  0  0  0  0  0  0  0  0  0
   -5.6984    1.6837   -1.3161 C   0  0  0  0  0  0  0  0  0  0  0  0
   -6.4744    2.6670   -1.1652 O   0  0  0  0  0  0  0  0  0  0  0  0
   -6.2594    0.3923   -1.6717 N   0  0  0  0  0  0  0  0  0  0  0  0
   -7.7058    0.3210   -1.9155 C   0  0  0  0  0  0  0  0  0  0  0  0
   -5.4241   -0.7706   -2.0218 C   0  0  0  0  0  0  0  0  0  0  0  0
   -5.8782   -2.0390   -1.3379 C   0  0  0  0  0  0  0  0  0  0  0  0
   -6.4995   -2.8958   -2.0201 O   0  0  0  0  0  0  0  0  0  0  0  0
   -5.6108   -2.3249    0.0489 N   0  0  0  0  0  0  0  0  0  0  0  0
   -6.8298    0.8992    1.2219 H   0  0  0  0  0  0  0  0  0  0  0  0
   -7.9019    1.1327    2.6392 H   0  0  0  0  0  0  0  0  0  0  0  0
   -6.1167    1.1222    2.8712 H   0  0  0  0  0  0  0  0  0  0  0  0
   -7.3018   -0.9916    3.6028 H   0  0  0  0  0  0  0  0  0  0  0  0
   -7.9232   -1.2904    0.6061 H   0  0  0  0  0  0  0  0  0  0  0  0
   -8.0942   -2.6040    1.8423 H   0  0  0  0  0  0  0  0  0  0  0  0
   -9.0814   -1.1012    1.9661 H   0  0  0  0  0  0  0  0  0  0  0  0
   -5.6913   -2.5898    2.6863 H   0  0  0  0  0  0  0  0  0  0  0  0
   -4.9406   -1.0500    3.1463 H   0  0  0  0  0  0  0  0  0  0  0  0
   -5.0444   -0.3750    0.6516 H   0  0  0  0  0  0  0  0  0  0  0  0
   -3.3492   -2.8197    1.4363 H   0  0  0  0  0  0  0  0  0  0  0  0
   -2.9644   -1.0955    1.8182 H   0  0  0  0  0  0  0  0  0  0  0  0
   -2.8876   -3.2215   -2.2381 H   0  0  0  0  0  0  0  0  0  0  0  0
   -1.0524   -4.6897   -3.0155 H   0  0  0  0  0  0  0  0  0  0  0  0
    1.1186   -4.7063   -1.8217 H   0  0  0  0  0  0  0  0  0  0  0  0
    1.4793   -3.2194    0.1133 H   0  0  0  0  0  0  0  0  0  0  0  0
    0.1387    0.5697    1.7978 H   0  0  0  0  0  0  0  0  0  0  0  0
    1.2688    1.5027    0.0534 H   0  0  0  0  0  0  0  0  0  0  0  0
    2.8150    0.6689   -2.2525 H   0  0  0  0  0  0  0  0  0  0  0  0
    3.8015   -2.0407   -1.9637 H   0  0  0  0  0  0  0  0  0  0  0  0
    4.4962   -0.7469   -2.9861 H   0  0  0  0  0  0  0  0  0  0  0  0
    5.1749    1.3518   -0.9126 H   0  0  0  0  0  0  0  0  0  0  0  0
    7.1091    1.6196    0.5702 H   0  0  0  0  0  0  0  0  0  0  0  0
    8.7736    0.6529    2.0377 H   0  0  0  0  0  0  0  0  0  0  0  0
    8.7234   -1.1031    2.3236 H   0  0  0  0  0  0  0  0  0  0  0  0
   11.9780   -1.3092    0.9110 H   0  0  0  0  0  0  0  0  0  0  0  0
   10.9072   -1.6914    2.2807 H   0  0  0  0  0  0  0  0  0  0  0  0
   12.6418    0.0016    2.8882 H   0  0  0  0  0  0  0  0  0  0  0  0
   11.0042    0.6982    3.0679 H   0  0  0  0  0  0  0  0  0  0  0  0
   11.2912    2.6014    0.0203 H   0  0  0  0  0  0  0  0  0  0  0  0
   10.2449    2.2615    1.4178 H   0  0  0  0  0  0  0  0  0  0  0  0
   11.0509    0.3654   -0.9099 H   0  0  0  0  0  0  0  0  0  0  0  0
    9.4326    1.0510   -0.6209 H   0  0  0  0  0  0  0  0  0  0  0  0
    7.7735   -2.6387    0.4861 H   0  0  0  0  0  0  0  0  0  0  0  0
    5.8147   -2.9176   -0.9722 H   0  0  0  0  0  0  0  0  0  0  0  0
   -0.1389   -0.4851   -1.8375 H   0  0  0  0  0  0  0  0  0  0  0  0
    0.6486    1.0550   -2.2620 H   0  0  0  0  0  0  0  0  0  0  0  0
   -1.7563    0.8220   -0.4005 H   0  0  0  0  0  0  0  0  0  0  0  0
   -0.9612    2.3560   -0.9046 H   0  0  0  0  0  0  0  0  0  0  0  0
   -3.9927    1.8622   -3.2730 H   0  0  0  0  0  0  0  0  0  0  0  0
   -3.8855    1.1093   -0.4079 H   0  0  0  0  0  0  0  0  0  0  0  0
   -4.2176    4.3785   -2.3215 H   0  0  0  0  0  0  0  0  0  0  0  0
   -3.7216    6.5625   -1.2883 H   0  0  0  0  0  0  0  0  0  0  0  0
   -3.1264    6.7060    1.1103 H   0  0  0  0  0  0  0  0  0  0  0  0
   -3.0109    4.6436    2.4865 H   0  0  0  0  0  0  0  0  0  0  0  0
   -3.5156    2.4528    1.4825 H   0  0  0  0  0  0  0  0  0  0  0  0
   -8.0188   -0.6840   -2.2758 H   0  0  0  0  0  0  0  0  0  0  0  0
   -8.2575    0.5493   -0.9809 H   0  0  0  0  0  0  0  0  0  0  0  0
   -7.9930    1.0605   -2.6900 H   0  0  0  0  0  0  0  0  0  0  0  0
   -5.4621   -0.9121   -3.1215 H   0  0  0  0  0  0  0  0  0  0  0  0
   -4.3660   -0.6118   -1.7791 H   0  0  0  0  0  0  0  0  0  0  0  0
   -5.8328   -3.2914    0.3848 H   0  0  0  0  0  0  0  0  0  0  0  0
  1  2  1  0
  2  3  1  0
  2  4  1  0
  4  5  1  0
  5  6  1  0
  6  7  1  0
  7  8  1  0
  8  9  2  0
  9 10  1  0
 10 11  2  0
 11 12  1  0
 12 13  2  0
 13 14  1  0
 14 15  2  0
 14 16  1  0
 16 17  1  0
 17 18  1  0
 18 19  2  0
 18 20  1  0
 20 21  1  0
 21 22  1  0
 22 23  2  0
 23 24  1  0
 24 25  2  0
 25 26  1  0
 26 27  1  0
 27 28  1  0
 28 29  1  0
 29 30  1  0
 30 31  1  0
 31 32  1  0
 25 33  1  0
 33 34  2  0
 17 35  1  0
 35 36  1  0
 36 37  1  0
 37 38  2  0
 37 39  1  0
 39 40  1  0
 40 41  1  0
 41 42  2  0
 42 43  1  0
 43 44  2  0
 44 45  1  0
 45 46  2  0
 40 47  1  0
 47 48  2  0
 47 49  1  0
 49 50  1  0
 49 51  1  0
 51 52  1  0
 52 53  2  0
 52 54  1  0
 54  5  1  0
 13  8  1  0
 34 22  1  0
 46 41  1  0
 32 27  1  0
  1 55  1  0
  1 56  1  0
  1 57  1  0
  2 58  1  0
  3 59  1  0
  3 60  1  0
  3 61  1  0
  4 62  1  0
  4 63  1  0
  5 64  1  0
  6 65  1  0
  6 66  1  0
  9 67  1  0
 10 68  1  0
 11 69  1  0
 12 70  1  0
 16 71  1  0
 17 72  1  0
 20 73  1  0
 21 74  1  0
 21 75  1  0
 23 76  1  0
 24 77  1  0
 26 78  1  0
 26 79  1  0
 28 80  1  0
 28 81  1  0
 29 82  1  0
 29 83  1  0
 31 84  1  0
 31 85  1  0
 32 86  1  0
 32 87  1  0
 33 88  1  0
 34 89  1  0
 35 90  1  0
 35 91  1  0
 36 92  1  0
 36 93  1  0
 39 94  1  0
 40 95  1  0
 42 96  1  0
 43 97  1  0
 44 98  1  0
 45 99  1  0
 46100  1  0
 50101  1  0
 50102  1  0
 50103  1  0
 51104  1  0
 51105  1  0
 54106  1  0
M  END
$$$$
