
     RDKit          3D

146149  0  0  0  0  0  0  0  0999 V2000
   10.2046    3.2192    1.6342 C   0  0  0  0  0  0  0  0  0  0  0  0
   11.1027    2.0143    1.5149 C   0  0  0  0  0  0  0  0  0  0  0  0
   11.8920    2.0549    0.2224 C   0  0  0  0  0  0  0  0  0  0  0  0
   13.0804    2.8025    0.1772 C   0  0  0  0  0  0  0  0  0  0  0  0
   13.7561    3.5613    1.6324 Cl  0  0  0  0  0  0  0  0  0  0  0  0
   13.8081    2.8963   -1.0053 C   0  0  0  0  0  0  0  0  0  0  0  0
   15.0357    3.5745   -1.0078 O   0  0  0  0  0  0  0  0  0  0  0  0
   13.3070    2.3295   -2.1868 C   0  0  0  0  0  0  0  0  0  0  0  0
   14.1473    2.5036   -3.7148 Cl  0  0  0  0  0  0  0  0  0  0  0  0
   12.0999    1.6289   -2.1563 C   0  0  0  0  0  0  0  0  0  0  0  0
   11.5704    1.1672   -3.3635 O   0  0  0  0  0  0  0  0  0  0  0  0
   11.4155    1.4206   -0.9370 C   0  0  0  0  0  0  0  0  0  0  0  0
   10.2499    0.5025   -0.9074 C   0  0  0  0  0  0  0  0  0  0  0  0
   10.3101   -0.6095   -1.4973 O   0  0  0  0  0  0  0  0  0  0  0  0
    9.0561    0.9201   -0.2847 O   0  0  0  0  0  0  0  0  0  0  0  0
    7.8375    0.1754   -0.3711 C   0  0  1  0  0  0  0  0  0  0  0  0
    7.7515   -0.8558    0.7489 C   0  0  2  0  0  0  0  0  0  0  0  0
    8.6987   -1.8774    0.5525 O   0  0  0  0  0  0  0  0  0  0  0  0
    6.3211   -1.4252    0.7266 C   0  0  2  0  0  0  0  0  0  0  0  0
    5.9818   -1.9264   -0.5554 O   0  0  0  0  0  0  0  0  0  0  0  0
    6.4618   -3.2401   -0.7721 C   0  0  0  0  0  0  0  0  0  0  0  0
    5.3448   -0.2804    1.1053 C   0  0  2  0  0  0  0  0  0  0  0  0
    4.0940   -0.4575    0.4526 O   0  0  0  0  0  0  0  0  0  0  0  0
    3.0725   -0.8007    1.3622 C   0  0  0  0  0  0  0  0  0  0  0  0
    2.0230   -1.5448    0.6055 C   0  0  0  0  0  0  0  0  0  0  0  0
    0.6902   -1.3573    0.8056 C   0  0  0  0  0  0  0  0  0  0  0  0
   -0.0095   -0.3580    1.6220 C   0  0  0  0  0  0  0  0  0  0  0  0
    0.2697    0.9768    1.6944 C   0  0  0  0  0  0  0  0  0  0  0  0
   -0.5154    1.9788    2.5104 C   0  0  0  0  0  0  0  0  0  0  0  0
   -2.0520    2.0365    2.3299 C   0  0  2  0  0  0  0  0  0  0  0  0
   -2.5572    3.1086    3.1043 O   0  0  0  0  0  0  0  0  0  0  0  0
   -2.7708    0.7644    2.7515 C   0  0  0  0  0  0  0  0  0  0  0  0
   -2.4434    0.2009    4.1256 C   0  0  0  0  0  0  0  0  0  0  0  0
   -3.6402    0.1956    1.8628 C   0  0  0  0  0  0  0  0  0  0  0  0
   -4.3287   -1.1825    1.7791 C   0  0  2  0  0  0  0  0  0  0  0  0
   -3.6498   -2.3708    2.4973 C   0  0  0  0  0  0  0  0  0  0  0  0
   -4.3857   -2.7629    3.7894 C   0  0  0  0  0  0  0  0  0  0  0  0
   -4.6365   -1.4513    0.2562 C   0  0  1  0  0  0  0  0  0  0  0  0
   -5.4369   -0.3874   -0.2078 O   0  0  0  0  0  0  0  0  0  0  0  0
   -6.8156   -0.7398   -0.2458 C   0  0  2  0  0  0  0  0  0  0  0  0
   -7.3691   -0.1957   -1.4385 O   0  0  0  0  0  0  0  0  0  0  0  0
   -7.8861    1.1103   -1.3040 C   0  0  0  0  0  0  0  0  0  0  0  0
   -8.3308    1.5054   -2.7125 C   0  0  0  0  0  0  0  0  0  0  0  0
   -6.7735    2.1270   -0.9321 C   0  0  0  0  0  0  0  0  0  0  0  0
   -9.1121    1.1176   -0.2944 C   0  0  1  0  0  0  0  0  0  0  0  0
  -10.3477    1.0953   -1.0262 O   0  0  0  0  0  0  0  0  0  0  0  0
  -11.5831    1.5594   -0.5587 C   0  0  0  0  0  0  0  0  0  0  0  0
  -11.9175    1.4148    0.6364 O   0  0  0  0  0  0  0  0  0  0  0  0
  -12.5369    2.2300   -1.5291 C   0  0  0  0  0  0  0  0  0  0  0  0
  -11.7480    3.1652   -2.4508 C   0  0  0  0  0  0  0  0  0  0  0  0
  -13.6456    2.9942   -0.8065 C   0  0  0  0  0  0  0  0  0  0  0  0
   -9.0555   -0.0887    0.6546 C   0  0  2  0  0  0  0  0  0  0  0  0
   -9.8919    0.1124    1.7785 O   0  0  0  0  0  0  0  0  0  0  0  0
   -7.5903   -0.3958    1.0419 C   0  0  2  0  0  0  0  0  0  0  0  0
   -7.0288    0.6941    1.7355 O   0  0  0  0  0  0  0  0  0  0  0  0
   -3.3494   -1.5730   -0.5593 C   0  0  0  0  0  0  0  0  0  0  0  0
   -2.7350   -2.9560   -0.5434 C   0  0  0  0  0  0  0  0  0  0  0  0
   -2.7419   -0.4832   -1.1278 C   0  0  0  0  0  0  0  0  0  0  0  0
   -1.3774   -0.4094   -1.6983 C   0  0  0  0  0  0  0  0  0  0  0  0
   -0.6140    0.8526   -1.4994 C   0  0  0  0  0  0  0  0  0  0  0  0
   -0.8804   -1.3461   -2.5398 C   0  0  0  0  0  0  0  0  0  0  0  0
    0.5913   -1.6888   -2.7120 C   0  0  0  0  0  0  0  0  0  0  0  0
    0.8464   -3.0779   -2.0746 C   0  0  0  0  0  0  0  0  0  0  0  0
    0.7374   -4.2504   -3.0978 C   0  0  1  0  0  0  0  0  0  0  0  0
    1.9153   -4.2995   -4.0842 C   0  0  0  0  0  0  0  0  0  0  0  0
    0.6412   -5.5093   -2.4625 O   0  0  0  0  0  0  0  0  0  0  0  0
    2.1270   -3.1606   -1.4516 O   0  0  0  0  0  0  0  0  0  0  0  0
    2.5398   -2.7320   -0.1646 C   0  0  0  0  0  0  0  0  0  0  0  0
    3.5938   -3.2943    0.2700 O   0  0  0  0  0  0  0  0  0  0  0  0
    5.8427    1.0368    0.8633 O   0  0  0  0  0  0  0  0  0  0  0  0
    6.6390    1.1754   -0.3057 C   0  0  2  0  0  0  0  0  0  0  0  0
    5.7908    1.2302   -1.6131 C   0  0  0  0  0  0  0  0  0  0  0  0
    9.6904    3.2461    2.6111 H   0  0  0  0  0  0  0  0  0  0  0  0
   10.8025    4.1665    1.5298 H   0  0  0  0  0  0  0  0  0  0  0  0
    9.4312    3.2403    0.8225 H   0  0  0  0  0  0  0  0  0  0  0  0
   10.5025    1.0797    1.6150 H   0  0  0  0  0  0  0  0  0  0  0  0
   11.7799    1.9906    2.3925 H   0  0  0  0  0  0  0  0  0  0  0  0
   15.6522    3.6010   -1.8150 H   0  0  0  0  0  0  0  0  0  0  0  0
   10.5910    0.8973   -3.4652 H   0  0  0  0  0  0  0  0  0  0  0  0
    7.8013   -0.3378   -1.3663 H   0  0  0  0  0  0  0  0  0  0  0  0
    7.9138   -0.3587    1.7405 H   0  0  0  0  0  0  0  0  0  0  0  0
    9.5051   -1.6259    1.0971 H   0  0  0  0  0  0  0  0  0  0  0  0
    6.2495   -2.2071    1.5293 H   0  0  0  0  0  0  0  0  0  0  0  0
    7.4906   -3.1998   -1.1890 H   0  0  0  0  0  0  0  0  0  0  0  0
    6.4018   -3.8951    0.1233 H   0  0  0  0  0  0  0  0  0  0  0  0
    5.8166   -3.7057   -1.5438 H   0  0  0  0  0  0  0  0  0  0  0  0
    5.2636   -0.3288    2.2245 H   0  0  0  0  0  0  0  0  0  0  0  0
    3.4418   -1.4953    2.1537 H   0  0  0  0  0  0  0  0  0  0  0  0
    2.7230    0.0983    1.8641 H   0  0  0  0  0  0  0  0  0  0  0  0
    0.0016   -2.0885    0.3815 H   0  0  0  0  0  0  0  0  0  0  0  0
   -0.9045   -0.7550    2.0848 H   0  0  0  0  0  0  0  0  0  0  0  0
    1.1008    1.3849    1.1208 H   0  0  0  0  0  0  0  0  0  0  0  0
   -0.2180    1.9720    3.5717 H   0  0  0  0  0  0  0  0  0  0  0  0
   -0.1690    2.9757    2.1512 H   0  0  0  0  0  0  0  0  0  0  0  0
   -2.2474    2.2321    1.2354 H   0  0  0  0  0  0  0  0  0  0  0  0
   -2.7401    3.8656    2.4837 H   0  0  0  0  0  0  0  0  0  0  0  0
   -3.3577   -0.0990    4.6443 H   0  0  0  0  0  0  0  0  0  0  0  0
   -1.9574    0.9641    4.7690 H   0  0  0  0  0  0  0  0  0  0  0  0
   -1.7042   -0.6151    4.0804 H   0  0  0  0  0  0  0  0  0  0  0  0
   -4.2728    0.9905    1.4447 H   0  0  0  0  0  0  0  0  0  0  0  0
   -5.3123   -1.0369    2.2661 H   0  0  0  0  0  0  0  0  0  0  0  0
   -2.6035   -2.1382    2.7205 H   0  0  0  0  0  0  0  0  0  0  0  0
   -3.6672   -3.3021    1.8789 H   0  0  0  0  0  0  0  0  0  0  0  0
   -4.5935   -1.9063    4.4482 H   0  0  0  0  0  0  0  0  0  0  0  0
   -3.7761   -3.5092    4.3315 H   0  0  0  0  0  0  0  0  0  0  0  0
   -5.3737   -3.2097    3.5244 H   0  0  0  0  0  0  0  0  0  0  0  0
   -5.1864   -2.4073    0.0603 H   0  0  0  0  0  0  0  0  0  0  0  0
   -7.0145   -1.8331   -0.3493 H   0  0  0  0  0  0  0  0  0  0  0  0
   -9.1660    0.8554   -3.0858 H   0  0  0  0  0  0  0  0  0  0  0  0
   -7.4854    1.4418   -3.4054 H   0  0  0  0  0  0  0  0  0  0  0  0
   -8.6994    2.5533   -2.7422 H   0  0  0  0  0  0  0  0  0  0  0  0
   -5.7892    1.7779   -1.2765 H   0  0  0  0  0  0  0  0  0  0  0  0
   -6.7363    2.3149    0.1705 H   0  0  0  0  0  0  0  0  0  0  0  0
   -6.9443    3.1323   -1.3710 H   0  0  0  0  0  0  0  0  0  0  0  0
   -9.0886    2.0503    0.3135 H   0  0  0  0  0  0  0  0  0  0  0  0
  -13.0047    1.4364   -2.1639 H   0  0  0  0  0  0  0  0  0  0  0  0
  -12.4382    3.7718   -3.1037 H   0  0  0  0  0  0  0  0  0  0  0  0
  -11.0862    2.5633   -3.1044 H   0  0  0  0  0  0  0  0  0  0  0  0
  -11.1230    3.8531   -1.8362 H   0  0  0  0  0  0  0  0  0  0  0  0
  -14.2787    3.5709   -1.5146 H   0  0  0  0  0  0  0  0  0  0  0  0
  -13.1972    3.7035   -0.0629 H   0  0  0  0  0  0  0  0  0  0  0  0
  -14.3022    2.2824   -0.2719 H   0  0  0  0  0  0  0  0  0  0  0  0
   -9.4419   -0.9848    0.1046 H   0  0  0  0  0  0  0  0  0  0  0  0
   -9.5438   -0.4640    2.5223 H   0  0  0  0  0  0  0  0  0  0  0  0
   -7.5752   -1.2880    1.7075 H   0  0  0  0  0  0  0  0  0  0  0  0
   -7.5406    0.8188    2.5545 H   0  0  0  0  0  0  0  0  0  0  0  0
   -2.3103   -3.2596   -1.4919 H   0  0  0  0  0  0  0  0  0  0  0  0
   -2.0065   -3.0417    0.2787 H   0  0  0  0  0  0  0  0  0  0  0  0
   -3.5149   -3.7430   -0.3192 H   0  0  0  0  0  0  0  0  0  0  0  0
   -3.1978    0.4794   -0.9979 H   0  0  0  0  0  0  0  0  0  0  0  0
   -0.3745    1.3195   -2.4831 H   0  0  0  0  0  0  0  0  0  0  0  0
    0.3161    0.6799   -0.9382 H   0  0  0  0  0  0  0  0  0  0  0  0
   -1.1970    1.6030   -0.9138 H   0  0  0  0  0  0  0  0  0  0  0  0
   -1.5564   -2.0414   -3.0211 H   0  0  0  0  0  0  0  0  0  0  0  0
    1.2612   -0.9395   -2.2565 H   0  0  0  0  0  0  0  0  0  0  0  0
    0.8089   -1.7031   -3.8053 H   0  0  0  0  0  0  0  0  0  0  0  0
    0.0717   -3.2865   -1.3193 H   0  0  0  0  0  0  0  0  0  0  0  0
   -0.2022   -4.1191   -3.6924 H   0  0  0  0  0  0  0  0  0  0  0  0
    2.8796   -4.3805   -3.5418 H   0  0  0  0  0  0  0  0  0  0  0  0
    1.9239   -3.3978   -4.7159 H   0  0  0  0  0  0  0  0  0  0  0  0
    1.8074   -5.1771   -4.7464 H   0  0  0  0  0  0  0  0  0  0  0  0
    0.7355   -5.4170   -1.4747 H   0  0  0  0  0  0  0  0  0  0  0  0
    7.0808    2.2006   -0.1966 H   0  0  0  0  0  0  0  0  0  0  0  0
    5.4075    2.2596   -1.7338 H   0  0  0  0  0  0  0  0  0  0  0  0
    4.9431    0.5621   -1.5515 H   0  0  0  0  0  0  0  0  0  0  0  0
    6.4138    0.9984   -2.5061 H   0  0  0  0  0  0  0  0  0  0  0  0
  1  2  1  0
  2  3  1  0
  3  4  2  0
  4  5  1  0
  4  6  1  0
  6  7  1  0
  6  8  2  0
  8  9  1  0
  8 10  1  0
 10 11  1  0
 10 12  2  0
 12 13  1  0
 13 14  2  0
 13 15  1  0
 15 16  1  0
 16 17  1  0
 17 18  1  0
 17 19  1  0
 19 20  1  0
 20 21  1  0
 19 22  1  0
 22 23  1  0
 23 24  1  0
 24 25  1  0
 25 26  2  0
 26 27  1  0
 27 28  2  0
 28 29  1  0
 29 30  1  0
 30 31  1  0
 30 32  1  0
 32 33  1  0
 32 34  2  0
 34 35  1  0
 35 36  1  0
 36 37  1  0
 35 38  1  0
 38 39  1  0
 39 40  1  0
 40 41  1  0
 41 42  1  0
 42 43  1  0
 42 44  1  0
 42 45  1  0
 45 46  1  0
 46 47  1  0
 47 48  2  0
 47 49  1  0
 49 50  1  0
 49 51  1  0
 45 52  1  0
 52 53  1  0
 52 54  1  0
 54 55  1  0
 38 56  1  0
 56 57  1  0
 56 58  2  0
 58 59  1  0
 59 60  1  0
 59 61  2  0
 61 62  1  0
 62 63  1  0
 63 64  1  0
 64 65  1  0
 64 66  1  0
 63 67  1  0
 67 68  1  0
 68 69  2  0
 22 70  1  0
 70 71  1  0
 71 72  1  0
 12  3  1  0
 71 16  1  0
 68 25  1  0
 54 40  1  0
  1 73  1  0
  1 74  1  0
  1 75  1  0
  2 76  1  0
  2 77  1  0
  7 78  1  0
 11 79  1  0
 16 80  1  6
 17 81  1  1
 18 82  1  0
 19 83  1  1
 21 84  1  0
 21 85  1  0
 21 86  1  0
 22 87  1  1
 24 88  1  0
 24 89  1  0
 26 90  1  0
 27 91  1  0
 28 92  1  0
 29 93  1  0
 29 94  1  0
 30 95  1  6
 31 96  1  0
 33 97  1  0
 33 98  1  0
 33 99  1  0
 34100  1  0
 35101  1  1
 36102  1  0
 36103  1  0
 37104  1  0
 37105  1  0
 37106  1  0
 38107  1  1
 40108  1  6
 43109  1  0
 43110  1  0
 43111  1  0
 44112  1  0
 44113  1  0
 44114  1  0
 45115  1  1
 49116  1  0
 50117  1  0
 50118  1  0
 50119  1  0
 51120  1  0
 51121  1  0
 51122  1  0
 52123  1  6
 53124  1  0
 54125  1  1
 55126  1  0
 57127  1  0
 57128  1  0
 57129  1  0
 58130  1  0
 60131  1  0
 60132  1  0
 60133  1  0
 61134  1  0
 62135  1  0
 62136  1  0
 63137  1  0
 64138  1  6
 65139  1  0
 65140  1  0
 65141  1  0
 66142  1  0
 71143  1  1
 72144  1  0
 72145  1  0
 72146  1  0
M  END
$$$$
