
     RDKit          3D

 68 72  0  0  0  0  0  0  0  0999 V2000
   -0.5794    2.6124    0.4705 C   0  0  0  0  0  0  0  0  0  0  0  0
   -1.5489    1.5738    0.8152 N   0  0  0  0  0  0  0  0  0  0  0  0
   -2.9051    1.5967    0.2448 C   0  0  0  0  0  0  0  0  0  0  0  0
   -3.9591    1.0896    1.2476 C   0  0  0  0  0  0  0  0  0  0  0  0
   -5.2498    0.9475    0.6531 O   0  0  0  0  0  0  0  0  0  0  0  0
   -5.5123    0.1881   -0.4967 C   0  0  0  0  0  0  0  0  0  0  0  0
   -5.8566    0.8903   -1.6600 C   0  0  0  0  0  0  0  0  0  0  0  0
   -6.1622    0.2106   -2.8400 C   0  0  0  0  0  0  0  0  0  0  0  0
   -6.1471   -1.1846   -2.8656 C   0  0  0  0  0  0  0  0  0  0  0  0
   -5.8241   -1.9035   -1.7124 C   0  0  0  0  0  0  0  0  0  0  0  0
   -5.4845   -1.2364   -0.5166 C   0  0  0  0  0  0  0  0  0  0  0  0
   -5.1416   -2.0755    0.7008 C   0  0  0  0  0  0  0  0  0  0  0  0
   -3.8767   -2.9425    0.4961 C   0  0  0  0  0  0  0  0  0  0  0  0
   -2.6034   -2.1382    0.1529 C   0  0  0  0  0  0  0  0  0  0  0  0
   -1.6703   -1.9248    1.3622 C   0  0  0  0  0  0  0  0  0  0  0  0
   -0.5857   -0.8091    1.1454 C   0  0  0  0  0  0  0  0  0  0  0  0
    0.7228   -1.1672    1.9496 C   0  0  0  0  0  0  0  0  0  0  0  0
    1.9179   -0.6386    1.2802 N   0  0  0  0  0  0  0  0  0  0  0  0
    3.0800   -0.2717    2.0589 C   0  0  0  0  0  0  0  0  0  0  0  0
    3.0642   -0.4013    3.3145 O   0  0  0  0  0  0  0  0  0  0  0  0
    4.3293    0.1826    1.4204 C   0  0  0  0  0  0  0  0  0  0  0  0
    5.5215   -0.5435    1.6208 C   0  0  0  0  0  0  0  0  0  0  0  0
    6.6978   -0.1686    0.9573 C   0  0  0  0  0  0  0  0  0  0  0  0
    6.6726    0.9493    0.1203 C   0  0  0  0  0  0  0  0  0  0  0  0
    5.5287    1.6837   -0.0466 C   0  0  0  0  0  0  0  0  0  0  0  0
    4.3396    1.3223    0.5926 C   0  0  0  0  0  0  0  0  0  0  0  0
    5.7269    2.8211   -0.9762 C   0  0  0  0  0  0  0  0  0  0  0  0
    7.1919    2.6873   -1.4255 C   0  0  0  0  0  0  0  0  0  0  0  0
    7.7873    1.4608   -0.7062 C   0  0  0  0  0  0  0  0  0  0  0  0
    2.0345   -0.8411   -0.1695 C   0  0  0  0  0  0  0  0  0  0  0  0
    0.7294   -1.3999   -0.7344 C   0  0  0  0  0  0  0  0  0  0  0  0
   -0.3470   -0.6258   -0.2537 O   0  0  0  0  0  0  0  0  0  0  0  0
   -1.1203    0.5132    1.6864 C   0  0  0  0  0  0  0  0  0  0  0  0
   -1.2041    0.6918    2.9364 O   0  0  0  0  0  0  0  0  0  0  0  0
    0.3437    2.1457    0.0665 H   0  0  0  0  0  0  0  0  0  0  0  0
   -0.9807    3.3007   -0.3034 H   0  0  0  0  0  0  0  0  0  0  0  0
   -0.3271    3.2036    1.3731 H   0  0  0  0  0  0  0  0  0  0  0  0
   -3.1841    2.6351   -0.0487 H   0  0  0  0  0  0  0  0  0  0  0  0
   -2.9084    0.9915   -0.6841 H   0  0  0  0  0  0  0  0  0  0  0  0
   -4.0339    1.8175    2.0832 H   0  0  0  0  0  0  0  0  0  0  0  0
   -3.6475    0.1294    1.6805 H   0  0  0  0  0  0  0  0  0  0  0  0
   -5.8767    1.9749   -1.6486 H   0  0  0  0  0  0  0  0  0  0  0  0
   -6.4161    0.7631   -3.7360 H   0  0  0  0  0  0  0  0  0  0  0  0
   -6.3977   -1.7121   -3.7774 H   0  0  0  0  0  0  0  0  0  0  0  0
   -5.8449   -2.9876   -1.7531 H   0  0  0  0  0  0  0  0  0  0  0  0
   -5.9937   -2.7655    0.8854 H   0  0  0  0  0  0  0  0  0  0  0  0
   -5.0567   -1.4746    1.6264 H   0  0  0  0  0  0  0  0  0  0  0  0
   -4.0768   -3.6638   -0.3279 H   0  0  0  0  0  0  0  0  0  0  0  0
   -3.7074   -3.5614    1.4057 H   0  0  0  0  0  0  0  0  0  0  0  0
   -2.8646   -1.1753   -0.3160 H   0  0  0  0  0  0  0  0  0  0  0  0
   -2.0357   -2.7015   -0.6222 H   0  0  0  0  0  0  0  0  0  0  0  0
   -1.1853   -2.9039    1.5512 H   0  0  0  0  0  0  0  0  0  0  0  0
   -2.2693   -1.7085    2.2713 H   0  0  0  0  0  0  0  0  0  0  0  0
    0.6663   -0.8149    3.0012 H   0  0  0  0  0  0  0  0  0  0  0  0
    0.8560   -2.2674    2.0249 H   0  0  0  0  0  0  0  0  0  0  0  0
    5.5287   -1.4181    2.2582 H   0  0  0  0  0  0  0  0  0  0  0  0
    7.6025   -0.7471    1.0776 H   0  0  0  0  0  0  0  0  0  0  0  0
    3.4397    1.9080    0.4373 H   0  0  0  0  0  0  0  0  0  0  0  0
    5.0351    2.7340   -1.8378 H   0  0  0  0  0  0  0  0  0  0  0  0
    5.5569    3.7834   -0.4488 H   0  0  0  0  0  0  0  0  0  0  0  0
    7.7596    3.6045   -1.1624 H   0  0  0  0  0  0  0  0  0  0  0  0
    7.2438    2.5447   -2.5226 H   0  0  0  0  0  0  0  0  0  0  0  0
    8.0995    0.6849   -1.4367 H   0  0  0  0  0  0  0  0  0  0  0  0
    8.6445    1.7509   -0.0653 H   0  0  0  0  0  0  0  0  0  0  0  0
    2.8695   -1.5401   -0.3936 H   0  0  0  0  0  0  0  0  0  0  0  0
    2.2371    0.1306   -0.6658 H   0  0  0  0  0  0  0  0  0  0  0  0
    0.6068   -2.4733   -0.4648 H   0  0  0  0  0  0  0  0  0  0  0  0
    0.7505   -1.3361   -1.8438 H   0  0  0  0  0  0  0  0  0  0  0  0
  1  2  1  0
  2  3  1  0
  3  4  1  0
  4  5  1  0
  5  6  1  0
  6  7  2  0
  7  8  1  0
  8  9  2  0
  9 10  1  0
 10 11  2  0
 11 12  1  0
 12 13  1  0
 13 14  1  0
 14 15  1  0
 15 16  1  0
 16 17  1  0
 17 18  1  0
 18 19  1  0
 19 20  2  0
 19 21  1  0
 21 22  2  0
 22 23  1  0
 23 24  2  0
 24 25  1  0
 25 26  2  0
 25 27  1  0
 27 28  1  0
 28 29  1  0
 18 30  1  0
 30 31  1  0
 31 32  1  0
 16 33  1  0
 33 34  2  0
 33  2  1  0
 11  6  1  0
 32 16  1  0
 26 21  1  0
 29 24  1  0
  1 35  1  0
  1 36  1  0
  1 37  1  0
  3 38  1  0
  3 39  1  0
  4 40  1  0
  4 41  1  0
  7 42  1  0
  8 43  1  0
  9 44  1  0
 10 45  1  0
 12 46  1  0
 12 47  1  0
 13 48  1  0
 13 49  1  0
 14 50  1  0
 14 51  1  0
 15 52  1  0
 15 53  1  0
 17 54  1  0
 17 55  1  0
 22 56  1  0
 23 57  1  0
 26 58  1  0
 27 59  1  0
 27 60  1  0
 28 61  1  0
 28 62  1  0
 29 63  1  0
 29 64  1  0
 30 65  1  0
 30 66  1  0
 31 67  1  0
 31 68  1  0
M  END
$$$$
