
     RDKit          3D

 83 87  0  0  0  0  0  0  0  0999 V2000
    9.0745    0.3801    0.1677 C   0  0  0  0  0  0  0  0  0  0  0  0
    8.2403   -0.8746    0.1630 C   0  0  0  0  0  0  0  0  0  0  0  0
    8.8664   -2.1366    0.1231 C   0  0  0  0  0  0  0  0  0  0  0  0
   10.2192   -2.2412    0.0867 F   0  0  0  0  0  0  0  0  0  0  0  0
    8.1001   -3.3046    0.1215 C   0  0  0  0  0  0  0  0  0  0  0  0
    6.7089   -3.2317    0.1723 C   0  0  0  0  0  0  0  0  0  0  0  0
    6.0749   -1.9900    0.2272 C   0  0  0  0  0  0  0  0  0  0  0  0
    6.8276   -0.8018    0.2196 C   0  0  0  0  0  0  0  0  0  0  0  0
    6.1631    0.4697    0.3265 N   0  0  0  0  0  0  0  0  0  0  0  0
    4.9515    0.7822   -0.3768 C   0  0  0  0  0  0  0  0  0  0  0  0
    4.5644    0.0586   -1.3347 O   0  0  0  0  0  0  0  0  0  0  0  0
    4.1463    1.9908    0.0019 C   0  0  0  0  0  0  0  0  0  0  0  0
    2.7606    1.6040    0.3349 N   0  0  0  0  0  0  0  0  0  0  0  0
    2.7084    0.9132    1.6459 C   0  0  0  0  0  0  0  0  0  0  0  0
    1.2793    0.4530    1.9790 C   0  0  0  0  0  0  0  0  0  0  0  0
    0.3126    1.6420    1.8814 C   0  0  0  0  0  0  0  0  0  0  0  0
   -1.0374    1.2908    2.3479 N   0  0  0  0  0  0  0  0  0  0  0  0
   -2.1593    0.9467    1.5336 C   0  0  0  0  0  0  0  0  0  0  0  0
   -3.0934    1.7855    1.4289 O   0  0  0  0  0  0  0  0  0  0  0  0
   -2.3404   -0.4691    1.0221 C   0  0  0  0  0  0  0  0  0  0  0  0
   -3.0410   -1.3346    2.0836 C   0  0  0  0  0  0  0  0  0  0  0  0
   -3.1349   -2.7719    1.6402 C   0  0  0  0  0  0  0  0  0  0  0  0
   -2.0328   -3.6303    1.7910 C   0  0  0  0  0  0  0  0  0  0  0  0
   -2.1030   -4.9526    1.3421 C   0  0  0  0  0  0  0  0  0  0  0  0
   -3.2692   -5.4242    0.7329 C   0  0  0  0  0  0  0  0  0  0  0  0
   -4.3664   -4.5740    0.5709 C   0  0  0  0  0  0  0  0  0  0  0  0
   -4.3007   -3.2513    1.0193 C   0  0  0  0  0  0  0  0  0  0  0  0
   -3.0623   -0.5119   -0.2633 N   0  0  0  0  0  0  0  0  0  0  0  0
   -4.2722    0.2169   -0.5253 C   0  0  0  0  0  0  0  0  0  0  0  0
   -5.1900    0.1822    0.3395 O   0  0  0  0  0  0  0  0  0  0  0  0
   -4.4959    1.0399   -1.8066 C   0  0  0  0  0  0  0  0  0  0  0  0
   -3.2712    1.0796   -2.8025 C   0  0  0  0  0  0  0  0  0  0  0  0
   -1.8687    1.0143   -2.2437 C   0  0  0  0  0  0  0  0  0  0  0  0
   -1.3644    1.8233   -1.2992 C   0  0  0  0  0  0  0  0  0  0  0  0
    0.0004    1.5128   -0.7415 C   0  0  0  0  0  0  0  0  0  0  0  0
    0.4076    2.3662    0.5003 C   0  0  0  0  0  0  0  0  0  0  0  0
    1.8830    2.7972    0.3382 C   0  0  0  0  0  0  0  0  0  0  0  0
   -5.7034    0.4030   -2.5695 C   0  0  0  0  0  0  0  0  0  0  0  0
   -7.0509    0.9978   -2.1172 C   0  0  0  0  0  0  0  0  0  0  0  0
   -7.1741    2.3998   -2.3250 O   0  0  0  0  0  0  0  0  0  0  0  0
   -5.9347    3.0939   -2.3551 C   0  0  0  0  0  0  0  0  0  0  0  0
   -4.8757    2.5057   -1.4068 C   0  0  0  0  0  0  0  0  0  0  0  0
   10.1154    0.1851   -0.1652 H   0  0  0  0  0  0  0  0  0  0  0  0
    8.6418    1.1310   -0.5271 H   0  0  0  0  0  0  0  0  0  0  0  0
    9.1033    0.8029    1.1940 H   0  0  0  0  0  0  0  0  0  0  0  0
    8.5869   -4.2709    0.0874 H   0  0  0  0  0  0  0  0  0  0  0  0
    6.1203   -4.1400    0.1820 H   0  0  0  0  0  0  0  0  0  0  0  0
    4.9954   -1.9566    0.3024 H   0  0  0  0  0  0  0  0  0  0  0  0
    6.5959    1.2133    0.9191 H   0  0  0  0  0  0  0  0  0  0  0  0
    4.6207    2.5328    0.8508 H   0  0  0  0  0  0  0  0  0  0  0  0
    4.1599    2.6735   -0.8764 H   0  0  0  0  0  0  0  0  0  0  0  0
    3.3572    0.0104    1.6296 H   0  0  0  0  0  0  0  0  0  0  0  0
    3.0799    1.5816    2.4566 H   0  0  0  0  0  0  0  0  0  0  0  0
    0.9823   -0.3750    1.3053 H   0  0  0  0  0  0  0  0  0  0  0  0
    1.2642    0.0517    3.0158 H   0  0  0  0  0  0  0  0  0  0  0  0
    0.6908    2.3805    2.6277 H   0  0  0  0  0  0  0  0  0  0  0  0
   -1.2808    1.6091    3.3138 H   0  0  0  0  0  0  0  0  0  0  0  0
   -1.3299   -0.9007    0.8617 H   0  0  0  0  0  0  0  0  0  0  0  0
   -2.4634   -1.2886    3.0337 H   0  0  0  0  0  0  0  0  0  0  0  0
   -4.0516   -0.9340    2.3115 H   0  0  0  0  0  0  0  0  0  0  0  0
   -1.1196   -3.2739    2.2516 H   0  0  0  0  0  0  0  0  0  0  0  0
   -1.2521   -5.6106    1.4627 H   0  0  0  0  0  0  0  0  0  0  0  0
   -3.3216   -6.4474    0.3841 H   0  0  0  0  0  0  0  0  0  0  0  0
   -5.2672   -4.9390    0.0941 H   0  0  0  0  0  0  0  0  0  0  0  0
   -5.1552   -2.6018    0.8781 H   0  0  0  0  0  0  0  0  0  0  0  0
   -2.6787   -1.1213   -1.0199 H   0  0  0  0  0  0  0  0  0  0  0  0
   -3.3387    1.9772   -3.4545 H   0  0  0  0  0  0  0  0  0  0  0  0
   -3.3463    0.2106   -3.4937 H   0  0  0  0  0  0  0  0  0  0  0  0
   -1.2455    0.1997   -2.6083 H   0  0  0  0  0  0  0  0  0  0  0  0
   -1.9414    2.6439   -0.8968 H   0  0  0  0  0  0  0  0  0  0  0  0
    0.7153    1.6709   -1.5792 H   0  0  0  0  0  0  0  0  0  0  0  0
    0.0556    0.4327   -0.5092 H   0  0  0  0  0  0  0  0  0  0  0  0
   -0.2065    3.2926    0.5440 H   0  0  0  0  0  0  0  0  0  0  0  0
    1.9852    3.3608   -0.6165 H   0  0  0  0  0  0  0  0  0  0  0  0
    2.1755    3.4985    1.1537 H   0  0  0  0  0  0  0  0  0  0  0  0
   -5.6264    0.5880   -3.6648 H   0  0  0  0  0  0  0  0  0  0  0  0
   -5.7191   -0.7021   -2.4382 H   0  0  0  0  0  0  0  0  0  0  0  0
   -7.8613    0.4930   -2.6840 H   0  0  0  0  0  0  0  0  0  0  0  0
   -7.2298    0.7754   -1.0451 H   0  0  0  0  0  0  0  0  0  0  0  0
   -6.1223    4.1485   -2.0621 H   0  0  0  0  0  0  0  0  0  0  0  0
   -5.5481    3.1134   -3.3969 H   0  0  0  0  0  0  0  0  0  0  0  0
   -5.2920    2.5596   -0.3772 H   0  0  0  0  0  0  0  0  0  0  0  0
   -3.9952    3.1766   -1.4182 H   0  0  0  0  0  0  0  0  0  0  0  0
  1  2  1  0
  2  3  2  0
  3  4  1  0
  3  5  1  0
  5  6  2  0
  6  7  1  0
  7  8  2  0
  8  9  1  0
  9 10  1  0
 10 11  2  0
 10 12  1  0
 12 13  1  0
 13 14  1  0
 14 15  1  0
 15 16  1  0
 16 17  1  0
 17 18  1  0
 18 19  2  0
 18 20  1  0
 20 21  1  0
 21 22  1  0
 22 23  2  0
 23 24  1  0
 24 25  2  0
 25 26  1  0
 26 27  2  0
 20 28  1  0
 28 29  1  0
 29 30  2  0
 29 31  1  0
 31 32  1  0
 32 33  1  0
 33 34  2  0
 34 35  1  0
 35 36  1  0
 36 37  1  0
 31 38  1  0
 38 39  1  0
 39 40  1  0
 40 41  1  0
 41 42  1  0
  8  2  1  0
 37 13  1  0
 36 16  1  0
 27 22  1  0
 42 31  1  0
  1 43  1  0
  1 44  1  0
  1 45  1  0
  5 46  1  0
  6 47  1  0
  7 48  1  0
  9 49  1  0
 12 50  1  0
 12 51  1  0
 14 52  1  0
 14 53  1  0
 15 54  1  0
 15 55  1  0
 16 56  1  0
 17 57  1  0
 20 58  1  0
 21 59  1  0
 21 60  1  0
 23 61  1  0
 24 62  1  0
 25 63  1  0
 26 64  1  0
 27 65  1  0
 28 66  1  0
 32 67  1  0
 32 68  1  0
 33 69  1  0
 34 70  1  0
 35 71  1  0
 35 72  1  0
 36 73  1  0
 37 74  1  0
 37 75  1  0
 38 76  1  0
 38 77  1  0
 39 78  1  0
 39 79  1  0
 41 80  1  0
 41 81  1  0
 42 82  1  0
 42 83  1  0
M  END
$$$$
