
     RDKit          3D

 82 85  0  0  0  0  0  0  0  0999 V2000
   -2.7590    0.7233    1.3240 C   0  0  0  0  0  0  0  0  0  0  0  0
   -2.0999    0.4337   -0.0418 C   0  0  2  0  0  0  0  0  0  0  0  0
   -2.8885    1.0499   -1.2539 C   0  0  0  0  0  0  0  0  0  0  0  0
   -4.1447    1.7383   -0.8774 N   0  0  0  0  0  0  0  0  0  0  0  0
   -4.0731    3.2026   -0.6524 C   0  0  2  0  0  0  0  0  0  0  0  0
   -4.9795    3.6820    0.4953 C   0  0  0  0  0  0  0  0  0  0  0  0
   -4.3113    3.9902   -1.9543 C   0  0  0  0  0  0  0  0  0  0  0  0
   -5.6076    3.7935   -2.4521 O   0  0  0  0  0  0  0  0  0  0  0  0
   -5.4095    1.0180   -0.8826 C   0  0  0  0  0  0  0  0  0  0  0  0
   -6.5006    1.6457   -0.9323 O   0  0  0  0  0  0  0  0  0  0  0  0
   -5.4729   -0.4848   -0.8520 C   0  0  0  0  0  0  0  0  0  0  0  0
   -6.2287   -1.0173    0.3822 C   0  0  0  0  0  0  0  0  0  0  0  0
   -5.6669   -2.3547    0.9066 C   0  0  0  0  0  0  0  0  0  0  0  0
   -5.2684   -3.2374   -0.1917 N   0  0  0  0  0  0  0  0  0  0  0  0
   -6.1345   -3.8008   -1.0194 N   0  0  0  0  0  0  0  0  0  0  0  0
   -5.5007   -4.4729   -1.9691 N   0  0  0  0  0  0  0  0  0  0  0  0
   -4.1797   -4.3238   -1.7476 C   0  0  0  0  0  0  0  0  0  0  0  0
   -4.0236   -3.5262   -0.6339 C   0  0  0  0  0  0  0  0  0  0  0  0
   -2.7144   -3.2438    0.0569 C   0  0  0  0  0  0  0  0  0  0  0  0
   -2.6297   -1.9067    0.5335 O   0  0  0  0  0  0  0  0  0  0  0  0
   -1.7454   -1.0897   -0.2272 C   0  0  2  0  0  0  0  0  0  0  0  0
   -0.2296   -1.4020    0.0453 C   0  0  0  0  0  0  0  0  0  0  0  0
    0.2520   -1.3994    1.4500 N   0  0  0  0  0  0  0  0  0  0  0  0
   -0.4626   -2.2568    2.4026 C   0  0  0  0  0  0  0  0  0  0  0  0
    0.7113   -0.1107    2.0018 C   0  0  0  0  0  0  0  0  0  0  0  0
    2.0645    0.2341    1.4427 C   0  0  0  0  0  0  0  0  0  0  0  0
    3.1902   -0.5058    1.8310 C   0  0  0  0  0  0  0  0  0  0  0  0
    4.4482   -0.2119    1.2979 C   0  0  0  0  0  0  0  0  0  0  0  0
    4.6003    0.8215    0.3557 C   0  0  0  0  0  0  0  0  0  0  0  0
    5.9272    1.1447   -0.2198 C   0  0  0  0  0  0  0  0  0  0  0  0
    6.1617    2.3265   -0.5948 O   0  0  0  0  0  0  0  0  0  0  0  0
    6.9423    0.1346   -0.3566 N   0  0  0  0  0  0  0  0  0  0  0  0
    8.2638    0.4075   -0.8505 C   0  0  0  0  0  0  0  0  0  0  0  0
    8.4354    1.1223   -2.0493 C   0  0  0  0  0  0  0  0  0  0  0  0
    9.7144    1.3436   -2.5649 C   0  0  0  0  0  0  0  0  0  0  0  0
   10.8335    0.8438   -1.8983 C   0  0  0  0  0  0  0  0  0  0  0  0
   10.6776    0.1239   -0.7123 C   0  0  0  0  0  0  0  0  0  0  0  0
    9.3990   -0.1016   -0.1788 C   0  0  0  0  0  0  0  0  0  0  0  0
    9.2726   -0.8198    1.0560 N   0  0  0  0  0  0  0  0  0  0  0  0
    3.4707    1.5685   -0.0212 C   0  0  0  0  0  0  0  0  0  0  0  0
    2.2129    1.2737    0.5129 C   0  0  0  0  0  0  0  0  0  0  0  0
   -2.1952    0.2562    2.1514 H   0  0  0  0  0  0  0  0  0  0  0  0
   -3.7932    0.3298    1.3637 H   0  0  0  0  0  0  0  0  0  0  0  0
   -2.7741    1.8147    1.5190 H   0  0  0  0  0  0  0  0  0  0  0  0
   -1.1438    0.9970   -0.0348 H   0  0  0  0  0  0  0  0  0  0  0  0
   -3.0926    0.3166   -2.0614 H   0  0  0  0  0  0  0  0  0  0  0  0
   -2.2174    1.7764   -1.7651 H   0  0  0  0  0  0  0  0  0  0  0  0
   -3.0371    3.4531   -0.3281 H   0  0  0  0  0  0  0  0  0  0  0  0
   -4.9177    2.9834    1.3561 H   0  0  0  0  0  0  0  0  0  0  0  0
   -4.6484    4.6861    0.8381 H   0  0  0  0  0  0  0  0  0  0  0  0
   -6.0381    3.7728    0.1779 H   0  0  0  0  0  0  0  0  0  0  0  0
   -3.5482    3.7038   -2.7149 H   0  0  0  0  0  0  0  0  0  0  0  0
   -4.1739    5.0741   -1.7531 H   0  0  0  0  0  0  0  0  0  0  0  0
   -5.5630    3.0212   -3.0749 H   0  0  0  0  0  0  0  0  0  0  0  0
   -4.4607   -0.9042   -0.8675 H   0  0  0  0  0  0  0  0  0  0  0  0
   -5.9762   -0.8417   -1.7765 H   0  0  0  0  0  0  0  0  0  0  0  0
   -6.1932   -0.2797    1.2147 H   0  0  0  0  0  0  0  0  0  0  0  0
   -7.2989   -1.1534    0.1120 H   0  0  0  0  0  0  0  0  0  0  0  0
   -4.8131   -2.1643    1.5877 H   0  0  0  0  0  0  0  0  0  0  0  0
   -6.4473   -2.8606    1.5149 H   0  0  0  0  0  0  0  0  0  0  0  0
   -3.3991   -4.7831   -2.3395 H   0  0  0  0  0  0  0  0  0  0  0  0
   -2.6591   -3.9238    0.9313 H   0  0  0  0  0  0  0  0  0  0  0  0
   -1.8791   -3.5360   -0.6164 H   0  0  0  0  0  0  0  0  0  0  0  0
   -1.8804   -1.3222   -1.3087 H   0  0  0  0  0  0  0  0  0  0  0  0
    0.0143   -2.3958   -0.3837 H   0  0  0  0  0  0  0  0  0  0  0  0
    0.3866   -0.7023   -0.5602 H   0  0  0  0  0  0  0  0  0  0  0  0
   -1.4164   -1.7969    2.7258 H   0  0  0  0  0  0  0  0  0  0  0  0
   -0.6433   -3.2553    1.9576 H   0  0  0  0  0  0  0  0  0  0  0  0
    0.1661   -2.4239    3.3027 H   0  0  0  0  0  0  0  0  0  0  0  0
   -0.0093    0.7014    1.8095 H   0  0  0  0  0  0  0  0  0  0  0  0
    0.8099   -0.1685    3.1087 H   0  0  0  0  0  0  0  0  0  0  0  0
    3.0926   -1.3093    2.5507 H   0  0  0  0  0  0  0  0  0  0  0  0
    5.2996   -0.7800    1.6459 H   0  0  0  0  0  0  0  0  0  0  0  0
    6.7260   -0.8495   -0.0834 H   0  0  0  0  0  0  0  0  0  0  0  0
    7.5777    1.4867   -2.5997 H   0  0  0  0  0  0  0  0  0  0  0  0
    9.8371    1.8941   -3.4888 H   0  0  0  0  0  0  0  0  0  0  0  0
   11.8234    1.0115   -2.3029 H   0  0  0  0  0  0  0  0  0  0  0  0
   11.5553   -0.2567   -0.2045 H   0  0  0  0  0  0  0  0  0  0  0  0
    8.3577   -0.9161    1.5485 H   0  0  0  0  0  0  0  0  0  0  0  0
   10.1141   -1.2354    1.5155 H   0  0  0  0  0  0  0  0  0  0  0  0
    3.5573    2.3718   -0.7426 H   0  0  0  0  0  0  0  0  0  0  0  0
    1.3544    1.8523    0.1954 H   0  0  0  0  0  0  0  0  0  0  0  0
  1  2  1  0
  2  3  1  0
  3  4  1  0
  4  5  1  0
  5  6  1  0
  5  7  1  0
  7  8  1  0
  4  9  1  0
  9 10  2  0
  9 11  1  0
 11 12  1  0
 12 13  1  0
 13 14  1  0
 14 15  1  0
 15 16  2  0
 16 17  1  0
 17 18  2  0
 18 19  1  0
 19 20  1  0
 20 21  1  0
 21 22  1  0
 22 23  1  0
 23 24  1  0
 23 25  1  0
 25 26  1  0
 26 27  2  0
 27 28  1  0
 28 29  2  0
 29 30  1  0
 30 31  2  0
 30 32  1  0
 32 33  1  0
 33 34  2  0
 34 35  1  0
 35 36  2  0
 36 37  1  0
 37 38  2  0
 38 39  1  0
 29 40  1  0
 40 41  2  0
 21  2  1  0
 41 26  1  0
 18 14  1  0
 38 33  1  0
  1 42  1  0
  1 43  1  0
  1 44  1  0
  2 45  1  1
  3 46  1  0
  3 47  1  0
  5 48  1  1
  6 49  1  0
  6 50  1  0
  6 51  1  0
  7 52  1  0
  7 53  1  0
  8 54  1  0
 11 55  1  0
 11 56  1  0
 12 57  1  0
 12 58  1  0
 13 59  1  0
 13 60  1  0
 17 61  1  0
 19 62  1  0
 19 63  1  0
 21 64  1  6
 22 65  1  0
 22 66  1  0
 24 67  1  0
 24 68  1  0
 24 69  1  0
 25 70  1  0
 25 71  1  0
 27 72  1  0
 28 73  1  0
 32 74  1  0
 34 75  1  0
 35 76  1  0
 36 77  1  0
 37 78  1  0
 39 79  1  0
 39 80  1  0
 40 81  1  0
 41 82  1  0
M  END
$$$$
