
     RDKit          3D

 64 67  0  0  0  0  0  0  0  0999 V2000
   -1.3314   -4.4242   -0.7922 C   0  0  0  0  0  0  0  0  0  0  0  0
   -0.7108   -3.1893   -1.4444 C   0  0  0  0  0  0  0  0  0  0  0  0
   -1.1105   -1.9557   -0.7527 N   0  0  0  0  0  0  0  0  0  0  0  0
   -2.4762   -1.4456   -0.9585 C   0  0  0  0  0  0  0  0  0  0  0  0
   -2.4852   -0.1591   -1.8036 C   0  0  0  0  0  0  0  0  0  0  0  0
   -3.7595    0.4881   -1.7715 O   0  0  0  0  0  0  0  0  0  0  0  0
   -4.4394    0.8009   -0.5862 C   0  0  0  0  0  0  0  0  0  0  0  0
   -5.5094   -0.0247   -0.2135 C   0  0  0  0  0  0  0  0  0  0  0  0
   -6.2357    0.2321    0.9488 C   0  0  0  0  0  0  0  0  0  0  0  0
   -5.9149    1.3320    1.7415 C   0  0  0  0  0  0  0  0  0  0  0  0
   -4.8667    2.1779    1.3740 C   0  0  0  0  0  0  0  0  0  0  0  0
   -4.0998    1.9196    0.2204 C   0  0  0  0  0  0  0  0  0  0  0  0
   -3.0442    2.9273   -0.1874 C   0  0  0  0  0  0  0  0  0  0  0  0
   -1.9428    3.1482    0.8834 C   0  0  0  0  0  0  0  0  0  0  0  0
   -0.6672    2.3247    0.6406 C   0  0  0  0  0  0  0  0  0  0  0  0
   -0.8272    0.8459    1.0569 C   0  0  0  0  0  0  0  0  0  0  0  0
    0.2612   -0.1105    0.4653 C   0  0  0  0  0  0  0  0  0  0  0  0
    1.5069   -0.0416    1.3999 C   0  0  0  0  0  0  0  0  0  0  0  0
    2.7109   -0.5378    0.7371 N   0  0  0  0  0  0  0  0  0  0  0  0
    3.9564   -0.5437    1.4538 C   0  0  0  0  0  0  0  0  0  0  0  0
    3.9863   -0.9925    2.6319 O   0  0  0  0  0  0  0  0  0  0  0  0
    5.1957   -0.0082    0.8418 C   0  0  0  0  0  0  0  0  0  0  0  0
    5.1315    0.9077   -0.2249 C   0  0  0  0  0  0  0  0  0  0  0  0
    6.3033    1.4217   -0.7888 C   0  0  0  0  0  0  0  0  0  0  0  0
    6.2302    2.3056   -1.8136 F   0  0  0  0  0  0  0  0  0  0  0  0
    7.5491    1.0352   -0.2882 C   0  0  0  0  0  0  0  0  0  0  0  0
    7.6253    0.1364    0.7789 C   0  0  0  0  0  0  0  0  0  0  0  0
    8.8356   -0.2373    1.2636 F   0  0  0  0  0  0  0  0  0  0  0  0
    6.4554   -0.3802    1.3460 C   0  0  0  0  0  0  0  0  0  0  0  0
    2.5976   -1.2060   -0.5547 C   0  0  0  0  0  0  0  0  0  0  0  0
    1.6467   -0.4264   -1.4802 C   0  0  0  0  0  0  0  0  0  0  0  0
    0.6307    0.3373   -0.8354 O   0  0  0  0  0  0  0  0  0  0  0  0
   -0.3417   -1.5187    0.3926 C   0  0  0  0  0  0  0  0  0  0  0  0
   -0.1955   -2.3087    1.3648 O   0  0  0  0  0  0  0  0  0  0  0  0
   -2.4394   -4.3628   -0.8048 H   0  0  0  0  0  0  0  0  0  0  0  0
   -1.0238   -5.3315   -1.3535 H   0  0  0  0  0  0  0  0  0  0  0  0
   -0.9849   -4.5268    0.2564 H   0  0  0  0  0  0  0  0  0  0  0  0
    0.3933   -3.2977   -1.4341 H   0  0  0  0  0  0  0  0  0  0  0  0
   -1.0256   -3.1379   -2.5093 H   0  0  0  0  0  0  0  0  0  0  0  0
   -3.1000   -2.1967   -1.4900 H   0  0  0  0  0  0  0  0  0  0  0  0
   -2.9594   -1.2956    0.0290 H   0  0  0  0  0  0  0  0  0  0  0  0
   -1.7128    0.5531   -1.4822 H   0  0  0  0  0  0  0  0  0  0  0  0
   -2.2491   -0.4222   -2.8563 H   0  0  0  0  0  0  0  0  0  0  0  0
   -5.7726   -0.8761   -0.8285 H   0  0  0  0  0  0  0  0  0  0  0  0
   -7.0553   -0.4167    1.2299 H   0  0  0  0  0  0  0  0  0  0  0  0
   -6.4907    1.5411    2.6337 H   0  0  0  0  0  0  0  0  0  0  0  0
   -4.6674    3.0513    1.9832 H   0  0  0  0  0  0  0  0  0  0  0  0
   -2.5943    2.6771   -1.1698 H   0  0  0  0  0  0  0  0  0  0  0  0
   -3.5677    3.8948   -0.3478 H   0  0  0  0  0  0  0  0  0  0  0  0
   -2.3159    2.9680    1.9138 H   0  0  0  0  0  0  0  0  0  0  0  0
   -1.6496    4.2199    0.8433 H   0  0  0  0  0  0  0  0  0  0  0  0
    0.1581    2.7699    1.2363 H   0  0  0  0  0  0  0  0  0  0  0  0
   -0.3863    2.4325   -0.4274 H   0  0  0  0  0  0  0  0  0  0  0  0
   -1.8379    0.5126    0.7758 H   0  0  0  0  0  0  0  0  0  0  0  0
   -0.8226    0.7869    2.1683 H   0  0  0  0  0  0  0  0  0  0  0  0
    1.6984    1.0151    1.6854 H   0  0  0  0  0  0  0  0  0  0  0  0
    1.3322   -0.6037    2.3432 H   0  0  0  0  0  0  0  0  0  0  0  0
    4.1763    1.2395   -0.6112 H   0  0  0  0  0  0  0  0  0  0  0  0
    8.4553    1.4352   -0.7250 H   0  0  0  0  0  0  0  0  0  0  0  0
    6.5342   -1.0780    2.1705 H   0  0  0  0  0  0  0  0  0  0  0  0
    3.5900   -1.3081   -1.0451 H   0  0  0  0  0  0  0  0  0  0  0  0
    2.2158   -2.2343   -0.3902 H   0  0  0  0  0  0  0  0  0  0  0  0
    2.2578    0.2809   -2.0793 H   0  0  0  0  0  0  0  0  0  0  0  0
    1.1792   -1.1201   -2.2088 H   0  0  0  0  0  0  0  0  0  0  0  0
  1  2  1  0
  2  3  1  0
  3  4  1  0
  4  5  1  0
  5  6  1  0
  6  7  1  0
  7  8  2  0
  8  9  1  0
  9 10  2  0
 10 11  1  0
 11 12  2  0
 12 13  1  0
 13 14  1  0
 14 15  1  0
 15 16  1  0
 16 17  1  0
 17 18  1  0
 18 19  1  0
 19 20  1  0
 20 21  2  0
 20 22  1  0
 22 23  2  0
 23 24  1  0
 24 25  1  0
 24 26  2  0
 26 27  1  0
 27 28  1  0
 27 29  2  0
 19 30  1  0
 30 31  1  0
 31 32  1  0
 17 33  1  0
 33 34  2  0
 33  3  1  0
 12  7  1  0
 32 17  1  0
 29 22  1  0
  1 35  1  0
  1 36  1  0
  1 37  1  0
  2 38  1  0
  2 39  1  0
  4 40  1  0
  4 41  1  0
  5 42  1  0
  5 43  1  0
  8 44  1  0
  9 45  1  0
 10 46  1  0
 11 47  1  0
 13 48  1  0
 13 49  1  0
 14 50  1  0
 14 51  1  0
 15 52  1  0
 15 53  1  0
 16 54  1  0
 16 55  1  0
 18 56  1  0
 18 57  1  0
 23 58  1  0
 26 59  1  0
 29 60  1  0
 30 61  1  0
 30 62  1  0
 31 63  1  0
 31 64  1  0
M  END
$$$$
