
     RDKit          3D

 64 66  0  0  0  0  0  0  0  0999 V2000
    6.7707   -0.5518    1.0926 C   0  0  0  0  0  0  0  0  0  0  0  0
    5.5403    0.3555    0.9811 C   0  0  0  0  0  0  0  0  0  0  0  0
    5.9068    1.8086    1.2972 C   0  0  0  0  0  0  0  0  0  0  0  0
    4.9276    0.2548   -0.3960 C   0  0  0  0  0  0  0  0  0  0  0  0
    5.6576    0.4282   -1.4109 O   0  0  0  0  0  0  0  0  0  0  0  0
    3.5320   -0.0561   -0.5700 N   0  0  0  0  0  0  0  0  0  0  0  0
    3.1036   -0.7954   -1.7600 C   0  0  0  0  0  0  0  0  0  0  0  0
    1.8934   -1.6970   -1.4433 C   0  0  0  0  0  0  0  0  0  0  0  0
    0.7297   -0.9937   -0.6566 C   0  0  0  0  0  0  0  0  0  0  0  0
    1.3938   -0.3226    0.5842 C   0  0  0  0  0  0  0  0  0  0  0  0
    2.5044    0.6541    0.1955 C   0  0  0  0  0  0  0  0  0  0  0  0
   -0.0008    0.0026   -1.6569 C   0  0  0  0  0  0  0  0  0  0  0  0
   -0.7129    1.2874   -1.1099 C   0  0  0  0  0  0  0  0  0  0  0  0
   -0.3405    2.3915   -1.8990 O   0  0  0  0  0  0  0  0  0  0  0  0
   -2.2602    1.1290   -1.1282 C   0  0  0  0  0  0  0  0  0  0  0  0
   -2.7810    1.3331   -2.4202 O   0  0  0  0  0  0  0  0  0  0  0  0
   -3.0189    1.9786   -0.0710 C   0  0  0  0  0  0  0  0  0  0  0  0
   -4.2436    1.2241    0.4094 C   0  0  0  0  0  0  0  0  0  0  0  0
   -5.3946    1.2958   -0.3997 C   0  0  0  0  0  0  0  0  0  0  0  0
   -6.5531    0.5959   -0.0650 C   0  0  0  0  0  0  0  0  0  0  0  0
   -6.5852   -0.1908    1.0823 C   0  0  0  0  0  0  0  0  0  0  0  0
   -5.4571   -0.2835    1.8961 C   0  0  0  0  0  0  0  0  0  0  0  0
   -4.2730    0.3949    1.5746 C   0  0  0  0  0  0  0  0  0  0  0  0
   -3.2165    0.2545    2.4934 O   0  0  0  0  0  0  0  0  0  0  0  0
   -1.8651   -0.1081    2.2100 C   0  0  0  0  0  0  0  0  0  0  0  0
   -1.7341   -1.5137    1.7082 C   0  0  0  0  0  0  0  0  0  0  0  0
   -1.8390   -2.4690    2.5231 O   0  0  0  0  0  0  0  0  0  0  0  0
   -1.5479   -1.7926    0.3104 N   0  0  0  0  0  0  0  0  0  0  0  0
   -2.7010   -2.3926   -0.3715 C   0  0  0  0  0  0  0  0  0  0  0  0
   -0.2098   -2.1696   -0.1856 C   0  0  0  0  0  0  0  0  0  0  0  0
    6.4897   -1.6030    0.8672 H   0  0  0  0  0  0  0  0  0  0  0  0
    7.1783   -0.5164    2.1257 H   0  0  0  0  0  0  0  0  0  0  0  0
    7.5662   -0.2324    0.3854 H   0  0  0  0  0  0  0  0  0  0  0  0
    4.8084    0.0030    1.7395 H   0  0  0  0  0  0  0  0  0  0  0  0
    6.6760    2.1836    0.5877 H   0  0  0  0  0  0  0  0  0  0  0  0
    5.0081    2.4573    1.2248 H   0  0  0  0  0  0  0  0  0  0  0  0
    6.3062    1.8848    2.3311 H   0  0  0  0  0  0  0  0  0  0  0  0
    3.9292   -1.4477   -2.1214 H   0  0  0  0  0  0  0  0  0  0  0  0
    2.8763   -0.0813   -2.5776 H   0  0  0  0  0  0  0  0  0  0  0  0
    2.2785   -2.5562   -0.8479 H   0  0  0  0  0  0  0  0  0  0  0  0
    1.5094   -2.1185   -2.3990 H   0  0  0  0  0  0  0  0  0  0  0  0
    1.8564   -1.1090    1.2221 H   0  0  0  0  0  0  0  0  0  0  0  0
    0.6764    0.1833    1.2426 H   0  0  0  0  0  0  0  0  0  0  0  0
    2.0986    1.4865   -0.4170 H   0  0  0  0  0  0  0  0  0  0  0  0
    2.9212    1.1025    1.1202 H   0  0  0  0  0  0  0  0  0  0  0  0
    0.7384    0.3637   -2.3985 H   0  0  0  0  0  0  0  0  0  0  0  0
   -0.7053   -0.5840   -2.2877 H   0  0  0  0  0  0  0  0  0  0  0  0
   -0.3650    1.5001   -0.0886 H   0  0  0  0  0  0  0  0  0  0  0  0
   -0.6172    3.2093   -1.4070 H   0  0  0  0  0  0  0  0  0  0  0  0
   -2.4705    0.0850   -0.8892 H   0  0  0  0  0  0  0  0  0  0  0  0
   -2.7157    2.3009   -2.6287 H   0  0  0  0  0  0  0  0  0  0  0  0
   -3.3332    2.9446   -0.5232 H   0  0  0  0  0  0  0  0  0  0  0  0
   -2.3910    2.2911    0.7837 H   0  0  0  0  0  0  0  0  0  0  0  0
   -5.3937    1.8971   -1.3009 H   0  0  0  0  0  0  0  0  0  0  0  0
   -7.4282    0.6640   -0.6983 H   0  0  0  0  0  0  0  0  0  0  0  0
   -7.4867   -0.7298    1.3437 H   0  0  0  0  0  0  0  0  0  0  0  0
   -5.4988   -0.8970    2.7873 H   0  0  0  0  0  0  0  0  0  0  0  0
   -1.4200    0.5850    1.5108 H   0  0  0  0  0  0  0  0  0  0  0  0
   -1.2800   -0.0183    3.1489 H   0  0  0  0  0  0  0  0  0  0  0  0
   -2.6181   -2.2496   -1.4702 H   0  0  0  0  0  0  0  0  0  0  0  0
   -2.7436   -3.4805   -0.1516 H   0  0  0  0  0  0  0  0  0  0  0  0
   -3.6475   -1.9229   -0.0314 H   0  0  0  0  0  0  0  0  0  0  0  0
    0.3051   -2.7733    0.5952 H   0  0  0  0  0  0  0  0  0  0  0  0
   -0.3337   -2.8737   -1.0406 H   0  0  0  0  0  0  0  0  0  0  0  0
  1  2  1  0
  2  3  1  0
  2  4  1  0
  4  5  2  0
  4  6  1  0
  6  7  1  0
  7  8  1  0
  8  9  1  0
  9 10  1  0
 10 11  1  0
  9 12  1  0
 12 13  1  0
 13 14  1  0
 13 15  1  0
 15 16  1  0
 15 17  1  0
 17 18  1  0
 18 19  2  0
 19 20  1  0
 20 21  2  0
 21 22  1  0
 22 23  2  0
 23 24  1  0
 24 25  1  0
 25 26  1  0
 26 27  2  0
 26 28  1  0
 28 29  1  0
 28 30  1  0
 11  6  1  0
 23 18  1  0
 30  9  1  0
  1 31  1  0
  1 32  1  0
  1 33  1  0
  2 34  1  0
  3 35  1  0
  3 36  1  0
  3 37  1  0
  7 38  1  0
  7 39  1  0
  8 40  1  0
  8 41  1  0
 10 42  1  0
 10 43  1  0
 11 44  1  0
 11 45  1  0
 12 46  1  0
 12 47  1  0
 13 48  1  0
 14 49  1  0
 15 50  1  0
 16 51  1  0
 17 52  1  0
 17 53  1  0
 19 54  1  0
 20 55  1  0
 21 56  1  0
 22 57  1  0
 25 58  1  0
 25 59  1  0
 29 60  1  0
 29 61  1  0
 29 62  1  0
 30 63  1  0
 30 64  1  0
M  END
$$$$
