
     RDKit          3D

 75 76  0  0  0  0  0  0  0  0999 V2000
    2.3618   -3.5949   -0.4599 C   0  0  0  0  0  0  0  0  0  0  0  0
    1.9551   -2.5590    0.5957 C   0  0  2  0  0  0  0  0  0  0  0  0
    0.9053   -3.1286    1.5691 C   0  0  0  0  0  0  0  0  0  0  0  0
   -0.4067   -3.5243    0.8611 C   0  0  0  0  0  0  0  0  0  0  0  0
   -1.6302   -3.4414    1.7929 C   0  0  0  0  0  0  0  0  0  0  0  0
   -2.9395   -3.3168    0.9987 C   0  0  0  0  0  0  0  0  0  0  0  0
   -2.8987   -2.2112    0.1117 O   0  0  0  0  0  0  0  0  0  0  0  0
   -3.3000   -0.9964    0.7309 C   0  0  2  0  0  0  0  0  0  0  0  0
   -4.7698   -0.6876    0.3713 C   0  0  0  0  0  0  0  0  0  0  0  0
   -4.9398   -0.4536   -1.0818 N   0  0  0  0  0  0  0  0  0  0  0  0
   -5.4034   -1.6697   -1.7711 C   0  0  0  0  0  0  0  0  0  0  0  0
   -5.8868    0.6458   -1.3289 C   0  0  0  0  0  0  0  0  0  0  0  0
   -2.3341    0.1716    0.3273 C   0  0  2  0  0  0  0  0  0  0  0  0
   -1.7156   -0.0266   -1.0704 C   0  0  0  0  0  0  0  0  0  0  0  0
   -1.2310    0.3486    1.4046 C   0  0  0  0  0  0  0  0  0  0  0  0
   -0.2458    1.4023    1.0971 N   0  0  0  0  0  0  0  0  0  0  0  0
   -0.6899    2.8144    1.0284 C   0  0  2  0  0  0  0  0  0  0  0  0
   -0.1077    3.5425   -0.1903 C   0  0  0  0  0  0  0  0  0  0  0  0
   -0.4128    3.5698    2.3446 C   0  0  0  0  0  0  0  0  0  0  0  0
    0.9591    3.7769    2.5508 O   0  0  0  0  0  0  0  0  0  0  0  0
    1.1317    1.0954    1.3924 C   0  0  0  0  0  0  0  0  0  0  0  0
    1.4862    0.9093    2.5877 O   0  0  0  0  0  0  0  0  0  0  0  0
    2.1244    0.9307    0.3198 C   0  0  0  0  0  0  0  0  0  0  0  0
    3.0391    1.9603    0.0623 C   0  0  0  0  0  0  0  0  0  0  0  0
    3.9866    1.8424   -0.9649 C   0  0  0  0  0  0  0  0  0  0  0  0
    4.8832    2.9404   -1.2145 N   0  0  0  0  0  0  0  0  0  0  0  0
    6.2176    2.8917   -2.3240 S   0  0  0  0  0  6  0  0  0  0  0  0
    7.4129    1.6767   -1.8052 C   0  0  0  0  0  0  0  0  0  0  0  0
    5.7235    2.5894   -3.7104 O   0  0  0  0  0  0  0  0  0  0  0  0
    6.8840    4.2382   -2.3351 O   0  0  0  0  0  0  0  0  0  0  0  0
    4.0171    0.6625   -1.7281 C   0  0  0  0  0  0  0  0  0  0  0  0
    3.1552   -0.3947   -1.4288 C   0  0  0  0  0  0  0  0  0  0  0  0
    2.2336   -0.2836   -0.3798 C   0  0  0  0  0  0  0  0  0  0  0  0
    1.4337   -1.3730   -0.0189 O   0  0  0  0  0  0  0  0  0  0  0  0
    2.5376   -4.5845    0.0141 H   0  0  0  0  0  0  0  0  0  0  0  0
    1.5678   -3.6987   -1.2312 H   0  0  0  0  0  0  0  0  0  0  0  0
    3.3072   -3.2922   -0.9543 H   0  0  0  0  0  0  0  0  0  0  0  0
    2.8559   -2.2992    1.1964 H   0  0  0  0  0  0  0  0  0  0  0  0
    1.3184   -4.0143    2.1001 H   0  0  0  0  0  0  0  0  0  0  0  0
    0.7174   -2.3516    2.3417 H   0  0  0  0  0  0  0  0  0  0  0  0
   -0.3157   -4.5614    0.4669 H   0  0  0  0  0  0  0  0  0  0  0  0
   -0.5601   -2.8671   -0.0157 H   0  0  0  0  0  0  0  0  0  0  0  0
   -1.5516   -2.5721    2.4768 H   0  0  0  0  0  0  0  0  0  0  0  0
   -1.6702   -4.3548    2.4244 H   0  0  0  0  0  0  0  0  0  0  0  0
   -3.0664   -4.2375    0.3908 H   0  0  0  0  0  0  0  0  0  0  0  0
   -3.8143   -3.2785    1.6890 H   0  0  0  0  0  0  0  0  0  0  0  0
   -3.2858   -1.0679    1.8460 H   0  0  0  0  0  0  0  0  0  0  0  0
   -5.0699    0.2068    0.9651 H   0  0  0  0  0  0  0  0  0  0  0  0
   -5.4211   -1.5161    0.7322 H   0  0  0  0  0  0  0  0  0  0  0  0
   -4.6673   -2.4906   -1.6484 H   0  0  0  0  0  0  0  0  0  0  0  0
   -5.4946   -1.4803   -2.8628 H   0  0  0  0  0  0  0  0  0  0  0  0
   -6.3911   -2.0062   -1.3789 H   0  0  0  0  0  0  0  0  0  0  0  0
   -6.0057    0.8144   -2.4212 H   0  0  0  0  0  0  0  0  0  0  0  0
   -6.8831    0.4266   -0.8821 H   0  0  0  0  0  0  0  0  0  0  0  0
   -5.4925    1.5919   -0.8979 H   0  0  0  0  0  0  0  0  0  0  0  0
   -2.9300    1.1066    0.2921 H   0  0  0  0  0  0  0  0  0  0  0  0
   -1.1731    0.8838   -1.3876 H   0  0  0  0  0  0  0  0  0  0  0  0
   -2.4993   -0.2271   -1.8279 H   0  0  0  0  0  0  0  0  0  0  0  0
   -0.9981   -0.8691   -1.0733 H   0  0  0  0  0  0  0  0  0  0  0  0
   -0.7117   -0.6237    1.5193 H   0  0  0  0  0  0  0  0  0  0  0  0
   -1.7044    0.5824    2.3842 H   0  0  0  0  0  0  0  0  0  0  0  0
   -1.7903    2.8490    0.8994 H   0  0  0  0  0  0  0  0  0  0  0  0
   -0.5831    4.5419   -0.2931 H   0  0  0  0  0  0  0  0  0  0  0  0
   -0.3049    2.9719   -1.1198 H   0  0  0  0  0  0  0  0  0  0  0  0
    0.9826    3.6939   -0.0955 H   0  0  0  0  0  0  0  0  0  0  0  0
   -0.8143    2.9777    3.1946 H   0  0  0  0  0  0  0  0  0  0  0  0
   -0.9590    4.5417    2.3424 H   0  0  0  0  0  0  0  0  0  0  0  0
    1.1861    4.6541    2.1457 H   0  0  0  0  0  0  0  0  0  0  0  0
    3.0142    2.8628    0.6615 H   0  0  0  0  0  0  0  0  0  0  0  0
    4.7708    3.8176   -0.6583 H   0  0  0  0  0  0  0  0  0  0  0  0
    8.2982    1.7229   -2.4727 H   0  0  0  0  0  0  0  0  0  0  0  0
    7.7257    1.8891   -0.7622 H   0  0  0  0  0  0  0  0  0  0  0  0
    6.9743    0.6607   -1.8536 H   0  0  0  0  0  0  0  0  0  0  0  0
    4.7025    0.5430   -2.5528 H   0  0  0  0  0  0  0  0  0  0  0  0
    3.2002   -1.2936   -2.0274 H   0  0  0  0  0  0  0  0  0  0  0  0
  1  2  1  0
  2  3  1  0
  3  4  1  0
  4  5  1  0
  5  6  1  0
  6  7  1  0
  7  8  1  0
  8  9  1  0
  9 10  1  0
 10 11  1  0
 10 12  1  0
  8 13  1  0
 13 14  1  0
 13 15  1  0
 15 16  1  0
 16 17  1  0
 17 18  1  0
 17 19  1  0
 19 20  1  0
 16 21  1  0
 21 22  2  0
 21 23  1  0
 23 24  2  0
 24 25  1  0
 25 26  1  0
 26 27  1  0
 27 28  1  0
 27 29  2  0
 27 30  2  0
 25 31  2  0
 31 32  1  0
 32 33  2  0
 33 34  1  0
 34  2  1  0
 33 23  1  0
  1 35  1  0
  1 36  1  0
  1 37  1  0
  2 38  1  1
  3 39  1  0
  3 40  1  0
  4 41  1  0
  4 42  1  0
  5 43  1  0
  5 44  1  0
  6 45  1  0
  6 46  1  0
  8 47  1  1
  9 48  1  0
  9 49  1  0
 11 50  1  0
 11 51  1  0
 11 52  1  0
 12 53  1  0
 12 54  1  0
 12 55  1  0
 13 56  1  6
 14 57  1  0
 14 58  1  0
 14 59  1  0
 15 60  1  0
 15 61  1  0
 17 62  1  6
 18 63  1  0
 18 64  1  0
 18 65  1  0
 19 66  1  0
 19 67  1  0
 20 68  1  0
 24 69  1  0
 26 70  1  0
 28 71  1  0
 28 72  1  0
 28 73  1  0
 31 74  1  0
 32 75  1  0
M  END
$$$$
