
     RDKit          3D

 96 98  0  0  0  0  0  0  0  0999 V2000
   -0.3703    6.6281   -0.2679 C   0  0  0  0  0  0  0  0  0  0  0  0
    0.5080    5.8237   -1.2412 C   0  0  0  0  0  0  0  0  0  0  0  0
    1.0546    6.7599   -2.3267 C   0  0  0  0  0  0  0  0  0  0  0  0
   -0.2748    4.6422   -1.8840 C   0  0  0  0  0  0  0  0  0  0  0  0
   -0.1454    3.2978   -1.1216 C   0  0  2  0  0  0  0  0  0  0  0  0
   -0.5498    3.4898    0.2915 N   0  0  0  0  0  0  0  0  0  0  0  0
   -1.7298    2.7038    0.6825 C   0  0  0  0  0  0  0  0  0  0  0  0
   -3.0204    3.4670    0.3486 C   0  0  0  0  0  0  0  0  0  0  0  0
   -4.2721    2.5744    0.3653 C   0  0  0  0  0  0  0  0  0  0  0  0
   -4.7606    2.1976    1.7727 C   0  0  0  0  0  0  0  0  0  0  0  0
   -3.8361    1.3001    2.4698 N   0  0  0  0  0  0  0  0  0  0  0  0
   -3.8248   -0.1318    2.3368 C   0  0  0  0  0  0  0  0  0  0  0  0
   -3.3910   -0.8158    3.3022 O   0  0  0  0  0  0  0  0  0  0  0  0
   -4.2744   -0.8326    1.0736 C   0  0  2  0  0  0  0  0  0  0  0  0
   -4.9228   -2.2059    1.3756 C   0  0  0  0  0  0  0  0  0  0  0  0
   -5.5660   -2.8279    0.1581 C   0  0  0  0  0  0  0  0  0  0  0  0
   -6.6585   -2.2034   -0.4695 C   0  0  0  0  0  0  0  0  0  0  0  0
   -7.2567   -2.7873   -1.5912 C   0  0  0  0  0  0  0  0  0  0  0  0
   -6.7832   -4.0056   -2.0839 C   0  0  0  0  0  0  0  0  0  0  0  0
   -5.7158   -4.6469   -1.4500 C   0  0  0  0  0  0  0  0  0  0  0  0
   -5.1125   -4.0653   -0.3311 C   0  0  0  0  0  0  0  0  0  0  0  0
   -3.1672   -0.9217    0.1055 N   0  0  0  0  0  0  0  0  0  0  0  0
   -2.2230   -2.0002    0.0255 C   0  0  0  0  0  0  0  0  0  0  0  0
   -2.3789   -2.8767   -0.8648 O   0  0  0  0  0  0  0  0  0  0  0  0
   -0.9847   -2.0642    0.8805 C   0  0  2  0  0  0  0  0  0  0  0  0
   -1.1505   -3.0466    2.0403 C   0  0  0  0  0  0  0  0  0  0  0  0
   -0.5934   -0.7403    1.3701 N   0  0  0  0  0  0  0  0  0  0  0  0
    0.6421   -0.1238    0.9859 C   0  0  0  0  0  0  0  0  0  0  0  0
    1.5085    0.1086    1.8714 O   0  0  0  0  0  0  0  0  0  0  0  0
    0.8927    0.3111   -0.4406 C   0  0  2  0  0  0  0  0  0  0  0  0
    1.6365   -0.7498   -1.2820 C   0  0  0  0  0  0  0  0  0  0  0  0
    2.9760   -1.1516   -0.7083 C   0  0  0  0  0  0  0  0  0  0  0  0
    4.1428   -0.4640   -1.0837 C   0  0  0  0  0  0  0  0  0  0  0  0
    5.3793   -0.8231   -0.5409 C   0  0  0  0  0  0  0  0  0  0  0  0
    5.4687   -1.8858    0.3660 C   0  0  0  0  0  0  0  0  0  0  0  0
    6.7052   -2.2429    0.9160 O   0  0  0  0  0  0  0  0  0  0  0  0
    7.6158   -3.1733    0.3133 C   0  0  0  0  0  0  0  0  0  0  0  0
    8.0722   -2.6630   -1.0661 C   0  0  0  0  0  0  0  0  0  0  0  0
    6.9523   -4.5558    0.1721 C   0  0  0  0  0  0  0  0  0  0  0  0
    8.8377   -3.2918    1.2356 C   0  0  0  0  0  0  0  0  0  0  0  0
    4.3090   -2.5674    0.7518 C   0  0  0  0  0  0  0  0  0  0  0  0
    3.0693   -2.2053    0.2167 C   0  0  0  0  0  0  0  0  0  0  0  0
    1.6431    1.5714   -0.4491 N   0  0  0  0  0  0  0  0  0  0  0  0
    1.2587    2.7131   -1.2236 C   0  0  0  0  0  0  0  0  0  0  0  0
    2.1223    3.2515   -1.9684 O   0  0  0  0  0  0  0  0  0  0  0  0
   -0.7487    5.9896    0.5543 H   0  0  0  0  0  0  0  0  0  0  0  0
   -1.2391    7.0711   -0.8016 H   0  0  0  0  0  0  0  0  0  0  0  0
    0.2220    7.4488    0.1906 H   0  0  0  0  0  0  0  0  0  0  0  0
    1.3810    5.4356   -0.6714 H   0  0  0  0  0  0  0  0  0  0  0  0
    0.2222    7.1867   -2.9295 H   0  0  0  0  0  0  0  0  0  0  0  0
    1.6299    7.5918   -1.8652 H   0  0  0  0  0  0  0  0  0  0  0  0
    1.7425    6.2051   -3.0026 H   0  0  0  0  0  0  0  0  0  0  0  0
   -1.3480    4.9135   -1.9811 H   0  0  0  0  0  0  0  0  0  0  0  0
    0.0700    4.4720   -2.9298 H   0  0  0  0  0  0  0  0  0  0  0  0
   -0.8231    2.5868   -1.6468 H   0  0  0  0  0  0  0  0  0  0  0  0
    0.2348    3.2700    0.9499 H   0  0  0  0  0  0  0  0  0  0  0  0
   -1.7235    1.7002    0.2068 H   0  0  0  0  0  0  0  0  0  0  0  0
   -1.6943    2.5417    1.7800 H   0  0  0  0  0  0  0  0  0  0  0  0
   -2.9385    3.8864   -0.6765 H   0  0  0  0  0  0  0  0  0  0  0  0
   -3.1468    4.3236    1.0468 H   0  0  0  0  0  0  0  0  0  0  0  0
   -4.1033    1.6788   -0.2598 H   0  0  0  0  0  0  0  0  0  0  0  0
   -5.0937    3.1408   -0.1257 H   0  0  0  0  0  0  0  0  0  0  0  0
   -5.7656    1.7279    1.7125 H   0  0  0  0  0  0  0  0  0  0  0  0
   -4.8802    3.1286    2.3671 H   0  0  0  0  0  0  0  0  0  0  0  0
   -3.3406    1.6967    3.3003 H   0  0  0  0  0  0  0  0  0  0  0  0
   -5.0723   -0.2107    0.6235 H   0  0  0  0  0  0  0  0  0  0  0  0
   -4.1690   -2.8950    1.8126 H   0  0  0  0  0  0  0  0  0  0  0  0
   -5.7136   -2.0713    2.1470 H   0  0  0  0  0  0  0  0  0  0  0  0
   -7.0521   -1.2687   -0.0904 H   0  0  0  0  0  0  0  0  0  0  0  0
   -8.0913   -2.2971   -2.0751 H   0  0  0  0  0  0  0  0  0  0  0  0
   -7.2485   -4.4564   -2.9514 H   0  0  0  0  0  0  0  0  0  0  0  0
   -5.3578   -5.5974   -1.8242 H   0  0  0  0  0  0  0  0  0  0  0  0
   -4.2921   -4.5822    0.1528 H   0  0  0  0  0  0  0  0  0  0  0  0
   -3.2801   -0.3753   -0.7772 H   0  0  0  0  0  0  0  0  0  0  0  0
   -0.1720   -2.4769    0.2525 H   0  0  0  0  0  0  0  0  0  0  0  0
   -0.1997   -3.1155    2.6099 H   0  0  0  0  0  0  0  0  0  0  0  0
   -1.9477   -2.7257    2.7344 H   0  0  0  0  0  0  0  0  0  0  0  0
   -1.4016   -4.0574    1.6545 H   0  0  0  0  0  0  0  0  0  0  0  0
   -1.0572   -0.3706    2.2287 H   0  0  0  0  0  0  0  0  0  0  0  0
   -0.0946    0.4656   -0.9223 H   0  0  0  0  0  0  0  0  0  0  0  0
    1.7855   -0.3415   -2.3054 H   0  0  0  0  0  0  0  0  0  0  0  0
    1.0011   -1.6470   -1.4213 H   0  0  0  0  0  0  0  0  0  0  0  0
    4.0936    0.3551   -1.7909 H   0  0  0  0  0  0  0  0  0  0  0  0
    6.2680   -0.2757   -0.8253 H   0  0  0  0  0  0  0  0  0  0  0  0
    8.5003   -1.6418   -0.9754 H   0  0  0  0  0  0  0  0  0  0  0  0
    8.8457   -3.3346   -1.4968 H   0  0  0  0  0  0  0  0  0  0  0  0
    7.2178   -2.6259   -1.7747 H   0  0  0  0  0  0  0  0  0  0  0  0
    6.0867   -4.5070   -0.5226 H   0  0  0  0  0  0  0  0  0  0  0  0
    7.6748   -5.2993   -0.2283 H   0  0  0  0  0  0  0  0  0  0  0  0
    6.5879   -4.9099    1.1599 H   0  0  0  0  0  0  0  0  0  0  0  0
    9.5816   -4.0067    0.8202 H   0  0  0  0  0  0  0  0  0  0  0  0
    9.3264   -2.3004    1.3552 H   0  0  0  0  0  0  0  0  0  0  0  0
    8.5267   -3.6465    2.2424 H   0  0  0  0  0  0  0  0  0  0  0  0
    4.3697   -3.3802    1.4640 H   0  0  0  0  0  0  0  0  0  0  0  0
    2.1847   -2.7455    0.5260 H   0  0  0  0  0  0  0  0  0  0  0  0
    2.6099    1.5752   -0.0537 H   0  0  0  0  0  0  0  0  0  0  0  0
  1  2  1  0
  2  3  1  0
  2  4  1  0
  4  5  1  0
  5  6  1  0
  6  7  1  0
  7  8  1  0
  8  9  1  0
  9 10  1  0
 10 11  1  0
 11 12  1  0
 12 13  2  0
 12 14  1  0
 14 15  1  0
 15 16  1  0
 16 17  2  0
 17 18  1  0
 18 19  2  0
 19 20  1  0
 20 21  2  0
 14 22  1  0
 22 23  1  0
 23 24  2  0
 23 25  1  0
 25 26  1  0
 25 27  1  0
 27 28  1  0
 28 29  2  0
 28 30  1  0
 30 31  1  0
 31 32  1  0
 32 33  2  0
 33 34  1  0
 34 35  2  0
 35 36  1  0
 36 37  1  0
 37 38  1  0
 37 39  1  0
 37 40  1  0
 35 41  1  0
 41 42  2  0
 30 43  1  0
 43 44  1  0
 44 45  2  0
 44  5  1  0
 21 16  1  0
 42 32  1  0
  1 46  1  0
  1 47  1  0
  1 48  1  0
  2 49  1  0
  3 50  1  0
  3 51  1  0
  3 52  1  0
  4 53  1  0
  4 54  1  0
  5 55  1  6
  6 56  1  0
  7 57  1  0
  7 58  1  0
  8 59  1  0
  8 60  1  0
  9 61  1  0
  9 62  1  0
 10 63  1  0
 10 64  1  0
 11 65  1  0
 14 66  1  6
 15 67  1  0
 15 68  1  0
 17 69  1  0
 18 70  1  0
 19 71  1  0
 20 72  1  0
 21 73  1  0
 22 74  1  0
 25 75  1  6
 26 76  1  0
 26 77  1  0
 26 78  1  0
 27 79  1  0
 30 80  1  6
 31 81  1  0
 31 82  1  0
 33 83  1  0
 34 84  1  0
 38 85  1  0
 38 86  1  0
 38 87  1  0
 39 88  1  0
 39 89  1  0
 39 90  1  0
 40 91  1  0
 40 92  1  0
 40 93  1  0
 41 94  1  0
 42 95  1  0
 43 96  1  0
M  END
$$$$
