
     RDKit          3D

141147  0  0  0  0  0  0  0  0999 V2000
   -5.7544    6.8716    2.1426 C   0  0  0  0  0  0  0  0  0  0  0  0
   -6.4250    5.8531    1.2255 C   0  0  0  0  0  0  0  0  0  0  0  0
   -5.5558    5.4701    0.0032 C   0  0  2  0  0  0  0  0  0  0  0  0
   -5.3474    6.6573   -0.9625 C   0  0  0  0  0  0  0  0  0  0  0  0
   -6.0437    4.1631   -0.6991 C   0  0  1  0  0  0  0  0  0  0  0  0
   -5.7360    3.0892    0.1839 O   0  0  0  0  0  0  0  0  0  0  0  0
   -5.9254    1.7907   -0.3723 C   0  0  2  0  0  0  0  0  0  0  0  0
   -7.1654    1.6865   -1.2474 C   0  0  0  0  0  0  0  0  0  0  0  0
   -7.8878    2.7545   -1.5868 C   0  0  0  0  0  0  0  0  0  0  0  0
   -7.5653    4.1162   -1.0351 C   0  0  2  0  0  0  0  0  0  0  0  0
   -8.0257    5.1975   -2.0246 C   0  0  0  0  0  0  0  0  0  0  0  0
   -6.1249    0.8192    0.8221 C   0  0  0  0  0  0  0  0  0  0  0  0
   -5.2187   -0.4052    0.7516 C   0  0  2  0  0  0  0  0  0  0  0  0
   -3.7637    0.0220    0.5240 C   0  0  0  0  0  0  0  0  0  0  0  0
   -3.6163    1.2072   -0.4773 C   0  0  1  0  0  0  0  0  0  0  0  0
   -2.5117    0.9599   -1.5367 C   0  0  0  0  0  0  0  0  0  0  0  0
   -1.2225    0.3449   -1.0223 C   0  0  0  0  0  0  0  0  0  0  0  0
   -0.2802   -0.1684   -1.8569 C   0  0  0  0  0  0  0  0  0  0  0  0
   -0.3900    0.0081   -3.3542 C   0  0  0  0  0  0  0  0  0  0  0  0
    0.7915   -1.1306   -1.3372 C   0  0  1  0  0  0  0  0  0  0  0  0
    1.0386   -0.9078    0.0505 O   0  0  0  0  0  0  0  0  0  0  0  0
    2.3720   -0.4854    0.2872 C   0  0  1  0  0  0  0  0  0  0  0  0
    2.4524    0.2270    1.6445 C   0  0  0  0  0  0  0  0  0  0  0  0
    3.8933    0.2199    2.2074 C   0  0  2  0  0  0  0  0  0  0  0  0
    4.1453    1.4460    2.8768 O   0  0  0  0  0  0  0  0  0  0  0  0
    4.1263    1.2651    4.2753 C   0  0  0  0  0  0  0  0  0  0  0  0
    4.9360    0.0389    1.0874 C   0  0  1  0  0  0  0  0  0  0  0  0
    6.2171   -0.0844    1.6992 O   0  0  0  0  0  0  0  0  0  0  0  0
    7.1767    0.8149    1.1658 C   0  0  1  0  0  0  0  0  0  0  0  0
    8.2012    1.1471    2.2806 C   0  0  0  0  0  0  0  0  0  0  0  0
    9.5927    0.5621    2.0275 C   0  0  2  0  0  0  0  0  0  0  0  0
   10.4942    1.1334    2.9667 O   0  0  0  0  0  0  0  0  0  0  0  0
   10.8336    0.2026    3.9710 C   0  0  0  0  0  0  0  0  0  0  0  0
   10.0235    0.8772    0.6119 C   0  0  0  0  0  0  0  0  0  0  0  0
   11.3340    1.0748    0.3239 C   0  0  0  0  0  0  0  0  0  0  0  0
   11.9110    1.2105   -1.0250 C   0  0  0  0  0  0  0  0  0  0  0  0
   11.5971    0.3758   -1.9699 N   0  0  0  0  0  0  0  0  0  0  0  0
   12.1810    0.3403   -3.2262 O   0  0  0  0  0  0  0  0  0  0  0  0
   13.2764    1.1600   -3.6095 C   0  0  0  0  0  0  0  0  0  0  0  0
    8.9322    0.8635   -0.4459 C   0  0  2  0  0  0  0  0  0  0  0  0
    8.6329    2.2722   -0.9860 C   0  0  0  0  0  0  0  0  0  0  0  0
    7.7663    0.2054    0.0257 O   0  0  0  0  0  0  0  0  0  0  0  0
    4.6014   -1.2502    0.2698 C   0  0  2  0  0  0  0  0  0  0  0  0
    5.0768   -1.1729   -1.1874 C   0  0  0  0  0  0  0  0  0  0  0  0
    3.2249   -1.6164    0.2997 O   0  0  0  0  0  0  0  0  0  0  0  0
    0.3530   -2.6075   -1.5939 C   0  0  1  0  0  0  0  0  0  0  0  0
    1.3477   -3.6183   -1.0222 C   0  0  0  0  0  0  0  0  0  0  0  0
   -1.0205   -2.9010   -1.0423 C   0  0  0  0  0  0  0  0  0  0  0  0
   -2.0739   -3.0775   -1.8492 C   0  0  0  0  0  0  0  0  0  0  0  0
   -3.4306   -3.2114   -1.2976 C   0  0  0  0  0  0  0  0  0  0  0  0
   -3.7723   -4.1602   -0.4081 C   0  0  0  0  0  0  0  0  0  0  0  0
   -2.9765   -5.3853   -0.1679 C   0  0  0  0  0  0  0  0  0  0  0  0
   -3.6828   -6.2066    0.7301 O   0  0  0  0  0  0  0  0  0  0  0  0
   -4.9775   -5.6621    0.9048 C   0  0  2  0  0  0  0  0  0  0  0  0
   -6.0154   -6.5427    0.1846 C   0  0  2  0  0  0  0  0  0  0  0  0
   -5.7233   -6.6448   -1.1866 O   0  0  0  0  0  0  0  0  0  0  0  0
   -7.3738   -5.9119    0.3521 C   0  0  0  0  0  0  0  0  0  0  0  0
   -8.5417   -6.7189    0.8420 C   0  0  0  0  0  0  0  0  0  0  0  0
   -7.5058   -4.5896    0.1576 C   0  0  0  0  0  0  0  0  0  0  0  0
   -6.3209   -3.7454   -0.2968 C   0  0  1  0  0  0  0  0  0  0  0  0
   -6.6304   -2.2519   -0.1416 C   0  0  0  0  0  0  0  0  0  0  0  0
   -7.8192   -1.8439   -0.0152 O   0  0  0  0  0  0  0  0  0  0  0  0
   -5.6094   -1.3061   -0.2865 O   0  0  0  0  0  0  0  0  0  0  0  0
   -4.9959   -4.1768    0.4494 C   0  0  2  0  0  0  0  0  0  0  0  0
   -4.8231   -3.3667    1.5904 O   0  0  0  0  0  0  0  0  0  0  0  0
   -4.8194    1.4308   -1.1948 O   0  0  0  0  0  0  0  0  0  0  0  0
   -5.6512    7.8529    1.6303 H   0  0  0  0  0  0  0  0  0  0  0  0
   -6.3866    7.0249    3.0412 H   0  0  0  0  0  0  0  0  0  0  0  0
   -4.7536    6.5116    2.4679 H   0  0  0  0  0  0  0  0  0  0  0  0
   -7.4067    6.2646    0.8909 H   0  0  0  0  0  0  0  0  0  0  0  0
   -6.6246    4.9418    1.8338 H   0  0  0  0  0  0  0  0  0  0  0  0
   -4.5349    5.2303    0.3885 H   0  0  0  0  0  0  0  0  0  0  0  0
   -4.9011    6.3100   -1.9167 H   0  0  0  0  0  0  0  0  0  0  0  0
   -4.6412    7.3754   -0.5083 H   0  0  0  0  0  0  0  0  0  0  0  0
   -6.2858    7.2011   -1.1673 H   0  0  0  0  0  0  0  0  0  0  0  0
   -5.4499    4.0369   -1.6361 H   0  0  0  0  0  0  0  0  0  0  0  0
   -7.4349    0.7180   -1.6682 H   0  0  0  0  0  0  0  0  0  0  0  0
   -8.7541    2.6143   -2.2309 H   0  0  0  0  0  0  0  0  0  0  0  0
   -8.1582    4.2177   -0.0994 H   0  0  0  0  0  0  0  0  0  0  0  0
   -9.0153    4.9391   -2.4656 H   0  0  0  0  0  0  0  0  0  0  0  0
   -8.1766    6.1581   -1.4945 H   0  0  0  0  0  0  0  0  0  0  0  0
   -7.2900    5.3219   -2.8464 H   0  0  0  0  0  0  0  0  0  0  0  0
   -7.1789    0.4860    0.9276 H   0  0  0  0  0  0  0  0  0  0  0  0
   -5.8937    1.3444    1.7769 H   0  0  0  0  0  0  0  0  0  0  0  0
   -5.2707   -0.9332    1.7281 H   0  0  0  0  0  0  0  0  0  0  0  0
   -3.1939   -0.8760    0.1992 H   0  0  0  0  0  0  0  0  0  0  0  0
   -3.3187    0.3361    1.4928 H   0  0  0  0  0  0  0  0  0  0  0  0
   -3.3452    2.1283    0.0848 H   0  0  0  0  0  0  0  0  0  0  0  0
   -2.9472    0.2753   -2.2989 H   0  0  0  0  0  0  0  0  0  0  0  0
   -2.2812    1.9188   -2.0470 H   0  0  0  0  0  0  0  0  0  0  0  0
   -1.1086    0.2383    0.0480 H   0  0  0  0  0  0  0  0  0  0  0  0
   -0.3953    1.0888   -3.6047 H   0  0  0  0  0  0  0  0  0  0  0  0
   -1.3133   -0.4661   -3.7402 H   0  0  0  0  0  0  0  0  0  0  0  0
    0.4708   -0.4597   -3.8767 H   0  0  0  0  0  0  0  0  0  0  0  0
    1.7042   -0.9788   -1.9681 H   0  0  0  0  0  0  0  0  0  0  0  0
    2.6881    0.2595   -0.4815 H   0  0  0  0  0  0  0  0  0  0  0  0
    2.0881    1.2704    1.5263 H   0  0  0  0  0  0  0  0  0  0  0  0
    1.7805   -0.2756    2.3718 H   0  0  0  0  0  0  0  0  0  0  0  0
    3.9932   -0.6774    2.8729 H   0  0  0  0  0  0  0  0  0  0  0  0
    3.1499    0.8553    4.6137 H   0  0  0  0  0  0  0  0  0  0  0  0
    4.2723    2.2496    4.7645 H   0  0  0  0  0  0  0  0  0  0  0  0
    4.9625    0.6048    4.5944 H   0  0  0  0  0  0  0  0  0  0  0  0
    4.8390    0.9186    0.4082 H   0  0  0  0  0  0  0  0  0  0  0  0
    6.7098    1.7852    0.8756 H   0  0  0  0  0  0  0  0  0  0  0  0
    8.2980    2.2550    2.3614 H   0  0  0  0  0  0  0  0  0  0  0  0
    7.8311    0.7950    3.2691 H   0  0  0  0  0  0  0  0  0  0  0  0
    9.5269   -0.5520    2.0951 H   0  0  0  0  0  0  0  0  0  0  0  0
   11.4674    0.7104    4.7250 H   0  0  0  0  0  0  0  0  0  0  0  0
    9.9258   -0.1769    4.4888 H   0  0  0  0  0  0  0  0  0  0  0  0
   11.4209   -0.6405    3.5436 H   0  0  0  0  0  0  0  0  0  0  0  0
   12.0517    1.1464    1.1311 H   0  0  0  0  0  0  0  0  0  0  0  0
   12.6885    1.9407   -1.1709 H   0  0  0  0  0  0  0  0  0  0  0  0
   14.1117    1.0438   -2.8881 H   0  0  0  0  0  0  0  0  0  0  0  0
   13.6264    0.8481   -4.6121 H   0  0  0  0  0  0  0  0  0  0  0  0
   12.9521    2.2230   -3.6577 H   0  0  0  0  0  0  0  0  0  0  0  0
    9.2711    0.2531   -1.3014 H   0  0  0  0  0  0  0  0  0  0  0  0
    7.7400    2.2363   -1.6466 H   0  0  0  0  0  0  0  0  0  0  0  0
    8.4461    2.9934   -0.1614 H   0  0  0  0  0  0  0  0  0  0  0  0
    9.4929    2.6426   -1.5818 H   0  0  0  0  0  0  0  0  0  0  0  0
    5.1501   -2.0943    0.7445 H   0  0  0  0  0  0  0  0  0  0  0  0
    4.6800   -0.2652   -1.6847 H   0  0  0  0  0  0  0  0  0  0  0  0
    4.7160   -2.0600   -1.7433 H   0  0  0  0  0  0  0  0  0  0  0  0
    6.1794   -1.1723   -1.2427 H   0  0  0  0  0  0  0  0  0  0  0  0
    0.3481   -2.7628   -2.6957 H   0  0  0  0  0  0  0  0  0  0  0  0
    1.3968   -3.5443    0.0873 H   0  0  0  0  0  0  0  0  0  0  0  0
    2.3581   -3.4445   -1.4502 H   0  0  0  0  0  0  0  0  0  0  0  0
    1.0325   -4.6532   -1.2899 H   0  0  0  0  0  0  0  0  0  0  0  0
   -1.1618   -2.8819    0.0335 H   0  0  0  0  0  0  0  0  0  0  0  0
   -1.9636   -2.9852   -2.9287 H   0  0  0  0  0  0  0  0  0  0  0  0
   -4.1423   -2.4780   -1.6278 H   0  0  0  0  0  0  0  0  0  0  0  0
   -1.9962   -5.1327    0.2816 H   0  0  0  0  0  0  0  0  0  0  0  0
   -2.8260   -5.9338   -1.1238 H   0  0  0  0  0  0  0  0  0  0  0  0
   -5.2129   -5.7081    1.9908 H   0  0  0  0  0  0  0  0  0  0  0  0
   -6.0148   -7.5536    0.6567 H   0  0  0  0  0  0  0  0  0  0  0  0
   -5.1194   -7.4308   -1.2906 H   0  0  0  0  0  0  0  0  0  0  0  0
   -8.9692   -6.2656    1.7664 H   0  0  0  0  0  0  0  0  0  0  0  0
   -8.2443   -7.7598    1.0779 H   0  0  0  0  0  0  0  0  0  0  0  0
   -9.3311   -6.7475    0.0575 H   0  0  0  0  0  0  0  0  0  0  0  0
   -8.4755   -4.1389    0.3323 H   0  0  0  0  0  0  0  0  0  0  0  0
   -6.2003   -3.9360   -1.3874 H   0  0  0  0  0  0  0  0  0  0  0  0
   -3.8581   -3.3102    1.8322 H   0  0  0  0  0  0  0  0  0  0  0  0
  1  2  1  0
  2  3  1  0
  3  4  1  0
  3  5  1  0
  5  6  1  0
  7  6  1  1
  7  8  1  0
  8  9  2  0
  9 10  1  0
 10 11  1  0
  7 12  1  0
 12 13  1  0
 13 14  1  0
 14 15  1  0
 15 16  1  0
 16 17  1  0
 17 18  2  0
 18 19  1  0
 18 20  1  0
 20 21  1  0
 21 22  1  0
 22 23  1  0
 23 24  1  0
 24 25  1  0
 25 26  1  0
 24 27  1  0
 27 28  1  0
 28 29  1  0
 29 30  1  0
 30 31  1  0
 31 32  1  0
 32 33  1  0
 31 34  1  0
 34 35  2  0
 35 36  1  0
 36 37  2  0
 37 38  1  0
 38 39  1  0
 34 40  1  0
 40 41  1  0
 40 42  1  0
 27 43  1  0
 43 44  1  0
 43 45  1  0
 20 46  1  0
 46 47  1  0
 46 48  1  0
 48 49  2  0
 49 50  1  0
 50 51  2  0
 51 52  1  0
 52 53  1  0
 53 54  1  0
 54 55  1  0
 55 56  1  0
 55 57  1  0
 57 58  1  0
 57 59  2  0
 59 60  1  0
 60 61  1  0
 61 62  2  0
 61 63  1  0
 60 64  1  0
 64 65  1  1
 15 66  1  0
 10  5  1  0
 63 13  1  0
 66  7  1  0
 45 22  1  0
 64 51  1  0
 42 29  1  0
 64 54  1  0
  1 67  1  0
  1 68  1  0
  1 69  1  0
  2 70  1  0
  2 71  1  0
  3 72  1  1
  4 73  1  0
  4 74  1  0
  4 75  1  0
  5 76  1  6
  8 77  1  0
  9 78  1  0
 10 79  1  1
 11 80  1  0
 11 81  1  0
 11 82  1  0
 12 83  1  0
 12 84  1  0
 13 85  1  1
 14 86  1  0
 14 87  1  0
 15 88  1  1
 16 89  1  0
 16 90  1  0
 17 91  1  0
 19 92  1  0
 19 93  1  0
 19 94  1  0
 20 95  1  6
 22 96  1  6
 23 97  1  0
 23 98  1  0
 24 99  1  1
 26100  1  0
 26101  1  0
 26102  1  0
 27103  1  6
 29104  1  6
 30105  1  0
 30106  1  0
 31107  1  6
 33108  1  0
 33109  1  0
 33110  1  0
 35111  1  0
 36112  1  0
 39113  1  0
 39114  1  0
 39115  1  0
 40116  1  6
 41117  1  0
 41118  1  0
 41119  1  0
 43120  1  1
 44121  1  0
 44122  1  0
 44123  1  0
 46124  1  6
 47125  1  0
 47126  1  0
 47127  1  0
 48128  1  0
 49129  1  0
 50130  1  0
 52131  1  0
 52132  1  0
 54133  1  1
 55134  1  1
 56135  1  0
 58136  1  0
 58137  1  0
 58138  1  0
 59139  1  0
 60140  1  6
 65141  1  0
M  END
$$$$
