
     RDKit          3D

136142  0  0  0  0  0  0  0  0999 V2000
   -4.1292   -7.0250    0.9550 C   0  0  0  0  0  0  0  0  0  0  0  0
   -5.1995   -6.8454   -0.1283 C   0  0  0  0  0  0  0  0  0  0  0  0
   -4.9199   -5.6985   -1.1395 C   0  0  2  0  0  0  0  0  0  0  0  0
   -3.6229   -5.9659   -1.9251 C   0  0  0  0  0  0  0  0  0  0  0  0
   -4.9201   -4.2753   -0.5024 C   0  0  1  0  0  0  0  0  0  0  0  0
   -4.4859   -3.3383   -1.4854 O   0  0  0  0  0  0  0  0  0  0  0  0
   -4.3130   -2.0236   -0.9604 C   0  0  2  0  0  0  0  0  0  0  0  0
   -5.6644   -1.4967   -0.3772 C   0  0  0  0  0  0  0  0  0  0  0  0
   -6.7815   -2.5249   -0.5001 C   0  0  0  0  0  0  0  0  0  0  0  0
   -6.3340   -3.8890    0.0508 C   0  0  2  0  0  0  0  0  0  0  0  0
   -6.3599   -3.8945    1.5900 C   0  0  0  0  0  0  0  0  0  0  0  0
   -3.8586   -1.1455   -2.1647 C   0  0  0  0  0  0  0  0  0  0  0  0
   -3.4990    0.3007   -1.7604 C   0  0  2  0  0  0  0  0  0  0  0  0
   -3.0764    0.3615   -0.2831 C   0  0  0  0  0  0  0  0  0  0  0  0
   -2.4253   -0.9722    0.1459 C   0  0  1  0  0  0  0  0  0  0  0  0
   -1.8765   -0.8911    1.5833 C   0  0  0  0  0  0  0  0  0  0  0  0
   -0.7241    0.0858    1.7308 C   0  0  0  0  0  0  0  0  0  0  0  0
   -0.1952    0.4256    2.9322 C   0  0  0  0  0  0  0  0  0  0  0  0
   -0.6506   -0.2811    4.1950 C   0  0  0  0  0  0  0  0  0  0  0  0
    0.8760    1.5133    3.0327 C   0  0  1  0  0  0  0  0  0  0  0  0
    1.8855    1.3064    2.0461 O   0  0  0  0  0  0  0  0  0  0  0  0
    3.1953    1.3336    2.6044 C   0  0  1  0  0  0  0  0  0  0  0  0
    3.6468   -0.0943    3.0026 C   0  0  0  0  0  0  0  0  0  0  0  0
    4.0461   -0.9265    1.7807 C   0  0  2  0  0  0  0  0  0  0  0  0
    4.6379   -2.1360    2.2286 O   0  0  0  0  0  0  0  0  0  0  0  0
    4.0867   -3.2408    1.5381 C   0  0  0  0  0  0  0  0  0  0  0  0
    5.0596   -0.1127    0.9644 C   0  0  1  0  0  0  0  0  0  0  0  0
    5.4752   -0.8338   -0.1906 O   0  0  0  0  0  0  0  0  0  0  0  0
    6.8189   -1.2819   -0.0602 C   0  0  1  0  0  0  0  0  0  0  0  0
    7.1598   -2.2021   -1.2568 C   0  0  0  0  0  0  0  0  0  0  0  0
    8.2045   -1.5747   -2.1832 C   0  0  2  0  0  0  0  0  0  0  0  0
    8.5387   -2.5320   -3.1749 O   0  0  0  0  0  0  0  0  0  0  0  0
    8.9147   -1.9115   -4.3900 C   0  0  0  0  0  0  0  0  0  0  0  0
    9.4547   -1.1913   -1.3497 C   0  0  1  0  0  0  0  0  0  0  0  0
   10.3095   -0.3518   -2.0863 O   0  0  0  0  0  0  0  0  0  0  0  0
    9.0595   -0.5124   -0.0038 C   0  0  2  0  0  0  0  0  0  0  0  0
    9.4807   -1.3309    1.2291 C   0  0  0  0  0  0  0  0  0  0  0  0
    7.6860   -0.1556    0.0216 O   0  0  0  0  0  0  0  0  0  0  0  0
    4.3668    1.2052    0.5578 C   0  0  2  0  0  0  0  0  0  0  0  0
    5.2544    2.0325   -0.3741 C   0  0  0  0  0  0  0  0  0  0  0  0
    4.0966    1.9789    1.7137 O   0  0  0  0  0  0  0  0  0  0  0  0
    0.2644    2.9420    2.9208 C   0  0  1  0  0  0  0  0  0  0  0  0
    1.3148    4.0418    3.1321 C   0  0  0  0  0  0  0  0  0  0  0  0
   -0.5107    3.1849    1.6472 C   0  0  0  0  0  0  0  0  0  0  0  0
    0.0452    3.2107    0.4289 C   0  0  0  0  0  0  0  0  0  0  0  0
   -0.8113    3.3069   -0.7605 C   0  0  0  0  0  0  0  0  0  0  0  0
   -1.6415    4.3383   -0.9797 C   0  0  0  0  0  0  0  0  0  0  0  0
   -1.5803    5.6521   -0.2964 C   0  0  0  0  0  0  0  0  0  0  0  0
   -2.5922    6.4604   -0.8491 O   0  0  0  0  0  0  0  0  0  0  0  0
   -2.9769    5.8602   -2.0743 C   0  0  2  0  0  0  0  0  0  0  0  0
   -4.4420    6.1988   -2.4060 C   0  0  2  0  0  0  0  0  0  0  0  0
   -4.6078    7.5903   -2.5296 O   0  0  0  0  0  0  0  0  0  0  0  0
   -5.3697    5.5992   -1.3671 C   0  0  0  0  0  0  0  0  0  0  0  0
   -6.6107    6.3185   -0.9033 C   0  0  0  0  0  0  0  0  0  0  0  0
   -5.0968    4.3792   -0.8709 C   0  0  0  0  0  0  0  0  0  0  0  0
   -3.9637    3.5186   -1.3868 C   0  0  1  0  0  0  0  0  0  0  0  0
   -4.5407    2.5080   -2.3505 C   0  0  0  0  0  0  0  0  0  0  0  0
   -5.1019    2.9086   -3.4045 O   0  0  0  0  0  0  0  0  0  0  0  0
   -4.6213    1.1474   -2.0286 O   0  0  0  0  0  0  0  0  0  0  0  0
   -2.7390    4.3350   -1.9699 C   0  0  2  0  0  0  0  0  0  0  0  0
   -2.2700    3.8045   -3.1910 O   0  0  0  0  0  0  0  0  0  0  0  0
   -3.3324   -2.0681    0.0848 O   0  0  0  0  0  0  0  0  0  0  0  0
   -3.1338   -7.2277    0.5067 H   0  0  0  0  0  0  0  0  0  0  0  0
   -4.3967   -7.8963    1.5911 H   0  0  0  0  0  0  0  0  0  0  0  0
   -4.0646   -6.1345    1.6104 H   0  0  0  0  0  0  0  0  0  0  0  0
   -5.2817   -7.8034   -0.6903 H   0  0  0  0  0  0  0  0  0  0  0  0
   -6.1816   -6.6957    0.3605 H   0  0  0  0  0  0  0  0  0  0  0  0
   -5.7425   -5.7313   -1.8912 H   0  0  0  0  0  0  0  0  0  0  0  0
   -3.5852   -7.0206   -2.2741 H   0  0  0  0  0  0  0  0  0  0  0  0
   -2.7285   -5.7582   -1.2989 H   0  0  0  0  0  0  0  0  0  0  0  0
   -3.5784   -5.3151   -2.8274 H   0  0  0  0  0  0  0  0  0  0  0  0
   -4.1762   -4.2962    0.3184 H   0  0  0  0  0  0  0  0  0  0  0  0
   -5.5413   -1.2320    0.6934 H   0  0  0  0  0  0  0  0  0  0  0  0
   -6.0123   -0.5743   -0.8877 H   0  0  0  0  0  0  0  0  0  0  0  0
   -7.0506   -2.6382   -1.5747 H   0  0  0  0  0  0  0  0  0  0  0  0
   -7.6947   -2.1636    0.0241 H   0  0  0  0  0  0  0  0  0  0  0  0
   -7.1017   -4.6191   -0.2895 H   0  0  0  0  0  0  0  0  0  0  0  0
   -7.3264   -3.4956    1.9661 H   0  0  0  0  0  0  0  0  0  0  0  0
   -5.5342   -3.2835    2.0094 H   0  0  0  0  0  0  0  0  0  0  0  0
   -6.2581   -4.9309    1.9696 H   0  0  0  0  0  0  0  0  0  0  0  0
   -4.6455   -1.1421   -2.9524 H   0  0  0  0  0  0  0  0  0  0  0  0
   -2.9591   -1.6204   -2.6185 H   0  0  0  0  0  0  0  0  0  0  0  0
   -2.6470    0.6283   -2.3959 H   0  0  0  0  0  0  0  0  0  0  0  0
   -2.3540    1.1848   -0.1431 H   0  0  0  0  0  0  0  0  0  0  0  0
   -3.9555    0.5777    0.3631 H   0  0  0  0  0  0  0  0  0  0  0  0
   -1.5676   -1.1897   -0.5331 H   0  0  0  0  0  0  0  0  0  0  0  0
   -1.5245   -1.9002    1.8873 H   0  0  0  0  0  0  0  0  0  0  0  0
   -2.7083   -0.5974    2.2615 H   0  0  0  0  0  0  0  0  0  0  0  0
   -0.3258    0.5451    0.8322 H   0  0  0  0  0  0  0  0  0  0  0  0
   -0.5149   -1.3776    4.0880 H   0  0  0  0  0  0  0  0  0  0  0  0
   -1.7249   -0.0695    4.3833 H   0  0  0  0  0  0  0  0  0  0  0  0
   -0.0808    0.0484    5.0862 H   0  0  0  0  0  0  0  0  0  0  0  0
    1.2785    1.4493    4.0682 H   0  0  0  0  0  0  0  0  0  0  0  0
    3.2415    1.9496    3.5320 H   0  0  0  0  0  0  0  0  0  0  0  0
    2.8298   -0.6083    3.5524 H   0  0  0  0  0  0  0  0  0  0  0  0
    4.5159   -0.0154    3.6950 H   0  0  0  0  0  0  0  0  0  0  0  0
    3.1224   -1.0819    1.1668 H   0  0  0  0  0  0  0  0  0  0  0  0
    3.0058   -3.3561    1.7768 H   0  0  0  0  0  0  0  0  0  0  0  0
    4.2339   -3.1445    0.4401 H   0  0  0  0  0  0  0  0  0  0  0  0
    4.6048   -4.1645    1.8658 H   0  0  0  0  0  0  0  0  0  0  0  0
    5.9032    0.1581    1.6482 H   0  0  0  0  0  0  0  0  0  0  0  0
    6.9049   -1.8933    0.8698 H   0  0  0  0  0  0  0  0  0  0  0  0
    7.5553   -3.1690   -0.8761 H   0  0  0  0  0  0  0  0  0  0  0  0
    6.2428   -2.4367   -1.8409 H   0  0  0  0  0  0  0  0  0  0  0  0
    7.7393   -0.6518   -2.6095 H   0  0  0  0  0  0  0  0  0  0  0  0
    9.0168   -2.6940   -5.1663 H   0  0  0  0  0  0  0  0  0  0  0  0
    9.8998   -1.4120   -4.2933 H   0  0  0  0  0  0  0  0  0  0  0  0
    8.1455   -1.1888   -4.7449 H   0  0  0  0  0  0  0  0  0  0  0  0
   10.0207   -2.1272   -1.1393 H   0  0  0  0  0  0  0  0  0  0  0  0
    9.8028    0.4742   -2.3045 H   0  0  0  0  0  0  0  0  0  0  0  0
    9.6226    0.4419    0.0787 H   0  0  0  0  0  0  0  0  0  0  0  0
   10.5866   -1.3444    1.3129 H   0  0  0  0  0  0  0  0  0  0  0  0
    9.0620   -0.8748    2.1493 H   0  0  0  0  0  0  0  0  0  0  0  0
    9.1300   -2.3820    1.1551 H   0  0  0  0  0  0  0  0  0  0  0  0
    3.4217    0.9947    0.0029 H   0  0  0  0  0  0  0  0  0  0  0  0
    4.7637    3.0035   -0.5937 H   0  0  0  0  0  0  0  0  0  0  0  0
    6.2374    2.2297    0.1049 H   0  0  0  0  0  0  0  0  0  0  0  0
    5.4194    1.4975   -1.3323 H   0  0  0  0  0  0  0  0  0  0  0  0
   -0.4672    3.0412    3.7583 H   0  0  0  0  0  0  0  0  0  0  0  0
    2.0930    4.0119    2.3417 H   0  0  0  0  0  0  0  0  0  0  0  0
    1.8020    3.9160    4.1224 H   0  0  0  0  0  0  0  0  0  0  0  0
    0.8288    5.0390    3.1098 H   0  0  0  0  0  0  0  0  0  0  0  0
   -1.5835    3.3099    1.7407 H   0  0  0  0  0  0  0  0  0  0  0  0
    1.0988    3.0013    0.2953 H   0  0  0  0  0  0  0  0  0  0  0  0
   -0.8308    2.4544   -1.4317 H   0  0  0  0  0  0  0  0  0  0  0  0
   -1.7529    5.5416    0.7906 H   0  0  0  0  0  0  0  0  0  0  0  0
   -0.5909    6.1256   -0.4696 H   0  0  0  0  0  0  0  0  0  0  0  0
   -2.3343    6.2834   -2.8820 H   0  0  0  0  0  0  0  0  0  0  0  0
   -4.6935    5.7448   -3.3875 H   0  0  0  0  0  0  0  0  0  0  0  0
   -4.4198    8.0023   -1.6456 H   0  0  0  0  0  0  0  0  0  0  0  0
   -6.4922    6.6168    0.1583 H   0  0  0  0  0  0  0  0  0  0  0  0
   -7.4896    5.6479   -0.9993 H   0  0  0  0  0  0  0  0  0  0  0  0
   -6.8146    7.2221   -1.5134 H   0  0  0  0  0  0  0  0  0  0  0  0
   -5.7674    3.9423   -0.1363 H   0  0  0  0  0  0  0  0  0  0  0  0
   -3.6316    2.9575   -0.4933 H   0  0  0  0  0  0  0  0  0  0  0  0
   -2.8982    4.0914   -3.9024 H   0  0  0  0  0  0  0  0  0  0  0  0
  1  2  1  0
  2  3  1  0
  3  4  1  0
  3  5  1  0
  5  6  1  0
  7  6  1  6
  7  8  1  0
  8  9  1  0
  9 10  1  0
 10 11  1  0
  7 12  1  0
 12 13  1  0
 13 14  1  0
 14 15  1  0
 15 16  1  0
 16 17  1  0
 17 18  2  0
 18 19  1  0
 18 20  1  0
 20 21  1  0
 21 22  1  0
 22 23  1  0
 23 24  1  0
 24 25  1  0
 25 26  1  0
 24 27  1  0
 27 28  1  0
 28 29  1  0
 29 30  1  0
 30 31  1  0
 31 32  1  0
 32 33  1  0
 31 34  1  0
 34 35  1  0
 34 36  1  0
 36 37  1  0
 36 38  1  0
 27 39  1  0
 39 40  1  0
 39 41  1  0
 20 42  1  0
 42 43  1  0
 42 44  1  0
 44 45  2  0
 45 46  1  0
 46 47  2  0
 47 48  1  0
 48 49  1  0
 49 50  1  0
 50 51  1  0
 51 52  1  0
 51 53  1  0
 53 54  1  0
 53 55  2  0
 55 56  1  0
 56 57  1  0
 57 58  2  0
 57 59  1  0
 56 60  1  0
 60 61  1  6
 15 62  1  0
 10  5  1  0
 59 13  1  0
 62  7  1  0
 41 22  1  0
 60 47  1  0
 38 29  1  0
 60 50  1  0
  1 63  1  0
  1 64  1  0
  1 65  1  0
  2 66  1  0
  2 67  1  0
  3 68  1  6
  4 69  1  0
  4 70  1  0
  4 71  1  0
  5 72  1  1
  8 73  1  0
  8 74  1  0
  9 75  1  0
  9 76  1  0
 10 77  1  6
 11 78  1  0
 11 79  1  0
 11 80  1  0
 12 81  1  0
 12 82  1  0
 13 83  1  6
 14 84  1  0
 14 85  1  0
 15 86  1  6
 16 87  1  0
 16 88  1  0
 17 89  1  0
 19 90  1  0
 19 91  1  0
 19 92  1  0
 20 93  1  1
 22 94  1  1
 23 95  1  0
 23 96  1  0
 24 97  1  6
 26 98  1  0
 26 99  1  0
 26100  1  0
 27101  1  1
 29102  1  1
 30103  1  0
 30104  1  0
 31105  1  6
 33106  1  0
 33107  1  0
 33108  1  0
 34109  1  1
 35110  1  0
 36111  1  1
 37112  1  0
 37113  1  0
 37114  1  0
 39115  1  6
 40116  1  0
 40117  1  0
 40118  1  0
 42119  1  1
 43120  1  0
 43121  1  0
 43122  1  0
 44123  1  0
 45124  1  0
 46125  1  0
 48126  1  0
 48127  1  0
 50128  1  6
 51129  1  6
 52130  1  0
 54131  1  0
 54132  1  0
 54133  1  0
 55134  1  0
 56135  1  1
 61136  1  0
M  END
$$$$
