
     RDKit          3D

 75 76  0  0  0  0  0  0  0  0999 V2000
    0.4821   -1.9071    2.5257 C   0  0  0  0  0  0  0  0  0  0  0  0
    0.4249   -2.2918    1.0418 C   0  0  1  0  0  0  0  0  0  0  0  0
   -0.5599   -3.4497    0.8008 C   0  0  0  0  0  0  0  0  0  0  0  0
   -0.4088   -3.9539   -0.4996 O   0  0  0  0  0  0  0  0  0  0  0  0
    0.1105   -1.1124    0.1999 N   0  0  0  0  0  0  0  0  0  0  0  0
   -1.1368   -0.3501    0.4255 C   0  0  0  0  0  0  0  0  0  0  0  0
   -1.9848   -0.0850   -0.8527 C   0  0  1  0  0  0  0  0  0  0  0  0
   -2.5489   -1.4113   -1.3961 C   0  0  0  0  0  0  0  0  0  0  0  0
   -3.0716    0.9960   -0.5248 C   0  0  2  0  0  0  0  0  0  0  0  0
   -4.2958    1.0062   -1.4817 C   0  0  0  0  0  0  0  0  0  0  0  0
   -5.2606   -0.0613   -1.1233 N   0  0  0  0  0  0  0  0  0  0  0  0
   -6.0415   -0.4757   -2.3066 C   0  0  0  0  0  0  0  0  0  0  0  0
   -6.1957    0.3934   -0.0709 C   0  0  0  0  0  0  0  0  0  0  0  0
   -2.4414    2.2670   -0.6041 O   0  0  0  0  0  0  0  0  0  0  0  0
   -2.9488    3.1887    0.3459 C   0  0  0  0  0  0  0  0  0  0  0  0
   -1.9142    3.4166    1.4486 C   0  0  0  0  0  0  0  0  0  0  0  0
   -0.6337    4.0986    0.9125 C   0  0  0  0  0  0  0  0  0  0  0  0
    0.6533    3.5067    1.5286 C   0  0  0  0  0  0  0  0  0  0  0  0
    1.3462    2.4802    0.6005 C   0  0  1  0  0  0  0  0  0  0  0  0
    2.3231    3.1826   -0.3558 C   0  0  0  0  0  0  0  0  0  0  0  0
    2.0394    1.5329    1.4186 O   0  0  0  0  0  0  0  0  0  0  0  0
    2.8974    0.5246    0.9562 C   0  0  0  0  0  0  0  0  0  0  0  0
    4.1660    0.4541    1.5383 C   0  0  0  0  0  0  0  0  0  0  0  0
    5.1016   -0.4874    1.1099 C   0  0  0  0  0  0  0  0  0  0  0  0
    4.7821   -1.3991    0.0864 C   0  0  0  0  0  0  0  0  0  0  0  0
    5.7457   -2.3930   -0.3438 N   0  0  0  0  0  0  0  0  0  0  0  0
    5.2961   -3.6972   -0.8399 C   0  0  0  0  0  0  0  0  0  0  0  0
    7.1860   -2.1397   -0.2078 C   0  0  0  0  0  0  0  0  0  0  0  0
    3.4991   -1.3415   -0.4889 C   0  0  0  0  0  0  0  0  0  0  0  0
    2.5446   -0.4094   -0.0466 C   0  0  0  0  0  0  0  0  0  0  0  0
    1.1736   -0.5185   -0.5836 C   0  0  0  0  0  0  0  0  0  0  0  0
    0.9629   -0.1642   -1.7737 O   0  0  0  0  0  0  0  0  0  0  0  0
    1.1642   -1.0433    2.6712 H   0  0  0  0  0  0  0  0  0  0  0  0
   -0.5252   -1.6447    2.9134 H   0  0  0  0  0  0  0  0  0  0  0  0
    0.8768   -2.7536    3.1257 H   0  0  0  0  0  0  0  0  0  0  0  0
    1.4319   -2.6894    0.7796 H   0  0  0  0  0  0  0  0  0  0  0  0
   -1.6098   -3.1131    0.9334 H   0  0  0  0  0  0  0  0  0  0  0  0
   -0.3875   -4.2592    1.5487 H   0  0  0  0  0  0  0  0  0  0  0  0
    0.3842   -4.5511   -0.4811 H   0  0  0  0  0  0  0  0  0  0  0  0
   -0.8685    0.6032    0.9095 H   0  0  0  0  0  0  0  0  0  0  0  0
   -1.7847   -0.8690    1.1654 H   0  0  0  0  0  0  0  0  0  0  0  0
   -1.3445    0.3415   -1.6516 H   0  0  0  0  0  0  0  0  0  0  0  0
   -1.7231   -2.1155   -1.6102 H   0  0  0  0  0  0  0  0  0  0  0  0
   -3.2457   -1.8787   -0.6652 H   0  0  0  0  0  0  0  0  0  0  0  0
   -3.0661   -1.2604   -2.3640 H   0  0  0  0  0  0  0  0  0  0  0  0
   -3.4307    0.7737    0.5064 H   0  0  0  0  0  0  0  0  0  0  0  0
   -4.7944    2.0012   -1.4494 H   0  0  0  0  0  0  0  0  0  0  0  0
   -3.9317    0.8977   -2.5291 H   0  0  0  0  0  0  0  0  0  0  0  0
   -6.7551   -1.2837   -2.0284 H   0  0  0  0  0  0  0  0  0  0  0  0
   -5.3706   -0.8970   -3.0867 H   0  0  0  0  0  0  0  0  0  0  0  0
   -6.6074    0.3827   -2.7374 H   0  0  0  0  0  0  0  0  0  0  0  0
   -6.7474   -0.4764    0.3440 H   0  0  0  0  0  0  0  0  0  0  0  0
   -5.6642    0.8796    0.7714 H   0  0  0  0  0  0  0  0  0  0  0  0
   -6.9333    1.1266   -0.4728 H   0  0  0  0  0  0  0  0  0  0  0  0
   -3.9210    2.8892    0.8027 H   0  0  0  0  0  0  0  0  0  0  0  0
   -3.1403    4.1528   -0.1710 H   0  0  0  0  0  0  0  0  0  0  0  0
   -2.3667    4.0630    2.2338 H   0  0  0  0  0  0  0  0  0  0  0  0
   -1.7028    2.4386    1.9323 H   0  0  0  0  0  0  0  0  0  0  0  0
   -0.6914    5.1766    1.1652 H   0  0  0  0  0  0  0  0  0  0  0  0
   -0.5796    4.0516   -0.1954 H   0  0  0  0  0  0  0  0  0  0  0  0
    1.3607    4.3350    1.7603 H   0  0  0  0  0  0  0  0  0  0  0  0
    0.4270    3.0364    2.5124 H   0  0  0  0  0  0  0  0  0  0  0  0
    0.5903    1.9596   -0.0124 H   0  0  0  0  0  0  0  0  0  0  0  0
    3.1634    3.6375    0.2113 H   0  0  0  0  0  0  0  0  0  0  0  0
    1.8027    3.9774   -0.9283 H   0  0  0  0  0  0  0  0  0  0  0  0
    2.7449    2.4500   -1.0765 H   0  0  0  0  0  0  0  0  0  0  0  0
    4.4380    1.1548    2.3187 H   0  0  0  0  0  0  0  0  0  0  0  0
    6.0676   -0.5089    1.5953 H   0  0  0  0  0  0  0  0  0  0  0  0
    4.9013   -3.5927   -1.8695 H   0  0  0  0  0  0  0  0  0  0  0  0
    6.1294   -4.4313   -0.8550 H   0  0  0  0  0  0  0  0  0  0  0  0
    4.5036   -4.1001   -0.1747 H   0  0  0  0  0  0  0  0  0  0  0  0
    7.4972   -2.2694    0.8503 H   0  0  0  0  0  0  0  0  0  0  0  0
    7.4226   -1.1055   -0.5351 H   0  0  0  0  0  0  0  0  0  0  0  0
    7.7758   -2.8351   -0.8406 H   0  0  0  0  0  0  0  0  0  0  0  0
    3.2177   -2.0503   -1.2586 H   0  0  0  0  0  0  0  0  0  0  0  0
  1  2  1  0
  2  3  1  0
  3  4  1  0
  2  5  1  0
  5  6  1  0
  6  7  1  0
  7  8  1  0
  7  9  1  0
  9 10  1  0
 10 11  1  0
 11 12  1  0
 11 13  1  0
  9 14  1  0
 14 15  1  0
 15 16  1  0
 16 17  1  0
 17 18  1  0
 18 19  1  0
 19 20  1  0
 19 21  1  0
 21 22  1  0
 22 23  2  0
 23 24  1  0
 24 25  2  0
 25 26  1  0
 26 27  1  0
 26 28  1  0
 25 29  1  0
 29 30  2  0
 30 31  1  0
 31 32  2  0
 31  5  1  0
 30 22  1  0
  1 33  1  0
  1 34  1  0
  1 35  1  0
  2 36  1  6
  3 37  1  0
  3 38  1  0
  4 39  1  0
  6 40  1  0
  6 41  1  0
  7 42  1  6
  8 43  1  0
  8 44  1  0
  8 45  1  0
  9 46  1  1
 10 47  1  0
 10 48  1  0
 12 49  1  0
 12 50  1  0
 12 51  1  0
 13 52  1  0
 13 53  1  0
 13 54  1  0
 15 55  1  0
 15 56  1  0
 16 57  1  0
 16 58  1  0
 17 59  1  0
 17 60  1  0
 18 61  1  0
 18 62  1  0
 19 63  1  6
 20 64  1  0
 20 65  1  0
 20 66  1  0
 23 67  1  0
 24 68  1  0
 27 69  1  0
 27 70  1  0
 27 71  1  0
 28 72  1  0
 28 73  1  0
 28 74  1  0
 29 75  1  0
M  END
$$$$
