
     RDKit          3D

 60 63  0  0  0  0  0  0  0  0999 V2000
    0.6651   -2.9882   -2.1808 O   0  0  0  0  0  0  0  0  0  0  0  0
    1.1750   -2.4434   -1.1659 C   0  0  0  0  0  0  0  0  0  0  0  0
    0.4227   -2.4727    0.1435 C   0  0  0  0  0  0  0  0  0  0  0  0
   -0.9066   -1.6556    0.1009 C   0  0  1  0  0  0  0  0  0  0  0  0
   -2.1093   -2.5460   -0.1620 C   0  0  0  0  0  0  0  0  0  0  0  0
   -2.4675   -3.5718    0.7360 C   0  0  0  0  0  0  0  0  0  0  0  0
   -3.5832   -4.3759    0.4855 C   0  0  0  0  0  0  0  0  0  0  0  0
   -4.3557   -4.1662   -0.6587 C   0  0  0  0  0  0  0  0  0  0  0  0
   -4.0142   -3.1514   -1.5551 C   0  0  0  0  0  0  0  0  0  0  0  0
   -2.8993   -2.3444   -1.3103 C   0  0  0  0  0  0  0  0  0  0  0  0
   -1.1185   -0.8580    1.3785 C   0  0  0  0  0  0  0  0  0  0  0  0
   -0.9554   -1.4373    2.4868 O   0  0  0  0  0  0  0  0  0  0  0  0
   -1.6052    0.5001    1.3837 N   0  0  0  0  0  0  0  0  0  0  0  0
   -1.1460    1.5727    0.4828 C   0  0  1  0  0  0  0  0  0  0  0  0
   -2.2833    2.5602    0.2205 C   0  0  0  0  0  0  0  0  0  0  0  0
   -3.6153    2.0955    0.1604 C   0  0  0  0  0  0  0  0  0  0  0  0
   -4.6647    2.9667   -0.1451 C   0  0  0  0  0  0  0  0  0  0  0  0
   -4.4026    4.3073   -0.4269 C   0  0  0  0  0  0  0  0  0  0  0  0
   -3.0886    4.7756   -0.4196 C   0  0  0  0  0  0  0  0  0  0  0  0
   -2.0345    3.9091   -0.1154 C   0  0  0  0  0  0  0  0  0  0  0  0
    0.1241    2.2262    1.1054 C   0  0  0  0  0  0  0  0  0  0  0  0
    1.1530    2.6943    0.0889 C   0  0  0  0  0  0  0  0  0  0  0  0
    1.9040    1.8697   -0.6711 C   0  0  0  0  0  0  0  0  0  0  0  0
    1.6582    0.3870   -0.7356 C   0  0  0  0  0  0  0  0  0  0  0  0
    2.8418   -0.4632   -1.2178 C   0  0  1  0  0  0  0  0  0  0  0  0
    4.0656   -0.2412   -0.3528 C   0  0  0  0  0  0  0  0  0  0  0  0
    5.1644    0.4799   -0.8539 C   0  0  0  0  0  0  0  0  0  0  0  0
    6.2858    0.7083   -0.0506 C   0  0  0  0  0  0  0  0  0  0  0  0
    6.3200    0.2244    1.2593 C   0  0  0  0  0  0  0  0  0  0  0  0
    5.2318   -0.4874    1.7694 C   0  0  0  0  0  0  0  0  0  0  0  0
    4.1082   -0.7184    0.9704 C   0  0  0  0  0  0  0  0  0  0  0  0
    2.5079   -1.9011   -1.2510 N   0  0  0  0  0  0  0  0  0  0  0  0
    0.2319   -3.5349    0.4059 H   0  0  0  0  0  0  0  0  0  0  0  0
    1.0922   -2.0974    0.9443 H   0  0  0  0  0  0  0  0  0  0  0  0
   -0.8432   -0.9488   -0.7395 H   0  0  0  0  0  0  0  0  0  0  0  0
   -1.8832   -3.7524    1.6288 H   0  0  0  0  0  0  0  0  0  0  0  0
   -3.8494   -5.1622    1.1799 H   0  0  0  0  0  0  0  0  0  0  0  0
   -5.2194   -4.7896   -0.8504 H   0  0  0  0  0  0  0  0  0  0  0  0
   -4.6148   -2.9888   -2.4408 H   0  0  0  0  0  0  0  0  0  0  0  0
   -2.6554   -1.5617   -2.0179 H   0  0  0  0  0  0  0  0  0  0  0  0
   -2.0527    0.8166    2.2748 H   0  0  0  0  0  0  0  0  0  0  0  0
   -0.9121    1.1587   -0.5081 H   0  0  0  0  0  0  0  0  0  0  0  0
   -3.8490    1.0541    0.3421 H   0  0  0  0  0  0  0  0  0  0  0  0
   -5.6820    2.5981   -0.1739 H   0  0  0  0  0  0  0  0  0  0  0  0
   -5.2161    4.9797   -0.6668 H   0  0  0  0  0  0  0  0  0  0  0  0
   -2.8842    5.8108   -0.6611 H   0  0  0  0  0  0  0  0  0  0  0  0
   -1.0304    4.3036   -0.1515 H   0  0  0  0  0  0  0  0  0  0  0  0
    0.6268    1.5160    1.7971 H   0  0  0  0  0  0  0  0  0  0  0  0
   -0.1698    3.0830    1.7494 H   0  0  0  0  0  0  0  0  0  0  0  0
    1.3681    3.7579    0.0461 H   0  0  0  0  0  0  0  0  0  0  0  0
    2.6602    2.3032   -1.3193 H   0  0  0  0  0  0  0  0  0  0  0  0
    0.8425    0.2390   -1.4683 H   0  0  0  0  0  0  0  0  0  0  0  0
    1.3651    0.0308    0.2661 H   0  0  0  0  0  0  0  0  0  0  0  0
    3.0647   -0.1522   -2.2633 H   0  0  0  0  0  0  0  0  0  0  0  0
    5.1530    0.8691   -1.8643 H   0  0  0  0  0  0  0  0  0  0  0  0
    7.1280    1.2632   -0.4435 H   0  0  0  0  0  0  0  0  0  0  0  0
    7.1886    0.4032    1.8798 H   0  0  0  0  0  0  0  0  0  0  0  0
    5.2577   -0.8589    2.7857 H   0  0  0  0  0  0  0  0  0  0  0  0
    3.2736   -1.2668    1.3846 H   0  0  0  0  0  0  0  0  0  0  0  0
    3.2315   -2.5283   -1.6697 H   0  0  0  0  0  0  0  0  0  0  0  0
  1  2  2  0
  2  3  1  0
  3  4  1  0
  4  5  1  0
  5  6  2  0
  6  7  1  0
  7  8  2  0
  8  9  1  0
  9 10  2  0
  4 11  1  0
 11 12  2  0
 11 13  1  0
 13 14  1  0
 14 15  1  0
 15 16  2  0
 16 17  1  0
 17 18  2  0
 18 19  1  0
 19 20  2  0
 14 21  1  0
 21 22  1  0
 22 23  2  0
 23 24  1  0
 24 25  1  0
 25 26  1  0
 26 27  2  0
 27 28  1  0
 28 29  2  0
 29 30  1  0
 30 31  2  0
 25 32  1  0
 32  2  1  0
 10  5  1  0
 20 15  1  0
 31 26  1  0
  3 33  1  0
  3 34  1  0
  4 35  1  6
  6 36  1  0
  7 37  1  0
  8 38  1  0
  9 39  1  0
 10 40  1  0
 13 41  1  0
 14 42  1  6
 16 43  1  0
 17 44  1  0
 18 45  1  0
 19 46  1  0
 20 47  1  0
 21 48  1  0
 21 49  1  0
 22 50  1  0
 23 51  1  0
 24 52  1  0
 24 53  1  0
 25 54  1  6
 27 55  1  0
 28 56  1  0
 29 57  1  0
 30 58  1  0
 31 59  1  0
 32 60  1  0
M  END
$$$$
