
     RDKit          3D

 98101  0  0  0  0  0  0  0  0999 V2000
   -6.0615   -1.9119    1.6892 C   0  0  0  0  0  0  0  0  0  0  0  0
   -6.2762   -2.4522    0.2690 C   0  0  0  0  0  0  0  0  0  0  0  0
   -7.7510   -2.3046   -0.1279 C   0  0  0  0  0  0  0  0  0  0  0  0
   -5.3767   -1.7463   -0.7788 C   0  0  0  0  0  0  0  0  0  0  0  0
   -3.8582   -1.8177   -0.4949 C   0  0  2  0  0  0  0  0  0  0  0  0
   -3.1266   -1.2376   -1.6247 N   0  0  0  0  0  0  0  0  0  0  0  0
   -2.7890    0.1548   -1.7221 C   0  0  0  0  0  0  0  0  0  0  0  0
   -2.9886    0.7509   -2.8152 O   0  0  0  0  0  0  0  0  0  0  0  0
   -2.0728    0.8858   -0.6063 C   0  0  2  0  0  0  0  0  0  0  0  0
   -2.7318    2.2443   -0.2960 C   0  0  0  0  0  0  0  0  0  0  0  0
   -4.0707    2.0896    0.3782 C   0  0  0  0  0  0  0  0  0  0  0  0
   -4.1468    1.9263    1.7715 C   0  0  0  0  0  0  0  0  0  0  0  0
   -5.3912    1.8434    2.4032 C   0  0  0  0  0  0  0  0  0  0  0  0
   -6.5656    1.9058    1.6476 C   0  0  0  0  0  0  0  0  0  0  0  0
   -6.4973    2.0330    0.2577 C   0  0  0  0  0  0  0  0  0  0  0  0
   -5.2554    2.1273   -0.3764 C   0  0  0  0  0  0  0  0  0  0  0  0
   -0.6535    1.0365   -0.9571 N   0  0  0  0  0  0  0  0  0  0  0  0
   -0.1700    1.9718   -1.9318 C   0  0  0  0  0  0  0  0  0  0  0  0
    0.1038    1.5645   -3.0932 O   0  0  0  0  0  0  0  0  0  0  0  0
    0.0245    3.4211   -1.5778 C   0  0  0  0  0  0  0  0  0  0  0  0
    0.9945    4.0589   -2.4679 N   0  0  0  0  0  0  0  0  0  0  0  0
    2.4188    3.8644   -2.4337 C   0  0  0  0  0  0  0  0  0  0  0  0
    3.1171    4.4081   -3.3320 O   0  0  0  0  0  0  0  0  0  0  0  0
    3.1208    3.0741   -1.3480 C   0  0  2  0  0  0  0  0  0  0  0  0
    4.0001    4.0162   -0.5197 C   0  0  0  0  0  0  0  0  0  0  0  0
    3.9473    2.0262   -1.9581 N   0  0  0  0  0  0  0  0  0  0  0  0
    4.0865    0.6966   -1.4340 C   0  0  0  0  0  0  0  0  0  0  0  0
    4.4063   -0.2329   -2.2241 O   0  0  0  0  0  0  0  0  0  0  0  0
    3.8358    0.3773    0.0249 C   0  0  2  0  0  0  0  0  0  0  0  0
    4.8466   -0.6508    0.5738 C   0  0  0  0  0  0  0  0  0  0  0  0
    6.2567   -0.1139    0.5630 C   0  0  0  0  0  0  0  0  0  0  0  0
    6.6661    0.8136    1.5362 C   0  0  0  0  0  0  0  0  0  0  0  0
    7.9706    1.3180    1.5263 C   0  0  0  0  0  0  0  0  0  0  0  0
    8.8783    0.9026    0.5422 C   0  0  0  0  0  0  0  0  0  0  0  0
   10.1827    1.3924    0.5253 O   0  0  0  0  0  0  0  0  0  0  0  0
    8.4717   -0.0125   -0.4345 C   0  0  0  0  0  0  0  0  0  0  0  0
    7.1676   -0.5171   -0.4277 C   0  0  0  0  0  0  0  0  0  0  0  0
    2.4812   -0.1439    0.1850 N   0  0  0  0  0  0  0  0  0  0  0  0
    1.7978   -0.0000    1.4366 C   0  0  0  0  0  0  0  0  0  0  0  0
    1.4294    1.1479    1.7988 O   0  0  0  0  0  0  0  0  0  0  0  0
    1.6607   -1.1236    2.3918 C   0  0  0  0  0  0  0  0  0  0  0  0
    1.6381   -2.4267    2.0791 C   0  0  0  0  0  0  0  0  0  0  0  0
    1.4797   -2.9487    0.7127 C   0  0  0  0  0  0  0  0  0  0  0  0
    2.5211   -3.6820    0.1272 C   0  0  0  0  0  0  0  0  0  0  0  0
    2.4096   -4.1283   -1.1931 C   0  0  0  0  0  0  0  0  0  0  0  0
    1.2532   -3.8559   -1.9294 C   0  0  0  0  0  0  0  0  0  0  0  0
    0.1993   -3.1493   -1.3437 C   0  0  0  0  0  0  0  0  0  0  0  0
    0.2977   -2.7107   -0.0181 C   0  0  0  0  0  0  0  0  0  0  0  0
   -0.7761   -2.0318    0.5610 O   0  0  0  0  0  0  0  0  0  0  0  0
   -1.6734   -2.6870    1.4519 C   0  0  0  0  0  0  0  0  0  0  0  0
   -2.4882   -3.6046    0.7273 O   0  0  0  0  0  0  0  0  0  0  0  0
   -3.3895   -3.2437   -0.2839 C   0  0  0  0  0  0  0  0  0  0  0  0
   -3.8052   -4.1477   -1.0575 O   0  0  0  0  0  0  0  0  0  0  0  0
   -6.7735   -2.3878    2.3940 H   0  0  0  0  0  0  0  0  0  0  0  0
   -6.2189   -0.8186    1.7134 H   0  0  0  0  0  0  0  0  0  0  0  0
   -5.0393   -2.1426    2.0491 H   0  0  0  0  0  0  0  0  0  0  0  0
   -6.0466   -3.5401    0.2773 H   0  0  0  0  0  0  0  0  0  0  0  0
   -7.9184   -2.7297   -1.1417 H   0  0  0  0  0  0  0  0  0  0  0  0
   -8.0516   -1.2323   -0.1306 H   0  0  0  0  0  0  0  0  0  0  0  0
   -8.3988   -2.8556    0.5879 H   0  0  0  0  0  0  0  0  0  0  0  0
   -5.6707   -0.6765   -0.8497 H   0  0  0  0  0  0  0  0  0  0  0  0
   -5.5731   -2.2008   -1.7750 H   0  0  0  0  0  0  0  0  0  0  0  0
   -3.6777   -1.2200    0.4140 H   0  0  0  0  0  0  0  0  0  0  0  0
   -3.1515   -1.7714   -2.5239 H   0  0  0  0  0  0  0  0  0  0  0  0
   -2.1077    0.2861    0.3259 H   0  0  0  0  0  0  0  0  0  0  0  0
   -2.8579    2.8341   -1.2284 H   0  0  0  0  0  0  0  0  0  0  0  0
   -2.0627    2.8297    0.3714 H   0  0  0  0  0  0  0  0  0  0  0  0
   -3.2443    1.8819    2.3683 H   0  0  0  0  0  0  0  0  0  0  0  0
   -5.4461    1.7283    3.4783 H   0  0  0  0  0  0  0  0  0  0  0  0
   -7.5279    1.8391    2.1376 H   0  0  0  0  0  0  0  0  0  0  0  0
   -7.4076    2.0637   -0.3281 H   0  0  0  0  0  0  0  0  0  0  0  0
   -5.2184    2.2366   -1.4530 H   0  0  0  0  0  0  0  0  0  0  0  0
   -0.0800    0.1698   -0.8554 H   0  0  0  0  0  0  0  0  0  0  0  0
    0.3333    3.5369   -0.5171 H   0  0  0  0  0  0  0  0  0  0  0  0
   -0.9439    3.9472   -1.6937 H   0  0  0  0  0  0  0  0  0  0  0  0
    0.6126    4.6866   -3.2136 H   0  0  0  0  0  0  0  0  0  0  0  0
    2.3771    2.6081   -0.6716 H   0  0  0  0  0  0  0  0  0  0  0  0
    3.3722    4.7937   -0.0336 H   0  0  0  0  0  0  0  0  0  0  0  0
    4.5390    3.4592    0.2731 H   0  0  0  0  0  0  0  0  0  0  0  0
    4.7554    4.5164   -1.1639 H   0  0  0  0  0  0  0  0  0  0  0  0
    4.4474    2.2374   -2.8522 H   0  0  0  0  0  0  0  0  0  0  0  0
    3.9371    1.3019    0.6287 H   0  0  0  0  0  0  0  0  0  0  0  0
    4.5740   -0.9088    1.6214 H   0  0  0  0  0  0  0  0  0  0  0  0
    4.7832   -1.5978   -0.0079 H   0  0  0  0  0  0  0  0  0  0  0  0
    5.9735    1.1466    2.3002 H   0  0  0  0  0  0  0  0  0  0  0  0
    8.2743    2.0342    2.2815 H   0  0  0  0  0  0  0  0  0  0  0  0
   10.5096    2.0532    1.2213 H   0  0  0  0  0  0  0  0  0  0  0  0
    9.1679   -0.3332   -1.1988 H   0  0  0  0  0  0  0  0  0  0  0  0
    6.8722   -1.2241   -1.1924 H   0  0  0  0  0  0  0  0  0  0  0  0
    2.1248   -0.8109   -0.5306 H   0  0  0  0  0  0  0  0  0  0  0  0
    1.6296   -0.8637    3.4428 H   0  0  0  0  0  0  0  0  0  0  0  0
    1.6619   -3.1500    2.8844 H   0  0  0  0  0  0  0  0  0  0  0  0
    3.4291   -3.8829    0.6820 H   0  0  0  0  0  0  0  0  0  0  0  0
    3.2223   -4.6789   -1.6486 H   0  0  0  0  0  0  0  0  0  0  0  0
    1.1720   -4.1988   -2.9521 H   0  0  0  0  0  0  0  0  0  0  0  0
   -0.7008   -2.9542   -1.9134 H   0  0  0  0  0  0  0  0  0  0  0  0
   -1.1031   -3.2440    2.2250 H   0  0  0  0  0  0  0  0  0  0  0  0
   -2.2962   -1.9382    1.9816 H   0  0  0  0  0  0  0  0  0  0  0  0
  1  2  1  0
  2  3  1  0
  2  4  1  0
  4  5  1  0
  5  6  1  0
  6  7  1  0
  7  8  2  0
  7  9  1  0
  9 10  1  0
 10 11  1  0
 11 12  2  0
 12 13  1  0
 13 14  2  0
 14 15  1  0
 15 16  2  0
  9 17  1  0
 17 18  1  0
 18 19  2  0
 18 20  1  0
 20 21  1  0
 21 22  1  0
 22 23  2  0
 22 24  1  0
 24 25  1  0
 24 26  1  0
 26 27  1  0
 27 28  2  0
 27 29  1  0
 29 30  1  0
 30 31  1  0
 31 32  2  0
 32 33  1  0
 33 34  2  0
 34 35  1  0
 34 36  1  0
 36 37  2  0
 29 38  1  0
 38 39  1  0
 39 40  2  0
 39 41  1  0
 41 42  2  0
 42 43  1  0
 43 44  2  0
 44 45  1  0
 45 46  2  0
 46 47  1  0
 47 48  2  0
 48 49  1  0
 49 50  1  0
 50 51  1  0
 51 52  1  0
 52 53  2  0
 52  5  1  0
 16 11  1  0
 37 31  1  0
 48 43  1  0
  1 54  1  0
  1 55  1  0
  1 56  1  0
  2 57  1  0
  3 58  1  0
  3 59  1  0
  3 60  1  0
  4 61  1  0
  4 62  1  0
  5 63  1  1
  6 64  1  0
  9 65  1  1
 10 66  1  0
 10 67  1  0
 12 68  1  0
 13 69  1  0
 14 70  1  0
 15 71  1  0
 16 72  1  0
 17 73  1  0
 20 74  1  0
 20 75  1  0
 21 76  1  0
 24 77  1  1
 25 78  1  0
 25 79  1  0
 25 80  1  0
 26 81  1  0
 29 82  1  1
 30 83  1  0
 30 84  1  0
 32 85  1  0
 33 86  1  0
 35 87  1  0
 36 88  1  0
 37 89  1  0
 38 90  1  0
 41 91  1  0
 42 92  1  0
 44 93  1  0
 45 94  1  0
 46 95  1  0
 47 96  1  0
 50 97  1  0
 50 98  1  0
M  END
$$$$
