
     RDKit          3D

105108  0  0  0  0  0  0  0  0999 V2000
    0.2307    2.3592   -1.4884 C   0  0  0  0  0  0  0  0  0  0  0  0
   -0.7906    1.2285   -1.3038 C   0  0  1  0  0  0  0  0  0  0  0  0
   -1.0590    0.4930   -2.6333 C   0  0  0  0  0  0  0  0  0  0  0  0
    0.0940   -0.1452   -3.1069 O   0  0  0  0  0  0  0  0  0  0  0  0
   -0.4123    0.3041   -0.2119 N   0  0  0  0  0  0  0  0  0  0  0  0
    0.9411   -0.2606   -0.0777 C   0  0  0  0  0  0  0  0  0  0  0  0
    1.9162    0.5605    0.7987 C   0  0  1  0  0  0  0  0  0  0  0  0
    1.3088    0.8815    2.1742 C   0  0  0  0  0  0  0  0  0  0  0  0
    3.2549   -0.2278    0.9134 C   0  0  1  0  0  0  0  0  0  0  0  0
    4.3486    0.5875    1.6434 C   0  0  0  0  0  0  0  0  0  0  0  0
    5.6981    0.1406    1.2568 N   0  0  0  0  0  0  0  0  0  0  0  0
    6.5935   -0.4433    2.2615 C   0  0  0  0  0  0  0  0  0  0  0  0
    6.1732    0.2445   -0.1034 C   0  0  0  0  0  0  0  0  0  0  0  0
    7.0044   -0.6037   -0.5311 O   0  0  0  0  0  0  0  0  0  0  0  0
    5.6885    1.3193   -1.0470 C   0  0  0  0  0  0  0  0  0  0  0  0
    6.8411    2.0195   -1.7880 C   0  0  0  0  0  0  0  0  0  0  0  0
    7.7046    2.9019   -0.8685 C   0  0  0  0  0  0  0  0  0  0  0  0
    8.4657    2.0880    0.1042 N   0  0  0  0  0  0  0  0  0  0  0  0
    8.7561    2.8674    1.3168 C   0  0  0  0  0  0  0  0  0  0  0  0
    9.7277    1.6001   -0.4793 C   0  0  0  0  0  0  0  0  0  0  0  0
    3.0122   -1.4515    1.5972 O   0  0  0  0  0  0  0  0  0  0  0  0
    3.8735   -2.4996    1.1849 C   0  0  0  0  0  0  0  0  0  0  0  0
    3.0625   -3.7909    1.0217 C   0  0  0  0  0  0  0  0  0  0  0  0
    2.2640   -3.8116   -0.2977 C   0  0  0  0  0  0  0  0  0  0  0  0
    1.0412   -4.7518   -0.2724 C   0  0  0  0  0  0  0  0  0  0  0  0
   -0.2881   -4.1342    0.2316 C   0  0  1  0  0  0  0  0  0  0  0  0
   -0.2871   -3.8233    1.7316 C   0  0  0  0  0  0  0  0  0  0  0  0
   -0.6315   -2.9519   -0.5017 O   0  0  0  0  0  0  0  0  0  0  0  0
   -1.9603   -2.5245   -0.6450 C   0  0  0  0  0  0  0  0  0  0  0  0
   -2.8825   -3.3568   -1.2941 C   0  0  0  0  0  0  0  0  0  0  0  0
   -4.2240   -2.9858   -1.3982 C   0  0  0  0  0  0  0  0  0  0  0  0
   -4.6742   -1.7737   -0.8568 C   0  0  0  0  0  0  0  0  0  0  0  0
   -6.0761   -1.4514   -0.9285 N   0  0  0  0  0  0  0  0  0  0  0  0
   -6.6200   -0.1214   -0.9249 C   0  0  0  0  0  0  0  0  0  0  0  0
   -5.8723    0.8759   -1.1153 O   0  0  0  0  0  0  0  0  0  0  0  0
   -8.0296    0.0595   -0.7160 N   0  0  0  0  0  0  0  0  0  0  0  0
   -8.6714    1.3470   -0.6997 C   0  0  0  0  0  0  0  0  0  0  0  0
   -8.4142    2.2664   -1.7318 C   0  0  0  0  0  0  0  0  0  0  0  0
   -9.0650    3.4995   -1.7679 C   0  0  0  0  0  0  0  0  0  0  0  0
   -9.9950    3.8338   -0.7858 C   0  0  0  0  0  0  0  0  0  0  0  0
  -10.2780    2.9357    0.2532 C   0  0  0  0  0  0  0  0  0  0  0  0
  -11.2175    3.2756    1.2390 C   0  0  0  0  0  0  0  0  0  0  0  0
  -11.4974    2.3892    2.2798 C   0  0  0  0  0  0  0  0  0  0  0  0
  -10.8386    1.1621    2.3502 C   0  0  0  0  0  0  0  0  0  0  0  0
   -9.8979    0.8090    1.3784 C   0  0  0  0  0  0  0  0  0  0  0  0
   -9.6125    1.6814    0.3079 C   0  0  0  0  0  0  0  0  0  0  0  0
   -3.7538   -0.9371   -0.1987 C   0  0  0  0  0  0  0  0  0  0  0  0
   -2.3945   -1.2820   -0.1254 C   0  0  0  0  0  0  0  0  0  0  0  0
   -1.4658   -0.3414    0.5286 C   0  0  0  0  0  0  0  0  0  0  0  0
   -1.6123   -0.0926    1.7523 O   0  0  0  0  0  0  0  0  0  0  0  0
   -0.1482    3.0893   -2.2329 H   0  0  0  0  0  0  0  0  0  0  0  0
    0.3785    2.8949   -0.5299 H   0  0  0  0  0  0  0  0  0  0  0  0
    1.2027    1.9695   -1.8519 H   0  0  0  0  0  0  0  0  0  0  0  0
   -1.7449    1.7253   -1.0175 H   0  0  0  0  0  0  0  0  0  0  0  0
   -1.4003    1.2294   -3.3941 H   0  0  0  0  0  0  0  0  0  0  0  0
   -1.8791   -0.2441   -2.5026 H   0  0  0  0  0  0  0  0  0  0  0  0
   -0.2042   -0.7882   -3.8058 H   0  0  0  0  0  0  0  0  0  0  0  0
    0.8580   -1.2546    0.3904 H   0  0  0  0  0  0  0  0  0  0  0  0
    1.3925   -0.4088   -1.0775 H   0  0  0  0  0  0  0  0  0  0  0  0
    2.1333    1.5208    0.2894 H   0  0  0  0  0  0  0  0  0  0  0  0
    1.0274   -0.0497    2.7097 H   0  0  0  0  0  0  0  0  0  0  0  0
    2.0253    1.4528    2.7981 H   0  0  0  0  0  0  0  0  0  0  0  0
    0.4088    1.5210    2.0534 H   0  0  0  0  0  0  0  0  0  0  0  0
    3.5761   -0.3926   -0.1398 H   0  0  0  0  0  0  0  0  0  0  0  0
    4.1979    0.4783    2.7377 H   0  0  0  0  0  0  0  0  0  0  0  0
    4.2459    1.6728    1.4438 H   0  0  0  0  0  0  0  0  0  0  0  0
    6.8353   -1.4933    1.9882 H   0  0  0  0  0  0  0  0  0  0  0  0
    7.5355    0.1446    2.3116 H   0  0  0  0  0  0  0  0  0  0  0  0
    6.1336   -0.4482    3.2737 H   0  0  0  0  0  0  0  0  0  0  0  0
    5.0954    2.0907   -0.5179 H   0  0  0  0  0  0  0  0  0  0  0  0
    5.0189    0.8452   -1.7979 H   0  0  0  0  0  0  0  0  0  0  0  0
    7.4646    1.2759   -2.3283 H   0  0  0  0  0  0  0  0  0  0  0  0
    6.3919    2.6768   -2.5645 H   0  0  0  0  0  0  0  0  0  0  0  0
    7.0213    3.6109   -0.3474 H   0  0  0  0  0  0  0  0  0  0  0  0
    8.3871    3.5238   -1.4921 H   0  0  0  0  0  0  0  0  0  0  0  0
    9.3244    3.7932    1.0729 H   0  0  0  0  0  0  0  0  0  0  0  0
    9.3457    2.2569    2.0357 H   0  0  0  0  0  0  0  0  0  0  0  0
    7.8069    3.1421    1.8245 H   0  0  0  0  0  0  0  0  0  0  0  0
    9.5326    0.9864   -1.3803 H   0  0  0  0  0  0  0  0  0  0  0  0
   10.3983    2.4411   -0.7558 H   0  0  0  0  0  0  0  0  0  0  0  0
   10.2542    0.9458    0.2458 H   0  0  0  0  0  0  0  0  0  0  0  0
    4.4385   -2.3060    0.2458 H   0  0  0  0  0  0  0  0  0  0  0  0
    4.6206   -2.6651    1.9884 H   0  0  0  0  0  0  0  0  0  0  0  0
    3.7627   -4.6551    1.0239 H   0  0  0  0  0  0  0  0  0  0  0  0
    2.4076   -3.9195    1.9056 H   0  0  0  0  0  0  0  0  0  0  0  0
    1.9591   -2.8039   -0.6193 H   0  0  0  0  0  0  0  0  0  0  0  0
    2.9561   -4.1668   -1.0923 H   0  0  0  0  0  0  0  0  0  0  0  0
    1.2796   -5.6662    0.3104 H   0  0  0  0  0  0  0  0  0  0  0  0
    0.8627   -5.0942   -1.3159 H   0  0  0  0  0  0  0  0  0  0  0  0
   -1.0670   -4.9110    0.0629 H   0  0  0  0  0  0  0  0  0  0  0  0
    0.0694   -4.7003    2.3137 H   0  0  0  0  0  0  0  0  0  0  0  0
    0.3471   -2.9395    1.9537 H   0  0  0  0  0  0  0  0  0  0  0  0
   -1.3216   -3.5824    2.0584 H   0  0  0  0  0  0  0  0  0  0  0  0
   -2.5576   -4.2991   -1.7192 H   0  0  0  0  0  0  0  0  0  0  0  0
   -4.9178   -3.6504   -1.8979 H   0  0  0  0  0  0  0  0  0  0  0  0
   -6.7524   -2.2421   -1.0380 H   0  0  0  0  0  0  0  0  0  0  0  0
   -8.6066   -0.7886   -0.5181 H   0  0  0  0  0  0  0  0  0  0  0  0
   -7.7275    2.0188   -2.5302 H   0  0  0  0  0  0  0  0  0  0  0  0
   -8.8577    4.1959   -2.5702 H   0  0  0  0  0  0  0  0  0  0  0  0
  -10.4920    4.7958   -0.8367 H   0  0  0  0  0  0  0  0  0  0  0  0
  -11.7343    4.2267    1.2034 H   0  0  0  0  0  0  0  0  0  0  0  0
  -12.2230    2.6579    3.0373 H   0  0  0  0  0  0  0  0  0  0  0  0
  -11.0563    0.4839    3.1646 H   0  0  0  0  0  0  0  0  0  0  0  0
   -9.3957   -0.1426    1.4817 H   0  0  0  0  0  0  0  0  0  0  0  0
   -4.0885   -0.0225    0.2758 H   0  0  0  0  0  0  0  0  0  0  0  0
  1  2  1  0
  2  3  1  0
  3  4  1  0
  2  5  1  0
  5  6  1  0
  6  7  1  0
  7  8  1  0
  7  9  1  0
  9 10  1  0
 10 11  1  0
 11 12  1  0
 11 13  1  0
 13 14  2  0
 13 15  1  0
 15 16  1  0
 16 17  1  0
 17 18  1  0
 18 19  1  0
 18 20  1  0
  9 21  1  0
 21 22  1  0
 22 23  1  0
 23 24  1  0
 24 25  1  0
 25 26  1  0
 26 27  1  0
 26 28  1  0
 28 29  1  0
 29 30  2  0
 30 31  1  0
 31 32  2  0
 32 33  1  0
 33 34  1  0
 34 35  2  0
 34 36  1  0
 36 37  1  0
 37 38  2  0
 38 39  1  0
 39 40  2  0
 40 41  1  0
 41 42  2  0
 42 43  1  0
 43 44  2  0
 44 45  1  0
 45 46  2  0
 32 47  1  0
 47 48  2  0
 48 49  1  0
 49 50  2  0
 49  5  1  0
 48 29  1  0
 46 37  1  0
 46 41  1  0
  1 51  1  0
  1 52  1  0
  1 53  1  0
  2 54  1  1
  3 55  1  0
  3 56  1  0
  4 57  1  0
  6 58  1  0
  6 59  1  0
  7 60  1  6
  8 61  1  0
  8 62  1  0
  8 63  1  0
  9 64  1  6
 10 65  1  0
 10 66  1  0
 12 67  1  0
 12 68  1  0
 12 69  1  0
 15 70  1  0
 15 71  1  0
 16 72  1  0
 16 73  1  0
 17 74  1  0
 17 75  1  0
 19 76  1  0
 19 77  1  0
 19 78  1  0
 20 79  1  0
 20 80  1  0
 20 81  1  0
 22 82  1  0
 22 83  1  0
 23 84  1  0
 23 85  1  0
 24 86  1  0
 24 87  1  0
 25 88  1  0
 25 89  1  0
 26 90  1  1
 27 91  1  0
 27 92  1  0
 27 93  1  0
 30 94  1  0
 31 95  1  0
 33 96  1  0
 36 97  1  0
 38 98  1  0
 39 99  1  0
 40100  1  0
 42101  1  0
 43102  1  0
 44103  1  0
 45104  1  0
 47105  1  0
M  END
$$$$
