
     RDKit          3D

118121  0  0  0  0  0  0  0  0999 V2000
   -4.7955    3.9939   -2.2747 C   0  0  0  0  0  0  0  0  0  0  0  0
   -5.5882    3.0468   -1.3527 C   0  0  0  0  0  0  0  0  0  0  0  0
   -6.7319    2.4079   -2.1607 C   0  0  0  0  0  0  0  0  0  0  0  0
   -4.6668    1.9598   -0.7278 C   0  0  2  0  0  0  0  0  0  0  0  0
   -5.4210    1.0713    0.1617 N   0  0  0  0  0  0  0  0  0  0  0  0
   -4.8391   -0.1574    0.6191 C   0  0  0  0  0  0  0  0  0  0  0  0
   -4.0791   -0.7898   -0.1604 O   0  0  0  0  0  0  0  0  0  0  0  0
   -5.1895   -0.7881    1.9508 C   0  0  2  0  0  0  0  0  0  0  0  0
   -6.1402   -0.0479    2.9080 C   0  0  2  0  0  0  0  0  0  0  0  0
   -5.7382    1.4265    3.1775 C   0  0  0  0  0  0  0  0  0  0  0  0
   -5.9675   -0.8810    4.1870 C   0  0  0  0  0  0  0  0  0  0  0  0
   -4.5023   -1.3227    4.1709 C   0  0  0  0  0  0  0  0  0  0  0  0
   -4.0383   -1.1260    2.7961 N   0  0  0  0  0  0  0  0  0  0  0  0
   -2.7096   -0.6188    2.5761 C   0  0  0  0  0  0  0  0  0  0  0  0
   -2.3169    0.3954    3.2149 O   0  0  0  0  0  0  0  0  0  0  0  0
   -1.7388   -1.3643    1.7104 C   0  0  0  0  0  0  0  0  0  0  0  0
   -0.8840   -0.4302    0.9787 N   0  0  0  0  0  0  0  0  0  0  0  0
   -1.0555   -0.1373   -0.4169 C   0  0  0  0  0  0  0  0  0  0  0  0
   -0.7409   -1.0139   -1.3334 N   0  0  0  0  0  0  0  0  0  0  0  0
   -0.3018   -2.4062   -1.1630 C   0  0  2  0  0  0  0  0  0  0  0  0
    1.0357   -2.5241   -0.4513 C   0  0  0  0  0  0  0  0  0  0  0  0
    1.3443   -3.6328    0.0564 O   0  0  0  0  0  0  0  0  0  0  0  0
    1.9301   -1.4079   -0.3116 N   0  0  0  0  0  0  0  0  0  0  0  0
    3.3709   -1.4609   -0.6109 C   0  0  1  0  0  0  0  0  0  0  0  0
    3.8469   -0.0566   -0.9247 C   0  0  0  0  0  0  0  0  0  0  0  0
    4.1197    0.2510   -2.1195 O   0  0  0  0  0  0  0  0  0  0  0  0
    3.9087    0.9400    0.1110 N   0  0  0  0  0  0  0  0  0  0  0  0
    4.3693    2.3128   -0.1380 C   0  0  2  0  0  0  0  0  0  0  0  0
    5.8850    2.3551   -0.4255 C   0  0  0  0  0  0  0  0  0  0  0  0
    6.7431    1.9268    0.7377 C   0  0  0  0  0  0  0  0  0  0  0  0
    7.9289    2.6546    1.0624 N   0  0  0  0  0  0  0  0  0  0  0  0
    6.4451    0.9021    1.4101 O   0  0  0  0  0  0  0  0  0  0  0  0
    4.0058    3.2158    1.0127 C   0  0  0  0  0  0  0  0  0  0  0  0
    4.2676    2.9308    2.3072 N   0  0  0  0  0  0  0  0  0  0  0  0
    3.8725    3.9268    3.1447 C   0  0  0  0  0  0  0  0  0  0  0  0
    3.2940    5.0221    2.5211 C   0  0  0  0  0  0  0  0  0  0  0  0
    3.2946    4.7324    0.8635 S   0  0  0  0  0  0  0  0  0  0  0  0
    4.2369   -2.0998    0.5424 C   0  0  1  0  0  0  0  0  0  0  0  0
    3.5129   -2.2483    1.8933 C   0  0  0  0  0  0  0  0  0  0  0  0
    4.9302   -3.4102    0.1698 C   0  0  0  0  0  0  0  0  0  0  0  0
    4.3489   -4.3722   -0.6857 C   0  0  0  0  0  0  0  0  0  0  0  0
    5.0137   -5.5690   -0.9688 C   0  0  0  0  0  0  0  0  0  0  0  0
    6.2535   -5.8362   -0.3898 C   0  0  0  0  0  0  0  0  0  0  0  0
    6.8283   -4.9130    0.4857 C   0  0  0  0  0  0  0  0  0  0  0  0
    6.1758   -3.7082    0.7595 C   0  0  0  0  0  0  0  0  0  0  0  0
   -0.3144   -3.1236   -2.5585 C   0  0  0  0  0  0  0  0  0  0  0  0
    0.0225   -4.6253   -2.4143 C   0  0  0  0  0  0  0  0  0  0  0  0
   -1.7292   -3.0166   -3.1743 C   0  0  0  0  0  0  0  0  0  0  0  0
    0.6974   -2.4751   -3.5275 C   0  0  0  0  0  0  0  0  0  0  0  0
   -1.5164    1.2428   -0.8684 C   0  0  2  0  0  0  0  0  0  0  0  0
   -0.3735    2.1738   -1.4220 C   0  0  0  0  0  0  0  0  0  0  0  0
   -1.0062    3.4521   -2.0220 C   0  0  0  0  0  0  0  0  0  0  0  0
    0.4128    1.4727   -2.5570 C   0  0  0  0  0  0  0  0  0  0  0  0
    0.6176    2.6004   -0.3190 C   0  0  0  0  0  0  0  0  0  0  0  0
   -2.2579    1.9072    0.2171 N   0  0  0  0  0  0  0  0  0  0  0  0
   -3.5298    2.5649    0.0767 C   0  0  0  0  0  0  0  0  0  0  0  0
   -3.7574    3.5830    0.7856 O   0  0  0  0  0  0  0  0  0  0  0  0
   -4.0232    4.5483   -1.7049 H   0  0  0  0  0  0  0  0  0  0  0  0
   -4.3044    3.4201   -3.0895 H   0  0  0  0  0  0  0  0  0  0  0  0
   -5.4745    4.7483   -2.7295 H   0  0  0  0  0  0  0  0  0  0  0  0
   -6.0466    3.6547   -0.5426 H   0  0  0  0  0  0  0  0  0  0  0  0
   -7.3971    1.8103   -1.5065 H   0  0  0  0  0  0  0  0  0  0  0  0
   -7.3556    3.1921   -2.6401 H   0  0  0  0  0  0  0  0  0  0  0  0
   -6.3260    1.7441   -2.9567 H   0  0  0  0  0  0  0  0  0  0  0  0
   -4.2812    1.3607   -1.5765 H   0  0  0  0  0  0  0  0  0  0  0  0
   -6.3538    1.3625    0.5214 H   0  0  0  0  0  0  0  0  0  0  0  0
   -5.6897   -1.7472    1.6850 H   0  0  0  0  0  0  0  0  0  0  0  0
   -7.1936   -0.0977    2.5526 H   0  0  0  0  0  0  0  0  0  0  0  0
   -5.8991    1.7157    4.2364 H   0  0  0  0  0  0  0  0  0  0  0  0
   -6.3688    2.1178    2.5859 H   0  0  0  0  0  0  0  0  0  0  0  0
   -4.6750    1.6175    2.9313 H   0  0  0  0  0  0  0  0  0  0  0  0
   -6.6230   -1.7789    4.1306 H   0  0  0  0  0  0  0  0  0  0  0  0
   -6.2243   -0.3309    5.1188 H   0  0  0  0  0  0  0  0  0  0  0  0
   -3.9227   -0.6952    4.8834 H   0  0  0  0  0  0  0  0  0  0  0  0
   -4.4024   -2.3922    4.4584 H   0  0  0  0  0  0  0  0  0  0  0  0
   -1.1026   -2.0058    2.3556 H   0  0  0  0  0  0  0  0  0  0  0  0
   -2.2995   -2.0257    1.0209 H   0  0  0  0  0  0  0  0  0  0  0  0
   -0.2776    0.2120    1.5399 H   0  0  0  0  0  0  0  0  0  0  0  0
   -1.0467   -2.9318   -0.5338 H   0  0  0  0  0  0  0  0  0  0  0  0
    1.5088   -0.4732   -0.1309 H   0  0  0  0  0  0  0  0  0  0  0  0
    3.5079   -2.0312   -1.5534 H   0  0  0  0  0  0  0  0  0  0  0  0
    3.5248    0.6934    1.0494 H   0  0  0  0  0  0  0  0  0  0  0  0
    3.8449    2.6932   -1.0397 H   0  0  0  0  0  0  0  0  0  0  0  0
    6.1533    3.3945   -0.7192 H   0  0  0  0  0  0  0  0  0  0  0  0
    6.1267    1.7071   -1.2971 H   0  0  0  0  0  0  0  0  0  0  0  0
    8.4902    2.3969    1.9041 H   0  0  0  0  0  0  0  0  0  0  0  0
    8.2040    3.5036    0.5209 H   0  0  0  0  0  0  0  0  0  0  0  0
    4.0180    3.8687    4.2133 H   0  0  0  0  0  0  0  0  0  0  0  0
    2.9294    5.9118    3.0126 H   0  0  0  0  0  0  0  0  0  0  0  0
    5.0658   -1.3870    0.7498 H   0  0  0  0  0  0  0  0  0  0  0  0
    4.2559   -2.4208    2.6976 H   0  0  0  0  0  0  0  0  0  0  0  0
    2.8239   -3.1122    1.8936 H   0  0  0  0  0  0  0  0  0  0  0  0
    2.9501   -1.3280    2.1455 H   0  0  0  0  0  0  0  0  0  0  0  0
    3.3899   -4.2147   -1.1451 H   0  0  0  0  0  0  0  0  0  0  0  0
    4.5685   -6.2881   -1.6488 H   0  0  0  0  0  0  0  0  0  0  0  0
    6.7632   -6.7672   -0.6073 H   0  0  0  0  0  0  0  0  0  0  0  0
    7.7792   -5.1373    0.9576 H   0  0  0  0  0  0  0  0  0  0  0  0
    6.6375   -3.0123    1.4500 H   0  0  0  0  0  0  0  0  0  0  0  0
   -0.5927   -5.0913   -1.6129 H   0  0  0  0  0  0  0  0  0  0  0  0
   -0.1772   -5.1744   -3.3618 H   0  0  0  0  0  0  0  0  0  0  0  0
    1.0949   -4.7774   -2.1734 H   0  0  0  0  0  0  0  0  0  0  0  0
   -2.4905   -3.4423   -2.4836 H   0  0  0  0  0  0  0  0  0  0  0  0
   -1.7898   -3.5723   -4.1367 H   0  0  0  0  0  0  0  0  0  0  0  0
   -2.0032   -1.9595   -3.3846 H   0  0  0  0  0  0  0  0  0  0  0  0
    0.6744   -2.9872   -4.5145 H   0  0  0  0  0  0  0  0  0  0  0  0
    1.7297   -2.5504   -3.1311 H   0  0  0  0  0  0  0  0  0  0  0  0
    0.4600   -1.4034   -3.6931 H   0  0  0  0  0  0  0  0  0  0  0  0
   -2.1975    1.0577   -1.7194 H   0  0  0  0  0  0  0  0  0  0  0  0
   -0.2301    4.1105   -2.4679 H   0  0  0  0  0  0  0  0  0  0  0  0
   -1.7377    3.1922   -2.8183 H   0  0  0  0  0  0  0  0  0  0  0  0
   -1.5316    4.0423   -1.2421 H   0  0  0  0  0  0  0  0  0  0  0  0
   -0.2826    1.0430   -3.3114 H   0  0  0  0  0  0  0  0  0  0  0  0
    1.0587    0.6614   -2.1609 H   0  0  0  0  0  0  0  0  0  0  0  0
    1.0860    2.1903   -3.0804 H   0  0  0  0  0  0  0  0  0  0  0  0
    0.1291    3.2445    0.4403 H   0  0  0  0  0  0  0  0  0  0  0  0
    1.4457    3.1871   -0.7680 H   0  0  0  0  0  0  0  0  0  0  0  0
    1.0567    1.7229    0.1942 H   0  0  0  0  0  0  0  0  0  0  0  0
   -1.7397    2.1046    1.1028 H   0  0  0  0  0  0  0  0  0  0  0  0
  1  2  1  0
  2  3  1  0
  2  4  1  0
  4  5  1  0
  5  6  1  0
  6  7  2  0
  6  8  1  0
  8  9  1  0
  9 10  1  0
  9 11  1  0
 11 12  1  0
 12 13  1  0
 13 14  1  0
 14 15  2  0
 14 16  1  0
 16 17  1  0
 17 18  1  0
 18 19  2  0
 19 20  1  0
 20 21  1  0
 21 22  2  0
 21 23  1  0
 23 24  1  0
 24 25  1  0
 25 26  2  0
 25 27  1  0
 27 28  1  0
 28 29  1  0
 29 30  1  0
 30 31  1  0
 30 32  2  0
 28 33  1  0
 33 34  2  0
 34 35  1  0
 35 36  2  0
 36 37  1  0
 24 38  1  0
 38 39  1  0
 38 40  1  0
 40 41  2  0
 41 42  1  0
 42 43  2  0
 43 44  1  0
 44 45  2  0
 20 46  1  0
 46 47  1  0
 46 48  1  0
 46 49  1  0
 18 50  1  0
 50 51  1  0
 51 52  1  0
 51 53  1  0
 51 54  1  0
 50 55  1  0
 55 56  1  0
 56 57  2  0
 56  4  1  0
 13  8  1  0
 37 33  1  0
 45 40  1  0
  1 58  1  0
  1 59  1  0
  1 60  1  0
  2 61  1  0
  3 62  1  0
  3 63  1  0
  3 64  1  0
  4 65  1  6
  5 66  1  0
  8 67  1  6
  9 68  1  6
 10 69  1  0
 10 70  1  0
 10 71  1  0
 11 72  1  0
 11 73  1  0
 12 74  1  0
 12 75  1  0
 16 76  1  0
 16 77  1  0
 17 78  1  0
 20 79  1  1
 23 80  1  0
 24 81  1  6
 27 82  1  0
 28 83  1  6
 29 84  1  0
 29 85  1  0
 31 86  1  0
 31 87  1  0
 35 88  1  0
 36 89  1  0
 38 90  1  1
 39 91  1  0
 39 92  1  0
 39 93  1  0
 41 94  1  0
 42 95  1  0
 43 96  1  0
 44 97  1  0
 45 98  1  0
 47 99  1  0
 47100  1  0
 47101  1  0
 48102  1  0
 48103  1  0
 48104  1  0
 49105  1  0
 49106  1  0
 49107  1  0
 50108  1  6
 52109  1  0
 52110  1  0
 52111  1  0
 53112  1  0
 53113  1  0
 53114  1  0
 54115  1  0
 54116  1  0
 54117  1  0
 55118  1  0
M  END
$$$$
