
     RDKit          3D

 84 86  0  0  0  0  0  0  0  0999 V2000
   -3.3359   -2.2441    1.7918 C   0  0  0  0  0  0  0  0  0  0  0  0
   -3.8139   -2.7149    0.4086 C   0  0  0  0  0  0  0  0  0  0  0  0
   -5.2290   -3.2990    0.5261 C   0  0  0  0  0  0  0  0  0  0  0  0
   -3.8054   -1.5653   -0.6270 C   0  0  0  0  0  0  0  0  0  0  0  0
   -2.3992   -1.0865   -1.0522 C   0  0  1  0  0  0  0  0  0  0  0  0
   -1.6809   -2.1892   -1.7352 N   0  0  0  0  0  0  0  0  0  0  0  0
   -0.5154   -2.6494   -0.9643 C   0  0  0  0  0  0  0  0  0  0  0  0
    0.2118   -3.7669   -1.7242 C   0  0  0  0  0  0  0  0  0  0  0  0
    1.4597   -4.2848   -0.9915 C   0  0  0  0  0  0  0  0  0  0  0  0
    2.5691   -3.2241   -0.8502 C   0  0  0  0  0  0  0  0  0  0  0  0
    2.4512   -2.4942    0.4155 N   0  0  0  0  0  0  0  0  0  0  0  0
    3.0631   -1.2163    0.6652 C   0  0  0  0  0  0  0  0  0  0  0  0
    3.2365   -0.8607    1.8617 O   0  0  0  0  0  0  0  0  0  0  0  0
    3.3979   -0.2523   -0.4550 C   0  0  2  0  0  0  0  0  0  0  0  0
    4.5061    0.7646   -0.0836 C   0  0  0  0  0  0  0  0  0  0  0  0
    5.8279    0.0817    0.1730 C   0  0  0  0  0  0  0  0  0  0  0  0
    6.2998   -0.0930    1.4853 C   0  0  0  0  0  0  0  0  0  0  0  0
    7.5157   -0.7440    1.7185 C   0  0  0  0  0  0  0  0  0  0  0  0
    8.2697   -1.2239    0.6439 C   0  0  0  0  0  0  0  0  0  0  0  0
    7.8095   -1.0528   -0.6647 C   0  0  0  0  0  0  0  0  0  0  0  0
    6.5930   -0.4054   -0.9004 C   0  0  0  0  0  0  0  0  0  0  0  0
    2.1563    0.3879   -0.9170 N   0  0  0  0  0  0  0  0  0  0  0  0
    1.9214    1.8002   -0.9612 C   0  0  0  0  0  0  0  0  0  0  0  0
    1.9703    2.3843   -2.0777 O   0  0  0  0  0  0  0  0  0  0  0  0
    1.5856    2.6125    0.2703 C   0  0  2  0  0  0  0  0  0  0  0  0
    1.3116    1.8009    1.5460 C   0  0  0  0  0  0  0  0  0  0  0  0
    0.4793    3.5391   -0.0099 N   0  0  0  0  0  0  0  0  0  0  0  0
   -0.7995    3.2049   -0.5852 C   0  0  0  0  0  0  0  0  0  0  0  0
   -1.4454    4.1200   -1.1643 O   0  0  0  0  0  0  0  0  0  0  0  0
   -1.4557    1.8457   -0.4037 C   0  0  1  0  0  0  0  0  0  0  0  0
   -2.3450    1.8495    0.8624 C   0  0  0  0  0  0  0  0  0  0  0  0
   -3.4603    2.8667    0.8069 C   0  0  0  0  0  0  0  0  0  0  0  0
   -4.6405    2.5911    0.0953 C   0  0  0  0  0  0  0  0  0  0  0  0
   -5.6711    3.5330    0.0430 C   0  0  0  0  0  0  0  0  0  0  0  0
   -5.5356    4.7594    0.7011 C   0  0  0  0  0  0  0  0  0  0  0  0
   -6.5752    5.6836    0.6510 O   0  0  0  0  0  0  0  0  0  0  0  0
   -4.3590    5.0443    1.4081 C   0  0  0  0  0  0  0  0  0  0  0  0
   -3.3267    4.1035    1.4597 C   0  0  0  0  0  0  0  0  0  0  0  0
   -2.2322    1.4651   -1.5946 N   0  0  0  0  0  0  0  0  0  0  0  0
   -2.5646    0.1142   -1.9754 C   0  0  0  0  0  0  0  0  0  0  0  0
   -3.0737   -0.0757   -3.1144 O   0  0  0  0  0  0  0  0  0  0  0  0
   -3.9629   -1.4026    2.1584 H   0  0  0  0  0  0  0  0  0  0  0  0
   -3.4012   -3.0797    2.5215 H   0  0  0  0  0  0  0  0  0  0  0  0
   -2.2759   -1.9183    1.7585 H   0  0  0  0  0  0  0  0  0  0  0  0
   -3.1504   -3.5341    0.0612 H   0  0  0  0  0  0  0  0  0  0  0  0
   -5.9459   -2.5249    0.8745 H   0  0  0  0  0  0  0  0  0  0  0  0
   -5.5698   -3.6862   -0.4587 H   0  0  0  0  0  0  0  0  0  0  0  0
   -5.2358   -4.1443    1.2468 H   0  0  0  0  0  0  0  0  0  0  0  0
   -4.3431   -1.9033   -1.5405 H   0  0  0  0  0  0  0  0  0  0  0  0
   -4.3813   -0.7101   -0.2124 H   0  0  0  0  0  0  0  0  0  0  0  0
   -1.8557   -0.7728   -0.1451 H   0  0  0  0  0  0  0  0  0  0  0  0
   -1.3286   -1.8791   -2.6721 H   0  0  0  0  0  0  0  0  0  0  0  0
    0.1753   -1.7990   -0.7919 H   0  0  0  0  0  0  0  0  0  0  0  0
   -0.8388   -3.0428    0.0225 H   0  0  0  0  0  0  0  0  0  0  0  0
   -0.4904   -4.6167   -1.8689 H   0  0  0  0  0  0  0  0  0  0  0  0
    0.5075   -3.4046   -2.7333 H   0  0  0  0  0  0  0  0  0  0  0  0
    1.1791   -4.7118   -0.0069 H   0  0  0  0  0  0  0  0  0  0  0  0
    1.8673   -5.1243   -1.5943 H   0  0  0  0  0  0  0  0  0  0  0  0
    2.5230   -2.5364   -1.7188 H   0  0  0  0  0  0  0  0  0  0  0  0
    3.5579   -3.7299   -0.8708 H   0  0  0  0  0  0  0  0  0  0  0  0
    2.1631   -3.0417    1.2605 H   0  0  0  0  0  0  0  0  0  0  0  0
    3.8117   -0.8295   -1.3068 H   0  0  0  0  0  0  0  0  0  0  0  0
    4.6454    1.4771   -0.9258 H   0  0  0  0  0  0  0  0  0  0  0  0
    4.2110    1.3661    0.7982 H   0  0  0  0  0  0  0  0  0  0  0  0
    5.7275    0.2726    2.3277 H   0  0  0  0  0  0  0  0  0  0  0  0
    7.8731   -0.8811    2.7305 H   0  0  0  0  0  0  0  0  0  0  0  0
    9.2101   -1.7304    0.8222 H   0  0  0  0  0  0  0  0  0  0  0  0
    8.3943   -1.4233   -1.4977 H   0  0  0  0  0  0  0  0  0  0  0  0
    6.2479   -0.2845   -1.9196 H   0  0  0  0  0  0  0  0  0  0  0  0
    1.5694   -0.1771   -1.5703 H   0  0  0  0  0  0  0  0  0  0  0  0
    2.4871    3.2278    0.4880 H   0  0  0  0  0  0  0  0  0  0  0  0
    0.7724    2.4289    2.2840 H   0  0  0  0  0  0  0  0  0  0  0  0
    2.2647    1.5024    2.0204 H   0  0  0  0  0  0  0  0  0  0  0  0
    0.7255    0.8838    1.3606 H   0  0  0  0  0  0  0  0  0  0  0  0
    0.7062    4.5579    0.0494 H   0  0  0  0  0  0  0  0  0  0  0  0
   -0.6571    1.0960   -0.2875 H   0  0  0  0  0  0  0  0  0  0  0  0
   -1.7055    2.0428    1.7509 H   0  0  0  0  0  0  0  0  0  0  0  0
   -2.7906    0.8497    1.0305 H   0  0  0  0  0  0  0  0  0  0  0  0
   -4.7644    1.6474   -0.4180 H   0  0  0  0  0  0  0  0  0  0  0  0
   -6.5794    3.3081   -0.5051 H   0  0  0  0  0  0  0  0  0  0  0  0
   -6.5126    6.5768    1.1265 H   0  0  0  0  0  0  0  0  0  0  0  0
   -4.2461    5.9907    1.9207 H   0  0  0  0  0  0  0  0  0  0  0  0
   -2.4243    4.3368    2.0098 H   0  0  0  0  0  0  0  0  0  0  0  0
   -2.5316    2.2138   -2.2607 H   0  0  0  0  0  0  0  0  0  0  0  0
  1  2  1  0
  2  3  1  0
  2  4  1  0
  4  5  1  0
  5  6  1  0
  6  7  1  0
  7  8  1  0
  8  9  1  0
  9 10  1  0
 10 11  1  0
 11 12  1  0
 12 13  2  0
 12 14  1  0
 14 15  1  0
 15 16  1  0
 16 17  2  0
 17 18  1  0
 18 19  2  0
 19 20  1  0
 20 21  2  0
 14 22  1  0
 22 23  1  0
 23 24  2  0
 23 25  1  0
 25 26  1  0
 25 27  1  0
 27 28  1  0
 28 29  2  0
 28 30  1  0
 30 31  1  0
 31 32  1  0
 32 33  2  0
 33 34  1  0
 34 35  2  0
 35 36  1  0
 35 37  1  0
 37 38  2  0
 30 39  1  0
 39 40  1  0
 40 41  2  0
 40  5  1  0
 21 16  1  0
 38 32  1  0
  1 42  1  0
  1 43  1  0
  1 44  1  0
  2 45  1  0
  3 46  1  0
  3 47  1  0
  3 48  1  0
  4 49  1  0
  4 50  1  0
  5 51  1  1
  6 52  1  0
  7 53  1  0
  7 54  1  0
  8 55  1  0
  8 56  1  0
  9 57  1  0
  9 58  1  0
 10 59  1  0
 10 60  1  0
 11 61  1  0
 14 62  1  6
 15 63  1  0
 15 64  1  0
 17 65  1  0
 18 66  1  0
 19 67  1  0
 20 68  1  0
 21 69  1  0
 22 70  1  0
 25 71  1  1
 26 72  1  0
 26 73  1  0
 26 74  1  0
 27 75  1  0
 30 76  1  1
 31 77  1  0
 31 78  1  0
 33 79  1  0
 34 80  1  0
 36 81  1  0
 37 82  1  0
 38 83  1  0
 39 84  1  0
M  END
$$$$
