
     RDKit          3D

 77 80  0  0  0  0  0  0  0  0999 V2000
   -5.6440   -1.8215    2.0577 C   0  0  0  0  0  0  0  0  0  0  0  0
   -6.2877   -0.5007    2.3526 C   0  0  0  0  0  0  0  0  0  0  0  0
   -6.8250   -0.3247    3.4798 O   0  0  0  0  0  0  0  0  0  0  0  0
   -6.2802    0.5730    1.3913 N   0  0  0  0  0  0  0  0  0  0  0  0
   -7.0932    1.7663    1.5581 C   0  0  0  0  0  0  0  0  0  0  0  0
   -7.1080    2.4511    0.1984 C   0  0  0  0  0  0  0  0  0  0  0  0
   -5.9305    1.8687   -0.5770 C   0  0  0  0  0  0  0  0  0  0  0  0
   -5.6070    0.5324    0.0969 C   0  0  1  0  0  0  0  0  0  0  0  0
   -4.1176    0.3568    0.2459 C   0  0  0  0  0  0  0  0  0  0  0  0
   -3.5263    0.8399    1.2506 O   0  0  0  0  0  0  0  0  0  0  0  0
   -3.3700   -0.2966   -0.7904 N   0  0  0  0  0  0  0  0  0  0  0  0
   -1.9025   -0.3282   -0.7971 C   0  0  2  0  0  0  0  0  0  0  0  0
   -1.3607    0.9424   -1.4671 C   0  0  0  0  0  0  0  0  0  0  0  0
   -1.3876    2.0348   -0.5427 O   0  0  0  0  0  0  0  0  0  0  0  0
   -0.3428    2.9583   -0.3847 C   0  0  0  0  0  0  0  0  0  0  0  0
   -0.4594    3.8781    0.4671 O   0  0  0  0  0  0  0  0  0  0  0  0
    0.8961    2.8639   -1.1790 C   0  0  0  0  0  0  0  0  0  0  0  0
    0.8457    3.2908   -2.5123 C   0  0  0  0  0  0  0  0  0  0  0  0
    1.9405    3.1167   -3.3526 C   0  0  0  0  0  0  0  0  0  0  0  0
    3.0972    2.5073   -2.8747 C   0  0  0  0  0  0  0  0  0  0  0  0
    3.1816    2.0775   -1.5425 C   0  0  0  0  0  0  0  0  0  0  0  0
    4.4375    1.4320   -1.1101 C   0  0  0  0  0  0  0  0  0  0  0  0
    5.3314    2.1107   -0.2748 C   0  0  0  0  0  0  0  0  0  0  0  0
    6.5252    1.5043    0.1270 C   0  0  0  0  0  0  0  0  0  0  0  0
    7.3586    2.2002    0.9415 F   0  0  0  0  0  0  0  0  0  0  0  0
    6.8504    0.2012   -0.3127 C   0  0  0  0  0  0  0  0  0  0  0  0
    8.1202   -0.4506    0.1075 C   0  0  0  0  0  0  0  0  0  0  0  0
    8.9091    0.1327    0.8995 O   0  0  0  0  0  0  0  0  0  0  0  0
    8.4593   -1.7154   -0.3668 O   0  0  0  0  0  0  0  0  0  0  0  0
    5.9444   -0.4696   -1.1631 C   0  0  0  0  0  0  0  0  0  0  0  0
    6.1989   -1.7242   -1.6136 F   0  0  0  0  0  0  0  0  0  0  0  0
    4.7536    0.1456   -1.5582 C   0  0  0  0  0  0  0  0  0  0  0  0
    2.0716    2.2488   -0.6687 C   0  0  0  0  0  0  0  0  0  0  0  0
    2.1366    1.7842    0.7812 C   0  0  0  0  0  0  0  0  0  0  0  0
    0.9055    0.4941    1.1915 S   0  0  0  0  0  0  0  0  0  0  0  0
    1.5031   -0.7909    0.0341 C   0  0  0  0  0  0  0  0  0  0  0  0
    0.5894   -2.0416    0.0797 C   0  0  2  0  0  0  0  0  0  0  0  0
    1.4295   -3.2769    0.3627 C   0  0  0  0  0  0  0  0  0  0  0  0
    2.0811   -3.7933   -0.5882 O   0  0  0  0  0  0  0  0  0  0  0  0
    1.5722   -3.8269    1.6942 N   0  0  0  0  0  0  0  0  0  0  0  0
    0.9767   -3.1703    2.8634 C   0  0  0  0  0  0  0  0  0  0  0  0
    2.3571   -5.0537    1.8700 C   0  0  0  0  0  0  0  0  0  0  0  0
   -0.1495   -2.2050   -1.1871 N   0  0  0  0  0  0  0  0  0  0  0  0
   -1.3889   -1.5515   -1.5306 C   0  0  0  0  0  0  0  0  0  0  0  0
   -2.0122   -1.9523   -2.5509 O   0  0  0  0  0  0  0  0  0  0  0  0
   -4.5411   -1.7266    2.1347 H   0  0  0  0  0  0  0  0  0  0  0  0
   -5.9850   -2.5868    2.7865 H   0  0  0  0  0  0  0  0  0  0  0  0
   -5.9202   -2.1650    1.0393 H   0  0  0  0  0  0  0  0  0  0  0  0
   -6.6315    2.4253    2.3249 H   0  0  0  0  0  0  0  0  0  0  0  0
   -8.1277    1.4960    1.8640 H   0  0  0  0  0  0  0  0  0  0  0  0
   -8.0551    2.2069   -0.3312 H   0  0  0  0  0  0  0  0  0  0  0  0
   -7.0218    3.5552    0.3003 H   0  0  0  0  0  0  0  0  0  0  0  0
   -6.1903    1.7247   -1.6488 H   0  0  0  0  0  0  0  0  0  0  0  0
   -5.0733    2.5764   -0.5108 H   0  0  0  0  0  0  0  0  0  0  0  0
   -6.0328   -0.3000   -0.5058 H   0  0  0  0  0  0  0  0  0  0  0  0
   -3.8883   -0.5799   -1.6524 H   0  0  0  0  0  0  0  0  0  0  0  0
   -1.5529   -0.3690    0.2496 H   0  0  0  0  0  0  0  0  0  0  0  0
   -0.3288    0.7471   -1.8223 H   0  0  0  0  0  0  0  0  0  0  0  0
   -1.9680    1.2042   -2.3603 H   0  0  0  0  0  0  0  0  0  0  0  0
   -0.0565    3.7420   -2.9088 H   0  0  0  0  0  0  0  0  0  0  0  0
    1.8871    3.4432   -4.3830 H   0  0  0  0  0  0  0  0  0  0  0  0
    3.9367    2.3730   -3.5463 H   0  0  0  0  0  0  0  0  0  0  0  0
    5.0988    3.1111    0.0691 H   0  0  0  0  0  0  0  0  0  0  0  0
    9.3250   -2.1623   -0.0881 H   0  0  0  0  0  0  0  0  0  0  0  0
    4.0711   -0.3867   -2.2092 H   0  0  0  0  0  0  0  0  0  0  0  0
    3.1299    1.3923    1.0687 H   0  0  0  0  0  0  0  0  0  0  0  0
    1.9489    2.6588    1.4391 H   0  0  0  0  0  0  0  0  0  0  0  0
    2.5479   -1.0377    0.3254 H   0  0  0  0  0  0  0  0  0  0  0  0
    1.5452   -0.3888   -0.9982 H   0  0  0  0  0  0  0  0  0  0  0  0
   -0.1570   -1.9523    0.8906 H   0  0  0  0  0  0  0  0  0  0  0  0
    1.2946   -3.6524    3.8113 H   0  0  0  0  0  0  0  0  0  0  0  0
   -0.1308   -3.2288    2.8070 H   0  0  0  0  0  0  0  0  0  0  0  0
    1.2978   -2.1084    2.9044 H   0  0  0  0  0  0  0  0  0  0  0  0
    1.9343   -5.8622    1.2376 H   0  0  0  0  0  0  0  0  0  0  0  0
    3.4107   -4.8710    1.5715 H   0  0  0  0  0  0  0  0  0  0  0  0
    2.3480   -5.4025    2.9239 H   0  0  0  0  0  0  0  0  0  0  0  0
    0.2058   -2.8941   -1.8886 H   0  0  0  0  0  0  0  0  0  0  0  0
  1  2  1  0
  2  3  2  0
  2  4  1  0
  4  5  1  0
  5  6  1  0
  6  7  1  0
  7  8  1  0
  8  9  1  0
  9 10  2  0
  9 11  1  0
 11 12  1  0
 12 13  1  0
 13 14  1  0
 14 15  1  0
 15 16  2  0
 15 17  1  0
 17 18  2  0
 18 19  1  0
 19 20  2  0
 20 21  1  0
 21 22  1  0
 22 23  2  0
 23 24  1  0
 24 25  1  0
 24 26  2  0
 26 27  1  0
 27 28  2  0
 27 29  1  0
 26 30  1  0
 30 31  1  0
 30 32  2  0
 21 33  2  0
 33 34  1  0
 34 35  1  0
 35 36  1  0
 36 37  1  0
 37 38  1  0
 38 39  2  0
 38 40  1  0
 40 41  1  0
 40 42  1  0
 37 43  1  0
 43 44  1  0
 44 45  2  0
  8  4  1  0
 44 12  1  0
 33 17  1  0
 32 22  1  0
  1 46  1  0
  1 47  1  0
  1 48  1  0
  5 49  1  0
  5 50  1  0
  6 51  1  0
  6 52  1  0
  7 53  1  0
  7 54  1  0
  8 55  1  6
 11 56  1  0
 12 57  1  1
 13 58  1  0
 13 59  1  0
 18 60  1  0
 19 61  1  0
 20 62  1  0
 23 63  1  0
 29 64  1  0
 32 65  1  0
 34 66  1  0
 34 67  1  0
 36 68  1  0
 36 69  1  0
 37 70  1  1
 41 71  1  0
 41 72  1  0
 41 73  1  0
 42 74  1  0
 42 75  1  0
 42 76  1  0
 43 77  1  0
M  END
$$$$
