
     RDKit          3D

 62 64  0  0  0  0  0  0  0  0999 V2000
    7.8129    1.5476   -1.2474 C   0  0  0  0  0  0  0  0  0  0  0  0
    6.6065    1.2829   -0.3518 C   0  0  0  0  0  0  0  0  0  0  0  0
    6.3436   -0.2191   -0.2076 C   0  0  0  0  0  0  0  0  0  0  0  0
    5.2000   -0.4509    0.6711 N   0  0  0  0  0  0  0  0  0  0  0  0
    3.8455   -0.2629    0.2383 C   0  0  0  0  0  0  0  0  0  0  0  0
    3.5979    0.0381   -0.9618 O   0  0  0  0  0  0  0  0  0  0  0  0
    2.7134   -0.5026    1.1959 C   0  0  0  0  0  0  0  0  0  0  0  0
    1.5459    0.3359    0.8556 N   0  0  0  0  0  0  0  0  0  0  0  0
    1.7574    1.7340    1.2598 C   0  0  0  0  0  0  0  0  0  0  0  0
    0.5359    2.5564    0.8613 C   0  0  0  0  0  0  0  0  0  0  0  0
   -0.6372    2.0659    1.4864 O   0  0  0  0  0  0  0  0  0  0  0  0
   -0.9123    0.7009    1.1692 C   0  0  0  0  0  0  0  0  0  0  0  0
   -2.1313    0.2990    2.0757 C   0  0  0  0  0  0  0  0  0  0  0  0
   -2.3186   -1.1879    2.4623 C   0  0  0  0  0  0  0  0  0  0  0  0
   -2.5730   -2.1543    1.2923 C   0  0  0  0  0  0  0  0  0  0  0  0
   -4.0571   -2.3462    0.9345 C   0  0  0  0  0  0  0  0  0  0  0  0
   -4.6756   -1.1595    0.2327 C   0  0  0  0  0  0  0  0  0  0  0  0
   -5.6418   -0.3852    0.8961 C   0  0  0  0  0  0  0  0  0  0  0  0
   -6.2745    0.6724    0.2393 C   0  0  0  0  0  0  0  0  0  0  0  0
   -5.9619    0.9587   -1.0894 C   0  0  0  0  0  0  0  0  0  0  0  0
   -4.9944    0.2073   -1.7575 C   0  0  0  0  0  0  0  0  0  0  0  0
   -4.3189   -0.8345   -1.0946 C   0  0  0  0  0  0  0  0  0  0  0  0
   -3.2919   -1.5560   -1.7205 O   0  0  0  0  0  0  0  0  0  0  0  0
   -2.3648   -1.0210   -2.6692 C   0  0  0  0  0  0  0  0  0  0  0  0
   -0.9341   -1.1598   -2.1299 C   0  0  0  0  0  0  0  0  0  0  0  0
   -0.5108   -0.0299   -1.2933 N   0  0  0  0  0  0  0  0  0  0  0  0
   -1.3307    0.6069   -0.2995 C   0  0  0  0  0  0  0  0  0  0  0  0
   -2.3394    1.2597   -0.6761 O   0  0  0  0  0  0  0  0  0  0  0  0
    0.3302   -0.1816    1.5069 C   0  0  0  0  0  0  0  0  0  0  0  0
    7.9804    2.6426   -1.3270 H   0  0  0  0  0  0  0  0  0  0  0  0
    8.7241    1.0807   -0.8163 H   0  0  0  0  0  0  0  0  0  0  0  0
    7.6370    1.1382   -2.2656 H   0  0  0  0  0  0  0  0  0  0  0  0
    5.7153    1.7820   -0.7913 H   0  0  0  0  0  0  0  0  0  0  0  0
    6.7949    1.7253    0.6506 H   0  0  0  0  0  0  0  0  0  0  0  0
    6.1544   -0.6796   -1.2020 H   0  0  0  0  0  0  0  0  0  0  0  0
    7.2420   -0.7081    0.2308 H   0  0  0  0  0  0  0  0  0  0  0  0
    5.3786   -0.8202    1.6330 H   0  0  0  0  0  0  0  0  0  0  0  0
    2.4525   -1.5811    1.1158 H   0  0  0  0  0  0  0  0  0  0  0  0
    3.0464   -0.3146    2.2418 H   0  0  0  0  0  0  0  0  0  0  0  0
    1.9179    1.8144    2.3595 H   0  0  0  0  0  0  0  0  0  0  0  0
    2.6465    2.1547    0.7411 H   0  0  0  0  0  0  0  0  0  0  0  0
    0.6941    3.6042    1.1911 H   0  0  0  0  0  0  0  0  0  0  0  0
    0.4224    2.5810   -0.2442 H   0  0  0  0  0  0  0  0  0  0  0  0
   -3.0814    0.6838    1.6486 H   0  0  0  0  0  0  0  0  0  0  0  0
   -2.0205    0.8425    3.0422 H   0  0  0  0  0  0  0  0  0  0  0  0
   -3.1604   -1.2574    3.1850 H   0  0  0  0  0  0  0  0  0  0  0  0
   -1.4262   -1.5325    3.0264 H   0  0  0  0  0  0  0  0  0  0  0  0
   -2.1860   -3.1514    1.5972 H   0  0  0  0  0  0  0  0  0  0  0  0
   -1.9884   -1.8668    0.4064 H   0  0  0  0  0  0  0  0  0  0  0  0
   -4.1445   -3.2255    0.2597 H   0  0  0  0  0  0  0  0  0  0  0  0
   -4.6293   -2.6084    1.8505 H   0  0  0  0  0  0  0  0  0  0  0  0
   -5.9071   -0.5998    1.9229 H   0  0  0  0  0  0  0  0  0  0  0  0
   -7.0172    1.2634    0.7578 H   0  0  0  0  0  0  0  0  0  0  0  0
   -6.4704    1.7657   -1.6034 H   0  0  0  0  0  0  0  0  0  0  0  0
   -4.7795    0.4389   -2.7916 H   0  0  0  0  0  0  0  0  0  0  0  0
   -2.4532   -1.6118   -3.6043 H   0  0  0  0  0  0  0  0  0  0  0  0
   -2.5686    0.0381   -2.9252 H   0  0  0  0  0  0  0  0  0  0  0  0
   -0.8292   -2.1060   -1.5589 H   0  0  0  0  0  0  0  0  0  0  0  0
   -0.2393   -1.2339   -2.9938 H   0  0  0  0  0  0  0  0  0  0  0  0
    0.4463    0.3539   -1.4556 H   0  0  0  0  0  0  0  0  0  0  0  0
    0.4778   -0.2035    2.6121 H   0  0  0  0  0  0  0  0  0  0  0  0
    0.1498   -1.2232    1.1634 H   0  0  0  0  0  0  0  0  0  0  0  0
  1  2  1  0
  2  3  1  0
  3  4  1  0
  4  5  1  0
  5  6  2  0
  5  7  1  0
  7  8  1  0
  8  9  1  0
  9 10  1  0
 10 11  1  0
 11 12  1  0
 12 13  1  0
 13 14  1  0
 14 15  1  0
 15 16  1  0
 16 17  1  0
 17 18  2  0
 18 19  1  0
 19 20  2  0
 20 21  1  0
 21 22  2  0
 22 23  1  0
 23 24  1  0
 24 25  1  0
 25 26  1  0
 26 27  1  0
 27 28  2  0
 12 29  1  0
 29  8  1  0
 27 12  1  0
 22 17  1  0
  1 30  1  0
  1 31  1  0
  1 32  1  0
  2 33  1  0
  2 34  1  0
  3 35  1  0
  3 36  1  0
  4 37  1  0
  7 38  1  0
  7 39  1  0
  9 40  1  0
  9 41  1  0
 10 42  1  0
 10 43  1  0
 13 44  1  0
 13 45  1  0
 14 46  1  0
 14 47  1  0
 15 48  1  0
 15 49  1  0
 16 50  1  0
 16 51  1  0
 18 52  1  0
 19 53  1  0
 20 54  1  0
 21 55  1  0
 24 56  1  0
 24 57  1  0
 25 58  1  0
 25 59  1  0
 26 60  1  0
 29 61  1  0
 29 62  1  0
M  END
$$$$
