
     RDKit          3D

 75 76  0  0  0  0  0  0  0  0999 V2000
    0.5461   -4.4027   -0.5690 C   0  0  0  0  0  0  0  0  0  0  0  0
    0.1364   -3.2383   -1.4861 C   0  0  1  0  0  0  0  0  0  0  0  0
   -1.1995   -3.5315   -2.1884 C   0  0  0  0  0  0  0  0  0  0  0  0
   -1.0786   -4.6333   -3.0478 O   0  0  0  0  0  0  0  0  0  0  0  0
    0.0965   -1.9464   -0.7613 N   0  0  0  0  0  0  0  0  0  0  0  0
   -0.6564   -1.7466    0.4931 C   0  0  0  0  0  0  0  0  0  0  0  0
   -2.1123   -1.2602    0.2357 C   0  0  1  0  0  0  0  0  0  0  0  0
   -3.0576   -1.9046    1.2717 C   0  0  0  0  0  0  0  0  0  0  0  0
   -2.2149    0.2996    0.2063 C   0  0  1  0  0  0  0  0  0  0  0  0
   -3.5410    0.7856   -0.4558 C   0  0  0  0  0  0  0  0  0  0  0  0
   -4.7529    0.4657    0.3370 N   0  0  0  0  0  0  0  0  0  0  0  0
   -5.9112    0.2885   -0.5530 C   0  0  0  0  0  0  0  0  0  0  0  0
   -5.0566    1.5105    1.3320 C   0  0  0  0  0  0  0  0  0  0  0  0
   -2.0054    0.8117    1.5184 O   0  0  0  0  0  0  0  0  0  0  0  0
   -1.7097    2.2015    1.5328 C   0  0  0  0  0  0  0  0  0  0  0  0
   -0.2651    2.5224    1.0932 C   0  0  0  0  0  0  0  0  0  0  0  0
   -0.2495    3.6300    0.0247 C   0  0  0  0  0  0  0  0  0  0  0  0
    1.1723    4.0119   -0.4384 C   0  0  0  0  0  0  0  0  0  0  0  0
    1.5848    3.3096   -1.7513 C   0  0  1  0  0  0  0  0  0  0  0  0
    2.8849    3.8704   -2.3491 C   0  0  0  0  0  0  0  0  0  0  0  0
    1.6159    1.8821   -1.6302 O   0  0  0  0  0  0  0  0  0  0  0  0
    2.3667    1.0894   -0.7411 C   0  0  0  0  0  0  0  0  0  0  0  0
    3.4572    1.5939   -0.0106 C   0  0  0  0  0  0  0  0  0  0  0  0
    4.1382    0.7928    0.9048 C   0  0  0  0  0  0  0  0  0  0  0  0
    3.7567   -0.5423    1.1171 C   0  0  0  0  0  0  0  0  0  0  0  0
    4.4621   -1.3762    2.0734 N   0  0  0  0  0  0  0  0  0  0  0  0
    4.4224   -2.8400    1.9615 C   0  0  0  0  0  0  0  0  0  0  0  0
    5.2262   -0.7689    3.1702 C   0  0  0  0  0  0  0  0  0  0  0  0
    2.6758   -1.0514    0.3748 C   0  0  0  0  0  0  0  0  0  0  0  0
    1.9821   -0.2555   -0.5546 C   0  0  0  0  0  0  0  0  0  0  0  0
    0.8367   -0.8405   -1.3017 C   0  0  0  0  0  0  0  0  0  0  0  0
    0.5255   -0.3953   -2.4381 O   0  0  0  0  0  0  0  0  0  0  0  0
    1.4356   -4.1323    0.0351 H   0  0  0  0  0  0  0  0  0  0  0  0
   -0.2807   -4.6920    0.1136 H   0  0  0  0  0  0  0  0  0  0  0  0
    0.8063   -5.2929   -1.1811 H   0  0  0  0  0  0  0  0  0  0  0  0
    0.9194   -3.1765   -2.2758 H   0  0  0  0  0  0  0  0  0  0  0  0
   -1.5315   -2.6385   -2.7643 H   0  0  0  0  0  0  0  0  0  0  0  0
   -1.9797   -3.7658   -1.4350 H   0  0  0  0  0  0  0  0  0  0  0  0
   -0.5824   -4.3185   -3.8495 H   0  0  0  0  0  0  0  0  0  0  0  0
   -0.1245   -1.0225    1.1482 H   0  0  0  0  0  0  0  0  0  0  0  0
   -0.6506   -2.6888    1.0764 H   0  0  0  0  0  0  0  0  0  0  0  0
   -2.4355   -1.6320   -0.7553 H   0  0  0  0  0  0  0  0  0  0  0  0
   -4.1185   -1.7869    0.9820 H   0  0  0  0  0  0  0  0  0  0  0  0
   -2.8868   -3.0011    1.3218 H   0  0  0  0  0  0  0  0  0  0  0  0
   -2.8948   -1.4774    2.2844 H   0  0  0  0  0  0  0  0  0  0  0  0
   -1.4065    0.6439   -0.4745 H   0  0  0  0  0  0  0  0  0  0  0  0
   -3.5862    0.2909   -1.4527 H   0  0  0  0  0  0  0  0  0  0  0  0
   -3.4957    1.8679   -0.7045 H   0  0  0  0  0  0  0  0  0  0  0  0
   -6.8122    0.0102    0.0351 H   0  0  0  0  0  0  0  0  0  0  0  0
   -5.7271   -0.5460   -1.2637 H   0  0  0  0  0  0  0  0  0  0  0  0
   -6.1212    1.2191   -1.1259 H   0  0  0  0  0  0  0  0  0  0  0  0
   -6.0364    1.3134    1.8179 H   0  0  0  0  0  0  0  0  0  0  0  0
   -4.3095    1.4948    2.1489 H   0  0  0  0  0  0  0  0  0  0  0  0
   -5.0898    2.5212    0.8670 H   0  0  0  0  0  0  0  0  0  0  0  0
   -1.8261    2.5493    2.5819 H   0  0  0  0  0  0  0  0  0  0  0  0
   -2.4602    2.7939    0.9709 H   0  0  0  0  0  0  0  0  0  0  0  0
    0.3177    2.8629    1.9776 H   0  0  0  0  0  0  0  0  0  0  0  0
    0.2339    1.6126    0.7159 H   0  0  0  0  0  0  0  0  0  0  0  0
   -0.7262    4.5351    0.4641 H   0  0  0  0  0  0  0  0  0  0  0  0
   -0.8742    3.3213   -0.8426 H   0  0  0  0  0  0  0  0  0  0  0  0
    1.1822    5.1076   -0.6310 H   0  0  0  0  0  0  0  0  0  0  0  0
    1.9097    3.8346    0.3709 H   0  0  0  0  0  0  0  0  0  0  0  0
    0.7944    3.5344   -2.5007 H   0  0  0  0  0  0  0  0  0  0  0  0
    3.5982    4.2076   -1.5704 H   0  0  0  0  0  0  0  0  0  0  0  0
    2.6564    4.7574   -2.9798 H   0  0  0  0  0  0  0  0  0  0  0  0
    3.3740    3.1067   -2.9913 H   0  0  0  0  0  0  0  0  0  0  0  0
    3.7972    2.6059   -0.1265 H   0  0  0  0  0  0  0  0  0  0  0  0
    4.9736    1.2251    1.4388 H   0  0  0  0  0  0  0  0  0  0  0  0
    4.6247   -3.1455    0.9133 H   0  0  0  0  0  0  0  0  0  0  0  0
    5.1945   -3.3190    2.6012 H   0  0  0  0  0  0  0  0  0  0  0  0
    3.4260   -3.2157    2.2759 H   0  0  0  0  0  0  0  0  0  0  0  0
    4.6119    0.0079    3.6733 H   0  0  0  0  0  0  0  0  0  0  0  0
    6.1572   -0.3130    2.7733 H   0  0  0  0  0  0  0  0  0  0  0  0
    5.5074   -1.5207    3.9369 H   0  0  0  0  0  0  0  0  0  0  0  0
    2.3605   -2.0704    0.5277 H   0  0  0  0  0  0  0  0  0  0  0  0
  1  2  1  0
  2  3  1  0
  3  4  1  0
  2  5  1  0
  5  6  1  0
  6  7  1  0
  7  8  1  0
  7  9  1  0
  9 10  1  0
 10 11  1  0
 11 12  1  0
 11 13  1  0
  9 14  1  0
 14 15  1  0
 15 16  1  0
 16 17  1  0
 17 18  1  0
 18 19  1  0
 19 20  1  0
 19 21  1  0
 21 22  1  0
 22 23  2  0
 23 24  1  0
 24 25  2  0
 25 26  1  0
 26 27  1  0
 26 28  1  0
 25 29  1  0
 29 30  2  0
 30 31  1  0
 31 32  2  0
 31  5  1  0
 30 22  1  0
  1 33  1  0
  1 34  1  0
  1 35  1  0
  2 36  1  6
  3 37  1  0
  3 38  1  0
  4 39  1  0
  6 40  1  0
  6 41  1  0
  7 42  1  6
  8 43  1  0
  8 44  1  0
  8 45  1  0
  9 46  1  6
 10 47  1  0
 10 48  1  0
 12 49  1  0
 12 50  1  0
 12 51  1  0
 13 52  1  0
 13 53  1  0
 13 54  1  0
 15 55  1  0
 15 56  1  0
 16 57  1  0
 16 58  1  0
 17 59  1  0
 17 60  1  0
 18 61  1  0
 18 62  1  0
 19 63  1  6
 20 64  1  0
 20 65  1  0
 20 66  1  0
 23 67  1  0
 24 68  1  0
 27 69  1  0
 27 70  1  0
 27 71  1  0
 28 72  1  0
 28 73  1  0
 28 74  1  0
 29 75  1  0
M  END
$$$$
