
     RDKit          3D

 59 60  0  0  0  0  0  0  0  0999 V2000
    0.2423   -2.1091   -1.3507 C   0  0  0  0  0  0  0  0  0  0  0  0
   -0.0434   -0.7791   -0.6359 C   0  0  1  0  0  0  0  0  0  0  0  0
   -0.7395   -1.0076    0.7321 C   0  0  0  0  0  0  0  0  0  0  0  0
   -2.1575   -1.3898    0.5826 N   0  0  0  0  0  0  0  0  0  0  0  0
   -2.7153   -2.5779    1.2614 C   0  0  2  0  0  0  0  0  0  0  0  0
   -2.5260   -2.4752    2.7803 C   0  0  0  0  0  0  0  0  0  0  0  0
   -2.1238   -3.8868    0.7106 C   0  0  0  0  0  0  0  0  0  0  0  0
   -2.4946   -4.0676   -0.6293 O   0  0  0  0  0  0  0  0  0  0  0  0
   -3.0901   -0.4379    0.0408 C   0  0  0  0  0  0  0  0  0  0  0  0
   -3.7926   -0.7554   -0.9559 O   0  0  0  0  0  0  0  0  0  0  0  0
   -3.2761    0.9122    0.6778 C   0  0  0  0  0  0  0  0  0  0  0  0
   -2.6149    2.0386   -0.1431 C   0  0  0  0  0  0  0  0  0  0  0  0
   -1.6600    2.8818    0.7111 C   0  0  0  0  0  0  0  0  0  0  0  0
   -0.9058    3.8217   -0.1179 N   0  0  0  0  0  0  0  0  0  0  0  0
   -1.1720    5.1169   -0.1761 N   0  0  0  0  0  0  0  0  0  0  0  0
   -0.3448    5.7249   -1.0146 N   0  0  0  0  0  0  0  0  0  0  0  0
    0.4808    4.7830   -1.5121 C   0  0  0  0  0  0  0  0  0  0  0  0
    0.1384    3.5768   -0.9400 C   0  0  0  0  0  0  0  0  0  0  0  0
    0.7063    2.2380   -1.3175 C   0  0  0  0  0  0  0  0  0  0  0  0
    0.8646    1.4286   -0.1683 O   0  0  0  0  0  0  0  0  0  0  0  0
    1.2409    0.1048   -0.5208 C   0  0  1  0  0  0  0  0  0  0  0  0
    2.2337   -0.4406    0.5458 C   0  0  0  0  0  0  0  0  0  0  0  0
    3.5780    0.1789    0.5415 N   0  0  0  0  0  0  0  0  0  0  0  0
    3.5869    1.6024    0.8996 C   0  0  0  0  0  0  0  0  0  0  0  0
    4.5032   -0.1112   -0.9148 S   0  0  0  0  0  6  0  0  0  0  0  0
    4.3300   -1.7947   -1.4728 C   0  0  0  0  0  0  0  0  0  0  0  0
    5.9557    0.1342   -0.6180 O   0  0  0  0  0  0  0  0  0  0  0  0
    4.0724    0.8211   -2.0130 O   0  0  0  0  0  0  0  0  0  0  0  0
   -0.7118   -2.5948   -1.6332 H   0  0  0  0  0  0  0  0  0  0  0  0
    0.8196   -2.8045   -0.7073 H   0  0  0  0  0  0  0  0  0  0  0  0
    0.8070   -1.9336   -2.2904 H   0  0  0  0  0  0  0  0  0  0  0  0
   -0.7491   -0.2376   -1.2962 H   0  0  0  0  0  0  0  0  0  0  0  0
   -0.1804   -1.7796    1.2999 H   0  0  0  0  0  0  0  0  0  0  0  0
   -0.6860   -0.0840    1.3425 H   0  0  0  0  0  0  0  0  0  0  0  0
   -3.8151   -2.6231    1.0868 H   0  0  0  0  0  0  0  0  0  0  0  0
   -3.0926   -3.2839    3.2891 H   0  0  0  0  0  0  0  0  0  0  0  0
   -2.9109   -1.4988    3.1439 H   0  0  0  0  0  0  0  0  0  0  0  0
   -1.4566   -2.5679    3.0621 H   0  0  0  0  0  0  0  0  0  0  0  0
   -1.0172   -3.8784    0.7802 H   0  0  0  0  0  0  0  0  0  0  0  0
   -2.4809   -4.7509    1.3168 H   0  0  0  0  0  0  0  0  0  0  0  0
   -3.4449   -4.3550   -0.6272 H   0  0  0  0  0  0  0  0  0  0  0  0
   -4.3658    1.1149    0.7635 H   0  0  0  0  0  0  0  0  0  0  0  0
   -2.8876    0.8778    1.7189 H   0  0  0  0  0  0  0  0  0  0  0  0
   -3.4043    2.7043   -0.5556 H   0  0  0  0  0  0  0  0  0  0  0  0
   -2.0694    1.6262   -1.0141 H   0  0  0  0  0  0  0  0  0  0  0  0
   -2.2535    3.4462    1.4636 H   0  0  0  0  0  0  0  0  0  0  0  0
   -0.9557    2.2402    1.2763 H   0  0  0  0  0  0  0  0  0  0  0  0
    1.2519    4.9632   -2.2492 H   0  0  0  0  0  0  0  0  0  0  0  0
    0.0264    1.7735   -2.0634 H   0  0  0  0  0  0  0  0  0  0  0  0
    1.6946    2.3985   -1.8026 H   0  0  0  0  0  0  0  0  0  0  0  0
    1.7554    0.0675   -1.5068 H   0  0  0  0  0  0  0  0  0  0  0  0
    2.3576   -1.5349    0.4259 H   0  0  0  0  0  0  0  0  0  0  0  0
    1.7917   -0.3081    1.5569 H   0  0  0  0  0  0  0  0  0  0  0  0
    2.9251    1.7932    1.7716 H   0  0  0  0  0  0  0  0  0  0  0  0
    3.2691    2.2392    0.0496 H   0  0  0  0  0  0  0  0  0  0  0  0
    4.6156    1.9012    1.1910 H   0  0  0  0  0  0  0  0  0  0  0  0
    4.5309   -2.4884   -0.6305 H   0  0  0  0  0  0  0  0  0  0  0  0
    5.0560   -1.9900   -2.2888 H   0  0  0  0  0  0  0  0  0  0  0  0
    3.3039   -1.9631   -1.8562 H   0  0  0  0  0  0  0  0  0  0  0  0
  1  2  1  0
  2  3  1  0
  3  4  1  0
  4  5  1  0
  5  6  1  0
  5  7  1  0
  7  8  1  0
  4  9  1  0
  9 10  2  0
  9 11  1  0
 11 12  1  0
 12 13  1  0
 13 14  1  0
 14 15  1  0
 15 16  2  0
 16 17  1  0
 17 18  2  0
 18 19  1  0
 19 20  1  0
 20 21  1  0
 21 22  1  0
 22 23  1  0
 23 24  1  0
 23 25  1  0
 25 26  1  0
 25 27  2  0
 25 28  2  0
 21  2  1  0
 18 14  1  0
  1 29  1  0
  1 30  1  0
  1 31  1  0
  2 32  1  6
  3 33  1  0
  3 34  1  0
  5 35  1  1
  6 36  1  0
  6 37  1  0
  6 38  1  0
  7 39  1  0
  7 40  1  0
  8 41  1  0
 11 42  1  0
 11 43  1  0
 12 44  1  0
 12 45  1  0
 13 46  1  0
 13 47  1  0
 17 48  1  0
 19 49  1  0
 19 50  1  0
 21 51  1  6
 22 52  1  0
 22 53  1  0
 24 54  1  0
 24 55  1  0
 24 56  1  0
 26 57  1  0
 26 58  1  0
 26 59  1  0
M  END
$$$$
