
     RDKit          3D

 82 85  0  0  0  0  0  0  0  0999 V2000
   -7.1231   -0.7760   -2.1096 C   0  0  0  0  0  0  0  0  0  0  0  0
   -6.7919   -1.1398   -0.6670 C   0  0  0  0  0  0  0  0  0  0  0  0
   -5.3360   -1.1168   -0.4577 N   0  0  0  0  0  0  0  0  0  0  0  0
   -4.6025   -2.3943   -0.4479 C   0  0  0  0  0  0  0  0  0  0  0  0
   -4.1210   -2.7520    0.9576 C   0  0  0  0  0  0  0  0  0  0  0  0
   -3.1252   -1.8355    1.3994 O   0  0  0  0  0  0  0  0  0  0  0  0
   -2.2634   -2.1623    2.4477 C   0  0  0  0  0  0  0  0  0  0  0  0
   -2.6026   -1.8179    3.7619 C   0  0  0  0  0  0  0  0  0  0  0  0
   -1.7693   -2.1897    4.8207 C   0  0  0  0  0  0  0  0  0  0  0  0
   -0.5963   -2.9082    4.5707 C   0  0  0  0  0  0  0  0  0  0  0  0
   -0.2483   -3.2488    3.2596 C   0  0  0  0  0  0  0  0  0  0  0  0
   -1.0707   -2.8624    2.1918 C   0  0  0  0  0  0  0  0  0  0  0  0
   -0.6787   -3.1684    0.8077 C   0  0  0  0  0  0  0  0  0  0  0  0
   -0.5642   -4.3684    0.4410 O   0  0  0  0  0  0  0  0  0  0  0  0
   -0.4663   -2.1125   -0.1361 N   0  0  0  0  0  0  0  0  0  0  0  0
    0.3773   -0.9585    0.1974 C   0  0  0  0  0  0  0  0  0  0  0  0
    1.8012   -1.2235   -0.2248 C   0  0  0  0  0  0  0  0  0  0  0  0
    2.0428   -1.9871   -1.1990 O   0  0  0  0  0  0  0  0  0  0  0  0
    2.8739   -0.5527    0.4532 N   0  0  0  0  0  0  0  0  0  0  0  0
    4.2833   -0.8209    0.1727 C   0  0  0  0  0  0  0  0  0  0  0  0
    4.6950   -0.2271   -1.1779 C   0  0  0  0  0  0  0  0  0  0  0  0
    6.1125   -0.2966   -1.3388 O   0  0  0  0  0  0  0  0  0  0  0  0
    7.0450    0.5439   -0.7057 C   0  0  0  0  0  0  0  0  0  0  0  0
    6.6663    1.6782    0.0406 C   0  0  0  0  0  0  0  0  0  0  0  0
    7.6397    2.4834    0.6377 C   0  0  0  0  0  0  0  0  0  0  0  0
    8.9935    2.1672    0.5037 C   0  0  0  0  0  0  0  0  0  0  0  0
    9.3893    1.0414   -0.2285 C   0  0  0  0  0  0  0  0  0  0  0  0
   10.7605    0.7600   -0.3303 O   0  0  0  0  0  0  0  0  0  0  0  0
   11.3033   -0.3742   -0.9991 C   0  0  0  0  0  0  0  0  0  0  0  0
    8.4059    0.2351   -0.8358 C   0  0  0  0  0  0  0  0  0  0  0  0
   -0.1570    0.3249   -0.4739 C   0  0  0  0  0  0  0  0  0  0  0  0
   -1.0544    1.0989    0.4581 C   0  0  0  0  0  0  0  0  0  0  0  0
   -0.5116    1.7752    1.3744 O   0  0  0  0  0  0  0  0  0  0  0  0
   -2.4902    1.0771    0.3777 N   0  0  0  0  0  0  0  0  0  0  0  0
   -3.2709    0.4502   -0.6982 C   0  0  0  0  0  0  0  0  0  0  0  0
   -3.2952    1.3366   -1.9654 C   0  0  0  0  0  0  0  0  0  0  0  0
   -3.7096    2.7658   -1.6991 C   0  0  0  0  0  0  0  0  0  0  0  0
   -5.0471    3.1661   -1.8667 C   0  0  0  0  0  0  0  0  0  0  0  0
   -5.4244    4.4886   -1.6182 C   0  0  0  0  0  0  0  0  0  0  0  0
   -4.4710    5.4235   -1.2064 C   0  0  0  0  0  0  0  0  0  0  0  0
   -3.1380    5.0375   -1.0444 C   0  0  0  0  0  0  0  0  0  0  0  0
   -2.7570    3.7149   -1.2892 C   0  0  0  0  0  0  0  0  0  0  0  0
   -4.6835    0.1553   -0.2220 C   0  0  0  0  0  0  0  0  0  0  0  0
   -5.3274    1.0738    0.3556 O   0  0  0  0  0  0  0  0  0  0  0  0
   -6.7551    0.2447   -2.3400 H   0  0  0  0  0  0  0  0  0  0  0  0
   -6.6421   -1.4975   -2.8038 H   0  0  0  0  0  0  0  0  0  0  0  0
   -8.2228   -0.8079   -2.2632 H   0  0  0  0  0  0  0  0  0  0  0  0
   -7.2108   -2.1462   -0.4476 H   0  0  0  0  0  0  0  0  0  0  0  0
   -7.2968   -0.4338    0.0265 H   0  0  0  0  0  0  0  0  0  0  0  0
   -3.7590   -2.3824   -1.1666 H   0  0  0  0  0  0  0  0  0  0  0  0
   -5.2607   -3.2190   -0.7973 H   0  0  0  0  0  0  0  0  0  0  0  0
   -3.6989   -3.7807    0.9294 H   0  0  0  0  0  0  0  0  0  0  0  0
   -4.9756   -2.7425    1.6678 H   0  0  0  0  0  0  0  0  0  0  0  0
   -3.5203   -1.2771    3.9613 H   0  0  0  0  0  0  0  0  0  0  0  0
   -2.0343   -1.9244    5.8360 H   0  0  0  0  0  0  0  0  0  0  0  0
    0.0485   -3.1935    5.3921 H   0  0  0  0  0  0  0  0  0  0  0  0
    0.6709   -3.7917    3.0749 H   0  0  0  0  0  0  0  0  0  0  0  0
   -0.6262   -2.3319   -1.1460 H   0  0  0  0  0  0  0  0  0  0  0  0
    0.3878   -0.8127    1.3006 H   0  0  0  0  0  0  0  0  0  0  0  0
    2.6429    0.1072    1.2307 H   0  0  0  0  0  0  0  0  0  0  0  0
    4.4698   -1.9172    0.1836 H   0  0  0  0  0  0  0  0  0  0  0  0
    4.9006   -0.3699    0.9791 H   0  0  0  0  0  0  0  0  0  0  0  0
    4.3366    0.8194   -1.2902 H   0  0  0  0  0  0  0  0  0  0  0  0
    4.2285   -0.8210   -1.9910 H   0  0  0  0  0  0  0  0  0  0  0  0
    5.6278    1.9517    0.1670 H   0  0  0  0  0  0  0  0  0  0  0  0
    7.3426    3.3559    1.2073 H   0  0  0  0  0  0  0  0  0  0  0  0
    9.7402    2.7966    0.9732 H   0  0  0  0  0  0  0  0  0  0  0  0
   10.9282   -1.3086   -0.5307 H   0  0  0  0  0  0  0  0  0  0  0  0
   12.4087   -0.3540   -0.9095 H   0  0  0  0  0  0  0  0  0  0  0  0
   11.0304   -0.3508   -2.0752 H   0  0  0  0  0  0  0  0  0  0  0  0
    8.6859   -0.6391   -1.4088 H   0  0  0  0  0  0  0  0  0  0  0  0
    0.6878    0.9988   -0.7362 H   0  0  0  0  0  0  0  0  0  0  0  0
   -0.6488    0.0862   -1.4357 H   0  0  0  0  0  0  0  0  0  0  0  0
   -3.0004    1.6236    1.1111 H   0  0  0  0  0  0  0  0  0  0  0  0
   -2.7794   -0.4983   -0.9700 H   0  0  0  0  0  0  0  0  0  0  0  0
   -2.2895    1.3415   -2.4356 H   0  0  0  0  0  0  0  0  0  0  0  0
   -3.9768    0.8785   -2.7164 H   0  0  0  0  0  0  0  0  0  0  0  0
   -5.7952    2.4571   -2.1934 H   0  0  0  0  0  0  0  0  0  0  0  0
   -6.4547    4.7905   -1.7526 H   0  0  0  0  0  0  0  0  0  0  0  0
   -4.7647    6.4485   -1.0196 H   0  0  0  0  0  0  0  0  0  0  0  0
   -2.3984    5.7638   -0.7329 H   0  0  0  0  0  0  0  0  0  0  0  0
   -1.7189    3.4318   -1.1660 H   0  0  0  0  0  0  0  0  0  0  0  0
  1  2  1  0
  2  3  1  0
  3  4  1  0
  4  5  1  0
  5  6  1  0
  6  7  1  0
  7  8  2  0
  8  9  1  0
  9 10  2  0
 10 11  1  0
 11 12  2  0
 12 13  1  0
 13 14  2  0
 13 15  1  0
 15 16  1  0
 16 17  1  0
 17 18  2  0
 17 19  1  0
 19 20  1  0
 20 21  1  0
 21 22  1  0
 22 23  1  0
 23 24  2  0
 24 25  1  0
 25 26  2  0
 26 27  1  0
 27 28  1  0
 28 29  1  0
 27 30  2  0
 16 31  1  0
 31 32  1  0
 32 33  2  0
 32 34  1  0
 34 35  1  0
 35 36  1  0
 36 37  1  0
 37 38  2  0
 38 39  1  0
 39 40  2  0
 40 41  1  0
 41 42  2  0
 35 43  1  0
 43 44  2  0
 43  3  1  0
 12  7  1  0
 30 23  1  0
 42 37  1  0
  1 45  1  0
  1 46  1  0
  1 47  1  0
  2 48  1  0
  2 49  1  0
  4 50  1  0
  4 51  1  0
  5 52  1  0
  5 53  1  0
  8 54  1  0
  9 55  1  0
 10 56  1  0
 11 57  1  0
 15 58  1  0
 16 59  1  0
 19 60  1  0
 20 61  1  0
 20 62  1  0
 21 63  1  0
 21 64  1  0
 24 65  1  0
 25 66  1  0
 26 67  1  0
 29 68  1  0
 29 69  1  0
 29 70  1  0
 30 71  1  0
 31 72  1  0
 31 73  1  0
 34 74  1  0
 35 75  1  0
 36 76  1  0
 36 77  1  0
 38 78  1  0
 39 79  1  0
 40 80  1  0
 41 81  1  0
 42 82  1  0
M  END
$$$$
