
     RDKit          3D

 63 67  0  0  0  0  0  0  0  0999 V2000
   -3.4882    2.3514    0.2356 O   0  0  0  0  0  0  0  0  0  0  0  0
   -2.7455    1.3757   -0.0556 C   0  0  0  0  0  0  0  0  0  0  0  0
   -1.4201    1.2370    0.6421 C   0  0  0  0  0  0  0  0  0  0  0  0
   -0.2430    1.5682   -0.3183 C   0  0  1  0  0  0  0  0  0  0  0  0
    0.1338    3.0321   -0.1984 C   0  0  0  0  0  0  0  0  0  0  0  0
   -0.3167    3.9589   -1.1559 C   0  0  0  0  0  0  0  0  0  0  0  0
    0.0043    5.3144   -1.0339 C   0  0  0  0  0  0  0  0  0  0  0  0
    0.7694    5.7583    0.0472 C   0  0  0  0  0  0  0  0  0  0  0  0
    1.2094    4.8495    1.0124 C   0  0  0  0  0  0  0  0  0  0  0  0
    0.8893    3.4935    0.8967 C   0  0  0  0  0  0  0  0  0  0  0  0
    0.9839    0.6808   -0.1893 C   0  0  0  0  0  0  0  0  0  0  0  0
    1.9594    0.9029   -0.9573 O   0  0  0  0  0  0  0  0  0  0  0  0
    1.0228   -0.4535    0.6953 N   0  0  0  0  0  0  0  0  0  0  0  0
    1.6758   -1.7329    0.3779 C   0  0  2  0  0  0  0  0  0  0  0  0
    3.1692   -1.5564    0.1473 C   0  0  0  0  0  0  0  0  0  0  0  0
    3.7447   -1.4883   -1.1537 C   0  0  0  0  0  0  0  0  0  0  0  0
    5.1323   -1.3264   -1.3191 C   0  0  0  0  0  0  0  0  0  0  0  0
    5.9193   -1.2433   -0.1765 C   0  0  0  0  0  0  0  0  0  0  0  0
    5.3842   -1.2958    1.0668 C   0  0  0  0  0  0  0  0  0  0  0  0
    4.0163   -1.4391    1.2759 C   0  0  0  0  0  0  0  0  0  0  0  0
    6.3935   -1.2040    2.0072 O   0  0  0  0  0  0  0  0  0  0  0  0
    7.6428   -1.0985    1.3088 C   0  0  0  0  0  0  0  0  0  0  0  0
    7.2930   -1.1163   -0.0827 O   0  0  0  0  0  0  0  0  0  0  0  0
    0.9181   -2.5635   -0.7017 C   0  0  0  0  0  0  0  0  0  0  0  0
    0.3256   -1.7579   -1.8393 C   0  0  0  0  0  0  0  0  0  0  0  0
   -0.9647   -1.3805   -1.9187 C   0  0  0  0  0  0  0  0  0  0  0  0
   -2.0141   -1.7456   -0.8965 C   0  0  0  0  0  0  0  0  0  0  0  0
   -3.3179   -0.9366   -1.0868 C   0  0  1  0  0  0  0  0  0  0  0  0
   -4.3968   -1.2916   -0.0763 C   0  0  0  0  0  0  0  0  0  0  0  0
   -5.6978   -1.5896   -0.5257 C   0  0  0  0  0  0  0  0  0  0  0  0
   -6.7121   -1.9012    0.3850 C   0  0  0  0  0  0  0  0  0  0  0  0
   -6.4453   -1.9076    1.7557 C   0  0  0  0  0  0  0  0  0  0  0  0
   -7.4294   -2.2155    2.6371 F   0  0  0  0  0  0  0  0  0  0  0  0
   -5.1648   -1.5985    2.2169 C   0  0  0  0  0  0  0  0  0  0  0  0
   -4.1468   -1.2852    1.3108 C   0  0  0  0  0  0  0  0  0  0  0  0
   -3.1138    0.5215   -1.1523 N   0  0  0  0  0  0  0  0  0  0  0  0
   -1.3975    1.9084    1.5289 H   0  0  0  0  0  0  0  0  0  0  0  0
   -1.3708    0.2302    1.0630 H   0  0  0  0  0  0  0  0  0  0  0  0
   -0.5879    1.3871   -1.3609 H   0  0  0  0  0  0  0  0  0  0  0  0
   -0.9166    3.6337   -1.9966 H   0  0  0  0  0  0  0  0  0  0  0  0
   -0.3406    6.0209   -1.7780 H   0  0  0  0  0  0  0  0  0  0  0  0
    1.0175    6.8075    0.1402 H   0  0  0  0  0  0  0  0  0  0  0  0
    1.7994    5.1949    1.8520 H   0  0  0  0  0  0  0  0  0  0  0  0
    1.2324    2.8025    1.6576 H   0  0  0  0  0  0  0  0  0  0  0  0
    0.6137   -0.3578    1.6503 H   0  0  0  0  0  0  0  0  0  0  0  0
    1.5992   -2.3635    1.2946 H   0  0  0  0  0  0  0  0  0  0  0  0
    3.1358   -1.5592   -2.0403 H   0  0  0  0  0  0  0  0  0  0  0  0
    5.5758   -1.2807   -2.3046 H   0  0  0  0  0  0  0  0  0  0  0  0
    3.6244   -1.4758    2.2846 H   0  0  0  0  0  0  0  0  0  0  0  0
    8.2907   -1.9686    1.5507 H   0  0  0  0  0  0  0  0  0  0  0  0
    8.1483   -0.1433    1.5663 H   0  0  0  0  0  0  0  0  0  0  0  0
    0.1230   -3.1615   -0.2077 H   0  0  0  0  0  0  0  0  0  0  0  0
    1.6052   -3.3206   -1.1337 H   0  0  0  0  0  0  0  0  0  0  0  0
    0.9865   -1.4337   -2.6354 H   0  0  0  0  0  0  0  0  0  0  0  0
   -1.2596   -0.7761   -2.7732 H   0  0  0  0  0  0  0  0  0  0  0  0
   -1.6102   -1.6328    0.1213 H   0  0  0  0  0  0  0  0  0  0  0  0
   -2.2481   -2.8252   -1.0187 H   0  0  0  0  0  0  0  0  0  0  0  0
   -3.6915   -1.2505   -2.0885 H   0  0  0  0  0  0  0  0  0  0  0  0
   -5.9304   -1.5811   -1.5827 H   0  0  0  0  0  0  0  0  0  0  0  0
   -7.7067   -2.1338    0.0271 H   0  0  0  0  0  0  0  0  0  0  0  0
   -4.9577   -1.5966    3.2795 H   0  0  0  0  0  0  0  0  0  0  0  0
   -3.1716   -1.0437    1.7032 H   0  0  0  0  0  0  0  0  0  0  0  0
   -3.5326    1.0029   -1.9797 H   0  0  0  0  0  0  0  0  0  0  0  0
  1  2  2  0
  2  3  1  0
  3  4  1  0
  4  5  1  0
  5  6  2  0
  6  7  1  0
  7  8  2  0
  8  9  1  0
  9 10  2  0
  4 11  1  0
 11 12  2  0
 11 13  1  0
 13 14  1  0
 14 15  1  0
 15 16  2  0
 16 17  1  0
 17 18  2  0
 18 19  1  0
 19 20  2  0
 19 21  1  0
 21 22  1  0
 22 23  1  0
 14 24  1  0
 24 25  1  0
 25 26  2  0
 26 27  1  0
 27 28  1  0
 28 29  1  0
 29 30  2  0
 30 31  1  0
 31 32  2  0
 32 33  1  0
 32 34  1  0
 34 35  2  0
 28 36  1  0
 36  2  1  0
 10  5  1  0
 20 15  1  0
 35 29  1  0
 23 18  1  0
  3 37  1  0
  3 38  1  0
  4 39  1  6
  6 40  1  0
  7 41  1  0
  8 42  1  0
  9 43  1  0
 10 44  1  0
 13 45  1  0
 14 46  1  1
 16 47  1  0
 17 48  1  0
 20 49  1  0
 22 50  1  0
 22 51  1  0
 24 52  1  0
 24 53  1  0
 25 54  1  0
 26 55  1  0
 27 56  1  0
 27 57  1  0
 28 58  1  6
 30 59  1  0
 31 60  1  0
 34 61  1  0
 35 62  1  0
 36 63  1  0
M  END
$$$$
