
     RDKit          3D

 84 86  0  0  0  0  0  0  0  0999 V2000
   -7.5763   -0.6656   -0.6025 C   0  0  0  0  0  0  0  0  0  0  0  0
   -6.1961   -1.1359   -0.1223 C   0  0  0  0  0  0  0  0  0  0  0  0
   -6.3159   -1.7361    1.2880 C   0  0  0  0  0  0  0  0  0  0  0  0
   -5.1858    0.0396   -0.1748 C   0  0  0  0  0  0  0  0  0  0  0  0
   -3.7172   -0.3740    0.0903 C   0  0  2  0  0  0  0  0  0  0  0  0
   -2.7745    0.7543    0.0846 N   0  0  0  0  0  0  0  0  0  0  0  0
   -2.9688    2.0313   -0.5542 C   0  0  0  0  0  0  0  0  0  0  0  0
   -4.0520    2.6594   -0.4066 O   0  0  0  0  0  0  0  0  0  0  0  0
   -1.8692    2.6603   -1.3801 C   0  0  2  0  0  0  0  0  0  0  0  0
   -1.2783    1.6579   -2.3748 C   0  0  0  0  0  0  0  0  0  0  0  0
   -0.8130    3.2597   -0.5534 N   0  0  0  0  0  0  0  0  0  0  0  0
   -0.2415    2.6123    0.5913 C   0  0  0  0  0  0  0  0  0  0  0  0
   -0.8738    2.6244    1.6833 O   0  0  0  0  0  0  0  0  0  0  0  0
    1.0992    1.9139    0.5240 C   0  0  2  0  0  0  0  0  0  0  0  0
    2.1117    2.5108    1.5227 C   0  0  0  0  0  0  0  0  0  0  0  0
    2.4215    3.9663    1.2574 C   0  0  0  0  0  0  0  0  0  0  0  0
    3.4666    4.3218    0.3893 C   0  0  0  0  0  0  0  0  0  0  0  0
    3.7519    5.6694    0.1449 C   0  0  0  0  0  0  0  0  0  0  0  0
    2.9924    6.6699    0.7564 C   0  0  0  0  0  0  0  0  0  0  0  0
    1.9448    6.3249    1.6134 C   0  0  0  0  0  0  0  0  0  0  0  0
    1.6600    4.9794    1.8651 C   0  0  0  0  0  0  0  0  0  0  0  0
    1.6524    1.9375   -0.8372 N   0  0  0  0  0  0  0  0  0  0  0  0
    2.1277    0.7828   -1.5481 C   0  0  0  0  0  0  0  0  0  0  0  0
    2.1846    0.8345   -2.8092 O   0  0  0  0  0  0  0  0  0  0  0  0
    2.5326   -0.5021   -0.8426 C   0  0  2  0  0  0  0  0  0  0  0  0
    3.8335   -1.0384   -1.4853 C   0  0  0  0  0  0  0  0  0  0  0  0
    4.4412   -2.1723   -0.7011 C   0  0  0  0  0  0  0  0  0  0  0  0
    5.2075   -1.9065    0.4456 C   0  0  0  0  0  0  0  0  0  0  0  0
    5.7523   -2.9596    1.1886 C   0  0  0  0  0  0  0  0  0  0  0  0
    5.5296   -4.2872    0.7972 C   0  0  0  0  0  0  0  0  0  0  0  0
    6.0705   -5.3437    1.5292 O   0  0  0  0  0  0  0  0  0  0  0  0
    4.7597   -4.5559   -0.3403 C   0  0  0  0  0  0  0  0  0  0  0  0
    4.2149   -3.5056   -1.0859 C   0  0  0  0  0  0  0  0  0  0  0  0
    1.4561   -1.5124   -0.9663 N   0  0  0  0  0  0  0  0  0  0  0  0
    1.2554   -2.2833    0.2717 C   0  0  0  0  0  0  0  0  0  0  0  0
    0.4133   -3.5415   -0.0305 C   0  0  0  0  0  0  0  0  0  0  0  0
   -0.7738   -3.7505    0.9289 C   0  0  0  0  0  0  0  0  0  0  0  0
   -1.8549   -2.6571    0.8478 C   0  0  0  0  0  0  0  0  0  0  0  0
   -2.4222   -2.5270   -0.4967 N   0  0  0  0  0  0  0  0  0  0  0  0
   -3.2325   -1.4111   -0.9003 C   0  0  0  0  0  0  0  0  0  0  0  0
   -3.4991   -1.2662   -2.1250 O   0  0  0  0  0  0  0  0  0  0  0  0
   -8.2910   -1.5172   -0.6226 H   0  0  0  0  0  0  0  0  0  0  0  0
   -7.5065   -0.2550   -1.6315 H   0  0  0  0  0  0  0  0  0  0  0  0
   -7.9759    0.1262    0.0699 H   0  0  0  0  0  0  0  0  0  0  0  0
   -5.8647   -1.9414   -0.8151 H   0  0  0  0  0  0  0  0  0  0  0  0
   -6.5639   -0.9468    2.0326 H   0  0  0  0  0  0  0  0  0  0  0  0
   -7.1155   -2.5097    1.3088 H   0  0  0  0  0  0  0  0  0  0  0  0
   -5.3726   -2.2381    1.5841 H   0  0  0  0  0  0  0  0  0  0  0  0
   -5.2467    0.5107   -1.1799 H   0  0  0  0  0  0  0  0  0  0  0  0
   -5.4876    0.7989    0.5799 H   0  0  0  0  0  0  0  0  0  0  0  0
   -3.6924   -0.8014    1.1105 H   0  0  0  0  0  0  0  0  0  0  0  0
   -1.8002    0.5167    0.3803 H   0  0  0  0  0  0  0  0  0  0  0  0
   -2.3242    3.4753   -1.9849 H   0  0  0  0  0  0  0  0  0  0  0  0
   -0.5126    2.1588   -3.0061 H   0  0  0  0  0  0  0  0  0  0  0  0
   -0.8027    0.8105   -1.8439 H   0  0  0  0  0  0  0  0  0  0  0  0
   -2.0747    1.2592   -3.0422 H   0  0  0  0  0  0  0  0  0  0  0  0
   -0.2724    4.0486   -0.9748 H   0  0  0  0  0  0  0  0  0  0  0  0
    0.9018    0.8645    0.8288 H   0  0  0  0  0  0  0  0  0  0  0  0
    1.7228    2.3932    2.5597 H   0  0  0  0  0  0  0  0  0  0  0  0
    3.0525    1.9188    1.4742 H   0  0  0  0  0  0  0  0  0  0  0  0
    4.0602    3.5557   -0.0946 H   0  0  0  0  0  0  0  0  0  0  0  0
    4.5673    5.9411   -0.5140 H   0  0  0  0  0  0  0  0  0  0  0  0
    3.2187    7.7102    0.5675 H   0  0  0  0  0  0  0  0  0  0  0  0
    1.3560    7.1013    2.0850 H   0  0  0  0  0  0  0  0  0  0  0  0
    0.8475    4.7281    2.5345 H   0  0  0  0  0  0  0  0  0  0  0  0
    1.7084    2.8529   -1.3376 H   0  0  0  0  0  0  0  0  0  0  0  0
    2.7560   -0.2663    0.2233 H   0  0  0  0  0  0  0  0  0  0  0  0
    4.5819   -0.2142   -1.5516 H   0  0  0  0  0  0  0  0  0  0  0  0
    3.6268   -1.3728   -2.5281 H   0  0  0  0  0  0  0  0  0  0  0  0
    5.3824   -0.8846    0.7621 H   0  0  0  0  0  0  0  0  0  0  0  0
    6.3438   -2.7439    2.0698 H   0  0  0  0  0  0  0  0  0  0  0  0
    6.6357   -5.1823    2.3572 H   0  0  0  0  0  0  0  0  0  0  0  0
    4.5798   -5.5801   -0.6435 H   0  0  0  0  0  0  0  0  0  0  0  0
    3.6074   -3.7321   -1.9545 H   0  0  0  0  0  0  0  0  0  0  0  0
    0.5374   -1.0511   -1.1805 H   0  0  0  0  0  0  0  0  0  0  0  0
    0.7845   -1.6376    1.0419 H   0  0  0  0  0  0  0  0  0  0  0  0
    2.2271   -2.6095    0.7012 H   0  0  0  0  0  0  0  0  0  0  0  0
    1.0747   -4.4370    0.0481 H   0  0  0  0  0  0  0  0  0  0  0  0
    0.0473   -3.5324   -1.0816 H   0  0  0  0  0  0  0  0  0  0  0  0
   -1.2447   -4.7311    0.7019 H   0  0  0  0  0  0  0  0  0  0  0  0
   -0.3924   -3.8036    1.9714 H   0  0  0  0  0  0  0  0  0  0  0  0
   -2.6688   -2.9150    1.5579 H   0  0  0  0  0  0  0  0  0  0  0  0
   -1.4268   -1.6892    1.1697 H   0  0  0  0  0  0  0  0  0  0  0  0
   -2.2175   -3.2566   -1.2158 H   0  0  0  0  0  0  0  0  0  0  0  0
  1  2  1  0
  2  3  1  0
  2  4  1  0
  4  5  1  0
  5  6  1  0
  6  7  1  0
  7  8  2  0
  7  9  1  0
  9 10  1  0
  9 11  1  0
 11 12  1  0
 12 13  2  0
 12 14  1  0
 14 15  1  0
 15 16  1  0
 16 17  2  0
 17 18  1  0
 18 19  2  0
 19 20  1  0
 20 21  2  0
 14 22  1  0
 22 23  1  0
 23 24  2  0
 23 25  1  0
 25 26  1  0
 26 27  1  0
 27 28  2  0
 28 29  1  0
 29 30  2  0
 30 31  1  0
 30 32  1  0
 32 33  2  0
 25 34  1  0
 34 35  1  0
 35 36  1  0
 36 37  1  0
 37 38  1  0
 38 39  1  0
 39 40  1  0
 40 41  2  0
 40  5  1  0
 21 16  1  0
 33 27  1  0
  1 42  1  0
  1 43  1  0
  1 44  1  0
  2 45  1  0
  3 46  1  0
  3 47  1  0
  3 48  1  0
  4 49  1  0
  4 50  1  0
  5 51  1  1
  6 52  1  0
  9 53  1  6
 10 54  1  0
 10 55  1  0
 10 56  1  0
 11 57  1  0
 14 58  1  1
 15 59  1  0
 15 60  1  0
 17 61  1  0
 18 62  1  0
 19 63  1  0
 20 64  1  0
 21 65  1  0
 22 66  1  0
 25 67  1  1
 26 68  1  0
 26 69  1  0
 28 70  1  0
 29 71  1  0
 31 72  1  0
 32 73  1  0
 33 74  1  0
 34 75  1  0
 35 76  1  0
 35 77  1  0
 36 78  1  0
 36 79  1  0
 37 80  1  0
 37 81  1  0
 38 82  1  0
 38 83  1  0
 39 84  1  0
M  END
$$$$
