
     RDKit          3D

135141  0  0  0  0  0  0  0  0999 V2000
   -7.6881    6.9755    1.9358 C   0  0  0  0  0  0  0  0  0  0  0  0
   -6.8198    5.8659    1.3341 C   0  0  0  0  0  0  0  0  0  0  0  0
   -7.5656    5.0106    0.2806 C   0  0  2  0  0  0  0  0  0  0  0  0
   -8.7524    4.2545    0.9118 C   0  0  0  0  0  0  0  0  0  0  0  0
   -6.5609    4.0454   -0.4187 C   0  0  1  0  0  0  0  0  0  0  0  0
   -6.0891    3.1052    0.5348 O   0  0  0  0  0  0  0  0  0  0  0  0
   -5.0718    2.2080    0.0750 C   0  0  2  0  0  0  0  0  0  0  0  0
   -5.0486    2.0311   -1.4531 C   0  0  0  0  0  0  0  0  0  0  0  0
   -6.0287    2.4942   -2.2330 C   0  0  0  0  0  0  0  0  0  0  0  0
   -7.1526    3.2763   -1.6281 C   0  0  2  0  0  0  0  0  0  0  0  0
   -7.7988    4.1803   -2.6869 C   0  0  0  0  0  0  0  0  0  0  0  0
   -5.4246    0.8541    0.7524 C   0  0  0  0  0  0  0  0  0  0  0  0
   -4.2515   -0.1130    0.9530 C   0  0  2  0  0  0  0  0  0  0  0  0
   -2.9982    0.3613    0.2561 C   0  0  0  0  0  0  0  0  0  0  0  0
   -2.7046    1.8436    0.5611 C   0  0  1  0  0  0  0  0  0  0  0  0
   -1.5700    2.4285   -0.3242 C   0  0  0  0  0  0  0  0  0  0  0  0
   -0.5535    1.4301   -0.8550 C   0  0  0  0  0  0  0  0  0  0  0  0
    0.3191    0.7024   -0.1103 C   0  0  0  0  0  0  0  0  0  0  0  0
    0.4099    0.8520    1.3953 C   0  0  0  0  0  0  0  0  0  0  0  0
    1.2268   -0.3194   -0.8062 C   0  0  1  0  0  0  0  0  0  0  0  0
    2.0566   -0.9707    0.1520 O   0  0  0  0  0  0  0  0  0  0  0  0
    3.4077   -0.5506    0.0457 C   0  0  1  0  0  0  0  0  0  0  0  0
    4.1317   -0.8376    1.3711 C   0  0  0  0  0  0  0  0  0  0  0  0
    5.6723   -0.8631    1.2015 C   0  0  2  0  0  0  0  0  0  0  0  0
    6.2923   -0.2010    2.2945 O   0  0  0  0  0  0  0  0  0  0  0  0
    6.5771   -1.1172    3.3322 C   0  0  0  0  0  0  0  0  0  0  0  0
    6.1003   -0.1518   -0.0960 C   0  0  1  0  0  0  0  0  0  0  0  0
    7.4950   -0.3494   -0.2779 O   0  0  0  0  0  0  0  0  0  0  0  0
    8.1608    0.8260   -0.7114 C   0  0  1  0  0  0  0  0  0  0  0  0
    8.6878    1.6275    0.5094 C   0  0  0  0  0  0  0  0  0  0  0  0
   10.0698    2.2326    0.2128 C   0  0  2  0  0  0  0  0  0  0  0  0
    9.9664    3.1485   -0.8687 O   0  0  0  0  0  0  0  0  0  0  0  0
    9.7874    4.4658   -0.4033 C   0  0  0  0  0  0  0  0  0  0  0  0
   11.0565    1.1054   -0.1832 C   0  0  1  0  0  0  0  0  0  0  0  0
   11.7439    0.5927    1.0064 N   0  0  0  0  0  0  0  0  0  0  0  0
   10.3249   -0.0420   -0.9471 C   0  0  2  0  0  0  0  0  0  0  0  0
   11.2480   -0.7038   -1.9721 C   0  0  0  0  0  0  0  0  0  0  0  0
    9.1909    0.4651   -1.6241 O   0  0  0  0  0  0  0  0  0  0  0  0
    5.3264   -0.7615   -1.3094 C   0  0  2  0  0  0  0  0  0  0  0  0
    5.2167    0.2190   -2.4845 C   0  0  0  0  0  0  0  0  0  0  0  0
    4.0376   -1.2759   -0.9930 O   0  0  0  0  0  0  0  0  0  0  0  0
    0.4359   -1.3819   -1.6327 C   0  0  1  0  0  0  0  0  0  0  0  0
    1.3444   -2.4839   -2.1912 C   0  0  0  0  0  0  0  0  0  0  0  0
   -0.7483   -1.9926   -0.9217 C   0  0  0  0  0  0  0  0  0  0  0  0
   -0.6654   -2.6592    0.2334 C   0  0  0  0  0  0  0  0  0  0  0  0
   -1.8877   -3.1678    0.8757 C   0  0  0  0  0  0  0  0  0  0  0  0
   -2.5580   -4.2392    0.4161 C   0  0  0  0  0  0  0  0  0  0  0  0
   -2.0622   -5.1527   -0.6390 C   0  0  0  0  0  0  0  0  0  0  0  0
   -3.0082   -6.1830   -0.8134 O   0  0  0  0  0  0  0  0  0  0  0  0
   -3.9404   -6.1282    0.2565 C   0  0  2  0  0  0  0  0  0  0  0  0
   -5.3643   -6.5177   -0.2580 C   0  0  2  0  0  0  0  0  0  0  0  0
   -5.5205   -6.1416   -1.6035 O   0  0  0  0  0  0  0  0  0  0  0  0
   -6.4626   -5.8506    0.5440 C   0  0  0  0  0  0  0  0  0  0  0  0
   -7.7238   -6.5941    0.8917 C   0  0  0  0  0  0  0  0  0  0  0  0
   -6.3309   -4.5586    0.8917 C   0  0  0  0  0  0  0  0  0  0  0  0
   -5.0481   -3.8413    0.5618 C   0  0  1  0  0  0  0  0  0  0  0  0
   -4.9927   -2.4854    1.2094 C   0  0  0  0  0  0  0  0  0  0  0  0
   -5.2490   -2.3446    2.4377 O   0  0  0  0  0  0  0  0  0  0  0  0
   -4.5733   -1.4019    0.4337 O   0  0  0  0  0  0  0  0  0  0  0  0
   -3.8501   -4.7454    0.9610 C   0  0  2  0  0  0  0  0  0  0  0  0
   -3.8439   -4.9480    2.3640 O   0  0  0  0  0  0  0  0  0  0  0  0
   -3.8261    2.7330    0.5289 O   0  0  0  0  0  0  0  0  0  0  0  0
   -7.0511    7.6604    2.5351 H   0  0  0  0  0  0  0  0  0  0  0  0
   -8.1844    7.5638    1.1367 H   0  0  0  0  0  0  0  0  0  0  0  0
   -8.4585    6.5503    2.6125 H   0  0  0  0  0  0  0  0  0  0  0  0
   -5.9451    6.3559    0.8512 H   0  0  0  0  0  0  0  0  0  0  0  0
   -6.4341    5.2217    2.1554 H   0  0  0  0  0  0  0  0  0  0  0  0
   -7.9702    5.7156   -0.4789 H   0  0  0  0  0  0  0  0  0  0  0  0
   -8.4137    3.6060    1.7455 H   0  0  0  0  0  0  0  0  0  0  0  0
   -9.2761    3.6318    0.1579 H   0  0  0  0  0  0  0  0  0  0  0  0
   -9.5079    4.9711    1.2936 H   0  0  0  0  0  0  0  0  0  0  0  0
   -5.7060    4.6657   -0.7806 H   0  0  0  0  0  0  0  0  0  0  0  0
   -4.2273    1.5321   -1.9461 H   0  0  0  0  0  0  0  0  0  0  0  0
   -5.9645    2.3507   -3.3105 H   0  0  0  0  0  0  0  0  0  0  0  0
   -7.9086    2.5399   -1.2754 H   0  0  0  0  0  0  0  0  0  0  0  0
   -8.0564    3.5913   -3.5946 H   0  0  0  0  0  0  0  0  0  0  0  0
   -8.7491    4.6084   -2.3038 H   0  0  0  0  0  0  0  0  0  0  0  0
   -7.1122    5.0031   -2.9784 H   0  0  0  0  0  0  0  0  0  0  0  0
   -5.8554    1.0552    1.7604 H   0  0  0  0  0  0  0  0  0  0  0  0
   -6.2375    0.3562    0.1769 H   0  0  0  0  0  0  0  0  0  0  0  0
   -4.0161   -0.1834    2.0406 H   0  0  0  0  0  0  0  0  0  0  0  0
   -3.0526    0.1602   -0.8308 H   0  0  0  0  0  0  0  0  0  0  0  0
   -2.1611   -0.2509    0.6440 H   0  0  0  0  0  0  0  0  0  0  0  0
   -2.3442    1.8628    1.6097 H   0  0  0  0  0  0  0  0  0  0  0  0
   -1.0449    3.2366    0.2274 H   0  0  0  0  0  0  0  0  0  0  0  0
   -2.0412    2.9110   -1.2081 H   0  0  0  0  0  0  0  0  0  0  0  0
   -0.5452    1.3081   -1.9345 H   0  0  0  0  0  0  0  0  0  0  0  0
   -0.0849    1.7657    1.7743 H   0  0  0  0  0  0  0  0  0  0  0  0
    1.4717    0.9286    1.7011 H   0  0  0  0  0  0  0  0  0  0  0  0
   -0.0380   -0.0392    1.8795 H   0  0  0  0  0  0  0  0  0  0  0  0
    1.8198    0.2469   -1.5682 H   0  0  0  0  0  0  0  0  0  0  0  0
    3.4643    0.5532   -0.1308 H   0  0  0  0  0  0  0  0  0  0  0  0
    3.8321   -0.0699    2.1178 H   0  0  0  0  0  0  0  0  0  0  0  0
    3.8026   -1.8251    1.7659 H   0  0  0  0  0  0  0  0  0  0  0  0
    6.0020   -1.9313    1.1009 H   0  0  0  0  0  0  0  0  0  0  0  0
    6.9714   -0.5492    4.2041 H   0  0  0  0  0  0  0  0  0  0  0  0
    7.3641   -1.8371    3.0205 H   0  0  0  0  0  0  0  0  0  0  0  0
    5.6635   -1.6577    3.6640 H   0  0  0  0  0  0  0  0  0  0  0  0
    5.8261    0.9267    0.0285 H   0  0  0  0  0  0  0  0  0  0  0  0
    7.4860    1.5046   -1.2822 H   0  0  0  0  0  0  0  0  0  0  0  0
    8.7719    0.9598    1.3939 H   0  0  0  0  0  0  0  0  0  0  0  0
    7.9625    2.4242    0.7791 H   0  0  0  0  0  0  0  0  0  0  0  0
   10.4582    2.7207    1.1426 H   0  0  0  0  0  0  0  0  0  0  0  0
    9.5966    5.1279   -1.2725 H   0  0  0  0  0  0  0  0  0  0  0  0
    8.9131    4.5491    0.2805 H   0  0  0  0  0  0  0  0  0  0  0  0
   10.7074    4.8329    0.1040 H   0  0  0  0  0  0  0  0  0  0  0  0
   11.8268    1.5605   -0.8434 H   0  0  0  0  0  0  0  0  0  0  0  0
   11.0626    0.0864    1.6183 H   0  0  0  0  0  0  0  0  0  0  0  0
   12.4710   -0.0967    0.7053 H   0  0  0  0  0  0  0  0  0  0  0  0
   10.0151   -0.8454   -0.2369 H   0  0  0  0  0  0  0  0  0  0  0  0
   12.1307   -1.1534   -1.4683 H   0  0  0  0  0  0  0  0  0  0  0  0
   11.5949    0.0381   -2.7221 H   0  0  0  0  0  0  0  0  0  0  0  0
   10.7013   -1.5099   -2.5048 H   0  0  0  0  0  0  0  0  0  0  0  0
    5.9193   -1.6319   -1.6720 H   0  0  0  0  0  0  0  0  0  0  0  0
    4.5712   -0.2192   -3.2750 H   0  0  0  0  0  0  0  0  0  0  0  0
    6.2173    0.4079   -2.9257 H   0  0  0  0  0  0  0  0  0  0  0  0
    4.7703    1.1808   -2.1529 H   0  0  0  0  0  0  0  0  0  0  0  0
    0.0233   -0.8552   -2.5192 H   0  0  0  0  0  0  0  0  0  0  0  0
    1.7849   -3.0915   -1.3742 H   0  0  0  0  0  0  0  0  0  0  0  0
    0.7613   -3.1568   -2.8550 H   0  0  0  0  0  0  0  0  0  0  0  0
    2.1638   -2.0335   -2.7923 H   0  0  0  0  0  0  0  0  0  0  0  0
   -1.7196   -1.8827   -1.3906 H   0  0  0  0  0  0  0  0  0  0  0  0
    0.2780   -2.7516    0.7549 H   0  0  0  0  0  0  0  0  0  0  0  0
   -2.2607   -2.6206    1.7333 H   0  0  0  0  0  0  0  0  0  0  0  0
   -1.9364   -4.6053   -1.5966 H   0  0  0  0  0  0  0  0  0  0  0  0
   -1.0923   -5.5936   -0.3264 H   0  0  0  0  0  0  0  0  0  0  0  0
   -3.6360   -6.9107    0.9900 H   0  0  0  0  0  0  0  0  0  0  0  0
   -5.4739   -7.6252   -0.1647 H   0  0  0  0  0  0  0  0  0  0  0  0
   -5.1553   -6.8807   -2.1568 H   0  0  0  0  0  0  0  0  0  0  0  0
   -8.6025   -6.0706    0.4512 H   0  0  0  0  0  0  0  0  0  0  0  0
   -7.7060   -7.6338    0.4964 H   0  0  0  0  0  0  0  0  0  0  0  0
   -7.8403   -6.6415    1.9968 H   0  0  0  0  0  0  0  0  0  0  0  0
   -7.1281   -4.0538    1.4345 H   0  0  0  0  0  0  0  0  0  0  0  0
   -5.0283   -3.6848   -0.5433 H   0  0  0  0  0  0  0  0  0  0  0  0
   -2.9916   -4.6391    2.7617 H   0  0  0  0  0  0  0  0  0  0  0  0
  1  2  1  0
  2  3  1  0
  3  4  1  0
  3  5  1  0
  5  6  1  0
  7  6  1  6
  7  8  1  0
  8  9  2  0
  9 10  1  0
 10 11  1  0
  7 12  1  0
 12 13  1  0
 13 14  1  0
 14 15  1  0
 15 16  1  0
 16 17  1  0
 17 18  2  0
 18 19  1  0
 18 20  1  0
 20 21  1  0
 21 22  1  0
 22 23  1  0
 23 24  1  0
 24 25  1  0
 25 26  1  0
 24 27  1  0
 27 28  1  0
 28 29  1  0
 29 30  1  0
 30 31  1  0
 31 32  1  0
 32 33  1  0
 31 34  1  0
 34 35  1  0
 34 36  1  0
 36 37  1  0
 36 38  1  0
 27 39  1  0
 39 40  1  0
 39 41  1  0
 20 42  1  0
 42 43  1  0
 42 44  1  0
 44 45  2  0
 45 46  1  0
 46 47  2  0
 47 48  1  0
 48 49  1  0
 49 50  1  0
 50 51  1  0
 51 52  1  0
 51 53  1  0
 53 54  1  0
 53 55  2  0
 55 56  1  0
 56 57  1  0
 57 58  2  0
 57 59  1  0
 56 60  1  0
 60 61  1  1
 15 62  1  0
 10  5  1  0
 59 13  1  0
 62  7  1  0
 41 22  1  0
 60 47  1  0
 38 29  1  0
 60 50  1  0
  1 63  1  0
  1 64  1  0
  1 65  1  0
  2 66  1  0
  2 67  1  0
  3 68  1  6
  4 69  1  0
  4 70  1  0
  4 71  1  0
  5 72  1  6
  8 73  1  0
  9 74  1  0
 10 75  1  1
 11 76  1  0
 11 77  1  0
 11 78  1  0
 12 79  1  0
 12 80  1  0
 13 81  1  1
 14 82  1  0
 14 83  1  0
 15 84  1  1
 16 85  1  0
 16 86  1  0
 17 87  1  0
 19 88  1  0
 19 89  1  0
 19 90  1  0
 20 91  1  6
 22 92  1  6
 23 93  1  0
 23 94  1  0
 24 95  1  6
 26 96  1  0
 26 97  1  0
 26 98  1  0
 27 99  1  1
 29100  1  6
 30101  1  0
 30102  1  0
 31103  1  1
 33104  1  0
 33105  1  0
 33106  1  0
 34107  1  6
 35108  1  0
 35109  1  0
 36110  1  1
 37111  1  0
 37112  1  0
 37113  1  0
 39114  1  6
 40115  1  0
 40116  1  0
 40117  1  0
 42118  1  6
 43119  1  0
 43120  1  0
 43121  1  0
 44122  1  0
 45123  1  0
 46124  1  0
 48125  1  0
 48126  1  0
 50127  1  1
 51128  1  6
 52129  1  0
 54130  1  0
 54131  1  0
 54132  1  0
 55133  1  0
 56134  1  6
 61135  1  0
M  END
$$$$
