
     RDKit          3D

 65 68  0  0  0  0  0  0  0  0999 V2000
    0.9831    1.0574   -2.0258 O   0  0  0  0  0  0  0  0  0  0  0  0
    0.1208    1.0357   -1.1049 C   0  0  0  0  0  0  0  0  0  0  0  0
    0.5153    0.5708    0.2802 C   0  0  0  0  0  0  0  0  0  0  0  0
    1.8803    0.0121    0.3009 N   0  0  0  0  0  0  0  0  0  0  0  0
    3.0005    0.9251    0.4582 C   0  0  0  0  0  0  0  0  0  0  0  0
    2.7808    2.1701    0.4578 O   0  0  0  0  0  0  0  0  0  0  0  0
    4.4074    0.4687    0.6146 C   0  0  0  0  0  0  0  0  0  0  0  0
    5.4719    1.3089    0.2601 C   0  0  0  0  0  0  0  0  0  0  0  0
    6.7805    0.8624    0.4274 C   0  0  0  0  0  0  0  0  0  0  0  0
    7.0057   -0.4072    0.9572 C   0  0  0  0  0  0  0  0  0  0  0  0
    5.9461   -1.1859    1.2928 N   0  0  0  0  0  0  0  0  0  0  0  0
    4.6924   -0.7601    1.1280 N   0  0  0  0  0  0  0  0  0  0  0  0
    2.0698   -1.3787   -0.1549 C   0  0  0  0  0  0  0  0  0  0  0  0
    2.1034   -2.3800    1.0193 C   0  0  0  0  0  0  0  0  0  0  0  0
    0.7358   -2.9979    1.3904 C   0  0  0  0  0  0  0  0  0  0  0  0
    0.3513   -4.2335    0.5583 C   0  0  0  0  0  0  0  0  0  0  0  0
    0.0105   -3.8792   -0.8204 N   0  0  0  0  0  0  0  0  0  0  0  0
   -1.0821   -3.0217   -1.1652 C   0  0  0  0  0  0  0  0  0  0  0  0
   -0.9043   -2.1520   -2.0560 O   0  0  0  0  0  0  0  0  0  0  0  0
   -2.4167   -3.1621   -0.5425 C   0  0  0  0  0  0  0  0  0  0  0  0
   -2.9393   -4.4405   -0.2904 C   0  0  0  0  0  0  0  0  0  0  0  0
   -4.2364   -4.5907    0.2048 C   0  0  0  0  0  0  0  0  0  0  0  0
   -4.8726   -6.1951    0.5244 Cl  0  0  0  0  0  0  0  0  0  0  0  0
   -5.0325   -3.4689    0.4161 C   0  0  0  0  0  0  0  0  0  0  0  0
   -4.5238   -2.1888    0.1751 C   0  0  0  0  0  0  0  0  0  0  0  0
   -3.2005   -2.0229   -0.2695 C   0  0  0  0  0  0  0  0  0  0  0  0
   -2.6122   -0.7574   -0.4061 O   0  0  0  0  0  0  0  0  0  0  0  0
   -3.3019    0.4843   -0.5185 C   0  0  0  0  0  0  0  0  0  0  0  0
   -2.2805    1.6206   -0.3972 C   0  0  0  0  0  0  0  0  0  0  0  0
   -2.9514    2.9955   -0.5618 C   0  0  0  0  0  0  0  0  0  0  0  0
   -1.9395    4.1042   -0.4077 C   0  0  0  0  0  0  0  0  0  0  0  0
   -1.3743    4.7093   -1.5437 C   0  0  0  0  0  0  0  0  0  0  0  0
   -0.3606    5.6610   -1.4037 C   0  0  0  0  0  0  0  0  0  0  0  0
    0.0983    6.0121   -0.1316 C   0  0  0  0  0  0  0  0  0  0  0  0
   -0.4556    5.4129    1.0032 C   0  0  0  0  0  0  0  0  0  0  0  0
   -1.4704    4.4602    0.8683 C   0  0  0  0  0  0  0  0  0  0  0  0
   -1.2221    1.4533   -1.4047 N   0  0  0  0  0  0  0  0  0  0  0  0
    0.4435    1.4247    0.9900 H   0  0  0  0  0  0  0  0  0  0  0  0
   -0.2124   -0.1911    0.6222 H   0  0  0  0  0  0  0  0  0  0  0  0
    5.2959    2.2999   -0.1476 H   0  0  0  0  0  0  0  0  0  0  0  0
    7.6132    1.5000    0.1537 H   0  0  0  0  0  0  0  0  0  0  0  0
    8.0117   -0.7785    1.0967 H   0  0  0  0  0  0  0  0  0  0  0  0
    1.2777   -1.6519   -0.8685 H   0  0  0  0  0  0  0  0  0  0  0  0
    3.0055   -1.4608   -0.7468 H   0  0  0  0  0  0  0  0  0  0  0  0
    2.5034   -1.8687    1.9224 H   0  0  0  0  0  0  0  0  0  0  0  0
    2.8178   -3.1952    0.7752 H   0  0  0  0  0  0  0  0  0  0  0  0
   -0.0759   -2.2469    1.3660 H   0  0  0  0  0  0  0  0  0  0  0  0
    0.8016   -3.3308    2.4461 H   0  0  0  0  0  0  0  0  0  0  0  0
    1.1918   -4.9650    0.5591 H   0  0  0  0  0  0  0  0  0  0  0  0
   -0.5191   -4.7278    1.0364 H   0  0  0  0  0  0  0  0  0  0  0  0
    0.7195   -4.0847   -1.5621 H   0  0  0  0  0  0  0  0  0  0  0  0
   -2.3478   -5.3212   -0.4924 H   0  0  0  0  0  0  0  0  0  0  0  0
   -6.0441   -3.5874    0.7827 H   0  0  0  0  0  0  0  0  0  0  0  0
   -5.1552   -1.3390    0.3671 H   0  0  0  0  0  0  0  0  0  0  0  0
   -4.0532    0.5928    0.2949 H   0  0  0  0  0  0  0  0  0  0  0  0
   -3.8118    0.5238   -1.5072 H   0  0  0  0  0  0  0  0  0  0  0  0
   -1.8607    1.5799    0.6308 H   0  0  0  0  0  0  0  0  0  0  0  0
   -3.4500    3.0621   -1.5515 H   0  0  0  0  0  0  0  0  0  0  0  0
   -3.7386    3.1158    0.2095 H   0  0  0  0  0  0  0  0  0  0  0  0
   -1.7077    4.4289   -2.5350 H   0  0  0  0  0  0  0  0  0  0  0  0
    0.0753    6.1201   -2.2809 H   0  0  0  0  0  0  0  0  0  0  0  0
    0.8896    6.7413   -0.0265 H   0  0  0  0  0  0  0  0  0  0  0  0
   -0.0921    5.6790    1.9871 H   0  0  0  0  0  0  0  0  0  0  0  0
   -1.8788    3.9907    1.7560 H   0  0  0  0  0  0  0  0  0  0  0  0
   -1.4764    1.5880   -2.4099 H   0  0  0  0  0  0  0  0  0  0  0  0
  1  2  2  0
  2  3  1  0
  3  4  1  0
  4  5  1  0
  5  6  2  0
  5  7  1  0
  7  8  2  0
  8  9  1  0
  9 10  2  0
 10 11  1  0
 11 12  2  0
  4 13  1  0
 13 14  1  0
 14 15  1  0
 15 16  1  0
 16 17  1  0
 17 18  1  0
 18 19  2  0
 18 20  1  0
 20 21  2  0
 21 22  1  0
 22 23  1  0
 22 24  2  0
 24 25  1  0
 25 26  2  0
 26 27  1  0
 27 28  1  0
 28 29  1  0
 29 30  1  0
 30 31  1  0
 31 32  2  0
 32 33  1  0
 33 34  2  0
 34 35  1  0
 35 36  2  0
 29 37  1  0
 37  2  1  0
 12  7  1  0
 26 20  1  0
 36 31  1  0
  3 38  1  0
  3 39  1  0
  8 40  1  0
  9 41  1  0
 10 42  1  0
 13 43  1  0
 13 44  1  0
 14 45  1  0
 14 46  1  0
 15 47  1  0
 15 48  1  0
 16 49  1  0
 16 50  1  0
 17 51  1  0
 21 52  1  0
 24 53  1  0
 25 54  1  0
 28 55  1  0
 28 56  1  0
 29 57  1  0
 30 58  1  0
 30 59  1  0
 32 60  1  0
 33 61  1  0
 34 62  1  0
 35 63  1  0
 36 64  1  0
 37 65  1  0
M  END
$$$$
