
     RDKit          3D

 93 94  0  0  0  0  0  0  0  0999 V2000
    9.0141    4.0859    1.3737 C   0  0  0  0  0  0  0  0  0  0  0  0
    7.7113    3.3501    1.0630 C   0  0  0  0  0  0  0  0  0  0  0  0
    7.4431    2.1809    2.0267 C   0  0  0  0  0  0  0  0  0  0  0  0
    8.4789    1.0402    1.9631 C   0  0  0  0  0  0  0  0  0  0  0  0
    8.6472    0.3824    0.5774 C   0  0  0  0  0  0  0  0  0  0  0  0
    7.3485   -0.1624   -0.0452 C   0  0  0  0  0  0  0  0  0  0  0  0
    6.6711   -1.2266    0.8342 C   0  0  0  0  0  0  0  0  0  0  0  0
    5.4931   -1.9202    0.1345 C   0  0  0  0  0  0  0  0  0  0  0  0
    4.3534   -0.9461   -0.1983 C   0  0  0  0  0  0  0  0  0  0  0  0
    3.0990   -1.6931   -0.5369 C   0  0  0  0  0  0  0  0  0  0  0  0
    2.8684   -2.0108   -1.7364 O   0  0  0  0  0  0  0  0  0  0  0  0
    2.2035   -2.0958    0.5097 N   0  0  0  0  0  0  0  0  0  0  0  0
    0.8452   -2.5746    0.2390 C   0  0  1  0  0  0  0  0  0  0  0  0
    0.4325   -3.6006    1.3118 C   0  0  0  0  0  0  0  0  0  0  0  0
   -0.9425   -4.1672    1.0529 C   0  0  0  0  0  0  0  0  0  0  0  0
   -2.0577   -3.6741    1.7518 C   0  0  0  0  0  0  0  0  0  0  0  0
   -3.3327   -4.1843    1.4942 C   0  0  0  0  0  0  0  0  0  0  0  0
   -3.5059   -5.1770    0.5269 C   0  0  0  0  0  0  0  0  0  0  0  0
   -2.4037   -5.6681   -0.1775 C   0  0  0  0  0  0  0  0  0  0  0  0
   -1.1258   -5.1654    0.0825 C   0  0  0  0  0  0  0  0  0  0  0  0
   -0.0983   -1.3994    0.2156 C   0  0  0  0  0  0  0  0  0  0  0  0
   -0.1502   -0.6284    1.2110 O   0  0  0  0  0  0  0  0  0  0  0  0
   -0.9557   -1.1851   -0.9156 N   0  0  0  0  0  0  0  0  0  0  0  0
   -1.8967   -0.0673   -1.0044 C   0  0  1  0  0  0  0  0  0  0  0  0
   -1.4005    0.9404   -2.0791 C   0  0  0  0  0  0  0  0  0  0  0  0
   -1.8924    2.3930   -1.8820 C   0  0  0  0  0  0  0  0  0  0  0  0
   -3.4155    2.4778   -1.8623 C   0  0  0  0  0  0  0  0  0  0  0  0
   -3.9750    3.9014   -1.9143 C   0  0  0  0  0  0  0  0  0  0  0  0
   -5.4648    3.9252   -1.5193 C   0  0  0  0  0  0  0  0  0  0  0  0
   -6.2874    3.1165   -2.4291 N   0  0  0  0  0  0  0  0  0  0  0  0
   -7.3575    2.2915   -1.9344 C   0  0  0  0  0  0  0  0  0  0  0  0
   -8.5334    2.5015   -2.3349 O   0  0  0  0  0  0  0  0  0  0  0  0
   -7.1127    1.2085   -0.9566 C   0  0  0  0  0  0  0  0  0  0  0  0
   -5.9551    0.5412   -0.9572 C   0  0  0  0  0  0  0  0  0  0  0  0
   -5.5222   -0.5180    0.0535 C   0  0  2  0  0  0  0  0  0  0  0  0
   -5.6157   -0.0643    1.5487 C   0  0  0  0  0  0  0  0  0  0  0  0
   -4.7881    1.1979    1.8412 C   0  0  0  0  0  0  0  0  0  0  0  0
   -7.0480    0.0917    2.0841 C   0  0  0  0  0  0  0  0  0  0  0  0
   -4.1335   -0.9838   -0.1855 N   0  0  0  0  0  0  0  0  0  0  0  0
   -3.2770   -0.6233   -1.2822 C   0  0  0  0  0  0  0  0  0  0  0  0
   -3.6276   -0.8981   -2.4614 O   0  0  0  0  0  0  0  0  0  0  0  0
    9.0490    4.3829    2.4448 H   0  0  0  0  0  0  0  0  0  0  0  0
    9.0758    5.0040    0.7512 H   0  0  0  0  0  0  0  0  0  0  0  0
    9.8925    3.4471    1.1382 H   0  0  0  0  0  0  0  0  0  0  0  0
    7.7210    2.9989    0.0087 H   0  0  0  0  0  0  0  0  0  0  0  0
    6.8706    4.0725    1.1585 H   0  0  0  0  0  0  0  0  0  0  0  0
    6.4304    1.7744    1.8221 H   0  0  0  0  0  0  0  0  0  0  0  0
    7.4156    2.5724    3.0668 H   0  0  0  0  0  0  0  0  0  0  0  0
    9.4680    1.4225    2.2954 H   0  0  0  0  0  0  0  0  0  0  0  0
    8.1932    0.2643    2.7061 H   0  0  0  0  0  0  0  0  0  0  0  0
    9.1030    1.1127   -0.1240 H   0  0  0  0  0  0  0  0  0  0  0  0
    9.3745   -0.4521    0.6721 H   0  0  0  0  0  0  0  0  0  0  0  0
    6.6522    0.6794   -0.2426 H   0  0  0  0  0  0  0  0  0  0  0  0
    7.6051   -0.6186   -1.0265 H   0  0  0  0  0  0  0  0  0  0  0  0
    6.3046   -0.7646    1.7752 H   0  0  0  0  0  0  0  0  0  0  0  0
    7.4189   -2.0031    1.1074 H   0  0  0  0  0  0  0  0  0  0  0  0
    5.8466   -2.4157   -0.7967 H   0  0  0  0  0  0  0  0  0  0  0  0
    5.1148   -2.7150    0.8170 H   0  0  0  0  0  0  0  0  0  0  0  0
    4.1509   -0.2802    0.6664 H   0  0  0  0  0  0  0  0  0  0  0  0
    4.6420   -0.3092   -1.0627 H   0  0  0  0  0  0  0  0  0  0  0  0
    2.4527   -1.8440    1.4926 H   0  0  0  0  0  0  0  0  0  0  0  0
    0.8236   -3.0900   -0.7466 H   0  0  0  0  0  0  0  0  0  0  0  0
    0.4695   -3.1293    2.3196 H   0  0  0  0  0  0  0  0  0  0  0  0
    1.1707   -4.4329    1.3221 H   0  0  0  0  0  0  0  0  0  0  0  0
   -1.9405   -2.8917    2.4912 H   0  0  0  0  0  0  0  0  0  0  0  0
   -4.1886   -3.8002    2.0331 H   0  0  0  0  0  0  0  0  0  0  0  0
   -4.4953   -5.5616    0.3173 H   0  0  0  0  0  0  0  0  0  0  0  0
   -2.5384   -6.4374   -0.9256 H   0  0  0  0  0  0  0  0  0  0  0  0
   -0.2804   -5.5469   -0.4757 H   0  0  0  0  0  0  0  0  0  0  0  0
   -0.8609   -1.8161   -1.7441 H   0  0  0  0  0  0  0  0  0  0  0  0
   -1.9402    0.4636   -0.0305 H   0  0  0  0  0  0  0  0  0  0  0  0
   -0.2893    0.9732   -2.0413 H   0  0  0  0  0  0  0  0  0  0  0  0
   -1.6683    0.5898   -3.0988 H   0  0  0  0  0  0  0  0  0  0  0  0
   -1.4878    2.7992   -0.9299 H   0  0  0  0  0  0  0  0  0  0  0  0
   -1.4989    3.0160   -2.7153 H   0  0  0  0  0  0  0  0  0  0  0  0
   -3.8044    1.9252   -2.7428 H   0  0  0  0  0  0  0  0  0  0  0  0
   -3.7480    2.0210   -0.9099 H   0  0  0  0  0  0  0  0  0  0  0  0
   -3.8471    4.3207   -2.9358 H   0  0  0  0  0  0  0  0  0  0  0  0
   -3.4148    4.5449   -1.2012 H   0  0  0  0  0  0  0  0  0  0  0  0
   -5.5741    3.5695   -0.4734 H   0  0  0  0  0  0  0  0  0  0  0  0
   -5.8271    4.9755   -1.5465 H   0  0  0  0  0  0  0  0  0  0  0  0
   -6.3393    3.4319   -3.4270 H   0  0  0  0  0  0  0  0  0  0  0  0
   -7.9103    0.9344   -0.2867 H   0  0  0  0  0  0  0  0  0  0  0  0
   -5.3396    0.7055   -1.8149 H   0  0  0  0  0  0  0  0  0  0  0  0
   -6.1914   -1.3957   -0.0816 H   0  0  0  0  0  0  0  0  0  0  0  0
   -5.1711   -0.8856    2.1569 H   0  0  0  0  0  0  0  0  0  0  0  0
   -4.7971    1.4169    2.9319 H   0  0  0  0  0  0  0  0  0  0  0  0
   -3.7307    1.0472    1.5359 H   0  0  0  0  0  0  0  0  0  0  0  0
   -5.2025    2.0757    1.3054 H   0  0  0  0  0  0  0  0  0  0  0  0
   -7.0448   -0.0125    3.1911 H   0  0  0  0  0  0  0  0  0  0  0  0
   -7.7162   -0.6915    1.6691 H   0  0  0  0  0  0  0  0  0  0  0  0
   -7.4588    1.0967    1.8632 H   0  0  0  0  0  0  0  0  0  0  0  0
   -3.6725   -1.5363    0.5709 H   0  0  0  0  0  0  0  0  0  0  0  0
  1  2  1  0
  2  3  1  0
  3  4  1  0
  4  5  1  0
  5  6  1  0
  6  7  1  0
  7  8  1  0
  8  9  1  0
  9 10  1  0
 10 11  2  0
 10 12  1  0
 12 13  1  0
 13 14  1  0
 14 15  1  0
 15 16  2  0
 16 17  1  0
 17 18  2  0
 18 19  1  0
 19 20  2  0
 13 21  1  0
 21 22  2  0
 21 23  1  0
 23 24  1  0
 24 25  1  0
 25 26  1  0
 26 27  1  0
 27 28  1  0
 28 29  1  0
 29 30  1  0
 30 31  1  0
 31 32  2  0
 31 33  1  0
 33 34  2  0
 34 35  1  0
 35 36  1  0
 36 37  1  0
 36 38  1  0
 35 39  1  0
 39 40  1  0
 40 41  2  0
 20 15  1  0
 40 24  1  0
  1 42  1  0
  1 43  1  0
  1 44  1  0
  2 45  1  0
  2 46  1  0
  3 47  1  0
  3 48  1  0
  4 49  1  0
  4 50  1  0
  5 51  1  0
  5 52  1  0
  6 53  1  0
  6 54  1  0
  7 55  1  0
  7 56  1  0
  8 57  1  0
  8 58  1  0
  9 59  1  0
  9 60  1  0
 12 61  1  0
 13 62  1  6
 14 63  1  0
 14 64  1  0
 16 65  1  0
 17 66  1  0
 18 67  1  0
 19 68  1  0
 20 69  1  0
 23 70  1  0
 24 71  1  1
 25 72  1  0
 25 73  1  0
 26 74  1  0
 26 75  1  0
 27 76  1  0
 27 77  1  0
 28 78  1  0
 28 79  1  0
 29 80  1  0
 29 81  1  0
 30 82  1  0
 33 83  1  0
 34 84  1  0
 35 85  1  1
 36 86  1  0
 37 87  1  0
 37 88  1  0
 37 89  1  0
 38 90  1  0
 38 91  1  0
 38 92  1  0
 39 93  1  0
M  END
$$$$
