
     RDKit          3D

 82 85  0  0  0  0  0  0  0  0999 V2000
   11.1013   -3.5549    1.0914 C   0  0  0  0  0  0  0  0  0  0  0  0
   10.2717   -2.4916    0.6804 O   0  0  0  0  0  0  0  0  0  0  0  0
    9.7534   -2.7728   -0.6012 C   0  0  0  0  0  0  0  0  0  0  0  0
    8.9097   -1.6246   -1.0399 C   0  0  0  0  0  0  0  0  0  0  0  0
    9.3929   -0.5129   -1.6259 N   0  0  0  0  0  0  0  0  0  0  0  0
    8.3526    0.2807   -1.8286 N   0  0  0  0  0  0  0  0  0  0  0  0
    7.2773   -0.3776   -1.3548 C   0  0  0  0  0  0  0  0  0  0  0  0
    5.8798    0.1710   -1.3697 C   0  0  0  0  0  0  0  0  0  0  0  0
    5.3639    0.4076    0.0735 C   0  0  0  0  0  0  0  0  0  0  0  0
    3.8649    0.1086    0.2417 C   0  0  0  0  0  0  0  0  0  0  0  0
    3.1201    0.4540   -0.9801 N   0  0  0  0  0  0  0  0  0  0  0  0
    1.9223    1.2607   -0.9474 C   0  0  0  0  0  0  0  0  0  0  0  0
    1.0933    1.1702   -1.8934 O   0  0  0  0  0  0  0  0  0  0  0  0
    1.6383    2.1929    0.2081 C   0  0  0  0  0  0  0  0  0  0  0  0
    0.6155    3.2979   -0.1114 C   0  0  0  0  0  0  0  0  0  0  0  0
   -0.7941    2.7711   -0.2326 C   0  0  0  0  0  0  0  0  0  0  0  0
   -1.4781    2.8454   -1.4545 C   0  0  0  0  0  0  0  0  0  0  0  0
   -2.7908    2.3824   -1.5583 C   0  0  0  0  0  0  0  0  0  0  0  0
   -3.4414    1.8325   -0.4412 C   0  0  0  0  0  0  0  0  0  0  0  0
   -2.7499    1.7201    0.7816 C   0  0  0  0  0  0  0  0  0  0  0  0
   -1.4419    2.2219    0.8842 C   0  0  0  0  0  0  0  0  0  0  0  0
   -3.4278    1.1429    2.0023 C   0  0  0  0  0  0  0  0  0  0  0  0
   -3.9541   -0.2285    1.7741 N   0  0  0  0  0  0  0  0  0  0  0  0
   -2.9248   -1.2860    1.5181 C   0  0  0  0  0  0  0  0  0  0  0  0
   -2.5624   -1.3575    0.0298 C   0  0  0  0  0  0  0  0  0  0  0  0
   -1.6609   -1.1784    2.3915 C   0  0  0  0  0  0  0  0  0  0  0  0
   -4.8634   -0.6153    2.8807 C   0  0  0  0  0  0  0  0  0  0  0  0
   -5.8408   -1.6695    2.4302 C   0  0  0  0  0  0  0  0  0  0  0  0
   -5.6941   -2.8497    2.8490 O   0  0  0  0  0  0  0  0  0  0  0  0
   -6.9162   -1.3825    1.5201 N   0  0  0  0  0  0  0  0  0  0  0  0
   -7.3548   -0.0287    1.1740 C   0  0  0  0  0  0  0  0  0  0  0  0
   -8.0015   -0.0038   -0.2198 C   0  0  0  0  0  0  0  0  0  0  0  0
   -6.9933   -0.3015   -1.3523 C   0  0  0  0  0  0  0  0  0  0  0  0
   -6.5409    0.9514   -2.1245 C   0  0  0  0  0  0  0  0  0  0  0  0
   -5.8047    1.9803   -1.2628 C   0  0  0  0  0  0  0  0  0  0  0  0
   -4.7543    1.3542   -0.5263 O   0  0  0  0  0  0  0  0  0  0  0  0
    3.5471   -0.1272   -2.2639 C   0  0  0  0  0  0  0  0  0  0  0  0
    4.9472   -0.7528   -2.1702 C   0  0  0  0  0  0  0  0  0  0  0  0
    7.6124   -1.5484   -0.8663 O   0  0  0  0  0  0  0  0  0  0  0  0
   11.9804   -3.6633    0.4172 H   0  0  0  0  0  0  0  0  0  0  0  0
   11.4862   -3.3291    2.1078 H   0  0  0  0  0  0  0  0  0  0  0  0
   10.5351   -4.5121    1.1498 H   0  0  0  0  0  0  0  0  0  0  0  0
   10.5727   -2.9092   -1.3433 H   0  0  0  0  0  0  0  0  0  0  0  0
    9.1182   -3.6872   -0.5789 H   0  0  0  0  0  0  0  0  0  0  0  0
    5.9042    1.1539   -1.8933 H   0  0  0  0  0  0  0  0  0  0  0  0
    5.5525    1.4680    0.3492 H   0  0  0  0  0  0  0  0  0  0  0  0
    5.9190   -0.2190    0.8065 H   0  0  0  0  0  0  0  0  0  0  0  0
    3.4882    0.6406    1.1377 H   0  0  0  0  0  0  0  0  0  0  0  0
    3.7292   -0.9763    0.4419 H   0  0  0  0  0  0  0  0  0  0  0  0
    1.3005    1.5987    1.0838 H   0  0  0  0  0  0  0  0  0  0  0  0
    2.5877    2.6973    0.4885 H   0  0  0  0  0  0  0  0  0  0  0  0
    0.9253    3.8329   -1.0364 H   0  0  0  0  0  0  0  0  0  0  0  0
    0.6349    4.0462    0.7103 H   0  0  0  0  0  0  0  0  0  0  0  0
   -0.9946    3.2609   -2.3302 H   0  0  0  0  0  0  0  0  0  0  0  0
   -3.2841    2.4262   -2.5197 H   0  0  0  0  0  0  0  0  0  0  0  0
   -0.9250    2.1858    1.8361 H   0  0  0  0  0  0  0  0  0  0  0  0
   -4.2679    1.8351    2.2325 H   0  0  0  0  0  0  0  0  0  0  0  0
   -2.7642    1.1690    2.8944 H   0  0  0  0  0  0  0  0  0  0  0  0
   -3.3602   -2.2845    1.7448 H   0  0  0  0  0  0  0  0  0  0  0  0
   -1.8667   -0.5467   -0.2650 H   0  0  0  0  0  0  0  0  0  0  0  0
   -3.4804   -1.2967   -0.5915 H   0  0  0  0  0  0  0  0  0  0  0  0
   -2.0605   -2.3242   -0.1890 H   0  0  0  0  0  0  0  0  0  0  0  0
   -1.0469   -2.0976    2.2763 H   0  0  0  0  0  0  0  0  0  0  0  0
   -1.0336   -0.3152    2.0930 H   0  0  0  0  0  0  0  0  0  0  0  0
   -1.9300   -1.0807    3.4629 H   0  0  0  0  0  0  0  0  0  0  0  0
   -4.2832   -0.9838    3.7559 H   0  0  0  0  0  0  0  0  0  0  0  0
   -5.4558    0.2494    3.2504 H   0  0  0  0  0  0  0  0  0  0  0  0
   -7.5376   -2.1801    1.2536 H   0  0  0  0  0  0  0  0  0  0  0  0
   -6.5093    0.6849    1.2014 H   0  0  0  0  0  0  0  0  0  0  0  0
   -8.1032    0.3043    1.9245 H   0  0  0  0  0  0  0  0  0  0  0  0
   -8.4910    0.9813   -0.3788 H   0  0  0  0  0  0  0  0  0  0  0  0
   -8.8148   -0.7619   -0.2461 H   0  0  0  0  0  0  0  0  0  0  0  0
   -6.1039   -0.8508   -0.9730 H   0  0  0  0  0  0  0  0  0  0  0  0
   -7.4851   -0.9793   -2.0845 H   0  0  0  0  0  0  0  0  0  0  0  0
   -7.4243    1.4377   -2.5953 H   0  0  0  0  0  0  0  0  0  0  0  0
   -5.8608    0.6304   -2.9445 H   0  0  0  0  0  0  0  0  0  0  0  0
   -6.5119    2.4478   -0.5448 H   0  0  0  0  0  0  0  0  0  0  0  0
   -5.4282    2.7967   -1.9143 H   0  0  0  0  0  0  0  0  0  0  0  0
    2.8151   -0.8980   -2.5871 H   0  0  0  0  0  0  0  0  0  0  0  0
    3.5732    0.6747   -3.0344 H   0  0  0  0  0  0  0  0  0  0  0  0
    4.8801   -1.7483   -1.6770 H   0  0  0  0  0  0  0  0  0  0  0  0
    5.3470   -0.9051   -3.1969 H   0  0  0  0  0  0  0  0  0  0  0  0
  1  2  1  0
  2  3  1  0
  3  4  1  0
  4  5  2  0
  5  6  1  0
  6  7  2  0
  7  8  1  0
  8  9  1  0
  9 10  1  0
 10 11  1  0
 11 12  1  0
 12 13  2  0
 12 14  1  0
 14 15  1  0
 15 16  1  0
 16 17  2  0
 17 18  1  0
 18 19  2  0
 19 20  1  0
 20 21  2  0
 20 22  1  0
 22 23  1  0
 23 24  1  0
 24 25  1  0
 24 26  1  0
 23 27  1  0
 27 28  1  0
 28 29  2  0
 28 30  1  0
 30 31  1  0
 31 32  1  0
 32 33  1  0
 33 34  1  0
 34 35  1  0
 35 36  1  0
 11 37  1  0
 37 38  1  0
  7 39  1  0
 39  4  1  0
 38  8  1  0
 21 16  1  0
 36 19  1  0
  1 40  1  0
  1 41  1  0
  1 42  1  0
  3 43  1  0
  3 44  1  0
  8 45  1  0
  9 46  1  0
  9 47  1  0
 10 48  1  0
 10 49  1  0
 14 50  1  0
 14 51  1  0
 15 52  1  0
 15 53  1  0
 17 54  1  0
 18 55  1  0
 21 56  1  0
 22 57  1  0
 22 58  1  0
 24 59  1  0
 25 60  1  0
 25 61  1  0
 25 62  1  0
 26 63  1  0
 26 64  1  0
 26 65  1  0
 27 66  1  0
 27 67  1  0
 30 68  1  0
 31 69  1  0
 31 70  1  0
 32 71  1  0
 32 72  1  0
 33 73  1  0
 33 74  1  0
 34 75  1  0
 34 76  1  0
 35 77  1  0
 35 78  1  0
 37 79  1  0
 37 80  1  0
 38 81  1  0
 38 82  1  0
M  END
$$$$
