
     RDKit          3D

 95 98  0  0  0  0  0  0  0  0999 V2000
   -8.6462   -0.6963    1.8994 C   0  0  0  0  0  0  0  0  0  0  0  0
   -7.4585   -1.4819    1.4330 C   0  0  0  0  0  0  0  0  0  0  0  0
   -6.5094   -1.9080    2.3810 C   0  0  0  0  0  0  0  0  0  0  0  0
   -5.4171   -2.6830    1.9792 C   0  0  0  0  0  0  0  0  0  0  0  0
   -5.2709   -3.0589    0.6404 C   0  0  0  0  0  0  0  0  0  0  0  0
   -3.8833   -4.0197    0.1384 S   0  0  0  0  0  6  0  0  0  0  0  0
   -4.3443   -5.3966   -0.2388 O   0  0  0  0  0  0  0  0  0  0  0  0
   -2.8723   -4.1309    1.2519 O   0  0  0  0  0  0  0  0  0  0  0  0
   -3.1466   -3.2716   -1.2444 N   0  0  0  0  0  0  0  0  0  0  0  0
   -2.7401   -1.8912   -1.2666 C   0  0  0  0  0  0  0  0  0  0  0  0
   -2.4782   -1.2717   -2.4915 C   0  0  0  0  0  0  0  0  0  0  0  0
   -2.0769    0.0638   -2.5564 C   0  0  0  0  0  0  0  0  0  0  0  0
   -1.9216    0.8249   -1.3839 C   0  0  0  0  0  0  0  0  0  0  0  0
   -2.1484    0.1916   -0.1375 C   0  0  0  0  0  0  0  0  0  0  0  0
   -2.5585   -1.1519   -0.0874 C   0  0  0  0  0  0  0  0  0  0  0  0
   -1.8099    0.8574    1.1282 C   0  0  0  0  0  0  0  0  0  0  0  0
   -2.6571    1.6375    1.6418 O   0  0  0  0  0  0  0  0  0  0  0  0
   -0.5527    0.5873    1.8050 N   0  0  0  0  0  0  0  0  0  0  0  0
   -0.5479    0.5836    3.2917 C   0  0  2  0  0  0  0  0  0  0  0  0
   -0.1651    1.9758    3.8458 C   0  0  0  0  0  0  0  0  0  0  0  0
    0.3572   -0.5091    3.8823 C   0  0  0  0  0  0  0  0  0  0  0  0
   -0.1094   -1.7821    3.5404 O   0  0  0  0  0  0  0  0  0  0  0  0
    0.6980    0.8954    1.0811 C   0  0  0  0  0  0  0  0  0  0  0  0
    1.1038   -0.1410    0.0010 C   0  0  2  0  0  0  0  0  0  0  0  0
    1.3923   -1.5183    0.6209 C   0  0  0  0  0  0  0  0  0  0  0  0
    2.2560    0.3647   -0.9301 C   0  0  2  0  0  0  0  0  0  0  0  0
    3.6912    0.2190   -0.3271 C   0  0  0  0  0  0  0  0  0  0  0  0
    4.7477    0.8315   -1.1555 N   0  0  0  0  0  0  0  0  0  0  0  0
    4.8702    0.1687   -2.4645 C   0  0  0  0  0  0  0  0  0  0  0  0
    6.2715    0.7233   -0.3011 S   0  0  0  0  0  6  0  0  0  0  0  0
    7.3925    1.1745   -1.1843 O   0  0  0  0  0  0  0  0  0  0  0  0
    6.2248    1.6408    0.8883 O   0  0  0  0  0  0  0  0  0  0  0  0
    6.5965   -0.9215    0.2413 C   0  0  0  0  0  0  0  0  0  0  0  0
    7.1166   -1.8624   -0.6552 C   0  0  0  0  0  0  0  0  0  0  0  0
    7.2760   -3.1917   -0.2612 C   0  0  0  0  0  0  0  0  0  0  0  0
    6.9433   -3.5860    1.0426 C   0  0  0  0  0  0  0  0  0  0  0  0
    7.0943   -4.8768    1.4126 F   0  0  0  0  0  0  0  0  0  0  0  0
    6.4370   -2.6503    1.9461 C   0  0  0  0  0  0  0  0  0  0  0  0
    6.2667   -1.3177    1.5503 C   0  0  0  0  0  0  0  0  0  0  0  0
    1.9198    1.6226   -1.5333 O   0  0  0  0  0  0  0  0  0  0  0  0
    2.4935    2.7711   -0.9313 C   0  0  0  0  0  0  0  0  0  0  0  0
    1.5175    3.9601   -0.9669 C   0  0  0  0  0  0  0  0  0  0  0  0
    0.8594    4.2091   -2.3461 C   0  0  0  0  0  0  0  0  0  0  0  0
   -0.6830    4.3190   -2.2769 C   0  0  0  0  0  0  0  0  0  0  0  0
   -1.4108    2.9906   -2.5883 C   0  0  2  0  0  0  0  0  0  0  0  0
   -2.8337    3.2668   -3.0989 C   0  0  0  0  0  0  0  0  0  0  0  0
   -1.4792    2.1670   -1.4116 O   0  0  0  0  0  0  0  0  0  0  0  0
   -6.2294   -2.6570   -0.2981 C   0  0  0  0  0  0  0  0  0  0  0  0
   -7.3170   -1.8608    0.0846 C   0  0  0  0  0  0  0  0  0  0  0  0
   -9.1914   -0.2386    1.0413 H   0  0  0  0  0  0  0  0  0  0  0  0
   -8.3300    0.1086    2.5887 H   0  0  0  0  0  0  0  0  0  0  0  0
   -9.3474   -1.3696    2.4328 H   0  0  0  0  0  0  0  0  0  0  0  0
   -6.6114   -1.6384    3.4150 H   0  0  0  0  0  0  0  0  0  0  0  0
   -4.6953   -2.9994    2.7153 H   0  0  0  0  0  0  0  0  0  0  0  0
   -3.1196   -3.8260   -2.1255 H   0  0  0  0  0  0  0  0  0  0  0  0
   -2.5854   -1.8311   -3.4109 H   0  0  0  0  0  0  0  0  0  0  0  0
   -1.8377    0.4697   -3.5272 H   0  0  0  0  0  0  0  0  0  0  0  0
   -2.7020   -1.6205    0.8832 H   0  0  0  0  0  0  0  0  0  0  0  0
   -1.5831    0.3660    3.6499 H   0  0  0  0  0  0  0  0  0  0  0  0
   -0.7634    2.7723    3.3343 H   0  0  0  0  0  0  0  0  0  0  0  0
    0.9201    2.1899    3.7010 H   0  0  0  0  0  0  0  0  0  0  0  0
   -0.3779    2.0275    4.9455 H   0  0  0  0  0  0  0  0  0  0  0  0
    1.4034   -0.3959    3.5181 H   0  0  0  0  0  0  0  0  0  0  0  0
    0.3955   -0.4068    4.9867 H   0  0  0  0  0  0  0  0  0  0  0  0
   -0.8792   -1.9762    4.1405 H   0  0  0  0  0  0  0  0  0  0  0  0
    1.5537    1.0391    1.7717 H   0  0  0  0  0  0  0  0  0  0  0  0
    0.5224    1.8601    0.5928 H   0  0  0  0  0  0  0  0  0  0  0  0
    0.2582   -0.3047   -0.6773 H   0  0  0  0  0  0  0  0  0  0  0  0
    0.4713   -1.9428    1.0591 H   0  0  0  0  0  0  0  0  0  0  0  0
    1.7245   -2.2229   -0.1616 H   0  0  0  0  0  0  0  0  0  0  0  0
    2.1660   -1.4523    1.4074 H   0  0  0  0  0  0  0  0  0  0  0  0
    2.2405   -0.3598   -1.7759 H   0  0  0  0  0  0  0  0  0  0  0  0
    3.9021   -0.8664   -0.1978 H   0  0  0  0  0  0  0  0  0  0  0  0
    3.7138    0.6643    0.6877 H   0  0  0  0  0  0  0  0  0  0  0  0
    4.9523   -0.9394   -2.3688 H   0  0  0  0  0  0  0  0  0  0  0  0
    5.7535    0.5409   -3.0118 H   0  0  0  0  0  0  0  0  0  0  0  0
    3.9958    0.4159   -3.1057 H   0  0  0  0  0  0  0  0  0  0  0  0
    7.3643   -1.5756   -1.6729 H   0  0  0  0  0  0  0  0  0  0  0  0
    7.6431   -3.9279   -0.9673 H   0  0  0  0  0  0  0  0  0  0  0  0
    6.1615   -2.9540    2.9513 H   0  0  0  0  0  0  0  0  0  0  0  0
    5.8420   -0.6136    2.2569 H   0  0  0  0  0  0  0  0  0  0  0  0
    3.4091    3.0464   -1.4917 H   0  0  0  0  0  0  0  0  0  0  0  0
    2.7634    2.6090    0.1309 H   0  0  0  0  0  0  0  0  0  0  0  0
    0.7416    3.8362   -0.1791 H   0  0  0  0  0  0  0  0  0  0  0  0
    2.0870    4.8764   -0.6773 H   0  0  0  0  0  0  0  0  0  0  0  0
    1.1690    3.4502   -3.0976 H   0  0  0  0  0  0  0  0  0  0  0  0
    1.2538    5.1794   -2.7466 H   0  0  0  0  0  0  0  0  0  0  0  0
   -0.9853    5.0902   -3.0325 H   0  0  0  0  0  0  0  0  0  0  0  0
   -1.0272    4.7253   -1.2933 H   0  0  0  0  0  0  0  0  0  0  0  0
   -0.8527    2.4695   -3.3977 H   0  0  0  0  0  0  0  0  0  0  0  0
   -3.4670    3.6810   -2.2729 H   0  0  0  0  0  0  0  0  0  0  0  0
   -3.3116    2.3357   -3.4879 H   0  0  0  0  0  0  0  0  0  0  0  0
   -2.8253    3.9981   -3.9357 H   0  0  0  0  0  0  0  0  0  0  0  0
   -6.1200   -2.9344   -1.3552 H   0  0  0  0  0  0  0  0  0  0  0  0
   -8.0534   -1.5649   -0.6529 H   0  0  0  0  0  0  0  0  0  0  0  0
  1  2  1  0
  2  3  2  0
  3  4  1  0
  4  5  2  0
  5  6  1  0
  6  7  2  0
  6  8  2  0
  6  9  1  0
  9 10  1  0
 10 11  2  0
 11 12  1  0
 12 13  2  0
 13 14  1  0
 14 15  2  0
 14 16  1  0
 16 17  2  0
 16 18  1  0
 18 19  1  0
 19 20  1  0
 19 21  1  0
 21 22  1  0
 18 23  1  0
 23 24  1  0
 24 25  1  0
 24 26  1  0
 26 27  1  0
 27 28  1  0
 28 29  1  0
 28 30  1  0
 30 31  2  0
 30 32  2  0
 30 33  1  0
 33 34  2  0
 34 35  1  0
 35 36  2  0
 36 37  1  0
 36 38  1  0
 38 39  2  0
 26 40  1  0
 40 41  1  0
 41 42  1  0
 42 43  1  0
 43 44  1  0
 44 45  1  0
 45 46  1  0
 45 47  1  0
  5 48  1  0
 48 49  2  0
 49  2  1  0
 15 10  1  0
 39 33  1  0
 47 13  1  0
  1 50  1  0
  1 51  1  0
  1 52  1  0
  3 53  1  0
  4 54  1  0
  9 55  1  0
 11 56  1  0
 12 57  1  0
 15 58  1  0
 19 59  1  1
 20 60  1  0
 20 61  1  0
 20 62  1  0
 21 63  1  0
 21 64  1  0
 22 65  1  0
 23 66  1  0
 23 67  1  0
 24 68  1  6
 25 69  1  0
 25 70  1  0
 25 71  1  0
 26 72  1  6
 27 73  1  0
 27 74  1  0
 29 75  1  0
 29 76  1  0
 29 77  1  0
 34 78  1  0
 35 79  1  0
 38 80  1  0
 39 81  1  0
 41 82  1  0
 41 83  1  0
 42 84  1  0
 42 85  1  0
 43 86  1  0
 43 87  1  0
 44 88  1  0
 44 89  1  0
 45 90  1  6
 46 91  1  0
 46 92  1  0
 46 93  1  0
 48 94  1  0
 49 95  1  0
M  END
$$$$
