
     RDKit          3D

 61 64  0  0  0  0  0  0  0  0999 V2000
    1.1785   -3.0642   -0.2072 C   0  0  0  0  0  0  0  0  0  0  0  0
    0.1216   -2.1668    0.2654 N   0  0  0  0  0  0  0  0  0  0  0  0
   -1.2657   -2.6587    0.2331 C   0  0  0  0  0  0  0  0  0  0  0  0
   -2.1137   -1.9227   -0.8130 C   0  0  0  0  0  0  0  0  0  0  0  0
   -2.8723   -0.8997   -0.1716 O   0  0  0  0  0  0  0  0  0  0  0  0
   -3.6517    0.0723   -0.8168 C   0  0  0  0  0  0  0  0  0  0  0  0
   -3.7407    0.1413   -2.2199 C   0  0  0  0  0  0  0  0  0  0  0  0
   -4.4997    1.1422   -2.8314 C   0  0  0  0  0  0  0  0  0  0  0  0
   -5.1782    2.0807   -2.0529 C   0  0  0  0  0  0  0  0  0  0  0  0
   -5.1055    2.0189   -0.6601 C   0  0  0  0  0  0  0  0  0  0  0  0
   -4.3518    1.0139   -0.0309 C   0  0  0  0  0  0  0  0  0  0  0  0
   -4.2830    0.9757    1.4818 C   0  0  0  0  0  0  0  0  0  0  0  0
   -3.3001    2.0087    2.0735 C   0  0  0  0  0  0  0  0  0  0  0  0
   -1.8774    1.9576    1.4845 C   0  0  0  0  0  0  0  0  0  0  0  0
   -1.1063    0.6677    1.8598 C   0  0  0  0  0  0  0  0  0  0  0  0
    0.0920    0.3556    0.9158 C   0  0  0  0  0  0  0  0  0  0  0  0
    1.2587    1.3226    1.2760 C   0  0  0  0  0  0  0  0  0  0  0  0
    2.2976    1.2331    0.2584 N   0  0  0  0  0  0  0  0  0  0  0  0
    3.6876    1.2435    0.6169 C   0  0  0  0  0  0  0  0  0  0  0  0
    4.0845    1.9868    1.5550 O   0  0  0  0  0  0  0  0  0  0  0  0
    4.6486    0.3629   -0.0664 C   0  0  0  0  0  0  0  0  0  0  0  0
    6.0212    0.3573    0.1129 C   0  0  0  0  0  0  0  0  0  0  0  0
    6.4701   -0.6650   -0.6973 C   0  0  0  0  0  0  0  0  0  0  0  0
    5.4073   -1.2137   -1.3176 N   0  0  0  0  0  0  0  0  0  0  0  0
    5.4359   -2.3612   -2.2127 C   0  0  0  0  0  0  0  0  0  0  0  0
    4.2950   -0.6119   -0.9303 N   0  0  0  0  0  0  0  0  0  0  0  0
    1.8596    1.4167   -1.1195 C   0  0  0  0  0  0  0  0  0  0  0  0
    0.7195    0.4440   -1.3940 C   0  0  0  0  0  0  0  0  0  0  0  0
   -0.3269    0.5537   -0.4380 O   0  0  0  0  0  0  0  0  0  0  0  0
    0.5028   -1.0994    1.1582 C   0  0  0  0  0  0  0  0  0  0  0  0
    1.1856   -1.3853    2.1787 O   0  0  0  0  0  0  0  0  0  0  0  0
    2.1435   -2.5211   -0.2980 H   0  0  0  0  0  0  0  0  0  0  0  0
    1.3046   -3.9058    0.5062 H   0  0  0  0  0  0  0  0  0  0  0  0
    0.9142   -3.4672   -1.2081 H   0  0  0  0  0  0  0  0  0  0  0  0
   -1.2720   -3.7417   -0.0241 H   0  0  0  0  0  0  0  0  0  0  0  0
   -1.7228   -2.5813    1.2425 H   0  0  0  0  0  0  0  0  0  0  0  0
   -2.8189   -2.6388   -1.2906 H   0  0  0  0  0  0  0  0  0  0  0  0
   -1.4614   -1.4972   -1.6053 H   0  0  0  0  0  0  0  0  0  0  0  0
   -3.2217   -0.5709   -2.8465 H   0  0  0  0  0  0  0  0  0  0  0  0
   -4.5586    1.1916   -3.9116 H   0  0  0  0  0  0  0  0  0  0  0  0
   -5.7627    2.8572   -2.5291 H   0  0  0  0  0  0  0  0  0  0  0  0
   -5.6383    2.7544   -0.0695 H   0  0  0  0  0  0  0  0  0  0  0  0
   -5.2958    1.1888    1.8911 H   0  0  0  0  0  0  0  0  0  0  0  0
   -4.0362   -0.0435    1.8436 H   0  0  0  0  0  0  0  0  0  0  0  0
   -3.7120    3.0268    1.8952 H   0  0  0  0  0  0  0  0  0  0  0  0
   -3.2471    1.8661    3.1755 H   0  0  0  0  0  0  0  0  0  0  0  0
   -1.3149    2.8328    1.8737 H   0  0  0  0  0  0  0  0  0  0  0  0
   -1.9448    2.0985    0.3862 H   0  0  0  0  0  0  0  0  0  0  0  0
   -0.7485    0.7601    2.9106 H   0  0  0  0  0  0  0  0  0  0  0  0
   -1.7967   -0.1947    1.8687 H   0  0  0  0  0  0  0  0  0  0  0  0
    1.6713    1.0875    2.2822 H   0  0  0  0  0  0  0  0  0  0  0  0
    0.8989    2.3726    1.3080 H   0  0  0  0  0  0  0  0  0  0  0  0
    6.6108    0.9972    0.7554 H   0  0  0  0  0  0  0  0  0  0  0  0
    7.4971   -0.9879   -0.8190 H   0  0  0  0  0  0  0  0  0  0  0  0
    5.2640   -3.2916   -1.6285 H   0  0  0  0  0  0  0  0  0  0  0  0
    6.4207   -2.4234   -2.7250 H   0  0  0  0  0  0  0  0  0  0  0  0
    4.6377   -2.2608   -2.9831 H   0  0  0  0  0  0  0  0  0  0  0  0
    1.4982    2.4601   -1.2559 H   0  0  0  0  0  0  0  0  0  0  0  0
    2.6855    1.2404   -1.8401 H   0  0  0  0  0  0  0  0  0  0  0  0
    0.2979    0.6724   -2.3950 H   0  0  0  0  0  0  0  0  0  0  0  0
    1.1149   -0.5874   -1.4498 H   0  0  0  0  0  0  0  0  0  0  0  0
  1  2  1  0
  2  3  1  0
  3  4  1  0
  4  5  1  0
  5  6  1  0
  6  7  2  0
  7  8  1  0
  8  9  2  0
  9 10  1  0
 10 11  2  0
 11 12  1  0
 12 13  1  0
 13 14  1  0
 14 15  1  0
 15 16  1  0
 16 17  1  0
 17 18  1  0
 18 19  1  0
 19 20  2  0
 19 21  1  0
 21 22  1  0
 22 23  2  0
 23 24  1  0
 24 25  1  0
 24 26  1  0
 18 27  1  0
 27 28  1  0
 28 29  1  0
 16 30  1  0
 30 31  2  0
 30  2  1  0
 11  6  1  0
 29 16  1  0
 26 21  2  0
  1 32  1  0
  1 33  1  0
  1 34  1  0
  3 35  1  0
  3 36  1  0
  4 37  1  0
  4 38  1  0
  7 39  1  0
  8 40  1  0
  9 41  1  0
 10 42  1  0
 12 43  1  0
 12 44  1  0
 13 45  1  0
 13 46  1  0
 14 47  1  0
 14 48  1  0
 15 49  1  0
 15 50  1  0
 17 51  1  0
 17 52  1  0
 22 53  1  0
 23 54  1  0
 25 55  1  0
 25 56  1  0
 25 57  1  0
 27 58  1  0
 27 59  1  0
 28 60  1  0
 28 61  1  0
M  END
$$$$
