
     RDKit          3D

 96 99  0  0  0  0  0  0  0  0999 V2000
   -1.3228   -1.4865    1.0728 C   0  0  0  0  0  0  0  0  0  0  0  0
   -1.4099   -0.6846   -0.2354 C   0  0  1  0  0  0  0  0  0  0  0  0
   -0.0088   -0.4899   -0.8757 C   0  0  0  0  0  0  0  0  0  0  0  0
    0.9625    0.1282    0.0319 N   0  0  0  0  0  0  0  0  0  0  0  0
    0.8679    1.5818    0.2812 C   0  0  2  0  0  0  0  0  0  0  0  0
    1.9647    2.3405   -0.4769 C   0  0  0  0  0  0  0  0  0  0  0  0
    0.8377    1.9294    1.7820 C   0  0  0  0  0  0  0  0  0  0  0  0
    2.0799    1.6799    2.3875 O   0  0  0  0  0  0  0  0  0  0  0  0
    2.0005   -0.6829    0.6208 C   0  0  0  0  0  0  0  0  0  0  0  0
    1.8145   -1.1974    1.7576 O   0  0  0  0  0  0  0  0  0  0  0  0
    3.3177   -0.8560   -0.0264 C   0  0  0  0  0  0  0  0  0  0  0  0
    4.3919   -0.0683    0.4263 C   0  0  0  0  0  0  0  0  0  0  0  0
    5.6629   -0.1761   -0.1600 C   0  0  0  0  0  0  0  0  0  0  0  0
    6.7619    0.6230    0.2999 N   0  0  0  0  0  0  0  0  0  0  0  0
    6.6416    2.0240    0.5865 C   0  0  0  0  0  0  0  0  0  0  0  0
    5.6362    2.6552    0.1704 O   0  0  0  0  0  0  0  0  0  0  0  0
    7.7231    2.7544    1.2852 C   0  0  0  0  0  0  0  0  0  0  0  0
    7.8405    4.1470    1.1414 C   0  0  0  0  0  0  0  0  0  0  0  0
    8.8719    4.8263    1.7954 C   0  0  0  0  0  0  0  0  0  0  0  0
    9.7485    4.1465    2.5767 N   0  0  0  0  0  0  0  0  0  0  0  0
    9.6500    2.8030    2.7500 C   0  0  0  0  0  0  0  0  0  0  0  0
    8.6381    2.0820    2.1092 C   0  0  0  0  0  0  0  0  0  0  0  0
    5.8644   -1.0927   -1.1945 C   0  0  0  0  0  0  0  0  0  0  0  0
    4.8111   -1.8861   -1.6478 C   0  0  0  0  0  0  0  0  0  0  0  0
    3.5507   -1.8131   -1.0478 C   0  0  0  0  0  0  0  0  0  0  0  0
    2.5860   -2.7282   -1.4934 O   0  0  0  0  0  0  0  0  0  0  0  0
    1.9281   -3.6988   -0.6721 C   0  0  2  0  0  0  0  0  0  0  0  0
    2.9333   -4.4044    0.2504 C   0  0  0  0  0  0  0  0  0  0  0  0
    1.2442   -4.7447   -1.5780 C   0  0  0  0  0  0  0  0  0  0  0  0
    0.2531   -4.1181   -2.5865 C   0  0  0  0  0  0  0  0  0  0  0  0
   -1.1912   -4.0999   -2.0540 C   0  0  0  0  0  0  0  0  0  0  0  0
   -2.0658   -3.0886   -2.8066 C   0  0  0  0  0  0  0  0  0  0  0  0
   -1.7487   -1.7619   -2.4308 O   0  0  0  0  0  0  0  0  0  0  0  0
   -2.4174   -1.3600   -1.2375 C   0  0  2  0  0  0  0  0  0  0  0  0
   -3.5595   -0.3964   -1.6297 C   0  0  0  0  0  0  0  0  0  0  0  0
   -4.5652   -0.3069   -0.5434 N   0  0  0  0  0  0  0  0  0  0  0  0
   -5.5696   -1.3768   -0.6968 C   0  0  0  0  0  0  0  0  0  0  0  0
   -5.2069    1.0306   -0.5242 C   0  0  0  0  0  0  0  0  0  0  0  0
   -6.0826    1.2458    0.7470 C   0  0  0  0  0  0  0  0  0  0  0  0
   -7.5999    1.0618    0.4825 C   0  0  0  0  0  0  0  0  0  0  0  0
   -8.2184    2.2328   -0.2987 C   0  0  0  0  0  0  0  0  0  0  0  0
   -7.9290    3.5761    0.3786 C   0  0  0  0  0  0  0  0  0  0  0  0
   -6.4221    3.7708    0.5822 C   0  0  0  0  0  0  0  0  0  0  0  0
   -5.8298    2.6193    1.4057 C   0  0  0  0  0  0  0  0  0  0  0  0
   -0.6846   -0.9754    1.8066 H   0  0  0  0  0  0  0  0  0  0  0  0
   -2.3350   -1.5988    1.5269 H   0  0  0  0  0  0  0  0  0  0  0  0
   -0.9132   -2.4922    0.8867 H   0  0  0  0  0  0  0  0  0  0  0  0
   -1.7876    0.3168    0.0554 H   0  0  0  0  0  0  0  0  0  0  0  0
    0.3797   -1.4533   -1.2318 H   0  0  0  0  0  0  0  0  0  0  0  0
   -0.1097    0.1428   -1.7798 H   0  0  0  0  0  0  0  0  0  0  0  0
   -0.0954    1.9570   -0.1354 H   0  0  0  0  0  0  0  0  0  0  0  0
    1.9516    2.0471   -1.5565 H   0  0  0  0  0  0  0  0  0  0  0  0
    1.7911    3.4392   -0.4029 H   0  0  0  0  0  0  0  0  0  0  0  0
    2.9688    2.1290   -0.0735 H   0  0  0  0  0  0  0  0  0  0  0  0
    0.0554    1.3180    2.2724 H   0  0  0  0  0  0  0  0  0  0  0  0
    0.5641    3.0034    1.9114 H   0  0  0  0  0  0  0  0  0  0  0  0
    2.0109    2.0202    3.3175 H   0  0  0  0  0  0  0  0  0  0  0  0
    4.2435    0.6268    1.2458 H   0  0  0  0  0  0  0  0  0  0  0  0
    7.7178    0.1995    0.2694 H   0  0  0  0  0  0  0  0  0  0  0  0
    7.1544    4.7056    0.5176 H   0  0  0  0  0  0  0  0  0  0  0  0
    8.9787    5.8970    1.6731 H   0  0  0  0  0  0  0  0  0  0  0  0
   10.3586    2.2896    3.3774 H   0  0  0  0  0  0  0  0  0  0  0  0
    8.5680    1.0141    2.2750 H   0  0  0  0  0  0  0  0  0  0  0  0
    6.8423   -1.1962   -1.6490 H   0  0  0  0  0  0  0  0  0  0  0  0
    4.9890   -2.5982   -2.4474 H   0  0  0  0  0  0  0  0  0  0  0  0
    1.1612   -3.2110   -0.0390 H   0  0  0  0  0  0  0  0  0  0  0  0
    3.3780   -3.6774    0.9614 H   0  0  0  0  0  0  0  0  0  0  0  0
    2.4269   -5.1941    0.8472 H   0  0  0  0  0  0  0  0  0  0  0  0
    3.7604   -4.8609   -0.3432 H   0  0  0  0  0  0  0  0  0  0  0  0
    2.0306   -5.2941   -2.1437 H   0  0  0  0  0  0  0  0  0  0  0  0
    0.7174   -5.4909   -0.9458 H   0  0  0  0  0  0  0  0  0  0  0  0
    0.5754   -3.0974   -2.8771 H   0  0  0  0  0  0  0  0  0  0  0  0
    0.2691   -4.7199   -3.5238 H   0  0  0  0  0  0  0  0  0  0  0  0
   -1.6302   -5.1155   -2.1826 H   0  0  0  0  0  0  0  0  0  0  0  0
   -1.2042   -3.8728   -0.9711 H   0  0  0  0  0  0  0  0  0  0  0  0
   -1.8728   -3.1931   -3.8969 H   0  0  0  0  0  0  0  0  0  0  0  0
   -3.1497   -3.3222   -2.6639 H   0  0  0  0  0  0  0  0  0  0  0  0
   -2.8782   -2.2293   -0.7133 H   0  0  0  0  0  0  0  0  0  0  0  0
   -3.1099    0.5917   -1.8702 H   0  0  0  0  0  0  0  0  0  0  0  0
   -4.0363   -0.7357   -2.5780 H   0  0  0  0  0  0  0  0  0  0  0  0
   -6.2593   -1.1648   -1.5403 H   0  0  0  0  0  0  0  0  0  0  0  0
   -6.1496   -1.4946    0.2391 H   0  0  0  0  0  0  0  0  0  0  0  0
   -5.0903   -2.3565   -0.8781 H   0  0  0  0  0  0  0  0  0  0  0  0
   -4.4083    1.8106   -0.5316 H   0  0  0  0  0  0  0  0  0  0  0  0
   -5.7957    1.1848   -1.4548 H   0  0  0  0  0  0  0  0  0  0  0  0
   -5.7824    0.4865    1.4995 H   0  0  0  0  0  0  0  0  0  0  0  0
   -8.1248    0.9662    1.4586 H   0  0  0  0  0  0  0  0  0  0  0  0
   -7.7942    0.1282   -0.0804 H   0  0  0  0  0  0  0  0  0  0  0  0
   -9.3189    2.0948   -0.3628 H   0  0  0  0  0  0  0  0  0  0  0  0
   -7.8262    2.2488   -1.3375 H   0  0  0  0  0  0  0  0  0  0  0  0
   -8.4538    3.6282    1.3571 H   0  0  0  0  0  0  0  0  0  0  0  0
   -8.3237    4.3949   -0.2559 H   0  0  0  0  0  0  0  0  0  0  0  0
   -5.9147    3.8278   -0.4050 H   0  0  0  0  0  0  0  0  0  0  0  0
   -6.2487    4.7333    1.1107 H   0  0  0  0  0  0  0  0  0  0  0  0
   -6.2937    2.6220    2.4160 H   0  0  0  0  0  0  0  0  0  0  0  0
   -4.7376    2.7804    1.5515 H   0  0  0  0  0  0  0  0  0  0  0  0
  1  2  1  0
  2  3  1  0
  3  4  1  0
  4  5  1  0
  5  6  1  0
  5  7  1  0
  7  8  1  0
  4  9  1  0
  9 10  2  0
  9 11  1  0
 11 12  2  0
 12 13  1  0
 13 14  1  0
 14 15  1  0
 15 16  2  0
 15 17  1  0
 17 18  2  0
 18 19  1  0
 19 20  2  0
 20 21  1  0
 21 22  2  0
 13 23  2  0
 23 24  1  0
 24 25  2  0
 25 26  1  0
 26 27  1  0
 27 28  1  0
 27 29  1  0
 29 30  1  0
 30 31  1  0
 31 32  1  0
 32 33  1  0
 33 34  1  0
 34 35  1  0
 35 36  1  0
 36 37  1  0
 36 38  1  0
 38 39  1  0
 39 40  1  0
 40 41  1  0
 41 42  1  0
 42 43  1  0
 43 44  1  0
 34  2  1  0
 44 39  1  0
 25 11  1  0
 22 17  1  0
  1 45  1  0
  1 46  1  0
  1 47  1  0
  2 48  1  1
  3 49  1  0
  3 50  1  0
  5 51  1  6
  6 52  1  0
  6 53  1  0
  6 54  1  0
  7 55  1  0
  7 56  1  0
  8 57  1  0
 12 58  1  0
 14 59  1  0
 18 60  1  0
 19 61  1  0
 21 62  1  0
 22 63  1  0
 23 64  1  0
 24 65  1  0
 27 66  1  1
 28 67  1  0
 28 68  1  0
 28 69  1  0
 29 70  1  0
 29 71  1  0
 30 72  1  0
 30 73  1  0
 31 74  1  0
 31 75  1  0
 32 76  1  0
 32 77  1  0
 34 78  1  1
 35 79  1  0
 35 80  1  0
 37 81  1  0
 37 82  1  0
 37 83  1  0
 38 84  1  0
 38 85  1  0
 39 86  1  0
 40 87  1  0
 40 88  1  0
 41 89  1  0
 41 90  1  0
 42 91  1  0
 42 92  1  0
 43 93  1  0
 43 94  1  0
 44 95  1  0
 44 96  1  0
M  END
$$$$
