
     RDKit          3D

 69 70  0  0  0  0  0  0  0  0999 V2000
   -5.1422   -2.1227    1.1356 C   0  0  0  0  0  0  0  0  0  0  0  0
   -4.4082   -0.9849    1.5346 O   0  0  0  0  0  0  0  0  0  0  0  0
   -3.2318   -0.8417    0.7505 C   0  0  0  0  0  0  0  0  0  0  0  0
   -2.0128   -1.3958    1.5411 C   0  0  0  0  0  0  0  0  0  0  0  0
   -1.2471   -2.3918    0.7619 N   0  0  0  0  0  0  0  0  0  0  0  0
   -0.9399   -3.7012    1.3050 C   0  0  0  0  0  0  0  0  0  0  0  0
   -1.6730   -4.2747    2.4797 C   0  0  0  0  0  0  0  0  0  0  0  0
   -0.0188   -4.3913    0.7905 O   0  0  0  0  0  0  0  0  0  0  0  0
   -0.5720   -1.9651   -0.4788 C   0  0  0  0  0  0  0  0  0  0  0  0
    0.7443   -1.2390   -0.1683 C   0  0  0  0  0  0  0  0  0  0  0  0
    1.5437   -0.9077   -1.4464 C   0  0  0  0  0  0  0  0  0  0  0  0
    1.7269    0.5571   -1.5830 N   0  0  0  0  0  0  0  0  0  0  0  0
    2.9962    0.8722   -2.2788 C   0  0  0  0  0  0  0  0  0  0  0  0
    4.1641    0.7270   -1.3458 C   0  0  0  0  0  0  0  0  0  0  0  0
    5.3003    0.4526   -1.8228 O   0  0  0  0  0  0  0  0  0  0  0  0
    4.0146    1.0113    0.0539 N   0  0  0  0  0  0  0  0  0  0  0  0
    4.8923    0.5056    1.0749 C   0  0  0  0  0  0  0  0  0  0  0  0
    5.0050    1.2016    2.2878 C   0  0  0  0  0  0  0  0  0  0  0  0
    5.8206    0.7121    3.3119 C   0  0  0  0  0  0  0  0  0  0  0  0
    6.5194   -0.4861    3.1404 C   0  0  0  0  0  0  0  0  0  0  0  0
    7.3005   -0.9564    4.1439 F   0  0  0  0  0  0  0  0  0  0  0  0
    6.3999   -1.2001    1.9414 C   0  0  0  0  0  0  0  0  0  0  0  0
    7.2533   -2.7193    1.7240 Cl  0  0  0  0  0  0  0  0  0  0  0  0
    5.5881   -0.7079    0.9131 C   0  0  0  0  0  0  0  0  0  0  0  0
    0.5760    1.1817   -2.2745 C   0  0  0  0  0  0  0  0  0  0  0  0
    0.3570    2.6112   -1.7538 C   0  0  0  0  0  0  0  0  0  0  0  0
   -0.6453    3.4065   -2.6074 C   0  0  0  0  0  0  0  0  0  0  0  0
   -2.0934    2.9256   -2.4672 C   0  0  0  0  0  0  0  0  0  0  0  0
   -2.5012    3.0424   -1.1196 O   0  0  0  0  0  0  0  0  0  0  0  0
   -3.8589    2.6667   -0.9693 C   0  0  0  0  0  0  0  0  0  0  0  0
   -4.0062    1.1575   -0.6743 C   0  0  0  0  0  0  0  0  0  0  0  0
   -5.3423    0.8611   -0.3517 O   0  0  0  0  0  0  0  0  0  0  0  0
   -3.0273    0.6588    0.4236 C   0  0  0  0  0  0  0  0  0  0  0  0
   -3.1702    1.4187    1.5985 O   0  0  0  0  0  0  0  0  0  0  0  0
   -5.5609   -1.9824    0.1145 H   0  0  0  0  0  0  0  0  0  0  0  0
   -4.5173   -3.0419    1.1734 H   0  0  0  0  0  0  0  0  0  0  0  0
   -5.9919   -2.2617    1.8345 H   0  0  0  0  0  0  0  0  0  0  0  0
   -3.3095   -1.3794   -0.2261 H   0  0  0  0  0  0  0  0  0  0  0  0
   -1.3230   -0.5804    1.8493 H   0  0  0  0  0  0  0  0  0  0  0  0
   -2.3716   -1.8204    2.5011 H   0  0  0  0  0  0  0  0  0  0  0  0
   -1.4570   -5.3614    2.5770 H   0  0  0  0  0  0  0  0  0  0  0  0
   -2.7679   -4.1567    2.3470 H   0  0  0  0  0  0  0  0  0  0  0  0
   -1.3500   -3.7651    3.4108 H   0  0  0  0  0  0  0  0  0  0  0  0
   -0.3735   -2.8471   -1.1275 H   0  0  0  0  0  0  0  0  0  0  0  0
   -1.2275   -1.2954   -1.0696 H   0  0  0  0  0  0  0  0  0  0  0  0
    0.5271   -0.3082    0.3994 H   0  0  0  0  0  0  0  0  0  0  0  0
    1.3632   -1.8858    0.4914 H   0  0  0  0  0  0  0  0  0  0  0  0
    2.5276   -1.4215   -1.3554 H   0  0  0  0  0  0  0  0  0  0  0  0
    1.0685   -1.3347   -2.3600 H   0  0  0  0  0  0  0  0  0  0  0  0
    3.1330    0.2136   -3.1668 H   0  0  0  0  0  0  0  0  0  0  0  0
    3.0049    1.9200   -2.6488 H   0  0  0  0  0  0  0  0  0  0  0  0
    3.2168    1.6209    0.3487 H   0  0  0  0  0  0  0  0  0  0  0  0
    4.4635    2.1290    2.4341 H   0  0  0  0  0  0  0  0  0  0  0  0
    5.9036    1.2601    4.2429 H   0  0  0  0  0  0  0  0  0  0  0  0
    5.4791   -1.2887    0.0061 H   0  0  0  0  0  0  0  0  0  0  0  0
    0.7272    1.1828   -3.3792 H   0  0  0  0  0  0  0  0  0  0  0  0
   -0.3571    0.6143   -2.0769 H   0  0  0  0  0  0  0  0  0  0  0  0
    1.3167    3.1670   -1.7630 H   0  0  0  0  0  0  0  0  0  0  0  0
    0.0178    2.5712   -0.6963 H   0  0  0  0  0  0  0  0  0  0  0  0
   -0.3465    3.3665   -3.6781 H   0  0  0  0  0  0  0  0  0  0  0  0
   -0.5992    4.4719   -2.2960 H   0  0  0  0  0  0  0  0  0  0  0  0
   -2.1755    1.8766   -2.8227 H   0  0  0  0  0  0  0  0  0  0  0  0
   -2.7225    3.5694   -3.1234 H   0  0  0  0  0  0  0  0  0  0  0  0
   -4.2679    3.2392   -0.1102 H   0  0  0  0  0  0  0  0  0  0  0  0
   -4.4905    2.9492   -1.8430 H   0  0  0  0  0  0  0  0  0  0  0  0
   -3.7663    0.6082   -1.6106 H   0  0  0  0  0  0  0  0  0  0  0  0
   -5.5636    1.3399    0.4900 H   0  0  0  0  0  0  0  0  0  0  0  0
   -1.9953    0.7743    0.0167 H   0  0  0  0  0  0  0  0  0  0  0  0
   -2.5261    2.1730    1.5464 H   0  0  0  0  0  0  0  0  0  0  0  0
  1  2  1  0
  2  3  1  0
  3  4  1  0
  4  5  1  0
  5  6  1  0
  6  7  1  0
  6  8  2  0
  5  9  1  0
  9 10  1  0
 10 11  1  0
 11 12  1  0
 12 13  1  0
 13 14  1  0
 14 15  2  0
 14 16  1  0
 16 17  1  0
 17 18  2  0
 18 19  1  0
 19 20  2  0
 20 21  1  0
 20 22  1  0
 22 23  1  0
 22 24  2  0
 12 25  1  0
 25 26  1  0
 26 27  1  0
 27 28  1  0
 28 29  1  0
 29 30  1  0
 30 31  1  0
 31 32  1  0
 31 33  1  0
 33 34  1  0
 33  3  1  0
 24 17  1  0
  1 35  1  0
  1 36  1  0
  1 37  1  0
  3 38  1  0
  4 39  1  0
  4 40  1  0
  7 41  1  0
  7 42  1  0
  7 43  1  0
  9 44  1  0
  9 45  1  0
 10 46  1  0
 10 47  1  0
 11 48  1  0
 11 49  1  0
 13 50  1  0
 13 51  1  0
 16 52  1  0
 18 53  1  0
 19 54  1  0
 24 55  1  0
 25 56  1  0
 25 57  1  0
 26 58  1  0
 26 59  1  0
 27 60  1  0
 27 61  1  0
 28 62  1  0
 28 63  1  0
 30 64  1  0
 30 65  1  0
 31 66  1  0
 32 67  1  0
 33 68  1  0
 34 69  1  0
M  END
$$$$
