
     RDKit          3D

 77 79  0  0  0  0  0  0  0  0999 V2000
   -3.3086    3.1345   -1.9493 C   0  0  0  0  0  0  0  0  0  0  0  0
   -2.4439    2.3075   -0.9700 C   0  0  0  0  0  0  0  0  0  0  0  0
   -1.3993    3.2874   -0.3851 C   0  0  0  0  0  0  0  0  0  0  0  0
   -3.2277    1.6426    0.1286 N   0  0  0  0  0  0  0  0  0  0  0  0
   -4.4723    0.9600   -0.3227 C   0  0  0  0  0  0  0  0  0  0  0  0
   -5.7087    1.7845   -0.0368 C   0  0  0  0  0  0  0  0  0  0  0  0
   -5.7011    3.0243   -0.2538 O   0  0  0  0  0  0  0  0  0  0  0  0
   -6.9371    1.1750    0.3970 N   0  0  0  0  0  0  0  0  0  0  0  0
   -6.9832    0.2477    1.5261 C   0  0  0  0  0  0  0  0  0  0  0  0
   -6.8297   -1.2135    1.0586 C   0  0  0  0  0  0  0  0  0  0  0  0
   -5.9504   -2.0197    2.0332 C   0  0  0  0  0  0  0  0  0  0  0  0
   -5.3838   -3.3092    1.4151 C   0  0  0  0  0  0  0  0  0  0  0  0
   -4.3260   -3.0711    0.3239 C   0  0  0  0  0  0  0  0  0  0  0  0
   -3.4349   -2.0139    0.6922 O   0  0  0  0  0  0  0  0  0  0  0  0
   -2.2689   -1.6552   -0.0070 C   0  0  0  0  0  0  0  0  0  0  0  0
   -1.6330   -2.5633   -0.8763 C   0  0  0  0  0  0  0  0  0  0  0  0
   -0.3919   -2.2625   -1.4371 C   0  0  0  0  0  0  0  0  0  0  0  0
    0.2428   -1.0541   -1.1389 C   0  0  0  0  0  0  0  0  0  0  0  0
    1.6176   -0.7551   -1.6811 C   0  0  0  0  0  0  0  0  0  0  0  0
    2.7005   -1.2356   -0.7036 C   0  0  0  0  0  0  0  0  0  0  0  0
    4.1035   -0.8755   -1.1493 C   0  0  0  0  0  0  0  0  0  0  0  0
    4.2821   -0.4181   -2.3126 O   0  0  0  0  0  0  0  0  0  0  0  0
    5.2475   -1.1016   -0.2920 N   0  0  0  0  0  0  0  0  0  0  0  0
    5.0916   -1.3355    1.1537 C   0  0  0  0  0  0  0  0  0  0  0  0
    4.8310   -0.0244    1.8985 C   0  0  0  0  0  0  0  0  0  0  0  0
    4.6019   -0.2925    3.2525 O   0  0  0  0  0  0  0  0  0  0  0  0
    6.6077   -1.0879   -0.8598 C   0  0  0  0  0  0  0  0  0  0  0  0
    7.3086    0.1992   -0.5121 C   0  0  0  0  0  0  0  0  0  0  0  0
    8.2051    0.2478    0.5699 C   0  0  0  0  0  0  0  0  0  0  0  0
    8.7957    1.4606    0.9420 C   0  0  0  0  0  0  0  0  0  0  0  0
    8.4971    2.6316    0.2406 C   0  0  0  0  0  0  0  0  0  0  0  0
    7.6111    2.5919   -0.8395 C   0  0  0  0  0  0  0  0  0  0  0  0
    7.0170    1.3804   -1.2153 C   0  0  0  0  0  0  0  0  0  0  0  0
   -0.3938   -0.1349   -0.2971 C   0  0  0  0  0  0  0  0  0  0  0  0
   -1.6834   -0.3830    0.2134 C   0  0  0  0  0  0  0  0  0  0  0  0
   -2.4058    0.7262    0.9838 C   0  0  0  0  0  0  0  0  0  0  0  0
   -4.0627    2.5261   -2.4828 H   0  0  0  0  0  0  0  0  0  0  0  0
   -3.8013    3.9790   -1.4245 H   0  0  0  0  0  0  0  0  0  0  0  0
   -2.6558    3.5711   -2.7354 H   0  0  0  0  0  0  0  0  0  0  0  0
   -1.9322    1.5404   -1.5924 H   0  0  0  0  0  0  0  0  0  0  0  0
   -0.7902    3.7302   -1.2052 H   0  0  0  0  0  0  0  0  0  0  0  0
   -1.9106    4.1048    0.1677 H   0  0  0  0  0  0  0  0  0  0  0  0
   -0.6907    2.8125    0.3134 H   0  0  0  0  0  0  0  0  0  0  0  0
   -4.4335    0.6758   -1.3971 H   0  0  0  0  0  0  0  0  0  0  0  0
   -4.6044    0.0039    0.1985 H   0  0  0  0  0  0  0  0  0  0  0  0
   -7.8262    1.6675    0.1522 H   0  0  0  0  0  0  0  0  0  0  0  0
   -6.2018    0.5419    2.2649 H   0  0  0  0  0  0  0  0  0  0  0  0
   -7.9609    0.3558    2.0479 H   0  0  0  0  0  0  0  0  0  0  0  0
   -7.8323   -1.6896    0.9915 H   0  0  0  0  0  0  0  0  0  0  0  0
   -6.4169   -1.2486    0.0313 H   0  0  0  0  0  0  0  0  0  0  0  0
   -6.5693   -2.2905    2.9168 H   0  0  0  0  0  0  0  0  0  0  0  0
   -5.1028   -1.4094    2.4156 H   0  0  0  0  0  0  0  0  0  0  0  0
   -4.9094   -3.8958    2.2300 H   0  0  0  0  0  0  0  0  0  0  0  0
   -6.2111   -3.9285    1.0035 H   0  0  0  0  0  0  0  0  0  0  0  0
   -3.7698   -4.0265    0.1921 H   0  0  0  0  0  0  0  0  0  0  0  0
   -4.8201   -2.8135   -0.6389 H   0  0  0  0  0  0  0  0  0  0  0  0
   -2.0667   -3.5258   -1.0981 H   0  0  0  0  0  0  0  0  0  0  0  0
    0.0871   -2.9865   -2.0830 H   0  0  0  0  0  0  0  0  0  0  0  0
    1.7224    0.3391   -1.8419 H   0  0  0  0  0  0  0  0  0  0  0  0
    1.7478   -1.2478   -2.6680 H   0  0  0  0  0  0  0  0  0  0  0  0
    2.6321   -2.3445   -0.5968 H   0  0  0  0  0  0  0  0  0  0  0  0
    2.4960   -0.7792    0.2909 H   0  0  0  0  0  0  0  0  0  0  0  0
    6.0141   -1.7964    1.5680 H   0  0  0  0  0  0  0  0  0  0  0  0
    4.2698   -2.0569    1.3403 H   0  0  0  0  0  0  0  0  0  0  0  0
    5.7129    0.6441    1.8063 H   0  0  0  0  0  0  0  0  0  0  0  0
    3.9541    0.5004    1.4609 H   0  0  0  0  0  0  0  0  0  0  0  0
    4.3272    0.5706    3.6638 H   0  0  0  0  0  0  0  0  0  0  0  0
    7.1809   -1.9585   -0.4731 H   0  0  0  0  0  0  0  0  0  0  0  0
    6.5889   -1.2207   -1.9633 H   0  0  0  0  0  0  0  0  0  0  0  0
    8.4301   -0.6467    1.1377 H   0  0  0  0  0  0  0  0  0  0  0  0
    9.4762    1.4936    1.7823 H   0  0  0  0  0  0  0  0  0  0  0  0
    8.9470    3.5704    0.5391 H   0  0  0  0  0  0  0  0  0  0  0  0
    7.3810    3.5004   -1.3810 H   0  0  0  0  0  0  0  0  0  0  0  0
    6.3243    1.3680   -2.0458 H   0  0  0  0  0  0  0  0  0  0  0  0
    0.1179    0.7845   -0.0576 H   0  0  0  0  0  0  0  0  0  0  0  0
   -1.6740    1.3156    1.5686 H   0  0  0  0  0  0  0  0  0  0  0  0
   -3.0447    0.2754    1.7745 H   0  0  0  0  0  0  0  0  0  0  0  0
  1  2  1  0
  2  3  1  0
  2  4  1  0
  4  5  1  0
  5  6  1  0
  6  7  2  0
  6  8  1  0
  8  9  1  0
  9 10  1  0
 10 11  1  0
 11 12  1  0
 12 13  1  0
 13 14  1  0
 14 15  1  0
 15 16  2  0
 16 17  1  0
 17 18  2  0
 18 19  1  0
 19 20  1  0
 20 21  1  0
 21 22  2  0
 21 23  1  0
 23 24  1  0
 24 25  1  0
 25 26  1  0
 23 27  1  0
 27 28  1  0
 28 29  2  0
 29 30  1  0
 30 31  2  0
 31 32  1  0
 32 33  2  0
 18 34  1  0
 34 35  2  0
 35 36  1  0
 36  4  1  0
 35 15  1  0
 33 28  1  0
  1 37  1  0
  1 38  1  0
  1 39  1  0
  2 40  1  0
  3 41  1  0
  3 42  1  0
  3 43  1  0
  5 44  1  0
  5 45  1  0
  8 46  1  0
  9 47  1  0
  9 48  1  0
 10 49  1  0
 10 50  1  0
 11 51  1  0
 11 52  1  0
 12 53  1  0
 12 54  1  0
 13 55  1  0
 13 56  1  0
 16 57  1  0
 17 58  1  0
 19 59  1  0
 19 60  1  0
 20 61  1  0
 20 62  1  0
 24 63  1  0
 24 64  1  0
 25 65  1  0
 25 66  1  0
 26 67  1  0
 27 68  1  0
 27 69  1  0
 29 70  1  0
 30 71  1  0
 31 72  1  0
 32 73  1  0
 33 74  1  0
 34 75  1  0
 36 76  1  0
 36 77  1  0
M  END
$$$$
