
     RDKit          3D

 75 77  0  0  0  0  0  0  0  0999 V2000
    9.5601   -0.3294    0.4922 C   0  0  0  0  0  0  0  0  0  0  0  0
    8.4035   -1.0808    0.1302 O   0  0  0  0  0  0  0  0  0  0  0  0
    7.0934   -0.5795    0.1634 C   0  0  0  0  0  0  0  0  0  0  0  0
    6.8007    0.7459    0.5280 C   0  0  0  0  0  0  0  0  0  0  0  0
    5.4813    1.1997    0.5375 C   0  0  0  0  0  0  0  0  0  0  0  0
    4.4253    0.3366    0.1997 C   0  0  0  0  0  0  0  0  0  0  0  0
    3.0662    0.8104    0.1528 N   0  0  0  0  0  0  0  0  0  0  0  0
    2.5135    1.7645    1.0815 C   0  0  0  0  0  0  0  0  0  0  0  0
    3.1766    2.0881    2.1028 O   0  0  0  0  0  0  0  0  0  0  0  0
    1.1985    2.3363    0.8824 N   0  0  0  0  0  0  0  0  0  0  0  0
    0.7503    3.4090    1.7775 C   0  0  0  0  0  0  0  0  0  0  0  0
    0.2693    1.8112   -0.1298 C   0  0  0  0  0  0  0  0  0  0  0  0
   -0.3644    0.4971    0.3722 C   0  0  1  0  0  0  0  0  0  0  0  0
   -1.2260    0.8265    1.4549 O   0  0  0  0  0  0  0  0  0  0  0  0
   -1.2810   -0.2069    2.4164 C   0  0  0  0  0  0  0  0  0  0  0  0
   -2.2071    0.1897    3.5325 C   0  0  0  0  0  0  0  0  0  0  0  0
   -1.9508    0.0704    4.8814 C   0  0  0  0  0  0  0  0  0  0  0  0
   -3.0722    0.4194    5.5461 N   0  0  0  0  0  0  0  0  0  0  0  0
   -3.9849    0.7347    4.6379 N   0  0  0  0  0  0  0  0  0  0  0  0
   -3.4867    0.6058    3.4174 N   0  0  0  0  0  0  0  0  0  0  0  0
   -4.2614    0.8324    2.1986 C   0  0  0  0  0  0  0  0  0  0  0  0
   -4.9152   -0.4682    1.7131 C   0  0  0  0  0  0  0  0  0  0  0  0
   -5.2330   -0.4405    0.2035 C   0  0  0  0  0  0  0  0  0  0  0  0
   -4.1500   -1.0887   -0.6143 C   0  0  0  0  0  0  0  0  0  0  0  0
   -3.8594   -2.2964   -0.4061 O   0  0  0  0  0  0  0  0  0  0  0  0
   -3.4666   -0.3684   -1.6565 N   0  0  0  0  0  0  0  0  0  0  0  0
   -3.8463   -0.5571   -3.0729 C   0  0  1  0  0  0  0  0  0  0  0  0
   -3.8807   -2.0458   -3.4491 C   0  0  0  0  0  0  0  0  0  0  0  0
   -5.1998    0.1137   -3.3662 C   0  0  0  0  0  0  0  0  0  0  0  0
   -5.0900    1.5086   -3.2607 O   0  0  0  0  0  0  0  0  0  0  0  0
   -2.3569    0.5288   -1.2941 C   0  0  0  0  0  0  0  0  0  0  0  0
   -1.1481   -0.2673   -0.7368 C   0  0  1  0  0  0  0  0  0  0  0  0
   -0.2343   -0.7552   -1.8757 C   0  0  0  0  0  0  0  0  0  0  0  0
    4.7108   -0.9894   -0.1794 C   0  0  0  0  0  0  0  0  0  0  0  0
    3.6455   -1.8320   -0.5385 O   0  0  0  0  0  0  0  0  0  0  0  0
    3.7967   -3.1529   -1.0510 C   0  0  0  0  0  0  0  0  0  0  0  0
    6.0470   -1.4372   -0.1873 C   0  0  0  0  0  0  0  0  0  0  0  0
    9.4988   -0.0231    1.5601 H   0  0  0  0  0  0  0  0  0  0  0  0
    9.6566    0.5698   -0.1568 H   0  0  0  0  0  0  0  0  0  0  0  0
   10.4589   -0.9650    0.3557 H   0  0  0  0  0  0  0  0  0  0  0  0
    7.5884    1.4413    0.7861 H   0  0  0  0  0  0  0  0  0  0  0  0
    5.2941    2.2389    0.7725 H   0  0  0  0  0  0  0  0  0  0  0  0
    2.4444    0.3758   -0.5646 H   0  0  0  0  0  0  0  0  0  0  0  0
    1.4332    4.2794    1.6913 H   0  0  0  0  0  0  0  0  0  0  0  0
   -0.2775    3.7495    1.5318 H   0  0  0  0  0  0  0  0  0  0  0  0
    0.7486    3.0463    2.8266 H   0  0  0  0  0  0  0  0  0  0  0  0
   -0.5393    2.5456   -0.3316 H   0  0  0  0  0  0  0  0  0  0  0  0
    0.7967    1.6979   -1.0973 H   0  0  0  0  0  0  0  0  0  0  0  0
    0.4698   -0.1658    0.7028 H   0  0  0  0  0  0  0  0  0  0  0  0
   -0.2671   -0.3853    2.8461 H   0  0  0  0  0  0  0  0  0  0  0  0
   -1.6619   -1.1543    1.9772 H   0  0  0  0  0  0  0  0  0  0  0  0
   -1.0330   -0.2637    5.3470 H   0  0  0  0  0  0  0  0  0  0  0  0
   -5.0545    1.5868    2.3969 H   0  0  0  0  0  0  0  0  0  0  0  0
   -3.6144    1.2682    1.4231 H   0  0  0  0  0  0  0  0  0  0  0  0
   -4.2768   -1.3465    1.9666 H   0  0  0  0  0  0  0  0  0  0  0  0
   -5.8678   -0.5962    2.2731 H   0  0  0  0  0  0  0  0  0  0  0  0
   -6.1703   -1.0079    0.0235 H   0  0  0  0  0  0  0  0  0  0  0  0
   -5.4153    0.5977   -0.1454 H   0  0  0  0  0  0  0  0  0  0  0  0
   -3.0883   -0.0818   -3.7353 H   0  0  0  0  0  0  0  0  0  0  0  0
   -2.9117   -2.5242   -3.2043 H   0  0  0  0  0  0  0  0  0  0  0  0
   -4.6946   -2.5745   -2.9093 H   0  0  0  0  0  0  0  0  0  0  0  0
   -4.0553   -2.1545   -4.5388 H   0  0  0  0  0  0  0  0  0  0  0  0
   -5.5115   -0.1253   -4.4055 H   0  0  0  0  0  0  0  0  0  0  0  0
   -5.9924   -0.2715   -2.6844 H   0  0  0  0  0  0  0  0  0  0  0  0
   -5.1335    1.7286   -2.2953 H   0  0  0  0  0  0  0  0  0  0  0  0
   -2.0387    1.1400   -2.1665 H   0  0  0  0  0  0  0  0  0  0  0  0
   -2.7269    1.2655   -0.5586 H   0  0  0  0  0  0  0  0  0  0  0  0
   -1.5233   -1.1935   -0.2570 H   0  0  0  0  0  0  0  0  0  0  0  0
   -0.7787   -1.4910   -2.5051 H   0  0  0  0  0  0  0  0  0  0  0  0
    0.0879    0.0799   -2.5313 H   0  0  0  0  0  0  0  0  0  0  0  0
    0.6659   -1.2588   -1.4650 H   0  0  0  0  0  0  0  0  0  0  0  0
    2.7958   -3.5625   -1.3010 H   0  0  0  0  0  0  0  0  0  0  0  0
    4.4148   -3.1355   -1.9751 H   0  0  0  0  0  0  0  0  0  0  0  0
    4.2685   -3.8097   -0.2899 H   0  0  0  0  0  0  0  0  0  0  0  0
    6.2865   -2.4537   -0.4683 H   0  0  0  0  0  0  0  0  0  0  0  0
  1  2  1  0
  2  3  1  0
  3  4  2  0
  4  5  1  0
  5  6  2  0
  6  7  1  0
  7  8  1  0
  8  9  2  0
  8 10  1  0
 10 11  1  0
 10 12  1  0
 12 13  1  0
 13 14  1  0
 14 15  1  0
 15 16  1  0
 16 17  2  0
 17 18  1  0
 18 19  2  0
 19 20  1  0
 20 21  1  0
 21 22  1  0
 22 23  1  0
 23 24  1  0
 24 25  2  0
 24 26  1  0
 26 27  1  0
 27 28  1  0
 27 29  1  0
 29 30  1  0
 26 31  1  0
 31 32  1  0
 32 33  1  0
  6 34  1  0
 34 35  1  0
 35 36  1  0
 34 37  2  0
 37  3  1  0
 32 13  1  0
 20 16  1  0
  1 38  1  0
  1 39  1  0
  1 40  1  0
  4 41  1  0
  5 42  1  0
  7 43  1  0
 11 44  1  0
 11 45  1  0
 11 46  1  0
 12 47  1  0
 12 48  1  0
 13 49  1  1
 15 50  1  0
 15 51  1  0
 17 52  1  0
 21 53  1  0
 21 54  1  0
 22 55  1  0
 22 56  1  0
 23 57  1  0
 23 58  1  0
 27 59  1  6
 28 60  1  0
 28 61  1  0
 28 62  1  0
 29 63  1  0
 29 64  1  0
 30 65  1  0
 31 66  1  0
 31 67  1  0
 32 68  1  1
 33 69  1  0
 33 70  1  0
 33 71  1  0
 36 72  1  0
 36 73  1  0
 36 74  1  0
 37 75  1  0
M  END
$$$$
