
     RDKit          3D

 83 86  0  0  0  0  0  0  0  0999 V2000
   -4.1054    5.7624   -0.5491 C   0  0  0  0  0  0  0  0  0  0  0  0
   -3.6856    4.5285   -1.0933 O   0  0  0  0  0  0  0  0  0  0  0  0
   -3.3716    3.5996   -0.0644 C   0  0  2  0  0  0  0  0  0  0  0  0
   -1.8952    3.2586   -0.0781 C   0  0  0  0  0  0  0  0  0  0  0  0
   -0.9721    4.0529   -0.6597 C   0  0  0  0  0  0  0  0  0  0  0  0
    0.4822    3.7914   -0.6737 C   0  0  0  0  0  0  0  0  0  0  0  0
    1.0592    2.5452   -0.3502 C   0  0  0  0  0  0  0  0  0  0  0  0
    2.4534    2.3817   -0.4698 C   0  0  0  0  0  0  0  0  0  0  0  0
    3.0604    1.1363   -0.2293 C   0  0  0  0  0  0  0  0  0  0  0  0
    4.4446    0.9571   -0.4247 C   0  0  0  0  0  0  0  0  0  0  0  0
    5.2190    2.0683   -0.8230 C   0  0  0  0  0  0  0  0  0  0  0  0
    4.6284    3.3116   -1.0450 C   0  0  0  0  0  0  0  0  0  0  0  0
    3.2505    3.4739   -0.8853 C   0  0  0  0  0  0  0  0  0  0  0  0
    2.6394    4.6975   -1.1762 C   0  0  0  0  0  0  0  0  0  0  0  0
    1.2889    4.8145   -1.0852 N   0  0  0  0  0  0  0  0  0  0  0  0
    5.0148   -0.4519   -0.3112 C   0  0  1  0  0  0  0  0  0  0  0  0
    6.4374   -0.6013   -0.8692 C   0  0  0  0  0  0  0  0  0  0  0  0
    5.0043   -0.8733    1.0547 O   0  0  0  0  0  0  0  0  0  0  0  0
    5.1338   -2.2149    1.4316 C   0  0  0  0  0  0  0  0  0  0  0  0
    6.1062   -2.5612    2.1492 O   0  0  0  0  0  0  0  0  0  0  0  0
    4.1466   -3.2550    0.9705 C   0  0  2  0  0  0  0  0  0  0  0  0
    4.6532   -3.9600   -0.3128 C   0  0  0  0  0  0  0  0  0  0  0  0
    3.5290   -4.5235   -1.1830 C   0  0  0  0  0  0  0  0  0  0  0  0
    2.2831   -4.8131   -0.3605 C   0  0  0  0  0  0  0  0  0  0  0  0
    1.8553   -3.5955    0.3468 N   0  0  0  0  0  0  0  0  0  0  0  0
    2.8130   -2.6538    0.8112 N   0  0  0  0  0  0  0  0  0  0  0  0
    0.4445   -3.3677    0.5499 C   0  0  0  0  0  0  0  0  0  0  0  0
   -0.3666   -4.3195    0.3892 O   0  0  0  0  0  0  0  0  0  0  0  0
   -0.0968   -1.9948    0.8699 C   0  0  2  0  0  0  0  0  0  0  0  0
   -0.9439   -2.0298    2.1475 C   0  0  0  0  0  0  0  0  0  0  0  0
   -0.8409   -1.4682   -0.2767 N   0  0  0  0  0  0  0  0  0  0  0  0
   -2.2237   -1.7471   -0.5198 C   0  0  0  0  0  0  0  0  0  0  0  0
   -2.5591   -2.8616   -1.0083 O   0  0  0  0  0  0  0  0  0  0  0  0
   -3.2424   -0.6520   -0.2917 C   0  0  2  0  0  0  0  0  0  0  0  0
   -4.6656   -1.1631    0.0862 C   0  0  0  0  0  0  0  0  0  0  0  0
   -4.6469   -2.1040    1.3021 C   0  0  0  0  0  0  0  0  0  0  0  0
   -5.4259   -1.8033   -1.0896 C   0  0  0  0  0  0  0  0  0  0  0  0
   -3.2934    0.2335   -1.4631 N   0  0  0  0  0  0  0  0  0  0  0  0
   -3.8564    1.5576   -1.4948 C   0  0  0  0  0  0  0  0  0  0  0  0
   -3.9933    2.1218   -2.6146 O   0  0  0  0  0  0  0  0  0  0  0  0
   -4.2350    2.3239   -0.2390 C   0  0  2  0  0  0  0  0  0  0  0  0
   -5.7344    2.6571   -0.2739 C   0  0  0  0  0  0  0  0  0  0  0  0
   -3.2607    6.2708   -0.0428 H   0  0  0  0  0  0  0  0  0  0  0  0
   -4.9680    5.6436    0.1523 H   0  0  0  0  0  0  0  0  0  0  0  0
   -4.4468    6.4251   -1.3691 H   0  0  0  0  0  0  0  0  0  0  0  0
   -3.5805    3.9882    0.9681 H   0  0  0  0  0  0  0  0  0  0  0  0
   -1.5963    2.3797    0.4807 H   0  0  0  0  0  0  0  0  0  0  0  0
   -1.2908    4.9596   -1.1669 H   0  0  0  0  0  0  0  0  0  0  0  0
    0.4441    1.7063   -0.0452 H   0  0  0  0  0  0  0  0  0  0  0  0
    2.4507    0.2886    0.0913 H   0  0  0  0  0  0  0  0  0  0  0  0
    6.2798    1.9940   -0.9978 H   0  0  0  0  0  0  0  0  0  0  0  0
    5.2564    4.1335   -1.3714 H   0  0  0  0  0  0  0  0  0  0  0  0
    3.2262    5.5439   -1.5122 H   0  0  0  0  0  0  0  0  0  0  0  0
    4.3477   -1.1082   -0.9080 H   0  0  0  0  0  0  0  0  0  0  0  0
    6.4693   -0.2969   -1.9392 H   0  0  0  0  0  0  0  0  0  0  0  0
    7.1543    0.0170   -0.2830 H   0  0  0  0  0  0  0  0  0  0  0  0
    6.7898   -1.6485   -0.7918 H   0  0  0  0  0  0  0  0  0  0  0  0
    4.0861   -4.0338    1.7708 H   0  0  0  0  0  0  0  0  0  0  0  0
    5.3287   -4.7891   -0.0136 H   0  0  0  0  0  0  0  0  0  0  0  0
    5.2566   -3.2897   -0.9490 H   0  0  0  0  0  0  0  0  0  0  0  0
    3.2767   -3.7870   -1.9752 H   0  0  0  0  0  0  0  0  0  0  0  0
    3.8623   -5.4534   -1.6880 H   0  0  0  0  0  0  0  0  0  0  0  0
    2.4779   -5.6242    0.3738 H   0  0  0  0  0  0  0  0  0  0  0  0
    1.4954   -5.1635   -1.0647 H   0  0  0  0  0  0  0  0  0  0  0  0
    2.5226   -2.3981    1.7806 H   0  0  0  0  0  0  0  0  0  0  0  0
    0.7284   -1.2830    1.0640 H   0  0  0  0  0  0  0  0  0  0  0  0
   -0.3101   -2.3479    3.0032 H   0  0  0  0  0  0  0  0  0  0  0  0
   -1.3421   -1.0183    2.3667 H   0  0  0  0  0  0  0  0  0  0  0  0
   -1.7837   -2.7510    2.0454 H   0  0  0  0  0  0  0  0  0  0  0  0
   -0.2904   -1.1139   -1.0949 H   0  0  0  0  0  0  0  0  0  0  0  0
   -2.8459   -0.0728    0.5715 H   0  0  0  0  0  0  0  0  0  0  0  0
   -5.2577   -0.2769    0.3948 H   0  0  0  0  0  0  0  0  0  0  0  0
   -5.6752   -2.2755    1.6692 H   0  0  0  0  0  0  0  0  0  0  0  0
   -4.2019   -3.0844    1.0420 H   0  0  0  0  0  0  0  0  0  0  0  0
   -4.0613   -1.6527    2.1293 H   0  0  0  0  0  0  0  0  0  0  0  0
   -6.4835   -1.9790   -0.7909 H   0  0  0  0  0  0  0  0  0  0  0  0
   -5.4279   -1.1318   -1.9735 H   0  0  0  0  0  0  0  0  0  0  0  0
   -4.9859   -2.7749   -1.3928 H   0  0  0  0  0  0  0  0  0  0  0  0
   -3.0028   -0.1625   -2.3889 H   0  0  0  0  0  0  0  0  0  0  0  0
   -4.0855    1.7001    0.6660 H   0  0  0  0  0  0  0  0  0  0  0  0
   -5.9854    3.2963   -1.1502 H   0  0  0  0  0  0  0  0  0  0  0  0
   -6.3350    1.7189   -0.3483 H   0  0  0  0  0  0  0  0  0  0  0  0
   -6.0286    3.1928    0.6528 H   0  0  0  0  0  0  0  0  0  0  0  0
  1  2  1  0
  2  3  1  0
  3  4  1  0
  4  5  2  0
  5  6  1  0
  6  7  1  0
  7  8  2  0
  8  9  1  0
  9 10  2  0
 10 11  1  0
 11 12  2  0
 12 13  1  0
 13 14  2  0
 14 15  1  0
 10 16  1  0
 16 17  1  0
 16 18  1  0
 18 19  1  0
 19 20  2  0
 19 21  1  0
 21 22  1  0
 22 23  1  0
 23 24  1  0
 24 25  1  0
 25 26  1  0
 25 27  1  0
 27 28  2  0
 27 29  1  0
 29 30  1  0
 29 31  1  0
 31 32  1  0
 32 33  2  0
 32 34  1  0
 34 35  1  0
 35 36  1  0
 35 37  1  0
 34 38  1  0
 38 39  1  0
 39 40  2  0
 39 41  1  0
 41 42  1  0
 41  3  1  0
 15  6  2  0
 26 21  1  0
 13  8  1  0
  1 43  1  0
  1 44  1  0
  1 45  1  0
  3 46  1  1
  4 47  1  0
  5 48  1  0
  7 49  1  0
  9 50  1  0
 11 51  1  0
 12 52  1  0
 14 53  1  0
 16 54  1  6
 17 55  1  0
 17 56  1  0
 17 57  1  0
 21 58  1  1
 22 59  1  0
 22 60  1  0
 23 61  1  0
 23 62  1  0
 24 63  1  0
 24 64  1  0
 26 65  1  0
 29 66  1  1
 30 67  1  0
 30 68  1  0
 30 69  1  0
 31 70  1  0
 34 71  1  1
 35 72  1  0
 36 73  1  0
 36 74  1  0
 36 75  1  0
 37 76  1  0
 37 77  1  0
 37 78  1  0
 38 79  1  0
 41 80  1  1
 42 81  1  0
 42 82  1  0
 42 83  1  0
M  END
$$$$
