
     RDKit          3D

 77 80  0  0  0  0  0  0  0  0999 V2000
   -0.3275    1.8714    1.2101 C   0  0  0  0  0  0  0  0  0  0  0  0
   -1.5960    1.0218    1.3759 C   0  0  1  0  0  0  0  0  0  0  0  0
   -2.7351    1.5670    0.4566 C   0  0  0  0  0  0  0  0  0  0  0  0
   -4.0946    1.1340    0.8756 N   0  0  0  0  0  0  0  0  0  0  0  0
   -4.7640    1.6785    2.0888 C   0  0  1  0  0  0  0  0  0  0  0  0
   -4.5967    0.7434    3.2983 C   0  0  0  0  0  0  0  0  0  0  0  0
   -4.3480    3.1192    2.4387 C   0  0  0  0  0  0  0  0  0  0  0  0
   -4.6909    3.9794    1.3843 O   0  0  0  0  0  0  0  0  0  0  0  0
   -4.8649    0.1985    0.0709 C   0  0  0  0  0  0  0  0  0  0  0  0
   -5.7264   -0.5246    0.6421 O   0  0  0  0  0  0  0  0  0  0  0  0
   -4.7236    0.1207   -1.4401 C   0  0  0  0  0  0  0  0  0  0  0  0
   -5.7895   -0.7723   -2.1346 C   0  0  0  0  0  0  0  0  0  0  0  0
   -5.3418   -2.2268   -2.4126 C   0  0  0  0  0  0  0  0  0  0  0  0
   -4.8051   -2.8739   -1.2173 N   0  0  0  0  0  0  0  0  0  0  0  0
   -3.5253   -2.8088   -0.8221 C   0  0  0  0  0  0  0  0  0  0  0  0
   -3.5097   -3.1230    0.5195 C   0  0  0  0  0  0  0  0  0  0  0  0
   -4.7769   -3.4146    0.8873 N   0  0  0  0  0  0  0  0  0  0  0  0
   -5.5397   -3.2638   -0.1876 N   0  0  0  0  0  0  0  0  0  0  0  0
   -2.4963   -2.5698    1.4666 C   0  0  0  0  0  0  0  0  0  0  0  0
   -2.5699   -1.1615    1.3382 O   0  0  0  0  0  0  0  0  0  0  0  0
   -1.3198   -0.5088    1.2186 C   0  0  1  0  0  0  0  0  0  0  0  0
   -0.5857   -0.8536   -0.1217 C   0  0  0  0  0  0  0  0  0  0  0  0
    0.8694   -0.5888   -0.0176 N   0  0  0  0  0  0  0  0  0  0  0  0
    1.5651   -1.7536    0.5696 C   0  0  0  0  0  0  0  0  0  0  0  0
    1.4345   -0.2688   -1.3477 C   0  0  0  0  0  0  0  0  0  0  0  0
    2.8593    0.2152   -1.2362 C   0  0  0  0  0  0  0  0  0  0  0  0
    3.9243   -0.6219   -1.6071 C   0  0  0  0  0  0  0  0  0  0  0  0
    5.2430   -0.1706   -1.5091 C   0  0  0  0  0  0  0  0  0  0  0  0
    5.5176    1.1177   -1.0129 C   0  0  0  0  0  0  0  0  0  0  0  0
    6.8241    1.6222   -0.9263 O   0  0  0  0  0  0  0  0  0  0  0  0
    7.9883    0.8571   -0.7676 C   0  0  0  0  0  0  0  0  0  0  0  0
    9.1772    1.3126   -1.3506 C   0  0  0  0  0  0  0  0  0  0  0  0
   10.3606    0.5837   -1.2064 C   0  0  0  0  0  0  0  0  0  0  0  0
   10.3683   -0.5982   -0.4623 C   0  0  0  0  0  0  0  0  0  0  0  0
    9.1936   -1.0452    0.1482 C   0  0  0  0  0  0  0  0  0  0  0  0
    8.0064   -0.3224   -0.0017 C   0  0  0  0  0  0  0  0  0  0  0  0
    4.4530    1.9514   -0.6527 C   0  0  0  0  0  0  0  0  0  0  0  0
    3.1326    1.5040   -0.7593 C   0  0  0  0  0  0  0  0  0  0  0  0
   -0.0497    1.9574    0.1391 H   0  0  0  0  0  0  0  0  0  0  0  0
    0.5151    1.4275    1.7785 H   0  0  0  0  0  0  0  0  0  0  0  0
   -0.5007    2.8949    1.6045 H   0  0  0  0  0  0  0  0  0  0  0  0
   -1.8992    1.1790    2.4258 H   0  0  0  0  0  0  0  0  0  0  0  0
   -2.6952    2.6744    0.4350 H   0  0  0  0  0  0  0  0  0  0  0  0
   -2.5332    1.2942   -0.5923 H   0  0  0  0  0  0  0  0  0  0  0  0
   -5.8591    1.7346    1.8855 H   0  0  0  0  0  0  0  0  0  0  0  0
   -5.3160    1.0355    4.0920 H   0  0  0  0  0  0  0  0  0  0  0  0
   -4.8114   -0.3071    3.0169 H   0  0  0  0  0  0  0  0  0  0  0  0
   -3.5789    0.7967    3.7326 H   0  0  0  0  0  0  0  0  0  0  0  0
   -4.8940    3.4488    3.3474 H   0  0  0  0  0  0  0  0  0  0  0  0
   -3.2600    3.1667    2.6715 H   0  0  0  0  0  0  0  0  0  0  0  0
   -4.0250    4.7182    1.3793 H   0  0  0  0  0  0  0  0  0  0  0  0
   -3.7079   -0.2237   -1.7201 H   0  0  0  0  0  0  0  0  0  0  0  0
   -4.8336    1.1563   -1.8306 H   0  0  0  0  0  0  0  0  0  0  0  0
   -6.7449   -0.7758   -1.5668 H   0  0  0  0  0  0  0  0  0  0  0  0
   -6.0278   -0.3149   -3.1204 H   0  0  0  0  0  0  0  0  0  0  0  0
   -4.5734   -2.2314   -3.2174 H   0  0  0  0  0  0  0  0  0  0  0  0
   -6.2105   -2.8100   -2.7847 H   0  0  0  0  0  0  0  0  0  0  0  0
   -2.7265   -2.3708   -1.4028 H   0  0  0  0  0  0  0  0  0  0  0  0
   -2.7716   -2.8484    2.5072 H   0  0  0  0  0  0  0  0  0  0  0  0
   -1.4955   -3.0092    1.2648 H   0  0  0  0  0  0  0  0  0  0  0  0
   -0.6840   -0.8119    2.0801 H   0  0  0  0  0  0  0  0  0  0  0  0
   -0.7391   -1.9057   -0.4295 H   0  0  0  0  0  0  0  0  0  0  0  0
   -1.0455   -0.2695   -0.9433 H   0  0  0  0  0  0  0  0  0  0  0  0
    1.0399   -2.1271    1.4734 H   0  0  0  0  0  0  0  0  0  0  0  0
    2.5849   -1.4576    0.8973 H   0  0  0  0  0  0  0  0  0  0  0  0
    1.6435   -2.5943   -0.1567 H   0  0  0  0  0  0  0  0  0  0  0  0
    1.3608   -1.1491   -2.0268 H   0  0  0  0  0  0  0  0  0  0  0  0
    0.8497    0.5457   -1.8291 H   0  0  0  0  0  0  0  0  0  0  0  0
    3.7332   -1.6179   -1.9850 H   0  0  0  0  0  0  0  0  0  0  0  0
    6.0419   -0.8187   -1.8444 H   0  0  0  0  0  0  0  0  0  0  0  0
    9.1817    2.2269   -1.9291 H   0  0  0  0  0  0  0  0  0  0  0  0
   11.2734    0.9327   -1.6744 H   0  0  0  0  0  0  0  0  0  0  0  0
   11.2846   -1.1603   -0.3518 H   0  0  0  0  0  0  0  0  0  0  0  0
    9.2032   -1.9528    0.7376 H   0  0  0  0  0  0  0  0  0  0  0  0
    7.1089   -0.6742    0.4903 H   0  0  0  0  0  0  0  0  0  0  0  0
    4.6477    2.9516   -0.2872 H   0  0  0  0  0  0  0  0  0  0  0  0
    2.3247    2.1630   -0.4711 H   0  0  0  0  0  0  0  0  0  0  0  0
  1  2  1  0
  2  3  1  0
  3  4  1  0
  4  5  1  0
  5  6  1  0
  5  7  1  0
  7  8  1  0
  4  9  1  0
  9 10  2  0
  9 11  1  0
 11 12  1  0
 12 13  1  0
 13 14  1  0
 14 15  1  0
 15 16  2  0
 16 17  1  0
 17 18  2  0
 16 19  1  0
 19 20  1  0
 20 21  1  0
 21 22  1  0
 22 23  1  0
 23 24  1  0
 23 25  1  0
 25 26  1  0
 26 27  2  0
 27 28  1  0
 28 29  2  0
 29 30  1  0
 30 31  1  0
 31 32  2  0
 32 33  1  0
 33 34  2  0
 34 35  1  0
 35 36  2  0
 29 37  1  0
 37 38  2  0
 21  2  1  0
 38 26  1  0
 18 14  1  0
 36 31  1  0
  1 39  1  0
  1 40  1  0
  1 41  1  0
  2 42  1  1
  3 43  1  0
  3 44  1  0
  5 45  1  6
  6 46  1  0
  6 47  1  0
  6 48  1  0
  7 49  1  0
  7 50  1  0
  8 51  1  0
 11 52  1  0
 11 53  1  0
 12 54  1  0
 12 55  1  0
 13 56  1  0
 13 57  1  0
 15 58  1  0
 19 59  1  0
 19 60  1  0
 21 61  1  1
 22 62  1  0
 22 63  1  0
 24 64  1  0
 24 65  1  0
 24 66  1  0
 25 67  1  0
 25 68  1  0
 27 69  1  0
 28 70  1  0
 32 71  1  0
 33 72  1  0
 34 73  1  0
 35 74  1  0
 36 75  1  0
 37 76  1  0
 38 77  1  0
M  END
$$$$
