
     RDKit          3D

 63 65  0  0  0  0  0  0  0  0999 V2000
    5.4700   -0.6349    1.8446 C   0  0  0  0  0  0  0  0  0  0  0  0
    5.2564    0.1952    0.5812 C   0  0  0  0  0  0  0  0  0  0  0  0
    4.3044   -0.4713   -0.3230 N   0  0  0  0  0  0  0  0  0  0  0  0
    4.7940   -1.0759   -1.5705 C   0  0  0  0  0  0  0  0  0  0  0  0
    4.3259   -0.2663   -2.7757 C   0  0  0  0  0  0  0  0  0  0  0  0
    2.9116   -0.6189    0.0345 C   0  0  0  0  0  0  0  0  0  0  0  0
    2.2874   -1.6578   -0.3104 O   0  0  0  0  0  0  0  0  0  0  0  0
    2.1864    0.4089    0.8647 C   0  0  0  0  0  0  0  0  0  0  0  0
    0.8142    0.6342    0.3520 N   0  0  0  0  0  0  0  0  0  0  0  0
    0.8481    1.4992   -0.8564 C   0  0  0  0  0  0  0  0  0  0  0  0
   -0.2716    1.1117   -1.8358 C   0  0  0  0  0  0  0  0  0  0  0  0
    0.0159   -0.2185   -2.5693 C   0  0  0  0  0  0  0  0  0  0  0  0
   -1.0361   -1.3040   -2.2995 C   0  0  0  0  0  0  0  0  0  0  0  0
   -2.3380   -1.1069   -3.1109 C   0  0  0  0  0  0  0  0  0  0  0  0
   -3.5667   -0.9299   -2.2194 C   0  0  0  0  0  0  0  0  0  0  0  0
   -3.6083    0.3978   -1.7111 O   0  0  0  0  0  0  0  0  0  0  0  0
   -4.3223    0.7181   -0.5600 C   0  0  0  0  0  0  0  0  0  0  0  0
   -5.5606    1.3602   -0.6692 C   0  0  0  0  0  0  0  0  0  0  0  0
   -6.2680    1.7180    0.4797 C   0  0  0  0  0  0  0  0  0  0  0  0
   -5.7339    1.4482    1.7416 C   0  0  0  0  0  0  0  0  0  0  0  0
   -4.4922    0.8094    1.8570 C   0  0  0  0  0  0  0  0  0  0  0  0
   -3.7698    0.4504    0.7023 C   0  0  0  0  0  0  0  0  0  0  0  0
   -2.5000   -0.1485    0.7632 O   0  0  0  0  0  0  0  0  0  0  0  0
   -1.8397   -0.4742    1.9500 C   0  0  0  0  0  0  0  0  0  0  0  0
   -2.3702   -1.4148    2.7815 N   0  0  0  0  0  0  0  0  0  0  0  0
   -1.7932   -1.7300    3.9698 C   0  0  0  0  0  0  0  0  0  0  0  0
   -0.6127   -1.0971    4.3627 C   0  0  0  0  0  0  0  0  0  0  0  0
   -0.0394   -0.1397    3.5245 C   0  0  0  0  0  0  0  0  0  0  0  0
   -0.6438    0.1812    2.2984 C   0  0  0  0  0  0  0  0  0  0  0  0
   -0.0429    1.2405    1.4021 C   0  0  0  0  0  0  0  0  0  0  0  0
    6.2108   -0.1331    2.5012 H   0  0  0  0  0  0  0  0  0  0  0  0
    5.8564   -1.6389    1.5654 H   0  0  0  0  0  0  0  0  0  0  0  0
    4.5151   -0.7584    2.4064 H   0  0  0  0  0  0  0  0  0  0  0  0
    4.9052    1.2143    0.8443 H   0  0  0  0  0  0  0  0  0  0  0  0
    6.2407    0.3337    0.0846 H   0  0  0  0  0  0  0  0  0  0  0  0
    5.9043   -1.1207   -1.5840 H   0  0  0  0  0  0  0  0  0  0  0  0
    4.4369   -2.1264   -1.6562 H   0  0  0  0  0  0  0  0  0  0  0  0
    4.6396    0.7958   -2.6706 H   0  0  0  0  0  0  0  0  0  0  0  0
    3.2234   -0.3074   -2.8684 H   0  0  0  0  0  0  0  0  0  0  0  0
    4.7690   -0.6886   -3.7016 H   0  0  0  0  0  0  0  0  0  0  0  0
    2.1642    0.0143    1.9012 H   0  0  0  0  0  0  0  0  0  0  0  0
    2.7363    1.3746    0.8917 H   0  0  0  0  0  0  0  0  0  0  0  0
    0.7454    2.5756   -0.5848 H   0  0  0  0  0  0  0  0  0  0  0  0
    1.8173    1.4208   -1.3989 H   0  0  0  0  0  0  0  0  0  0  0  0
   -1.2347    1.0786   -1.2905 H   0  0  0  0  0  0  0  0  0  0  0  0
   -0.3708    1.9209   -2.5940 H   0  0  0  0  0  0  0  0  0  0  0  0
    0.0969   -0.0388   -3.6633 H   0  0  0  0  0  0  0  0  0  0  0  0
    0.9993   -0.6264   -2.2633 H   0  0  0  0  0  0  0  0  0  0  0  0
   -0.5932   -2.2804   -2.5966 H   0  0  0  0  0  0  0  0  0  0  0  0
   -1.2236   -1.3786   -1.2058 H   0  0  0  0  0  0  0  0  0  0  0  0
   -2.4999   -2.0080   -3.7410 H   0  0  0  0  0  0  0  0  0  0  0  0
   -2.2632   -0.2391   -3.8022 H   0  0  0  0  0  0  0  0  0  0  0  0
   -3.5516   -1.6743   -1.3896 H   0  0  0  0  0  0  0  0  0  0  0  0
   -4.4815   -1.1079   -2.8251 H   0  0  0  0  0  0  0  0  0  0  0  0
   -5.9715    1.5833   -1.6448 H   0  0  0  0  0  0  0  0  0  0  0  0
   -7.2263    2.2147    0.3944 H   0  0  0  0  0  0  0  0  0  0  0  0
   -6.2786    1.7387    2.6296 H   0  0  0  0  0  0  0  0  0  0  0  0
   -4.0883    0.6354    2.8455 H   0  0  0  0  0  0  0  0  0  0  0  0
   -2.2461   -2.4782    4.6078 H   0  0  0  0  0  0  0  0  0  0  0  0
   -0.1524   -1.3360    5.3128 H   0  0  0  0  0  0  0  0  0  0  0  0
    0.8709    0.3582    3.8393 H   0  0  0  0  0  0  0  0  0  0  0  0
   -0.8853    1.8139    0.9521 H   0  0  0  0  0  0  0  0  0  0  0  0
    0.5299    1.9838    2.0059 H   0  0  0  0  0  0  0  0  0  0  0  0
  1  2  1  0
  2  3  1  0
  3  4  1  0
  4  5  1  0
  3  6  1  0
  6  7  2  0
  6  8  1  0
  8  9  1  0
  9 10  1  0
 10 11  1  0
 11 12  1  0
 12 13  1  0
 13 14  1  0
 14 15  1  0
 15 16  1  0
 16 17  1  0
 17 18  2  0
 18 19  1  0
 19 20  2  0
 20 21  1  0
 21 22  2  0
 22 23  1  0
 23 24  1  0
 24 25  2  0
 25 26  1  0
 26 27  2  0
 27 28  1  0
 28 29  2  0
 29 30  1  0
 30  9  1  0
 22 17  1  0
 29 24  1  0
  1 31  1  0
  1 32  1  0
  1 33  1  0
  2 34  1  0
  2 35  1  0
  4 36  1  0
  4 37  1  0
  5 38  1  0
  5 39  1  0
  5 40  1  0
  8 41  1  0
  8 42  1  0
 10 43  1  0
 10 44  1  0
 11 45  1  0
 11 46  1  0
 12 47  1  0
 12 48  1  0
 13 49  1  0
 13 50  1  0
 14 51  1  0
 14 52  1  0
 15 53  1  0
 15 54  1  0
 18 55  1  0
 19 56  1  0
 20 57  1  0
 21 58  1  0
 26 59  1  0
 27 60  1  0
 28 61  1  0
 30 62  1  0
 30 63  1  0
M  END
$$$$
