
     RDKit          3D

 91 95  0  0  0  0  0  0  0  0999 V2000
   -6.3554    0.0481   -1.4965 C   0  0  0  0  0  0  0  0  0  0  0  0
   -6.4390   -0.2148    0.0133 C   0  0  0  0  0  0  0  0  0  0  0  0
   -7.2281    0.8969    0.7221 C   0  0  0  0  0  0  0  0  0  0  0  0
   -5.0702   -0.5027    0.6980 C   0  0  0  0  0  0  0  0  0  0  0  0
   -4.4736   -1.7405    0.1762 N   0  0  0  0  0  0  0  0  0  0  0  0
   -3.2637   -1.8033   -0.5914 C   0  0  0  0  0  0  0  0  0  0  0  0
   -3.2836   -1.3898   -1.7822 O   0  0  0  0  0  0  0  0  0  0  0  0
   -1.9926   -2.4730   -0.0597 C   0  0  0  0  0  0  0  0  0  0  0  0
   -2.0343   -2.6040    1.5039 C   0  0  0  0  0  0  0  0  0  0  0  0
   -1.3500   -3.8848    2.0016 C   0  0  0  0  0  0  0  0  0  0  0  0
   -2.0621   -5.1390    1.4614 C   0  0  0  0  0  0  0  0  0  0  0  0
   -2.6219   -4.9587    0.0343 C   0  0  0  0  0  0  0  0  0  0  0  0
   -1.8669   -3.8734   -0.7418 C   0  0  0  0  0  0  0  0  0  0  0  0
   -0.8370   -1.6306   -0.4449 N   0  0  0  0  0  0  0  0  0  0  0  0
    0.5310   -1.9475   -0.1589 C   0  0  0  0  0  0  0  0  0  0  0  0
    1.1874   -2.6475   -0.9767 O   0  0  0  0  0  0  0  0  0  0  0  0
    1.2288   -1.3729    1.0432 C   0  0  0  0  0  0  0  0  0  0  0  0
    1.2806    0.1835    1.0238 C   0  0  0  0  0  0  0  0  0  0  0  0
    2.7016    0.6397    1.2651 C   0  0  0  0  0  0  0  0  0  0  0  0
    3.1371    0.6529    2.4502 O   0  0  0  0  0  0  0  0  0  0  0  0
    3.5718    1.0347    0.1800 N   0  0  0  0  0  0  0  0  0  0  0  0
    3.5170    0.3614   -1.1264 C   0  0  0  0  0  0  0  0  0  0  0  0
    4.5176   -0.7986   -1.1761 C   0  0  0  0  0  0  0  0  0  0  0  0
    5.9182   -0.3074   -1.4679 C   0  0  0  0  0  0  0  0  0  0  0  0
    6.5387   -0.6895   -2.6712 C   0  0  0  0  0  0  0  0  0  0  0  0
    7.8184   -0.2326   -2.9877 C   0  0  0  0  0  0  0  0  0  0  0  0
    8.4933    0.6162   -2.1122 C   0  0  0  0  0  0  0  0  0  0  0  0
    7.8939    1.0076   -0.9142 C   0  0  0  0  0  0  0  0  0  0  0  0
    6.6069    0.5518   -0.5745 C   0  0  0  0  0  0  0  0  0  0  0  0
    5.9828    1.0153    0.7228 C   0  0  0  0  0  0  0  0  0  0  0  0
    4.7394    1.8773    0.4720 C   0  0  0  0  0  0  0  0  0  0  0  0
    0.3918    0.7581    2.0479 N   0  0  0  0  0  0  0  0  0  0  0  0
   -0.1401    2.0937    1.9874 C   0  0  0  0  0  0  0  0  0  0  0  0
   -1.1265    2.3948    2.7110 O   0  0  0  0  0  0  0  0  0  0  0  0
    0.4436    3.1356    1.1210 C   0  0  0  0  0  0  0  0  0  0  0  0
    1.7245    3.6353    1.4062 C   0  0  0  0  0  0  0  0  0  0  0  0
    2.2722    4.6619    0.6336 C   0  0  0  0  0  0  0  0  0  0  0  0
    1.5314    5.2255   -0.4073 C   0  0  0  0  0  0  0  0  0  0  0  0
    0.2394    4.7662   -0.6732 C   0  0  0  0  0  0  0  0  0  0  0  0
   -0.3094    3.7218    0.0812 C   0  0  0  0  0  0  0  0  0  0  0  0
   -1.6040    3.2880   -0.2126 O   0  0  0  0  0  0  0  0  0  0  0  0
   -1.8325    2.0743   -0.9187 C   0  0  0  0  0  0  0  0  0  0  0  0
   -3.3129    1.9443   -1.2678 C   0  0  0  0  0  0  0  0  0  0  0  0
   -4.1360    1.7931   -0.0704 N   0  0  0  0  0  0  0  0  0  0  0  0
   -4.0640    0.6341    0.7671 C   0  0  0  0  0  0  0  0  0  0  0  0
   -3.1429    0.5618    1.6226 O   0  0  0  0  0  0  0  0  0  0  0  0
   -5.9257    1.0434   -1.7173 H   0  0  0  0  0  0  0  0  0  0  0  0
   -5.7586   -0.7367   -2.0019 H   0  0  0  0  0  0  0  0  0  0  0  0
   -7.3756    0.0226   -1.9355 H   0  0  0  0  0  0  0  0  0  0  0  0
   -7.0455   -1.1420    0.1315 H   0  0  0  0  0  0  0  0  0  0  0  0
   -8.2649    0.9349    0.3263 H   0  0  0  0  0  0  0  0  0  0  0  0
   -7.2871    0.6954    1.8122 H   0  0  0  0  0  0  0  0  0  0  0  0
   -6.7665    1.8901    0.5645 H   0  0  0  0  0  0  0  0  0  0  0  0
   -5.3204   -0.7184    1.7614 H   0  0  0  0  0  0  0  0  0  0  0  0
   -4.9479   -2.6427    0.4064 H   0  0  0  0  0  0  0  0  0  0  0  0
   -3.0688   -2.6415    1.8998 H   0  0  0  0  0  0  0  0  0  0  0  0
   -1.5694   -1.7157    1.9801 H   0  0  0  0  0  0  0  0  0  0  0  0
   -0.2894   -3.8986    1.6748 H   0  0  0  0  0  0  0  0  0  0  0  0
   -1.3573   -3.9051    3.1129 H   0  0  0  0  0  0  0  0  0  0  0  0
   -2.9001   -5.4068    2.1415 H   0  0  0  0  0  0  0  0  0  0  0  0
   -1.3436   -5.9879    1.4726 H   0  0  0  0  0  0  0  0  0  0  0  0
   -3.6986   -4.6901    0.0864 H   0  0  0  0  0  0  0  0  0  0  0  0
   -2.5502   -5.9224   -0.5146 H   0  0  0  0  0  0  0  0  0  0  0  0
   -0.8063   -4.1928   -0.8032 H   0  0  0  0  0  0  0  0  0  0  0  0
   -2.2386   -3.8439   -1.7890 H   0  0  0  0  0  0  0  0  0  0  0  0
   -0.9672   -0.8523   -1.1283 H   0  0  0  0  0  0  0  0  0  0  0  0
    0.7462   -1.7533    1.9637 H   0  0  0  0  0  0  0  0  0  0  0  0
    2.2567   -1.8007    1.0701 H   0  0  0  0  0  0  0  0  0  0  0  0
    0.9372    0.5641    0.0383 H   0  0  0  0  0  0  0  0  0  0  0  0
    3.7297    1.0925   -1.9377 H   0  0  0  0  0  0  0  0  0  0  0  0
    2.5067   -0.0377   -1.3353 H   0  0  0  0  0  0  0  0  0  0  0  0
    4.5050   -1.3590   -0.2175 H   0  0  0  0  0  0  0  0  0  0  0  0
    4.1853   -1.5127   -1.9607 H   0  0  0  0  0  0  0  0  0  0  0  0
    6.0303   -1.3408   -3.3716 H   0  0  0  0  0  0  0  0  0  0  0  0
    8.2860   -0.5331   -3.9170 H   0  0  0  0  0  0  0  0  0  0  0  0
    9.4827    0.9746   -2.3624 H   0  0  0  0  0  0  0  0  0  0  0  0
    8.4364    1.6725   -0.2534 H   0  0  0  0  0  0  0  0  0  0  0  0
    5.7238    0.1350    1.3506 H   0  0  0  0  0  0  0  0  0  0  0  0
    6.7121    1.6162    1.3084 H   0  0  0  0  0  0  0  0  0  0  0  0
    4.9181    2.5840   -0.3684 H   0  0  0  0  0  0  0  0  0  0  0  0
    4.5466    2.5029    1.3704 H   0  0  0  0  0  0  0  0  0  0  0  0
    0.0567    0.1590    2.8360 H   0  0  0  0  0  0  0  0  0  0  0  0
    2.2915    3.2457    2.2419 H   0  0  0  0  0  0  0  0  0  0  0  0
    3.2656    5.0318    0.8534 H   0  0  0  0  0  0  0  0  0  0  0  0
    1.9549    6.0267   -1.0008 H   0  0  0  0  0  0  0  0  0  0  0  0
   -0.3368    5.2153   -1.4720 H   0  0  0  0  0  0  0  0  0  0  0  0
   -1.2431    2.0796   -1.8611 H   0  0  0  0  0  0  0  0  0  0  0  0
   -1.5038    1.2147   -0.3043 H   0  0  0  0  0  0  0  0  0  0  0  0
   -3.6356    2.8525   -1.8220 H   0  0  0  0  0  0  0  0  0  0  0  0
   -3.4646    1.0784   -1.9404 H   0  0  0  0  0  0  0  0  0  0  0  0
   -4.6264    2.6387    0.2979 H   0  0  0  0  0  0  0  0  0  0  0  0
  1  2  1  0
  2  3  1  0
  2  4  1  0
  4  5  1  0
  5  6  1  0
  6  7  2  0
  6  8  1  0
  8  9  1  0
  9 10  1  0
 10 11  1  0
 11 12  1  0
 12 13  1  0
  8 14  1  0
 14 15  1  0
 15 16  2  0
 15 17  1  0
 17 18  1  0
 18 19  1  0
 19 20  2  0
 19 21  1  0
 21 22  1  0
 22 23  1  0
 23 24  1  0
 24 25  2  0
 25 26  1  0
 26 27  2  0
 27 28  1  0
 28 29  2  0
 29 30  1  0
 30 31  1  0
 18 32  1  0
 32 33  1  0
 33 34  2  0
 33 35  1  0
 35 36  2  0
 36 37  1  0
 37 38  2  0
 38 39  1  0
 39 40  2  0
 40 41  1  0
 41 42  1  0
 42 43  1  0
 43 44  1  0
 44 45  1  0
 45 46  2  0
 45  4  1  0
 13  8  1  0
 31 21  1  0
 40 35  1  0
 29 24  1  0
  1 47  1  0
  1 48  1  0
  1 49  1  0
  2 50  1  0
  3 51  1  0
  3 52  1  0
  3 53  1  0
  4 54  1  0
  5 55  1  0
  9 56  1  0
  9 57  1  0
 10 58  1  0
 10 59  1  0
 11 60  1  0
 11 61  1  0
 12 62  1  0
 12 63  1  0
 13 64  1  0
 13 65  1  0
 14 66  1  0
 17 67  1  0
 17 68  1  0
 18 69  1  0
 22 70  1  0
 22 71  1  0
 23 72  1  0
 23 73  1  0
 25 74  1  0
 26 75  1  0
 27 76  1  0
 28 77  1  0
 30 78  1  0
 30 79  1  0
 31 80  1  0
 31 81  1  0
 32 82  1  0
 36 83  1  0
 37 84  1  0
 38 85  1  0
 39 86  1  0
 42 87  1  0
 42 88  1  0
 43 89  1  0
 43 90  1  0
 44 91  1  0
M  END
$$$$
