
     RDKit          3D

 74 77  0  0  0  0  0  0  0  0999 V2000
   -6.3274   -0.0675    1.1457 C   0  0  0  0  0  0  0  0  0  0  0  0
   -5.0963    0.3453    0.4697 N   0  0  0  0  0  0  0  0  0  0  0  0
   -4.5494   -0.4838   -0.6118 C   0  0  0  0  0  0  0  0  0  0  0  0
   -3.8579   -1.7347   -0.0515 C   0  0  0  0  0  0  0  0  0  0  0  0
   -2.5814   -1.8898   -0.6673 O   0  0  0  0  0  0  0  0  0  0  0  0
   -1.6959   -2.9527   -0.4324 C   0  0  0  0  0  0  0  0  0  0  0  0
   -2.0419   -4.0388    0.3958 C   0  0  0  0  0  0  0  0  0  0  0  0
   -1.1612   -5.1103    0.5600 C   0  0  0  0  0  0  0  0  0  0  0  0
    0.0666   -5.1153   -0.1018 C   0  0  0  0  0  0  0  0  0  0  0  0
    0.4296   -4.0367   -0.9113 C   0  0  0  0  0  0  0  0  0  0  0  0
   -0.4337   -2.9408   -1.0625 C   0  0  0  0  0  0  0  0  0  0  0  0
   -0.0064   -1.7908   -1.8857 C   0  0  0  0  0  0  0  0  0  0  0  0
    0.4407   -2.0005   -3.0457 O   0  0  0  0  0  0  0  0  0  0  0  0
   -0.0809   -0.4414   -1.3969 N   0  0  0  0  0  0  0  0  0  0  0  0
    0.1426   -0.0947    0.0136 C   0  0  0  0  0  0  0  0  0  0  0  0
    1.5268    0.4736    0.2130 C   0  0  0  0  0  0  0  0  0  0  0  0
    2.0588    1.1695   -0.6945 O   0  0  0  0  0  0  0  0  0  0  0  0
    2.2133    0.2662    1.4559 N   0  0  0  0  0  0  0  0  0  0  0  0
    3.4694    0.9366    1.7853 C   0  0  0  0  0  0  0  0  0  0  0  0
    4.6342    0.3361    0.9901 C   0  0  0  0  0  0  0  0  0  0  0  0
    5.9580    1.0044    1.3705 C   0  0  0  0  0  0  0  0  0  0  0  0
    7.0317    0.5265    0.5050 N   0  0  0  0  0  0  0  0  0  0  0  0
    7.3972    1.0724   -0.6711 C   0  0  0  0  0  0  0  0  0  0  0  0
    8.4023    0.3017   -1.2148 C   0  0  0  0  0  0  0  0  0  0  0  0
    8.5947   -0.7139   -0.2931 C   0  0  0  0  0  0  0  0  0  0  0  0
    9.5363   -1.8654   -0.4450 C   0  0  0  0  0  0  0  0  0  0  0  0
    9.7410   -2.4783    0.7782 F   0  0  0  0  0  0  0  0  0  0  0  0
    9.0003   -2.7843   -1.3274 F   0  0  0  0  0  0  0  0  0  0  0  0
   10.7505   -1.4180   -0.9326 F   0  0  0  0  0  0  0  0  0  0  0  0
    7.7368   -0.5696    0.7368 N   0  0  0  0  0  0  0  0  0  0  0  0
   -0.9523    0.8537    0.5490 C   0  0  0  0  0  0  0  0  0  0  0  0
   -1.0542    2.2339   -0.1379 C   0  0  0  0  0  0  0  0  0  0  0  0
   -2.1127    2.2808   -1.2116 C   0  0  0  0  0  0  0  0  0  0  0  0
   -1.7641    2.0830   -2.4067 O   0  0  0  0  0  0  0  0  0  0  0  0
   -3.4990    2.5674   -0.9237 N   0  0  0  0  0  0  0  0  0  0  0  0
   -4.4440    2.8909   -1.9840 C   0  0  0  0  0  0  0  0  0  0  0  0
   -5.7749    3.1545   -1.2936 C   0  0  0  0  0  0  0  0  0  0  0  0
   -5.4267    3.4207    0.1670 C   0  0  0  0  0  0  0  0  0  0  0  0
   -4.0893    2.7161    0.4034 C   0  0  0  0  0  0  0  0  0  0  0  0
   -4.2974    1.3777    1.0743 C   0  0  0  0  0  0  0  0  0  0  0  0
   -3.8227    1.1942    2.2271 O   0  0  0  0  0  0  0  0  0  0  0  0
   -6.7571   -0.9787    0.6787 H   0  0  0  0  0  0  0  0  0  0  0  0
   -7.0790    0.7461    1.0782 H   0  0  0  0  0  0  0  0  0  0  0  0
   -6.1203   -0.2892    2.2138 H   0  0  0  0  0  0  0  0  0  0  0  0
   -5.3658   -0.7813   -1.3049 H   0  0  0  0  0  0  0  0  0  0  0  0
   -3.8301    0.0961   -1.2212 H   0  0  0  0  0  0  0  0  0  0  0  0
   -4.4882   -2.6262   -0.2591 H   0  0  0  0  0  0  0  0  0  0  0  0
   -3.7178   -1.6464    1.0482 H   0  0  0  0  0  0  0  0  0  0  0  0
   -2.9918   -4.0705    0.9096 H   0  0  0  0  0  0  0  0  0  0  0  0
   -1.4373   -5.9446    1.1913 H   0  0  0  0  0  0  0  0  0  0  0  0
    0.7414   -5.9525    0.0191 H   0  0  0  0  0  0  0  0  0  0  0  0
    1.3956   -4.0463   -1.4029 H   0  0  0  0  0  0  0  0  0  0  0  0
   -0.0084    0.3208   -2.1065 H   0  0  0  0  0  0  0  0  0  0  0  0
    0.0792   -1.0163    0.6313 H   0  0  0  0  0  0  0  0  0  0  0  0
    1.7498   -0.3005    2.2010 H   0  0  0  0  0  0  0  0  0  0  0  0
    3.3755    2.0246    1.5745 H   0  0  0  0  0  0  0  0  0  0  0  0
    3.6693    0.8137    2.8723 H   0  0  0  0  0  0  0  0  0  0  0  0
    4.7023   -0.7549    1.1958 H   0  0  0  0  0  0  0  0  0  0  0  0
    4.4591    0.4788   -0.0977 H   0  0  0  0  0  0  0  0  0  0  0  0
    6.2057    0.7722    2.4293 H   0  0  0  0  0  0  0  0  0  0  0  0
    5.8685    2.1100    1.2738 H   0  0  0  0  0  0  0  0  0  0  0  0
    6.9545    1.9576   -1.1097 H   0  0  0  0  0  0  0  0  0  0  0  0
    8.9119    0.4523   -2.1584 H   0  0  0  0  0  0  0  0  0  0  0  0
   -1.9196    0.3269    0.4906 H   0  0  0  0  0  0  0  0  0  0  0  0
   -0.7592    1.0186    1.6312 H   0  0  0  0  0  0  0  0  0  0  0  0
   -1.2777    3.0036    0.6285 H   0  0  0  0  0  0  0  0  0  0  0  0
   -0.0809    2.5360   -0.5752 H   0  0  0  0  0  0  0  0  0  0  0  0
   -4.1023    3.8014   -2.5221 H   0  0  0  0  0  0  0  0  0  0  0  0
   -4.5357    2.0443   -2.6980 H   0  0  0  0  0  0  0  0  0  0  0  0
   -6.4125    2.2468   -1.3604 H   0  0  0  0  0  0  0  0  0  0  0  0
   -6.3087    4.0158   -1.7491 H   0  0  0  0  0  0  0  0  0  0  0  0
   -5.2940    4.5163    0.3124 H   0  0  0  0  0  0  0  0  0  0  0  0
   -6.2330    3.0781    0.8516 H   0  0  0  0  0  0  0  0  0  0  0  0
   -3.4545    3.3695    1.0384 H   0  0  0  0  0  0  0  0  0  0  0  0
  1  2  1  0
  2  3  1  0
  3  4  1  0
  4  5  1  0
  5  6  1  0
  6  7  2  0
  7  8  1  0
  8  9  2  0
  9 10  1  0
 10 11  2  0
 11 12  1  0
 12 13  2  0
 12 14  1  0
 14 15  1  0
 15 16  1  0
 16 17  2  0
 16 18  1  0
 18 19  1  0
 19 20  1  0
 20 21  1  0
 21 22  1  0
 22 23  1  0
 23 24  2  0
 24 25  1  0
 25 26  1  0
 26 27  1  0
 26 28  1  0
 26 29  1  0
 25 30  2  0
 15 31  1  0
 31 32  1  0
 32 33  1  0
 33 34  2  0
 33 35  1  0
 35 36  1  0
 36 37  1  0
 37 38  1  0
 38 39  1  0
 39 40  1  0
 40 41  2  0
 40  2  1  0
 11  6  1  0
 30 22  1  0
 39 35  1  0
  1 42  1  0
  1 43  1  0
  1 44  1  0
  3 45  1  0
  3 46  1  0
  4 47  1  0
  4 48  1  0
  7 49  1  0
  8 50  1  0
  9 51  1  0
 10 52  1  0
 14 53  1  0
 15 54  1  0
 18 55  1  0
 19 56  1  0
 19 57  1  0
 20 58  1  0
 20 59  1  0
 21 60  1  0
 21 61  1  0
 23 62  1  0
 24 63  1  0
 31 64  1  0
 31 65  1  0
 32 66  1  0
 32 67  1  0
 36 68  1  0
 36 69  1  0
 37 70  1  0
 37 71  1  0
 38 72  1  0
 38 73  1  0
 39 74  1  0
M  END
$$$$
