
     RDKit          3D

133136  0  0  0  0  0  0  0  0999 V2000
   -2.0545   -3.3829   -3.2671 C   0  0  0  0  0  0  0  0  0  0  0  0
   -1.2971   -2.1910   -3.2780 O   0  0  0  0  0  0  0  0  0  0  0  0
   -0.0895   -2.3308   -2.5349 C   0  0  2  0  0  0  0  0  0  0  0  0
   -0.2261   -1.5306   -1.1879 C   0  0  1  0  0  0  0  0  0  0  0  0
   -1.5647   -1.6826   -0.7423 O   0  0  0  0  0  0  0  0  0  0  0  0
   -2.2210   -0.4781   -0.3816 C   0  0  0  0  0  0  0  0  0  0  0  0
   -2.9591   -0.7691    0.7998 O   0  0  0  0  0  0  0  0  0  0  0  0
   -3.8197    0.2777    1.2099 C   0  0  0  0  0  0  0  0  0  0  0  0
   -3.0551    1.5073    1.7434 C   0  0  0  0  0  0  0  0  0  0  0  0
   -4.8755    0.5920    0.1326 C   0  0  0  0  0  0  0  0  0  0  0  0
   -5.7333    1.6376    0.5759 O   0  0  0  0  0  0  0  0  0  0  0  0
   -6.9839    1.1575    1.0556 C   0  0  0  0  0  0  0  0  0  0  0  0
   -7.2942    1.7404    2.4585 C   0  0  0  0  0  0  0  0  0  0  0  0
   -8.4558    2.7615    2.4699 C   0  0  0  0  0  0  0  0  0  0  0  0
   -9.8261    2.0423    2.5263 C   0  0  0  0  0  0  0  0  0  0  0  0
   -8.3441    3.5982    3.6003 O   0  0  0  0  0  0  0  0  0  0  0  0
   -8.3598    3.6418    1.2034 C   0  0  0  0  0  0  0  0  0  0  0  0
   -7.2761    4.5426    1.2884 O   0  0  0  0  0  0  0  0  0  0  0  0
   -8.3223    2.7770   -0.0978 C   0  0  0  0  0  0  0  0  0  0  0  0
   -7.5068    3.3950   -1.2399 C   0  0  0  0  0  0  0  0  0  0  0  0
   -8.0008    1.4017    0.0966 O   0  0  0  0  0  0  0  0  0  0  0  0
   -4.1989    0.9880   -1.1899 C   0  0  0  0  0  0  0  0  0  0  0  0
   -5.2360    1.2300   -2.2407 N   0  0  0  0  0  0  0  0  0  0  0  0
   -5.8290    0.0288   -2.8600 C   0  0  0  0  0  0  0  0  0  0  0  0
   -4.7880    2.1692   -3.2870 C   0  0  0  0  0  0  0  0  0  0  0  0
   -3.1376   -0.0803   -1.5735 C   0  0  0  0  0  0  0  0  0  0  0  0
   -2.3566    0.3717   -2.6555 O   0  0  0  0  0  0  0  0  0  0  0  0
    0.7141   -1.9830    0.0013 C   0  0  1  0  0  0  0  0  0  0  0  0
    0.5631   -3.4996    0.3612 C   0  0  0  0  0  0  0  0  0  0  0  0
   -0.8055   -3.8453    0.8674 C   0  0  0  0  0  0  0  0  0  0  0  0
   -1.1823   -3.4325    1.9523 O   0  0  0  0  0  0  0  0  0  0  0  0
    2.2079   -1.6015   -0.2168 C   0  0  0  0  0  0  0  0  0  0  0  0
    2.9962   -1.1235    1.0561 C   0  0  1  0  0  0  0  0  0  0  0  0
    3.0198   -2.1813    2.1769 C   0  0  0  0  0  0  0  0  0  0  0  0
    4.4394   -0.6100    0.6988 C   0  0  1  0  0  0  0  0  0  0  0  0
    5.3057   -0.6990    1.8204 O   0  0  0  0  0  0  0  0  0  0  0  0
    5.7555    0.5535    2.2990 C   0  0  0  0  0  0  0  0  0  0  0  0
    7.0699    0.2883    3.0373 C   0  0  0  0  0  0  0  0  0  0  0  0
    7.5864    1.5546    3.7073 C   0  0  0  0  0  0  0  0  0  0  0  0
    6.4980    2.1736    4.6140 C   0  0  0  0  0  0  0  0  0  0  0  0
    6.9051    3.4949    5.1978 N   0  0  0  0  0  0  0  0  0  0  0  0
    8.3040    3.5143    5.6666 C   0  0  0  0  0  0  0  0  0  0  0  0
    6.0451    3.8521    6.3484 C   0  0  0  0  0  0  0  0  0  0  0  0
    5.1702    2.3009    3.7968 C   0  0  0  0  0  0  0  0  0  0  0  0
    5.1576    3.4793    2.8053 C   0  0  0  0  0  0  0  0  0  0  0  0
    4.7769    1.0777    3.1817 O   0  0  0  0  0  0  0  0  0  0  0  0
    5.0642   -1.4470   -0.3884 C   0  0  0  0  0  0  0  0  0  0  0  0
    5.2647   -0.9681   -1.6209 C   0  0  0  0  0  0  0  0  0  0  0  0
    5.5935   -1.8039   -2.7946 C   0  0  0  0  0  0  0  0  0  0  0  0
    5.4470   -3.1349   -2.8311 C   0  0  0  0  0  0  0  0  0  0  0  0
    5.5184   -3.8760   -4.1340 C   0  0  0  0  0  0  0  0  0  0  0  0
    4.2077   -3.6915   -4.9136 C   0  0  1  0  0  0  0  0  0  0  0  0
    4.3230   -4.2794   -6.3232 C   0  0  0  0  0  0  0  0  0  0  0  0
    3.1562   -4.3585   -4.2106 O   0  0  0  0  0  0  0  0  0  0  0  0
    1.7892   -4.1068   -4.3631 C   0  0  0  0  0  0  0  0  0  0  0  0
    0.9785   -5.0262   -4.0744 O   0  0  0  0  0  0  0  0  0  0  0  0
    1.2434   -2.7410   -4.7082 C   0  0  0  0  0  0  0  0  0  0  0  0
    1.0854   -1.8536   -3.4436 C   0  0  1  0  0  0  0  0  0  0  0  0
    0.9195   -0.5058   -3.8098 O   0  0  0  0  0  0  0  0  0  0  0  0
   -3.0204   -3.1953   -3.7836 H   0  0  0  0  0  0  0  0  0  0  0  0
   -2.2853   -3.7128   -2.2287 H   0  0  0  0  0  0  0  0  0  0  0  0
   -1.5272   -4.1878   -3.8220 H   0  0  0  0  0  0  0  0  0  0  0  0
    0.1221   -3.3876   -2.3002 H   0  0  0  0  0  0  0  0  0  0  0  0
    0.0089   -0.4672   -1.4317 H   0  0  0  0  0  0  0  0  0  0  0  0
   -1.5000    0.3440   -0.1537 H   0  0  0  0  0  0  0  0  0  0  0  0
   -4.3867   -0.1146    2.0812 H   0  0  0  0  0  0  0  0  0  0  0  0
   -3.7548    2.2074    2.2464 H   0  0  0  0  0  0  0  0  0  0  0  0
   -2.5286    2.0630    0.9404 H   0  0  0  0  0  0  0  0  0  0  0  0
   -2.3013    1.1785    2.4936 H   0  0  0  0  0  0  0  0  0  0  0  0
   -5.4057   -0.3686   -0.0632 H   0  0  0  0  0  0  0  0  0  0  0  0
   -6.9843    0.0569    1.2253 H   0  0  0  0  0  0  0  0  0  0  0  0
   -7.5229    0.9145    3.1702 H   0  0  0  0  0  0  0  0  0  0  0  0
   -6.3735    2.2223    2.8625 H   0  0  0  0  0  0  0  0  0  0  0  0
  -10.6545    2.7802    2.5177 H   0  0  0  0  0  0  0  0  0  0  0  0
   -9.9131    1.4386    3.4570 H   0  0  0  0  0  0  0  0  0  0  0  0
   -9.9693    1.3498    1.6679 H   0  0  0  0  0  0  0  0  0  0  0  0
   -8.3630    3.0213    4.4104 H   0  0  0  0  0  0  0  0  0  0  0  0
   -9.2754    4.2770    1.1618 H   0  0  0  0  0  0  0  0  0  0  0  0
   -6.4387    4.0179    1.3288 H   0  0  0  0  0  0  0  0  0  0  0  0
   -9.3701    2.7728   -0.4734 H   0  0  0  0  0  0  0  0  0  0  0  0
   -7.8818    4.4150   -1.4657 H   0  0  0  0  0  0  0  0  0  0  0  0
   -6.4292    3.4616   -0.9872 H   0  0  0  0  0  0  0  0  0  0  0  0
   -7.6180    2.7736   -2.1558 H   0  0  0  0  0  0  0  0  0  0  0  0
   -3.6665    1.9414   -0.9949 H   0  0  0  0  0  0  0  0  0  0  0  0
   -6.7665    0.3058   -3.3869 H   0  0  0  0  0  0  0  0  0  0  0  0
   -6.1042   -0.7297   -2.1003 H   0  0  0  0  0  0  0  0  0  0  0  0
   -5.1328   -0.4375   -3.5947 H   0  0  0  0  0  0  0  0  0  0  0  0
   -4.3828    3.0999   -2.8321 H   0  0  0  0  0  0  0  0  0  0  0  0
   -5.6490    2.4697   -3.9200 H   0  0  0  0  0  0  0  0  0  0  0  0
   -4.0147    1.7115   -3.9380 H   0  0  0  0  0  0  0  0  0  0  0  0
   -3.6516   -1.0093   -1.8907 H   0  0  0  0  0  0  0  0  0  0  0  0
   -1.8713    1.1861   -2.3560 H   0  0  0  0  0  0  0  0  0  0  0  0
    0.3718   -1.4007    0.8871 H   0  0  0  0  0  0  0  0  0  0  0  0
    1.2774   -3.8043    1.1433 H   0  0  0  0  0  0  0  0  0  0  0  0
    0.8211   -4.1571   -0.4885 H   0  0  0  0  0  0  0  0  0  0  0  0
   -1.4631   -4.4664    0.2734 H   0  0  0  0  0  0  0  0  0  0  0  0
    2.2702   -0.7564   -0.9354 H   0  0  0  0  0  0  0  0  0  0  0  0
    2.7204   -2.4710   -0.6789 H   0  0  0  0  0  0  0  0  0  0  0  0
    2.4469   -0.2485    1.4758 H   0  0  0  0  0  0  0  0  0  0  0  0
    1.9972   -2.3447    2.5739 H   0  0  0  0  0  0  0  0  0  0  0  0
    3.6038   -1.8329    3.0536 H   0  0  0  0  0  0  0  0  0  0  0  0
    3.4581   -3.1317    1.8057 H   0  0  0  0  0  0  0  0  0  0  0  0
    4.3086    0.4356    0.3223 H   0  0  0  0  0  0  0  0  0  0  0  0
    5.9707    1.2536    1.4554 H   0  0  0  0  0  0  0  0  0  0  0  0
    6.9105   -0.4985    3.8091 H   0  0  0  0  0  0  0  0  0  0  0  0
    7.8327   -0.0859    2.3151 H   0  0  0  0  0  0  0  0  0  0  0  0
    8.4710    1.2603    4.3109 H   0  0  0  0  0  0  0  0  0  0  0  0
    7.9222    2.2826    2.9363 H   0  0  0  0  0  0  0  0  0  0  0  0
    6.3157    1.4449    5.4402 H   0  0  0  0  0  0  0  0  0  0  0  0
    8.5311    4.4571    6.2173 H   0  0  0  0  0  0  0  0  0  0  0  0
    9.0000    3.5116    4.8018 H   0  0  0  0  0  0  0  0  0  0  0  0
    8.5210    2.6499    6.3330 H   0  0  0  0  0  0  0  0  0  0  0  0
    6.2892    4.8780    6.7020 H   0  0  0  0  0  0  0  0  0  0  0  0
    4.9709    3.8770    6.0776 H   0  0  0  0  0  0  0  0  0  0  0  0
    6.1846    3.1415    7.1964 H   0  0  0  0  0  0  0  0  0  0  0  0
    4.3548    2.5162    4.5131 H   0  0  0  0  0  0  0  0  0  0  0  0
    4.2249    3.4575    2.2040 H   0  0  0  0  0  0  0  0  0  0  0  0
    6.0259    3.4464    2.1117 H   0  0  0  0  0  0  0  0  0  0  0  0
    5.1945    4.4435    3.3554 H   0  0  0  0  0  0  0  0  0  0  0  0
    5.2566   -2.4897   -0.1608 H   0  0  0  0  0  0  0  0  0  0  0  0
    5.0975    0.0860   -1.8077 H   0  0  0  0  0  0  0  0  0  0  0  0
    5.8360   -1.2820   -3.7124 H   0  0  0  0  0  0  0  0  0  0  0  0
    5.1544   -3.6984   -1.9541 H   0  0  0  0  0  0  0  0  0  0  0  0
    6.3827   -3.5121   -4.7276 H   0  0  0  0  0  0  0  0  0  0  0  0
    5.6728   -4.9545   -3.9257 H   0  0  0  0  0  0  0  0  0  0  0  0
    4.0059   -2.6046   -4.9936 H   0  0  0  0  0  0  0  0  0  0  0  0
    5.1270   -3.7636   -6.8942 H   0  0  0  0  0  0  0  0  0  0  0  0
    3.3652   -4.1378   -6.8668 H   0  0  0  0  0  0  0  0  0  0  0  0
    4.5429   -5.3679   -6.2756 H   0  0  0  0  0  0  0  0  0  0  0  0
    0.2630   -2.8587   -5.2223 H   0  0  0  0  0  0  0  0  0  0  0  0
    1.9038   -2.2370   -5.4421 H   0  0  0  0  0  0  0  0  0  0  0  0
    2.0362   -1.9248   -2.8839 H   0  0  0  0  0  0  0  0  0  0  0  0
    0.1299   -0.4465   -4.4104 H   0  0  0  0  0  0  0  0  0  0  0  0
  1  2  1  0
  2  3  1  0
  3  4  1  0
  4  5  1  0
  5  6  1  0
  6  7  1  0
  7  8  1  0
  8  9  1  0
  8 10  1  0
 10 11  1  0
 11 12  1  0
 12 13  1  0
 13 14  1  0
 14 15  1  0
 14 16  1  0
 14 17  1  0
 17 18  1  0
 17 19  1  0
 19 20  1  0
 19 21  1  0
 10 22  1  0
 22 23  1  0
 23 24  1  0
 23 25  1  0
 22 26  1  0
 26 27  1  0
  4 28  1  0
 28 29  1  0
 29 30  1  0
 30 31  2  0
 28 32  1  0
 32 33  1  0
 33 34  1  0
 33 35  1  0
 35 36  1  0
 36 37  1  0
 37 38  1  0
 38 39  1  0
 39 40  1  0
 40 41  1  0
 41 42  1  0
 41 43  1  0
 40 44  1  0
 44 45  1  0
 44 46  1  0
 35 47  1  0
 47 48  2  0
 48 49  1  0
 49 50  2  0
 50 51  1  0
 51 52  1  0
 52 53  1  0
 52 54  1  0
 54 55  1  0
 55 56  2  0
 55 57  1  0
 57 58  1  0
 58 59  1  0
 58  3  1  0
 26  6  1  0
 46 37  1  0
 21 12  1  0
  1 60  1  0
  1 61  1  0
  1 62  1  0
  3 63  1  1
  4 64  1  6
  6 65  1  0
  8 66  1  0
  9 67  1  0
  9 68  1  0
  9 69  1  0
 10 70  1  0
 12 71  1  0
 13 72  1  0
 13 73  1  0
 15 74  1  0
 15 75  1  0
 15 76  1  0
 16 77  1  0
 17 78  1  0
 18 79  1  0
 19 80  1  0
 20 81  1  0
 20 82  1  0
 20 83  1  0
 22 84  1  0
 24 85  1  0
 24 86  1  0
 24 87  1  0
 25 88  1  0
 25 89  1  0
 25 90  1  0
 26 91  1  0
 27 92  1  0
 28 93  1  1
 29 94  1  0
 29 95  1  0
 30 96  1  0
 32 97  1  0
 32 98  1  0
 33 99  1  1
 34100  1  0
 34101  1  0
 34102  1  0
 35103  1  6
 37104  1  0
 38105  1  0
 38106  1  0
 39107  1  0
 39108  1  0
 40109  1  0
 42110  1  0
 42111  1  0
 42112  1  0
 43113  1  0
 43114  1  0
 43115  1  0
 44116  1  0
 45117  1  0
 45118  1  0
 45119  1  0
 47120  1  0
 48121  1  0
 49122  1  0
 50123  1  0
 51124  1  0
 51125  1  0
 52126  1  6
 53127  1  0
 53128  1  0
 53129  1  0
 57130  1  0
 57131  1  0
 58132  1  1
 59133  1  0
M  END
$$$$
