
     RDKit          3D

 70 72  0  0  0  0  0  0  0  0999 V2000
   -1.5348   -0.2159    3.1768 C   0  0  0  0  0  0  0  0  0  0  0  0
   -2.8180    0.3887    2.5952 C   0  0  1  0  0  0  0  0  0  0  0  0
   -2.8777    1.9037    2.8601 C   0  0  0  0  0  0  0  0  0  0  0  0
   -4.0819    2.4405    2.3856 O   0  0  0  0  0  0  0  0  0  0  0  0
   -2.9605    0.0845    1.1554 N   0  0  0  0  0  0  0  0  0  0  0  0
   -1.9022    0.4271    0.1834 C   0  0  0  0  0  0  0  0  0  0  0  0
   -0.9400   -0.7540   -0.1237 C   0  0  1  0  0  0  0  0  0  0  0  0
   -1.6808   -2.0911   -0.2979 C   0  0  0  0  0  0  0  0  0  0  0  0
    0.0173   -0.3763   -1.3026 C   0  0  1  0  0  0  0  0  0  0  0  0
    1.2373   -1.3200   -1.4993 C   0  0  0  0  0  0  0  0  0  0  0  0
    2.1541   -1.2458   -0.3485 N   0  0  0  0  0  0  0  0  0  0  0  0
    2.1681   -2.3288    0.6417 C   0  0  0  0  0  0  0  0  0  0  0  0
    3.1026   -0.1608   -0.2438 C   0  0  0  0  0  0  0  0  0  0  0  0
    3.1938    0.6829   -1.1758 O   0  0  0  0  0  0  0  0  0  0  0  0
    3.9322   -0.0184    0.9223 N   0  0  0  0  0  0  0  0  0  0  0  0
    5.2058    0.6527    0.9225 C   0  0  0  0  0  0  0  0  0  0  0  0
    5.6796    1.2319    2.1088 C   0  0  0  0  0  0  0  0  0  0  0  0
    6.9268    1.8640    2.1435 C   0  0  0  0  0  0  0  0  0  0  0  0
    7.7394    1.9009    0.9986 C   0  0  0  0  0  0  0  0  0  0  0  0
    9.0656    2.6191    1.0390 C   0  0  0  0  0  0  0  0  0  0  0  0
    9.9050    2.1765    0.0317 F   0  0  0  0  0  0  0  0  0  0  0  0
    8.8516    3.9762    0.8828 F   0  0  0  0  0  0  0  0  0  0  0  0
    9.6946    2.3975    2.2505 F   0  0  0  0  0  0  0  0  0  0  0  0
    7.2624    1.3255   -0.1926 C   0  0  0  0  0  0  0  0  0  0  0  0
    6.0145    0.6942   -0.2273 C   0  0  0  0  0  0  0  0  0  0  0  0
   -0.6594   -0.0193   -2.5077 O   0  0  0  0  0  0  0  0  0  0  0  0
   -1.0803   -1.1064   -3.3171 C   0  0  0  0  0  0  0  0  0  0  0  0
   -2.5726   -1.1223   -3.4286 C   0  0  0  0  0  0  0  0  0  0  0  0
   -3.4409   -0.0902   -3.1405 C   0  0  0  0  0  0  0  0  0  0  0  0
   -4.6697   -0.6325   -3.1247 N   0  0  0  0  0  0  0  0  0  0  0  0
   -4.5655   -1.9200   -3.4152 N   0  0  0  0  0  0  0  0  0  0  0  0
   -3.2960   -2.2455   -3.6139 N   0  0  0  0  0  0  0  0  0  0  0  0
   -5.8833   -0.0089   -2.6083 C   0  0  0  0  0  0  0  0  0  0  0  0
   -6.0645   -0.3401   -1.1168 C   0  0  0  0  0  0  0  0  0  0  0  0
   -5.1240    0.4690   -0.1860 C   0  0  0  0  0  0  0  0  0  0  0  0
   -4.2420   -0.3922    0.6928 C   0  0  0  0  0  0  0  0  0  0  0  0
   -4.7041   -1.4609    1.1769 O   0  0  0  0  0  0  0  0  0  0  0  0
   -0.6343    0.2955    2.7757 H   0  0  0  0  0  0  0  0  0  0  0  0
   -1.5307   -0.1032    4.2820 H   0  0  0  0  0  0  0  0  0  0  0  0
   -1.4845   -1.2994    2.9382 H   0  0  0  0  0  0  0  0  0  0  0  0
   -3.6624   -0.0743    3.1560 H   0  0  0  0  0  0  0  0  0  0  0  0
   -2.0049    2.4297    2.4116 H   0  0  0  0  0  0  0  0  0  0  0  0
   -2.8310    2.0815    3.9562 H   0  0  0  0  0  0  0  0  0  0  0  0
   -3.9279    2.6971    1.4397 H   0  0  0  0  0  0  0  0  0  0  0  0
   -1.2974    1.2760    0.5671 H   0  0  0  0  0  0  0  0  0  0  0  0
   -2.3516    0.7943   -0.7531 H   0  0  0  0  0  0  0  0  0  0  0  0
   -0.2959   -0.8812    0.7694 H   0  0  0  0  0  0  0  0  0  0  0  0
   -2.5449   -1.9915   -0.9772 H   0  0  0  0  0  0  0  0  0  0  0  0
   -2.0699   -2.4299    0.6842 H   0  0  0  0  0  0  0  0  0  0  0  0
   -1.0079   -2.8912   -0.6625 H   0  0  0  0  0  0  0  0  0  0  0  0
    0.4811    0.5803   -0.9748 H   0  0  0  0  0  0  0  0  0  0  0  0
    0.9271   -2.3702   -1.6592 H   0  0  0  0  0  0  0  0  0  0  0  0
    1.7810   -1.0293   -2.4244 H   0  0  0  0  0  0  0  0  0  0  0  0
    1.4522   -3.1354    0.3776 H   0  0  0  0  0  0  0  0  0  0  0  0
    1.8750   -1.9334    1.6367 H   0  0  0  0  0  0  0  0  0  0  0  0
    3.1839   -2.7739    0.7011 H   0  0  0  0  0  0  0  0  0  0  0  0
    3.5664   -0.3636    1.8378 H   0  0  0  0  0  0  0  0  0  0  0  0
    5.0735    1.2082    3.0065 H   0  0  0  0  0  0  0  0  0  0  0  0
    7.2574    2.3264    3.0661 H   0  0  0  0  0  0  0  0  0  0  0  0
    7.8563    1.3596   -1.0966 H   0  0  0  0  0  0  0  0  0  0  0  0
    5.6940    0.2247   -1.1482 H   0  0  0  0  0  0  0  0  0  0  0  0
   -0.6566   -0.9744   -4.3329 H   0  0  0  0  0  0  0  0  0  0  0  0
   -0.7645   -2.1027   -2.9578 H   0  0  0  0  0  0  0  0  0  0  0  0
   -3.1995    0.9321   -2.8825 H   0  0  0  0  0  0  0  0  0  0  0  0
   -6.7550   -0.4038   -3.1731 H   0  0  0  0  0  0  0  0  0  0  0  0
   -5.8520    1.0911   -2.7671 H   0  0  0  0  0  0  0  0  0  0  0  0
   -7.1156   -0.1044   -0.8407 H   0  0  0  0  0  0  0  0  0  0  0  0
   -5.9478   -1.4372   -0.9787 H   0  0  0  0  0  0  0  0  0  0  0  0
   -5.7505    1.0888    0.4907 H   0  0  0  0  0  0  0  0  0  0  0  0
   -4.5157    1.1900   -0.7649 H   0  0  0  0  0  0  0  0  0  0  0  0
  1  2  1  0
  2  3  1  0
  3  4  1  0
  2  5  1  0
  5  6  1  0
  6  7  1  0
  7  8  1  0
  7  9  1  0
  9 10  1  0
 10 11  1  0
 11 12  1  0
 11 13  1  0
 13 14  2  0
 13 15  1  0
 15 16  1  0
 16 17  2  0
 17 18  1  0
 18 19  2  0
 19 20  1  0
 20 21  1  0
 20 22  1  0
 20 23  1  0
 19 24  1  0
 24 25  2  0
  9 26  1  0
 26 27  1  0
 27 28  1  0
 28 29  2  0
 29 30  1  0
 30 31  1  0
 31 32  2  0
 30 33  1  0
 33 34  1  0
 34 35  1  0
 35 36  1  0
 36 37  2  0
 36  5  1  0
 25 16  1  0
 32 28  1  0
  1 38  1  0
  1 39  1  0
  1 40  1  0
  2 41  1  1
  3 42  1  0
  3 43  1  0
  4 44  1  0
  6 45  1  0
  6 46  1  0
  7 47  1  1
  8 48  1  0
  8 49  1  0
  8 50  1  0
  9 51  1  1
 10 52  1  0
 10 53  1  0
 12 54  1  0
 12 55  1  0
 12 56  1  0
 15 57  1  0
 17 58  1  0
 18 59  1  0
 24 60  1  0
 25 61  1  0
 27 62  1  0
 27 63  1  0
 29 64  1  0
 33 65  1  0
 33 66  1  0
 34 67  1  0
 34 68  1  0
 35 69  1  0
 35 70  1  0
M  END
$$$$
