
     RDKit          3D

127129  0  0  0  0  0  0  0  0999 V2000
   -1.4370    2.0764    2.5873 C   0  0  0  0  0  0  0  0  0  0  0  0
   -1.5911    1.6518    1.2508 O   0  0  0  0  0  0  0  0  0  0  0  0
   -2.7014    0.7682    1.1155 C   0  0  2  0  0  0  0  0  0  0  0  0
   -2.2067   -0.5519    0.4126 C   0  0  1  0  0  0  0  0  0  0  0  0
   -0.8138   -0.4577    0.1122 O   0  0  0  0  0  0  0  0  0  0  0  0
   -0.4875   -0.9168   -1.1985 C   0  0  2  0  0  0  0  0  0  0  0  0
    0.6496   -1.7646   -1.1668 O   0  0  0  0  0  0  0  0  0  0  0  0
    1.8300   -1.1433   -0.6738 C   0  0  2  0  0  0  0  0  0  0  0  0
    1.9173   -1.2902    0.8546 C   0  0  0  0  0  0  0  0  0  0  0  0
    2.0556    0.3184   -1.1767 C   0  0  1  0  0  0  0  0  0  0  0  0
    3.4197    0.4882   -1.5302 O   0  0  0  0  0  0  0  0  0  0  0  0
    4.2308    0.8818   -0.4361 C   0  0  1  0  0  0  0  0  0  0  0  0
    5.3879   -0.1171   -0.3372 C   0  0  0  0  0  0  0  0  0  0  0  0
    6.3609    0.2249    0.8123 C   0  0  1  0  0  0  0  0  0  0  0  0
    5.7685   -0.1595    2.1885 C   0  0  0  0  0  0  0  0  0  0  0  0
    7.5861   -0.4987    0.6161 O   0  0  0  0  0  0  0  0  0  0  0  0
    7.7181   -1.8848    0.4382 C   0  0  0  0  0  0  0  0  0  0  0  0
    6.8132   -2.6760    0.8286 O   0  0  0  0  0  0  0  0  0  0  0  0
    8.9709   -2.4497   -0.1715 C   0  0  0  0  0  0  0  0  0  0  0  0
    9.6434   -1.4812   -1.1765 C   0  0  0  0  0  0  0  0  0  0  0  0
   10.5356   -0.4582   -0.4593 C   0  0  0  0  0  0  0  0  0  0  0  0
   10.4815   -2.2650   -2.1938 C   0  0  0  0  0  0  0  0  0  0  0  0
    6.7098    1.7499    0.7666 C   0  0  1  0  0  0  0  0  0  0  0  0
    7.8020    1.9706   -0.0959 O   0  0  0  0  0  0  0  0  0  0  0  0
    5.5287    2.6877    0.3498 C   0  0  2  0  0  0  0  0  0  0  0  0
    4.6742    3.2228    1.5111 C   0  0  0  0  0  0  0  0  0  0  0  0
    4.7350    2.1752   -0.7115 O   0  0  0  0  0  0  0  0  0  0  0  0
    1.1958    0.5663   -2.4436 C   0  0  2  0  0  0  0  0  0  0  0  0
    1.3428    1.9224   -3.0492 N   0  0  0  0  0  0  0  0  0  0  0  0
    1.3964    3.0383   -2.0871 C   0  0  0  0  0  0  0  0  0  0  0  0
    2.4598    2.0122   -4.0036 C   0  0  0  0  0  0  0  0  0  0  0  0
   -0.2953    0.2880   -2.1527 C   0  0  1  0  0  0  0  0  0  0  0  0
   -0.9700    0.0402   -3.3625 O   0  0  0  0  0  0  0  0  0  0  0  0
   -2.4425   -1.8478    1.2499 C   0  0  1  0  0  0  0  0  0  0  0  0
   -1.6879   -1.8363    2.6085 C   0  0  0  0  0  0  0  0  0  0  0  0
   -1.4286   -3.2206    3.1306 C   0  0  0  0  0  0  0  0  0  0  0  0
   -0.6578   -3.9633    2.5460 O   0  0  0  0  0  0  0  0  0  0  0  0
   -3.9592   -2.2486    1.2435 C   0  0  0  0  0  0  0  0  0  0  0  0
   -4.7265   -2.6030    2.5567 C   0  0  1  0  0  0  0  0  0  0  0  0
   -5.0905   -1.3500    3.3776 C   0  0  0  0  0  0  0  0  0  0  0  0
   -5.9996   -3.4350    2.1883 C   0  0  1  0  0  0  0  0  0  0  0  0
   -6.7614   -3.7764    3.3228 O   0  0  0  0  0  0  0  0  0  0  0  0
   -6.8249   -2.8149    1.0686 C   0  0  0  0  0  0  0  0  0  0  0  0
   -7.5105   -1.6684    1.1929 C   0  0  0  0  0  0  0  0  0  0  0  0
   -8.0171   -0.9143    0.0297 C   0  0  0  0  0  0  0  0  0  0  0  0
   -7.3329   -0.8264   -1.1172 C   0  0  0  0  0  0  0  0  0  0  0  0
   -7.8207   -0.0200   -2.2881 C   0  0  0  0  0  0  0  0  0  0  0  0
   -6.6954    0.8590   -2.8613 C   0  0  1  0  0  0  0  0  0  0  0  0
   -7.1160    1.4660   -4.1996 C   0  0  0  0  0  0  0  0  0  0  0  0
   -6.3985    1.9225   -1.9508 O   0  0  0  0  0  0  0  0  0  0  0  0
   -5.0998    2.3281   -1.6188 C   0  0  0  0  0  0  0  0  0  0  0  0
   -4.8160    3.5551   -1.6664 O   0  0  0  0  0  0  0  0  0  0  0  0
   -4.0823    1.3528   -1.0880 C   0  0  0  0  0  0  0  0  0  0  0  0
   -3.8778    1.5615    0.4244 C   0  0  1  0  0  0  0  0  0  0  0  0
   -5.1244    1.3037    1.0821 O   0  0  0  0  0  0  0  0  0  0  0  0
   -5.6609    2.1274    2.0804 C   0  0  0  0  0  0  0  0  0  0  0  0
   -7.0603    1.9086    2.5399 C   0  0  0  0  0  0  0  0  0  0  0  0
   -4.9722    3.0490    2.6005 O   0  0  0  0  0  0  0  0  0  0  0  0
   -2.3627    2.5682    2.9688 H   0  0  0  0  0  0  0  0  0  0  0  0
   -1.1573    1.2216    3.2445 H   0  0  0  0  0  0  0  0  0  0  0  0
   -0.6175    2.8213    2.6319 H   0  0  0  0  0  0  0  0  0  0  0  0
   -3.1109    0.4663    2.1086 H   0  0  0  0  0  0  0  0  0  0  0  0
   -2.7936   -0.6945   -0.5072 H   0  0  0  0  0  0  0  0  0  0  0  0
   -1.2874   -1.5688   -1.6252 H   0  0  0  0  0  0  0  0  0  0  0  0
    2.6640   -1.7592   -1.0833 H   0  0  0  0  0  0  0  0  0  0  0  0
    1.3153   -0.5199    1.3676 H   0  0  0  0  0  0  0  0  0  0  0  0
    2.9652   -1.1943    1.1965 H   0  0  0  0  0  0  0  0  0  0  0  0
    1.5620   -2.2944    1.1591 H   0  0  0  0  0  0  0  0  0  0  0  0
    1.7263    1.0446   -0.3955 H   0  0  0  0  0  0  0  0  0  0  0  0
    3.6736    0.8771    0.5227 H   0  0  0  0  0  0  0  0  0  0  0  0
    5.9411   -0.1157   -1.3032 H   0  0  0  0  0  0  0  0  0  0  0  0
    4.9800   -1.1419   -0.2114 H   0  0  0  0  0  0  0  0  0  0  0  0
    4.9048    0.4683    2.4656 H   0  0  0  0  0  0  0  0  0  0  0  0
    6.5417   -0.0474    2.9762 H   0  0  0  0  0  0  0  0  0  0  0  0
    5.4152   -1.2104    2.2027 H   0  0  0  0  0  0  0  0  0  0  0  0
    9.6780   -2.7310    0.6421 H   0  0  0  0  0  0  0  0  0  0  0  0
    8.6806   -3.3912   -0.6961 H   0  0  0  0  0  0  0  0  0  0  0  0
    8.8575   -0.9349   -1.7435 H   0  0  0  0  0  0  0  0  0  0  0  0
    9.9596    0.1314    0.2819 H   0  0  0  0  0  0  0  0  0  0  0  0
   10.9654    0.2513   -1.1935 H   0  0  0  0  0  0  0  0  0  0  0  0
   11.3710   -0.9702    0.0728 H   0  0  0  0  0  0  0  0  0  0  0  0
    9.8335   -2.9607   -2.7721 H   0  0  0  0  0  0  0  0  0  0  0  0
   11.2731   -2.8540   -1.6846 H   0  0  0  0  0  0  0  0  0  0  0  0
   10.9602   -1.5709   -2.9149 H   0  0  0  0  0  0  0  0  0  0  0  0
    7.0535    2.0612    1.7766 H   0  0  0  0  0  0  0  0  0  0  0  0
    7.5041    1.7770   -1.0197 H   0  0  0  0  0  0  0  0  0  0  0  0
    6.0095    3.6063   -0.0582 H   0  0  0  0  0  0  0  0  0  0  0  0
    3.9489    3.9712    1.1240 H   0  0  0  0  0  0  0  0  0  0  0  0
    5.3252    3.7233    2.2612 H   0  0  0  0  0  0  0  0  0  0  0  0
    4.0992    2.4359    2.0330 H   0  0  0  0  0  0  0  0  0  0  0  0
    1.5081   -0.2048   -3.1908 H   0  0  0  0  0  0  0  0  0  0  0  0
    2.3729    3.0746   -1.5593 H   0  0  0  0  0  0  0  0  0  0  0  0
    1.2582    4.0013   -2.6268 H   0  0  0  0  0  0  0  0  0  0  0  0
    0.5827    2.9643   -1.3384 H   0  0  0  0  0  0  0  0  0  0  0  0
    2.3766    2.9566   -4.5875 H   0  0  0  0  0  0  0  0  0  0  0  0
    2.4264    1.1751   -4.7382 H   0  0  0  0  0  0  0  0  0  0  0  0
    3.4442    2.0098   -3.4895 H   0  0  0  0  0  0  0  0  0  0  0  0
   -0.7530    1.1745   -1.6659 H   0  0  0  0  0  0  0  0  0  0  0  0
   -1.0900    0.9179   -3.8115 H   0  0  0  0  0  0  0  0  0  0  0  0
   -1.9290   -2.6391    0.6540 H   0  0  0  0  0  0  0  0  0  0  0  0
   -0.7024   -1.3450    2.4845 H   0  0  0  0  0  0  0  0  0  0  0  0
   -2.2078   -1.2434    3.3769 H   0  0  0  0  0  0  0  0  0  0  0  0
   -1.8792   -3.5421    4.0651 H   0  0  0  0  0  0  0  0  0  0  0  0
   -4.0212   -3.1412    0.5760 H   0  0  0  0  0  0  0  0  0  0  0  0
   -4.5500   -1.4723    0.7053 H   0  0  0  0  0  0  0  0  0  0  0  0
   -4.0953   -3.2563    3.1911 H   0  0  0  0  0  0  0  0  0  0  0  0
   -5.5302   -0.5725    2.7286 H   0  0  0  0  0  0  0  0  0  0  0  0
   -5.8104   -1.5925    4.1856 H   0  0  0  0  0  0  0  0  0  0  0  0
   -4.2162   -0.9107    3.8861 H   0  0  0  0  0  0  0  0  0  0  0  0
   -5.6204   -4.3999    1.7829 H   0  0  0  0  0  0  0  0  0  0  0  0
   -7.4496   -3.0834    3.4773 H   0  0  0  0  0  0  0  0  0  0  0  0
   -6.7351   -3.2727    0.0921 H   0  0  0  0  0  0  0  0  0  0  0  0
   -7.6879   -1.2422    2.1698 H   0  0  0  0  0  0  0  0  0  0  0  0
   -8.9134   -0.3256    0.1666 H   0  0  0  0  0  0  0  0  0  0  0  0
   -6.4126   -1.3880   -1.2483 H   0  0  0  0  0  0  0  0  0  0  0  0
   -8.1667   -0.7333   -3.0636 H   0  0  0  0  0  0  0  0  0  0  0  0
   -8.6833    0.6227   -2.0008 H   0  0  0  0  0  0  0  0  0  0  0  0
   -5.8001    0.2294   -3.0527 H   0  0  0  0  0  0  0  0  0  0  0  0
   -7.3197    0.6634   -4.9389 H   0  0  0  0  0  0  0  0  0  0  0  0
   -8.0296    2.0850   -4.0736 H   0  0  0  0  0  0  0  0  0  0  0  0
   -6.3035    2.1127   -4.5919 H   0  0  0  0  0  0  0  0  0  0  0  0
   -3.1258    1.4929   -1.6321 H   0  0  0  0  0  0  0  0  0  0  0  0
   -4.4621    0.3295   -1.2737 H   0  0  0  0  0  0  0  0  0  0  0  0
   -3.6381    2.6441    0.5380 H   0  0  0  0  0  0  0  0  0  0  0  0
   -7.6965    1.6057    1.6800 H   0  0  0  0  0  0  0  0  0  0  0  0
   -7.0883    1.1178    3.3179 H   0  0  0  0  0  0  0  0  0  0  0  0
   -7.4778    2.8445    2.9732 H   0  0  0  0  0  0  0  0  0  0  0  0
  1  2  1  0
  2  3  1  0
  3  4  1  0
  4  5  1  0
  5  6  1  0
  6  7  1  0
  7  8  1  0
  8  9  1  0
  8 10  1  0
 10 11  1  0
 11 12  1  0
 12 13  1  0
 13 14  1  0
 14 15  1  0
 14 16  1  6
 16 17  1  0
 17 18  2  0
 17 19  1  0
 19 20  1  0
 20 21  1  0
 20 22  1  0
 14 23  1  0
 23 24  1  0
 23 25  1  0
 25 26  1  0
 25 27  1  0
 10 28  1  0
 28 29  1  0
 29 30  1  0
 29 31  1  0
 28 32  1  0
 32 33  1  0
  4 34  1  0
 34 35  1  0
 35 36  1  0
 36 37  2  0
 34 38  1  0
 38 39  1  0
 39 40  1  0
 39 41  1  0
 41 42  1  0
 41 43  1  0
 43 44  2  0
 44 45  1  0
 45 46  2  0
 46 47  1  0
 47 48  1  0
 48 49  1  0
 48 50  1  0
 50 51  1  0
 51 52  2  0
 51 53  1  0
 53 54  1  0
 54 55  1  0
 55 56  1  0
 56 57  1  0
 56 58  2  0
 54  3  1  0
 32  6  1  0
 27 12  1  0
  1 59  1  0
  1 60  1  0
  1 61  1  0
  3 62  1  1
  4 63  1  6
  6 64  1  6
  8 65  1  6
  9 66  1  0
  9 67  1  0
  9 68  1  0
 10 69  1  1
 12 70  1  1
 13 71  1  0
 13 72  1  0
 15 73  1  0
 15 74  1  0
 15 75  1  0
 19 76  1  0
 19 77  1  0
 20 78  1  0
 21 79  1  0
 21 80  1  0
 21 81  1  0
 22 82  1  0
 22 83  1  0
 22 84  1  0
 23 85  1  1
 24 86  1  0
 25 87  1  6
 26 88  1  0
 26 89  1  0
 26 90  1  0
 28 91  1  6
 30 92  1  0
 30 93  1  0
 30 94  1  0
 31 95  1  0
 31 96  1  0
 31 97  1  0
 32 98  1  1
 33 99  1  0
 34100  1  6
 35101  1  0
 35102  1  0
 36103  1  0
 38104  1  0
 38105  1  0
 39106  1  1
 40107  1  0
 40108  1  0
 40109  1  0
 41110  1  6
 42111  1  0
 43112  1  0
 44113  1  0
 45114  1  0
 46115  1  0
 47116  1  0
 47117  1  0
 48118  1  6
 49119  1  0
 49120  1  0
 49121  1  0
 53122  1  0
 53123  1  0
 54124  1  6
 57125  1  0
 57126  1  0
 57127  1  0
M  END
$$$$
