
     RDKit          3D

 63 65  0  0  0  0  0  0  0  0999 V2000
   -4.6656    0.4670    2.9713 C   0  0  0  0  0  0  0  0  0  0  0  0
   -3.8226   -0.1377    2.0142 O   0  0  0  0  0  0  0  0  0  0  0  0
   -3.5967    0.7299    0.9122 C   0  0  1  0  0  0  0  0  0  0  0  0
   -2.2047    1.3867    1.0792 C   0  0  0  0  0  0  0  0  0  0  0  0
   -1.8381    2.2536   -0.0590 N   0  0  0  0  0  0  0  0  0  0  0  0
   -2.4184    3.5974   -0.1231 C   0  0  0  0  0  0  0  0  0  0  0  0
   -0.8220    1.8836   -1.0231 C   0  0  0  0  0  0  0  0  0  0  0  0
   -0.8430    2.4017   -2.1742 O   0  0  0  0  0  0  0  0  0  0  0  0
    0.2856    0.9537   -0.6949 C   0  0  0  0  0  0  0  0  0  0  0  0
    0.9731    1.1286    0.5199 C   0  0  0  0  0  0  0  0  0  0  0  0
    2.0705    0.3245    0.8595 C   0  0  0  0  0  0  0  0  0  0  0  0
    2.7187    0.5233    2.1294 N   0  0  0  0  0  0  0  0  0  0  0  0
    4.0492   -0.4314    2.7055 S   0  0  0  0  0  6  0  0  0  0  0  0
    3.6312   -1.8755    2.7378 O   0  0  0  0  0  0  0  0  0  0  0  0
    4.4026    0.0072    4.0989 O   0  0  0  0  0  0  0  0  0  0  0  0
    5.4582   -0.2159    1.6668 C   0  0  0  0  0  0  0  0  0  0  0  0
    5.5894    0.9517    0.8999 C   0  0  0  0  0  0  0  0  0  0  0  0
    6.6976    1.1263    0.0663 C   0  0  0  0  0  0  0  0  0  0  0  0
    7.6844    0.1398   -0.0015 C   0  0  0  0  0  0  0  0  0  0  0  0
    7.5669   -1.0200    0.7672 C   0  0  0  0  0  0  0  0  0  0  0  0
    6.4596   -1.2000    1.6041 C   0  0  0  0  0  0  0  0  0  0  0  0
    6.3656   -2.3325    2.3433 F   0  0  0  0  0  0  0  0  0  0  0  0
    2.5121   -0.6427   -0.0575 C   0  0  0  0  0  0  0  0  0  0  0  0
    1.8700   -0.7953   -1.2855 C   0  0  0  0  0  0  0  0  0  0  0  0
    0.7543   -0.0202   -1.6150 C   0  0  0  0  0  0  0  0  0  0  0  0
    0.1648   -0.2453   -2.8698 O   0  0  0  0  0  0  0  0  0  0  0  0
   -1.2051   -0.5979   -3.0720 C   0  0  0  0  0  0  0  0  0  0  0  0
   -1.5353   -1.9822   -2.4602 C   0  0  2  0  0  0  0  0  0  0  0  0
   -1.5174   -3.0618   -3.5526 C   0  0  0  0  0  0  0  0  0  0  0  0
   -2.8564   -1.9415   -1.7987 N   0  0  0  0  0  0  0  0  0  0  0  0
   -2.8012   -1.3043   -0.4663 C   0  0  0  0  0  0  0  0  0  0  0  0
   -3.7460   -0.0794   -0.4066 C   0  0  1  0  0  0  0  0  0  0  0  0
   -5.2073   -0.5240   -0.5898 C   0  0  0  0  0  0  0  0  0  0  0  0
   -5.6800    0.6442    2.5483 H   0  0  0  0  0  0  0  0  0  0  0  0
   -4.2286    1.4172    3.3488 H   0  0  0  0  0  0  0  0  0  0  0  0
   -4.7737   -0.2214    3.8344 H   0  0  0  0  0  0  0  0  0  0  0  0
   -4.3457    1.5568    0.8562 H   0  0  0  0  0  0  0  0  0  0  0  0
   -2.2132    2.0006    2.0054 H   0  0  0  0  0  0  0  0  0  0  0  0
   -1.4516    0.6010    1.2645 H   0  0  0  0  0  0  0  0  0  0  0  0
   -2.4495    3.9774   -1.1667 H   0  0  0  0  0  0  0  0  0  0  0  0
   -3.4617    3.5963    0.2588 H   0  0  0  0  0  0  0  0  0  0  0  0
   -1.8113    4.2925    0.4943 H   0  0  0  0  0  0  0  0  0  0  0  0
    0.6572    1.9060    1.2068 H   0  0  0  0  0  0  0  0  0  0  0  0
    2.3696    1.2750    2.7639 H   0  0  0  0  0  0  0  0  0  0  0  0
    4.8349    1.7258    0.9444 H   0  0  0  0  0  0  0  0  0  0  0  0
    6.7929    2.0271   -0.5240 H   0  0  0  0  0  0  0  0  0  0  0  0
    8.5421    0.2765   -0.6474 H   0  0  0  0  0  0  0  0  0  0  0  0
    8.3362   -1.7799    0.7138 H   0  0  0  0  0  0  0  0  0  0  0  0
    3.3570   -1.2792    0.1576 H   0  0  0  0  0  0  0  0  0  0  0  0
    2.2304   -1.5398   -1.9845 H   0  0  0  0  0  0  0  0  0  0  0  0
   -1.4073   -0.5932   -4.1653 H   0  0  0  0  0  0  0  0  0  0  0  0
   -1.8636    0.1827   -2.6654 H   0  0  0  0  0  0  0  0  0  0  0  0
   -0.7522   -2.2772   -1.7248 H   0  0  0  0  0  0  0  0  0  0  0  0
   -1.6645   -4.0660   -3.1012 H   0  0  0  0  0  0  0  0  0  0  0  0
   -2.3270   -2.8829   -4.2917 H   0  0  0  0  0  0  0  0  0  0  0  0
   -0.5376   -3.0586   -4.0757 H   0  0  0  0  0  0  0  0  0  0  0  0
   -3.2059   -2.9210   -1.6661 H   0  0  0  0  0  0  0  0  0  0  0  0
   -3.1009   -2.0374    0.3174 H   0  0  0  0  0  0  0  0  0  0  0  0
   -1.7688   -0.9927   -0.2088 H   0  0  0  0  0  0  0  0  0  0  0  0
   -3.5148    0.6012   -1.2510 H   0  0  0  0  0  0  0  0  0  0  0  0
   -5.5061   -1.2376    0.2065 H   0  0  0  0  0  0  0  0  0  0  0  0
   -5.8860    0.3534   -0.5556 H   0  0  0  0  0  0  0  0  0  0  0  0
   -5.3441   -1.0142   -1.5763 H   0  0  0  0  0  0  0  0  0  0  0  0
  1  2  1  0
  2  3  1  0
  3  4  1  0
  4  5  1  0
  5  6  1  0
  5  7  1  0
  7  8  2  0
  7  9  1  0
  9 10  2  0
 10 11  1  0
 11 12  1  0
 12 13  1  0
 13 14  2  0
 13 15  2  0
 13 16  1  0
 16 17  2  0
 17 18  1  0
 18 19  2  0
 19 20  1  0
 20 21  2  0
 21 22  1  0
 11 23  2  0
 23 24  1  0
 24 25  2  0
 25 26  1  0
 26 27  1  0
 27 28  1  0
 28 29  1  0
 28 30  1  0
 30 31  1  0
 31 32  1  0
 32 33  1  0
 32  3  1  0
 25  9  1  0
 21 16  1  0
  1 34  1  0
  1 35  1  0
  1 36  1  0
  3 37  1  6
  4 38  1  0
  4 39  1  0
  6 40  1  0
  6 41  1  0
  6 42  1  0
 10 43  1  0
 12 44  1  0
 17 45  1  0
 18 46  1  0
 19 47  1  0
 20 48  1  0
 23 49  1  0
 24 50  1  0
 27 51  1  0
 27 52  1  0
 28 53  1  1
 29 54  1  0
 29 55  1  0
 29 56  1  0
 30 57  1  0
 31 58  1  0
 31 59  1  0
 32 60  1  6
 33 61  1  0
 33 62  1  0
 33 63  1  0
M  END
$$$$
