
     RDKit          3D

 84 86  0  0  0  0  0  0  0  0999 V2000
   -4.9274   -2.2434    1.2509 C   0  0  0  0  0  0  0  0  0  0  0  0
   -4.9002   -2.8076   -0.1780 C   0  0  0  0  0  0  0  0  0  0  0  0
   -6.3361   -2.9910   -0.6883 C   0  0  0  0  0  0  0  0  0  0  0  0
   -4.1104   -1.8944   -1.1465 C   0  0  0  0  0  0  0  0  0  0  0  0
   -2.5949   -1.8528   -0.8625 C   0  0  1  0  0  0  0  0  0  0  0  0
   -2.0112   -3.1997   -1.0184 N   0  0  0  0  0  0  0  0  0  0  0  0
   -0.7525   -3.3157   -0.2671 C   0  0  0  0  0  0  0  0  0  0  0  0
    0.0756   -4.5129   -0.7508 C   0  0  0  0  0  0  0  0  0  0  0  0
    1.3294   -4.7650    0.1077 C   0  0  0  0  0  0  0  0  0  0  0  0
    2.2731   -3.5487    0.1903 C   0  0  0  0  0  0  0  0  0  0  0  0
    1.8679   -2.6275    1.2567 N   0  0  0  0  0  0  0  0  0  0  0  0
    2.4584   -1.3360    1.4749 C   0  0  0  0  0  0  0  0  0  0  0  0
    2.0698   -0.6621    2.4655 O   0  0  0  0  0  0  0  0  0  0  0  0
    3.5122   -0.7597    0.5543 C   0  0  2  0  0  0  0  0  0  0  0  0
    4.6540   -0.0855    1.3507 C   0  0  0  0  0  0  0  0  0  0  0  0
    5.7858    0.3764    0.4624 C   0  0  0  0  0  0  0  0  0  0  0  0
    6.5622   -0.5580   -0.2455 C   0  0  0  0  0  0  0  0  0  0  0  0
    7.6126   -0.1300   -1.0631 C   0  0  0  0  0  0  0  0  0  0  0  0
    7.9033    1.2313   -1.1739 C   0  0  0  0  0  0  0  0  0  0  0  0
    7.1498    2.1661   -0.4603 C   0  0  0  0  0  0  0  0  0  0  0  0
    6.0983    1.7427    0.3586 C   0  0  0  0  0  0  0  0  0  0  0  0
    2.9043    0.1448   -0.4338 N   0  0  0  0  0  0  0  0  0  0  0  0
    2.5559    1.5136   -0.1768 C   0  0  0  0  0  0  0  0  0  0  0  0
    3.2772    2.4284   -0.6593 O   0  0  0  0  0  0  0  0  0  0  0  0
    1.2890    1.8797    0.5531 C   0  0  1  0  0  0  0  0  0  0  0  0
    1.6119    2.5004    1.9174 C   0  0  0  0  0  0  0  0  0  0  0  0
    0.5302    2.8505   -0.2450 N   0  0  0  0  0  0  0  0  0  0  0  0
   -0.3842    2.4896   -1.2913 C   0  0  0  0  0  0  0  0  0  0  0  0
   -0.2692    3.0492   -2.4130 O   0  0  0  0  0  0  0  0  0  0  0  0
   -1.5148    1.5053   -1.0914 C   0  0  2  0  0  0  0  0  0  0  0  0
   -2.2323    1.6741    0.2626 C   0  0  0  0  0  0  0  0  0  0  0  0
   -2.9193    3.0129    0.3624 C   0  0  0  0  0  0  0  0  0  0  0  0
   -4.1347    3.2314   -0.3057 C   0  0  0  0  0  0  0  0  0  0  0  0
   -4.7587    4.4802   -0.2446 C   0  0  0  0  0  0  0  0  0  0  0  0
   -4.1778    5.5229    0.4839 C   0  0  0  0  0  0  0  0  0  0  0  0
   -4.8110    6.7623    0.5364 O   0  0  0  0  0  0  0  0  0  0  0  0
   -2.9642    5.3123    1.1507 C   0  0  0  0  0  0  0  0  0  0  0  0
   -2.3360    4.0654    1.0881 C   0  0  0  0  0  0  0  0  0  0  0  0
   -1.0412    0.1314   -1.2581 N   0  0  0  0  0  0  0  0  0  0  0  0
   -1.9162   -0.8668   -1.7861 C   0  0  0  0  0  0  0  0  0  0  0  0
   -2.0826   -0.9465   -3.0334 O   0  0  0  0  0  0  0  0  0  0  0  0
   -5.3048   -1.1979    1.2538 H   0  0  0  0  0  0  0  0  0  0  0  0
   -5.5881   -2.8600    1.8964 H   0  0  0  0  0  0  0  0  0  0  0  0
   -3.9150   -2.2679    1.7050 H   0  0  0  0  0  0  0  0  0  0  0  0
   -4.4252   -3.8130   -0.1495 H   0  0  0  0  0  0  0  0  0  0  0  0
   -6.8633   -2.0130   -0.7343 H   0  0  0  0  0  0  0  0  0  0  0  0
   -6.3292   -3.4459   -1.7015 H   0  0  0  0  0  0  0  0  0  0  0  0
   -6.9001   -3.6714   -0.0149 H   0  0  0  0  0  0  0  0  0  0  0  0
   -4.2613   -2.2577   -2.1870 H   0  0  0  0  0  0  0  0  0  0  0  0
   -4.5232   -0.8614   -1.0955 H   0  0  0  0  0  0  0  0  0  0  0  0
   -2.4518   -1.4914    0.1795 H   0  0  0  0  0  0  0  0  0  0  0  0
   -1.8419   -3.3907   -2.0356 H   0  0  0  0  0  0  0  0  0  0  0  0
   -0.1446   -2.3942   -0.3898 H   0  0  0  0  0  0  0  0  0  0  0  0
   -0.9925   -3.4443    0.8102 H   0  0  0  0  0  0  0  0  0  0  0  0
   -0.5581   -5.4263   -0.7273 H   0  0  0  0  0  0  0  0  0  0  0  0
    0.3871   -4.3404   -1.8049 H   0  0  0  0  0  0  0  0  0  0  0  0
    1.0344   -5.1026    1.1254 H   0  0  0  0  0  0  0  0  0  0  0  0
    1.8879   -5.6062   -0.3574 H   0  0  0  0  0  0  0  0  0  0  0  0
    2.2842   -3.0192   -0.7878 H   0  0  0  0  0  0  0  0  0  0  0  0
    3.3039   -3.9063    0.4050 H   0  0  0  0  0  0  0  0  0  0  0  0
    1.1236   -2.9227    1.9291 H   0  0  0  0  0  0  0  0  0  0  0  0
    3.9780   -1.6004    0.0027 H   0  0  0  0  0  0  0  0  0  0  0  0
    4.2566    0.7657    1.9433 H   0  0  0  0  0  0  0  0  0  0  0  0
    5.0649   -0.8175    2.0811 H   0  0  0  0  0  0  0  0  0  0  0  0
    6.3571   -1.6184   -0.1634 H   0  0  0  0  0  0  0  0  0  0  0  0
    8.2021   -0.8550   -1.6102 H   0  0  0  0  0  0  0  0  0  0  0  0
    8.7161    1.5620   -1.8077 H   0  0  0  0  0  0  0  0  0  0  0  0
    7.3810    3.2200   -0.5417 H   0  0  0  0  0  0  0  0  0  0  0  0
    5.5285    2.4815    0.9080 H   0  0  0  0  0  0  0  0  0  0  0  0
    2.9940   -0.1284   -1.4384 H   0  0  0  0  0  0  0  0  0  0  0  0
    0.6863    0.9641    0.7224 H   0  0  0  0  0  0  0  0  0  0  0  0
    2.2270    1.8198    2.5359 H   0  0  0  0  0  0  0  0  0  0  0  0
    0.6698    2.7044    2.4660 H   0  0  0  0  0  0  0  0  0  0  0  0
    2.1669    3.4547    1.7937 H   0  0  0  0  0  0  0  0  0  0  0  0
    0.9222    3.8181   -0.3023 H   0  0  0  0  0  0  0  0  0  0  0  0
   -2.2651    1.7073   -1.8913 H   0  0  0  0  0  0  0  0  0  0  0  0
   -1.5248    1.5354    1.1055 H   0  0  0  0  0  0  0  0  0  0  0  0
   -3.0038    0.8816    0.3694 H   0  0  0  0  0  0  0  0  0  0  0  0
   -4.5944    2.4348   -0.8786 H   0  0  0  0  0  0  0  0  0  0  0  0
   -5.6927    4.6389   -0.7660 H   0  0  0  0  0  0  0  0  0  0  0  0
   -4.4194    7.5360    1.0626 H   0  0  0  0  0  0  0  0  0  0  0  0
   -2.5048    6.1141    1.7136 H   0  0  0  0  0  0  0  0  0  0  0  0
   -1.3963    3.9228    1.6054 H   0  0  0  0  0  0  0  0  0  0  0  0
   -0.0174   -0.0761   -1.2623 H   0  0  0  0  0  0  0  0  0  0  0  0
  1  2  1  0
  2  3  1  0
  2  4  1  0
  4  5  1  0
  5  6  1  0
  6  7  1  0
  7  8  1  0
  8  9  1  0
  9 10  1  0
 10 11  1  0
 11 12  1  0
 12 13  2  0
 12 14  1  0
 14 15  1  0
 15 16  1  0
 16 17  2  0
 17 18  1  0
 18 19  2  0
 19 20  1  0
 20 21  2  0
 14 22  1  0
 22 23  1  0
 23 24  2  0
 23 25  1  0
 25 26  1  0
 25 27  1  0
 27 28  1  0
 28 29  2  0
 28 30  1  0
 30 31  1  0
 31 32  1  0
 32 33  2  0
 33 34  1  0
 34 35  2  0
 35 36  1  0
 35 37  1  0
 37 38  2  0
 30 39  1  0
 39 40  1  0
 40 41  2  0
 40  5  1  0
 21 16  1  0
 38 32  1  0
  1 42  1  0
  1 43  1  0
  1 44  1  0
  2 45  1  0
  3 46  1  0
  3 47  1  0
  3 48  1  0
  4 49  1  0
  4 50  1  0
  5 51  1  1
  6 52  1  0
  7 53  1  0
  7 54  1  0
  8 55  1  0
  8 56  1  0
  9 57  1  0
  9 58  1  0
 10 59  1  0
 10 60  1  0
 11 61  1  0
 14 62  1  6
 15 63  1  0
 15 64  1  0
 17 65  1  0
 18 66  1  0
 19 67  1  0
 20 68  1  0
 21 69  1  0
 22 70  1  0
 25 71  1  1
 26 72  1  0
 26 73  1  0
 26 74  1  0
 27 75  1  0
 30 76  1  6
 31 77  1  0
 31 78  1  0
 33 79  1  0
 34 80  1  0
 36 81  1  0
 37 82  1  0
 38 83  1  0
 39 84  1  0
M  END
$$$$
