
     RDKit          3D

 91 92  0  0  0  0  0  0  0  0999 V2000
   10.4442    1.9964    0.5615 C   0  0  0  0  0  0  0  0  0  0  0  0
    9.5060    0.7957    0.4455 C   0  0  0  0  0  0  0  0  0  0  0  0
    8.5047    0.7044    1.6102 C   0  0  0  0  0  0  0  0  0  0  0  0
    7.5562    1.9133    1.7521 C   0  0  0  0  0  0  0  0  0  0  0  0
    6.7449    2.2656    0.4912 C   0  0  0  0  0  0  0  0  0  0  0  0
    5.7659    1.1537    0.0792 C   0  0  0  0  0  0  0  0  0  0  0  0
    5.0170    1.4717   -1.2270 C   0  0  0  0  0  0  0  0  0  0  0  0
    4.1222    2.7270   -1.1804 C   0  0  0  0  0  0  0  0  0  0  0  0
    3.0340    2.6945   -0.0954 C   0  0  0  0  0  0  0  0  0  0  0  0
    2.1180    1.5147   -0.2460 C   0  0  0  0  0  0  0  0  0  0  0  0
    1.4386    1.3904   -1.3014 O   0  0  0  0  0  0  0  0  0  0  0  0
    2.0122    0.5396    0.8017 N   0  0  0  0  0  0  0  0  0  0  0  0
    1.1027   -0.6085    0.7102 C   0  0  1  0  0  0  0  0  0  0  0  0
    1.2988   -1.5493    1.9150 C   0  0  0  0  0  0  0  0  0  0  0  0
    0.4373   -2.7828    1.8066 C   0  0  0  0  0  0  0  0  0  0  0  0
    0.8211   -3.8428    0.9704 C   0  0  0  0  0  0  0  0  0  0  0  0
   -0.0049   -4.9609    0.8245 C   0  0  0  0  0  0  0  0  0  0  0  0
   -1.2247   -5.0344    1.5134 C   0  0  0  0  0  0  0  0  0  0  0  0
   -2.1327   -6.2114    1.3156 C   0  0  0  0  0  0  0  0  0  0  0  0
   -1.6204   -3.9654    2.3301 C   0  0  0  0  0  0  0  0  0  0  0  0
   -0.7929   -2.8495    2.4797 C   0  0  0  0  0  0  0  0  0  0  0  0
   -0.3256   -0.1304    0.6327 C   0  0  0  0  0  0  0  0  0  0  0  0
   -0.7066    0.8270    1.3609 O   0  0  0  0  0  0  0  0  0  0  0  0
   -1.2537   -0.7848   -0.2450 N   0  0  0  0  0  0  0  0  0  0  0  0
   -2.5571   -0.2012   -0.5616 C   0  0  1  0  0  0  0  0  0  0  0  0
   -3.1695   -0.9004   -1.7519 C   0  0  0  0  0  0  0  0  0  0  0  0
   -3.3564   -0.2661   -2.9206 C   0  0  0  0  0  0  0  0  0  0  0  0
   -4.1166   -0.8984   -4.0542 C   0  0  0  0  0  0  0  0  0  0  0  0
   -5.6345   -0.7457   -3.8693 C   0  0  0  0  0  0  0  0  0  0  0  0
   -6.1176   -1.6239   -2.8060 N   0  0  0  0  0  0  0  0  0  0  0  0
   -7.2242   -1.2593   -1.9721 C   0  0  0  0  0  0  0  0  0  0  0  0
   -8.3623   -1.7388   -2.2153 O   0  0  0  0  0  0  0  0  0  0  0  0
   -7.0280   -0.4759   -0.7395 C   0  0  0  0  0  0  0  0  0  0  0  0
   -6.0062    0.3679   -0.5860 C   0  0  0  0  0  0  0  0  0  0  0  0
   -5.6632    1.0001    0.7437 C   0  0  2  0  0  0  0  0  0  0  0  0
   -6.0395    2.5064    0.7733 C   0  0  0  0  0  0  0  0  0  0  0  0
   -7.5566    2.7137    0.6632 C   0  0  0  0  0  0  0  0  0  0  0  0
   -5.3047    3.3255   -0.3015 C   0  0  0  0  0  0  0  0  0  0  0  0
   -4.2326    0.8350    1.0407 N   0  0  0  0  0  0  0  0  0  0  0  0
   -3.4847   -0.3103    0.6164 C   0  0  0  0  0  0  0  0  0  0  0  0
   -3.6355   -1.4113    1.2110 O   0  0  0  0  0  0  0  0  0  0  0  0
    9.8850    2.9455    0.4238 H   0  0  0  0  0  0  0  0  0  0  0  0
   10.9483    2.0006    1.5516 H   0  0  0  0  0  0  0  0  0  0  0  0
   11.2206    1.9371   -0.2303 H   0  0  0  0  0  0  0  0  0  0  0  0
    8.9728    0.8256   -0.5270 H   0  0  0  0  0  0  0  0  0  0  0  0
   10.1232   -0.1286    0.4452 H   0  0  0  0  0  0  0  0  0  0  0  0
    9.0732    0.5958    2.5603 H   0  0  0  0  0  0  0  0  0  0  0  0
    7.9078   -0.2253    1.4992 H   0  0  0  0  0  0  0  0  0  0  0  0
    8.1463    2.8048    2.0544 H   0  0  0  0  0  0  0  0  0  0  0  0
    6.8498    1.7077    2.5857 H   0  0  0  0  0  0  0  0  0  0  0  0
    6.1680    3.1850    0.7249 H   0  0  0  0  0  0  0  0  0  0  0  0
    7.4233    2.5153   -0.3513 H   0  0  0  0  0  0  0  0  0  0  0  0
    5.0457    0.9536    0.9001 H   0  0  0  0  0  0  0  0  0  0  0  0
    6.3314    0.2156   -0.0963 H   0  0  0  0  0  0  0  0  0  0  0  0
    5.7608    1.6003   -2.0441 H   0  0  0  0  0  0  0  0  0  0  0  0
    4.3962    0.5923   -1.5002 H   0  0  0  0  0  0  0  0  0  0  0  0
    4.7498    3.6321   -1.0366 H   0  0  0  0  0  0  0  0  0  0  0  0
    3.6330    2.8439   -2.1726 H   0  0  0  0  0  0  0  0  0  0  0  0
    2.4263    3.6208   -0.1751 H   0  0  0  0  0  0  0  0  0  0  0  0
    3.4995    2.7039    0.9118 H   0  0  0  0  0  0  0  0  0  0  0  0
    2.6072    0.6562    1.6518 H   0  0  0  0  0  0  0  0  0  0  0  0
    1.3538   -1.1722   -0.2158 H   0  0  0  0  0  0  0  0  0  0  0  0
    2.3660   -1.8593    1.9651 H   0  0  0  0  0  0  0  0  0  0  0  0
    1.0743   -1.0054    2.8598 H   0  0  0  0  0  0  0  0  0  0  0  0
    1.7554   -3.7984    0.4239 H   0  0  0  0  0  0  0  0  0  0  0  0
    0.3030   -5.7671    0.1696 H   0  0  0  0  0  0  0  0  0  0  0  0
   -1.5399   -7.1425    1.1951 H   0  0  0  0  0  0  0  0  0  0  0  0
   -2.7487   -6.0526    0.4063 H   0  0  0  0  0  0  0  0  0  0  0  0
   -2.8064   -6.3447    2.1890 H   0  0  0  0  0  0  0  0  0  0  0  0
   -2.5718   -3.9932    2.8457 H   0  0  0  0  0  0  0  0  0  0  0  0
   -1.1190   -2.0291    3.1071 H   0  0  0  0  0  0  0  0  0  0  0  0
   -0.9596   -1.6747   -0.7111 H   0  0  0  0  0  0  0  0  0  0  0  0
   -2.4112    0.8775   -0.7970 H   0  0  0  0  0  0  0  0  0  0  0  0
   -3.5063   -1.9283   -1.6355 H   0  0  0  0  0  0  0  0  0  0  0  0
   -3.0142    0.7579   -3.0442 H   0  0  0  0  0  0  0  0  0  0  0  0
   -3.8385   -1.9703   -4.1592 H   0  0  0  0  0  0  0  0  0  0  0  0
   -3.8253   -0.3846   -4.9956 H   0  0  0  0  0  0  0  0  0  0  0  0
   -6.1440   -1.0248   -4.8167 H   0  0  0  0  0  0  0  0  0  0  0  0
   -5.8889    0.3157   -3.6563 H   0  0  0  0  0  0  0  0  0  0  0  0
   -5.9436   -2.6476   -2.9276 H   0  0  0  0  0  0  0  0  0  0  0  0
   -7.7220   -0.6303    0.0771 H   0  0  0  0  0  0  0  0  0  0  0  0
   -5.3763    0.6084   -1.4226 H   0  0  0  0  0  0  0  0  0  0  0  0
   -6.2281    0.4864    1.5557 H   0  0  0  0  0  0  0  0  0  0  0  0
   -5.7306    2.9106    1.7631 H   0  0  0  0  0  0  0  0  0  0  0  0
   -7.9336    2.3844   -0.3281 H   0  0  0  0  0  0  0  0  0  0  0  0
   -8.0811    2.1395    1.4556 H   0  0  0  0  0  0  0  0  0  0  0  0
   -7.8039    3.7887    0.7949 H   0  0  0  0  0  0  0  0  0  0  0  0
   -4.2079    3.1721   -0.2279 H   0  0  0  0  0  0  0  0  0  0  0  0
   -5.6413    3.0400   -1.3208 H   0  0  0  0  0  0  0  0  0  0  0  0
   -5.5094    4.4090   -0.1559 H   0  0  0  0  0  0  0  0  0  0  0  0
   -3.8421    1.3617    1.8553 H   0  0  0  0  0  0  0  0  0  0  0  0
  1  2  1  0
  2  3  1  0
  3  4  1  0
  4  5  1  0
  5  6  1  0
  6  7  1  0
  7  8  1  0
  8  9  1  0
  9 10  1  0
 10 11  2  0
 10 12  1  0
 12 13  1  0
 13 14  1  0
 14 15  1  0
 15 16  2  0
 16 17  1  0
 17 18  2  0
 18 19  1  0
 18 20  1  0
 20 21  2  0
 13 22  1  0
 22 23  2  0
 22 24  1  0
 24 25  1  0
 25 26  1  0
 26 27  2  0
 27 28  1  0
 28 29  1  0
 29 30  1  0
 30 31  1  0
 31 32  2  0
 31 33  1  0
 33 34  2  0
 34 35  1  0
 35 36  1  0
 36 37  1  0
 36 38  1  0
 35 39  1  0
 39 40  1  0
 40 41  2  0
 21 15  1  0
 40 25  1  0
  1 42  1  0
  1 43  1  0
  1 44  1  0
  2 45  1  0
  2 46  1  0
  3 47  1  0
  3 48  1  0
  4 49  1  0
  4 50  1  0
  5 51  1  0
  5 52  1  0
  6 53  1  0
  6 54  1  0
  7 55  1  0
  7 56  1  0
  8 57  1  0
  8 58  1  0
  9 59  1  0
  9 60  1  0
 12 61  1  0
 13 62  1  6
 14 63  1  0
 14 64  1  0
 16 65  1  0
 17 66  1  0
 19 67  1  0
 19 68  1  0
 19 69  1  0
 20 70  1  0
 21 71  1  0
 24 72  1  0
 25 73  1  6
 26 74  1  0
 27 75  1  0
 28 76  1  0
 28 77  1  0
 29 78  1  0
 29 79  1  0
 30 80  1  0
 33 81  1  0
 34 82  1  0
 35 83  1  1
 36 84  1  0
 37 85  1  0
 37 86  1  0
 37 87  1  0
 38 88  1  0
 38 89  1  0
 38 90  1  0
 39 91  1  0
M  END
$$$$
