
     RDKit          3D

 66 69  0  0  0  0  0  0  0  0999 V2000
   -3.8117    1.9511   -2.5500 O   0  0  0  0  0  0  0  0  0  0  0  0
   -3.1359    1.8113   -1.4970 C   0  0  0  0  0  0  0  0  0  0  0  0
   -1.8310    1.2060   -1.5670 N   0  0  0  0  0  0  0  0  0  0  0  0
   -0.8976    1.1604   -0.4339 C   0  0  0  0  0  0  0  0  0  0  0  0
   -0.2850   -0.2550   -0.1697 C   0  0  0  0  0  0  0  0  0  0  0  0
   -1.4263   -1.3218    0.0180 C   0  0  0  0  0  0  0  0  0  0  0  0
   -1.9691   -2.0046   -1.2600 C   0  0  0  0  0  0  0  0  0  0  0  0
   -3.1997   -2.8975   -0.9597 C   0  0  0  0  0  0  0  0  0  0  0  0
   -4.5323   -2.3225   -1.4961 C   0  0  0  0  0  0  0  0  0  0  0  0
   -5.6133   -2.1660   -0.4109 C   0  0  0  0  0  0  0  0  0  0  0  0
   -5.3097   -1.0519    0.5970 C   0  0  0  0  0  0  0  0  0  0  0  0
   -4.8877    0.1194   -0.0946 O   0  0  0  0  0  0  0  0  0  0  0  0
   -4.5389    1.3341    0.5087 C   0  0  0  0  0  0  0  0  0  0  0  0
   -4.9767    1.6854    1.7974 C   0  0  0  0  0  0  0  0  0  0  0  0
   -4.6352    2.9275    2.3421 C   0  0  0  0  0  0  0  0  0  0  0  0
   -3.8424    3.8198    1.6147 C   0  0  0  0  0  0  0  0  0  0  0  0
   -3.4161    5.3755    2.3035 Cl  0  0  0  0  0  0  0  0  0  0  0  0
   -3.3800    3.4668    0.3432 C   0  0  0  0  0  0  0  0  0  0  0  0
   -3.7254    2.2258   -0.2107 C   0  0  0  0  0  0  0  0  0  0  0  0
    0.6997   -0.6596   -1.3208 C   0  0  0  0  0  0  0  0  0  0  0  0
    2.1197   -0.1200   -1.1159 C   0  0  0  0  0  0  0  0  0  0  0  0
    2.6759   -0.6075    0.1578 N   0  0  0  0  0  0  0  0  0  0  0  0
    4.1013   -0.7430    0.3406 C   0  0  0  0  0  0  0  0  0  0  0  0
    4.5430   -1.5076    1.2449 O   0  0  0  0  0  0  0  0  0  0  0  0
    5.0772   -0.0354   -0.5674 C   0  0  0  0  0  0  0  0  0  0  0  0
    6.3712    0.2752    0.1407 C   0  0  0  0  0  0  0  0  0  0  0  0
    6.4744    1.4166    0.9539 C   0  0  0  0  0  0  0  0  0  0  0  0
    7.6600    1.6854    1.6436 C   0  0  0  0  0  0  0  0  0  0  0  0
    8.7480    0.8154    1.5316 C   0  0  0  0  0  0  0  0  0  0  0  0
    8.6512   -0.3265    0.7295 C   0  0  0  0  0  0  0  0  0  0  0  0
    7.4660   -0.6004    0.0399 C   0  0  0  0  0  0  0  0  0  0  0  0
    1.7594   -1.0151    1.2324 C   0  0  0  0  0  0  0  0  0  0  0  0
    0.4969   -0.1487    1.1926 C   0  0  0  0  0  0  0  0  0  0  0  0
   -1.4653    0.9832   -2.5178 H   0  0  0  0  0  0  0  0  0  0  0  0
   -1.4036    1.4928    0.4982 H   0  0  0  0  0  0  0  0  0  0  0  0
   -0.0870    1.8990   -0.6228 H   0  0  0  0  0  0  0  0  0  0  0  0
   -2.2707   -0.8524    0.5671 H   0  0  0  0  0  0  0  0  0  0  0  0
   -1.0491   -2.1414    0.6704 H   0  0  0  0  0  0  0  0  0  0  0  0
   -1.1796   -2.6702   -1.6716 H   0  0  0  0  0  0  0  0  0  0  0  0
   -2.1861   -1.2617   -2.0532 H   0  0  0  0  0  0  0  0  0  0  0  0
   -3.0379   -3.8852   -1.4465 H   0  0  0  0  0  0  0  0  0  0  0  0
   -3.2664   -3.1250    0.1270 H   0  0  0  0  0  0  0  0  0  0  0  0
   -4.9288   -3.0224   -2.2642 H   0  0  0  0  0  0  0  0  0  0  0  0
   -4.3937   -1.3536   -2.0246 H   0  0  0  0  0  0  0  0  0  0  0  0
   -5.7536   -3.1279    0.1283 H   0  0  0  0  0  0  0  0  0  0  0  0
   -6.5749   -1.9265   -0.9129 H   0  0  0  0  0  0  0  0  0  0  0  0
   -6.2337   -0.8428    1.1786 H   0  0  0  0  0  0  0  0  0  0  0  0
   -4.5123   -1.3795    1.2985 H   0  0  0  0  0  0  0  0  0  0  0  0
   -5.5965    1.0179    2.3793 H   0  0  0  0  0  0  0  0  0  0  0  0
   -4.9904    3.1947    3.3297 H   0  0  0  0  0  0  0  0  0  0  0  0
   -2.7398    4.1479   -0.2046 H   0  0  0  0  0  0  0  0  0  0  0  0
    0.3266   -0.3451   -2.3166 H   0  0  0  0  0  0  0  0  0  0  0  0
    0.8068   -1.7640   -1.3559 H   0  0  0  0  0  0  0  0  0  0  0  0
    2.7431   -0.4781   -1.9659 H   0  0  0  0  0  0  0  0  0  0  0  0
    2.1182    0.9906   -1.1230 H   0  0  0  0  0  0  0  0  0  0  0  0
    5.2691   -0.6739   -1.4568 H   0  0  0  0  0  0  0  0  0  0  0  0
    4.6333    0.9153   -0.9330 H   0  0  0  0  0  0  0  0  0  0  0  0
    5.6355    2.0934    1.0576 H   0  0  0  0  0  0  0  0  0  0  0  0
    7.7359    2.5670    2.2665 H   0  0  0  0  0  0  0  0  0  0  0  0
    9.6661    1.0277    2.0678 H   0  0  0  0  0  0  0  0  0  0  0  0
    9.4929   -1.0019    0.6455 H   0  0  0  0  0  0  0  0  0  0  0  0
    7.3968   -1.4948   -0.5658 H   0  0  0  0  0  0  0  0  0  0  0  0
    1.4976   -2.0882    1.1155 H   0  0  0  0  0  0  0  0  0  0  0  0
    2.2422   -0.8798    2.2249 H   0  0  0  0  0  0  0  0  0  0  0  0
    0.8319    0.8982    1.3747 H   0  0  0  0  0  0  0  0  0  0  0  0
   -0.1562   -0.4056    2.0560 H   0  0  0  0  0  0  0  0  0  0  0  0
  1  2  2  0
  2  3  1  0
  3  4  1  0
  4  5  1  0
  5  6  1  0
  6  7  1  0
  7  8  1  0
  8  9  1  0
  9 10  1  0
 10 11  1  0
 11 12  1  0
 12 13  1  0
 13 14  2  0
 14 15  1  0
 15 16  2  0
 16 17  1  0
 16 18  1  0
 18 19  2  0
  5 20  1  0
 20 21  1  0
 21 22  1  0
 22 23  1  0
 23 24  2  0
 23 25  1  0
 25 26  1  0
 26 27  2  0
 27 28  1  0
 28 29  2  0
 29 30  1  0
 30 31  2  0
 22 32  1  0
 32 33  1  0
 19  2  1  0
 31 26  1  0
 33  5  1  0
 19 13  1  0
  3 34  1  0
  4 35  1  0
  4 36  1  0
  6 37  1  0
  6 38  1  0
  7 39  1  0
  7 40  1  0
  8 41  1  0
  8 42  1  0
  9 43  1  0
  9 44  1  0
 10 45  1  0
 10 46  1  0
 11 47  1  0
 11 48  1  0
 14 49  1  0
 15 50  1  0
 18 51  1  0
 20 52  1  0
 20 53  1  0
 21 54  1  0
 21 55  1  0
 25 56  1  0
 25 57  1  0
 27 58  1  0
 28 59  1  0
 29 60  1  0
 30 61  1  0
 31 62  1  0
 32 63  1  0
 32 64  1  0
 33 65  1  0
 33 66  1  0
M  END
$$$$
