
     RDKit          3D

 55 58  0  0  0  0  0  0  0  0999 V2000
    1.3868    0.9137    1.9450 O   0  0  0  0  0  0  0  0  0  0  0  0
    0.5590    0.2354    1.2780 C   0  0  0  0  0  0  0  0  0  0  0  0
   -0.8162    0.2069    1.7368 N   0  0  0  0  0  0  0  0  0  0  0  0
   -1.9467   -0.6058    1.2439 C   0  0  1  0  0  0  0  0  0  0  0  0
   -2.4010   -0.1526   -0.1664 C   0  0  0  0  0  0  0  0  0  0  0  0
   -3.0176    1.2252   -0.1173 C   0  0  0  0  0  0  0  0  0  0  0  0
   -2.2164    2.3737   -0.2266 C   0  0  0  0  0  0  0  0  0  0  0  0
   -2.7898    3.6461   -0.1453 C   0  0  0  0  0  0  0  0  0  0  0  0
   -4.1658    3.7827    0.0548 C   0  0  0  0  0  0  0  0  0  0  0  0
   -4.9695    2.6465    0.1791 C   0  0  0  0  0  0  0  0  0  0  0  0
   -4.3991    1.3723    0.0991 C   0  0  0  0  0  0  0  0  0  0  0  0
   -1.6812   -2.1256    1.4206 C   0  0  0  0  0  0  0  0  0  0  0  0
   -2.3421   -2.8923    0.4238 O   0  0  0  0  0  0  0  0  0  0  0  0
   -1.7660   -4.1813    0.2910 C   0  0  0  0  0  0  0  0  0  0  0  0
   -0.5176   -4.1005   -0.5329 C   0  0  0  0  0  0  0  0  0  0  0  0
    0.7432   -3.9600    0.0006 C   0  0  0  0  0  0  0  0  0  0  0  0
    1.4747   -3.3125   -0.9212 N   0  0  0  0  0  0  0  0  0  0  0  0
    0.7196   -3.1280   -1.9928 N   0  0  0  0  0  0  0  0  0  0  0  0
   -0.5010   -3.5982   -1.7842 N   0  0  0  0  0  0  0  0  0  0  0  0
    2.6423   -2.4889   -0.6164 C   0  0  0  0  0  0  0  0  0  0  0  0
    2.2938   -1.4007    0.4291 C   0  0  0  0  0  0  0  0  0  0  0  0
    1.0719   -0.5117    0.0548 C   0  0  2  0  0  0  0  0  0  0  0  0
    1.3634    0.4387   -1.1363 C   0  0  0  0  0  0  0  0  0  0  0  0
    2.4648    1.4453   -0.8899 C   0  0  0  0  0  0  0  0  0  0  0  0
    2.1705    2.6997   -0.3272 C   0  0  0  0  0  0  0  0  0  0  0  0
    3.1892    3.6304   -0.1031 C   0  0  0  0  0  0  0  0  0  0  0  0
    4.5079    3.3218   -0.4458 C   0  0  0  0  0  0  0  0  0  0  0  0
    4.8096    2.0829   -1.0174 C   0  0  0  0  0  0  0  0  0  0  0  0
    6.0886    1.7867   -1.3557 F   0  0  0  0  0  0  0  0  0  0  0  0
    3.7931    1.1494   -1.2432 C   0  0  0  0  0  0  0  0  0  0  0  0
   -1.0298    0.8200    2.5566 H   0  0  0  0  0  0  0  0  0  0  0  0
   -2.8170   -0.3969    1.9089 H   0  0  0  0  0  0  0  0  0  0  0  0
   -3.1653   -0.8527   -0.5656 H   0  0  0  0  0  0  0  0  0  0  0  0
   -1.5702   -0.1633   -0.8944 H   0  0  0  0  0  0  0  0  0  0  0  0
   -1.1503    2.2866   -0.3666 H   0  0  0  0  0  0  0  0  0  0  0  0
   -2.1662    4.5264   -0.2328 H   0  0  0  0  0  0  0  0  0  0  0  0
   -4.6083    4.7684    0.1189 H   0  0  0  0  0  0  0  0  0  0  0  0
   -6.0343    2.7530    0.3416 H   0  0  0  0  0  0  0  0  0  0  0  0
   -5.0331    0.5011    0.2080 H   0  0  0  0  0  0  0  0  0  0  0  0
   -2.0621   -2.4383    2.4184 H   0  0  0  0  0  0  0  0  0  0  0  0
   -0.5910   -2.3051    1.4555 H   0  0  0  0  0  0  0  0  0  0  0  0
   -1.5667   -4.6551    1.2801 H   0  0  0  0  0  0  0  0  0  0  0  0
   -2.4905   -4.8321   -0.2412 H   0  0  0  0  0  0  0  0  0  0  0  0
    1.0225   -4.0853    1.0393 H   0  0  0  0  0  0  0  0  0  0  0  0
    3.4467   -3.1368   -0.2067 H   0  0  0  0  0  0  0  0  0  0  0  0
    3.0303   -2.0246   -1.5469 H   0  0  0  0  0  0  0  0  0  0  0  0
    2.0808   -1.9123    1.3933 H   0  0  0  0  0  0  0  0  0  0  0  0
    3.1904   -0.7731    0.6130 H   0  0  0  0  0  0  0  0  0  0  0  0
    0.2696   -1.1821   -0.2844 H   0  0  0  0  0  0  0  0  0  0  0  0
    1.6139   -0.1674   -2.0332 H   0  0  0  0  0  0  0  0  0  0  0  0
    0.4359    0.9801   -1.4109 H   0  0  0  0  0  0  0  0  0  0  0  0
    1.1546    2.9560   -0.0573 H   0  0  0  0  0  0  0  0  0  0  0  0
    2.9558    4.5918    0.3358 H   0  0  0  0  0  0  0  0  0  0  0  0
    5.2944    4.0446   -0.2712 H   0  0  0  0  0  0  0  0  0  0  0  0
    4.0417    0.1972   -1.6933 H   0  0  0  0  0  0  0  0  0  0  0  0
  1  2  2  0
  2  3  1  0
  3  4  1  0
  4  5  1  0
  5  6  1  0
  6  7  2  0
  7  8  1  0
  8  9  2  0
  9 10  1  0
 10 11  2  0
  4 12  1  0
 12 13  1  0
 13 14  1  0
 14 15  1  0
 15 16  2  0
 16 17  1  0
 17 18  1  0
 18 19  2  0
 17 20  1  0
 20 21  1  0
 21 22  1  0
 22 23  1  0
 23 24  1  0
 24 25  2  0
 25 26  1  0
 26 27  2  0
 27 28  1  0
 28 29  1  0
 28 30  2  0
 22  2  1  0
 30 24  1  0
 11  6  1  0
 19 15  1  0
  3 31  1  0
  4 32  1  1
  5 33  1  0
  5 34  1  0
  7 35  1  0
  8 36  1  0
  9 37  1  0
 10 38  1  0
 11 39  1  0
 12 40  1  0
 12 41  1  0
 14 42  1  0
 14 43  1  0
 16 44  1  0
 20 45  1  0
 20 46  1  0
 21 47  1  0
 21 48  1  0
 22 49  1  6
 23 50  1  0
 23 51  1  0
 25 52  1  0
 26 53  1  0
 27 54  1  0
 30 55  1  0
M  END
$$$$
