
     RDKit          3D

 65 68  0  0  0  0  0  0  0  0999 V2000
    4.6458    2.9498   -0.6747 C   0  0  0  0  0  0  0  0  0  0  0  0
    3.8700    1.9781    0.0230 O   0  0  0  0  0  0  0  0  0  0  0  0
    4.3870    0.8082    0.6040 C   0  0  0  0  0  0  0  0  0  0  0  0
    5.7477    0.4616    0.4915 C   0  0  0  0  0  0  0  0  0  0  0  0
    6.2306   -0.7071    1.0862 C   0  0  0  0  0  0  0  0  0  0  0  0
    5.3658   -1.5406    1.7982 C   0  0  0  0  0  0  0  0  0  0  0  0
    5.8397   -2.6716    2.3772 F   0  0  0  0  0  0  0  0  0  0  0  0
    4.0142   -1.2080    1.9182 C   0  0  0  0  0  0  0  0  0  0  0  0
    3.5172   -0.0383    1.3202 C   0  0  0  0  0  0  0  0  0  0  0  0
    1.8055    0.3738    1.4573 S   0  0  0  0  0  6  0  0  0  0  0  0
    1.7025    1.6913    2.1767 O   0  0  0  0  0  0  0  0  0  0  0  0
    1.0862   -0.6613    2.2775 O   0  0  0  0  0  0  0  0  0  0  0  0
    1.1344    0.4811   -0.1665 N   0  0  0  0  0  0  0  0  0  0  0  0
    0.4043    1.7614   -0.3527 C   0  0  0  0  0  0  0  0  0  0  0  0
   -0.0462    2.0780   -1.8005 C   0  0  0  0  0  0  0  0  0  0  0  0
   -1.4262    1.5471   -2.2466 C   0  0  0  0  0  0  0  0  0  0  0  0
   -2.6290    1.9689   -1.3786 C   0  0  0  0  0  0  0  0  0  0  0  0
   -3.7273    1.0134   -1.5664 N   0  0  0  0  0  0  0  0  0  0  0  0
   -4.5371    1.0777   -2.7863 C   0  0  0  0  0  0  0  0  0  0  0  0
   -3.8688   -0.1347   -0.7030 C   0  0  0  0  0  0  0  0  0  0  0  0
   -4.1451   -1.2581   -1.1986 O   0  0  0  0  0  0  0  0  0  0  0  0
   -3.7897   -0.0140    0.7643 C   0  0  0  0  0  0  0  0  0  0  0  0
   -5.0028    0.1783    1.4484 C   0  0  0  0  0  0  0  0  0  0  0  0
   -5.0231    0.3401    2.8339 C   0  0  0  0  0  0  0  0  0  0  0  0
   -3.8317    0.3172    3.5550 C   0  0  0  0  0  0  0  0  0  0  0  0
   -2.6181    0.1208    2.8936 C   0  0  0  0  0  0  0  0  0  0  0  0
   -2.5743   -0.0612    1.5052 C   0  0  0  0  0  0  0  0  0  0  0  0
   -1.2979   -0.2105    0.9377 O   0  0  0  0  0  0  0  0  0  0  0  0
   -0.8975   -1.1474   -0.0607 C   0  0  0  0  0  0  0  0  0  0  0  0
   -0.9397   -2.5755    0.5125 C   0  0  0  0  0  0  0  0  0  0  0  0
   -0.4692   -3.6060   -0.5269 C   0  0  0  0  0  0  0  0  0  0  0  0
    0.8551   -3.2234   -1.2300 C   0  0  0  0  0  0  0  0  0  0  0  0
    1.4995   -1.9586   -0.6495 C   0  0  0  0  0  0  0  0  0  0  0  0
    0.5037   -0.7730   -0.6742 C   0  0  0  0  0  0  0  0  0  0  0  0
    3.9825    3.7824   -0.9886 H   0  0  0  0  0  0  0  0  0  0  0  0
    5.1053    2.4971   -1.5820 H   0  0  0  0  0  0  0  0  0  0  0  0
    5.4368    3.3586   -0.0076 H   0  0  0  0  0  0  0  0  0  0  0  0
    6.4401    1.0879   -0.0544 H   0  0  0  0  0  0  0  0  0  0  0  0
    7.2774   -0.9642    0.9947 H   0  0  0  0  0  0  0  0  0  0  0  0
    3.3573   -1.8660    2.4744 H   0  0  0  0  0  0  0  0  0  0  0  0
   -0.3978    1.8874    0.3906 H   0  0  0  0  0  0  0  0  0  0  0  0
    1.1174    2.5779   -0.1056 H   0  0  0  0  0  0  0  0  0  0  0  0
    0.7269    1.7098   -2.5092 H   0  0  0  0  0  0  0  0  0  0  0  0
   -0.0731    3.1856   -1.9167 H   0  0  0  0  0  0  0  0  0  0  0  0
   -1.6096    1.9276   -3.2752 H   0  0  0  0  0  0  0  0  0  0  0  0
   -1.4059    0.4528   -2.3664 H   0  0  0  0  0  0  0  0  0  0  0  0
   -2.9572    2.9879   -1.6805 H   0  0  0  0  0  0  0  0  0  0  0  0
   -2.3862    2.0398   -0.3061 H   0  0  0  0  0  0  0  0  0  0  0  0
   -5.6144    1.0530   -2.5204 H   0  0  0  0  0  0  0  0  0  0  0  0
   -4.3406    2.0150   -3.3520 H   0  0  0  0  0  0  0  0  0  0  0  0
   -4.2998    0.2128   -3.4428 H   0  0  0  0  0  0  0  0  0  0  0  0
   -5.9387    0.2136    0.9039 H   0  0  0  0  0  0  0  0  0  0  0  0
   -5.9634    0.4953    3.3475 H   0  0  0  0  0  0  0  0  0  0  0  0
   -3.8464    0.4556    4.6277 H   0  0  0  0  0  0  0  0  0  0  0  0
   -1.6985    0.1068    3.4674 H   0  0  0  0  0  0  0  0  0  0  0  0
   -1.6167   -1.1424   -0.8919 H   0  0  0  0  0  0  0  0  0  0  0  0
   -0.3052   -2.6458    1.4205 H   0  0  0  0  0  0  0  0  0  0  0  0
   -1.9789   -2.8227    0.8195 H   0  0  0  0  0  0  0  0  0  0  0  0
   -0.3573   -4.5934   -0.0272 H   0  0  0  0  0  0  0  0  0  0  0  0
   -1.2645   -3.7244   -1.2979 H   0  0  0  0  0  0  0  0  0  0  0  0
    0.6603   -3.0630   -2.3146 H   0  0  0  0  0  0  0  0  0  0  0  0
    1.5767   -4.0662   -1.1481 H   0  0  0  0  0  0  0  0  0  0  0  0
    2.4036   -1.6996   -1.2432 H   0  0  0  0  0  0  0  0  0  0  0  0
    1.8318   -2.1928    0.3800 H   0  0  0  0  0  0  0  0  0  0  0  0
    0.3525   -0.6239   -1.7613 H   0  0  0  0  0  0  0  0  0  0  0  0
  1  2  1  0
  2  3  1  0
  3  4  2  0
  4  5  1  0
  5  6  2  0
  6  7  1  0
  6  8  1  0
  8  9  2  0
  9 10  1  0
 10 11  2  0
 10 12  2  0
 10 13  1  0
 13 14  1  0
 14 15  1  0
 15 16  1  0
 16 17  1  0
 17 18  1  0
 18 19  1  0
 18 20  1  0
 20 21  2  0
 20 22  1  0
 22 23  2  0
 23 24  1  0
 24 25  2  0
 25 26  1  0
 26 27  2  0
 27 28  1  0
 28 29  1  0
 29 30  1  0
 30 31  1  0
 31 32  1  0
 32 33  1  0
 33 34  1  0
  9  3  1  0
 34 13  1  0
 27 22  1  0
 34 29  1  0
  1 35  1  0
  1 36  1  0
  1 37  1  0
  4 38  1  0
  5 39  1  0
  8 40  1  0
 14 41  1  0
 14 42  1  0
 15 43  1  0
 15 44  1  0
 16 45  1  0
 16 46  1  0
 17 47  1  0
 17 48  1  0
 19 49  1  0
 19 50  1  0
 19 51  1  0
 23 52  1  0
 24 53  1  0
 25 54  1  0
 26 55  1  0
 29 56  1  0
 30 57  1  0
 30 58  1  0
 31 59  1  0
 31 60  1  0
 32 61  1  0
 32 62  1  0
 33 63  1  0
 33 64  1  0
 34 65  1  0
M  END
$$$$
