
     RDKit          3D

 84 86  0  0  0  0  0  0  0  0999 V2000
   -2.9832    5.9632    0.5756 C   0  0  0  0  0  0  0  0  0  0  0  0
   -2.2804    5.0253   -0.4156 C   0  0  0  0  0  0  0  0  0  0  0  0
   -0.7745    5.3303   -0.4325 C   0  0  0  0  0  0  0  0  0  0  0  0
   -2.5814    3.5501   -0.0471 C   0  0  0  0  0  0  0  0  0  0  0  0
   -2.2016    2.5276   -1.1510 C   0  0  2  0  0  0  0  0  0  0  0  0
   -2.9277    1.2616   -0.9932 N   0  0  0  0  0  0  0  0  0  0  0  0
   -2.8659    0.4123    0.1653 C   0  0  0  0  0  0  0  0  0  0  0  0
   -2.3693    0.8359    1.2431 O   0  0  0  0  0  0  0  0  0  0  0  0
   -3.4706   -0.9740    0.1081 C   0  0  2  0  0  0  0  0  0  0  0  0
   -4.9434   -0.9162    0.5419 C   0  0  0  0  0  0  0  0  0  0  0  0
   -5.6186   -2.2470    0.3313 C   0  0  0  0  0  0  0  0  0  0  0  0
   -5.6455   -3.1977    1.3638 C   0  0  0  0  0  0  0  0  0  0  0  0
   -6.2096   -4.4589    1.1459 C   0  0  0  0  0  0  0  0  0  0  0  0
   -6.7482   -4.7790   -0.1033 C   0  0  0  0  0  0  0  0  0  0  0  0
   -6.7216   -3.8402   -1.1378 C   0  0  0  0  0  0  0  0  0  0  0  0
   -6.1539   -2.5800   -0.9254 C   0  0  0  0  0  0  0  0  0  0  0  0
   -2.7383   -1.9345    0.9566 N   0  0  0  0  0  0  0  0  0  0  0  0
   -1.4502   -2.3139    0.3644 C   0  0  0  0  0  0  0  0  0  0  0  0
   -0.7463   -3.3376    1.2640 C   0  0  0  0  0  0  0  0  0  0  0  0
    0.4733   -4.0002    0.5982 C   0  0  0  0  0  0  0  0  0  0  0  0
    1.6212   -3.0187    0.2993 C   0  0  0  0  0  0  0  0  0  0  0  0
    1.4285   -2.3378   -0.9863 N   0  0  0  0  0  0  0  0  0  0  0  0
    2.3395   -1.3830   -1.5626 C   0  0  0  0  0  0  0  0  0  0  0  0
    2.1995   -1.0861   -2.7805 O   0  0  0  0  0  0  0  0  0  0  0  0
    3.4641   -0.7122   -0.7966 C   0  0  2  0  0  0  0  0  0  0  0  0
    4.6930   -1.6398   -0.7095 C   0  0  0  0  0  0  0  0  0  0  0  0
    5.9274   -0.8813   -0.2914 C   0  0  0  0  0  0  0  0  0  0  0  0
    6.6568   -0.1474   -1.2405 C   0  0  0  0  0  0  0  0  0  0  0  0
    7.7961    0.5662   -0.8568 C   0  0  0  0  0  0  0  0  0  0  0  0
    8.2171    0.5578    0.4770 C   0  0  0  0  0  0  0  0  0  0  0  0
    9.3592    1.2660    0.8422 O   0  0  0  0  0  0  0  0  0  0  0  0
    7.4862   -0.1627    1.4311 C   0  0  0  0  0  0  0  0  0  0  0  0
    6.3452   -0.8758    1.0501 C   0  0  0  0  0  0  0  0  0  0  0  0
    3.0233   -0.2718    0.5321 N   0  0  0  0  0  0  0  0  0  0  0  0
    2.0126    0.7256    0.7676 C   0  0  0  0  0  0  0  0  0  0  0  0
    1.5608    0.8576    1.9366 O   0  0  0  0  0  0  0  0  0  0  0  0
    1.5501    1.6804   -0.3123 C   0  0  2  0  0  0  0  0  0  0  0  0
    2.3608    2.9735   -0.2403 C   0  0  0  0  0  0  0  0  0  0  0  0
    0.1212    1.9790   -0.1656 N   0  0  0  0  0  0  0  0  0  0  0  0
   -0.7215    2.2516   -1.3000 C   0  0  0  0  0  0  0  0  0  0  0  0
   -0.2327    2.2233   -2.4627 O   0  0  0  0  0  0  0  0  0  0  0  0
   -4.0806    5.7846    0.5640 H   0  0  0  0  0  0  0  0  0  0  0  0
   -2.6041    5.8003    1.6078 H   0  0  0  0  0  0  0  0  0  0  0  0
   -2.8091    7.0244    0.2933 H   0  0  0  0  0  0  0  0  0  0  0  0
   -2.6937    5.2410   -1.4256 H   0  0  0  0  0  0  0  0  0  0  0  0
   -0.2905    4.8592   -1.3118 H   0  0  0  0  0  0  0  0  0  0  0  0
   -0.5994    6.4231   -0.5197 H   0  0  0  0  0  0  0  0  0  0  0  0
   -0.2872    4.9680    0.4981 H   0  0  0  0  0  0  0  0  0  0  0  0
   -3.6790    3.4549    0.1104 H   0  0  0  0  0  0  0  0  0  0  0  0
   -2.1146    3.3092    0.9275 H   0  0  0  0  0  0  0  0  0  0  0  0
   -2.5439    2.9718   -2.1147 H   0  0  0  0  0  0  0  0  0  0  0  0
   -3.4650    0.9146   -1.8214 H   0  0  0  0  0  0  0  0  0  0  0  0
   -3.4497   -1.3231   -0.9509 H   0  0  0  0  0  0  0  0  0  0  0  0
   -5.4793   -0.1405   -0.0493 H   0  0  0  0  0  0  0  0  0  0  0  0
   -5.0156   -0.6127    1.6114 H   0  0  0  0  0  0  0  0  0  0  0  0
   -5.2198   -2.9673    2.3337 H   0  0  0  0  0  0  0  0  0  0  0  0
   -6.2276   -5.1893    1.9465 H   0  0  0  0  0  0  0  0  0  0  0  0
   -7.1862   -5.7542   -0.2688 H   0  0  0  0  0  0  0  0  0  0  0  0
   -7.1356   -4.0911   -2.1066 H   0  0  0  0  0  0  0  0  0  0  0  0
   -6.1214   -1.8687   -1.7413 H   0  0  0  0  0  0  0  0  0  0  0  0
   -2.5837   -1.5329    1.9118 H   0  0  0  0  0  0  0  0  0  0  0  0
   -0.8035   -1.4159    0.2499 H   0  0  0  0  0  0  0  0  0  0  0  0
   -1.6253   -2.7741   -0.6331 H   0  0  0  0  0  0  0  0  0  0  0  0
   -0.4360   -2.8461    2.2121 H   0  0  0  0  0  0  0  0  0  0  0  0
   -1.4720   -4.1394    1.5274 H   0  0  0  0  0  0  0  0  0  0  0  0
    0.1651   -4.5447   -0.3232 H   0  0  0  0  0  0  0  0  0  0  0  0
    0.8604   -4.7677    1.3048 H   0  0  0  0  0  0  0  0  0  0  0  0
    2.5649   -3.6003    0.2578 H   0  0  0  0  0  0  0  0  0  0  0  0
    1.6894   -2.2860    1.1268 H   0  0  0  0  0  0  0  0  0  0  0  0
    0.6266   -2.6279   -1.5908 H   0  0  0  0  0  0  0  0  0  0  0  0
    3.7793    0.1883   -1.3700 H   0  0  0  0  0  0  0  0  0  0  0  0
    4.8827   -2.1023   -1.7043 H   0  0  0  0  0  0  0  0  0  0  0  0
    4.5041   -2.4715   -0.0002 H   0  0  0  0  0  0  0  0  0  0  0  0
    6.3439   -0.1307   -2.2778 H   0  0  0  0  0  0  0  0  0  0  0  0
    8.3537    1.1240   -1.5980 H   0  0  0  0  0  0  0  0  0  0  0  0
    9.7022    1.2616    1.7958 H   0  0  0  0  0  0  0  0  0  0  0  0
    7.8014   -0.1712    2.4671 H   0  0  0  0  0  0  0  0  0  0  0  0
    5.7924   -1.4286    1.8001 H   0  0  0  0  0  0  0  0  0  0  0  0
    3.4367   -0.7291    1.3762 H   0  0  0  0  0  0  0  0  0  0  0  0
    1.7167    1.2277   -1.3081 H   0  0  0  0  0  0  0  0  0  0  0  0
    2.0280    3.6733   -1.0367 H   0  0  0  0  0  0  0  0  0  0  0  0
    3.4405    2.7545   -0.3951 H   0  0  0  0  0  0  0  0  0  0  0  0
    2.2212    3.4640    0.7479 H   0  0  0  0  0  0  0  0  0  0  0  0
   -0.2375    2.1792    0.7942 H   0  0  0  0  0  0  0  0  0  0  0  0
  1  2  1  0
  2  3  1  0
  2  4  1  0
  4  5  1  0
  5  6  1  0
  6  7  1  0
  7  8  2  0
  7  9  1  0
  9 10  1  0
 10 11  1  0
 11 12  2  0
 12 13  1  0
 13 14  2  0
 14 15  1  0
 15 16  2  0
  9 17  1  0
 17 18  1  0
 18 19  1  0
 19 20  1  0
 20 21  1  0
 21 22  1  0
 22 23  1  0
 23 24  2  0
 23 25  1  0
 25 26  1  0
 26 27  1  0
 27 28  2  0
 28 29  1  0
 29 30  2  0
 30 31  1  0
 30 32  1  0
 32 33  2  0
 25 34  1  0
 34 35  1  0
 35 36  2  0
 35 37  1  0
 37 38  1  0
 37 39  1  0
 39 40  1  0
 40 41  2  0
 40  5  1  0
 16 11  1  0
 33 27  1  0
  1 42  1  0
  1 43  1  0
  1 44  1  0
  2 45  1  0
  3 46  1  0
  3 47  1  0
  3 48  1  0
  4 49  1  0
  4 50  1  0
  5 51  1  6
  6 52  1  0
  9 53  1  6
 10 54  1  0
 10 55  1  0
 12 56  1  0
 13 57  1  0
 14 58  1  0
 15 59  1  0
 16 60  1  0
 17 61  1  0
 18 62  1  0
 18 63  1  0
 19 64  1  0
 19 65  1  0
 20 66  1  0
 20 67  1  0
 21 68  1  0
 21 69  1  0
 22 70  1  0
 25 71  1  6
 26 72  1  0
 26 73  1  0
 28 74  1  0
 29 75  1  0
 31 76  1  0
 32 77  1  0
 33 78  1  0
 34 79  1  0
 37 80  1  6
 38 81  1  0
 38 82  1  0
 38 83  1  0
 39 84  1  0
M  END
$$$$
