
     RDKit          3D

 59 61  0  0  0  0  0  0  0  0999 V2000
    4.4611   -0.3127    2.0957 C   0  0  0  0  0  0  0  0  0  0  0  0
    3.4185   -0.4945    1.1630 O   0  0  0  0  0  0  0  0  0  0  0  0
    2.8877    0.7563    0.7591 C   0  0  1  0  0  0  0  0  0  0  0  0
    3.6651    1.2628   -0.4857 C   0  0  0  0  0  0  0  0  0  0  0  0
    2.7460    1.9490   -1.5055 C   0  0  0  0  0  0  0  0  0  0  0  0
    1.5676    1.0093   -1.8888 C   0  0  2  0  0  0  0  0  0  0  0  0
    0.3037    1.7953   -2.2878 C   0  0  0  0  0  0  0  0  0  0  0  0
   -0.8818    0.8624   -2.6195 C   0  0  0  0  0  0  0  0  0  0  0  0
   -2.1231    1.3890   -2.1483 O   0  0  0  0  0  0  0  0  0  0  0  0
   -2.4466    1.4953   -0.7860 C   0  0  0  0  0  0  0  0  0  0  0  0
   -2.4251    2.7683   -0.1785 C   0  0  0  0  0  0  0  0  0  0  0  0
   -2.0978    3.9458   -0.9441 C   0  0  0  0  0  0  0  0  0  0  0  0
   -1.8352    4.8901   -1.5591 N   0  0  0  0  0  0  0  0  0  0  0  0
   -2.7748    2.9139    1.1675 C   0  0  0  0  0  0  0  0  0  0  0  0
   -3.2083    1.8124    1.9004 C   0  0  0  0  0  0  0  0  0  0  0  0
   -3.2956    0.5601    1.2945 C   0  0  0  0  0  0  0  0  0  0  0  0
   -2.8743    0.3714   -0.0326 C   0  0  0  0  0  0  0  0  0  0  0  0
   -3.1534   -0.9308   -0.6686 C   0  0  0  0  0  0  0  0  0  0  0  0
   -4.3468   -1.1956   -0.9776 O   0  0  0  0  0  0  0  0  0  0  0  0
   -2.1195   -1.8932   -0.9693 N   0  0  0  0  0  0  0  0  0  0  0  0
   -2.1500   -2.4695   -2.3188 C   0  0  0  0  0  0  0  0  0  0  0  0
   -1.4002   -2.6668    0.0735 C   0  0  2  0  0  0  0  0  0  0  0  0
   -2.0650   -2.6272    1.4587 C   0  0  0  0  0  0  0  0  0  0  0  0
    0.0754   -2.3238    0.0999 C   0  0  0  0  0  0  0  0  0  0  0  0
    0.7977   -2.6946   -0.8640 O   0  0  0  0  0  0  0  0  0  0  0  0
    0.7025   -1.6839    1.2254 N   0  0  0  0  0  0  0  0  0  0  0  0
    1.4376   -2.5268    2.1703 C   0  0  0  0  0  0  0  0  0  0  0  0
    0.5801   -0.2327    1.4402 C   0  0  0  0  0  0  0  0  0  0  0  0
    1.3851    0.6025    0.4207 C   0  0  2  0  0  0  0  0  0  0  0  0
    1.2532    0.0599   -0.8770 O   0  0  0  0  0  0  0  0  0  0  0  0
    5.2652    0.3384    1.6869 H   0  0  0  0  0  0  0  0  0  0  0  0
    4.0685    0.1040    3.0492 H   0  0  0  0  0  0  0  0  0  0  0  0
    4.9094   -1.3019    2.3209 H   0  0  0  0  0  0  0  0  0  0  0  0
    2.9507    1.5274    1.5664 H   0  0  0  0  0  0  0  0  0  0  0  0
    4.1641    0.4073   -0.9931 H   0  0  0  0  0  0  0  0  0  0  0  0
    4.4601    1.9716   -0.1684 H   0  0  0  0  0  0  0  0  0  0  0  0
    3.3269    2.2191   -2.4141 H   0  0  0  0  0  0  0  0  0  0  0  0
    2.3683    2.8945   -1.0571 H   0  0  0  0  0  0  0  0  0  0  0  0
    1.8911    0.4288   -2.7805 H   0  0  0  0  0  0  0  0  0  0  0  0
    0.0383    2.4748   -1.4579 H   0  0  0  0  0  0  0  0  0  0  0  0
    0.5259    2.4351   -3.1697 H   0  0  0  0  0  0  0  0  0  0  0  0
   -0.9457    0.7393   -3.7210 H   0  0  0  0  0  0  0  0  0  0  0  0
   -0.7332   -0.1464   -2.1994 H   0  0  0  0  0  0  0  0  0  0  0  0
   -2.7488    3.8886    1.6403 H   0  0  0  0  0  0  0  0  0  0  0  0
   -3.5175    1.9371    2.9300 H   0  0  0  0  0  0  0  0  0  0  0  0
   -3.7213   -0.2596    1.8589 H   0  0  0  0  0  0  0  0  0  0  0  0
   -1.1384   -2.8139   -2.6186 H   0  0  0  0  0  0  0  0  0  0  0  0
   -2.4865   -1.7146   -3.0622 H   0  0  0  0  0  0  0  0  0  0  0  0
   -2.8489   -3.3323   -2.3419 H   0  0  0  0  0  0  0  0  0  0  0  0
   -1.4480   -3.7422   -0.2145 H   0  0  0  0  0  0  0  0  0  0  0  0
   -1.8917   -1.6644    1.9709 H   0  0  0  0  0  0  0  0  0  0  0  0
   -3.1566   -2.8099    1.3688 H   0  0  0  0  0  0  0  0  0  0  0  0
   -1.6427   -3.4290    2.1006 H   0  0  0  0  0  0  0  0  0  0  0  0
    2.2642   -3.0476    1.6425 H   0  0  0  0  0  0  0  0  0  0  0  0
    0.7565   -3.2847    2.6100 H   0  0  0  0  0  0  0  0  0  0  0  0
    1.8729   -1.9280    2.9974 H   0  0  0  0  0  0  0  0  0  0  0  0
    0.8932    0.0455    2.4699 H   0  0  0  0  0  0  0  0  0  0  0  0
   -0.4864    0.0530    1.3595 H   0  0  0  0  0  0  0  0  0  0  0  0
    0.9268    1.6186    0.4688 H   0  0  0  0  0  0  0  0  0  0  0  0
  1  2  1  0
  2  3  1  0
  3  4  1  0
  4  5  1  0
  5  6  1  0
  6  7  1  0
  7  8  1  0
  8  9  1  0
  9 10  1  0
 10 11  2  0
 11 12  1  0
 12 13  3  0
 11 14  1  0
 14 15  2  0
 15 16  1  0
 16 17  2  0
 17 18  1  0
 18 19  2  0
 18 20  1  0
 20 21  1  0
 20 22  1  0
 22 23  1  0
 22 24  1  0
 24 25  2  0
 24 26  1  0
 26 27  1  0
 26 28  1  0
 28 29  1  0
 29 30  1  0
 29  3  1  0
 30  6  1  0
 17 10  1  0
  1 31  1  0
  1 32  1  0
  1 33  1  0
  3 34  1  1
  4 35  1  0
  4 36  1  0
  5 37  1  0
  5 38  1  0
  6 39  1  6
  7 40  1  0
  7 41  1  0
  8 42  1  0
  8 43  1  0
 14 44  1  0
 15 45  1  0
 16 46  1  0
 21 47  1  0
 21 48  1  0
 21 49  1  0
 22 50  1  6
 23 51  1  0
 23 52  1  0
 23 53  1  0
 27 54  1  0
 27 55  1  0
 27 56  1  0
 28 57  1  0
 28 58  1  0
 29 59  1  6
M  END
$$$$
