
     RDKit          3D

 78 81  0  0  0  0  0  0  0  0999 V2000
    8.8498    1.1081   -2.5792 C   0  0  0  0  0  0  0  0  0  0  0  0
    8.0765    1.1791   -1.2902 C   0  0  0  0  0  0  0  0  0  0  0  0
    7.1410    0.1780   -0.9775 C   0  0  0  0  0  0  0  0  0  0  0  0
    6.4280    0.2111    0.2268 C   0  0  0  0  0  0  0  0  0  0  0  0
    5.5199   -0.8240    0.4884 O   0  0  0  0  0  0  0  0  0  0  0  0
    4.8063   -0.9860    1.7113 C   0  0  0  0  0  0  0  0  0  0  0  0
    3.9580   -2.2518    1.6385 C   0  0  0  0  0  0  0  0  0  0  0  0
    2.9246   -2.1119    0.6161 N   0  0  0  0  0  0  0  0  0  0  0  0
    1.7085   -1.3878    0.8501 C   0  0  0  0  0  0  0  0  0  0  0  0
    1.4051   -1.0242    2.0207 O   0  0  0  0  0  0  0  0  0  0  0  0
    0.7589   -1.1249   -0.2972 C   0  0  0  0  0  0  0  0  0  0  0  0
   -0.1351   -2.3581   -0.5422 C   0  0  0  0  0  0  0  0  0  0  0  0
   -1.0674   -2.6116    0.6162 C   0  0  0  0  0  0  0  0  0  0  0  0
   -0.6615   -3.3144    1.5802 O   0  0  0  0  0  0  0  0  0  0  0  0
   -2.3606   -1.9908    0.7049 N   0  0  0  0  0  0  0  0  0  0  0  0
   -3.2726   -1.8392   -0.4401 C   0  0  0  0  0  0  0  0  0  0  0  0
   -3.7452   -3.2419   -0.9262 C   0  0  0  0  0  0  0  0  0  0  0  0
   -4.5621   -4.0058    0.1288 C   0  0  0  0  0  0  0  0  0  0  0  0
   -4.5080   -3.1837   -2.2551 C   0  0  0  0  0  0  0  0  0  0  0  0
   -4.4033   -0.8970   -0.0764 C   0  0  0  0  0  0  0  0  0  0  0  0
   -5.0538   -1.0719    0.9881 O   0  0  0  0  0  0  0  0  0  0  0  0
   -4.7146    0.2313   -0.9091 N   0  0  0  0  0  0  0  0  0  0  0  0
   -5.5753    0.0877   -2.0696 C   0  0  0  0  0  0  0  0  0  0  0  0
   -6.2812    1.4237   -2.2501 C   0  0  0  0  0  0  0  0  0  0  0  0
   -5.5391    2.4237   -1.3718 C   0  0  0  0  0  0  0  0  0  0  0  0
   -4.6748    1.6001   -0.4076 C   0  0  0  0  0  0  0  0  0  0  0  0
   -3.2371    2.1378   -0.3683 C   0  0  0  0  0  0  0  0  0  0  0  0
   -2.4763    1.4833    0.6442 O   0  0  0  0  0  0  0  0  0  0  0  0
   -1.6555    2.1977    1.5181 C   0  0  0  0  0  0  0  0  0  0  0  0
   -2.2653    3.0112    2.4855 C   0  0  0  0  0  0  0  0  0  0  0  0
   -1.4933    3.7767    3.3575 C   0  0  0  0  0  0  0  0  0  0  0  0
   -0.1033    3.7370    3.2746 C   0  0  0  0  0  0  0  0  0  0  0  0
    0.5184    2.9282    2.3222 C   0  0  0  0  0  0  0  0  0  0  0  0
   -0.2401    2.1405    1.4314 C   0  0  0  0  0  0  0  0  0  0  0  0
    0.4899    1.2985    0.4417 C   0  0  0  0  0  0  0  0  0  0  0  0
    1.6589    1.6288    0.0956 O   0  0  0  0  0  0  0  0  0  0  0  0
   -0.0605    0.0723   -0.0627 N   0  0  0  0  0  0  0  0  0  0  0  0
    6.6459    1.2681    1.1276 C   0  0  0  0  0  0  0  0  0  0  0  0
    7.5716    2.2693    0.8236 C   0  0  0  0  0  0  0  0  0  0  0  0
    8.2898    2.2310   -0.3771 C   0  0  0  0  0  0  0  0  0  0  0  0
    9.4573    3.5090   -0.7033 Cl  0  0  0  0  0  0  0  0  0  0  0  0
    8.6860    2.0354   -3.1707 H   0  0  0  0  0  0  0  0  0  0  0  0
    8.5324    0.2430   -3.1987 H   0  0  0  0  0  0  0  0  0  0  0  0
    9.9327    0.9990   -2.3579 H   0  0  0  0  0  0  0  0  0  0  0  0
    6.9687   -0.6396   -1.6662 H   0  0  0  0  0  0  0  0  0  0  0  0
    5.5265   -1.0822    2.5511 H   0  0  0  0  0  0  0  0  0  0  0  0
    4.1532   -0.1049    1.8898 H   0  0  0  0  0  0  0  0  0  0  0  0
    3.4937   -2.4598    2.6271 H   0  0  0  0  0  0  0  0  0  0  0  0
    4.6115   -3.1154    1.3852 H   0  0  0  0  0  0  0  0  0  0  0  0
    3.0940   -2.5303   -0.3258 H   0  0  0  0  0  0  0  0  0  0  0  0
    1.3647   -0.9510   -1.2127 H   0  0  0  0  0  0  0  0  0  0  0  0
    0.5047   -3.2548   -0.6974 H   0  0  0  0  0  0  0  0  0  0  0  0
   -0.7002   -2.2258   -1.4852 H   0  0  0  0  0  0  0  0  0  0  0  0
   -2.7357   -1.8413    1.6687 H   0  0  0  0  0  0  0  0  0  0  0  0
   -2.7214   -1.3534   -1.2713 H   0  0  0  0  0  0  0  0  0  0  0  0
   -2.8302   -3.8433   -1.1252 H   0  0  0  0  0  0  0  0  0  0  0  0
   -4.7572   -5.0414   -0.2229 H   0  0  0  0  0  0  0  0  0  0  0  0
   -4.0016   -4.0716    1.0857 H   0  0  0  0  0  0  0  0  0  0  0  0
   -5.5406   -3.5145    0.3114 H   0  0  0  0  0  0  0  0  0  0  0  0
   -4.5897   -4.2057   -2.6841 H   0  0  0  0  0  0  0  0  0  0  0  0
   -5.5354   -2.7977   -2.1057 H   0  0  0  0  0  0  0  0  0  0  0  0
   -3.9706   -2.5467   -2.9895 H   0  0  0  0  0  0  0  0  0  0  0  0
   -6.3371   -0.7016   -1.8980 H   0  0  0  0  0  0  0  0  0  0  0  0
   -4.9592   -0.1608   -2.9608 H   0  0  0  0  0  0  0  0  0  0  0  0
   -6.2711    1.7384   -3.3168 H   0  0  0  0  0  0  0  0  0  0  0  0
   -7.3381    1.3400   -1.9099 H   0  0  0  0  0  0  0  0  0  0  0  0
   -4.9201    3.0804   -2.0235 H   0  0  0  0  0  0  0  0  0  0  0  0
   -6.2557    3.0637   -0.8120 H   0  0  0  0  0  0  0  0  0  0  0  0
   -5.1176    1.6437    0.6125 H   0  0  0  0  0  0  0  0  0  0  0  0
   -2.7408    1.9757   -1.3498 H   0  0  0  0  0  0  0  0  0  0  0  0
   -3.2696    3.2342   -0.1764 H   0  0  0  0  0  0  0  0  0  0  0  0
   -3.3447    3.0521    2.5540 H   0  0  0  0  0  0  0  0  0  0  0  0
   -1.9739    4.4045    4.0958 H   0  0  0  0  0  0  0  0  0  0  0  0
    0.4954    4.3295    3.9540 H   0  0  0  0  0  0  0  0  0  0  0  0
    1.6011    2.9072    2.2914 H   0  0  0  0  0  0  0  0  0  0  0  0
   -1.0169    0.0868   -0.4679 H   0  0  0  0  0  0  0  0  0  0  0  0
    6.1072    1.3250    2.0642 H   0  0  0  0  0  0  0  0  0  0  0  0
    7.7328    3.0760    1.5267 H   0  0  0  0  0  0  0  0  0  0  0  0
  1  2  1  0
  2  3  2  0
  3  4  1  0
  4  5  1  0
  5  6  1  0
  6  7  1  0
  7  8  1  0
  8  9  1  0
  9 10  2  0
  9 11  1  0
 11 12  1  0
 12 13  1  0
 13 14  2  0
 13 15  1  0
 15 16  1  0
 16 17  1  0
 17 18  1  0
 17 19  1  0
 16 20  1  0
 20 21  2  0
 20 22  1  0
 22 23  1  0
 23 24  1  0
 24 25  1  0
 25 26  1  0
 26 27  1  0
 27 28  1  0
 28 29  1  0
 29 30  2  0
 30 31  1  0
 31 32  2  0
 32 33  1  0
 33 34  2  0
 34 35  1  0
 35 36  2  0
 35 37  1  0
  4 38  2  0
 38 39  1  0
 39 40  2  0
 40 41  1  0
 40  2  1  0
 37 11  1  0
 26 22  1  0
 34 29  1  0
  1 42  1  0
  1 43  1  0
  1 44  1  0
  3 45  1  0
  6 46  1  0
  6 47  1  0
  7 48  1  0
  7 49  1  0
  8 50  1  0
 11 51  1  0
 12 52  1  0
 12 53  1  0
 15 54  1  0
 16 55  1  0
 17 56  1  0
 18 57  1  0
 18 58  1  0
 18 59  1  0
 19 60  1  0
 19 61  1  0
 19 62  1  0
 23 63  1  0
 23 64  1  0
 24 65  1  0
 24 66  1  0
 25 67  1  0
 25 68  1  0
 26 69  1  0
 27 70  1  0
 27 71  1  0
 30 72  1  0
 31 73  1  0
 32 74  1  0
 33 75  1  0
 37 76  1  0
 38 77  1  0
 39 78  1  0
M  END
$$$$
