
     RDKit          3D

 79 82  0  0  0  0  0  0  0  0999 V2000
    6.2252   -2.1501   -0.3763 C   0  0  0  0  0  0  0  0  0  0  0  0
    4.9790   -1.4922   -0.9964 C   0  0  0  0  0  0  0  0  0  0  0  0
    4.3665   -2.4271   -2.0467 C   0  0  0  0  0  0  0  0  0  0  0  0
    3.9257   -1.0229    0.0530 C   0  0  2  0  0  0  0  0  0  0  0  0
    4.4196    0.1809    0.7362 N   0  0  0  0  0  0  0  0  0  0  0  0
    3.5396    1.2136    1.1959 C   0  0  0  0  0  0  0  0  0  0  0  0
    3.2453    1.2427    2.4204 O   0  0  0  0  0  0  0  0  0  0  0  0
    3.0462    2.3373    0.2840 C   0  0  0  0  0  0  0  0  0  0  0  0
    3.3886    2.0553   -1.1970 C   0  0  0  0  0  0  0  0  0  0  0  0
    3.7354    3.6451    0.7186 C   0  0  0  0  0  0  0  0  0  0  0  0
    1.5414    2.4725    0.4555 C   0  0  0  0  0  0  0  0  0  0  0  0
    0.7708    3.3127   -0.2581 C   0  0  0  0  0  0  0  0  0  0  0  0
   -0.7044    3.3612   -0.0991 C   0  0  0  0  0  0  0  0  0  0  0  0
   -1.4112    4.5283   -0.4421 C   0  0  0  0  0  0  0  0  0  0  0  0
   -2.8052    4.5912   -0.2879 C   0  0  0  0  0  0  0  0  0  0  0  0
   -3.5076    3.4830    0.2078 C   0  0  0  0  0  0  0  0  0  0  0  0
   -4.8981    3.5031    0.3961 C   0  0  0  0  0  0  0  0  0  0  0  0
   -5.5532    2.3669    0.8927 C   0  0  0  0  0  0  0  0  0  0  0  0
   -4.8107    1.2076    1.1827 C   0  0  0  0  0  0  0  0  0  0  0  0
   -3.4659    1.2342    1.0151 N   0  0  0  0  0  0  0  0  0  0  0  0
   -2.8031    2.3114    0.5336 C   0  0  0  0  0  0  0  0  0  0  0  0
   -1.4233    2.2448    0.3629 C   0  0  0  0  0  0  0  0  0  0  0  0
   -5.4464   -0.0368    1.7620 C   0  0  1  0  0  0  0  0  0  0  0  0
   -6.6278   -0.5344    0.9168 C   0  0  0  0  0  0  0  0  0  0  0  0
   -4.4634   -1.0713    1.9595 O   0  0  0  0  0  0  0  0  0  0  0  0
   -4.0235   -1.9516    0.9579 C   0  0  0  0  0  0  0  0  0  0  0  0
   -4.6984   -2.9859    0.7059 O   0  0  0  0  0  0  0  0  0  0  0  0
   -2.7680   -1.6605    0.1664 C   0  0  2  0  0  0  0  0  0  0  0  0
   -3.1339   -1.2169   -1.2779 C   0  0  0  0  0  0  0  0  0  0  0  0
   -2.8427   -2.3189   -2.2950 C   0  0  0  0  0  0  0  0  0  0  0  0
   -1.3570   -2.6740   -2.2334 C   0  0  0  0  0  0  0  0  0  0  0  0
   -0.8872   -2.6881   -0.8385 N   0  0  0  0  0  0  0  0  0  0  0  0
   -1.8259   -2.8012    0.2123 N   0  0  0  0  0  0  0  0  0  0  0  0
    0.5256   -2.6049   -0.5598 C   0  0  0  0  0  0  0  0  0  0  0  0
    1.3353   -2.5095   -1.5208 O   0  0  0  0  0  0  0  0  0  0  0  0
    1.0596   -2.6140    0.8545 C   0  0  2  0  0  0  0  0  0  0  0  0
    0.8126   -1.2761    1.5597 C   0  0  0  0  0  0  0  0  0  0  0  0
    2.4822   -3.0035    0.8827 N   0  0  0  0  0  0  0  0  0  0  0  0
    3.5883   -2.1003    1.0670 C   0  0  0  0  0  0  0  0  0  0  0  0
    4.3500   -2.2745    2.0559 O   0  0  0  0  0  0  0  0  0  0  0  0
    5.9696   -3.1209    0.0998 H   0  0  0  0  0  0  0  0  0  0  0  0
    6.6974   -1.4900    0.3809 H   0  0  0  0  0  0  0  0  0  0  0  0
    6.9822   -2.3423   -1.1657 H   0  0  0  0  0  0  0  0  0  0  0  0
    5.3286   -0.5899   -1.5472 H   0  0  0  0  0  0  0  0  0  0  0  0
    3.5689   -1.8973   -2.6096 H   0  0  0  0  0  0  0  0  0  0  0  0
    5.1380   -2.7369   -2.7828 H   0  0  0  0  0  0  0  0  0  0  0  0
    3.9474   -3.3372   -1.5699 H   0  0  0  0  0  0  0  0  0  0  0  0
    2.9978   -0.7627   -0.4922 H   0  0  0  0  0  0  0  0  0  0  0  0
    5.3338    0.1177    1.2351 H   0  0  0  0  0  0  0  0  0  0  0  0
    4.4723    1.8415   -1.3183 H   0  0  0  0  0  0  0  0  0  0  0  0
    3.1530    2.9344   -1.8338 H   0  0  0  0  0  0  0  0  0  0  0  0
    2.8015    1.1991   -1.5885 H   0  0  0  0  0  0  0  0  0  0  0  0
    3.4720    3.9020    1.7679 H   0  0  0  0  0  0  0  0  0  0  0  0
    4.8402    3.5409    0.6496 H   0  0  0  0  0  0  0  0  0  0  0  0
    3.4270    4.4930    0.0701 H   0  0  0  0  0  0  0  0  0  0  0  0
    1.0752    1.8775    1.2286 H   0  0  0  0  0  0  0  0  0  0  0  0
    1.2306    3.9935   -0.9628 H   0  0  0  0  0  0  0  0  0  0  0  0
   -0.8823    5.3953   -0.8180 H   0  0  0  0  0  0  0  0  0  0  0  0
   -3.3282    5.5037   -0.5478 H   0  0  0  0  0  0  0  0  0  0  0  0
   -5.4741    4.3927    0.1679 H   0  0  0  0  0  0  0  0  0  0  0  0
   -6.6229    2.3981    1.0538 H   0  0  0  0  0  0  0  0  0  0  0  0
   -0.9268    1.3090    0.5768 H   0  0  0  0  0  0  0  0  0  0  0  0
   -5.8406    0.2357    2.7648 H   0  0  0  0  0  0  0  0  0  0  0  0
   -7.4653    0.1915    0.9472 H   0  0  0  0  0  0  0  0  0  0  0  0
   -7.0007   -1.4988    1.3208 H   0  0  0  0  0  0  0  0  0  0  0  0
   -6.3208   -0.6822   -0.1402 H   0  0  0  0  0  0  0  0  0  0  0  0
   -2.2507   -0.8192    0.6598 H   0  0  0  0  0  0  0  0  0  0  0  0
   -4.2007   -0.9110   -1.3598 H   0  0  0  0  0  0  0  0  0  0  0  0
   -2.5274   -0.3210   -1.5469 H   0  0  0  0  0  0  0  0  0  0  0  0
   -3.1069   -1.9711   -3.3170 H   0  0  0  0  0  0  0  0  0  0  0  0
   -3.4613   -3.2140   -2.0663 H   0  0  0  0  0  0  0  0  0  0  0  0
   -0.7944   -1.9046   -2.8084 H   0  0  0  0  0  0  0  0  0  0  0  0
   -1.1825   -3.6666   -2.7001 H   0  0  0  0  0  0  0  0  0  0  0  0
   -2.3343   -3.7072    0.0774 H   0  0  0  0  0  0  0  0  0  0  0  0
    0.4925   -3.3888    1.4161 H   0  0  0  0  0  0  0  0  0  0  0  0
    1.1651   -0.4358    0.9343 H   0  0  0  0  0  0  0  0  0  0  0  0
    1.3348   -1.2546    2.5387 H   0  0  0  0  0  0  0  0  0  0  0  0
   -0.2665   -1.1379    1.7591 H   0  0  0  0  0  0  0  0  0  0  0  0
    2.6785   -4.0125    1.0748 H   0  0  0  0  0  0  0  0  0  0  0  0
  1  2  1  0
  2  3  1  0
  2  4  1  0
  4  5  1  0
  5  6  1  0
  6  7  2  0
  6  8  1  0
  8  9  1  0
  8 10  1  0
  8 11  1  0
 11 12  2  0
 12 13  1  0
 13 14  2  0
 14 15  1  0
 15 16  2  0
 16 17  1  0
 17 18  2  0
 18 19  1  0
 19 20  2  0
 20 21  1  0
 21 22  2  0
 19 23  1  0
 23 24  1  0
 23 25  1  0
 25 26  1  0
 26 27  2  0
 26 28  1  0
 28 29  1  0
 29 30  1  0
 30 31  1  0
 31 32  1  0
 32 33  1  0
 32 34  1  0
 34 35  2  0
 34 36  1  0
 36 37  1  0
 36 38  1  0
 38 39  1  0
 39 40  2  0
 39  4  1  0
 22 13  1  0
 33 28  1  0
 21 16  1  0
  1 41  1  0
  1 42  1  0
  1 43  1  0
  2 44  1  0
  3 45  1  0
  3 46  1  0
  3 47  1  0
  4 48  1  6
  5 49  1  0
  9 50  1  0
  9 51  1  0
  9 52  1  0
 10 53  1  0
 10 54  1  0
 10 55  1  0
 11 56  1  0
 12 57  1  0
 14 58  1  0
 15 59  1  0
 17 60  1  0
 18 61  1  0
 22 62  1  0
 23 63  1  1
 24 64  1  0
 24 65  1  0
 24 66  1  0
 28 67  1  1
 29 68  1  0
 29 69  1  0
 30 70  1  0
 30 71  1  0
 31 72  1  0
 31 73  1  0
 33 74  1  0
 36 75  1  1
 37 76  1  0
 37 77  1  0
 37 78  1  0
 38 79  1  0
M  END
$$$$
