
     RDKit          3D

 71 73  0  0  0  0  0  0  0  0999 V2000
   -7.6598    2.3914   -0.2301 C   0  0  0  0  0  0  0  0  0  0  0  0
   -6.5179    1.6075    0.0439 O   0  0  0  0  0  0  0  0  0  0  0  0
   -5.3758    2.1314   -0.6118 C   0  0  0  0  0  0  0  0  0  0  0  0
   -4.7786    1.0790   -1.4968 C   0  0  0  0  0  0  0  0  0  0  0  0
   -5.5320    0.4108   -2.2552 O   0  0  0  0  0  0  0  0  0  0  0  0
   -3.3574    0.8207   -1.4945 N   0  0  0  0  0  0  0  0  0  0  0  0
   -2.9080   -0.5785   -1.2909 C   0  0  0  0  0  0  0  0  0  0  0  0
   -2.7543   -0.9466    0.2152 C   0  0  1  0  0  0  0  0  0  0  0  0
   -4.1458   -1.0505    0.8818 C   0  0  0  0  0  0  0  0  0  0  0  0
   -1.9666   -2.2906    0.3988 C   0  0  2  0  0  0  0  0  0  0  0  0
   -2.2577   -2.8314    1.6819 O   0  0  0  0  0  0  0  0  0  0  0  0
   -2.4589   -4.2268    1.6135 C   0  0  0  0  0  0  0  0  0  0  0  0
   -0.4240   -2.1091    0.3331 C   0  0  0  0  0  0  0  0  0  0  0  0
    0.1368   -2.0877   -1.0339 N   0  0  0  0  0  0  0  0  0  0  0  0
   -0.1091   -3.2316   -1.9271 C   0  0  0  0  0  0  0  0  0  0  0  0
    1.2613   -1.2267   -1.3548 C   0  0  0  0  0  0  0  0  0  0  0  0
    1.9462   -1.4441   -2.3926 O   0  0  0  0  0  0  0  0  0  0  0  0
    1.6727   -0.1081   -0.4840 C   0  0  0  0  0  0  0  0  0  0  0  0
    2.9311   -0.1364    0.1316 C   0  0  0  0  0  0  0  0  0  0  0  0
    3.3381    0.9100    0.9816 C   0  0  0  0  0  0  0  0  0  0  0  0
    4.6283    0.9131    1.6208 N   0  0  0  0  0  0  0  0  0  0  0  0
    5.5020   -0.2250    1.6607 C   0  0  0  0  0  0  0  0  0  0  0  0
    5.0199   -1.3602    1.9281 O   0  0  0  0  0  0  0  0  0  0  0  0
    6.9606   -0.0838    1.4061 C   0  0  0  0  0  0  0  0  0  0  0  0
    7.5516    1.1818    1.1941 C   0  0  0  0  0  0  0  0  0  0  0  0
    8.9242    1.2902    0.9420 C   0  0  0  0  0  0  0  0  0  0  0  0
    9.7209    0.1449    0.8843 C   0  0  0  0  0  0  0  0  0  0  0  0
    9.1485   -1.1139    1.0811 C   0  0  0  0  0  0  0  0  0  0  0  0
    7.7791   -1.2301    1.3440 C   0  0  0  0  0  0  0  0  0  0  0  0
    2.4756    2.0002    1.1729 C   0  0  0  0  0  0  0  0  0  0  0  0
    1.2362    2.0491    0.5321 C   0  0  0  0  0  0  0  0  0  0  0  0
    0.8277    0.9974   -0.3042 C   0  0  0  0  0  0  0  0  0  0  0  0
   -0.3929    1.0170   -0.9891 O   0  0  0  0  0  0  0  0  0  0  0  0
   -1.2870    2.1196   -1.0528 C   0  0  0  0  0  0  0  0  0  0  0  0
   -2.3983    1.8036   -2.0618 C   0  0  2  0  0  0  0  0  0  0  0  0
   -3.0478    3.1157   -2.5425 C   0  0  0  0  0  0  0  0  0  0  0  0
   -7.8920    2.3846   -1.3194 H   0  0  0  0  0  0  0  0  0  0  0  0
   -8.5285    1.9587    0.3071 H   0  0  0  0  0  0  0  0  0  0  0  0
   -7.5218    3.4341    0.1310 H   0  0  0  0  0  0  0  0  0  0  0  0
   -5.5774    3.0393   -1.2228 H   0  0  0  0  0  0  0  0  0  0  0  0
   -4.6328    2.4172    0.1614 H   0  0  0  0  0  0  0  0  0  0  0  0
   -1.9432   -0.7375   -1.8150 H   0  0  0  0  0  0  0  0  0  0  0  0
   -3.6165   -1.2847   -1.7819 H   0  0  0  0  0  0  0  0  0  0  0  0
   -2.2137   -0.1268    0.7363 H   0  0  0  0  0  0  0  0  0  0  0  0
   -4.7062   -0.0979    0.8073 H   0  0  0  0  0  0  0  0  0  0  0  0
   -4.0377   -1.2315    1.9721 H   0  0  0  0  0  0  0  0  0  0  0  0
   -4.7445   -1.8739    0.4273 H   0  0  0  0  0  0  0  0  0  0  0  0
   -2.3180   -2.9636   -0.4122 H   0  0  0  0  0  0  0  0  0  0  0  0
   -1.5858   -4.7442    1.1521 H   0  0  0  0  0  0  0  0  0  0  0  0
   -3.3916   -4.4592    1.0535 H   0  0  0  0  0  0  0  0  0  0  0  0
   -2.5764   -4.6136    2.6446 H   0  0  0  0  0  0  0  0  0  0  0  0
    0.0605   -2.9492    0.8760 H   0  0  0  0  0  0  0  0  0  0  0  0
   -0.1519   -1.2012    0.9035 H   0  0  0  0  0  0  0  0  0  0  0  0
   -0.7222   -4.0150   -1.4413 H   0  0  0  0  0  0  0  0  0  0  0  0
   -0.6260   -2.8839   -2.8474 H   0  0  0  0  0  0  0  0  0  0  0  0
    0.8510   -3.7185   -2.2003 H   0  0  0  0  0  0  0  0  0  0  0  0
    3.5892   -0.9738   -0.0623 H   0  0  0  0  0  0  0  0  0  0  0  0
    4.9441    1.7908    2.0905 H   0  0  0  0  0  0  0  0  0  0  0  0
    6.9664    2.0929    1.2142 H   0  0  0  0  0  0  0  0  0  0  0  0
    9.3679    2.2635    0.7840 H   0  0  0  0  0  0  0  0  0  0  0  0
   10.7812    0.2334    0.6850 H   0  0  0  0  0  0  0  0  0  0  0  0
    9.7696   -2.0000    1.0247 H   0  0  0  0  0  0  0  0  0  0  0  0
    7.3582   -2.2208    1.4897 H   0  0  0  0  0  0  0  0  0  0  0  0
    2.7691    2.8229    1.8123 H   0  0  0  0  0  0  0  0  0  0  0  0
    0.6012    2.9119    0.6915 H   0  0  0  0  0  0  0  0  0  0  0  0
   -1.7225    2.3141   -0.0506 H   0  0  0  0  0  0  0  0  0  0  0  0
   -0.7186    3.0168   -1.3771 H   0  0  0  0  0  0  0  0  0  0  0  0
   -1.9340    1.3540   -2.9686 H   0  0  0  0  0  0  0  0  0  0  0  0
   -2.3091    3.7132   -3.1162 H   0  0  0  0  0  0  0  0  0  0  0  0
   -3.8974    2.9116   -3.2242 H   0  0  0  0  0  0  0  0  0  0  0  0
   -3.3795    3.7341   -1.6838 H   0  0  0  0  0  0  0  0  0  0  0  0
  1  2  1  0
  2  3  1  0
  3  4  1  0
  4  5  2  0
  4  6  1  0
  6  7  1  0
  7  8  1  0
  8  9  1  0
  8 10  1  0
 10 11  1  0
 11 12  1  0
 10 13  1  0
 13 14  1  0
 14 15  1  0
 14 16  1  0
 16 17  2  0
 16 18  1  0
 18 19  2  0
 19 20  1  0
 20 21  1  0
 21 22  1  0
 22 23  2  0
 22 24  1  0
 24 25  2  0
 25 26  1  0
 26 27  2  0
 27 28  1  0
 28 29  2  0
 20 30  2  0
 30 31  1  0
 31 32  2  0
 32 33  1  0
 33 34  1  0
 34 35  1  0
 35 36  1  0
 35  6  1  0
 32 18  1  0
 29 24  1  0
  1 37  1  0
  1 38  1  0
  1 39  1  0
  3 40  1  0
  3 41  1  0
  7 42  1  0
  7 43  1  0
  8 44  1  1
  9 45  1  0
  9 46  1  0
  9 47  1  0
 10 48  1  6
 12 49  1  0
 12 50  1  0
 12 51  1  0
 13 52  1  0
 13 53  1  0
 15 54  1  0
 15 55  1  0
 15 56  1  0
 19 57  1  0
 21 58  1  0
 25 59  1  0
 26 60  1  0
 27 61  1  0
 28 62  1  0
 29 63  1  0
 30 64  1  0
 31 65  1  0
 34 66  1  0
 34 67  1  0
 35 68  1  6
 36 69  1  0
 36 70  1  0
 36 71  1  0
M  END
$$$$
