
     RDKit          3D

 84 86  0  0  0  0  0  0  0  0999 V2000
   -4.4821   -1.4162    2.1255 C   0  0  0  0  0  0  0  0  0  0  0  0
   -4.2889   -1.5920    0.6146 C   0  0  0  0  0  0  0  0  0  0  0  0
   -5.3075   -2.6151    0.0819 C   0  0  0  0  0  0  0  0  0  0  0  0
   -2.8254   -2.0129    0.3125 C   0  0  0  0  0  0  0  0  0  0  0  0
   -2.4669   -2.0830   -1.1971 C   0  0  2  0  0  0  0  0  0  0  0  0
   -1.0913   -2.5984   -1.3786 N   0  0  0  0  0  0  0  0  0  0  0  0
   -1.0819   -4.0718   -1.4373 C   0  0  0  0  0  0  0  0  0  0  0  0
    0.3126   -4.6351   -1.7606 C   0  0  0  0  0  0  0  0  0  0  0  0
    1.2389   -4.7723   -0.5350 C   0  0  0  0  0  0  0  0  0  0  0  0
    2.0481   -3.5040   -0.2155 C   0  0  0  0  0  0  0  0  0  0  0  0
    1.2652   -2.5075    0.5117 N   0  0  0  0  0  0  0  0  0  0  0  0
    1.8397   -1.2924    1.0272 C   0  0  0  0  0  0  0  0  0  0  0  0
    1.1875   -0.6296    1.8789 O   0  0  0  0  0  0  0  0  0  0  0  0
    3.2003   -0.7999    0.5693 C   0  0  2  0  0  0  0  0  0  0  0  0
    3.9297    0.0353    1.6447 C   0  0  0  0  0  0  0  0  0  0  0  0
    5.3165    0.4416    1.2032 C   0  0  0  0  0  0  0  0  0  0  0  0
    6.3301   -0.5227    1.0792 C   0  0  0  0  0  0  0  0  0  0  0  0
    7.6078   -0.1516    0.6545 C   0  0  0  0  0  0  0  0  0  0  0  0
    7.8849    1.1853    0.3499 C   0  0  0  0  0  0  0  0  0  0  0  0
    6.8867    2.1525    0.4764 C   0  0  0  0  0  0  0  0  0  0  0  0
    5.6085    1.7846    0.9018 C   0  0  0  0  0  0  0  0  0  0  0  0
    3.0980   -0.1009   -0.7258 N   0  0  0  0  0  0  0  0  0  0  0  0
    2.8191    1.2998   -0.9152 C   0  0  0  0  0  0  0  0  0  0  0  0
    3.5587    1.9619   -1.6947 O   0  0  0  0  0  0  0  0  0  0  0  0
    1.5984    1.9695   -0.3340 C   0  0  1  0  0  0  0  0  0  0  0  0
    1.9848    3.2276    0.4516 C   0  0  0  0  0  0  0  0  0  0  0  0
    0.7024    2.3593   -1.4327 N   0  0  0  0  0  0  0  0  0  0  0  0
   -0.6667    1.9355   -1.5992 C   0  0  0  0  0  0  0  0  0  0  0  0
   -1.3055    2.3656   -2.6008 O   0  0  0  0  0  0  0  0  0  0  0  0
   -1.3806    1.0323   -0.6137 C   0  0  1  0  0  0  0  0  0  0  0  0
   -1.7300    1.7690    0.7012 C   0  0  0  0  0  0  0  0  0  0  0  0
   -2.6939    2.9197    0.5141 C   0  0  0  0  0  0  0  0  0  0  0  0
   -4.0729    2.7344    0.7075 C   0  0  0  0  0  0  0  0  0  0  0  0
   -4.9588    3.7997    0.5216 C   0  0  0  0  0  0  0  0  0  0  0  0
   -4.4763    5.0624    0.1509 C   0  0  0  0  0  0  0  0  0  0  0  0
   -5.3466    6.1309   -0.0385 O   0  0  0  0  0  0  0  0  0  0  0  0
   -3.1033    5.2528   -0.0363 C   0  0  0  0  0  0  0  0  0  0  0  0
   -2.2152    4.1870    0.1404 C   0  0  0  0  0  0  0  0  0  0  0  0
   -2.6053    0.4993   -1.2207 N   0  0  0  0  0  0  0  0  0  0  0  0
   -2.6435   -0.7555   -1.9144 C   0  0  0  0  0  0  0  0  0  0  0  0
   -2.8800   -0.7596   -3.1526 O   0  0  0  0  0  0  0  0  0  0  0  0
   -3.7824   -0.6485    2.5216 H   0  0  0  0  0  0  0  0  0  0  0  0
   -5.5156   -1.0710    2.3463 H   0  0  0  0  0  0  0  0  0  0  0  0
   -4.2999   -2.3765    2.6562 H   0  0  0  0  0  0  0  0  0  0  0  0
   -4.5087   -0.6160    0.1387 H   0  0  0  0  0  0  0  0  0  0  0  0
   -6.3329   -2.3555    0.4286 H   0  0  0  0  0  0  0  0  0  0  0  0
   -5.3292   -2.6058   -1.0298 H   0  0  0  0  0  0  0  0  0  0  0  0
   -5.0597   -3.6374    0.4407 H   0  0  0  0  0  0  0  0  0  0  0  0
   -2.1186   -1.3243    0.8218 H   0  0  0  0  0  0  0  0  0  0  0  0
   -2.6595   -3.0084    0.7732 H   0  0  0  0  0  0  0  0  0  0  0  0
   -3.1858   -2.7721   -1.6849 H   0  0  0  0  0  0  0  0  0  0  0  0
   -0.7241   -2.2601   -2.2987 H   0  0  0  0  0  0  0  0  0  0  0  0
   -1.4471   -4.5068   -0.4813 H   0  0  0  0  0  0  0  0  0  0  0  0
   -1.7699   -4.4245   -2.2427 H   0  0  0  0  0  0  0  0  0  0  0  0
    0.1604   -5.6624   -2.1689 H   0  0  0  0  0  0  0  0  0  0  0  0
    0.8035   -4.0455   -2.5658 H   0  0  0  0  0  0  0  0  0  0  0  0
    0.6751   -5.1151    0.3613 H   0  0  0  0  0  0  0  0  0  0  0  0
    1.9696   -5.5768   -0.7653 H   0  0  0  0  0  0  0  0  0  0  0  0
    2.4587   -3.0609   -1.1435 H   0  0  0  0  0  0  0  0  0  0  0  0
    2.8994   -3.8116    0.4314 H   0  0  0  0  0  0  0  0  0  0  0  0
    0.2938   -2.7442    0.8047 H   0  0  0  0  0  0  0  0  0  0  0  0
    3.8350   -1.7015    0.4181 H   0  0  0  0  0  0  0  0  0  0  0  0
    3.3221    0.9251    1.9169 H   0  0  0  0  0  0  0  0  0  0  0  0
    4.0201   -0.5743    2.5702 H   0  0  0  0  0  0  0  0  0  0  0  0
    6.1303   -1.5610    1.3142 H   0  0  0  0  0  0  0  0  0  0  0  0
    8.3811   -0.9005    0.5525 H   0  0  0  0  0  0  0  0  0  0  0  0
    8.8746    1.4716    0.0173 H   0  0  0  0  0  0  0  0  0  0  0  0
    7.1013    3.1896    0.2449 H   0  0  0  0  0  0  0  0  0  0  0  0
    4.8476    2.5459    0.9961 H   0  0  0  0  0  0  0  0  0  0  0  0
    3.5234   -0.5950   -1.5468 H   0  0  0  0  0  0  0  0  0  0  0  0
    1.1014    1.2791    0.3563 H   0  0  0  0  0  0  0  0  0  0  0  0
    1.0718    3.7375    0.8255 H   0  0  0  0  0  0  0  0  0  0  0  0
    2.5318    3.9442   -0.1955 H   0  0  0  0  0  0  0  0  0  0  0  0
    2.6104    2.9772    1.3314 H   0  0  0  0  0  0  0  0  0  0  0  0
    1.0758    3.0293   -2.1425 H   0  0  0  0  0  0  0  0  0  0  0  0
   -0.7095    0.1842   -0.3683 H   0  0  0  0  0  0  0  0  0  0  0  0
   -0.8106    2.1469    1.1914 H   0  0  0  0  0  0  0  0  0  0  0  0
   -2.1572    1.0432    1.4255 H   0  0  0  0  0  0  0  0  0  0  0  0
   -4.4651    1.7663    0.9974 H   0  0  0  0  0  0  0  0  0  0  0  0
   -6.0181    3.6411    0.6647 H   0  0  0  0  0  0  0  0  0  0  0  0
   -6.3498    6.0345    0.0931 H   0  0  0  0  0  0  0  0  0  0  0  0
   -2.7252    6.2238   -0.3266 H   0  0  0  0  0  0  0  0  0  0  0  0
   -1.1573    4.3492   -0.0183 H   0  0  0  0  0  0  0  0  0  0  0  0
   -3.3562    1.1815   -1.4769 H   0  0  0  0  0  0  0  0  0  0  0  0
  1  2  1  0
  2  3  1  0
  2  4  1  0
  4  5  1  0
  5  6  1  0
  6  7  1  0
  7  8  1  0
  8  9  1  0
  9 10  1  0
 10 11  1  0
 11 12  1  0
 12 13  2  0
 12 14  1  0
 14 15  1  0
 15 16  1  0
 16 17  2  0
 17 18  1  0
 18 19  2  0
 19 20  1  0
 20 21  2  0
 14 22  1  0
 22 23  1  0
 23 24  2  0
 23 25  1  0
 25 26  1  0
 25 27  1  0
 27 28  1  0
 28 29  2  0
 28 30  1  0
 30 31  1  0
 31 32  1  0
 32 33  2  0
 33 34  1  0
 34 35  2  0
 35 36  1  0
 35 37  1  0
 37 38  2  0
 30 39  1  0
 39 40  1  0
 40 41  2  0
 40  5  1  0
 21 16  1  0
 38 32  1  0
  1 42  1  0
  1 43  1  0
  1 44  1  0
  2 45  1  0
  3 46  1  0
  3 47  1  0
  3 48  1  0
  4 49  1  0
  4 50  1  0
  5 51  1  6
  6 52  1  0
  7 53  1  0
  7 54  1  0
  8 55  1  0
  8 56  1  0
  9 57  1  0
  9 58  1  0
 10 59  1  0
 10 60  1  0
 11 61  1  0
 14 62  1  6
 15 63  1  0
 15 64  1  0
 17 65  1  0
 18 66  1  0
 19 67  1  0
 20 68  1  0
 21 69  1  0
 22 70  1  0
 25 71  1  1
 26 72  1  0
 26 73  1  0
 26 74  1  0
 27 75  1  0
 30 76  1  1
 31 77  1  0
 31 78  1  0
 33 79  1  0
 34 80  1  0
 36 81  1  0
 37 82  1  0
 38 83  1  0
 39 84  1  0
M  END
$$$$
