
     RDKit          3D

129132  0  0  0  0  0  0  0  0999 V2000
   -5.2902    3.7878    0.0309 C   0  0  0  0  0  0  0  0  0  0  0  0
   -3.8248    3.5585   -0.3861 C   0  0  0  0  0  0  0  0  0  0  0  0
   -3.5606    4.3264   -1.6919 C   0  0  0  0  0  0  0  0  0  0  0  0
   -2.8392    3.9866    0.7472 C   0  0  1  0  0  0  0  0  0  0  0  0
   -2.9395    3.1229    1.9834 C   0  0  0  0  0  0  0  0  0  0  0  0
   -2.3788    3.5024    3.0524 O   0  0  0  0  0  0  0  0  0  0  0  0
   -3.5893    1.8909    1.9235 O   0  0  0  0  0  0  0  0  0  0  0  0
   -3.5175    0.8999    2.9490 C   0  0  0  0  0  0  0  0  0  0  0  0
   -4.4488   -0.2856    2.6104 C   0  0  1  0  0  0  0  0  0  0  0  0
   -4.7901   -0.2735    1.1845 N   0  0  0  0  0  0  0  0  0  0  0  0
   -6.0721    0.1461    0.6914 C   0  0  0  0  0  0  0  0  0  0  0  0
   -6.9716    0.4827    1.5020 O   0  0  0  0  0  0  0  0  0  0  0  0
   -6.3451    0.1560   -0.7634 C   0  0  0  0  0  0  0  0  0  0  0  0
   -5.4242   -0.3950   -1.6046 N   0  0  0  0  0  0  0  0  0  0  0  0
   -5.6095   -0.4643   -2.9479 C   0  0  0  0  0  0  0  0  0  0  0  0
   -6.7789    0.0453   -3.5148 C   0  0  0  0  0  0  0  0  0  0  0  0
   -7.7467    0.6149   -2.6896 C   0  0  0  0  0  0  0  0  0  0  0  0
   -7.5331    0.6924   -1.3056 C   0  0  0  0  0  0  0  0  0  0  0  0
   -8.4923    1.2844   -0.4845 O   0  0  0  0  0  0  0  0  0  0  0  0
   -3.8124   -1.6052    2.9916 C   0  0  0  0  0  0  0  0  0  0  0  0
   -3.3326   -1.7517    4.1516 O   0  0  0  0  0  0  0  0  0  0  0  0
   -3.8404   -2.7175    2.0834 N   0  0  0  0  0  0  0  0  0  0  0  0
   -2.7978   -3.7434    2.0481 C   0  0  1  0  0  0  0  0  0  0  0  0
   -3.3023   -5.0190    2.7201 C   0  0  0  0  0  0  0  0  0  0  0  0
   -2.4131   -4.0112    0.6155 C   0  0  0  0  0  0  0  0  0  0  0  0
   -3.3110   -4.1711   -0.2539 O   0  0  0  0  0  0  0  0  0  0  0  0
   -1.0320   -4.0867    0.2255 N   0  0  0  0  0  0  0  0  0  0  0  0
   -0.4139   -5.3888    0.4905 C   0  0  0  0  0  0  0  0  0  0  0  0
   -0.5475   -3.2161   -0.8803 C   0  0  1  0  0  0  0  0  0  0  0  0
   -1.2316   -1.8226   -0.9009 C   0  0  0  0  0  0  0  0  0  0  0  0
   -1.0684   -0.9334    0.6904 S   0  0  0  0  0  0  0  0  0  0  0  0
    0.0321    0.4171    0.1212 C   0  0  0  0  0  0  0  0  0  0  0  0
   -0.7821    1.6395   -0.3885 C   0  0  1  0  0  0  0  0  0  0  0  0
   -0.5271    2.9286    0.3785 C   0  0  0  0  0  0  0  0  0  0  0  0
    0.5344    3.0665    1.0499 O   0  0  0  0  0  0  0  0  0  0  0  0
   -1.4341    4.0499    0.2752 N   0  0  0  0  0  0  0  0  0  0  0  0
   -0.8279    5.3774    0.1126 C   0  0  0  0  0  0  0  0  0  0  0  0
   -0.5670    1.8474   -1.8367 N   0  0  0  0  0  0  0  0  0  0  0  0
   -1.5532    1.3348   -2.7984 C   0  0  0  0  0  0  0  0  0  0  0  0
    0.5770    2.5550   -2.3772 C   0  0  0  0  0  0  0  0  0  0  0  0
    0.4090    3.3067   -3.3783 O   0  0  0  0  0  0  0  0  0  0  0  0
    1.9834    2.3231   -1.8613 C   0  0  2  0  0  0  0  0  0  0  0  0
    2.8533    3.5676   -2.0607 C   0  0  0  0  0  0  0  0  0  0  0  0
    2.5735    1.1791   -2.5665 N   0  0  0  0  0  0  0  0  0  0  0  0
    3.6548    0.3624   -2.0712 C   0  0  0  0  0  0  0  0  0  0  0  0
    3.9936   -0.6489   -2.7512 O   0  0  0  0  0  0  0  0  0  0  0  0
    4.4470    0.6962   -0.8238 C   0  0  2  0  0  0  0  0  0  0  0  0
    5.8045    1.0881   -1.2129 N   0  0  0  0  0  0  0  0  0  0  0  0
    6.5828    2.0454   -0.4799 C   0  0  0  0  0  0  0  0  0  0  0  0
    6.0145    2.8695    0.2888 O   0  0  0  0  0  0  0  0  0  0  0  0
    8.0460    2.1256   -0.6610 C   0  0  0  0  0  0  0  0  0  0  0  0
    8.6308    3.3558   -0.6950 N   0  0  0  0  0  0  0  0  0  0  0  0
    9.9688    3.5194   -0.8767 C   0  0  0  0  0  0  0  0  0  0  0  0
   10.7892    2.4047   -1.0329 C   0  0  0  0  0  0  0  0  0  0  0  0
   10.2239    1.1283   -0.9878 C   0  0  0  0  0  0  0  0  0  0  0  0
    8.8468    0.9770   -0.7897 C   0  0  0  0  0  0  0  0  0  0  0  0
    8.2898   -0.2998   -0.7029 O   0  0  0  0  0  0  0  0  0  0  0  0
    4.5237   -0.4874    0.1551 C   0  0  0  0  0  0  0  0  0  0  0  0
    3.2898   -1.2061    0.1840 O   0  0  0  0  0  0  0  0  0  0  0  0
    2.6810   -1.6353    1.3694 C   0  0  0  0  0  0  0  0  0  0  0  0
    2.7631   -0.9311    2.4133 O   0  0  0  0  0  0  0  0  0  0  0  0
    1.8888   -2.9220    1.3959 C   0  0  2  0  0  0  0  0  0  0  0  0
    2.3688   -3.9145    2.5111 C   0  0  0  0  0  0  0  0  0  0  0  0
    3.8818   -3.8559    2.8098 C   0  0  0  0  0  0  0  0  0  0  0  0
    1.5718   -3.7145    3.8121 C   0  0  0  0  0  0  0  0  0  0  0  0
    1.8778   -3.5511    0.0563 N   0  0  0  0  0  0  0  0  0  0  0  0
    3.0438   -4.2913   -0.4435 C   0  0  0  0  0  0  0  0  0  0  0  0
    0.9667   -3.0468   -0.9470 C   0  0  0  0  0  0  0  0  0  0  0  0
    1.4450   -2.4938   -1.9745 O   0  0  0  0  0  0  0  0  0  0  0  0
   -5.5408    3.2256    0.9536 H   0  0  0  0  0  0  0  0  0  0  0  0
   -5.4875    4.8643    0.2096 H   0  0  0  0  0  0  0  0  0  0  0  0
   -5.9690    3.4363   -0.7775 H   0  0  0  0  0  0  0  0  0  0  0  0
   -3.7013    2.4806   -0.6047 H   0  0  0  0  0  0  0  0  0  0  0  0
   -2.5341    4.1230   -2.0674 H   0  0  0  0  0  0  0  0  0  0  0  0
   -3.6750    5.4214   -1.5356 H   0  0  0  0  0  0  0  0  0  0  0  0
   -4.2752    3.9939   -2.4752 H   0  0  0  0  0  0  0  0  0  0  0  0
   -3.1466    5.0096    1.0640 H   0  0  0  0  0  0  0  0  0  0  0  0
   -3.8402    1.3474    3.9150 H   0  0  0  0  0  0  0  0  0  0  0  0
   -2.4613    0.5755    3.0519 H   0  0  0  0  0  0  0  0  0  0  0  0
   -5.3765   -0.1947    3.2235 H   0  0  0  0  0  0  0  0  0  0  0  0
   -4.0230   -0.4605    0.5038 H   0  0  0  0  0  0  0  0  0  0  0  0
   -4.8513   -0.9167   -3.5754 H   0  0  0  0  0  0  0  0  0  0  0  0
   -6.9390   -0.0176   -4.5846 H   0  0  0  0  0  0  0  0  0  0  0  0
   -8.6564    1.0115   -3.1212 H   0  0  0  0  0  0  0  0  0  0  0  0
   -9.3452    1.6767   -0.8631 H   0  0  0  0  0  0  0  0  0  0  0  0
   -4.6582   -2.8082    1.4350 H   0  0  0  0  0  0  0  0  0  0  0  0
   -1.8966   -3.3781    2.5979 H   0  0  0  0  0  0  0  0  0  0  0  0
   -3.6079   -4.7916    3.7650 H   0  0  0  0  0  0  0  0  0  0  0  0
   -4.1696   -5.4327    2.1684 H   0  0  0  0  0  0  0  0  0  0  0  0
   -2.4890   -5.7801    2.7544 H   0  0  0  0  0  0  0  0  0  0  0  0
   -1.1518   -6.2076    0.3455 H   0  0  0  0  0  0  0  0  0  0  0  0
   -0.0543   -5.4222    1.5351 H   0  0  0  0  0  0  0  0  0  0  0  0
    0.4234   -5.5944   -0.2039 H   0  0  0  0  0  0  0  0  0  0  0  0
   -0.8353   -3.7175   -1.8310 H   0  0  0  0  0  0  0  0  0  0  0  0
   -2.3154   -1.9374   -1.1060 H   0  0  0  0  0  0  0  0  0  0  0  0
   -0.8369   -1.2240   -1.7441 H   0  0  0  0  0  0  0  0  0  0  0  0
    0.7278    0.0247   -0.6562 H   0  0  0  0  0  0  0  0  0  0  0  0
    0.6681    0.6712    0.9917 H   0  0  0  0  0  0  0  0  0  0  0  0
   -1.8479    1.3995   -0.2202 H   0  0  0  0  0  0  0  0  0  0  0  0
   -0.6152    5.8188    1.1133 H   0  0  0  0  0  0  0  0  0  0  0  0
    0.1189    5.3052   -0.4605 H   0  0  0  0  0  0  0  0  0  0  0  0
   -1.5169    6.0571   -0.4318 H   0  0  0  0  0  0  0  0  0  0  0  0
   -2.3756    0.7862   -2.2923 H   0  0  0  0  0  0  0  0  0  0  0  0
   -1.0561    0.6379   -3.5065 H   0  0  0  0  0  0  0  0  0  0  0  0
   -2.0016    2.1736   -3.3728 H   0  0  0  0  0  0  0  0  0  0  0  0
    1.9321    2.1043   -0.7811 H   0  0  0  0  0  0  0  0  0  0  0  0
    3.8652    3.4355   -1.6096 H   0  0  0  0  0  0  0  0  0  0  0  0
    2.9920    3.7758   -3.1453 H   0  0  0  0  0  0  0  0  0  0  0  0
    2.3866    4.4528   -1.5831 H   0  0  0  0  0  0  0  0  0  0  0  0
    2.2552    0.9924   -3.5495 H   0  0  0  0  0  0  0  0  0  0  0  0
    3.9664    1.5256   -0.2814 H   0  0  0  0  0  0  0  0  0  0  0  0
    6.2810    0.5421   -1.9701 H   0  0  0  0  0  0  0  0  0  0  0  0
   10.3979    4.5090   -0.9010 H   0  0  0  0  0  0  0  0  0  0  0  0
   11.8548    2.5196   -1.1821 H   0  0  0  0  0  0  0  0  0  0  0  0
   10.8615    0.2586   -1.0795 H   0  0  0  0  0  0  0  0  0  0  0  0
    8.8531   -1.1353   -0.7919 H   0  0  0  0  0  0  0  0  0  0  0  0
    4.7745   -0.0896    1.1623 H   0  0  0  0  0  0  0  0  0  0  0  0
    5.3363   -1.1918   -0.1342 H   0  0  0  0  0  0  0  0  0  0  0  0
    0.8415   -2.6425    1.6350 H   0  0  0  0  0  0  0  0  0  0  0  0
    2.1443   -4.9517    2.1812 H   0  0  0  0  0  0  0  0  0  0  0  0
    4.1446   -2.9197    3.3465 H   0  0  0  0  0  0  0  0  0  0  0  0
    4.4850   -3.9153    1.8857 H   0  0  0  0  0  0  0  0  0  0  0  0
    4.1645   -4.7103    3.4646 H   0  0  0  0  0  0  0  0  0  0  0  0
    1.7447   -2.6967    4.2255 H   0  0  0  0  0  0  0  0  0  0  0  0
    0.4880   -3.8512    3.6243 H   0  0  0  0  0  0  0  0  0  0  0  0
    1.8787   -4.4671    4.5707 H   0  0  0  0  0  0  0  0  0  0  0  0
    3.9117   -3.6112   -0.5702 H   0  0  0  0  0  0  0  0  0  0  0  0
    2.8244   -4.7491   -1.4359 H   0  0  0  0  0  0  0  0  0  0  0  0
    3.3181   -5.1194    0.2377 H   0  0  0  0  0  0  0  0  0  0  0  0
  1  2  1  0
  2  3  1  0
  2  4  1  0
  4  5  1  0
  5  6  2  0
  5  7  1  0
  7  8  1  0
  8  9  1  0
  9 10  1  0
 10 11  1  0
 11 12  2  0
 11 13  1  0
 13 14  2  0
 14 15  1  0
 15 16  2  0
 16 17  1  0
 17 18  2  0
 18 19  1  0
  9 20  1  0
 20 21  2  0
 20 22  1  0
 22 23  1  0
 23 24  1  0
 23 25  1  0
 25 26  2  0
 25 27  1  0
 27 28  1  0
 27 29  1  0
 29 30  1  0
 30 31  1  0
 31 32  1  0
 32 33  1  0
 33 34  1  0
 34 35  2  0
 34 36  1  0
 36 37  1  0
 33 38  1  0
 38 39  1  0
 38 40  1  0
 40 41  2  0
 40 42  1  0
 42 43  1  0
 42 44  1  0
 44 45  1  0
 45 46  2  0
 45 47  1  0
 47 48  1  0
 48 49  1  0
 49 50  2  0
 49 51  1  0
 51 52  2  0
 52 53  1  0
 53 54  2  0
 54 55  1  0
 55 56  2  0
 56 57  1  0
 47 58  1  0
 58 59  1  0
 59 60  1  0
 60 61  2  0
 60 62  1  0
 62 63  1  0
 63 64  1  0
 63 65  1  0
 62 66  1  0
 66 67  1  0
 66 68  1  0
 68 69  2  0
 36  4  1  0
 56 51  1  0
 18 13  1  0
 68 29  1  0
  1 70  1  0
  1 71  1  0
  1 72  1  0
  2 73  1  0
  3 74  1  0
  3 75  1  0
  3 76  1  0
  4 77  1  1
  8 78  1  0
  8 79  1  0
  9 80  1  1
 10 81  1  0
 15 82  1  0
 16 83  1  0
 17 84  1  0
 19 85  1  0
 22 86  1  0
 23 87  1  1
 24 88  1  0
 24 89  1  0
 24 90  1  0
 28 91  1  0
 28 92  1  0
 28 93  1  0
 29 94  1  6
 30 95  1  0
 30 96  1  0
 32 97  1  0
 32 98  1  0
 33 99  1  6
 37100  1  0
 37101  1  0
 37102  1  0
 39103  1  0
 39104  1  0
 39105  1  0
 42106  1  1
 43107  1  0
 43108  1  0
 43109  1  0
 44110  1  0
 47111  1  1
 48112  1  0
 53113  1  0
 54114  1  0
 55115  1  0
 57116  1  0
 58117  1  0
 58118  1  0
 62119  1  1
 63120  1  0
 64121  1  0
 64122  1  0
 64123  1  0
 65124  1  0
 65125  1  0
 65126  1  0
 67127  1  0
 67128  1  0
 67129  1  0
M  END
$$$$
