
     RDKit          3D

 70 73  0  0  0  0  0  0  0  0999 V2000
    6.0635    1.6013   -2.4924 C   0  0  0  0  0  0  0  0  0  0  0  0
    5.5778    1.0969   -1.1653 C   0  0  0  0  0  0  0  0  0  0  0  0
    5.5061   -0.2829   -0.9186 C   0  0  0  0  0  0  0  0  0  0  0  0
    5.0981   -0.7562    0.3323 C   0  0  0  0  0  0  0  0  0  0  0  0
    4.7818    0.1466    1.3624 C   0  0  0  0  0  0  0  0  0  0  0  0
    4.2805   -0.3525    2.6899 C   0  0  0  0  0  0  0  0  0  0  0  0
    2.8237   -0.2468    2.7330 N   0  0  0  0  0  0  0  0  0  0  0  0
    1.9716   -1.1744    2.0469 C   0  0  0  0  0  0  0  0  0  0  0  0
    2.4187   -2.2995    1.6937 O   0  0  0  0  0  0  0  0  0  0  0  0
    0.5285   -0.8241    1.7887 C   0  0  0  0  0  0  0  0  0  0  0  0
    0.1235   -0.9494    0.3641 N   0  0  0  0  0  0  0  0  0  0  0  0
    0.9602   -0.1643   -0.5783 C   0  0  0  0  0  0  0  0  0  0  0  0
    0.7980    1.3734   -0.4319 C   0  0  0  0  0  0  0  0  0  0  0  0
   -0.3234    2.0053   -1.3054 C   0  0  0  0  0  0  0  0  0  0  0  0
   -1.6881    2.3098   -0.6038 C   0  0  0  0  0  0  0  0  0  0  0  0
   -2.6723    2.8424   -1.6738 C   0  0  0  0  0  0  0  0  0  0  0  0
   -1.5246    3.3852    0.4911 C   0  0  0  0  0  0  0  0  0  0  0  0
   -2.2563    1.0145    0.0003 C   0  0  0  0  0  0  0  0  0  0  0  0
   -3.5933    1.1667    0.4673 O   0  0  0  0  0  0  0  0  0  0  0  0
   -4.3848    0.1297    0.9948 C   0  0  0  0  0  0  0  0  0  0  0  0
   -5.6757    0.4706    1.4158 C   0  0  0  0  0  0  0  0  0  0  0  0
   -6.5168   -0.4858    1.9910 C   0  0  0  0  0  0  0  0  0  0  0  0
   -6.0792   -1.8027    2.1478 C   0  0  0  0  0  0  0  0  0  0  0  0
   -4.8081   -2.1710    1.7043 C   0  0  0  0  0  0  0  0  0  0  0  0
   -3.9536   -1.2221    1.1264 C   0  0  0  0  0  0  0  0  0  0  0  0
   -2.6890   -1.6419    0.7012 O   0  0  0  0  0  0  0  0  0  0  0  0
   -2.4794   -2.2814   -0.5283 C   0  0  0  0  0  0  0  0  0  0  0  0
   -3.5373   -2.5620   -1.3435 N   0  0  0  0  0  0  0  0  0  0  0  0
   -3.3752   -3.1271   -2.5674 C   0  0  0  0  0  0  0  0  0  0  0  0
   -2.0961   -3.4352   -3.0287 C   0  0  0  0  0  0  0  0  0  0  0  0
   -0.9912   -3.1693   -2.2176 C   0  0  0  0  0  0  0  0  0  0  0  0
   -1.1682   -2.5854   -0.9535 C   0  0  0  0  0  0  0  0  0  0  0  0
    0.0199   -2.3692   -0.0488 C   0  0  0  0  0  0  0  0  0  0  0  0
    4.8517    1.5259    1.1146 C   0  0  0  0  0  0  0  0  0  0  0  0
    5.2578    1.9986   -0.1398 C   0  0  0  0  0  0  0  0  0  0  0  0
    5.5973    2.5768   -2.7382 H   0  0  0  0  0  0  0  0  0  0  0  0
    5.8028    0.8856   -3.3010 H   0  0  0  0  0  0  0  0  0  0  0  0
    7.1653    1.7272   -2.4572 H   0  0  0  0  0  0  0  0  0  0  0  0
    5.7606   -0.9925   -1.6960 H   0  0  0  0  0  0  0  0  0  0  0  0
    5.0236   -1.8250    0.4967 H   0  0  0  0  0  0  0  0  0  0  0  0
    4.5939   -1.4063    2.8745 H   0  0  0  0  0  0  0  0  0  0  0  0
    4.7175    0.2637    3.5063 H   0  0  0  0  0  0  0  0  0  0  0  0
    2.4025    0.5871    3.2035 H   0  0  0  0  0  0  0  0  0  0  0  0
    0.3200    0.2019    2.1506 H   0  0  0  0  0  0  0  0  0  0  0  0
   -0.1141   -1.4678    2.4286 H   0  0  0  0  0  0  0  0  0  0  0  0
    0.7214   -0.4504   -1.6272 H   0  0  0  0  0  0  0  0  0  0  0  0
    2.0321   -0.4276   -0.4426 H   0  0  0  0  0  0  0  0  0  0  0  0
    1.7565    1.8107   -0.7921 H   0  0  0  0  0  0  0  0  0  0  0  0
    0.7297    1.6910    0.6220 H   0  0  0  0  0  0  0  0  0  0  0  0
    0.0695    2.9681   -1.7059 H   0  0  0  0  0  0  0  0  0  0  0  0
   -0.5001    1.3712   -2.2012 H   0  0  0  0  0  0  0  0  0  0  0  0
   -2.2175    3.6668   -2.2598 H   0  0  0  0  0  0  0  0  0  0  0  0
   -2.9570    2.0329   -2.3754 H   0  0  0  0  0  0  0  0  0  0  0  0
   -3.6050    3.2252   -1.2066 H   0  0  0  0  0  0  0  0  0  0  0  0
   -0.9150    3.0139    1.3425 H   0  0  0  0  0  0  0  0  0  0  0  0
   -2.5192    3.6755    0.9004 H   0  0  0  0  0  0  0  0  0  0  0  0
   -1.0425    4.2967    0.0748 H   0  0  0  0  0  0  0  0  0  0  0  0
   -2.2411    0.2503   -0.8033 H   0  0  0  0  0  0  0  0  0  0  0  0
   -1.6314    0.7044    0.8581 H   0  0  0  0  0  0  0  0  0  0  0  0
   -6.0265    1.4925    1.3082 H   0  0  0  0  0  0  0  0  0  0  0  0
   -7.5073   -0.2004    2.3224 H   0  0  0  0  0  0  0  0  0  0  0  0
   -6.7285   -2.5384    2.6030 H   0  0  0  0  0  0  0  0  0  0  0  0
   -4.4753   -3.1965    1.8229 H   0  0  0  0  0  0  0  0  0  0  0  0
   -4.2427   -3.3418   -3.1790 H   0  0  0  0  0  0  0  0  0  0  0  0
   -1.9615   -3.8862   -4.0023 H   0  0  0  0  0  0  0  0  0  0  0  0
    0.0008   -3.4251   -2.5711 H   0  0  0  0  0  0  0  0  0  0  0  0
    0.9612   -2.7079   -0.5378 H   0  0  0  0  0  0  0  0  0  0  0  0
   -0.1241   -3.0427    0.8261 H   0  0  0  0  0  0  0  0  0  0  0  0
    4.5895    2.2356    1.8920 H   0  0  0  0  0  0  0  0  0  0  0  0
    5.3159    3.0679   -0.3084 H   0  0  0  0  0  0  0  0  0  0  0  0
  1  2  1  0
  2  3  2  0
  3  4  1  0
  4  5  2  0
  5  6  1  0
  6  7  1  0
  7  8  1  0
  8  9  2  0
  8 10  1  0
 10 11  1  0
 11 12  1  0
 12 13  1  0
 13 14  1  0
 14 15  1  0
 15 16  1  0
 15 17  1  0
 15 18  1  0
 18 19  1  0
 19 20  1  0
 20 21  2  0
 21 22  1  0
 22 23  2  0
 23 24  1  0
 24 25  2  0
 25 26  1  0
 26 27  1  0
 27 28  2  0
 28 29  1  0
 29 30  2  0
 30 31  1  0
 31 32  2  0
 32 33  1  0
  5 34  1  0
 34 35  2  0
 35  2  1  0
 33 11  1  0
 25 20  1  0
 32 27  1  0
  1 36  1  0
  1 37  1  0
  1 38  1  0
  3 39  1  0
  4 40  1  0
  6 41  1  0
  6 42  1  0
  7 43  1  0
 10 44  1  0
 10 45  1  0
 12 46  1  0
 12 47  1  0
 13 48  1  0
 13 49  1  0
 14 50  1  0
 14 51  1  0
 16 52  1  0
 16 53  1  0
 16 54  1  0
 17 55  1  0
 17 56  1  0
 17 57  1  0
 18 58  1  0
 18 59  1  0
 21 60  1  0
 22 61  1  0
 23 62  1  0
 24 63  1  0
 29 64  1  0
 30 65  1  0
 31 66  1  0
 33 67  1  0
 33 68  1  0
 34 69  1  0
 35 70  1  0
M  END
$$$$
