
     RDKit          3D

 64 66  0  0  0  0  0  0  0  0999 V2000
    7.5743   -1.0108   -1.6909 C   0  0  0  0  0  0  0  0  0  0  0  0
    6.6534   -1.0108   -0.6240 O   0  0  0  0  0  0  0  0  0  0  0  0
    5.7096    0.0203   -0.8213 C   0  0  0  0  0  0  0  0  0  0  0  0
    4.6585   -0.0496    0.2900 C   0  0  0  0  0  0  0  0  0  0  0  0
    3.5559    0.9693    0.1131 C   0  0  0  0  0  0  0  0  0  0  0  0
    3.8099    2.0432   -0.5020 O   0  0  0  0  0  0  0  0  0  0  0  0
    2.2374    0.7721    0.6801 N   0  0  0  0  0  0  0  0  0  0  0  0
    1.9361   -0.3599    1.5744 C   0  0  0  0  0  0  0  0  0  0  0  0
    1.4532   -1.5818    0.7626 C   0  0  0  0  0  0  0  0  0  0  0  0
    0.2339   -2.2903    1.3754 C   0  0  0  0  0  0  0  0  0  0  0  0
   -1.0159   -1.3766    1.4375 C   0  0  0  0  0  0  0  0  0  0  0  0
   -2.3726   -2.0700    1.0818 C   0  0  0  0  0  0  0  0  0  0  0  0
   -2.5657   -3.3670    1.9235 C   0  0  0  0  0  0  0  0  0  0  0  0
   -2.4141   -3.1179    3.2996 O   0  0  0  0  0  0  0  0  0  0  0  0
   -3.5379   -1.0971    1.4336 C   0  0  0  0  0  0  0  0  0  0  0  0
   -3.5368    0.1608    0.5551 C   0  0  0  0  0  0  0  0  0  0  0  0
   -3.3460   -0.1676   -0.8636 N   0  0  0  0  0  0  0  0  0  0  0  0
   -3.3695   -1.5739   -1.2913 C   0  0  0  0  0  0  0  0  0  0  0  0
   -2.4003   -2.4247   -0.4515 C   0  0  0  0  0  0  0  0  0  0  0  0
   -3.3860    0.8907   -1.8403 C   0  0  0  0  0  0  0  0  0  0  0  0
   -3.8157    0.6644   -3.0034 O   0  0  0  0  0  0  0  0  0  0  0  0
   -2.9387    2.2534   -1.5000 C   0  0  0  0  0  0  0  0  0  0  0  0
   -3.8735    3.2989   -1.4770 C   0  0  0  0  0  0  0  0  0  0  0  0
   -3.4709    4.5955   -1.1457 C   0  0  0  0  0  0  0  0  0  0  0  0
   -2.1335    4.8572   -0.8444 C   0  0  0  0  0  0  0  0  0  0  0  0
   -1.1885    3.8268   -0.8870 C   0  0  0  0  0  0  0  0  0  0  0  0
   -1.5815    2.5130   -1.2168 C   0  0  0  0  0  0  0  0  0  0  0  0
   -0.6599    1.4538   -1.2988 O   0  0  0  0  0  0  0  0  0  0  0  0
    0.7562    1.5716   -1.1503 C   0  0  0  0  0  0  0  0  0  0  0  0
    1.1547    1.7090    0.3321 C   0  0  0  0  0  0  0  0  0  0  0  0
    8.1081   -0.0373   -1.7678 H   0  0  0  0  0  0  0  0  0  0  0  0
    8.3357   -1.7955   -1.4999 H   0  0  0  0  0  0  0  0  0  0  0  0
    7.0724   -1.2569   -2.6531 H   0  0  0  0  0  0  0  0  0  0  0  0
    6.2137    1.0135   -0.7812 H   0  0  0  0  0  0  0  0  0  0  0  0
    5.1946   -0.0965   -1.8037 H   0  0  0  0  0  0  0  0  0  0  0  0
    5.1474    0.1183    1.2734 H   0  0  0  0  0  0  0  0  0  0  0  0
    4.2313   -1.0726    0.2813 H   0  0  0  0  0  0  0  0  0  0  0  0
    2.8289   -0.6290    2.1783 H   0  0  0  0  0  0  0  0  0  0  0  0
    1.1788   -0.0500    2.3256 H   0  0  0  0  0  0  0  0  0  0  0  0
    1.1949   -1.2910   -0.2792 H   0  0  0  0  0  0  0  0  0  0  0  0
    2.2822   -2.3193    0.6897 H   0  0  0  0  0  0  0  0  0  0  0  0
    0.0376   -3.1874    0.7506 H   0  0  0  0  0  0  0  0  0  0  0  0
    0.4883   -2.6512    2.3970 H   0  0  0  0  0  0  0  0  0  0  0  0
   -1.0764   -0.9424    2.4633 H   0  0  0  0  0  0  0  0  0  0  0  0
   -0.8756   -0.5204    0.7423 H   0  0  0  0  0  0  0  0  0  0  0  0
   -1.8236   -4.1379    1.6302 H   0  0  0  0  0  0  0  0  0  0  0  0
   -3.5663   -3.8174    1.7137 H   0  0  0  0  0  0  0  0  0  0  0  0
   -3.3169   -2.9220    3.6619 H   0  0  0  0  0  0  0  0  0  0  0  0
   -4.5139   -1.6152    1.3008 H   0  0  0  0  0  0  0  0  0  0  0  0
   -3.4817   -0.7823    2.4986 H   0  0  0  0  0  0  0  0  0  0  0  0
   -2.7317    0.8447    0.8966 H   0  0  0  0  0  0  0  0  0  0  0  0
   -4.5051    0.6910    0.6815 H   0  0  0  0  0  0  0  0  0  0  0  0
   -4.4051   -1.9693   -1.1830 H   0  0  0  0  0  0  0  0  0  0  0  0
   -3.0828   -1.6700   -2.3624 H   0  0  0  0  0  0  0  0  0  0  0  0
   -1.3883   -2.3164   -0.9008 H   0  0  0  0  0  0  0  0  0  0  0  0
   -2.6789   -3.4913   -0.6092 H   0  0  0  0  0  0  0  0  0  0  0  0
   -4.9186    3.1045   -1.6975 H   0  0  0  0  0  0  0  0  0  0  0  0
   -4.1965    5.3980   -1.1221 H   0  0  0  0  0  0  0  0  0  0  0  0
   -1.8220    5.8636   -0.5926 H   0  0  0  0  0  0  0  0  0  0  0  0
   -0.1596    4.0663   -0.6634 H   0  0  0  0  0  0  0  0  0  0  0  0
    1.2126    0.6577   -1.5879 H   0  0  0  0  0  0  0  0  0  0  0  0
    1.1397    2.4280   -1.7481 H   0  0  0  0  0  0  0  0  0  0  0  0
    1.4856    2.7490    0.5419 H   0  0  0  0  0  0  0  0  0  0  0  0
    0.2649    1.5349    0.9749 H   0  0  0  0  0  0  0  0  0  0  0  0
  1  2  1  0
  2  3  1  0
  3  4  1  0
  4  5  1  0
  5  6  2  0
  5  7  1  0
  7  8  1  0
  8  9  1  0
  9 10  1  0
 10 11  1  0
 11 12  1  0
 12 13  1  0
 13 14  1  0
 12 15  1  0
 15 16  1  0
 16 17  1  0
 17 18  1  0
 18 19  1  0
 17 20  1  0
 20 21  2  0
 20 22  1  0
 22 23  2  0
 23 24  1  0
 24 25  2  0
 25 26  1  0
 26 27  2  0
 27 28  1  0
 28 29  1  0
 29 30  1  0
 30  7  1  0
 19 12  1  0
 27 22  1  0
  1 31  1  0
  1 32  1  0
  1 33  1  0
  3 34  1  0
  3 35  1  0
  4 36  1  0
  4 37  1  0
  8 38  1  0
  8 39  1  0
  9 40  1  0
  9 41  1  0
 10 42  1  0
 10 43  1  0
 11 44  1  0
 11 45  1  0
 13 46  1  0
 13 47  1  0
 14 48  1  0
 15 49  1  0
 15 50  1  0
 16 51  1  0
 16 52  1  0
 18 53  1  0
 18 54  1  0
 19 55  1  0
 19 56  1  0
 23 57  1  0
 24 58  1  0
 25 59  1  0
 26 60  1  0
 29 61  1  0
 29 62  1  0
 30 63  1  0
 30 64  1  0
M  END
$$$$
