
     RDKit          3D

 95 96  0  0  0  0  0  0  0  0999 V2000
    7.1592   -2.5196   -0.9611 C   0  0  0  0  0  0  0  0  0  0  0  0
    6.0157   -2.4252    0.0503 C   0  0  0  0  0  0  0  0  0  0  0  0
    4.8774   -1.4598   -0.3654 C   0  0  1  0  0  0  0  0  0  0  0  0
    3.7072   -1.7866    0.3969 O   0  0  0  0  0  0  0  0  0  0  0  0
    2.6984   -2.6611   -0.0251 C   0  0  0  0  0  0  0  0  0  0  0  0
    2.7811   -3.2532   -1.1398 O   0  0  0  0  0  0  0  0  0  0  0  0
    1.4474   -2.7800    0.8104 C   0  0  2  0  0  0  0  0  0  0  0  0
    0.9959   -4.2494    0.9082 C   0  0  0  0  0  0  0  0  0  0  0  0
    0.3332   -1.8159    0.2730 C   0  0  1  0  0  0  0  0  0  0  0  0
   -0.6730   -2.5153   -0.4174 O   0  0  0  0  0  0  0  0  0  0  0  0
   -0.3100   -0.9221    1.3776 C   0  0  2  0  0  0  0  0  0  0  0  0
   -1.0730   -1.7645    2.4190 C   0  0  0  0  0  0  0  0  0  0  0  0
   -1.1832    0.2352    0.7430 C   0  0  1  0  0  0  0  0  0  0  0  0
   -2.5020    0.2464    1.2852 O   0  0  0  0  0  0  0  0  0  0  0  0
   -3.5122   -0.1206    0.3572 C   0  0  0  0  0  0  0  0  0  0  0  0
   -3.8539   -1.4794    0.5685 O   0  0  0  0  0  0  0  0  0  0  0  0
   -4.6595   -1.9928   -0.4872 C   0  0  0  0  0  0  0  0  0  0  0  0
   -5.3041   -3.2882    0.0086 C   0  0  0  0  0  0  0  0  0  0  0  0
   -5.7437   -0.9883   -0.9799 C   0  0  0  0  0  0  0  0  0  0  0  0
   -6.0595    0.0521    0.1222 C   0  0  0  0  0  0  0  0  0  0  0  0
   -7.1035    1.0495   -0.2481 N   0  0  0  0  0  0  0  0  0  0  0  0
   -8.4607    0.5215   -0.0254 C   0  0  0  0  0  0  0  0  0  0  0  0
   -6.9786    1.5874   -1.6158 C   0  0  0  0  0  0  0  0  0  0  0  0
   -4.7625    0.7682    0.5910 C   0  0  0  0  0  0  0  0  0  0  0  0
   -4.8799    1.1565    1.9402 O   0  0  0  0  0  0  0  0  0  0  0  0
   -0.5711    1.6754    0.9318 C   0  0  2  0  0  0  0  0  0  0  0  0
   -0.4822    2.0238    2.4384 C   0  0  0  0  0  0  0  0  0  0  0  0
   -1.4388    2.6127    0.3372 O   0  0  0  0  0  0  0  0  0  0  0  0
    0.8385    1.7515    0.2586 C   0  0  0  0  0  0  0  0  0  0  0  0
    1.3822    3.1477   -0.1462 C   0  0  1  0  0  0  0  0  0  0  0  0
    1.7721    4.0235    1.0600 C   0  0  0  0  0  0  0  0  0  0  0  0
    2.5766    2.9511   -1.0877 C   0  0  0  0  0  0  0  0  0  0  0  0
    2.4706    3.1141   -2.3799 N   0  0  0  0  0  0  0  0  0  0  0  0
    1.3066    3.3823   -3.0675 O   0  0  0  0  0  0  0  0  0  0  0  0
    3.8927    2.3982   -0.5498 C   0  0  2  0  0  0  0  0  0  0  0  0
    5.0842    3.2298   -1.0551 C   0  0  0  0  0  0  0  0  0  0  0  0
    4.0199    0.8813   -0.9017 C   0  0  1  0  0  0  0  0  0  0  0  0
    4.1297    0.7227   -2.3008 O   0  0  0  0  0  0  0  0  0  0  0  0
    5.1718    0.0769   -0.1833 C   0  0  1  0  0  0  0  0  0  0  0  0
    5.2264    0.4270    1.3235 C   0  0  0  0  0  0  0  0  0  0  0  0
    6.4193    0.4171   -0.7398 O   0  0  0  0  0  0  0  0  0  0  0  0
    7.7886   -3.4051   -0.7199 H   0  0  0  0  0  0  0  0  0  0  0  0
    7.8139   -1.6279   -0.9086 H   0  0  0  0  0  0  0  0  0  0  0  0
    6.7667   -2.6484   -1.9909 H   0  0  0  0  0  0  0  0  0  0  0  0
    6.4268   -2.1771    1.0459 H   0  0  0  0  0  0  0  0  0  0  0  0
    5.5794   -3.4445    0.1409 H   0  0  0  0  0  0  0  0  0  0  0  0
    4.6712   -1.6412   -1.4456 H   0  0  0  0  0  0  0  0  0  0  0  0
    1.7315   -2.4732    1.8413 H   0  0  0  0  0  0  0  0  0  0  0  0
    0.0909   -4.3375    1.5437 H   0  0  0  0  0  0  0  0  0  0  0  0
    1.7991   -4.8680    1.3669 H   0  0  0  0  0  0  0  0  0  0  0  0
    0.7664   -4.6687   -0.0948 H   0  0  0  0  0  0  0  0  0  0  0  0
    0.8157   -1.1090   -0.4422 H   0  0  0  0  0  0  0  0  0  0  0  0
   -0.2988   -2.7502   -1.3068 H   0  0  0  0  0  0  0  0  0  0  0  0
    0.5316   -0.4680    1.9327 H   0  0  0  0  0  0  0  0  0  0  0  0
   -0.3803   -2.4498    2.9514 H   0  0  0  0  0  0  0  0  0  0  0  0
   -1.5261   -1.1057    3.1885 H   0  0  0  0  0  0  0  0  0  0  0  0
   -1.8676   -2.3696    1.9409 H   0  0  0  0  0  0  0  0  0  0  0  0
   -1.1877    0.0665   -0.3570 H   0  0  0  0  0  0  0  0  0  0  0  0
   -3.2088    0.0428   -0.7077 H   0  0  0  0  0  0  0  0  0  0  0  0
   -3.9991   -2.2665   -1.3439 H   0  0  0  0  0  0  0  0  0  0  0  0
   -5.8753   -3.7765   -0.8087 H   0  0  0  0  0  0  0  0  0  0  0  0
   -4.5168   -3.9926    0.3541 H   0  0  0  0  0  0  0  0  0  0  0  0
   -5.9864   -3.0762    0.8594 H   0  0  0  0  0  0  0  0  0  0  0  0
   -6.6676   -1.5180   -1.2925 H   0  0  0  0  0  0  0  0  0  0  0  0
   -5.3433   -0.4737   -1.8797 H   0  0  0  0  0  0  0  0  0  0  0  0
   -6.4241   -0.5428    0.9920 H   0  0  0  0  0  0  0  0  0  0  0  0
   -9.2184    1.2925   -0.2780 H   0  0  0  0  0  0  0  0  0  0  0  0
   -8.6478   -0.3832   -0.6439 H   0  0  0  0  0  0  0  0  0  0  0  0
   -8.6002    0.2693    1.0479 H   0  0  0  0  0  0  0  0  0  0  0  0
   -7.6181    2.4890   -1.7207 H   0  0  0  0  0  0  0  0  0  0  0  0
   -5.9358    1.9064   -1.8293 H   0  0  0  0  0  0  0  0  0  0  0  0
   -7.2996    0.8423   -2.3759 H   0  0  0  0  0  0  0  0  0  0  0  0
   -4.6153    1.6950   -0.0019 H   0  0  0  0  0  0  0  0  0  0  0  0
   -4.8946    0.3299    2.4930 H   0  0  0  0  0  0  0  0  0  0  0  0
   -0.4212    3.1168    2.5934 H   0  0  0  0  0  0  0  0  0  0  0  0
    0.4035    1.5656    2.9251 H   0  0  0  0  0  0  0  0  0  0  0  0
   -1.3859    1.6828    2.9858 H   0  0  0  0  0  0  0  0  0  0  0  0
   -1.5090    2.3956   -0.6292 H   0  0  0  0  0  0  0  0  0  0  0  0
    0.7888    1.1610   -0.6828 H   0  0  0  0  0  0  0  0  0  0  0  0
    1.5840    1.2631    0.9191 H   0  0  0  0  0  0  0  0  0  0  0  0
    0.5887    3.7181   -0.6654 H   0  0  0  0  0  0  0  0  0  0  0  0
    0.8763    4.5377    1.4629 H   0  0  0  0  0  0  0  0  0  0  0  0
    2.2445    3.4286    1.8692 H   0  0  0  0  0  0  0  0  0  0  0  0
    2.4781    4.8213    0.7479 H   0  0  0  0  0  0  0  0  0  0  0  0
    0.3935    3.1711   -2.6933 H   0  0  0  0  0  0  0  0  0  0  0  0
    3.8713    2.5031    0.5502 H   0  0  0  0  0  0  0  0  0  0  0  0
    5.2313    3.0938   -2.1480 H   0  0  0  0  0  0  0  0  0  0  0  0
    4.9055    4.3067   -0.8523 H   0  0  0  0  0  0  0  0  0  0  0  0
    6.0173    2.9449   -0.5262 H   0  0  0  0  0  0  0  0  0  0  0  0
    3.0708    0.4133   -0.5582 H   0  0  0  0  0  0  0  0  0  0  0  0
    3.2683    0.3573   -2.6346 H   0  0  0  0  0  0  0  0  0  0  0  0
    5.6204    1.4555    1.4720 H   0  0  0  0  0  0  0  0  0  0  0  0
    5.9171   -0.2359    1.8781 H   0  0  0  0  0  0  0  0  0  0  0  0
    4.2181    0.3533    1.7876 H   0  0  0  0  0  0  0  0  0  0  0  0
    6.4137    0.1557   -1.6983 H   0  0  0  0  0  0  0  0  0  0  0  0
  1  2  1  0
  2  3  1  0
  3  4  1  0
  4  5  1  0
  5  6  2  0
  5  7  1  0
  7  8  1  0
  7  9  1  0
  9 10  1  0
  9 11  1  0
 11 12  1  0
 11 13  1  0
 13 14  1  0
 14 15  1  0
 15 16  1  0
 16 17  1  0
 17 18  1  0
 17 19  1  0
 19 20  1  0
 20 21  1  0
 21 22  1  0
 21 23  1  0
 20 24  1  0
 24 25  1  0
 13 26  1  0
 26 27  1  0
 26 28  1  6
 26 29  1  0
 29 30  1  0
 30 31  1  0
 30 32  1  0
 32 33  2  0
 33 34  1  0
 32 35  1  0
 35 36  1  0
 35 37  1  0
 37 38  1  0
 37 39  1  0
 39 40  1  0
 39 41  1  6
 39  3  1  0
 24 15  1  0
  1 42  1  0
  1 43  1  0
  1 44  1  0
  2 45  1  0
  2 46  1  0
  3 47  1  6
  7 48  1  1
  8 49  1  0
  8 50  1  0
  8 51  1  0
  9 52  1  6
 10 53  1  0
 11 54  1  1
 12 55  1  0
 12 56  1  0
 12 57  1  0
 13 58  1  6
 15 59  1  0
 17 60  1  0
 18 61  1  0
 18 62  1  0
 18 63  1  0
 19 64  1  0
 19 65  1  0
 20 66  1  0
 22 67  1  0
 22 68  1  0
 22 69  1  0
 23 70  1  0
 23 71  1  0
 23 72  1  0
 24 73  1  0
 25 74  1  0
 27 75  1  0
 27 76  1  0
 27 77  1  0
 28 78  1  0
 29 79  1  0
 29 80  1  0
 30 81  1  6
 31 82  1  0
 31 83  1  0
 31 84  1  0
 34 85  1  0
 35 86  1  1
 36 87  1  0
 36 88  1  0
 36 89  1  0
 37 90  1  1
 38 91  1  0
 40 92  1  0
 40 93  1  0
 40 94  1  0
 41 95  1  0
M  END
$$$$
