
     RDKit          3D

109113  0  0  0  0  0  0  0  0999 V2000
   -7.9014   -3.7935    1.7699 C   0  0  0  0  0  0  0  0  0  0  0  0
   -7.3242   -2.8666    0.6874 C   0  0  0  0  0  0  0  0  0  0  0  0
   -7.9161   -3.2352   -0.6786 C   0  0  0  0  0  0  0  0  0  0  0  0
   -5.7793   -2.9322    0.6256 C   0  0  0  0  0  0  0  0  0  0  0  0
   -5.0702   -2.4596    1.9168 C   0  0  0  0  0  0  0  0  0  0  0  0
   -3.5304   -2.4491    1.8129 C   0  0  0  0  0  0  0  0  0  0  0  0
   -3.0903   -2.0710    0.5109 O   0  0  0  0  0  0  0  0  0  0  0  0
   -2.0865   -2.7692   -0.1671 C   0  0  0  0  0  0  0  0  0  0  0  0
   -2.4466   -3.5480   -1.2738 C   0  0  0  0  0  0  0  0  0  0  0  0
   -1.4842   -4.3062   -1.9486 C   0  0  0  0  0  0  0  0  0  0  0  0
   -0.1545   -4.2928   -1.5151 C   0  0  0  0  0  0  0  0  0  0  0  0
    0.2177   -3.5007   -0.4257 C   0  0  0  0  0  0  0  0  0  0  0  0
   -0.7309   -2.6959    0.2255 C   0  0  0  0  0  0  0  0  0  0  0  0
   -0.2906   -1.7684    1.2880 C   0  0  0  0  0  0  0  0  0  0  0  0
   -0.5581   -2.0429    2.4835 O   0  0  0  0  0  0  0  0  0  0  0  0
    0.4168   -0.5511    0.9853 N   0  0  0  0  0  0  0  0  0  0  0  0
    0.9415   -0.2167   -0.3467 C   0  0  0  0  0  0  0  0  0  0  0  0
    2.1967   -1.0061   -0.6225 C   0  0  0  0  0  0  0  0  0  0  0  0
    2.9713   -1.3058    0.3252 O   0  0  0  0  0  0  0  0  0  0  0  0
    2.5281   -1.3693   -1.9713 N   0  0  0  0  0  0  0  0  0  0  0  0
    3.5132   -2.3949   -2.2934 C   0  0  0  0  0  0  0  0  0  0  0  0
    4.8894   -1.9728   -1.8621 C   0  0  0  0  0  0  0  0  0  0  0  0
    5.5092   -0.8689   -2.4640 C   0  0  0  0  0  0  0  0  0  0  0  0
    6.7753   -0.4531   -2.0415 C   0  0  0  0  0  0  0  0  0  0  0  0
    7.4190   -1.1196   -0.9843 C   0  0  0  0  0  0  0  0  0  0  0  0
    8.7584   -0.6395   -0.4876 C   0  0  0  0  0  0  0  0  0  0  0  0
    8.7052    0.7934   -0.1242 N   0  0  0  0  0  0  0  0  0  0  0  0
   10.0577    1.3683    0.0093 C   0  0  0  0  0  0  0  0  0  0  0  0
   10.7693    0.8703    1.2915 C   0  0  0  0  0  0  0  0  0  0  0  0
    9.8825    0.3247    2.2548 O   0  0  0  0  0  0  0  0  0  0  0  0
    8.7353    1.1382    2.3709 C   0  0  0  0  0  0  0  0  0  0  0  0
    7.8871    1.0501    1.0894 C   0  0  0  0  0  0  0  0  0  0  0  0
    6.8083   -2.2376   -0.3985 C   0  0  0  0  0  0  0  0  0  0  0  0
    5.5520   -2.6594   -0.8339 C   0  0  0  0  0  0  0  0  0  0  0  0
    1.2508    1.2956   -0.4589 C   0  0  0  0  0  0  0  0  0  0  0  0
   -0.0183    2.1710   -0.5964 C   0  0  0  0  0  0  0  0  0  0  0  0
   -0.2398    3.0910    0.5804 C   0  0  0  0  0  0  0  0  0  0  0  0
    0.7295    3.7855    0.9888 O   0  0  0  0  0  0  0  0  0  0  0  0
   -1.5269    3.2918    1.2014 N   0  0  0  0  0  0  0  0  0  0  0  0
   -2.8366    2.8151    0.7199 C   0  0  0  0  0  0  0  0  0  0  0  0
   -3.1906    3.4176   -0.6590 C   0  0  0  0  0  0  0  0  0  0  0  0
   -3.1703    4.9265   -0.6402 C   0  0  0  0  0  0  0  0  0  0  0  0
   -4.2524    5.6435   -0.1006 C   0  0  0  0  0  0  0  0  0  0  0  0
   -4.2457    7.0413   -0.1114 C   0  0  0  0  0  0  0  0  0  0  0  0
   -3.1531    7.7313   -0.6438 C   0  0  0  0  0  0  0  0  0  0  0  0
   -2.0638    7.0267   -1.1652 C   0  0  0  0  0  0  0  0  0  0  0  0
   -2.0735    5.6300   -1.1663 C   0  0  0  0  0  0  0  0  0  0  0  0
   -2.9193    1.3069    0.7571 C   0  0  0  0  0  0  0  0  0  0  0  0
   -2.1938    0.6723    1.5676 O   0  0  0  0  0  0  0  0  0  0  0  0
   -3.9179    0.5889    0.0168 N   0  0  0  0  0  0  0  0  0  0  0  0
   -3.6528    0.2096   -1.3699 C   0  0  0  0  0  0  0  0  0  0  0  0
   -5.2908    0.5233    0.5264 C   0  0  0  0  0  0  0  0  0  0  0  0
   -5.3308    0.1415    1.9818 C   0  0  0  0  0  0  0  0  0  0  0  0
   -5.1911    1.0555    2.8386 O   0  0  0  0  0  0  0  0  0  0  0  0
   -5.6029   -1.1913    2.4448 N   0  0  0  0  0  0  0  0  0  0  0  0
   -7.6157   -3.4443    2.7811 H   0  0  0  0  0  0  0  0  0  0  0  0
   -7.5430   -4.8339    1.6305 H   0  0  0  0  0  0  0  0  0  0  0  0
   -9.0105   -3.7919    1.7254 H   0  0  0  0  0  0  0  0  0  0  0  0
   -7.6350   -1.8250    0.9162 H   0  0  0  0  0  0  0  0  0  0  0  0
   -7.5243   -2.5576   -1.4637 H   0  0  0  0  0  0  0  0  0  0  0  0
   -7.6605   -4.2789   -0.9483 H   0  0  0  0  0  0  0  0  0  0  0  0
   -9.0185   -3.1287   -0.6644 H   0  0  0  0  0  0  0  0  0  0  0  0
   -5.4695   -3.9822    0.4201 H   0  0  0  0  0  0  0  0  0  0  0  0
   -5.4303   -2.3334   -0.2369 H   0  0  0  0  0  0  0  0  0  0  0  0
   -5.2880   -3.2328    2.6854 H   0  0  0  0  0  0  0  0  0  0  0  0
   -3.1043   -1.7513    2.5657 H   0  0  0  0  0  0  0  0  0  0  0  0
   -3.1456   -3.4695    2.0529 H   0  0  0  0  0  0  0  0  0  0  0  0
   -3.4787   -3.5771   -1.6021 H   0  0  0  0  0  0  0  0  0  0  0  0
   -1.7721   -4.9174   -2.7931 H   0  0  0  0  0  0  0  0  0  0  0  0
    0.5811   -4.8987   -2.0237 H   0  0  0  0  0  0  0  0  0  0  0  0
    1.2503   -3.5098   -0.0964 H   0  0  0  0  0  0  0  0  0  0  0  0
    0.5959    0.1050    1.7805 H   0  0  0  0  0  0  0  0  0  0  0  0
    0.1843   -0.4843   -1.1190 H   0  0  0  0  0  0  0  0  0  0  0  0
    1.9577   -0.9722   -2.7515 H   0  0  0  0  0  0  0  0  0  0  0  0
    3.5178   -2.5730   -3.3916 H   0  0  0  0  0  0  0  0  0  0  0  0
    3.2131   -3.3500   -1.8125 H   0  0  0  0  0  0  0  0  0  0  0  0
    5.0225   -0.3298   -3.2685 H   0  0  0  0  0  0  0  0  0  0  0  0
    7.2363    0.4119   -2.4954 H   0  0  0  0  0  0  0  0  0  0  0  0
    9.4858   -0.8002   -1.3143 H   0  0  0  0  0  0  0  0  0  0  0  0
    9.1067   -1.2525    0.3747 H   0  0  0  0  0  0  0  0  0  0  0  0
   10.6732    1.1471   -0.8910 H   0  0  0  0  0  0  0  0  0  0  0  0
    9.9693    2.4775    0.0595 H   0  0  0  0  0  0  0  0  0  0  0  0
   11.3563    1.6972    1.7481 H   0  0  0  0  0  0  0  0  0  0  0  0
   11.4938    0.0768    1.0107 H   0  0  0  0  0  0  0  0  0  0  0  0
    9.0117    2.1972    2.5805 H   0  0  0  0  0  0  0  0  0  0  0  0
    8.1305    0.7918    3.2347 H   0  0  0  0  0  0  0  0  0  0  0  0
    7.3412    2.0054    0.9514 H   0  0  0  0  0  0  0  0  0  0  0  0
    7.1027    0.2756    1.2262 H   0  0  0  0  0  0  0  0  0  0  0  0
    7.2967   -2.7764    0.4076 H   0  0  0  0  0  0  0  0  0  0  0  0
    5.0902   -3.5146   -0.3570 H   0  0  0  0  0  0  0  0  0  0  0  0
    1.8804    1.6089    0.4068 H   0  0  0  0  0  0  0  0  0  0  0  0
    1.8730    1.4654   -1.3667 H   0  0  0  0  0  0  0  0  0  0  0  0
   -0.8944    1.5310   -0.7806 H   0  0  0  0  0  0  0  0  0  0  0  0
    0.0890    2.8116   -1.5009 H   0  0  0  0  0  0  0  0  0  0  0  0
   -1.5408    3.8930    2.0588 H   0  0  0  0  0  0  0  0  0  0  0  0
   -3.6108    3.1753    1.4355 H   0  0  0  0  0  0  0  0  0  0  0  0
   -4.2126    3.0936   -0.9503 H   0  0  0  0  0  0  0  0  0  0  0  0
   -2.5062    3.0349   -1.4426 H   0  0  0  0  0  0  0  0  0  0  0  0
   -5.1056    5.1217    0.3142 H   0  0  0  0  0  0  0  0  0  0  0  0
   -5.0886    7.5926    0.2893 H   0  0  0  0  0  0  0  0  0  0  0  0
   -3.1494    8.8103   -0.6586 H   0  0  0  0  0  0  0  0  0  0  0  0
   -1.2150    7.5605   -1.5788 H   0  0  0  0  0  0  0  0  0  0  0  0
   -1.2332    5.0930   -1.5850 H   0  0  0  0  0  0  0  0  0  0  0  0
   -4.0755    0.9663   -2.0522 H   0  0  0  0  0  0  0  0  0  0  0  0
   -4.1250   -0.7668   -1.5971 H   0  0  0  0  0  0  0  0  0  0  0  0
   -2.5651    0.1114   -1.5530 H   0  0  0  0  0  0  0  0  0  0  0  0
   -5.9103   -0.1685   -0.0732 H   0  0  0  0  0  0  0  0  0  0  0  0
   -5.7541    1.5261    0.4094 H   0  0  0  0  0  0  0  0  0  0  0  0
   -6.0581   -1.2532    3.3832 H   0  0  0  0  0  0  0  0  0  0  0  0
  1  2  1  0
  2  3  1  0
  2  4  1  0
  4  5  1  0
  5  6  1  0
  6  7  1  0
  7  8  1  0
  8  9  2  0
  9 10  1  0
 10 11  2  0
 11 12  1  0
 12 13  2  0
 13 14  1  0
 14 15  2  0
 14 16  1  0
 16 17  1  0
 17 18  1  0
 18 19  2  0
 18 20  1  0
 20 21  1  0
 21 22  1  0
 22 23  2  0
 23 24  1  0
 24 25  2  0
 25 26  1  0
 26 27  1  0
 27 28  1  0
 28 29  1  0
 29 30  1  0
 30 31  1  0
 31 32  1  0
 25 33  1  0
 33 34  2  0
 17 35  1  0
 35 36  1  0
 36 37  1  0
 37 38  2  0
 37 39  1  0
 39 40  1  0
 40 41  1  0
 41 42  1  0
 42 43  2  0
 43 44  1  0
 44 45  2  0
 45 46  1  0
 46 47  2  0
 40 48  1  0
 48 49  2  0
 48 50  1  0
 50 51  1  0
 50 52  1  0
 52 53  1  0
 53 54  2  0
 53 55  1  0
 55  5  1  0
 13  8  1  0
 34 22  1  0
 47 42  1  0
 32 27  1  0
  1 56  1  0
  1 57  1  0
  1 58  1  0
  2 59  1  0
  3 60  1  0
  3 61  1  0
  3 62  1  0
  4 63  1  0
  4 64  1  0
  5 65  1  0
  6 66  1  0
  6 67  1  0
  9 68  1  0
 10 69  1  0
 11 70  1  0
 12 71  1  0
 16 72  1  0
 17 73  1  0
 20 74  1  0
 21 75  1  0
 21 76  1  0
 23 77  1  0
 24 78  1  0
 26 79  1  0
 26 80  1  0
 28 81  1  0
 28 82  1  0
 29 83  1  0
 29 84  1  0
 31 85  1  0
 31 86  1  0
 32 87  1  0
 32 88  1  0
 33 89  1  0
 34 90  1  0
 35 91  1  0
 35 92  1  0
 36 93  1  0
 36 94  1  0
 39 95  1  0
 40 96  1  0
 41 97  1  0
 41 98  1  0
 43 99  1  0
 44100  1  0
 45101  1  0
 46102  1  0
 47103  1  0
 51104  1  0
 51105  1  0
 51106  1  0
 52107  1  0
 52108  1  0
 55109  1  0
M  END
$$$$
