
     RDKit          3D

 52 55  0  0  0  0  0  0  0  0999 V2000
   -0.1849   -1.3965   -2.5553 O   0  0  0  0  0  0  0  0  0  0  0  0
   -0.0176   -1.3130   -1.3084 C   0  0  0  0  0  0  0  0  0  0  0  0
   -0.7882   -2.1779   -0.4455 N   0  0  0  0  0  0  0  0  0  0  0  0
   -1.9062   -1.7269    0.4070 C   0  0  2  0  0  0  0  0  0  0  0  0
   -3.1634   -1.5381   -0.4228 C   0  0  0  0  0  0  0  0  0  0  0  0
   -3.2515   -0.5273   -1.4008 C   0  0  0  0  0  0  0  0  0  0  0  0
   -4.4156   -0.3757   -2.1597 C   0  0  0  0  0  0  0  0  0  0  0  0
   -5.5014   -1.2296   -1.9562 C   0  0  0  0  0  0  0  0  0  0  0  0
   -5.4247   -2.2389   -0.9942 C   0  0  0  0  0  0  0  0  0  0  0  0
   -4.2629   -2.3953   -0.2322 C   0  0  0  0  0  0  0  0  0  0  0  0
   -1.5201   -0.4661    1.1752 C   0  0  0  0  0  0  0  0  0  0  0  0
   -2.5831    0.1130    1.9134 O   0  0  0  0  0  0  0  0  0  0  0  0
   -2.0987    1.1850    2.7289 C   0  0  0  0  0  0  0  0  0  0  0  0
   -1.2676    2.1904    1.9591 C   0  0  0  0  0  0  0  0  0  0  0  0
    0.0783    1.9990    1.6939 C   0  0  0  0  0  0  0  0  0  0  0  0
    0.3115    2.5459    0.4896 N   0  0  0  0  0  0  0  0  0  0  0  0
   -0.8067    3.1196    0.0741 N   0  0  0  0  0  0  0  0  0  0  0  0
   -1.7839    2.9160    0.9455 N   0  0  0  0  0  0  0  0  0  0  0  0
    1.4049    2.1730   -0.4091 C   0  0  0  0  0  0  0  0  0  0  0  0
    0.9796    1.0264   -1.3665 C   0  0  0  0  0  0  0  0  0  0  0  0
    1.0907   -0.4147   -0.7696 C   0  0  2  0  0  0  0  0  0  0  0  0
    2.4506   -1.0777   -1.0878 C   0  0  0  0  0  0  0  0  0  0  0  0
    3.6039   -0.3803   -0.4139 C   0  0  0  0  0  0  0  0  0  0  0  0
    3.8297   -0.5592    0.9611 C   0  0  0  0  0  0  0  0  0  0  0  0
    4.8742    0.1176    1.5972 C   0  0  0  0  0  0  0  0  0  0  0  0
    5.6982    0.9788    0.8678 C   0  0  0  0  0  0  0  0  0  0  0  0
    5.4796    1.1649   -0.5011 C   0  0  0  0  0  0  0  0  0  0  0  0
    6.5082    2.2539   -1.4135 Cl  0  0  0  0  0  0  0  0  0  0  0  0
    4.4357    0.4878   -1.1415 C   0  0  0  0  0  0  0  0  0  0  0  0
   -0.8209   -3.1830   -0.7297 H   0  0  0  0  0  0  0  0  0  0  0  0
   -2.0866   -2.5156    1.1713 H   0  0  0  0  0  0  0  0  0  0  0  0
   -2.4254    0.1469   -1.5795 H   0  0  0  0  0  0  0  0  0  0  0  0
   -4.4753    0.4050   -2.9070 H   0  0  0  0  0  0  0  0  0  0  0  0
   -6.4017   -1.1105   -2.5450 H   0  0  0  0  0  0  0  0  0  0  0  0
   -6.2663   -2.9016   -0.8387 H   0  0  0  0  0  0  0  0  0  0  0  0
   -4.2240   -3.1857    0.5068 H   0  0  0  0  0  0  0  0  0  0  0  0
   -0.6712   -0.7259    1.8491 H   0  0  0  0  0  0  0  0  0  0  0  0
   -1.2151    0.2514    0.3963 H   0  0  0  0  0  0  0  0  0  0  0  0
   -2.9730    1.7157    3.1594 H   0  0  0  0  0  0  0  0  0  0  0  0
   -1.5127    0.7789    3.5830 H   0  0  0  0  0  0  0  0  0  0  0  0
    0.7388    1.2973    2.1880 H   0  0  0  0  0  0  0  0  0  0  0  0
    2.3023    1.8981    0.1812 H   0  0  0  0  0  0  0  0  0  0  0  0
    1.6755    3.0616   -1.0189 H   0  0  0  0  0  0  0  0  0  0  0  0
    1.5964    1.0912   -2.2892 H   0  0  0  0  0  0  0  0  0  0  0  0
   -0.0638    1.2249   -1.6964 H   0  0  0  0  0  0  0  0  0  0  0  0
    1.0064   -0.3657    0.3321 H   0  0  0  0  0  0  0  0  0  0  0  0
    2.4342   -2.1345   -0.7390 H   0  0  0  0  0  0  0  0  0  0  0  0
    2.6091   -1.1129   -2.1886 H   0  0  0  0  0  0  0  0  0  0  0  0
    3.1923   -1.2164    1.5396 H   0  0  0  0  0  0  0  0  0  0  0  0
    5.0423   -0.0224    2.6572 H   0  0  0  0  0  0  0  0  0  0  0  0
    6.5035    1.5023    1.3672 H   0  0  0  0  0  0  0  0  0  0  0  0
    4.2667    0.6464   -2.1995 H   0  0  0  0  0  0  0  0  0  0  0  0
  1  2  2  0
  2  3  1  0
  3  4  1  0
  4  5  1  0
  5  6  2  0
  6  7  1  0
  7  8  2  0
  8  9  1  0
  9 10  2  0
  4 11  1  0
 11 12  1  0
 12 13  1  0
 13 14  1  0
 14 15  2  0
 15 16  1  0
 16 17  1  0
 17 18  2  0
 16 19  1  0
 19 20  1  0
 20 21  1  0
 21 22  1  0
 22 23  1  0
 23 24  2  0
 24 25  1  0
 25 26  2  0
 26 27  1  0
 27 28  1  0
 27 29  2  0
 21  2  1  0
 29 23  1  0
 10  5  1  0
 18 14  1  0
  3 30  1  0
  4 31  1  1
  6 32  1  0
  7 33  1  0
  8 34  1  0
  9 35  1  0
 10 36  1  0
 11 37  1  0
 11 38  1  0
 13 39  1  0
 13 40  1  0
 15 41  1  0
 19 42  1  0
 19 43  1  0
 20 44  1  0
 20 45  1  0
 21 46  1  1
 22 47  1  0
 22 48  1  0
 24 49  1  0
 25 50  1  0
 26 51  1  0
 29 52  1  0
M  END
$$$$
