
     RDKit          3D

 69 71  0  0  0  0  0  0  0  0999 V2000
   -2.9711    1.0465   -3.8355 C   0  0  0  0  0  0  0  0  0  0  0  0
   -2.3536    0.5771   -2.6557 O   0  0  0  0  0  0  0  0  0  0  0  0
   -3.2877    0.5425   -1.5868 C   0  0  1  0  0  0  0  0  0  0  0  0
   -4.0101   -0.8245   -1.5762 C   0  0  0  0  0  0  0  0  0  0  0  0
   -4.0502   -1.4364   -0.1775 C   0  0  0  0  0  0  0  0  0  0  0  0
   -2.6181   -1.4836    0.4381 C   0  0  1  0  0  0  0  0  0  0  0  0
   -1.9063   -2.7761   -0.0202 C   0  0  0  0  0  0  0  0  0  0  0  0
   -0.7020   -3.1728    0.8509 C   0  0  0  0  0  0  0  0  0  0  0  0
    0.4758   -2.4304    0.5347 O   0  0  0  0  0  0  0  0  0  0  0  0
    1.3695   -2.7143   -0.5153 C   0  0  0  0  0  0  0  0  0  0  0  0
    1.0069   -3.5645   -1.5811 C   0  0  0  0  0  0  0  0  0  0  0  0
    1.8863   -3.7999   -2.6373 C   0  0  0  0  0  0  0  0  0  0  0  0
    3.1521   -3.2142   -2.6388 C   0  0  0  0  0  0  0  0  0  0  0  0
    4.0628   -3.4692   -3.7251 C   0  0  0  0  0  0  0  0  0  0  0  0
    4.7953   -3.6747   -4.5980 N   0  0  0  0  0  0  0  0  0  0  0  0
    3.5455   -2.4052   -1.5693 C   0  0  0  0  0  0  0  0  0  0  0  0
    2.6703   -2.1516   -0.4962 C   0  0  0  0  0  0  0  0  0  0  0  0
    3.1823   -1.3947    0.6766 C   0  0  0  0  0  0  0  0  0  0  0  0
    4.4222   -1.3786    0.9099 O   0  0  0  0  0  0  0  0  0  0  0  0
    2.3001   -0.7103    1.5759 N   0  0  0  0  0  0  0  0  0  0  0  0
    2.3698   -1.0137    3.0053 C   0  0  0  0  0  0  0  0  0  0  0  0
    1.4398    0.3699    1.0849 C   0  0  0  0  0  0  0  0  0  0  0  0
    2.0489    1.7461    1.4234 C   0  0  1  0  0  0  0  0  0  0  0  0
    3.2701    1.8802    0.7090 O   0  0  0  0  0  0  0  0  0  0  0  0
    4.3591    2.0537    1.5892 C   0  0  0  0  0  0  0  0  0  0  0  0
    1.0958    2.8978    1.0121 C   0  0  2  0  0  0  0  0  0  0  0  0
    1.6961    4.2666    1.3658 C   0  0  0  0  0  0  0  0  0  0  0  0
   -0.2564    2.7639    1.6854 C   0  0  0  0  0  0  0  0  0  0  0  0
   -0.3056    2.7607    2.9469 O   0  0  0  0  0  0  0  0  0  0  0  0
   -1.4875    2.7174    0.9358 N   0  0  0  0  0  0  0  0  0  0  0  0
   -2.6507    3.4224    1.4850 C   0  0  0  0  0  0  0  0  0  0  0  0
   -1.6132    2.0175   -0.3544 C   0  0  0  0  0  0  0  0  0  0  0  0
   -2.5450    0.7883   -0.2485 C   0  0  2  0  0  0  0  0  0  0  0  0
   -1.7930   -0.3639    0.1021 O   0  0  0  0  0  0  0  0  0  0  0  0
   -2.2300    1.0123   -4.6602 H   0  0  0  0  0  0  0  0  0  0  0  0
   -3.2989    2.1034   -3.7201 H   0  0  0  0  0  0  0  0  0  0  0  0
   -3.8289    0.4018   -4.1241 H   0  0  0  0  0  0  0  0  0  0  0  0
   -4.0556    1.3514   -1.6675 H   0  0  0  0  0  0  0  0  0  0  0  0
   -3.4948   -1.5381   -2.2569 H   0  0  0  0  0  0  0  0  0  0  0  0
   -5.0486   -0.7005   -1.9510 H   0  0  0  0  0  0  0  0  0  0  0  0
   -4.5175   -2.4434   -0.2212 H   0  0  0  0  0  0  0  0  0  0  0  0
   -4.7140   -0.8194    0.4672 H   0  0  0  0  0  0  0  0  0  0  0  0
   -2.7343   -1.5168    1.5437 H   0  0  0  0  0  0  0  0  0  0  0  0
   -2.6185   -3.6289    0.0281 H   0  0  0  0  0  0  0  0  0  0  0  0
   -1.6060   -2.6589   -1.0804 H   0  0  0  0  0  0  0  0  0  0  0  0
   -0.9457   -3.0072    1.9212 H   0  0  0  0  0  0  0  0  0  0  0  0
   -0.4952   -4.2598    0.7408 H   0  0  0  0  0  0  0  0  0  0  0  0
    0.0501   -4.0626   -1.6054 H   0  0  0  0  0  0  0  0  0  0  0  0
    1.5807   -4.4480   -3.4508 H   0  0  0  0  0  0  0  0  0  0  0  0
    4.5451   -1.9824   -1.5668 H   0  0  0  0  0  0  0  0  0  0  0  0
    1.6269   -0.4181    3.5770 H   0  0  0  0  0  0  0  0  0  0  0  0
    2.1536   -2.0902    3.1665 H   0  0  0  0  0  0  0  0  0  0  0  0
    3.3838   -0.7850    3.3944 H   0  0  0  0  0  0  0  0  0  0  0  0
    1.3059    0.2861   -0.0161 H   0  0  0  0  0  0  0  0  0  0  0  0
    0.4374    0.2570    1.5481 H   0  0  0  0  0  0  0  0  0  0  0  0
    2.1729    1.7928    2.5341 H   0  0  0  0  0  0  0  0  0  0  0  0
    4.4958    1.1586    2.2338 H   0  0  0  0  0  0  0  0  0  0  0  0
    4.2317    2.9646    2.2141 H   0  0  0  0  0  0  0  0  0  0  0  0
    5.2827    2.1803    0.9888 H   0  0  0  0  0  0  0  0  0  0  0  0
    0.9891    2.8922   -0.0909 H   0  0  0  0  0  0  0  0  0  0  0  0
    1.9143    4.3360    2.4534 H   0  0  0  0  0  0  0  0  0  0  0  0
    0.9872    5.0764    1.0911 H   0  0  0  0  0  0  0  0  0  0  0  0
    2.6357    4.4346    0.7994 H   0  0  0  0  0  0  0  0  0  0  0  0
   -2.9777    2.9330    2.4277 H   0  0  0  0  0  0  0  0  0  0  0  0
   -2.3835    4.4810    1.6930 H   0  0  0  0  0  0  0  0  0  0  0  0
   -3.5012    3.4151    0.7698 H   0  0  0  0  0  0  0  0  0  0  0  0
   -2.0046    2.7428   -1.1020 H   0  0  0  0  0  0  0  0  0  0  0  0
   -0.6355    1.6680   -0.7364 H   0  0  0  0  0  0  0  0  0  0  0  0
   -3.3006    0.9995    0.5424 H   0  0  0  0  0  0  0  0  0  0  0  0
  1  2  1  0
  2  3  1  0
  3  4  1  0
  4  5  1  0
  5  6  1  0
  6  7  1  0
  7  8  1  0
  8  9  1  0
  9 10  1  0
 10 11  2  0
 11 12  1  0
 12 13  2  0
 13 14  1  0
 14 15  3  0
 13 16  1  0
 16 17  2  0
 17 18  1  0
 18 19  2  0
 18 20  1  0
 20 21  1  0
 20 22  1  0
 22 23  1  0
 23 24  1  0
 24 25  1  0
 23 26  1  0
 26 27  1  0
 26 28  1  0
 28 29  2  0
 28 30  1  0
 30 31  1  0
 30 32  1  0
 32 33  1  0
 33 34  1  0
 33  3  1  0
 34  6  1  0
 17 10  1  0
  1 35  1  0
  1 36  1  0
  1 37  1  0
  3 38  1  6
  4 39  1  0
  4 40  1  0
  5 41  1  0
  5 42  1  0
  6 43  1  1
  7 44  1  0
  7 45  1  0
  8 46  1  0
  8 47  1  0
 11 48  1  0
 12 49  1  0
 16 50  1  0
 21 51  1  0
 21 52  1  0
 21 53  1  0
 22 54  1  0
 22 55  1  0
 23 56  1  1
 25 57  1  0
 25 58  1  0
 25 59  1  0
 26 60  1  6
 27 61  1  0
 27 62  1  0
 27 63  1  0
 31 64  1  0
 31 65  1  0
 31 66  1  0
 32 67  1  0
 32 68  1  0
 33 69  1  1
M  END
$$$$
