
     RDKit          3D

 72 75  0  0  0  0  0  0  0  0999 V2000
    5.8216    4.3668    1.7110 C   0  0  0  0  0  0  0  0  0  0  0  0
    4.6920    3.6180    1.3119 O   0  0  0  0  0  0  0  0  0  0  0  0
    5.0772    2.3659    0.7556 C   0  0  1  0  0  0  0  0  0  0  0  0
    4.0522    1.2764    1.1747 C   0  0  0  0  0  0  0  0  0  0  0  0
    3.4634    1.5726    2.4882 N   0  0  0  0  0  0  0  0  0  0  0  0
    4.3126    1.5606    3.6844 C   0  0  0  0  0  0  0  0  0  0  0  0
    2.0952    2.0173    2.6134 C   0  0  0  0  0  0  0  0  0  0  0  0
    1.8135    2.9489    3.4162 O   0  0  0  0  0  0  0  0  0  0  0  0
    0.9866    1.3115    1.9436 C   0  0  0  0  0  0  0  0  0  0  0  0
    0.2936    0.3394    2.6806 C   0  0  0  0  0  0  0  0  0  0  0  0
   -0.7560   -0.3826    2.1043 C   0  0  0  0  0  0  0  0  0  0  0  0
   -1.1375   -0.1342    0.7760 C   0  0  0  0  0  0  0  0  0  0  0  0
   -2.1907   -0.8836    0.1421 N   0  0  0  0  0  0  0  0  0  0  0  0
   -3.3424   -1.3905    0.8365 C   0  0  0  0  0  0  0  0  0  0  0  0
   -3.6768   -0.8857    1.9446 O   0  0  0  0  0  0  0  0  0  0  0  0
   -4.1753   -2.4663    0.2424 C   0  0  0  0  0  0  0  0  0  0  0  0
   -3.6608   -3.3178   -0.7514 C   0  0  0  0  0  0  0  0  0  0  0  0
   -4.4506   -4.3372   -1.2930 C   0  0  0  0  0  0  0  0  0  0  0  0
   -5.7704   -4.5329   -0.8494 C   0  0  0  0  0  0  0  0  0  0  0  0
   -6.6008   -5.6362   -1.4007 C   0  0  0  0  0  0  0  0  0  0  0  0
   -7.9721   -5.4415   -1.6526 C   0  0  0  0  0  0  0  0  0  0  0  0
   -8.7523   -6.4839   -2.1576 C   0  0  0  0  0  0  0  0  0  0  0  0
   -8.1770   -7.7283   -2.4167 C   0  0  0  0  0  0  0  0  0  0  0  0
   -6.8171   -7.9347   -2.1761 C   0  0  0  0  0  0  0  0  0  0  0  0
   -6.0312   -6.8959   -1.6716 C   0  0  0  0  0  0  0  0  0  0  0  0
   -6.2826   -3.6811    0.1441 C   0  0  0  0  0  0  0  0  0  0  0  0
   -5.4942   -2.6622    0.6859 C   0  0  0  0  0  0  0  0  0  0  0  0
   -0.4351    0.8240    0.0332 C   0  0  0  0  0  0  0  0  0  0  0  0
    0.6038    1.5654    0.6054 C   0  0  0  0  0  0  0  0  0  0  0  0
    1.2637    2.4855   -0.2131 O   0  0  0  0  0  0  0  0  0  0  0  0
    1.3480    3.8853    0.0412 C   0  0  0  0  0  0  0  0  0  0  0  0
    2.1310    4.5953   -1.0807 C   0  0  2  0  0  0  0  0  0  0  0  0
    1.5406    4.3434   -2.4777 C   0  0  0  0  0  0  0  0  0  0  0  0
    3.5780    4.3054   -0.9965 N   0  0  0  0  0  0  0  0  0  0  0  0
    4.0091    3.0098   -1.5467 C   0  0  0  0  0  0  0  0  0  0  0  0
    5.2575    2.4906   -0.7932 C   0  0  2  0  0  0  0  0  0  0  0  0
    5.7426    1.1687   -1.4062 C   0  0  0  0  0  0  0  0  0  0  0  0
    6.3623    3.8590    2.5407 H   0  0  0  0  0  0  0  0  0  0  0  0
    5.4813    5.3561    2.0815 H   0  0  0  0  0  0  0  0  0  0  0  0
    6.5087    4.5540    0.8546 H   0  0  0  0  0  0  0  0  0  0  0  0
    6.0566    2.0204    1.1752 H   0  0  0  0  0  0  0  0  0  0  0  0
    3.2595    1.1741    0.4229 H   0  0  0  0  0  0  0  0  0  0  0  0
    4.5531    0.2890    1.2138 H   0  0  0  0  0  0  0  0  0  0  0  0
    3.8778    0.8779    4.4414 H   0  0  0  0  0  0  0  0  0  0  0  0
    4.3844    2.5857    4.1072 H   0  0  0  0  0  0  0  0  0  0  0  0
    5.3396    1.2060    3.4488 H   0  0  0  0  0  0  0  0  0  0  0  0
    0.5798    0.1282    3.7051 H   0  0  0  0  0  0  0  0  0  0  0  0
   -1.2439   -1.1536    2.6883 H   0  0  0  0  0  0  0  0  0  0  0  0
   -2.1786   -0.9583   -0.9015 H   0  0  0  0  0  0  0  0  0  0  0  0
   -2.6408   -3.2151   -1.0999 H   0  0  0  0  0  0  0  0  0  0  0  0
   -4.0290   -4.9734   -2.0624 H   0  0  0  0  0  0  0  0  0  0  0  0
   -8.4386   -4.4796   -1.4731 H   0  0  0  0  0  0  0  0  0  0  0  0
   -9.8049   -6.3248   -2.3472 H   0  0  0  0  0  0  0  0  0  0  0  0
   -8.7866   -8.5334   -2.8031 H   0  0  0  0  0  0  0  0  0  0  0  0
   -6.3747   -8.9018   -2.3772 H   0  0  0  0  0  0  0  0  0  0  0  0
   -4.9843   -7.0836   -1.4772 H   0  0  0  0  0  0  0  0  0  0  0  0
   -7.2894   -3.8167    0.5211 H   0  0  0  0  0  0  0  0  0  0  0  0
   -5.9190   -2.0224    1.4522 H   0  0  0  0  0  0  0  0  0  0  0  0
   -0.7063    1.0060   -0.9998 H   0  0  0  0  0  0  0  0  0  0  0  0
    1.8583    4.0795    1.0065 H   0  0  0  0  0  0  0  0  0  0  0  0
    0.3202    4.3104    0.0958 H   0  0  0  0  0  0  0  0  0  0  0  0
    2.0071    5.6842   -0.8873 H   0  0  0  0  0  0  0  0  0  0  0  0
    2.1929    4.8007   -3.2514 H   0  0  0  0  0  0  0  0  0  0  0  0
    0.5346    4.8048   -2.5470 H   0  0  0  0  0  0  0  0  0  0  0  0
    1.4393    3.2590   -2.6890 H   0  0  0  0  0  0  0  0  0  0  0  0
    4.1118    5.0721   -1.4740 H   0  0  0  0  0  0  0  0  0  0  0  0
    4.2643    3.1393   -2.6239 H   0  0  0  0  0  0  0  0  0  0  0  0
    3.2139    2.2477   -1.5075 H   0  0  0  0  0  0  0  0  0  0  0  0
    6.0705    3.2267   -0.9790 H   0  0  0  0  0  0  0  0  0  0  0  0
    6.6926    0.8566   -0.9231 H   0  0  0  0  0  0  0  0  0  0  0  0
    4.9848    0.3687   -1.2920 H   0  0  0  0  0  0  0  0  0  0  0  0
    5.9433    1.3000   -2.4916 H   0  0  0  0  0  0  0  0  0  0  0  0
  1  2  1  0
  2  3  1  0
  3  4  1  0
  4  5  1  0
  5  6  1  0
  5  7  1  0
  7  8  2  0
  7  9  1  0
  9 10  2  0
 10 11  1  0
 11 12  2  0
 12 13  1  0
 13 14  1  0
 14 15  2  0
 14 16  1  0
 16 17  2  0
 17 18  1  0
 18 19  2  0
 19 20  1  0
 20 21  2  0
 21 22  1  0
 22 23  2  0
 23 24  1  0
 24 25  2  0
 19 26  1  0
 26 27  2  0
 12 28  1  0
 28 29  2  0
 29 30  1  0
 30 31  1  0
 31 32  1  0
 32 33  1  0
 32 34  1  0
 34 35  1  0
 35 36  1  0
 36 37  1  0
 36  3  1  0
 29  9  1  0
 27 16  1  0
 25 20  1  0
  1 38  1  0
  1 39  1  0
  1 40  1  0
  3 41  1  1
  4 42  1  0
  4 43  1  0
  6 44  1  0
  6 45  1  0
  6 46  1  0
 10 47  1  0
 11 48  1  0
 13 49  1  0
 17 50  1  0
 18 51  1  0
 21 52  1  0
 22 53  1  0
 23 54  1  0
 24 55  1  0
 25 56  1  0
 26 57  1  0
 27 58  1  0
 28 59  1  0
 31 60  1  0
 31 61  1  0
 32 62  1  1
 33 63  1  0
 33 64  1  0
 33 65  1  0
 34 66  1  0
 35 67  1  0
 35 68  1  0
 36 69  1  1
 37 70  1  0
 37 71  1  0
 37 72  1  0
M  END
$$$$
