
     RDKit          3D

 73 76  0  0  0  0  0  0  0  0999 V2000
    7.4970    2.1111    2.0255 C   0  0  0  0  0  0  0  0  0  0  0  0
    6.3772    1.2741    1.4562 C   0  0  0  0  0  0  0  0  0  0  0  0
    5.5064    0.6368    2.3495 C   0  0  0  0  0  0  0  0  0  0  0  0
    4.4593   -0.1366    1.8665 C   0  0  0  0  0  0  0  0  0  0  0  0
    4.2734   -0.2835    0.4919 C   0  0  0  0  0  0  0  0  0  0  0  0
    3.1484   -1.1101   -0.0027 C   0  0  0  0  0  0  0  0  0  0  0  0
    2.9081   -2.2095    0.5642 O   0  0  0  0  0  0  0  0  0  0  0  0
    2.2917   -0.6507   -1.0724 N   0  0  0  0  0  0  0  0  0  0  0  0
    2.0007   -1.5423   -2.2129 C   0  0  0  0  0  0  0  0  0  0  0  0
    1.1682   -2.7828   -1.8342 C   0  0  0  0  0  0  0  0  0  0  0  0
   -0.1276   -2.4318   -1.0924 C   0  0  0  0  0  0  0  0  0  0  0  0
   -1.0318   -3.6606   -0.8964 C   0  0  0  0  0  0  0  0  0  0  0  0
   -1.8964   -3.4909    0.2738 N   0  0  0  0  0  0  0  0  0  0  0  0
   -2.9178   -2.4866    0.3780 C   0  0  0  0  0  0  0  0  0  0  0  0
   -3.1249   -1.9460    1.4951 O   0  0  0  0  0  0  0  0  0  0  0  0
   -3.7598   -2.0979   -0.7731 C   0  0  0  0  0  0  0  0  0  0  0  0
   -4.3460   -3.1066   -1.5564 C   0  0  0  0  0  0  0  0  0  0  0  0
   -5.2664   -2.7839   -2.5583 C   0  0  0  0  0  0  0  0  0  0  0  0
   -5.9934   -4.0549   -3.5236 Cl  0  0  0  0  0  0  0  0  0  0  0  0
   -5.6276   -1.4512   -2.7723 C   0  0  0  0  0  0  0  0  0  0  0  0
   -5.0525   -0.4378   -2.0024 C   0  0  0  0  0  0  0  0  0  0  0  0
   -4.0986   -0.7434   -1.0231 C   0  0  0  0  0  0  0  0  0  0  0  0
   -3.4648    0.3207   -0.3663 O   0  0  0  0  0  0  0  0  0  0  0  0
   -2.0497    0.4683   -0.4106 C   0  0  0  0  0  0  0  0  0  0  0  0
   -1.5913    1.8743    0.0016 C   0  0  0  0  0  0  0  0  0  0  0  0
   -1.7594    2.1518    1.5114 C   0  0  0  0  0  0  0  0  0  0  0  0
   -3.2084    2.2424    1.9185 C   0  0  0  0  0  0  0  0  0  0  0  0
   -3.8090    1.2019    2.6475 C   0  0  0  0  0  0  0  0  0  0  0  0
   -5.1559    1.2831    3.0122 C   0  0  0  0  0  0  0  0  0  0  0  0
   -5.9097    2.4039    2.6576 C   0  0  0  0  0  0  0  0  0  0  0  0
   -5.3201    3.4445    1.9345 C   0  0  0  0  0  0  0  0  0  0  0  0
   -3.9744    3.3658    1.5652 C   0  0  0  0  0  0  0  0  0  0  0  0
   -0.1872    2.0493   -0.3968 N   0  0  0  0  0  0  0  0  0  0  0  0
    0.8321    1.0774   -0.1006 C   0  0  0  0  0  0  0  0  0  0  0  0
    0.8559    0.5072    1.0208 O   0  0  0  0  0  0  0  0  0  0  0  0
    1.8861    0.7694   -1.1231 C   0  0  0  0  0  0  0  0  0  0  0  0
    5.1731    0.3476   -0.3894 C   0  0  0  0  0  0  0  0  0  0  0  0
    5.0488    0.1598   -1.6328 O   0  0  0  0  0  0  0  0  0  0  0  0
    6.1843    1.1466    0.0964 N   0  0  0  0  0  0  0  0  0  0  0  0
    7.1017    1.8210   -0.8417 C   0  0  0  0  0  0  0  0  0  0  0  0
    7.6125    1.9559    3.1196 H   0  0  0  0  0  0  0  0  0  0  0  0
    8.4610    1.8385    1.5488 H   0  0  0  0  0  0  0  0  0  0  0  0
    7.2836    3.1858    1.8532 H   0  0  0  0  0  0  0  0  0  0  0  0
    5.6340    0.7403    3.4198 H   0  0  0  0  0  0  0  0  0  0  0  0
    3.7835   -0.6137    2.5677 H   0  0  0  0  0  0  0  0  0  0  0  0
    2.9603   -1.8813   -2.6585 H   0  0  0  0  0  0  0  0  0  0  0  0
    1.4558   -0.9953   -3.0116 H   0  0  0  0  0  0  0  0  0  0  0  0
    1.7764   -3.4772   -1.2149 H   0  0  0  0  0  0  0  0  0  0  0  0
    0.9140   -3.3282   -2.7711 H   0  0  0  0  0  0  0  0  0  0  0  0
   -0.6841   -1.6780   -1.6820 H   0  0  0  0  0  0  0  0  0  0  0  0
    0.1348   -2.0035   -0.1011 H   0  0  0  0  0  0  0  0  0  0  0  0
   -1.6418   -3.8378   -1.8073 H   0  0  0  0  0  0  0  0  0  0  0  0
   -0.4067   -4.5668   -0.7383 H   0  0  0  0  0  0  0  0  0  0  0  0
   -1.6272   -3.9984    1.1465 H   0  0  0  0  0  0  0  0  0  0  0  0
   -4.1148   -4.1479   -1.3659 H   0  0  0  0  0  0  0  0  0  0  0  0
   -6.3450   -1.1974   -3.5431 H   0  0  0  0  0  0  0  0  0  0  0  0
   -5.3163    0.5953   -2.1944 H   0  0  0  0  0  0  0  0  0  0  0  0
   -1.7204    0.3036   -1.4589 H   0  0  0  0  0  0  0  0  0  0  0  0
   -1.5656   -0.2787    0.2433 H   0  0  0  0  0  0  0  0  0  0  0  0
   -2.2003    2.6150   -0.5625 H   0  0  0  0  0  0  0  0  0  0  0  0
   -1.2454    1.3684    2.1099 H   0  0  0  0  0  0  0  0  0  0  0  0
   -1.2644    3.1158    1.7602 H   0  0  0  0  0  0  0  0  0  0  0  0
   -3.2342    0.3317    2.9389 H   0  0  0  0  0  0  0  0  0  0  0  0
   -5.6129    0.4802    3.5758 H   0  0  0  0  0  0  0  0  0  0  0  0
   -6.9515    2.4662    2.9449 H   0  0  0  0  0  0  0  0  0  0  0  0
   -5.9060    4.3125    1.6619 H   0  0  0  0  0  0  0  0  0  0  0  0
   -3.5285    4.1789    1.0060 H   0  0  0  0  0  0  0  0  0  0  0  0
    0.0272    2.7789   -1.1116 H   0  0  0  0  0  0  0  0  0  0  0  0
    1.4892    1.0300   -2.1269 H   0  0  0  0  0  0  0  0  0  0  0  0
    2.7547    1.4372   -0.9554 H   0  0  0  0  0  0  0  0  0  0  0  0
    6.6922    1.8688   -1.8720 H   0  0  0  0  0  0  0  0  0  0  0  0
    7.2767    2.8725   -0.5325 H   0  0  0  0  0  0  0  0  0  0  0  0
    8.0695    1.2786   -0.8731 H   0  0  0  0  0  0  0  0  0  0  0  0
  1  2  1  0
  2  3  2  0
  3  4  1  0
  4  5  2  0
  5  6  1  0
  6  7  2  0
  6  8  1  0
  8  9  1  0
  9 10  1  0
 10 11  1  0
 11 12  1  0
 12 13  1  0
 13 14  1  0
 14 15  2  0
 14 16  1  0
 16 17  2  0
 17 18  1  0
 18 19  1  0
 18 20  2  0
 20 21  1  0
 21 22  2  0
 22 23  1  0
 23 24  1  0
 24 25  1  0
 25 26  1  0
 26 27  1  0
 27 28  2  0
 28 29  1  0
 29 30  2  0
 30 31  1  0
 31 32  2  0
 25 33  1  0
 33 34  1  0
 34 35  2  0
 34 36  1  0
  5 37  1  0
 37 38  2  0
 37 39  1  0
 39 40  1  0
 39  2  1  0
 36  8  1  0
 22 16  1  0
 32 27  1  0
  1 41  1  0
  1 42  1  0
  1 43  1  0
  3 44  1  0
  4 45  1  0
  9 46  1  0
  9 47  1  0
 10 48  1  0
 10 49  1  0
 11 50  1  0
 11 51  1  0
 12 52  1  0
 12 53  1  0
 13 54  1  0
 17 55  1  0
 20 56  1  0
 21 57  1  0
 24 58  1  0
 24 59  1  0
 25 60  1  0
 26 61  1  0
 26 62  1  0
 28 63  1  0
 29 64  1  0
 30 65  1  0
 31 66  1  0
 32 67  1  0
 33 68  1  0
 36 69  1  0
 36 70  1  0
 40 71  1  0
 40 72  1  0
 40 73  1  0
M  END
$$$$
