
     RDKit          3D

 90 92  0  0  0  0  0  0  0  0999 V2000
   -3.7240   -3.5153    2.2107 C   0  0  0  0  0  0  0  0  0  0  0  0
   -4.1650   -2.1546    1.6548 C   0  0  0  0  0  0  0  0  0  0  0  0
   -5.0804   -2.3252    0.4386 C   0  0  0  0  0  0  0  0  0  0  0  0
   -2.9735   -1.2075    1.3778 C   0  0  0  0  0  0  0  0  0  0  0  0
   -1.9994   -1.6593    0.2436 C   0  0  2  0  0  0  0  0  0  0  0  0
   -0.5882   -1.5294    0.6560 N   0  0  0  0  0  0  0  0  0  0  0  0
    0.0533   -2.7885    1.0734 C   0  0  0  0  0  0  0  0  0  0  0  0
    1.5533   -2.7195    0.7600 C   0  0  0  0  0  0  0  0  0  0  0  0
    1.8015   -2.5301   -0.7554 C   0  0  0  0  0  0  0  0  0  0  0  0
    3.1673   -1.8924   -1.0661 C   0  0  0  0  0  0  0  0  0  0  0  0
    3.0731   -1.0751   -2.2775 N   0  0  0  0  0  0  0  0  0  0  0  0
    4.0320   -0.0727   -2.6571 C   0  0  0  0  0  0  0  0  0  0  0  0
    4.5385   -0.1586   -3.8086 O   0  0  0  0  0  0  0  0  0  0  0  0
    4.4568    1.1184   -1.8025 C   0  0  2  0  0  0  0  0  0  0  0  0
    5.8428    0.9017   -1.1409 C   0  0  0  0  0  0  0  0  0  0  0  0
    5.8983   -0.2240   -0.1433 C   0  0  0  0  0  0  0  0  0  0  0  0
    6.4002   -1.4836   -0.5210 C   0  0  0  0  0  0  0  0  0  0  0  0
    6.4548   -2.5284    0.4065 C   0  0  0  0  0  0  0  0  0  0  0  0
    6.0183   -2.3217    1.7176 C   0  0  0  0  0  0  0  0  0  0  0  0
    5.5353   -1.0688    2.1053 C   0  0  0  0  0  0  0  0  0  0  0  0
    5.4753   -0.0214    1.1818 C   0  0  0  0  0  0  0  0  0  0  0  0
    3.4513    1.6885   -0.8685 N   0  0  0  0  0  0  0  0  0  0  0  0
    3.7018    2.9988   -0.2582 C   0  0  0  0  0  0  0  0  0  0  0  0
    2.1580    1.1235   -0.5964 C   0  0  0  0  0  0  0  0  0  0  0  0
    1.9782    0.5291    0.5013 O   0  0  0  0  0  0  0  0  0  0  0  0
    0.9462    1.4285   -1.4508 C   0  0  2  0  0  0  0  0  0  0  0  0
    1.2828    2.1572   -2.7554 C   0  0  0  0  0  0  0  0  0  0  0  0
    0.0106    2.2400   -0.6714 N   0  0  0  0  0  0  0  0  0  0  0  0
   -1.2591    1.7324   -0.2490 C   0  0  0  0  0  0  0  0  0  0  0  0
   -1.4570    1.5264    0.9776 O   0  0  0  0  0  0  0  0  0  0  0  0
   -2.3931    1.5854   -1.2445 C   0  0  2  0  0  0  0  0  0  0  0  0
   -3.4193    2.7372   -1.0467 C   0  0  0  0  0  0  0  0  0  0  0  0
   -4.0070    2.8328    0.3472 C   0  0  0  0  0  0  0  0  0  0  0  0
   -5.0500    1.9841    0.7555 C   0  0  0  0  0  0  0  0  0  0  0  0
   -5.5835    2.0793    2.0448 C   0  0  0  0  0  0  0  0  0  0  0  0
   -5.0889    3.0385    2.9373 C   0  0  0  0  0  0  0  0  0  0  0  0
   -5.6201    3.1550    4.2188 O   0  0  0  0  0  0  0  0  0  0  0  0
   -4.0551    3.8915    2.5391 C   0  0  0  0  0  0  0  0  0  0  0  0
   -3.5148    3.7902    1.2536 C   0  0  0  0  0  0  0  0  0  0  0  0
   -3.0074    0.2306   -1.2437 N   0  0  0  0  0  0  0  0  0  0  0  0
   -4.1024   -0.0174   -2.1950 C   0  0  0  0  0  0  0  0  0  0  0  0
   -2.1495   -0.9125   -1.0647 C   0  0  0  0  0  0  0  0  0  0  0  0
   -1.5062   -1.3388   -2.0606 O   0  0  0  0  0  0  0  0  0  0  0  0
   -3.0351   -3.3857    3.0776 H   0  0  0  0  0  0  0  0  0  0  0  0
   -3.2104   -4.1238    1.4331 H   0  0  0  0  0  0  0  0  0  0  0  0
   -4.6093   -4.0875    2.5560 H   0  0  0  0  0  0  0  0  0  0  0  0
   -4.7717   -1.6679    2.4504 H   0  0  0  0  0  0  0  0  0  0  0  0
   -5.4450   -1.3333    0.1036 H   0  0  0  0  0  0  0  0  0  0  0  0
   -5.9639   -2.9421    0.7078 H   0  0  0  0  0  0  0  0  0  0  0  0
   -4.5490   -2.8218   -0.3982 H   0  0  0  0  0  0  0  0  0  0  0  0
   -3.3747   -0.1969    1.1795 H   0  0  0  0  0  0  0  0  0  0  0  0
   -2.4207   -1.1141    2.3373 H   0  0  0  0  0  0  0  0  0  0  0  0
   -2.2246   -2.7130   -0.0197 H   0  0  0  0  0  0  0  0  0  0  0  0
   -0.4408   -0.7938    1.3859 H   0  0  0  0  0  0  0  0  0  0  0  0
   -0.0981   -2.9425    2.1655 H   0  0  0  0  0  0  0  0  0  0  0  0
   -0.3651   -3.6725    0.5475 H   0  0  0  0  0  0  0  0  0  0  0  0
    1.9895   -1.8813    1.3465 H   0  0  0  0  0  0  0  0  0  0  0  0
    2.0468   -3.6569    1.1021 H   0  0  0  0  0  0  0  0  0  0  0  0
    1.0092   -1.8887   -1.1978 H   0  0  0  0  0  0  0  0  0  0  0  0
    1.7305   -3.5199   -1.2634 H   0  0  0  0  0  0  0  0  0  0  0  0
    3.5057   -1.2727   -0.2238 H   0  0  0  0  0  0  0  0  0  0  0  0
    3.9163   -2.6961   -1.2219 H   0  0  0  0  0  0  0  0  0  0  0  0
    2.5488   -1.5075   -3.0719 H   0  0  0  0  0  0  0  0  0  0  0  0
    4.6375    1.9253   -2.5509 H   0  0  0  0  0  0  0  0  0  0  0  0
    6.5915    0.7209   -1.9442 H   0  0  0  0  0  0  0  0  0  0  0  0
    6.1820    1.8351   -0.6417 H   0  0  0  0  0  0  0  0  0  0  0  0
    6.7342   -1.6619   -1.5351 H   0  0  0  0  0  0  0  0  0  0  0  0
    6.8378   -3.4982    0.1086 H   0  0  0  0  0  0  0  0  0  0  0  0
    6.0485   -3.1333    2.4327 H   0  0  0  0  0  0  0  0  0  0  0  0
    5.2080   -0.9063    3.1240 H   0  0  0  0  0  0  0  0  0  0  0  0
    5.1012    0.9436    1.4962 H   0  0  0  0  0  0  0  0  0  0  0  0
    2.8381    3.6721   -0.4296 H   0  0  0  0  0  0  0  0  0  0  0  0
    4.5965    3.4927   -0.6913 H   0  0  0  0  0  0  0  0  0  0  0  0
    3.8434    2.8809    0.8367 H   0  0  0  0  0  0  0  0  0  0  0  0
    0.4707    0.4629   -1.7221 H   0  0  0  0  0  0  0  0  0  0  0  0
    1.7860    3.1269   -2.5515 H   0  0  0  0  0  0  0  0  0  0  0  0
    0.3477    2.3596   -3.3191 H   0  0  0  0  0  0  0  0  0  0  0  0
    1.9354    1.5295   -3.3961 H   0  0  0  0  0  0  0  0  0  0  0  0
    0.3650    3.1084   -0.2068 H   0  0  0  0  0  0  0  0  0  0  0  0
   -1.9510    1.7359   -2.2560 H   0  0  0  0  0  0  0  0  0  0  0  0
   -2.8959    3.6900   -1.2831 H   0  0  0  0  0  0  0  0  0  0  0  0
   -4.2323    2.6845   -1.7952 H   0  0  0  0  0  0  0  0  0  0  0  0
   -5.4582    1.2472    0.0852 H   0  0  0  0  0  0  0  0  0  0  0  0
   -6.3810    1.4083    2.3450 H   0  0  0  0  0  0  0  0  0  0  0  0
   -6.3676    2.5478    4.5361 H   0  0  0  0  0  0  0  0  0  0  0  0
   -3.6718    4.6368    3.2270 H   0  0  0  0  0  0  0  0  0  0  0  0
   -2.7094    4.4543    0.9664 H   0  0  0  0  0  0  0  0  0  0  0  0
   -4.4687   -1.0616   -2.1199 H   0  0  0  0  0  0  0  0  0  0  0  0
   -4.9698    0.6377   -2.0033 H   0  0  0  0  0  0  0  0  0  0  0  0
   -3.7418    0.1548   -3.2320 H   0  0  0  0  0  0  0  0  0  0  0  0
  1  2  1  0
  2  3  1  0
  2  4  1  0
  4  5  1  0
  5  6  1  0
  6  7  1  0
  7  8  1  0
  8  9  1  0
  9 10  1  0
 10 11  1  0
 11 12  1  0
 12 13  2  0
 12 14  1  0
 14 15  1  0
 15 16  1  0
 16 17  2  0
 17 18  1  0
 18 19  2  0
 19 20  1  0
 20 21  2  0
 14 22  1  0
 22 23  1  0
 22 24  1  0
 24 25  2  0
 24 26  1  0
 26 27  1  0
 26 28  1  0
 28 29  1  0
 29 30  2  0
 29 31  1  0
 31 32  1  0
 32 33  1  0
 33 34  2  0
 34 35  1  0
 35 36  2  0
 36 37  1  0
 36 38  1  0
 38 39  2  0
 31 40  1  0
 40 41  1  0
 40 42  1  0
 42 43  2  0
 42  5  1  0
 21 16  1  0
 39 33  1  0
  1 44  1  0
  1 45  1  0
  1 46  1  0
  2 47  1  0
  3 48  1  0
  3 49  1  0
  3 50  1  0
  4 51  1  0
  4 52  1  0
  5 53  1  6
  6 54  1  0
  7 55  1  0
  7 56  1  0
  8 57  1  0
  8 58  1  0
  9 59  1  0
  9 60  1  0
 10 61  1  0
 10 62  1  0
 11 63  1  0
 14 64  1  6
 15 65  1  0
 15 66  1  0
 17 67  1  0
 18 68  1  0
 19 69  1  0
 20 70  1  0
 21 71  1  0
 23 72  1  0
 23 73  1  0
 23 74  1  0
 26 75  1  6
 27 76  1  0
 27 77  1  0
 27 78  1  0
 28 79  1  0
 31 80  1  6
 32 81  1  0
 32 82  1  0
 34 83  1  0
 35 84  1  0
 37 85  1  0
 38 86  1  0
 39 87  1  0
 41 88  1  0
 41 89  1  0
 41 90  1  0
M  END
$$$$
