
     RDKit          3D

 88 89  0  0  0  0  0  0  0  0999 V2000
    9.9847    0.6716    0.1849 C   0  0  0  0  0  0  0  0  0  0  0  0
    8.8033   -0.0742    0.7985 C   0  0  0  0  0  0  0  0  0  0  0  0
    8.2370   -1.1117   -0.1812 C   0  0  0  0  0  0  0  0  0  0  0  0
    7.0656   -1.9123    0.4110 C   0  0  0  0  0  0  0  0  0  0  0  0
    5.7905   -1.0897    0.6841 C   0  0  0  0  0  0  0  0  0  0  0  0
    5.1514   -0.4822   -0.5830 C   0  0  0  0  0  0  0  0  0  0  0  0
    5.4274    1.0274   -0.7114 C   0  0  0  0  0  0  0  0  0  0  0  0
    4.6580    1.6719   -1.8838 C   0  0  0  0  0  0  0  0  0  0  0  0
    3.3544    2.3655   -1.4537 C   0  0  0  0  0  0  0  0  0  0  0  0
    2.2824    1.3850   -1.0765 C   0  0  0  0  0  0  0  0  0  0  0  0
    1.5246    0.9198   -1.9705 O   0  0  0  0  0  0  0  0  0  0  0  0
    2.1430    0.9558    0.2864 N   0  0  0  0  0  0  0  0  0  0  0  0
    1.1399   -0.0373    0.6870 C   0  0  1  0  0  0  0  0  0  0  0  0
    1.4505   -0.5795    2.0959 C   0  0  0  0  0  0  0  0  0  0  0  0
    0.5258   -1.7114    2.4700 C   0  0  0  0  0  0  0  0  0  0  0  0
   -0.5880   -1.4773    3.2930 C   0  0  0  0  0  0  0  0  0  0  0  0
   -1.4926   -2.5082    3.5673 C   0  0  0  0  0  0  0  0  0  0  0  0
   -1.2901   -3.7811    3.0267 C   0  0  0  0  0  0  0  0  0  0  0  0
   -2.1742   -4.7763    3.2844 F   0  0  0  0  0  0  0  0  0  0  0  0
   -0.1794   -4.0252    2.2138 C   0  0  0  0  0  0  0  0  0  0  0  0
    0.7249   -2.9948    1.9333 C   0  0  0  0  0  0  0  0  0  0  0  0
   -0.2380    0.5734    0.6343 C   0  0  0  0  0  0  0  0  0  0  0  0
   -0.4053    1.7727    0.9862 O   0  0  0  0  0  0  0  0  0  0  0  0
   -1.3603   -0.2222    0.2244 N   0  0  0  0  0  0  0  0  0  0  0  0
   -2.6977    0.3430    0.0292 C   0  0  1  0  0  0  0  0  0  0  0  0
   -3.4063   -0.4453   -1.0391 C   0  0  0  0  0  0  0  0  0  0  0  0
   -3.4458   -0.0201   -2.3082 C   0  0  0  0  0  0  0  0  0  0  0  0
   -4.3033   -0.6961   -3.3398 C   0  0  0  0  0  0  0  0  0  0  0  0
   -5.5380    0.1717   -3.6535 C   0  0  0  0  0  0  0  0  0  0  0  0
   -6.7928   -0.5501   -3.4207 N   0  0  0  0  0  0  0  0  0  0  0  0
   -7.1894   -1.1794   -2.1865 C   0  0  0  0  0  0  0  0  0  0  0  0
   -8.0417   -2.1066   -2.2347 O   0  0  0  0  0  0  0  0  0  0  0  0
   -6.6358   -0.8325   -0.8604 C   0  0  0  0  0  0  0  0  0  0  0  0
   -6.3531    0.4171   -0.4698 C   0  0  0  0  0  0  0  0  0  0  0  0
   -6.0052    0.7080    0.9746 C   0  0  2  0  0  0  0  0  0  0  0  0
   -5.9267    2.2252    1.3326 C   0  0  0  0  0  0  0  0  0  0  0  0
   -4.8995    3.0332    0.5150 C   0  0  0  0  0  0  0  0  0  0  0  0
   -7.3139    2.8838    1.2251 C   0  0  0  0  0  0  0  0  0  0  0  0
   -4.8369   -0.0693    1.4311 N   0  0  0  0  0  0  0  0  0  0  0  0
   -3.4620    0.3365    1.3357 C   0  0  0  0  0  0  0  0  0  0  0  0
   -2.8677    0.6873    2.3904 O   0  0  0  0  0  0  0  0  0  0  0  0
    9.6526    1.2487   -0.7063 H   0  0  0  0  0  0  0  0  0  0  0  0
   10.4011    1.3814    0.9304 H   0  0  0  0  0  0  0  0  0  0  0  0
   10.7847   -0.0401   -0.1139 H   0  0  0  0  0  0  0  0  0  0  0  0
    8.0249    0.6696    1.0726 H   0  0  0  0  0  0  0  0  0  0  0  0
    9.1457   -0.5871    1.7249 H   0  0  0  0  0  0  0  0  0  0  0  0
    9.0442   -1.8338   -0.4346 H   0  0  0  0  0  0  0  0  0  0  0  0
    7.9318   -0.6246   -1.1300 H   0  0  0  0  0  0  0  0  0  0  0  0
    7.3929   -2.3822    1.3637 H   0  0  0  0  0  0  0  0  0  0  0  0
    6.8134   -2.7414   -0.2833 H   0  0  0  0  0  0  0  0  0  0  0  0
    5.9831   -0.3181    1.4569 H   0  0  0  0  0  0  0  0  0  0  0  0
    5.0521   -1.7847    1.1411 H   0  0  0  0  0  0  0  0  0  0  0  0
    4.0565   -0.6485   -0.5293 H   0  0  0  0  0  0  0  0  0  0  0  0
    5.5048   -1.0102   -1.4950 H   0  0  0  0  0  0  0  0  0  0  0  0
    5.1821    1.5463    0.2404 H   0  0  0  0  0  0  0  0  0  0  0  0
    6.5129    1.1781   -0.8838 H   0  0  0  0  0  0  0  0  0  0  0  0
    4.4539    0.9324   -2.6886 H   0  0  0  0  0  0  0  0  0  0  0  0
    5.3099    2.4538   -2.3317 H   0  0  0  0  0  0  0  0  0  0  0  0
    2.9863    2.9853   -2.3006 H   0  0  0  0  0  0  0  0  0  0  0  0
    3.5490    3.0592   -0.6076 H   0  0  0  0  0  0  0  0  0  0  0  0
    2.8068    1.3354    0.9971 H   0  0  0  0  0  0  0  0  0  0  0  0
    1.1911   -0.8888   -0.0274 H   0  0  0  0  0  0  0  0  0  0  0  0
    2.4984   -0.9515    2.1190 H   0  0  0  0  0  0  0  0  0  0  0  0
    1.3819    0.2436    2.8421 H   0  0  0  0  0  0  0  0  0  0  0  0
   -0.7634   -0.4940    3.7095 H   0  0  0  0  0  0  0  0  0  0  0  0
   -2.3537   -2.3173    4.1953 H   0  0  0  0  0  0  0  0  0  0  0  0
   -0.0245   -5.0098    1.7906 H   0  0  0  0  0  0  0  0  0  0  0  0
    1.5714   -3.1939    1.2874 H   0  0  0  0  0  0  0  0  0  0  0  0
   -1.2257   -1.2537    0.1143 H   0  0  0  0  0  0  0  0  0  0  0  0
   -2.6024    1.3989   -0.3054 H   0  0  0  0  0  0  0  0  0  0  0  0
   -3.8742   -1.3899   -0.7675 H   0  0  0  0  0  0  0  0  0  0  0  0
   -2.9501    0.9062   -2.5879 H   0  0  0  0  0  0  0  0  0  0  0  0
   -4.5963   -1.7194   -3.0117 H   0  0  0  0  0  0  0  0  0  0  0  0
   -3.6952   -0.8221   -4.2615 H   0  0  0  0  0  0  0  0  0  0  0  0
   -5.4960    0.4623   -4.7258 H   0  0  0  0  0  0  0  0  0  0  0  0
   -5.5384    1.1304   -3.0945 H   0  0  0  0  0  0  0  0  0  0  0  0
   -7.3929   -0.7313   -4.2575 H   0  0  0  0  0  0  0  0  0  0  0  0
   -6.5855   -1.6277   -0.1252 H   0  0  0  0  0  0  0  0  0  0  0  0
   -6.5322    1.2400   -1.1445 H   0  0  0  0  0  0  0  0  0  0  0  0
   -6.8711    0.3154    1.5557 H   0  0  0  0  0  0  0  0  0  0  0  0
   -5.6275    2.2991    2.4005 H   0  0  0  0  0  0  0  0  0  0  0  0
   -3.8807    2.8977    0.9260 H   0  0  0  0  0  0  0  0  0  0  0  0
   -4.9061    2.7577   -0.5585 H   0  0  0  0  0  0  0  0  0  0  0  0
   -5.1097    4.1211    0.5883 H   0  0  0  0  0  0  0  0  0  0  0  0
   -8.0581    2.3286    1.8368 H   0  0  0  0  0  0  0  0  0  0  0  0
   -7.2757    3.9263    1.6098 H   0  0  0  0  0  0  0  0  0  0  0  0
   -7.6602    2.9096    0.1697 H   0  0  0  0  0  0  0  0  0  0  0  0
   -5.0314   -0.8226    2.1313 H   0  0  0  0  0  0  0  0  0  0  0  0
  1  2  1  0
  2  3  1  0
  3  4  1  0
  4  5  1  0
  5  6  1  0
  6  7  1  0
  7  8  1  0
  8  9  1  0
  9 10  1  0
 10 11  2  0
 10 12  1  0
 12 13  1  0
 13 14  1  0
 14 15  1  0
 15 16  2  0
 16 17  1  0
 17 18  2  0
 18 19  1  0
 18 20  1  0
 20 21  2  0
 13 22  1  0
 22 23  2  0
 22 24  1  0
 24 25  1  0
 25 26  1  0
 26 27  2  0
 27 28  1  0
 28 29  1  0
 29 30  1  0
 30 31  1  0
 31 32  2  0
 31 33  1  0
 33 34  2  0
 34 35  1  0
 35 36  1  0
 36 37  1  0
 36 38  1  0
 35 39  1  0
 39 40  1  0
 40 41  2  0
 21 15  1  0
 40 25  1  0
  1 42  1  0
  1 43  1  0
  1 44  1  0
  2 45  1  0
  2 46  1  0
  3 47  1  0
  3 48  1  0
  4 49  1  0
  4 50  1  0
  5 51  1  0
  5 52  1  0
  6 53  1  0
  6 54  1  0
  7 55  1  0
  7 56  1  0
  8 57  1  0
  8 58  1  0
  9 59  1  0
  9 60  1  0
 12 61  1  0
 13 62  1  6
 14 63  1  0
 14 64  1  0
 16 65  1  0
 17 66  1  0
 20 67  1  0
 21 68  1  0
 24 69  1  0
 25 70  1  6
 26 71  1  0
 27 72  1  0
 28 73  1  0
 28 74  1  0
 29 75  1  0
 29 76  1  0
 30 77  1  0
 33 78  1  0
 34 79  1  0
 35 80  1  1
 36 81  1  0
 37 82  1  0
 37 83  1  0
 37 84  1  0
 38 85  1  0
 38 86  1  0
 38 87  1  0
 39 88  1  0
M  END
$$$$
