
     RDKit          3D

 70 73  0  0  0  0  0  0  0  0999 V2000
   -1.5048    1.9634    1.8460 C   0  0  0  0  0  0  0  0  0  0  0  0
   -1.5685    0.7365    0.9184 C   0  0  1  0  0  0  0  0  0  0  0  0
   -2.6870    0.8851   -0.1480 C   0  0  0  0  0  0  0  0  0  0  0  0
   -4.0163    1.2290    0.4087 N   0  0  0  0  0  0  0  0  0  0  0  0
   -4.7460    2.4154   -0.0981 C   0  0  1  0  0  0  0  0  0  0  0  0
   -3.9852    3.7163    0.1917 C   0  0  0  0  0  0  0  0  0  0  0  0
   -5.0609    2.2601   -1.5984 C   0  0  0  0  0  0  0  0  0  0  0  0
   -5.9333    3.2699   -2.0305 O   0  0  0  0  0  0  0  0  0  0  0  0
   -4.7307    0.3189    1.2831 C   0  0  0  0  0  0  0  0  0  0  0  0
   -5.5319    0.7855    2.1391 O   0  0  0  0  0  0  0  0  0  0  0  0
   -4.5658   -1.1780    1.2130 C   0  0  0  0  0  0  0  0  0  0  0  0
   -5.0301   -1.7674   -0.1314 C   0  0  0  0  0  0  0  0  0  0  0  0
   -4.3609   -3.1220   -0.4293 C   0  0  0  0  0  0  0  0  0  0  0  0
   -2.9618   -2.9311   -0.8094 N   0  0  0  0  0  0  0  0  0  0  0  0
   -1.9049   -2.8947    0.0219 C   0  0  0  0  0  0  0  0  0  0  0  0
   -0.8578   -2.3894   -0.7132 C   0  0  0  0  0  0  0  0  0  0  0  0
   -1.2932   -2.1512   -1.9670 N   0  0  0  0  0  0  0  0  0  0  0  0
   -2.5745   -2.4886   -1.9958 N   0  0  0  0  0  0  0  0  0  0  0  0
    0.4505   -1.8986   -0.1669 C   0  0  0  0  0  0  0  0  0  0  0  0
    0.2573   -0.8821    0.8057 O   0  0  0  0  0  0  0  0  0  0  0  0
   -0.2039    0.3389    0.2326 C   0  0  2  0  0  0  0  0  0  0  0  0
    0.9127    1.3998    0.3459 C   0  0  0  0  0  0  0  0  0  0  0  0
    2.0904    1.0030   -0.4423 N   0  0  0  0  0  0  0  0  0  0  0  0
    2.1232    1.3102   -1.8762 C   0  0  0  0  0  0  0  0  0  0  0  0
    3.1888    0.2996    0.1816 C   0  0  0  0  0  0  0  0  0  0  0  0
    3.1346    0.0208    1.4110 O   0  0  0  0  0  0  0  0  0  0  0  0
    4.3319   -0.1174   -0.5867 N   0  0  0  0  0  0  0  0  0  0  0  0
    5.6084   -0.4368   -0.0068 C   0  0  0  0  0  0  0  0  0  0  0  0
    6.0740    0.2220    1.1644 C   0  0  0  0  0  0  0  0  0  0  0  0
    7.3386   -0.0815    1.7009 C   0  0  0  0  0  0  0  0  0  0  0  0
    8.1137   -1.0299    1.0420 C   0  0  0  0  0  0  0  0  0  0  0  0
    7.6852   -1.6505   -0.0853 C   0  0  0  0  0  0  0  0  0  0  0  0
    6.4417   -1.3800   -0.6488 C   0  0  0  0  0  0  0  0  0  0  0  0
    8.6571   -2.5283   -0.5260 O   0  0  0  0  0  0  0  0  0  0  0  0
    9.7655   -2.4538    0.3815 C   0  0  0  0  0  0  0  0  0  0  0  0
    9.3763   -1.4866    1.3676 O   0  0  0  0  0  0  0  0  0  0  0  0
   -2.4670    2.0837    2.3858 H   0  0  0  0  0  0  0  0  0  0  0  0
   -0.7241    1.8235    2.6220 H   0  0  0  0  0  0  0  0  0  0  0  0
   -1.3030    2.8919    1.2739 H   0  0  0  0  0  0  0  0  0  0  0  0
   -1.8490   -0.1010    1.5843 H   0  0  0  0  0  0  0  0  0  0  0  0
   -2.7697   -0.0577   -0.7197 H   0  0  0  0  0  0  0  0  0  0  0  0
   -2.3590    1.6523   -0.8790 H   0  0  0  0  0  0  0  0  0  0  0  0
   -5.7241    2.5076    0.4246 H   0  0  0  0  0  0  0  0  0  0  0  0
   -4.6040    4.5911   -0.1007 H   0  0  0  0  0  0  0  0  0  0  0  0
   -3.0297    3.7669   -0.3689 H   0  0  0  0  0  0  0  0  0  0  0  0
   -3.7786    3.7993    1.2784 H   0  0  0  0  0  0  0  0  0  0  0  0
   -4.1304    2.3219   -2.2001 H   0  0  0  0  0  0  0  0  0  0  0  0
   -5.5147    1.2601   -1.7870 H   0  0  0  0  0  0  0  0  0  0  0  0
   -6.8394    3.0198   -1.7106 H   0  0  0  0  0  0  0  0  0  0  0  0
   -5.1584   -1.6545    2.0251 H   0  0  0  0  0  0  0  0  0  0  0  0
   -3.5206   -1.4334    1.4292 H   0  0  0  0  0  0  0  0  0  0  0  0
   -4.8251   -1.0713   -0.9718 H   0  0  0  0  0  0  0  0  0  0  0  0
   -6.1321   -1.9095   -0.0942 H   0  0  0  0  0  0  0  0  0  0  0  0
   -4.8982   -3.6131   -1.2691 H   0  0  0  0  0  0  0  0  0  0  0  0
   -4.4316   -3.7928    0.4552 H   0  0  0  0  0  0  0  0  0  0  0  0
   -1.9237   -3.1068    1.0833 H   0  0  0  0  0  0  0  0  0  0  0  0
    1.1149   -1.5545   -0.9905 H   0  0  0  0  0  0  0  0  0  0  0  0
    0.9634   -2.7522    0.3224 H   0  0  0  0  0  0  0  0  0  0  0  0
   -0.3871    0.2459   -0.8656 H   0  0  0  0  0  0  0  0  0  0  0  0
    0.5391    2.3771   -0.0284 H   0  0  0  0  0  0  0  0  0  0  0  0
    1.1997    1.5529    1.4072 H   0  0  0  0  0  0  0  0  0  0  0  0
    2.1333    0.3684   -2.4638 H   0  0  0  0  0  0  0  0  0  0  0  0
    1.2289    1.8918   -2.1863 H   0  0  0  0  0  0  0  0  0  0  0  0
    3.0266    1.9110   -2.1126 H   0  0  0  0  0  0  0  0  0  0  0  0
    4.2148   -0.2844   -1.6105 H   0  0  0  0  0  0  0  0  0  0  0  0
    5.4747    0.9833    1.6457 H   0  0  0  0  0  0  0  0  0  0  0  0
    7.7025    0.4148    2.5912 H   0  0  0  0  0  0  0  0  0  0  0  0
    6.1269   -1.8871   -1.5519 H   0  0  0  0  0  0  0  0  0  0  0  0
    9.9363   -3.4417    0.8595 H   0  0  0  0  0  0  0  0  0  0  0  0
   10.6761   -2.1103   -0.1533 H   0  0  0  0  0  0  0  0  0  0  0  0
  1  2  1  0
  2  3  1  0
  3  4  1  0
  4  5  1  0
  5  6  1  0
  5  7  1  0
  7  8  1  0
  4  9  1  0
  9 10  2  0
  9 11  1  0
 11 12  1  0
 12 13  1  0
 13 14  1  0
 14 15  1  0
 15 16  2  0
 16 17  1  0
 17 18  2  0
 16 19  1  0
 19 20  1  0
 20 21  1  0
 21 22  1  0
 22 23  1  0
 23 24  1  0
 23 25  1  0
 25 26  2  0
 25 27  1  0
 27 28  1  0
 28 29  2  0
 29 30  1  0
 30 31  2  0
 31 32  1  0
 32 33  2  0
 32 34  1  0
 34 35  1  0
 35 36  1  0
 21  2  1  0
 33 28  1  0
 18 14  1  0
 36 31  1  0
  1 37  1  0
  1 38  1  0
  1 39  1  0
  2 40  1  1
  3 41  1  0
  3 42  1  0
  5 43  1  1
  6 44  1  0
  6 45  1  0
  6 46  1  0
  7 47  1  0
  7 48  1  0
  8 49  1  0
 11 50  1  0
 11 51  1  0
 12 52  1  0
 12 53  1  0
 13 54  1  0
 13 55  1  0
 15 56  1  0
 19 57  1  0
 19 58  1  0
 21 59  1  6
 22 60  1  0
 22 61  1  0
 24 62  1  0
 24 63  1  0
 24 64  1  0
 27 65  1  0
 29 66  1  0
 30 67  1  0
 33 68  1  0
 35 69  1  0
 35 70  1  0
M  END
$$$$
