
     RDKit          3D

 72 73  0  0  0  0  0  0  0  0999 V2000
   -3.7677    3.8049    0.8219 C   0  0  0  0  0  0  0  0  0  0  0  0
   -3.4098    2.5139    0.0721 C   0  0  0  0  0  0  0  0  0  0  0  0
   -4.6776    1.9057   -0.5430 C   0  0  0  0  0  0  0  0  0  0  0  0
   -2.6807    1.5346    1.0314 C   0  0  0  0  0  0  0  0  0  0  0  0
   -2.1128    0.2407    0.3783 C   0  0  2  0  0  0  0  0  0  0  0  0
   -1.4422    0.5585   -0.8893 N   0  0  0  0  0  0  0  0  0  0  0  0
   -0.0165    0.6265   -1.0963 C   0  0  0  0  0  0  0  0  0  0  0  0
    0.4412    0.1790   -2.1827 O   0  0  0  0  0  0  0  0  0  0  0  0
    0.9507    1.3604   -0.1818 C   0  0  1  0  0  0  0  0  0  0  0  0
    0.6983    2.8690   -0.2291 C   0  0  0  0  0  0  0  0  0  0  0  0
    0.9253    0.8753    1.2045 N   0  0  0  0  0  0  0  0  0  0  0  0
    2.0561    0.3127    1.9020 C   0  0  0  0  0  0  0  0  0  0  0  0
    2.2102    0.6015    3.1197 O   0  0  0  0  0  0  0  0  0  0  0  0
    3.0335   -0.6754    1.2819 C   0  0  2  0  0  0  0  0  0  0  0  0
    4.4470   -0.0596    1.1475 C   0  0  0  0  0  0  0  0  0  0  0  0
    4.4993    1.1413    0.2367 C   0  0  0  0  0  0  0  0  0  0  0  0
    4.3113    2.4340    0.7564 C   0  0  0  0  0  0  0  0  0  0  0  0
    4.3254    3.5447   -0.0932 C   0  0  0  0  0  0  0  0  0  0  0  0
    4.5244    3.3742   -1.4660 C   0  0  0  0  0  0  0  0  0  0  0  0
    4.7142    2.0927   -1.9909 C   0  0  0  0  0  0  0  0  0  0  0  0
    4.7037    0.9789   -1.1446 C   0  0  0  0  0  0  0  0  0  0  0  0
    2.5546   -1.2170   -0.0019 N   0  0  0  0  0  0  0  0  0  0  0  0
    1.3995   -2.1183    0.1645 C   0  0  0  0  0  0  0  0  0  0  0  0
    1.7960   -3.6012    0.2190 C   0  0  0  0  0  0  0  0  0  0  0  0
    0.5868   -4.5281    0.4596 C   0  0  0  0  0  0  0  0  0  0  0  0
   -0.5278   -4.3804   -0.6014 C   0  0  0  0  0  0  0  0  0  0  0  0
   -1.6415   -3.3970   -0.1705 C   0  0  0  0  0  0  0  0  0  0  0  0
   -2.1290   -2.5299   -1.3410 C   0  0  0  0  0  0  0  0  0  0  0  0
   -3.2685   -1.6881   -0.9447 N   0  0  0  0  0  0  0  0  0  0  0  0
   -4.5813   -1.9833   -1.5229 C   0  0  0  0  0  0  0  0  0  0  0  0
   -3.1998   -0.8142    0.2020 C   0  0  0  0  0  0  0  0  0  0  0  0
   -4.0516   -0.9653    1.1212 O   0  0  0  0  0  0  0  0  0  0  0  0
   -4.4779    3.5908    1.6499 H   0  0  0  0  0  0  0  0  0  0  0  0
   -2.8524    4.2731    1.2439 H   0  0  0  0  0  0  0  0  0  0  0  0
   -4.2351    4.5380    0.1294 H   0  0  0  0  0  0  0  0  0  0  0  0
   -2.7240    2.7969   -0.7550 H   0  0  0  0  0  0  0  0  0  0  0  0
   -5.2432    2.6769   -1.1089 H   0  0  0  0  0  0  0  0  0  0  0  0
   -5.3376    1.4882    0.2465 H   0  0  0  0  0  0  0  0  0  0  0  0
   -4.4123    1.1089   -1.2651 H   0  0  0  0  0  0  0  0  0  0  0  0
   -1.8389    2.0853    1.4947 H   0  0  0  0  0  0  0  0  0  0  0  0
   -3.3488    1.2770    1.8822 H   0  0  0  0  0  0  0  0  0  0  0  0
   -1.3844   -0.2168    1.0764 H   0  0  0  0  0  0  0  0  0  0  0  0
   -2.0341    0.5883   -1.7506 H   0  0  0  0  0  0  0  0  0  0  0  0
    1.9668    1.2143   -0.5941 H   0  0  0  0  0  0  0  0  0  0  0  0
    1.4031    3.3928    0.4510 H   0  0  0  0  0  0  0  0  0  0  0  0
    0.8585    3.2499   -1.2610 H   0  0  0  0  0  0  0  0  0  0  0  0
   -0.3363    3.1147    0.0807 H   0  0  0  0  0  0  0  0  0  0  0  0
    0.1747    1.2512    1.8242 H   0  0  0  0  0  0  0  0  0  0  0  0
    3.1410   -1.5198    2.0004 H   0  0  0  0  0  0  0  0  0  0  0  0
    4.8188    0.2252    2.1566 H   0  0  0  0  0  0  0  0  0  0  0  0
    5.1524   -0.8361    0.7771 H   0  0  0  0  0  0  0  0  0  0  0  0
    4.1450    2.5808    1.8168 H   0  0  0  0  0  0  0  0  0  0  0  0
    4.1755    4.5368    0.3131 H   0  0  0  0  0  0  0  0  0  0  0  0
    4.5319    4.2351   -2.1223 H   0  0  0  0  0  0  0  0  0  0  0  0
    4.8665    1.9615   -3.0549 H   0  0  0  0  0  0  0  0  0  0  0  0
    4.8462   -0.0083   -1.5664 H   0  0  0  0  0  0  0  0  0  0  0  0
    3.3303   -1.7288   -0.4846 H   0  0  0  0  0  0  0  0  0  0  0  0
    0.8044   -1.8609    1.0672 H   0  0  0  0  0  0  0  0  0  0  0  0
    0.7500   -1.9727   -0.7142 H   0  0  0  0  0  0  0  0  0  0  0  0
    2.5291   -3.7549    1.0395 H   0  0  0  0  0  0  0  0  0  0  0  0
    2.2893   -3.8874   -0.7358 H   0  0  0  0  0  0  0  0  0  0  0  0
    0.9607   -5.5744    0.4276 H   0  0  0  0  0  0  0  0  0  0  0  0
    0.1831   -4.3694    1.4837 H   0  0  0  0  0  0  0  0  0  0  0  0
   -0.9953   -5.3754   -0.7686 H   0  0  0  0  0  0  0  0  0  0  0  0
   -0.0785   -4.0872   -1.5763 H   0  0  0  0  0  0  0  0  0  0  0  0
   -2.4990   -3.9776    0.2346 H   0  0  0  0  0  0  0  0  0  0  0  0
   -1.2946   -2.7294    0.6434 H   0  0  0  0  0  0  0  0  0  0  0  0
   -2.4227   -3.2023   -2.1780 H   0  0  0  0  0  0  0  0  0  0  0  0
   -1.3082   -1.8943   -1.7216 H   0  0  0  0  0  0  0  0  0  0  0  0
   -5.3150   -1.1866   -1.2748 H   0  0  0  0  0  0  0  0  0  0  0  0
   -4.9546   -2.9522   -1.1283 H   0  0  0  0  0  0  0  0  0  0  0  0
   -4.5051   -2.0419   -2.6291 H   0  0  0  0  0  0  0  0  0  0  0  0
  1  2  1  0
  2  3  1  0
  2  4  1  0
  4  5  1  0
  5  6  1  0
  6  7  1  0
  7  8  2  0
  7  9  1  0
  9 10  1  0
  9 11  1  0
 11 12  1  0
 12 13  2  0
 12 14  1  0
 14 15  1  0
 15 16  1  0
 16 17  2  0
 17 18  1  0
 18 19  2  0
 19 20  1  0
 20 21  2  0
 14 22  1  0
 22 23  1  0
 23 24  1  0
 24 25  1  0
 25 26  1  0
 26 27  1  0
 27 28  1  0
 28 29  1  0
 29 30  1  0
 29 31  1  0
 31 32  2  0
 31  5  1  0
 21 16  1  0
  1 33  1  0
  1 34  1  0
  1 35  1  0
  2 36  1  0
  3 37  1  0
  3 38  1  0
  3 39  1  0
  4 40  1  0
  4 41  1  0
  5 42  1  1
  6 43  1  0
  9 44  1  6
 10 45  1  0
 10 46  1  0
 10 47  1  0
 11 48  1  0
 14 49  1  1
 15 50  1  0
 15 51  1  0
 17 52  1  0
 18 53  1  0
 19 54  1  0
 20 55  1  0
 21 56  1  0
 22 57  1  0
 23 58  1  0
 23 59  1  0
 24 60  1  0
 24 61  1  0
 25 62  1  0
 25 63  1  0
 26 64  1  0
 26 65  1  0
 27 66  1  0
 27 67  1  0
 28 68  1  0
 28 69  1  0
 30 70  1  0
 30 71  1  0
 30 72  1  0
M  END
$$$$
