
     RDKit          3D

 95 99  0  0  0  0  0  0  0  0999 V2000
   -1.1855   -3.7630    3.9785 C   0  0  0  0  0  0  0  0  0  0  0  0
   -0.1203   -3.9568    2.8759 C   0  0  1  0  0  0  0  0  0  0  0  0
   -0.6358   -4.8434    1.6979 C   0  0  0  0  0  0  0  0  0  0  0  0
   -1.4276   -4.1053    0.5774 C   0  0  0  0  0  0  0  0  0  0  0  0
   -2.8967   -3.7439    0.9524 C   0  0  0  0  0  0  0  0  0  0  0  0
   -3.6289   -2.9109   -0.1236 C   0  0  0  0  0  0  0  0  0  0  0  0
   -3.1876   -1.5615   -0.2609 O   0  0  0  0  0  0  0  0  0  0  0  0
   -3.6773   -0.7531    0.7821 C   0  0  2  0  0  0  0  0  0  0  0  0
   -5.0498   -0.0685    0.4404 C   0  0  0  0  0  0  0  0  0  0  0  0
   -5.3153    0.1673   -1.0016 N   0  0  0  0  0  0  0  0  0  0  0  0
   -5.7480   -0.9558   -1.7985 C   0  0  0  0  0  0  0  0  0  0  0  0
   -5.4281    1.4493   -1.6611 C   0  0  0  0  0  0  0  0  0  0  0  0
   -5.1961    1.5139   -2.9034 O   0  0  0  0  0  0  0  0  0  0  0  0
   -6.0608    2.6661   -1.0820 C   0  0  0  0  0  0  0  0  0  0  0  0
   -7.1125    3.2962   -1.7581 C   0  0  0  0  0  0  0  0  0  0  0  0
   -7.6390    4.5250   -1.3524 C   0  0  0  0  0  0  0  0  0  0  0  0
   -7.0954    5.1675   -0.2491 C   0  0  0  0  0  0  0  0  0  0  0  0
   -6.1079    4.5595    0.5128 C   0  0  0  0  0  0  0  0  0  0  0  0
   -5.6241    3.3013    0.1082 C   0  0  0  0  0  0  0  0  0  0  0  0
   -2.5365    0.2353    1.2746 C   0  0  2  0  0  0  0  0  0  0  0  0
   -2.5594    1.7380    0.8971 C   0  0  0  0  0  0  0  0  0  0  0  0
   -1.1262   -0.3622    1.2009 C   0  0  0  0  0  0  0  0  0  0  0  0
   -0.4162   -0.5248   -0.0950 N   0  0  0  0  0  0  0  0  0  0  0  0
   -0.7313    0.3095   -1.3011 C   0  0  1  0  0  0  0  0  0  0  0  0
    0.3340    1.4264   -1.3904 C   0  0  0  0  0  0  0  0  0  0  0  0
   -0.8454   -0.4639   -2.6439 C   0  0  0  0  0  0  0  0  0  0  0  0
   -1.3605   -1.7622   -2.5043 O   0  0  0  0  0  0  0  0  0  0  0  0
    0.8498   -1.2223   -0.0918 C   0  0  0  0  0  0  0  0  0  0  0  0
    1.4166   -1.5603   -1.2217 O   0  0  0  0  0  0  0  0  0  0  0  0
    1.7363   -1.2847    1.1109 C   0  0  0  0  0  0  0  0  0  0  0  0
    2.9124   -0.5311    1.0140 C   0  0  0  0  0  0  0  0  0  0  0  0
    3.8388   -0.5018    2.0266 C   0  0  0  0  0  0  0  0  0  0  0  0
    4.9401    0.4753    1.9455 N   0  0  0  0  0  0  0  0  0  0  0  0
    5.5561    0.9534    0.7058 C   0  0  0  0  0  0  0  0  0  0  0  0
    4.9581    0.9835   -0.3889 O   0  0  0  0  0  0  0  0  0  0  0  0
    6.9159    1.4445    0.7217 N   0  0  0  0  0  0  0  0  0  0  0  0
    7.7321    1.7335   -0.4371 C   0  0  0  0  0  0  0  0  0  0  0  0
    7.5049    1.0996   -1.7020 C   0  0  0  0  0  0  0  0  0  0  0  0
    8.3967    1.3080   -2.7645 C   0  0  0  0  0  0  0  0  0  0  0  0
    9.4748    2.2008   -2.5699 C   0  0  0  0  0  0  0  0  0  0  0  0
    9.7154    2.7725   -1.3631 C   0  0  0  0  0  0  0  0  0  0  0  0
    8.8673    2.5450   -0.2784 C   0  0  0  0  0  0  0  0  0  0  0  0
   10.8711    3.5408   -1.3985 O   0  0  0  0  0  0  0  0  0  0  0  0
   11.4103    3.4152   -2.7275 C   0  0  0  0  0  0  0  0  0  0  0  0
   10.4318    2.5864   -3.4655 O   0  0  0  0  0  0  0  0  0  0  0  0
    3.6709   -1.3332    3.1335 C   0  0  0  0  0  0  0  0  0  0  0  0
    2.5099   -2.1387    3.2509 C   0  0  0  0  0  0  0  0  0  0  0  0
    1.5264   -2.0763    2.2317 C   0  0  0  0  0  0  0  0  0  0  0  0
    0.2555   -2.6701    2.3608 O   0  0  0  0  0  0  0  0  0  0  0  0
   -0.6519   -3.7140    4.9761 H   0  0  0  0  0  0  0  0  0  0  0  0
   -1.9840   -4.5795    3.9993 H   0  0  0  0  0  0  0  0  0  0  0  0
   -1.6821   -2.7713    3.7981 H   0  0  0  0  0  0  0  0  0  0  0  0
    0.7870   -4.4776    3.3100 H   0  0  0  0  0  0  0  0  0  0  0  0
   -1.1662   -5.7561    2.0191 H   0  0  0  0  0  0  0  0  0  0  0  0
    0.2775   -5.2206    1.2042 H   0  0  0  0  0  0  0  0  0  0  0  0
   -1.4420   -4.8127   -0.3033 H   0  0  0  0  0  0  0  0  0  0  0  0
   -0.8627   -3.2021    0.2508 H   0  0  0  0  0  0  0  0  0  0  0  0
   -3.4521   -4.6759    1.1034 H   0  0  0  0  0  0  0  0  0  0  0  0
   -2.8679   -3.1767    1.9161 H   0  0  0  0  0  0  0  0  0  0  0  0
   -3.4542   -3.3896   -1.0732 H   0  0  0  0  0  0  0  0  0  0  0  0
   -4.7348   -2.8950    0.0510 H   0  0  0  0  0  0  0  0  0  0  0  0
   -3.8979   -1.3692    1.6848 H   0  0  0  0  0  0  0  0  0  0  0  0
   -5.1317    0.8350    1.0398 H   0  0  0  0  0  0  0  0  0  0  0  0
   -5.8387   -0.7638    0.8340 H   0  0  0  0  0  0  0  0  0  0  0  0
   -6.3713   -0.6727   -2.6816 H   0  0  0  0  0  0  0  0  0  0  0  0
   -4.8694   -1.5308   -2.1832 H   0  0  0  0  0  0  0  0  0  0  0  0
   -6.3786   -1.6588   -1.2204 H   0  0  0  0  0  0  0  0  0  0  0  0
   -7.5163    2.8336   -2.6619 H   0  0  0  0  0  0  0  0  0  0  0  0
   -8.3972    5.0433   -1.9676 H   0  0  0  0  0  0  0  0  0  0  0  0
   -7.4164    6.1794    0.0136 H   0  0  0  0  0  0  0  0  0  0  0  0
   -5.7301    5.0054    1.4106 H   0  0  0  0  0  0  0  0  0  0  0  0
   -4.8643    2.8698    0.7221 H   0  0  0  0  0  0  0  0  0  0  0  0
   -2.6652    0.2799    2.3809 H   0  0  0  0  0  0  0  0  0  0  0  0
   -3.1002    1.9208   -0.0426 H   0  0  0  0  0  0  0  0  0  0  0  0
   -1.5613    2.2009    0.8349 H   0  0  0  0  0  0  0  0  0  0  0  0
   -3.0164    2.3273    1.7292 H   0  0  0  0  0  0  0  0  0  0  0  0
   -1.3394   -1.3621    1.5651 H   0  0  0  0  0  0  0  0  0  0  0  0
   -0.4455    0.1481    1.9597 H   0  0  0  0  0  0  0  0  0  0  0  0
   -1.7228    0.7527   -1.2055 H   0  0  0  0  0  0  0  0  0  0  0  0
    0.4930    1.8929   -0.4057 H   0  0  0  0  0  0  0  0  0  0  0  0
    1.3123    0.9846   -1.7506 H   0  0  0  0  0  0  0  0  0  0  0  0
    0.0342    2.2364   -2.1086 H   0  0  0  0  0  0  0  0  0  0  0  0
   -1.4899    0.1386   -3.3435 H   0  0  0  0  0  0  0  0  0  0  0  0
    0.1750   -0.5279   -3.1233 H   0  0  0  0  0  0  0  0  0  0  0  0
   -2.2901   -1.7675   -2.9010 H   0  0  0  0  0  0  0  0  0  0  0  0
    2.9397    0.1798    0.2405 H   0  0  0  0  0  0  0  0  0  0  0  0
    5.3042    0.8970    2.8414 H   0  0  0  0  0  0  0  0  0  0  0  0
    7.3193    1.6291    1.6460 H   0  0  0  0  0  0  0  0  0  0  0  0
    6.6866    0.4235   -1.8642 H   0  0  0  0  0  0  0  0  0  0  0  0
    8.2741    0.8168   -3.7156 H   0  0  0  0  0  0  0  0  0  0  0  0
    9.0680    3.0597    0.6536 H   0  0  0  0  0  0  0  0  0  0  0  0
   12.3683    2.8662   -2.7135 H   0  0  0  0  0  0  0  0  0  0  0  0
   11.5394    4.4169   -3.1959 H   0  0  0  0  0  0  0  0  0  0  0  0
    4.3514   -1.2865    3.9905 H   0  0  0  0  0  0  0  0  0  0  0  0
    2.2972   -2.6478    4.1985 H   0  0  0  0  0  0  0  0  0  0  0  0
  1  2  1  0
  2  3  1  0
  3  4  1  0
  4  5  1  0
  5  6  1  0
  6  7  1  0
  7  8  1  0
  8  9  1  0
  9 10  1  0
 10 11  1  0
 10 12  1  0
 12 13  2  0
 12 14  1  0
 14 15  2  0
 15 16  1  0
 16 17  2  0
 17 18  1  0
 18 19  2  0
  8 20  1  0
 20 21  1  0
 20 22  1  0
 22 23  1  0
 23 24  1  0
 24 25  1  0
 24 26  1  0
 26 27  1  0
 23 28  1  0
 28 29  2  0
 28 30  1  0
 30 31  2  0
 31 32  1  0
 32 33  1  0
 33 34  1  0
 34 35  2  0
 34 36  1  0
 36 37  1  0
 37 38  2  0
 38 39  1  0
 39 40  2  0
 40 41  1  0
 41 42  2  0
 41 43  1  0
 43 44  1  0
 44 45  1  0
 32 46  2  0
 46 47  1  0
 47 48  2  0
 48 49  1  0
 49  2  1  0
 19 14  1  0
 48 30  1  0
 42 37  1  0
 45 40  1  0
  1 50  1  0
  1 51  1  0
  1 52  1  0
  2 53  1  1
  3 54  1  0
  3 55  1  0
  4 56  1  0
  4 57  1  0
  5 58  1  0
  5 59  1  0
  6 60  1  0
  6 61  1  0
  8 62  1  1
  9 63  1  0
  9 64  1  0
 11 65  1  0
 11 66  1  0
 11 67  1  0
 15 68  1  0
 16 69  1  0
 17 70  1  0
 18 71  1  0
 19 72  1  0
 20 73  1  1
 21 74  1  0
 21 75  1  0
 21 76  1  0
 22 77  1  0
 22 78  1  0
 24 79  1  1
 25 80  1  0
 25 81  1  0
 25 82  1  0
 26 83  1  0
 26 84  1  0
 27 85  1  0
 31 86  1  0
 33 87  1  0
 36 88  1  0
 38 89  1  0
 39 90  1  0
 42 91  1  0
 44 92  1  0
 44 93  1  0
 46 94  1  0
 47 95  1  0
M  END
$$$$
