
     RDKit          3D

 66 68  0  0  0  0  0  0  0  0999 V2000
   -5.9505    0.3490    2.2640 C   0  0  0  0  0  0  0  0  0  0  0  0
   -4.5550    0.0413    1.9251 N   0  0  0  0  0  0  0  0  0  0  0  0
   -3.5001    0.9548    2.3966 C   0  0  0  0  0  0  0  0  0  0  0  0
   -3.1501    1.9915    1.3286 C   0  0  0  0  0  0  0  0  0  0  0  0
   -2.7319    1.3588    0.1223 O   0  0  0  0  0  0  0  0  0  0  0  0
   -2.1642    2.0952   -0.9197 C   0  0  0  0  0  0  0  0  0  0  0  0
   -2.9401    2.4105   -2.0406 C   0  0  0  0  0  0  0  0  0  0  0  0
   -2.4088    3.2052   -3.0602 C   0  0  0  0  0  0  0  0  0  0  0  0
   -1.0994    3.6850   -2.9644 C   0  0  0  0  0  0  0  0  0  0  0  0
   -0.3103    3.3548   -1.8590 C   0  0  0  0  0  0  0  0  0  0  0  0
   -0.8302    2.5406   -0.8422 C   0  0  0  0  0  0  0  0  0  0  0  0
    0.0303    2.1113    0.2699 C   0  0  0  0  0  0  0  0  0  0  0  0
    0.5959    2.9701    0.9969 O   0  0  0  0  0  0  0  0  0  0  0  0
    0.2096    0.7177    0.5420 N   0  0  0  0  0  0  0  0  0  0  0  0
    0.7252   -0.1857   -0.4924 C   0  0  0  0  0  0  0  0  0  0  0  0
    2.1894   -0.4492   -0.2542 C   0  0  0  0  0  0  0  0  0  0  0  0
    2.6180   -0.6055    0.9230 O   0  0  0  0  0  0  0  0  0  0  0  0
    3.0810   -0.5862   -1.3715 N   0  0  0  0  0  0  0  0  0  0  0  0
    4.5115   -0.8358   -1.2109 C   0  0  0  0  0  0  0  0  0  0  0  0
    5.2317    0.4413   -0.7703 C   0  0  0  0  0  0  0  0  0  0  0  0
    6.7096    0.2031   -0.6562 C   0  0  0  0  0  0  0  0  0  0  0  0
    7.5330    0.2121   -1.7919 C   0  0  0  0  0  0  0  0  0  0  0  0
    8.8626   -0.0379   -1.6574 N   0  0  0  0  0  0  0  0  0  0  0  0
    9.4097   -0.2986   -0.4410 C   0  0  0  0  0  0  0  0  0  0  0  0
    8.5920   -0.3105    0.6917 C   0  0  0  0  0  0  0  0  0  0  0  0
    7.2619   -0.0655    0.5587 N   0  0  0  0  0  0  0  0  0  0  0  0
   -0.0570   -1.5121   -0.5018 C   0  0  0  0  0  0  0  0  0  0  0  0
   -1.3537   -1.3903   -1.2676 C   0  0  0  0  0  0  0  0  0  0  0  0
   -1.2932   -1.1803   -2.5098 O   0  0  0  0  0  0  0  0  0  0  0  0
   -2.6495   -1.5411   -0.6609 N   0  0  0  0  0  0  0  0  0  0  0  0
   -2.9007   -1.6392    0.7807 C   0  0  0  0  0  0  0  0  0  0  0  0
   -2.7669   -3.1072    1.2313 C   0  0  0  0  0  0  0  0  0  0  0  0
   -2.9294   -3.2520    2.7194 C   0  0  0  0  0  0  0  0  0  0  0  0
   -3.9623   -4.0797    3.2604 N   0  0  0  0  0  0  0  0  0  0  0  0
   -2.1415   -2.6467    3.4971 O   0  0  0  0  0  0  0  0  0  0  0  0
   -4.2970   -1.1157    1.0864 C   0  0  0  0  0  0  0  0  0  0  0  0
   -5.2742   -1.7245    0.5701 O   0  0  0  0  0  0  0  0  0  0  0  0
   -6.0337    1.2571    2.8956 H   0  0  0  0  0  0  0  0  0  0  0  0
   -6.5317    0.5270    1.3356 H   0  0  0  0  0  0  0  0  0  0  0  0
   -6.3969   -0.5019    2.8189 H   0  0  0  0  0  0  0  0  0  0  0  0
   -3.8444    1.5019    3.3009 H   0  0  0  0  0  0  0  0  0  0  0  0
   -2.6018    0.4073    2.7419 H   0  0  0  0  0  0  0  0  0  0  0  0
   -4.0400    2.6260    1.1194 H   0  0  0  0  0  0  0  0  0  0  0  0
   -2.3396    2.6468    1.7197 H   0  0  0  0  0  0  0  0  0  0  0  0
   -3.9611    2.0574   -2.1097 H   0  0  0  0  0  0  0  0  0  0  0  0
   -3.0152    3.4567   -3.9206 H   0  0  0  0  0  0  0  0  0  0  0  0
   -0.6910    4.3048   -3.7528 H   0  0  0  0  0  0  0  0  0  0  0  0
    0.7116    3.7093   -1.8109 H   0  0  0  0  0  0  0  0  0  0  0  0
    0.2617    0.4171    1.5425 H   0  0  0  0  0  0  0  0  0  0  0  0
    0.6300    0.2972   -1.4915 H   0  0  0  0  0  0  0  0  0  0  0  0
    2.6911   -0.5456   -2.3393 H   0  0  0  0  0  0  0  0  0  0  0  0
    4.9280   -1.1751   -2.1843 H   0  0  0  0  0  0  0  0  0  0  0  0
    4.6725   -1.6491   -0.4695 H   0  0  0  0  0  0  0  0  0  0  0  0
    4.8350    0.7741    0.2130 H   0  0  0  0  0  0  0  0  0  0  0  0
    5.0390    1.2537   -1.5057 H   0  0  0  0  0  0  0  0  0  0  0  0
    7.1216    0.4127   -2.7725 H   0  0  0  0  0  0  0  0  0  0  0  0
   10.4708   -0.4947   -0.3535 H   0  0  0  0  0  0  0  0  0  0  0  0
    9.0100   -0.5159    1.6675 H   0  0  0  0  0  0  0  0  0  0  0  0
    0.5441   -2.2935   -1.0185 H   0  0  0  0  0  0  0  0  0  0  0  0
   -0.2003   -1.8728    0.5354 H   0  0  0  0  0  0  0  0  0  0  0  0
   -3.4653   -1.5924   -1.3130 H   0  0  0  0  0  0  0  0  0  0  0  0
   -2.1360   -1.0456    1.3055 H   0  0  0  0  0  0  0  0  0  0  0  0
   -1.7687   -3.5023    0.9539 H   0  0  0  0  0  0  0  0  0  0  0  0
   -3.5155   -3.7344    0.7004 H   0  0  0  0  0  0  0  0  0  0  0  0
   -4.0672   -4.1859    4.2950 H   0  0  0  0  0  0  0  0  0  0  0  0
   -4.6024   -4.6184    2.6328 H   0  0  0  0  0  0  0  0  0  0  0  0
  1  2  1  0
  2  3  1  0
  3  4  1  0
  4  5  1  0
  5  6  1  0
  6  7  2  0
  7  8  1  0
  8  9  2  0
  9 10  1  0
 10 11  2  0
 11 12  1  0
 12 13  2  0
 12 14  1  0
 14 15  1  0
 15 16  1  0
 16 17  2  0
 16 18  1  0
 18 19  1  0
 19 20  1  0
 20 21  1  0
 21 22  2  0
 22 23  1  0
 23 24  2  0
 24 25  1  0
 25 26  2  0
 15 27  1  0
 27 28  1  0
 28 29  2  0
 28 30  1  0
 30 31  1  0
 31 32  1  0
 32 33  1  0
 33 34  1  0
 33 35  2  0
 31 36  1  0
 36 37  2  0
 36  2  1  0
 11  6  1  0
 26 21  1  0
  1 38  1  0
  1 39  1  0
  1 40  1  0
  3 41  1  0
  3 42  1  0
  4 43  1  0
  4 44  1  0
  7 45  1  0
  8 46  1  0
  9 47  1  0
 10 48  1  0
 14 49  1  0
 15 50  1  0
 18 51  1  0
 19 52  1  0
 19 53  1  0
 20 54  1  0
 20 55  1  0
 22 56  1  0
 24 57  1  0
 25 58  1  0
 27 59  1  0
 27 60  1  0
 30 61  1  0
 31 62  1  0
 32 63  1  0
 32 64  1  0
 34 65  1  0
 34 66  1  0
M  END
$$$$
