
     RDKit          3D

 72 73  0  0  0  0  0  0  0  0999 V2000
    4.5898    2.5872   -0.3211 C   0  0  0  0  0  0  0  0  0  0  0  0
    4.9226    1.1286   -0.6646 C   0  0  0  0  0  0  0  0  0  0  0  0
    6.3794    1.0312   -1.1378 C   0  0  0  0  0  0  0  0  0  0  0  0
    4.6900    0.1782    0.5350 C   0  0  0  0  0  0  0  0  0  0  0  0
    3.1922   -0.0492    0.8671 C   0  0  2  0  0  0  0  0  0  0  0  0
    2.7028    1.0478    1.7152 N   0  0  0  0  0  0  0  0  0  0  0  0
    1.4751    1.7768    1.5357 C   0  0  0  0  0  0  0  0  0  0  0  0
    1.3487    2.8794    2.1353 O   0  0  0  0  0  0  0  0  0  0  0  0
    0.3561    1.2992    0.6298 C   0  0  2  0  0  0  0  0  0  0  0  0
    0.5275    1.9136   -0.7619 C   0  0  0  0  0  0  0  0  0  0  0  0
   -0.9506    1.6894    1.1850 N   0  0  0  0  0  0  0  0  0  0  0  0
   -2.1501    0.8967    1.1260 C   0  0  0  0  0  0  0  0  0  0  0  0
   -2.9975    1.0290    2.0496 O   0  0  0  0  0  0  0  0  0  0  0  0
   -2.4789    0.0004   -0.0518 C   0  0  2  0  0  0  0  0  0  0  0  0
   -3.2856    0.7145   -1.1872 C   0  0  0  0  0  0  0  0  0  0  0  0
   -4.3216    1.7265   -0.7403 C   0  0  0  0  0  0  0  0  0  0  0  0
   -3.9209    2.9974   -0.2876 C   0  0  0  0  0  0  0  0  0  0  0  0
   -4.8733    3.9433    0.1034 C   0  0  0  0  0  0  0  0  0  0  0  0
   -6.2342    3.6406    0.0240 C   0  0  0  0  0  0  0  0  0  0  0  0
   -6.6453    2.3970   -0.4608 C   0  0  0  0  0  0  0  0  0  0  0  0
   -5.6962    1.4483   -0.8532 C   0  0  0  0  0  0  0  0  0  0  0  0
   -3.0719   -1.2841    0.4291 N   0  0  0  0  0  0  0  0  0  0  0  0
   -4.5322   -1.2740    0.6194 C   0  0  0  0  0  0  0  0  0  0  0  0
   -2.6462   -2.4439   -0.3850 C   0  0  0  0  0  0  0  0  0  0  0  0
   -1.3004   -2.9686    0.1306 C   0  0  0  0  0  0  0  0  0  0  0  0
   -0.5955   -3.8596   -0.9060 C   0  0  0  0  0  0  0  0  0  0  0  0
    0.8996   -4.0152   -0.5914 C   0  0  0  0  0  0  0  0  0  0  0  0
    1.7105   -2.7965   -1.0716 C   0  0  0  0  0  0  0  0  0  0  0  0
    3.1446   -2.8171   -0.5395 C   0  0  0  0  0  0  0  0  0  0  0  0
    3.1669   -2.6340    0.9141 N   0  0  0  0  0  0  0  0  0  0  0  0
    3.0223   -1.3709    1.5883 C   0  0  0  0  0  0  0  0  0  0  0  0
    2.8310   -1.3740    2.8351 O   0  0  0  0  0  0  0  0  0  0  0  0
    5.1470    2.9168    0.5815 H   0  0  0  0  0  0  0  0  0  0  0  0
    3.5045    2.7108   -0.1448 H   0  0  0  0  0  0  0  0  0  0  0  0
    4.8574    3.2533   -1.1685 H   0  0  0  0  0  0  0  0  0  0  0  0
    4.2763    0.8105   -1.5124 H   0  0  0  0  0  0  0  0  0  0  0  0
    6.5456    1.6913   -2.0159 H   0  0  0  0  0  0  0  0  0  0  0  0
    7.0754    1.3317   -0.3250 H   0  0  0  0  0  0  0  0  0  0  0  0
    6.6152   -0.0091   -1.4473 H   0  0  0  0  0  0  0  0  0  0  0  0
    5.2328    0.5554    1.4299 H   0  0  0  0  0  0  0  0  0  0  0  0
    5.1613   -0.7987    0.2916 H   0  0  0  0  0  0  0  0  0  0  0  0
    2.6176   -0.0887   -0.0772 H   0  0  0  0  0  0  0  0  0  0  0  0
    3.2996    1.3353    2.5246 H   0  0  0  0  0  0  0  0  0  0  0  0
    0.4094    0.1934    0.5644 H   0  0  0  0  0  0  0  0  0  0  0  0
   -0.2570    1.5448   -1.4506 H   0  0  0  0  0  0  0  0  0  0  0  0
    1.5115    1.6410   -1.1961 H   0  0  0  0  0  0  0  0  0  0  0  0
    0.4557    3.0212   -0.7065 H   0  0  0  0  0  0  0  0  0  0  0  0
   -1.0290    2.5944    1.7010 H   0  0  0  0  0  0  0  0  0  0  0  0
   -1.5074   -0.2367   -0.5285 H   0  0  0  0  0  0  0  0  0  0  0  0
   -2.5686    1.2553   -1.8423 H   0  0  0  0  0  0  0  0  0  0  0  0
   -3.7511   -0.0454   -1.8507 H   0  0  0  0  0  0  0  0  0  0  0  0
   -2.8711    3.2583   -0.2423 H   0  0  0  0  0  0  0  0  0  0  0  0
   -4.5559    4.9142    0.4619 H   0  0  0  0  0  0  0  0  0  0  0  0
   -6.9705    4.3743    0.3252 H   0  0  0  0  0  0  0  0  0  0  0  0
   -7.7011    2.1709   -0.5412 H   0  0  0  0  0  0  0  0  0  0  0  0
   -6.0382    0.5048   -1.2558 H   0  0  0  0  0  0  0  0  0  0  0  0
   -4.8220   -2.1249    1.2715 H   0  0  0  0  0  0  0  0  0  0  0  0
   -4.8686   -0.3508    1.1313 H   0  0  0  0  0  0  0  0  0  0  0  0
   -5.0626   -1.3871   -0.3490 H   0  0  0  0  0  0  0  0  0  0  0  0
   -3.3780   -3.2818   -0.3201 H   0  0  0  0  0  0  0  0  0  0  0  0
   -2.5785   -2.1586   -1.4589 H   0  0  0  0  0  0  0  0  0  0  0  0
   -1.4692   -3.5507    1.0631 H   0  0  0  0  0  0  0  0  0  0  0  0
   -0.6500   -2.1155    0.4089 H   0  0  0  0  0  0  0  0  0  0  0  0
   -0.7109   -3.4458   -1.9323 H   0  0  0  0  0  0  0  0  0  0  0  0
   -1.0758   -4.8619   -0.8949 H   0  0  0  0  0  0  0  0  0  0  0  0
    1.2831   -4.9221   -1.1078 H   0  0  0  0  0  0  0  0  0  0  0  0
    1.0312   -4.1734    0.5010 H   0  0  0  0  0  0  0  0  0  0  0  0
    1.2263   -1.8483   -0.7641 H   0  0  0  0  0  0  0  0  0  0  0  0
    1.7425   -2.8029   -2.1833 H   0  0  0  0  0  0  0  0  0  0  0  0
    3.7409   -2.0302   -1.0439 H   0  0  0  0  0  0  0  0  0  0  0  0
    3.6143   -3.7917   -0.7945 H   0  0  0  0  0  0  0  0  0  0  0  0
    3.2593   -3.4913    1.5042 H   0  0  0  0  0  0  0  0  0  0  0  0
  1  2  1  0
  2  3  1  0
  2  4  1  0
  4  5  1  0
  5  6  1  0
  6  7  1  0
  7  8  2  0
  7  9  1  0
  9 10  1  0
  9 11  1  0
 11 12  1  0
 12 13  2  0
 12 14  1  0
 14 15  1  0
 15 16  1  0
 16 17  2  0
 17 18  1  0
 18 19  2  0
 19 20  1  0
 20 21  2  0
 14 22  1  0
 22 23  1  0
 22 24  1  0
 24 25  1  0
 25 26  1  0
 26 27  1  0
 27 28  1  0
 28 29  1  0
 29 30  1  0
 30 31  1  0
 31 32  2  0
 31  5  1  0
 21 16  1  0
  1 33  1  0
  1 34  1  0
  1 35  1  0
  2 36  1  0
  3 37  1  0
  3 38  1  0
  3 39  1  0
  4 40  1  0
  4 41  1  0
  5 42  1  6
  6 43  1  0
  9 44  1  6
 10 45  1  0
 10 46  1  0
 10 47  1  0
 11 48  1  0
 14 49  1  6
 15 50  1  0
 15 51  1  0
 17 52  1  0
 18 53  1  0
 19 54  1  0
 20 55  1  0
 21 56  1  0
 23 57  1  0
 23 58  1  0
 23 59  1  0
 24 60  1  0
 24 61  1  0
 25 62  1  0
 25 63  1  0
 26 64  1  0
 26 65  1  0
 27 66  1  0
 27 67  1  0
 28 68  1  0
 28 69  1  0
 29 70  1  0
 29 71  1  0
 30 72  1  0
M  END
$$$$
