
     RDKit          3D

 92 98  0  0  0  0  0  0  0  0999 V2000
    6.2515   -5.2204    3.8081 C   0  0  0  0  0  0  0  0  0  0  0  0
    5.2810   -4.4991    2.9370 C   0  0  0  0  0  0  0  0  0  0  0  0
    4.8666   -4.8881    1.6820 C   0  0  0  0  0  0  0  0  0  0  0  0
    3.9493   -3.9170    1.3337 C   0  0  0  0  0  0  0  0  0  0  0  0
    3.1839   -3.8591    0.0783 C   0  0  0  0  0  0  0  0  0  0  0  0
    3.3839   -4.7323   -0.8084 O   0  0  0  0  0  0  0  0  0  0  0  0
    2.2111   -2.8247   -0.1342 N   0  0  0  0  0  0  0  0  0  0  0  0
    1.3651   -2.7672   -1.3315 C   0  0  1  0  0  0  0  0  0  0  0  0
    0.0249   -3.4749   -1.0568 C   0  0  0  0  0  0  0  0  0  0  0  0
   -0.8579   -3.5853   -2.3123 C   0  0  0  0  0  0  0  0  0  0  0  0
   -2.0248   -4.5744   -2.1321 C   0  0  0  0  0  0  0  0  0  0  0  0
   -3.0021   -4.2267   -0.9930 C   0  0  0  0  0  0  0  0  0  0  0  0
   -3.7174   -2.8900   -1.2128 C   0  0  0  0  0  0  0  0  0  0  0  0
   -4.8277   -2.7082   -0.2090 C   0  0  0  0  0  0  0  0  0  0  0  0
   -4.7969   -1.8367    0.8135 C   0  0  0  0  0  0  0  0  0  0  0  0
   -3.6275   -0.9313    1.1071 C   0  0  2  0  0  0  0  0  0  0  0  0
   -4.0263    0.3465    1.8431 C   0  0  0  0  0  0  0  0  0  0  0  0
   -3.5755    0.4213    0.3896 C   0  0  2  0  0  0  0  0  0  0  0  0
   -4.6280    0.8217   -0.6047 C   0  0  0  0  0  0  0  0  0  0  0  0
   -4.8670    0.0790   -1.5900 O   0  0  0  0  0  0  0  0  0  0  0  0
   -5.3291    2.0590   -0.4524 N   0  0  0  0  0  0  0  0  0  0  0  0
   -6.6212    2.5035   -1.5181 S   0  0  0  0  0  6  0  0  0  0  0  0
   -6.0700    2.7387   -2.8952 O   0  0  0  0  0  0  0  0  0  0  0  0
   -7.6299    1.3894   -1.5649 O   0  0  0  0  0  0  0  0  0  0  0  0
   -7.3734    4.0211   -0.9310 C   0  0  0  0  0  0  0  0  0  0  0  0
   -8.2477    3.8509    0.2997 C   0  0  0  0  0  0  0  0  0  0  0  0
   -8.8871    4.0995   -1.0598 C   0  0  0  0  0  0  0  0  0  0  0  0
   -2.2527    1.0199    0.2418 N   0  0  0  0  0  0  0  0  0  0  0  0
   -1.2211    0.3786   -0.5169 C   0  0  0  0  0  0  0  0  0  0  0  0
   -1.4537    0.0662   -1.7155 O   0  0  0  0  0  0  0  0  0  0  0  0
    0.0734   -0.0579    0.1386 C   0  0  2  0  0  0  0  0  0  0  0  0
    0.6529    0.9779    1.1072 C   0  0  0  0  0  0  0  0  0  0  0  0
    1.7296    1.7249    0.3244 C   0  0  1  0  0  0  0  0  0  0  0  0
    2.8158    2.0536    1.1894 O   0  0  0  0  0  0  0  0  0  0  0  0
    3.8744    2.8915    0.8265 C   0  0  0  0  0  0  0  0  0  0  0  0
    3.9093    3.4778   -0.4029 N   0  0  0  0  0  0  0  0  0  0  0  0
    4.9281    4.2998   -0.7641 C   0  0  0  0  0  0  0  0  0  0  0  0
    4.9537    4.8931   -2.0303 C   0  0  0  0  0  0  0  0  0  0  0  0
    6.0093    5.7430   -2.3778 C   0  0  0  0  0  0  0  0  0  0  0  0
    7.0391    5.9963   -1.4645 C   0  0  0  0  0  0  0  0  0  0  0  0
    7.0250    5.3962   -0.1998 C   0  0  0  0  0  0  0  0  0  0  0  0
    5.9709    4.5484    0.1541 C   0  0  0  0  0  0  0  0  0  0  0  0
    5.9367    3.9624    1.3799 N   0  0  0  0  0  0  0  0  0  0  0  0
    4.9126    3.1400    1.7395 C   0  0  0  0  0  0  0  0  0  0  0  0
    4.9119    2.5098    3.0974 C   0  0  0  0  0  0  0  0  0  0  0  0
    2.1631    0.7679   -0.7846 C   0  0  0  0  0  0  0  0  0  0  0  0
    1.1210   -0.2414   -0.8594 N   0  0  0  0  0  0  0  0  0  0  0  0
    1.1960   -1.3345   -1.7885 C   0  0  0  0  0  0  0  0  0  0  0  0
    1.2033   -1.0830   -3.0247 O   0  0  0  0  0  0  0  0  0  0  0  0
    3.8400   -3.0171    2.3321 N   0  0  0  0  0  0  0  0  0  0  0  0
    4.6485   -3.4000    3.2769 O   0  0  0  0  0  0  0  0  0  0  0  0
    7.0660   -5.6567    3.1906 H   0  0  0  0  0  0  0  0  0  0  0  0
    5.7251   -6.0347    4.3491 H   0  0  0  0  0  0  0  0  0  0  0  0
    6.6921   -4.5175    4.5451 H   0  0  0  0  0  0  0  0  0  0  0  0
    5.1785   -5.7533    1.1116 H   0  0  0  0  0  0  0  0  0  0  0  0
    1.9915   -2.1893    0.6621 H   0  0  0  0  0  0  0  0  0  0  0  0
    1.8723   -3.3163   -2.1556 H   0  0  0  0  0  0  0  0  0  0  0  0
    0.2486   -4.5012   -0.6846 H   0  0  0  0  0  0  0  0  0  0  0  0
   -0.5336   -2.9463   -0.2585 H   0  0  0  0  0  0  0  0  0  0  0  0
   -0.2389   -3.9510   -3.1631 H   0  0  0  0  0  0  0  0  0  0  0  0
   -1.2449   -2.5834   -2.5968 H   0  0  0  0  0  0  0  0  0  0  0  0
   -1.6091   -5.5893   -1.9424 H   0  0  0  0  0  0  0  0  0  0  0  0
   -2.5922   -4.6299   -3.0876 H   0  0  0  0  0  0  0  0  0  0  0  0
   -2.4747   -4.2212   -0.0146 H   0  0  0  0  0  0  0  0  0  0  0  0
   -3.7616   -5.0388   -0.9459 H   0  0  0  0  0  0  0  0  0  0  0  0
   -2.9853   -2.0625   -1.1541 H   0  0  0  0  0  0  0  0  0  0  0  0
   -4.1688   -2.8727   -2.2274 H   0  0  0  0  0  0  0  0  0  0  0  0
   -5.7053   -3.3403   -0.3109 H   0  0  0  0  0  0  0  0  0  0  0  0
   -5.6496   -1.8116    1.4833 H   0  0  0  0  0  0  0  0  0  0  0  0
   -2.6632   -1.3690    1.4411 H   0  0  0  0  0  0  0  0  0  0  0  0
   -3.2751    0.6906    2.5860 H   0  0  0  0  0  0  0  0  0  0  0  0
   -5.1157    0.4872    2.0126 H   0  0  0  0  0  0  0  0  0  0  0  0
   -5.1004    2.6889    0.3483 H   0  0  0  0  0  0  0  0  0  0  0  0
   -6.8255    4.9837   -0.9983 H   0  0  0  0  0  0  0  0  0  0  0  0
   -8.3825    2.8136    0.6792 H   0  0  0  0  0  0  0  0  0  0  0  0
   -8.2642    4.7352    0.9680 H   0  0  0  0  0  0  0  0  0  0  0  0
   -9.2894    5.1290   -1.1883 H   0  0  0  0  0  0  0  0  0  0  0  0
   -9.4013    3.2105   -1.4809 H   0  0  0  0  0  0  0  0  0  0  0  0
   -2.0786    1.9524    0.6742 H   0  0  0  0  0  0  0  0  0  0  0  0
   -0.1100   -0.9957    0.6962 H   0  0  0  0  0  0  0  0  0  0  0  0
    1.1301    0.4343    1.9512 H   0  0  0  0  0  0  0  0  0  0  0  0
   -0.0838    1.6783    1.5489 H   0  0  0  0  0  0  0  0  0  0  0  0
    1.2842    2.6490   -0.1112 H   0  0  0  0  0  0  0  0  0  0  0  0
    4.1538    4.7077   -2.7394 H   0  0  0  0  0  0  0  0  0  0  0  0
    6.0225    6.2161   -3.3523 H   0  0  0  0  0  0  0  0  0  0  0  0
    7.8486    6.6608   -1.7360 H   0  0  0  0  0  0  0  0  0  0  0  0
    7.8251    5.5972    0.5026 H   0  0  0  0  0  0  0  0  0  0  0  0
    5.8099    2.8201    3.6704 H   0  0  0  0  0  0  0  0  0  0  0  0
    4.0048    2.8224    3.6567 H   0  0  0  0  0  0  0  0  0  0  0  0
    4.9181    1.4043    2.9954 H   0  0  0  0  0  0  0  0  0  0  0  0
    2.2538    1.3087   -1.7508 H   0  0  0  0  0  0  0  0  0  0  0  0
    3.1337    0.2823   -0.5386 H   0  0  0  0  0  0  0  0  0  0  0  0
  1  2  1  0
  2  3  2  0
  3  4  1  0
  4  5  1  0
  5  6  2  0
  5  7  1  0
  7  8  1  0
  8  9  1  0
  9 10  1  0
 10 11  1  0
 11 12  1  0
 12 13  1  0
 13 14  1  0
 14 15  2  0
 15 16  1  0
 16 17  1  0
 17 18  1  0
 18 19  1  6
 19 20  2  0
 19 21  1  0
 21 22  1  0
 22 23  2  0
 22 24  2  0
 22 25  1  0
 25 26  1  0
 26 27  1  0
 18 28  1  0
 28 29  1  0
 29 30  2  0
 29 31  1  0
 31 32  1  0
 32 33  1  0
 33 34  1  0
 34 35  1  0
 35 36  2  0
 36 37  1  0
 37 38  2  0
 38 39  1  0
 39 40  2  0
 40 41  1  0
 41 42  2  0
 42 43  1  0
 43 44  2  0
 44 45  1  0
 33 46  1  0
 46 47  1  0
 47 48  1  0
 48 49  2  0
  4 50  2  0
 50 51  1  0
 51  2  1  0
 48  8  1  0
 18 16  1  0
 27 25  1  0
 47 31  1  0
 44 35  1  0
 42 37  1  0
  1 52  1  0
  1 53  1  0
  1 54  1  0
  3 55  1  0
  7 56  1  0
  8 57  1  6
  9 58  1  0
  9 59  1  0
 10 60  1  0
 10 61  1  0
 11 62  1  0
 11 63  1  0
 12 64  1  0
 12 65  1  0
 13 66  1  0
 13 67  1  0
 14 68  1  0
 15 69  1  0
 16 70  1  1
 17 71  1  0
 17 72  1  0
 21 73  1  0
 25 74  1  0
 26 75  1  0
 26 76  1  0
 27 77  1  0
 27 78  1  0
 28 79  1  0
 31 80  1  1
 32 81  1  0
 32 82  1  0
 33 83  1  6
 38 84  1  0
 39 85  1  0
 40 86  1  0
 41 87  1  0
 45 88  1  0
 45 89  1  0
 45 90  1  0
 46 91  1  0
 46 92  1  0
M  END
$$$$
