
     RDKit          3D

 94 98  0  0  0  0  0  0  0  0999 V2000
    3.7804   -4.6564    2.0298 N   0  0  0  0  0  0  0  0  0  0  0  0
    2.3936   -4.9750    1.9073 C   0  0  0  0  0  0  0  0  0  0  0  0
    2.0453   -6.1441    1.5829 O   0  0  0  0  0  0  0  0  0  0  0  0
    1.3494   -3.9094    2.1069 C   0  0  0  0  0  0  0  0  0  0  0  0
    0.6525   -3.4877    0.7938 C   0  0  2  0  0  0  0  0  0  0  0  0
   -0.3254   -4.5054    0.3933 N   0  0  0  0  0  0  0  0  0  0  0  0
   -1.6708   -4.4655    0.8892 C   0  0  0  0  0  0  0  0  0  0  0  0
   -1.9476   -5.1386    1.9201 O   0  0  0  0  0  0  0  0  0  0  0  0
   -2.7251   -3.5699    0.2310 C   0  0  0  0  0  0  0  0  0  0  0  0
   -4.1624   -3.9614    0.7361 C   0  0  0  0  0  0  0  0  0  0  0  0
   -5.2310   -3.8744   -0.3628 C   0  0  0  0  0  0  0  0  0  0  0  0
   -4.9103   -4.8316   -1.5279 C   0  0  0  0  0  0  0  0  0  0  0  0
   -3.3976   -4.9724   -1.7993 C   0  0  0  0  0  0  0  0  0  0  0  0
   -2.6280   -3.7358   -1.3236 C   0  0  0  0  0  0  0  0  0  0  0  0
   -2.4370   -2.1798    0.6348 N   0  0  0  0  0  0  0  0  0  0  0  0
   -3.0335   -1.0320    0.0185 C   0  0  0  0  0  0  0  0  0  0  0  0
   -4.0935   -0.5527    0.5016 O   0  0  0  0  0  0  0  0  0  0  0  0
   -2.3883   -0.3761   -1.1752 C   0  0  0  0  0  0  0  0  0  0  0  0
   -1.6837    0.9651   -0.8726 C   0  0  1  0  0  0  0  0  0  0  0  0
   -2.6268    1.9915   -0.2702 C   0  0  0  0  0  0  0  0  0  0  0  0
   -2.7574    2.1513    1.1231 C   0  0  0  0  0  0  0  0  0  0  0  0
   -3.6517    3.0867    1.6495 C   0  0  0  0  0  0  0  0  0  0  0  0
   -4.4481    3.8624    0.7967 C   0  0  0  0  0  0  0  0  0  0  0  0
   -5.3833    4.8949    1.3611 C   0  0  0  0  0  0  0  0  0  0  0  0
   -4.5232    6.4925    1.5276 P   0  0  0  0  0  5  0  0  0  0  0  0
   -3.4284    6.3662    2.5619 O   0  0  0  0  0  0  0  0  0  0  0  0
   -5.6160    7.6834    2.0213 O   0  0  0  0  0  0  0  0  0  0  0  0
   -3.8408    6.9338    0.0440 O   0  0  0  0  0  0  0  0  0  0  0  0
   -4.3276    3.7023   -0.5941 C   0  0  0  0  0  0  0  0  0  0  0  0
   -3.4325    2.7681   -1.1210 C   0  0  0  0  0  0  0  0  0  0  0  0
   -0.4266    0.7704   -0.0516 C   0  0  0  0  0  0  0  0  0  0  0  0
    0.5798    1.6636   -0.0971 C   0  0  0  0  0  0  0  0  0  0  0  0
    1.8821    1.4649    0.6402 C   0  0  0  0  0  0  0  0  0  0  0  0
    2.7493    0.3528   -0.0206 C   0  0  1  0  0  0  0  0  0  0  0  0
    4.2594    0.7169   -0.0016 C   0  0  0  0  0  0  0  0  0  0  0  0
    4.7229    1.8961   -0.8614 C   0  0  0  0  0  0  0  0  0  0  0  0
    3.8670    2.5093   -1.8037 C   0  0  0  0  0  0  0  0  0  0  0  0
    4.2968    3.5865   -2.5766 C   0  0  0  0  0  0  0  0  0  0  0  0
    5.5928    4.0747   -2.4458 C   0  0  0  0  0  0  0  0  0  0  0  0
    6.4839    3.4777   -1.5482 C   0  0  0  0  0  0  0  0  0  0  0  0
    7.7977    3.9653   -1.4398 C   0  0  0  0  0  0  0  0  0  0  0  0
    8.7027    3.3652   -0.5635 C   0  0  0  0  0  0  0  0  0  0  0  0
    8.3104    2.2718    0.2054 C   0  0  0  0  0  0  0  0  0  0  0  0
    7.0072    1.7749    0.1126 C   0  0  0  0  0  0  0  0  0  0  0  0
    6.0639    2.3725   -0.7566 C   0  0  0  0  0  0  0  0  0  0  0  0
    2.5354   -1.0144    0.6853 C   0  0  0  0  0  0  0  0  0  0  0  0
    2.5596   -2.1068   -0.2915 N   0  0  0  0  0  0  0  0  0  0  0  0
    1.6507   -3.2210   -0.3205 C   0  0  0  0  0  0  0  0  0  0  0  0
    1.7293   -4.0309   -1.2830 O   0  0  0  0  0  0  0  0  0  0  0  0
    4.5026   -5.3774    1.8183 H   0  0  0  0  0  0  0  0  0  0  0  0
    4.0883   -3.6996    2.3221 H   0  0  0  0  0  0  0  0  0  0  0  0
    0.5938   -4.2831    2.8294 H   0  0  0  0  0  0  0  0  0  0  0  0
    1.8117   -3.0192    2.5844 H   0  0  0  0  0  0  0  0  0  0  0  0
    0.0984   -2.5493    0.9849 H   0  0  0  0  0  0  0  0  0  0  0  0
    0.0265   -5.4399    0.0858 H   0  0  0  0  0  0  0  0  0  0  0  0
   -4.4623   -3.3148    1.5893 H   0  0  0  0  0  0  0  0  0  0  0  0
   -4.1897   -5.0107    1.1067 H   0  0  0  0  0  0  0  0  0  0  0  0
   -5.2982   -2.8301   -0.7391 H   0  0  0  0  0  0  0  0  0  0  0  0
   -6.2234   -4.1351    0.0640 H   0  0  0  0  0  0  0  0  0  0  0  0
   -5.4148   -4.4558   -2.4451 H   0  0  0  0  0  0  0  0  0  0  0  0
   -5.3303   -5.8378   -1.3091 H   0  0  0  0  0  0  0  0  0  0  0  0
   -3.0029   -5.8713   -1.2802 H   0  0  0  0  0  0  0  0  0  0  0  0
   -3.2276   -5.1195   -2.8880 H   0  0  0  0  0  0  0  0  0  0  0  0
   -3.0847   -2.8732   -1.8477 H   0  0  0  0  0  0  0  0  0  0  0  0
   -1.5728   -3.7857   -1.6695 H   0  0  0  0  0  0  0  0  0  0  0  0
   -2.1795   -2.0392    1.6386 H   0  0  0  0  0  0  0  0  0  0  0  0
   -1.6382   -1.0661   -1.6223 H   0  0  0  0  0  0  0  0  0  0  0  0
   -3.1743   -0.2082   -1.9422 H   0  0  0  0  0  0  0  0  0  0  0  0
   -1.3529    1.3488   -1.8634 H   0  0  0  0  0  0  0  0  0  0  0  0
   -2.1722    1.5506    1.8059 H   0  0  0  0  0  0  0  0  0  0  0  0
   -3.7245    3.2049    2.7236 H   0  0  0  0  0  0  0  0  0  0  0  0
   -6.2629    5.0267    0.6966 H   0  0  0  0  0  0  0  0  0  0  0  0
   -5.7614    4.5787    2.3576 H   0  0  0  0  0  0  0  0  0  0  0  0
   -6.3494    7.6458    1.3529 H   0  0  0  0  0  0  0  0  0  0  0  0
   -4.6054    6.9735   -0.5856 H   0  0  0  0  0  0  0  0  0  0  0  0
   -4.9321    4.2980   -1.2671 H   0  0  0  0  0  0  0  0  0  0  0  0
   -3.3629    2.6534   -2.1972 H   0  0  0  0  0  0  0  0  0  0  0  0
   -0.3496   -0.1088    0.5771 H   0  0  0  0  0  0  0  0  0  0  0  0
    0.4720    2.5545   -0.7061 H   0  0  0  0  0  0  0  0  0  0  0  0
    2.4219    2.4369    0.6174 H   0  0  0  0  0  0  0  0  0  0  0  0
    1.6879    1.2516    1.7155 H   0  0  0  0  0  0  0  0  0  0  0  0
    2.4389    0.2263   -1.0818 H   0  0  0  0  0  0  0  0  0  0  0  0
    4.5333    0.9219    1.0598 H   0  0  0  0  0  0  0  0  0  0  0  0
    4.8380   -0.1727   -0.3401 H   0  0  0  0  0  0  0  0  0  0  0  0
    2.8511    2.1814   -1.9510 H   0  0  0  0  0  0  0  0  0  0  0  0
    3.6157    4.0478   -3.2820 H   0  0  0  0  0  0  0  0  0  0  0  0
    5.9039    4.9128   -3.0579 H   0  0  0  0  0  0  0  0  0  0  0  0
    8.1259    4.8115   -2.0331 H   0  0  0  0  0  0  0  0  0  0  0  0
    9.7172    3.7427   -0.4869 H   0  0  0  0  0  0  0  0  0  0  0  0
    9.0217    1.8017    0.8750 H   0  0  0  0  0  0  0  0  0  0  0  0
    6.7576    0.9202    0.7270 H   0  0  0  0  0  0  0  0  0  0  0  0
    1.5841   -1.0107    1.2419 H   0  0  0  0  0  0  0  0  0  0  0  0
    3.3291   -1.1958    1.4435 H   0  0  0  0  0  0  0  0  0  0  0  0
    3.3369   -2.1051   -0.9878 H   0  0  0  0  0  0  0  0  0  0  0  0
  1  2  1  0
  2  3  2  0
  2  4  1  0
  4  5  1  0
  5  6  1  0
  6  7  1  0
  7  8  2  0
  7  9  1  0
  9 10  1  0
 10 11  1  0
 11 12  1  0
 12 13  1  0
 13 14  1  0
  9 15  1  0
 15 16  1  0
 16 17  2  0
 16 18  1  0
 18 19  1  0
 19 20  1  0
 20 21  2  0
 21 22  1  0
 22 23  2  0
 23 24  1  0
 24 25  1  0
 25 26  2  0
 25 27  1  0
 25 28  1  0
 23 29  1  0
 29 30  2  0
 19 31  1  0
 31 32  2  0
 32 33  1  0
 33 34  1  0
 34 35  1  0
 35 36  1  0
 36 37  2  0
 37 38  1  0
 38 39  2  0
 39 40  1  0
 40 41  2  0
 41 42  1  0
 42 43  2  0
 43 44  1  0
 44 45  2  0
 34 46  1  0
 46 47  1  0
 47 48  1  0
 48 49  2  0
 48  5  1  0
 14  9  1  0
 30 20  1  0
 45 36  1  0
 45 40  1  0
  1 50  1  0
  1 51  1  0
  4 52  1  0
  4 53  1  0
  5 54  1  1
  6 55  1  0
 10 56  1  0
 10 57  1  0
 11 58  1  0
 11 59  1  0
 12 60  1  0
 12 61  1  0
 13 62  1  0
 13 63  1  0
 14 64  1  0
 14 65  1  0
 15 66  1  0
 18 67  1  0
 18 68  1  0
 19 69  1  6
 21 70  1  0
 22 71  1  0
 24 72  1  0
 24 73  1  0
 27 74  1  0
 28 75  1  0
 29 76  1  0
 30 77  1  0
 31 78  1  0
 32 79  1  0
 33 80  1  0
 33 81  1  0
 34 82  1  6
 35 83  1  0
 35 84  1  0
 37 85  1  0
 38 86  1  0
 39 87  1  0
 41 88  1  0
 42 89  1  0
 43 90  1  0
 44 91  1  0
 46 92  1  0
 46 93  1  0
 47 94  1  0
M  END
$$$$
