
     RDKit          3D

 87 91  0  0  0  0  0  0  0  0999 V2000
    0.3307   -4.1430   -2.1647 O   0  0  0  0  0  0  0  0  0  0  0  0
    0.6970   -3.5430   -1.1174 C   0  0  0  0  0  0  0  0  0  0  0  0
    1.5108   -4.2858   -0.0922 C   0  0  0  0  0  0  0  0  0  0  0  0
    0.7556   -5.5108    0.4479 C   0  0  0  0  0  0  0  0  0  0  0  0
   -0.4635   -5.1073    1.2401 C   0  0  0  0  0  0  0  0  0  0  0  0
   -0.3397   -4.7425    2.5902 C   0  0  0  0  0  0  0  0  0  0  0  0
   -1.4605   -4.3302    3.3129 C   0  0  0  0  0  0  0  0  0  0  0  0
   -2.7087   -4.2455    2.6866 C   0  0  0  0  0  0  0  0  0  0  0  0
   -2.8412   -4.5795    1.3267 C   0  0  0  0  0  0  0  0  0  0  0  0
   -1.7221   -5.0345    0.6178 C   0  0  0  0  0  0  0  0  0  0  0  0
   -4.0635   -4.4694    0.6487 O   0  0  0  0  0  0  0  0  0  0  0  0
   -4.9851   -3.3869    0.8086 C   0  0  0  0  0  0  0  0  0  0  0  0
   -4.6051   -2.2081   -0.0991 C   0  0  0  0  0  0  0  0  0  0  0  0
   -3.4080   -1.4155    0.4440 C   0  0  0  0  0  0  0  0  0  0  0  0
   -2.9337   -0.3519   -0.5614 C   0  0  0  0  0  0  0  0  0  0  0  0
   -1.7736    0.5337   -0.0385 C   0  0  1  0  0  0  0  0  0  0  0  0
   -2.3242    1.7025    0.7391 C   0  0  0  0  0  0  0  0  0  0  0  0
   -2.5028    1.6088    1.9850 O   0  0  0  0  0  0  0  0  0  0  0  0
   -2.7354    2.8858    0.0421 N   0  0  0  0  0  0  0  0  0  0  0  0
   -3.4748    3.9508    0.7178 C   0  0  0  0  0  0  0  0  0  0  0  0
   -4.0060    4.9467   -0.2822 C   0  0  0  0  0  0  0  0  0  0  0  0
   -5.0701    4.5821   -1.1255 C   0  0  0  0  0  0  0  0  0  0  0  0
   -5.5918    5.5001   -2.0401 C   0  0  0  0  0  0  0  0  0  0  0  0
   -5.0548    6.7874   -2.1276 C   0  0  0  0  0  0  0  0  0  0  0  0
   -3.9831    7.1529   -1.3078 C   0  0  0  0  0  0  0  0  0  0  0  0
   -3.4565    6.2399   -0.3872 C   0  0  0  0  0  0  0  0  0  0  0  0
   -2.4122    6.6156    0.3957 F   0  0  0  0  0  0  0  0  0  0  0  0
   -0.8268   -0.2309    0.7853 N   0  0  0  0  0  0  0  0  0  0  0  0
    0.5812   -0.2265    0.5338 C   0  0  0  0  0  0  0  0  0  0  0  0
    1.3290    0.4891    1.2540 O   0  0  0  0  0  0  0  0  0  0  0  0
    1.2007   -1.1193   -0.5159 C   0  0  2  0  0  0  0  0  0  0  0  0
    1.6090   -0.3276   -1.7693 C   0  0  0  0  0  0  0  0  0  0  0  0
    2.7351    0.6401   -1.5061 C   0  0  0  0  0  0  0  0  0  0  0  0
    2.4535    1.8635   -1.3761 O   0  0  0  0  0  0  0  0  0  0  0  0
    4.1099    0.2109   -1.3837 N   0  0  0  0  0  0  0  0  0  0  0  0
    4.5680   -1.1612   -1.5737 C   0  0  0  0  0  0  0  0  0  0  0  0
    6.0747   -1.0710   -1.7707 C   0  0  0  0  0  0  0  0  0  0  0  0
    6.4867    0.2846   -1.2084 C   0  0  0  0  0  0  0  0  0  0  0  0
    5.2203    1.1450   -1.2361 C   0  0  2  0  0  0  0  0  0  0  0  0
    5.0862    1.9836    0.0207 C   0  0  0  0  0  0  0  0  0  0  0  0
    5.3717    3.3574   -0.0289 C   0  0  0  0  0  0  0  0  0  0  0  0
    5.2403    4.1449    1.1186 C   0  0  0  0  0  0  0  0  0  0  0  0
    4.8362    3.5666    2.3242 C   0  0  0  0  0  0  0  0  0  0  0  0
    4.5689    2.1973    2.3900 C   0  0  0  0  0  0  0  0  0  0  0  0
    4.6964    1.4056    1.2443 C   0  0  0  0  0  0  0  0  0  0  0  0
    0.2740   -2.1901   -0.9025 N   0  0  0  0  0  0  0  0  0  0  0  0
    1.7786   -3.6274    0.7610 H   0  0  0  0  0  0  0  0  0  0  0  0
    2.4570   -4.6246   -0.5676 H   0  0  0  0  0  0  0  0  0  0  0  0
    0.4660   -6.1811   -0.3901 H   0  0  0  0  0  0  0  0  0  0  0  0
    1.4405   -6.1001    1.0956 H   0  0  0  0  0  0  0  0  0  0  0  0
    0.6261   -4.7791    3.0809 H   0  0  0  0  0  0  0  0  0  0  0  0
   -1.3624   -4.0783    4.3615 H   0  0  0  0  0  0  0  0  0  0  0  0
   -3.5634   -3.9329    3.2695 H   0  0  0  0  0  0  0  0  0  0  0  0
   -1.8253   -5.3038   -0.4272 H   0  0  0  0  0  0  0  0  0  0  0  0
   -5.0730   -3.0659    1.8660 H   0  0  0  0  0  0  0  0  0  0  0  0
   -5.9868   -3.7488    0.4985 H   0  0  0  0  0  0  0  0  0  0  0  0
   -5.4785   -1.5267   -0.1807 H   0  0  0  0  0  0  0  0  0  0  0  0
   -4.3747   -2.5955   -1.1183 H   0  0  0  0  0  0  0  0  0  0  0  0
   -3.6935   -0.9292    1.4068 H   0  0  0  0  0  0  0  0  0  0  0  0
   -2.5653   -2.1153    0.6268 H   0  0  0  0  0  0  0  0  0  0  0  0
   -2.6048   -0.8636   -1.4909 H   0  0  0  0  0  0  0  0  0  0  0  0
   -3.7954    0.2888   -0.8563 H   0  0  0  0  0  0  0  0  0  0  0  0
   -1.2376    0.9413   -0.9258 H   0  0  0  0  0  0  0  0  0  0  0  0
   -2.5042    2.9750   -0.9734 H   0  0  0  0  0  0  0  0  0  0  0  0
   -2.8140    4.4369    1.4678 H   0  0  0  0  0  0  0  0  0  0  0  0
   -4.3354    3.5110    1.2683 H   0  0  0  0  0  0  0  0  0  0  0  0
   -5.4967    3.5861   -1.0725 H   0  0  0  0  0  0  0  0  0  0  0  0
   -6.4173    5.2168   -2.6789 H   0  0  0  0  0  0  0  0  0  0  0  0
   -5.4634    7.4963   -2.8361 H   0  0  0  0  0  0  0  0  0  0  0  0
   -3.5632    8.1480   -1.3843 H   0  0  0  0  0  0  0  0  0  0  0  0
   -1.1293   -0.5525    1.7319 H   0  0  0  0  0  0  0  0  0  0  0  0
    2.1129   -1.5599   -0.0689 H   0  0  0  0  0  0  0  0  0  0  0  0
    1.9137   -1.0309   -2.5710 H   0  0  0  0  0  0  0  0  0  0  0  0
    0.7263    0.2245   -2.1615 H   0  0  0  0  0  0  0  0  0  0  0  0
    4.3374   -1.7581   -0.6640 H   0  0  0  0  0  0  0  0  0  0  0  0
    4.0998   -1.6282   -2.4687 H   0  0  0  0  0  0  0  0  0  0  0  0
    6.3129   -1.1076   -2.8576 H   0  0  0  0  0  0  0  0  0  0  0  0
    6.6042   -1.9018   -1.2539 H   0  0  0  0  0  0  0  0  0  0  0  0
    7.2999    0.7385   -1.8174 H   0  0  0  0  0  0  0  0  0  0  0  0
    6.8580    0.1419   -0.1685 H   0  0  0  0  0  0  0  0  0  0  0  0
    5.2448    1.8017   -2.1365 H   0  0  0  0  0  0  0  0  0  0  0  0
    5.6859    3.8198   -0.9555 H   0  0  0  0  0  0  0  0  0  0  0  0
    5.4520    5.2044    1.0698 H   0  0  0  0  0  0  0  0  0  0  0  0
    4.7359    4.1790    3.2103 H   0  0  0  0  0  0  0  0  0  0  0  0
    4.2584    1.7482    3.3250 H   0  0  0  0  0  0  0  0  0  0  0  0
    4.4890    0.3450    1.3073 H   0  0  0  0  0  0  0  0  0  0  0  0
   -0.6080   -1.9063   -1.3802 H   0  0  0  0  0  0  0  0  0  0  0  0
  1  2  2  0
  2  3  1  0
  3  4  1  0
  4  5  1  0
  5  6  1  0
  6  7  2  0
  7  8  1  0
  8  9  2  0
  9 10  1  0
  9 11  1  0
 11 12  1  0
 12 13  1  0
 13 14  1  0
 14 15  1  0
 15 16  1  0
 16 17  1  0
 17 18  2  0
 17 19  1  0
 19 20  1  0
 20 21  1  0
 21 22  2  0
 22 23  1  0
 23 24  2  0
 24 25  1  0
 25 26  2  0
 26 27  1  0
 16 28  1  0
 28 29  1  0
 29 30  2  0
 29 31  1  0
 31 32  1  0
 32 33  1  0
 33 34  2  0
 33 35  1  0
 35 36  1  0
 36 37  1  0
 37 38  1  0
 38 39  1  0
 39 40  1  0
 40 41  2  0
 41 42  1  0
 42 43  2  0
 43 44  1  0
 44 45  2  0
 31 46  1  0
 46  2  1  0
 10  5  2  0
 26 21  1  0
 39 35  1  0
 45 40  1  0
  3 47  1  0
  3 48  1  0
  4 49  1  0
  4 50  1  0
  6 51  1  0
  7 52  1  0
  8 53  1  0
 10 54  1  0
 12 55  1  0
 12 56  1  0
 13 57  1  0
 13 58  1  0
 14 59  1  0
 14 60  1  0
 15 61  1  0
 15 62  1  0
 16 63  1  6
 19 64  1  0
 20 65  1  0
 20 66  1  0
 22 67  1  0
 23 68  1  0
 24 69  1  0
 25 70  1  0
 28 71  1  0
 31 72  1  1
 32 73  1  0
 32 74  1  0
 36 75  1  0
 36 76  1  0
 37 77  1  0
 37 78  1  0
 38 79  1  0
 38 80  1  0
 39 81  1  6
 41 82  1  0
 42 83  1  0
 43 84  1  0
 44 85  1  0
 45 86  1  0
 46 87  1  0
M  END
$$$$
