
     RDKit          3D

 83 87  0  0  0  0  0  0  0  0999 V2000
   -0.0510    4.8984   -0.3711 C   0  0  0  0  0  0  0  0  0  0  0  0
   -0.6559    3.8275   -1.1655 N   0  0  0  0  0  0  0  0  0  0  0  0
   -0.3515    2.4262   -0.8076 C   0  0  0  0  0  0  0  0  0  0  0  0
    0.6804    1.7198   -1.7396 C   0  0  0  0  0  0  0  0  0  0  0  0
    0.1101    1.5961   -3.1733 C   0  0  0  0  0  0  0  0  0  0  0  0
    1.9751    2.5658   -1.8142 C   0  0  0  0  0  0  0  0  0  0  0  0
    1.0366    0.3133   -1.1149 C   0  0  2  0  0  0  0  0  0  0  0  0
    1.9479   -0.4593   -1.9668 N   0  0  0  0  0  0  0  0  0  0  0  0
    3.3212   -0.6835   -1.6206 C   0  0  0  0  0  0  0  0  0  0  0  0
    3.8883    0.0500   -0.7698 O   0  0  0  0  0  0  0  0  0  0  0  0
    4.0184   -1.7323   -2.2253 O   0  0  0  0  0  0  0  0  0  0  0  0
    5.3618   -2.0762   -1.8811 C   0  0  0  0  0  0  0  0  0  0  0  0
    5.4408   -2.5700   -0.4588 C   0  0  0  0  0  0  0  0  0  0  0  0
    6.4491   -2.1048    0.4065 C   0  0  0  0  0  0  0  0  0  0  0  0
    6.5201   -2.5751    1.7212 C   0  0  0  0  0  0  0  0  0  0  0  0
    5.5876   -3.5133    2.1801 C   0  0  0  0  0  0  0  0  0  0  0  0
    4.5899   -3.9872    1.3244 C   0  0  0  0  0  0  0  0  0  0  0  0
    4.5211   -3.5277    0.0049 C   0  0  0  0  0  0  0  0  0  0  0  0
   -0.1536   -0.5523   -0.7593 C   0  0  0  0  0  0  0  0  0  0  0  0
   -1.0828   -0.7342   -1.5893 O   0  0  0  0  0  0  0  0  0  0  0  0
   -0.2131   -1.2142    0.5119 N   0  0  0  0  0  0  0  0  0  0  0  0
    0.8825   -2.0262    1.0190 C   0  0  0  0  0  0  0  0  0  0  0  0
    0.3781   -2.6926    2.2949 C   0  0  1  0  0  0  0  0  0  0  0  0
   -1.0621   -2.2025    2.5079 C   0  0  1  0  0  0  0  0  0  0  0  0
   -1.4177   -1.2880    1.3285 C   0  0  1  0  0  0  0  0  0  0  0  0
   -1.7861    0.0902    1.8230 C   0  0  0  0  0  0  0  0  0  0  0  0
   -0.8883    0.7337    2.4338 O   0  0  0  0  0  0  0  0  0  0  0  0
   -3.0821    0.7209    1.6675 N   0  0  0  0  0  0  0  0  0  0  0  0
   -4.3109    0.3060    0.9607 C   0  0  2  0  0  0  0  0  0  0  0  0
   -4.0864   -0.5735   -0.2001 C   0  0  0  0  0  0  0  0  0  0  0  0
   -3.9386   -1.2590   -1.1197 N   0  0  0  0  0  0  0  0  0  0  0  0
   -5.0900    1.5630    0.4792 C   0  0  0  0  0  0  0  0  0  0  0  0
   -4.2498    2.4231   -0.5017 C   0  0  2  0  0  0  0  0  0  0  0  0
   -3.3879    3.4999    0.1784 C   0  0  0  0  0  0  0  0  0  0  0  0
   -3.1223    4.5279   -0.9372 C   0  0  2  0  0  0  0  0  0  0  0  0
   -4.3445    4.4868   -1.7249 N   0  0  0  0  0  0  0  0  0  0  0  0
   -5.0129    3.2658   -1.4587 C   0  0  0  0  0  0  0  0  0  0  0  0
   -6.0470    2.9014   -2.0740 O   0  0  0  0  0  0  0  0  0  0  0  0
   -1.9245    4.1164   -1.7806 C   0  0  0  0  0  0  0  0  0  0  0  0
   -2.0354    4.0344   -3.0303 O   0  0  0  0  0  0  0  0  0  0  0  0
   -0.7889   -3.6905    2.2407 C   0  0  0  0  0  0  0  0  0  0  0  0
   -1.2343   -4.2930    0.8923 C   0  0  0  0  0  0  0  0  0  0  0  0
   -0.9678   -4.5764    3.4707 C   0  0  0  0  0  0  0  0  0  0  0  0
   -0.5430    4.9501    0.6282 H   0  0  0  0  0  0  0  0  0  0  0  0
   -0.1786    5.8797   -0.8829 H   0  0  0  0  0  0  0  0  0  0  0  0
    1.0372    4.7180   -0.2300 H   0  0  0  0  0  0  0  0  0  0  0  0
    0.0344    2.3933    0.2372 H   0  0  0  0  0  0  0  0  0  0  0  0
   -1.2870    1.8331   -0.8013 H   0  0  0  0  0  0  0  0  0  0  0  0
   -0.8800    1.0907   -3.1869 H   0  0  0  0  0  0  0  0  0  0  0  0
   -0.0187    2.5965   -3.6313 H   0  0  0  0  0  0  0  0  0  0  0  0
    0.8111    1.0355   -3.8290 H   0  0  0  0  0  0  0  0  0  0  0  0
    1.7704    3.5639   -2.2509 H   0  0  0  0  0  0  0  0  0  0  0  0
    2.4174    2.7026   -0.8041 H   0  0  0  0  0  0  0  0  0  0  0  0
    2.7318    2.0828   -2.4626 H   0  0  0  0  0  0  0  0  0  0  0  0
    1.5443    0.5231   -0.1495 H   0  0  0  0  0  0  0  0  0  0  0  0
    1.5608   -0.9751   -2.7855 H   0  0  0  0  0  0  0  0  0  0  0  0
    5.7108   -2.8827   -2.5583 H   0  0  0  0  0  0  0  0  0  0  0  0
    6.0154   -1.1945   -2.0475 H   0  0  0  0  0  0  0  0  0  0  0  0
    7.1736   -1.3706    0.0700 H   0  0  0  0  0  0  0  0  0  0  0  0
    7.2932   -2.2131    2.3865 H   0  0  0  0  0  0  0  0  0  0  0  0
    5.6446   -3.8835    3.1929 H   0  0  0  0  0  0  0  0  0  0  0  0
    3.8713   -4.7148    1.6801 H   0  0  0  0  0  0  0  0  0  0  0  0
    3.7437   -3.9046   -0.6507 H   0  0  0  0  0  0  0  0  0  0  0  0
    1.7550   -1.3808    1.2639 H   0  0  0  0  0  0  0  0  0  0  0  0
    1.1833   -2.7874    0.2681 H   0  0  0  0  0  0  0  0  0  0  0  0
    0.9859   -2.6193    3.2216 H   0  0  0  0  0  0  0  0  0  0  0  0
   -1.2710   -1.8913    3.5609 H   0  0  0  0  0  0  0  0  0  0  0  0
   -2.2264   -1.7714    0.7705 H   0  0  0  0  0  0  0  0  0  0  0  0
   -3.2048    1.5624    2.2797 H   0  0  0  0  0  0  0  0  0  0  0  0
   -4.9512   -0.2502    1.6760 H   0  0  0  0  0  0  0  0  0  0  0  0
   -6.0190    1.2282   -0.0230 H   0  0  0  0  0  0  0  0  0  0  0  0
   -5.4123    2.1709    1.3552 H   0  0  0  0  0  0  0  0  0  0  0  0
   -3.5942    1.7744   -1.1180 H   0  0  0  0  0  0  0  0  0  0  0  0
   -2.4684    3.1026    0.6457 H   0  0  0  0  0  0  0  0  0  0  0  0
   -3.9748    4.0013    0.9798 H   0  0  0  0  0  0  0  0  0  0  0  0
   -2.9656    5.5418   -0.5174 H   0  0  0  0  0  0  0  0  0  0  0  0
   -4.6181    5.1781   -2.4567 H   0  0  0  0  0  0  0  0  0  0  0  0
   -0.7266   -5.2676    0.7410 H   0  0  0  0  0  0  0  0  0  0  0  0
   -0.9986   -3.6591    0.0128 H   0  0  0  0  0  0  0  0  0  0  0  0
   -2.3315   -4.4648    0.9136 H   0  0  0  0  0  0  0  0  0  0  0  0
   -0.6383   -5.6143    3.2333 H   0  0  0  0  0  0  0  0  0  0  0  0
   -0.3587   -4.2207    4.3341 H   0  0  0  0  0  0  0  0  0  0  0  0
   -2.0408   -4.5981    3.7730 H   0  0  0  0  0  0  0  0  0  0  0  0
  1  2  1  0
  2  3  1  0
  3  4  1  0
  4  5  1  0
  4  6  1  0
  4  7  1  0
  7  8  1  0
  8  9  1  0
  9 10  2  0
  9 11  1  0
 11 12  1  0
 12 13  1  0
 13 14  2  0
 14 15  1  0
 15 16  2  0
 16 17  1  0
 17 18  2  0
  7 19  1  0
 19 20  2  0
 19 21  1  0
 21 22  1  0
 22 23  1  0
 23 24  1  0
 24 25  1  0
 25 26  1  0
 26 27  2  0
 26 28  1  0
 28 29  1  0
 29 30  1  0
 30 31  3  0
 29 32  1  0
 32 33  1  0
 33 34  1  0
 34 35  1  0
 35 36  1  0
 36 37  1  0
 37 38  2  0
 35 39  1  0
 39 40  2  0
 24 41  1  0
 41 42  1  0
 41 43  1  0
 39  2  1  0
 18 13  1  0
 25 21  1  0
 37 33  1  0
 41 23  1  0
  1 44  1  0
  1 45  1  0
  1 46  1  0
  3 47  1  0
  3 48  1  0
  5 49  1  0
  5 50  1  0
  5 51  1  0
  6 52  1  0
  6 53  1  0
  6 54  1  0
  7 55  1  1
  8 56  1  0
 12 57  1  0
 12 58  1  0
 14 59  1  0
 15 60  1  0
 16 61  1  0
 17 62  1  0
 18 63  1  0
 22 64  1  0
 22 65  1  0
 23 66  1  1
 24 67  1  1
 25 68  1  6
 28 69  1  0
 29 70  1  1
 32 71  1  0
 32 72  1  0
 33 73  1  6
 34 74  1  0
 34 75  1  0
 35 76  1  1
 36 77  1  0
 42 78  1  0
 42 79  1  0
 42 80  1  0
 43 81  1  0
 43 82  1  0
 43 83  1  0
M  END
$$$$
