
     RDKit          3D

 54 57  0  0  0  0  0  0  0  0999 V2000
   -2.8343    2.3964    1.5972 C   0  0  0  0  0  0  0  0  0  0  0  0
   -3.3173    1.7216    0.2979 C   0  0  1  0  0  0  0  0  0  0  0  0
   -2.5273    2.1309   -0.8244 O   0  0  0  0  0  0  0  0  0  0  0  0
   -1.1271    2.1330   -0.9504 C   0  0  0  0  0  0  0  0  0  0  0  0
   -0.2982    1.3533   -0.1308 C   0  0  0  0  0  0  0  0  0  0  0  0
    1.0171    1.0880   -0.5232 C   0  0  0  0  0  0  0  0  0  0  0  0
    1.5548    1.8165   -1.5952 C   0  0  0  0  0  0  0  0  0  0  0  0
    0.7741    2.6780   -2.2952 N   0  0  0  0  0  0  0  0  0  0  0  0
   -0.5450    2.8435   -2.0134 C   0  0  0  0  0  0  0  0  0  0  0  0
   -1.3326    3.7053   -2.8383 N   0  0  0  0  0  0  0  0  0  0  0  0
    1.7965   -0.0160    0.0878 C   0  0  0  0  0  0  0  0  0  0  0  0
    3.1189    0.2600    0.4832 C   0  0  0  0  0  0  0  0  0  0  0  0
    3.9439   -0.7440    0.9958 C   0  0  0  0  0  0  0  0  0  0  0  0
    5.5996   -0.3701    1.4637 S   0  0  0  0  0  6  0  0  0  0  0  0
    6.6460   -0.4357    0.0277 C   0  0  0  0  0  0  0  0  0  0  0  0
    5.6572    1.0049    2.0679 O   0  0  0  0  0  0  0  0  0  0  0  0
    6.0830   -1.3648    2.4817 O   0  0  0  0  0  0  0  0  0  0  0  0
    3.4576   -2.0466    1.1056 C   0  0  0  0  0  0  0  0  0  0  0  0
    2.1501   -2.3433    0.7240 C   0  0  0  0  0  0  0  0  0  0  0  0
    1.2983   -1.3514    0.2008 C   0  0  0  0  0  0  0  0  0  0  0  0
   -0.1417   -1.7682   -0.0924 C   0  0  0  0  0  0  0  0  0  0  0  0
   -0.6908   -1.2335   -1.3554 N   0  0  0  0  0  0  0  0  0  0  0  0
    0.0441   -1.4376   -2.6074 C   0  0  0  0  0  0  0  0  0  0  0  0
   -2.0346   -0.6845   -1.4200 C   0  0  0  0  0  0  0  0  0  0  0  0
   -2.4300   -0.1121   -2.4721 O   0  0  0  0  0  0  0  0  0  0  0  0
   -2.9917   -0.8566   -0.3065 C   0  0  0  0  0  0  0  0  0  0  0  0
   -3.3495   -2.1872   -0.0195 C   0  0  0  0  0  0  0  0  0  0  0  0
   -4.2604   -2.4872    0.9881 C   0  0  0  0  0  0  0  0  0  0  0  0
   -4.8448   -1.4633    1.7214 C   0  0  0  0  0  0  0  0  0  0  0  0
   -5.7458   -1.7551    2.6918 F   0  0  0  0  0  0  0  0  0  0  0  0
   -4.5119   -0.1360    1.4559 C   0  0  0  0  0  0  0  0  0  0  0  0
   -3.5702    0.2107    0.4594 C   0  0  0  0  0  0  0  0  0  0  0  0
   -2.3912    3.3901    1.3739 H   0  0  0  0  0  0  0  0  0  0  0  0
   -2.0868    1.7773    2.1317 H   0  0  0  0  0  0  0  0  0  0  0  0
   -3.6876    2.5612    2.2882 H   0  0  0  0  0  0  0  0  0  0  0  0
   -4.3206    2.1579    0.0970 H   0  0  0  0  0  0  0  0  0  0  0  0
   -0.7110    0.8125    0.7025 H   0  0  0  0  0  0  0  0  0  0  0  0
    2.5784    1.6611   -1.9109 H   0  0  0  0  0  0  0  0  0  0  0  0
   -2.3484    3.8607   -2.6535 H   0  0  0  0  0  0  0  0  0  0  0  0
   -0.8916    4.2069   -3.6410 H   0  0  0  0  0  0  0  0  0  0  0  0
    3.5106    1.2663    0.3908 H   0  0  0  0  0  0  0  0  0  0  0  0
    6.2946    0.3040   -0.7210 H   0  0  0  0  0  0  0  0  0  0  0  0
    7.6906   -0.1996    0.3175 H   0  0  0  0  0  0  0  0  0  0  0  0
    6.6064   -1.4530   -0.4136 H   0  0  0  0  0  0  0  0  0  0  0  0
    4.0883   -2.8365    1.4930 H   0  0  0  0  0  0  0  0  0  0  0  0
    1.8000   -3.3611    0.8456 H   0  0  0  0  0  0  0  0  0  0  0  0
   -0.2236   -2.8760   -0.1381 H   0  0  0  0  0  0  0  0  0  0  0  0
   -0.7490   -1.4578    0.7810 H   0  0  0  0  0  0  0  0  0  0  0  0
    0.2641   -0.4563   -3.0772 H   0  0  0  0  0  0  0  0  0  0  0  0
   -0.5661   -2.0483   -3.3059 H   0  0  0  0  0  0  0  0  0  0  0  0
    1.0030   -1.9695   -2.4318 H   0  0  0  0  0  0  0  0  0  0  0  0
   -2.9221   -3.0043   -0.5895 H   0  0  0  0  0  0  0  0  0  0  0  0
   -4.5213   -3.5179    1.1919 H   0  0  0  0  0  0  0  0  0  0  0  0
   -5.0044    0.6333    2.0370 H   0  0  0  0  0  0  0  0  0  0  0  0
  1  2  1  0
  2  3  1  0
  3  4  1  0
  4  5  1  0
  5  6  2  0
  6  7  1  0
  7  8  2  0
  8  9  1  0
  9 10  1  0
  6 11  1  0
 11 12  2  0
 12 13  1  0
 13 14  1  0
 14 15  1  0
 14 16  2  0
 14 17  2  0
 13 18  2  0
 18 19  1  0
 19 20  2  0
 20 21  1  0
 21 22  1  0
 22 23  1  0
 22 24  1  0
 24 25  2  0
 24 26  1  0
 26 27  2  0
 27 28  1  0
 28 29  2  0
 29 30  1  0
 29 31  1  0
 31 32  2  0
 32  2  1  0
  9  4  2  0
 20 11  1  0
 32 26  1  0
  1 33  1  0
  1 34  1  0
  1 35  1  0
  2 36  1  6
  5 37  1  0
  7 38  1  0
 10 39  1  0
 10 40  1  0
 12 41  1  0
 15 42  1  0
 15 43  1  0
 15 44  1  0
 18 45  1  0
 19 46  1  0
 21 47  1  0
 21 48  1  0
 23 49  1  0
 23 50  1  0
 23 51  1  0
 27 52  1  0
 28 53  1  0
 31 54  1  0
M  END
$$$$
