
     RDKit          3D

 93 95  0  0  0  0  0  0  0  0999 V2000
   -7.9812   -1.3579    4.3792 C   0  0  0  0  0  0  0  0  0  0  0  0
   -7.3291   -0.8489    3.1287 C   0  0  0  0  0  0  0  0  0  0  0  0
   -6.2560    0.0517    3.2147 C   0  0  0  0  0  0  0  0  0  0  0  0
   -5.6654    0.5525    2.0517 C   0  0  0  0  0  0  0  0  0  0  0  0
   -6.1439    0.1664    0.7914 C   0  0  0  0  0  0  0  0  0  0  0  0
   -5.4168    0.8339   -0.6720 S   0  0  0  0  0  6  0  0  0  0  0  0
   -4.8264    2.1787   -0.3500 O   0  0  0  0  0  0  0  0  0  0  0  0
   -6.4995    1.0468   -1.6930 O   0  0  0  0  0  0  0  0  0  0  0  0
   -4.1941   -0.2281   -1.3446 N   0  0  0  0  0  0  0  0  0  0  0  0
   -4.8106   -1.5199   -1.6774 C   0  0  0  0  0  0  0  0  0  0  0  0
   -3.0502   -0.4163   -0.4224 C   0  0  0  0  0  0  0  0  0  0  0  0
   -1.9659    0.6979   -0.6089 C   0  0  2  0  0  0  0  0  0  0  0  0
   -1.1584    0.4529   -1.7595 O   0  0  0  0  0  0  0  0  0  0  0  0
   -1.8720    0.6579   -2.9730 C   0  0  0  0  0  0  0  0  0  0  0  0
   -0.9066    0.6934   -4.1676 C   0  0  0  0  0  0  0  0  0  0  0  0
   -0.3330    2.0890   -4.4709 C   0  0  0  0  0  0  0  0  0  0  0  0
    0.5297    2.6983   -3.3529 C   0  0  0  0  0  0  0  0  0  0  0  0
    1.7766    1.8791   -2.9738 C   0  0  1  0  0  0  0  0  0  0  0  0
    2.7891    1.7804   -4.1201 C   0  0  0  0  0  0  0  0  0  0  0  0
    2.3881    2.5169   -1.8497 O   0  0  0  0  0  0  0  0  0  0  0  0
    3.3325    1.9741   -0.9589 C   0  0  0  0  0  0  0  0  0  0  0  0
    4.3121    2.8533   -0.4846 C   0  0  0  0  0  0  0  0  0  0  0  0
    5.2588    2.4424    0.4506 C   0  0  0  0  0  0  0  0  0  0  0  0
    5.2265    1.1438    0.9657 C   0  0  0  0  0  0  0  0  0  0  0  0
    6.1995    0.7461    1.9475 N   0  0  0  0  0  0  0  0  0  0  0  0
    5.9349   -0.1966    2.9974 C   0  0  0  0  0  0  0  0  0  0  0  0
    4.7493   -0.5034    3.2972 O   0  0  0  0  0  0  0  0  0  0  0  0
    7.0692   -0.8400    3.7426 C   0  0  0  0  0  0  0  0  0  0  0  0
    7.3269   -2.2781    3.2636 C   0  0  0  0  0  0  0  0  0  0  0  0
    7.9019   -2.3585    1.8421 C   0  0  0  0  0  0  0  0  0  0  0  0
    9.0544   -1.5986    1.7442 F   0  0  0  0  0  0  0  0  0  0  0  0
    8.2100   -3.6736    1.5537 F   0  0  0  0  0  0  0  0  0  0  0  0
    6.9828   -1.9086    0.9150 F   0  0  0  0  0  0  0  0  0  0  0  0
    4.2656    0.2411    0.4822 C   0  0  0  0  0  0  0  0  0  0  0  0
    3.3091    0.6412   -0.4621 C   0  0  0  0  0  0  0  0  0  0  0  0
    2.3143   -0.3727   -0.8649 C   0  0  0  0  0  0  0  0  0  0  0  0
    2.6735   -1.2200   -1.7268 O   0  0  0  0  0  0  0  0  0  0  0  0
    1.0003   -0.4605   -0.2450 N   0  0  0  0  0  0  0  0  0  0  0  0
    0.4758   -1.7935    0.1321 C   0  0  2  0  0  0  0  0  0  0  0  0
    1.2914   -2.3717    1.2974 C   0  0  0  0  0  0  0  0  0  0  0  0
    0.4103   -2.7908   -1.0458 C   0  0  0  0  0  0  0  0  0  0  0  0
   -0.1588   -2.1839   -2.1726 O   0  0  0  0  0  0  0  0  0  0  0  0
    0.5032    0.7607    0.4361 C   0  0  0  0  0  0  0  0  0  0  0  0
   -1.0365    0.9277    0.6518 C   0  0  2  0  0  0  0  0  0  0  0  0
   -1.5081    0.3569    2.0153 C   0  0  0  0  0  0  0  0  0  0  0  0
   -7.2256   -0.7218    0.7031 C   0  0  0  0  0  0  0  0  0  0  0  0
   -7.8195   -1.2229    1.8661 C   0  0  0  0  0  0  0  0  0  0  0  0
   -7.2065   -1.6393    5.1237 H   0  0  0  0  0  0  0  0  0  0  0  0
   -8.6014   -2.2544    4.1700 H   0  0  0  0  0  0  0  0  0  0  0  0
   -8.6296   -0.5650    4.8056 H   0  0  0  0  0  0  0  0  0  0  0  0
   -5.8815    0.3687    4.1824 H   0  0  0  0  0  0  0  0  0  0  0  0
   -4.8416    1.2497    2.1353 H   0  0  0  0  0  0  0  0  0  0  0  0
   -4.0880   -2.1530   -2.2361 H   0  0  0  0  0  0  0  0  0  0  0  0
   -5.1234   -2.0644   -0.7594 H   0  0  0  0  0  0  0  0  0  0  0  0
   -5.6914   -1.3714   -2.3379 H   0  0  0  0  0  0  0  0  0  0  0  0
   -3.4395   -0.4632    0.6128 H   0  0  0  0  0  0  0  0  0  0  0  0
   -2.5543   -1.3954   -0.6099 H   0  0  0  0  0  0  0  0  0  0  0  0
   -2.5010    1.6644   -0.7410 H   0  0  0  0  0  0  0  0  0  0  0  0
   -2.4846    1.5891   -2.9587 H   0  0  0  0  0  0  0  0  0  0  0  0
   -2.5391   -0.2126   -3.1494 H   0  0  0  0  0  0  0  0  0  0  0  0
   -0.1005   -0.0580   -4.0408 H   0  0  0  0  0  0  0  0  0  0  0  0
   -1.4748    0.3765   -5.0693 H   0  0  0  0  0  0  0  0  0  0  0  0
    0.2590    2.0425   -5.4099 H   0  0  0  0  0  0  0  0  0  0  0  0
   -1.1768    2.7858   -4.6719 H   0  0  0  0  0  0  0  0  0  0  0  0
    0.8472    3.7164   -3.6677 H   0  0  0  0  0  0  0  0  0  0  0  0
   -0.1011    2.8284   -2.4458 H   0  0  0  0  0  0  0  0  0  0  0  0
    1.4344    0.8719   -2.7175 H   0  0  0  0  0  0  0  0  0  0  0  0
    2.3797    1.1816   -4.9602 H   0  0  0  0  0  0  0  0  0  0  0  0
    3.0655    2.7932   -4.4830 H   0  0  0  0  0  0  0  0  0  0  0  0
    3.7095    1.2709   -3.7639 H   0  0  0  0  0  0  0  0  0  0  0  0
    4.3334    3.8718   -0.8442 H   0  0  0  0  0  0  0  0  0  0  0  0
    5.9993    3.1506    0.8028 H   0  0  0  0  0  0  0  0  0  0  0  0
    7.1260    1.2320    1.9471 H   0  0  0  0  0  0  0  0  0  0  0  0
    6.8096   -0.8698    4.8249 H   0  0  0  0  0  0  0  0  0  0  0  0
    7.9952   -0.2289    3.6479 H   0  0  0  0  0  0  0  0  0  0  0  0
    6.3878   -2.8658    3.3143 H   0  0  0  0  0  0  0  0  0  0  0  0
    8.0506   -2.7549    3.9599 H   0  0  0  0  0  0  0  0  0  0  0  0
    4.2661   -0.7846    0.8346 H   0  0  0  0  0  0  0  0  0  0  0  0
   -0.5671   -1.7046    0.4712 H   0  0  0  0  0  0  0  0  0  0  0  0
    2.3598   -2.4958    1.0053 H   0  0  0  0  0  0  0  0  0  0  0  0
    0.8868   -3.3634    1.5956 H   0  0  0  0  0  0  0  0  0  0  0  0
    1.2331   -1.6848    2.1721 H   0  0  0  0  0  0  0  0  0  0  0  0
   -0.2231   -3.6574   -0.7492 H   0  0  0  0  0  0  0  0  0  0  0  0
    1.4186   -3.2004   -1.2803 H   0  0  0  0  0  0  0  0  0  0  0  0
   -0.0117   -2.8033   -2.9345 H   0  0  0  0  0  0  0  0  0  0  0  0
    1.0357    0.8626    1.4059 H   0  0  0  0  0  0  0  0  0  0  0  0
    0.8027    1.6441   -0.1586 H   0  0  0  0  0  0  0  0  0  0  0  0
   -1.1250    2.0263    0.8465 H   0  0  0  0  0  0  0  0  0  0  0  0
   -1.6377   -0.7421    2.0155 H   0  0  0  0  0  0  0  0  0  0  0  0
   -0.7798    0.6063    2.8234 H   0  0  0  0  0  0  0  0  0  0  0  0
   -2.4784    0.8196    2.3059 H   0  0  0  0  0  0  0  0  0  0  0  0
   -7.6115   -1.0219   -0.2663 H   0  0  0  0  0  0  0  0  0  0  0  0
   -8.6586   -1.9043    1.7799 H   0  0  0  0  0  0  0  0  0  0  0  0
  1  2  1  0
  2  3  2  0
  3  4  1  0
  4  5  2  0
  5  6  1  0
  6  7  2  0
  6  8  2  0
  6  9  1  0
  9 10  1  0
  9 11  1  0
 11 12  1  0
 12 13  1  0
 13 14  1  0
 14 15  1  0
 15 16  1  0
 16 17  1  0
 17 18  1  0
 18 19  1  0
 18 20  1  0
 20 21  1  0
 21 22  2  0
 22 23  1  0
 23 24  2  0
 24 25  1  0
 25 26  1  0
 26 27  2  0
 26 28  1  0
 28 29  1  0
 29 30  1  0
 30 31  1  0
 30 32  1  0
 30 33  1  0
 24 34  1  0
 34 35  2  0
 35 36  1  0
 36 37  2  0
 36 38  1  0
 38 39  1  0
 39 40  1  0
 39 41  1  0
 41 42  1  0
 38 43  1  0
 43 44  1  0
 44 45  1  0
  5 46  1  0
 46 47  2  0
 47  2  1  0
 44 12  1  0
 35 21  1  0
  1 48  1  0
  1 49  1  0
  1 50  1  0
  3 51  1  0
  4 52  1  0
 10 53  1  0
 10 54  1  0
 10 55  1  0
 11 56  1  0
 11 57  1  0
 12 58  1  6
 14 59  1  0
 14 60  1  0
 15 61  1  0
 15 62  1  0
 16 63  1  0
 16 64  1  0
 17 65  1  0
 17 66  1  0
 18 67  1  1
 19 68  1  0
 19 69  1  0
 19 70  1  0
 22 71  1  0
 23 72  1  0
 25 73  1  0
 28 74  1  0
 28 75  1  0
 29 76  1  0
 29 77  1  0
 34 78  1  0
 39 79  1  1
 40 80  1  0
 40 81  1  0
 40 82  1  0
 41 83  1  0
 41 84  1  0
 42 85  1  0
 43 86  1  0
 43 87  1  0
 44 88  1  1
 45 89  1  0
 45 90  1  0
 45 91  1  0
 46 92  1  0
 47 93  1  0
M  END
$$$$
