
     RDKit          3D

163167  0  0  0  0  0  0  0  0999 V2000
   -4.4403   -6.5128    1.6366 C   0  0  0  0  0  0  0  0  0  0  0  0
   -5.5355   -5.6183    1.6640 O   0  0  0  0  0  0  0  0  0  0  0  0
   -5.6826   -4.8390    0.4737 C   0  0  2  0  0  0  0  0  0  0  0  0
   -5.7672   -5.7280   -0.7975 C   0  0  0  0  0  0  0  0  0  0  0  0
   -4.5047   -3.8210    0.3625 C   0  0  0  0  0  0  0  0  0  0  0  0
   -4.9191   -2.4725   -0.2710 C   0  0  2  0  0  0  0  0  0  0  0  0
   -3.8042   -1.5975   -0.1791 O   0  0  0  0  0  0  0  0  0  0  0  0
   -3.5317   -0.8639   -1.3647 C   0  0  1  0  0  0  0  0  0  0  0  0
   -3.3093    0.6680   -1.0183 C   0  0  2  0  0  0  0  0  0  0  0  0
   -2.0461    1.3843   -1.5190 C   0  0  0  0  0  0  0  0  0  0  0  0
   -3.7562    1.1687    0.4122 C   0  0  1  0  0  0  0  0  0  0  0  0
   -5.1499    0.9065    0.5725 O   0  0  0  0  0  0  0  0  0  0  0  0
   -5.9777    1.9471    0.0627 C   0  0  2  0  0  0  0  0  0  0  0  0
   -6.2990    2.8419    1.1174 O   0  0  0  0  0  0  0  0  0  0  0  0
   -7.0621    3.9370    0.6269 C   0  0  2  0  0  0  0  0  0  0  0  0
   -7.2652    4.9433    1.7617 C   0  0  0  0  0  0  0  0  0  0  0  0
   -8.4254    3.4596    0.0857 C   0  0  0  0  0  0  0  0  0  0  0  0
   -8.2021    2.4016   -1.0189 C   0  0  2  0  0  0  0  0  0  0  0  0
   -9.4487    1.8143   -1.5831 N   0  0  0  0  0  0  0  0  0  0  0  0
  -10.0471    2.6915   -2.6042 C   0  0  0  0  0  0  0  0  0  0  0  0
  -10.4612    1.4301   -0.5840 C   0  0  0  0  0  0  0  0  0  0  0  0
   -7.2609    1.3026   -0.4925 C   0  0  1  0  0  0  0  0  0  0  0  0
   -6.9244    0.4169   -1.5318 O   0  0  0  0  0  0  0  0  0  0  0  0
   -2.9787    0.6925    1.7307 C   0  0  2  0  0  0  0  0  0  0  0  0
   -1.7088   -0.1799    1.5373 C   0  0  0  0  0  0  0  0  0  0  0  0
   -3.8612   -0.0369    2.5531 O   0  0  0  0  0  0  0  0  0  0  0  0
   -2.5837    1.9408    2.5857 C   0  0  0  0  0  0  0  0  0  0  0  0
   -1.4341    2.8296    2.0126 C   0  0  1  0  0  0  0  0  0  0  0  0
   -1.8686    4.3049    1.9576 C   0  0  0  0  0  0  0  0  0  0  0  0
   -0.1479    2.6769    2.8616 C   0  0  0  0  0  0  0  0  0  0  0  0
    0.9899    3.4254    2.2886 N   0  0  0  0  0  0  0  0  0  0  0  0
    1.4367    4.6583    2.9502 C   0  0  0  0  0  0  0  0  0  0  0  0
    1.7014    3.0002    1.1010 C   0  0  0  0  0  0  0  0  0  0  0  0
    2.3370    3.8598    0.4298 O   0  0  0  0  0  0  0  0  0  0  0  0
    1.6830    1.5705    0.6038 C   0  0  0  0  0  0  0  0  0  0  0  0
    3.0574    1.0825    0.0878 C   0  0  1  0  0  0  0  0  0  0  0  0
    4.0580    0.8714    1.2454 C   0  0  0  0  0  0  0  0  0  0  0  0
    5.4801    0.7275    0.7532 C   0  0  0  0  0  0  0  0  0  0  0  0
    6.2759    1.8684    0.5626 C   0  0  0  0  0  0  0  0  0  0  0  0
    7.6173    1.7426    0.1883 C   0  0  0  0  0  0  0  0  0  0  0  0
    8.1816    0.4718   -0.0086 C   0  0  0  0  0  0  0  0  0  0  0  0
    9.5704    0.3148   -0.3454 N   0  0  0  0  0  0  0  0  0  0  0  0
   10.6329    1.0298    0.3081 C   0  0  0  0  0  0  0  0  0  0  0  0
   10.3727    1.9219    1.1592 O   0  0  0  0  0  0  0  0  0  0  0  0
   12.0675    0.6231    0.0832 C   0  0  2  0  0  0  0  0  0  0  0  0
   12.5501   -0.3348    1.1905 C   0  0  0  0  0  0  0  0  0  0  0  0
   11.8074   -1.6521    1.1569 C   0  0  0  0  0  0  0  0  0  0  0  0
   12.1798   -2.6119    0.2014 C   0  0  0  0  0  0  0  0  0  0  0  0
   11.4793   -3.8140    0.0896 C   0  0  0  0  0  0  0  0  0  0  0  0
   10.3950   -4.0733    0.9279 C   0  0  0  0  0  0  0  0  0  0  0  0
   10.0125   -3.1304    1.8845 C   0  0  0  0  0  0  0  0  0  0  0  0
   10.7064   -1.9197    2.0039 C   0  0  0  0  0  0  0  0  0  0  0  0
   10.1560   -0.7733    3.2213 Cl  0  0  0  0  0  0  0  0  0  0  0  0
   12.9190    1.8186    0.0423 N   0  0  0  0  0  0  0  0  0  0  0  0
   13.0544    2.6220   -1.1386 C   0  0  0  0  0  0  0  0  0  0  0  0
   13.8255    3.9011   -1.0877 C   0  0  0  0  0  0  0  0  0  0  0  0
   12.5059    2.2697   -2.2196 O   0  0  0  0  0  0  0  0  0  0  0  0
    7.3655   -0.6626    0.1039 C   0  0  0  0  0  0  0  0  0  0  0  0
    6.0256   -0.5398    0.4880 C   0  0  0  0  0  0  0  0  0  0  0  0
    2.9011   -0.1417   -0.7110 N   0  0  0  0  0  0  0  0  0  0  0  0
    2.1403   -1.2827   -0.2876 C   0  0  0  0  0  0  0  0  0  0  0  0
    2.0626   -1.5480    0.9389 O   0  0  0  0  0  0  0  0  0  0  0  0
    1.3123   -2.1205   -1.2432 C   0  0  2  0  0  0  0  0  0  0  0  0
    2.0052   -2.5728   -2.5636 C   0  0  0  0  0  0  0  0  0  0  0  0
    3.3269   -3.3141   -2.2923 C   0  0  0  0  0  0  0  0  0  0  0  0
    2.2008   -1.4745   -3.6363 C   0  0  0  0  0  0  0  0  0  0  0  0
    0.0385   -1.4422   -1.5205 N   0  0  0  0  0  0  0  0  0  0  0  0
   -1.2345   -2.1063   -1.4249 C   0  0  0  0  0  0  0  0  0  0  0  0
   -1.3344   -3.1375   -0.7066 O   0  0  0  0  0  0  0  0  0  0  0  0
   -2.4616   -1.6493   -2.2018 C   0  0  2  0  0  0  0  0  0  0  0  0
   -2.1437   -1.0874   -3.5991 C   0  0  0  0  0  0  0  0  0  0  0  0
   -6.0288   -1.8309    0.3543 O   0  0  0  0  0  0  0  0  0  0  0  0
   -6.7899   -2.6541    1.2251 C   0  0  1  0  0  0  0  0  0  0  0  0
   -8.1111   -1.9356    1.5233 C   0  0  0  0  0  0  0  0  0  0  0  0
   -7.0312   -4.0520    0.5995 C   0  0  2  0  0  0  0  0  0  0  0  0
   -7.9905   -4.7995    1.3106 O   0  0  0  0  0  0  0  0  0  0  0  0
   -4.6735   -7.4029    1.0112 H   0  0  0  0  0  0  0  0  0  0  0  0
   -4.2593   -6.8832    2.6688 H   0  0  0  0  0  0  0  0  0  0  0  0
   -3.4946   -6.0416    1.2916 H   0  0  0  0  0  0  0  0  0  0  0  0
   -6.0076   -5.1141   -1.6942 H   0  0  0  0  0  0  0  0  0  0  0  0
   -4.8070   -6.2422   -1.0053 H   0  0  0  0  0  0  0  0  0  0  0  0
   -6.5615   -6.4949   -0.6751 H   0  0  0  0  0  0  0  0  0  0  0  0
   -4.0948   -3.6111    1.3751 H   0  0  0  0  0  0  0  0  0  0  0  0
   -3.6758   -4.2532   -0.2349 H   0  0  0  0  0  0  0  0  0  0  0  0
   -5.2079   -2.7079   -1.3209 H   0  0  0  0  0  0  0  0  0  0  0  0
   -4.4328   -0.8558   -2.0308 H   0  0  0  0  0  0  0  0  0  0  0  0
   -4.0452    1.1613   -1.6944 H   0  0  0  0  0  0  0  0  0  0  0  0
   -2.1181    2.4774   -1.3198 H   0  0  0  0  0  0  0  0  0  0  0  0
   -1.9508    1.3230   -2.6151 H   0  0  0  0  0  0  0  0  0  0  0  0
   -1.1407    1.0311   -1.0271 H   0  0  0  0  0  0  0  0  0  0  0  0
   -3.5969    2.2757    0.3744 H   0  0  0  0  0  0  0  0  0  0  0  0
   -5.4909    2.5062   -0.7741 H   0  0  0  0  0  0  0  0  0  0  0  0
   -6.5073    4.4686   -0.1825 H   0  0  0  0  0  0  0  0  0  0  0  0
   -7.9251    5.7703    1.4340 H   0  0  0  0  0  0  0  0  0  0  0  0
   -7.7194    4.4490    2.6445 H   0  0  0  0  0  0  0  0  0  0  0  0
   -6.2862    5.3747    2.0596 H   0  0  0  0  0  0  0  0  0  0  0  0
   -8.9802    4.3267   -0.3379 H   0  0  0  0  0  0  0  0  0  0  0  0
   -9.0121    3.0343    0.9263 H   0  0  0  0  0  0  0  0  0  0  0  0
   -7.6438    2.9101   -1.8409 H   0  0  0  0  0  0  0  0  0  0  0  0
  -10.9255    2.1910   -3.0646 H   0  0  0  0  0  0  0  0  0  0  0  0
  -10.3751    3.6577   -2.1650 H   0  0  0  0  0  0  0  0  0  0  0  0
   -9.3202    2.8877   -3.4205 H   0  0  0  0  0  0  0  0  0  0  0  0
  -11.2224    0.7751   -1.0609 H   0  0  0  0  0  0  0  0  0  0  0  0
  -10.9832    2.3213   -0.1648 H   0  0  0  0  0  0  0  0  0  0  0  0
  -10.0109    0.8484    0.2447 H   0  0  0  0  0  0  0  0  0  0  0  0
   -7.7440    0.7478    0.3406 H   0  0  0  0  0  0  0  0  0  0  0  0
   -7.6293   -0.2790   -1.5567 H   0  0  0  0  0  0  0  0  0  0  0  0
   -1.9321   -1.1767    1.1260 H   0  0  0  0  0  0  0  0  0  0  0  0
   -1.2409   -0.3705    2.5286 H   0  0  0  0  0  0  0  0  0  0  0  0
   -0.9368    0.2952    0.9224 H   0  0  0  0  0  0  0  0  0  0  0  0
   -4.0870   -0.8922    2.1100 H   0  0  0  0  0  0  0  0  0  0  0  0
   -2.3181    1.6007    3.6119 H   0  0  0  0  0  0  0  0  0  0  0  0
   -3.5057    2.5491    2.7428 H   0  0  0  0  0  0  0  0  0  0  0  0
   -1.2105    2.5365    0.9682 H   0  0  0  0  0  0  0  0  0  0  0  0
   -1.1005    4.9193    1.4412 H   0  0  0  0  0  0  0  0  0  0  0  0
   -2.0201    4.7063    2.9836 H   0  0  0  0  0  0  0  0  0  0  0  0
   -2.8208    4.4142    1.3939 H   0  0  0  0  0  0  0  0  0  0  0  0
   -0.3659    3.0367    3.8892 H   0  0  0  0  0  0  0  0  0  0  0  0
    0.1181    1.6134    2.9893 H   0  0  0  0  0  0  0  0  0  0  0  0
    2.4860    4.5396    3.2933 H   0  0  0  0  0  0  0  0  0  0  0  0
    1.3787    5.5090    2.2362 H   0  0  0  0  0  0  0  0  0  0  0  0
    0.8032    4.9148    3.8221 H   0  0  0  0  0  0  0  0  0  0  0  0
    1.3514    0.8801    1.3985 H   0  0  0  0  0  0  0  0  0  0  0  0
    0.9536    1.5207   -0.2270 H   0  0  0  0  0  0  0  0  0  0  0  0
    3.4743    1.8726   -0.5833 H   0  0  0  0  0  0  0  0  0  0  0  0
    3.7806   -0.0151    1.8529 H   0  0  0  0  0  0  0  0  0  0  0  0
    4.0138    1.7396    1.9382 H   0  0  0  0  0  0  0  0  0  0  0  0
    5.8625    2.8575    0.7284 H   0  0  0  0  0  0  0  0  0  0  0  0
    8.2102    2.6392    0.0425 H   0  0  0  0  0  0  0  0  0  0  0  0
    9.8331   -0.4964   -0.9481 H   0  0  0  0  0  0  0  0  0  0  0  0
   12.1540    0.0947   -0.8913 H   0  0  0  0  0  0  0  0  0  0  0  0
   13.6354   -0.5331    1.0430 H   0  0  0  0  0  0  0  0  0  0  0  0
   12.4655    0.1535    2.1834 H   0  0  0  0  0  0  0  0  0  0  0  0
   13.0103   -2.4244   -0.4694 H   0  0  0  0  0  0  0  0  0  0  0  0
   11.7725   -4.5453   -0.6535 H   0  0  0  0  0  0  0  0  0  0  0  0
    9.8458   -5.0014    0.8335 H   0  0  0  0  0  0  0  0  0  0  0  0
    9.1671   -3.3374    2.5266 H   0  0  0  0  0  0  0  0  0  0  0  0
   13.3543    2.1645    0.9288 H   0  0  0  0  0  0  0  0  0  0  0  0
   14.0696    4.2473   -2.1152 H   0  0  0  0  0  0  0  0  0  0  0  0
   13.2186    4.6781   -0.5776 H   0  0  0  0  0  0  0  0  0  0  0  0
   14.7701    3.7490   -0.5281 H   0  0  0  0  0  0  0  0  0  0  0  0
    7.7776   -1.6488   -0.0689 H   0  0  0  0  0  0  0  0  0  0  0  0
    5.4180   -1.4278    0.5987 H   0  0  0  0  0  0  0  0  0  0  0  0
    3.2840   -0.1119   -1.6798 H   0  0  0  0  0  0  0  0  0  0  0  0
    1.0995   -3.0658   -0.6971 H   0  0  0  0  0  0  0  0  0  0  0  0
    1.3187   -3.3232   -3.0141 H   0  0  0  0  0  0  0  0  0  0  0  0
    3.1401   -4.1802   -1.6212 H   0  0  0  0  0  0  0  0  0  0  0  0
    3.7472   -3.6996   -3.2440 H   0  0  0  0  0  0  0  0  0  0  0  0
    4.0624   -2.6423   -1.8134 H   0  0  0  0  0  0  0  0  0  0  0  0
    3.2506   -1.1229   -3.6825 H   0  0  0  0  0  0  0  0  0  0  0  0
    1.9511   -1.8850   -4.6427 H   0  0  0  0  0  0  0  0  0  0  0  0
    1.5471   -0.5941   -3.4797 H   0  0  0  0  0  0  0  0  0  0  0  0
    0.0895   -0.4557   -1.8495 H   0  0  0  0  0  0  0  0  0  0  0  0
   -2.9850   -2.6047   -2.4373 H   0  0  0  0  0  0  0  0  0  0  0  0
   -3.0117   -0.5225   -4.0036 H   0  0  0  0  0  0  0  0  0  0  0  0
   -1.2472   -0.4474   -3.6159 H   0  0  0  0  0  0  0  0  0  0  0  0
   -1.9268   -1.9300   -4.2950 H   0  0  0  0  0  0  0  0  0  0  0  0
   -6.2481   -2.7592    2.1932 H   0  0  0  0  0  0  0  0  0  0  0  0
   -8.7396   -2.5294    2.2188 H   0  0  0  0  0  0  0  0  0  0  0  0
   -7.8966   -0.9609    2.0101 H   0  0  0  0  0  0  0  0  0  0  0  0
   -8.6715   -1.7503    0.5822 H   0  0  0  0  0  0  0  0  0  0  0  0
   -7.4569   -3.8608   -0.4122 H   0  0  0  0  0  0  0  0  0  0  0  0
   -7.7534   -4.7750    2.2738 H   0  0  0  0  0  0  0  0  0  0  0  0
  1  2  1  0
  3  2  1  1
  3  4  1  0
  3  5  1  0
  5  6  1  0
  6  7  1  0
  7  8  1  0
  8  9  1  0
  9 10  1  0
  9 11  1  0
 11 12  1  0
 12 13  1  0
 13 14  1  0
 14 15  1  0
 15 16  1  0
 15 17  1  0
 17 18  1  0
 18 19  1  0
 19 20  1  0
 19 21  1  0
 18 22  1  0
 22 23  1  0
 11 24  1  0
 24 25  1  0
 24 26  1  1
 24 27  1  0
 27 28  1  0
 28 29  1  0
 28 30  1  0
 30 31  1  0
 31 32  1  0
 31 33  1  0
 33 34  2  0
 33 35  1  0
 35 36  1  0
 36 37  1  0
 37 38  1  0
 38 39  2  0
 39 40  1  0
 40 41  2  0
 41 42  1  0
 42 43  1  0
 43 44  2  0
 43 45  1  0
 45 46  1  0
 46 47  1  0
 47 48  2  0
 48 49  1  0
 49 50  2  0
 50 51  1  0
 51 52  2  0
 52 53  1  0
 45 54  1  0
 54 55  1  0
 55 56  1  0
 55 57  2  0
 41 58  1  0
 58 59  2  0
 36 60  1  0
 60 61  1  0
 61 62  2  0
 61 63  1  0
 63 64  1  0
 64 65  1  0
 64 66  1  0
 63 67  1  0
 67 68  1  0
 68 69  2  0
 68 70  1  0
 70 71  1  0
  6 72  1  0
 72 73  1  0
 73 74  1  0
 73 75  1  0
 75 76  1  0
 75  3  1  0
 70  8  1  0
 22 13  1  0
 59 38  1  0
 52 47  1  0
  1 77  1  0
  1 78  1  0
  1 79  1  0
  4 80  1  0
  4 81  1  0
  4 82  1  0
  5 83  1  0
  5 84  1  0
  6 85  1  6
  8 86  1  6
  9 87  1  6
 10 88  1  0
 10 89  1  0
 10 90  1  0
 11 91  1  6
 13 92  1  6
 15 93  1  6
 16 94  1  0
 16 95  1  0
 16 96  1  0
 17 97  1  0
 17 98  1  0
 18 99  1  6
 20100  1  0
 20101  1  0
 20102  1  0
 21103  1  0
 21104  1  0
 21105  1  0
 22106  1  1
 23107  1  0
 25108  1  0
 25109  1  0
 25110  1  0
 26111  1  0
 27112  1  0
 27113  1  0
 28114  1  6
 29115  1  0
 29116  1  0
 29117  1  0
 30118  1  0
 30119  1  0
 32120  1  0
 32121  1  0
 32122  1  0
 35123  1  0
 35124  1  0
 36125  1  6
 37126  1  0
 37127  1  0
 39128  1  0
 40129  1  0
 42130  1  0
 45131  1  6
 46132  1  0
 46133  1  0
 48134  1  0
 49135  1  0
 50136  1  0
 51137  1  0
 54138  1  0
 56139  1  0
 56140  1  0
 56141  1  0
 58142  1  0
 59143  1  0
 60144  1  0
 63145  1  1
 64146  1  0
 65147  1  0
 65148  1  0
 65149  1  0
 66150  1  0
 66151  1  0
 66152  1  0
 67153  1  0
 70154  1  6
 71155  1  0
 71156  1  0
 71157  1  0
 73158  1  1
 74159  1  0
 74160  1  0
 74161  1  0
 75162  1  6
 76163  1  0
M  END
$$$$
