
     RDKit          3D

 93 96  0  0  0  0  0  0  0  0999 V2000
   -3.9667    5.2466   -0.0108 C   0  0  0  0  0  0  0  0  0  0  0  0
   -4.6981    5.1140    1.3229 C   0  0  0  0  0  0  0  0  0  0  0  0
   -5.0680    3.6581    1.6475 C   0  0  0  0  0  0  0  0  0  0  0  0
   -6.3701    3.0132    0.5900 S   0  0  0  0  0  6  0  0  0  0  0  0
   -7.3726    4.0972    0.2990 O   0  0  0  0  0  0  0  0  0  0  0  0
   -7.0707    1.8980    1.3151 O   0  0  0  0  0  0  0  0  0  0  0  0
   -5.6832    2.4058   -0.8878 N   0  0  0  0  0  0  0  0  0  0  0  0
   -6.0912    2.9313   -2.1950 C   0  0  0  0  0  0  0  0  0  0  0  0
   -4.8014    1.2771   -0.8417 C   0  0  0  0  0  0  0  0  0  0  0  0
   -5.2921    0.0241   -0.4621 C   0  0  0  0  0  0  0  0  0  0  0  0
   -4.4434   -1.0866   -0.4046 C   0  0  0  0  0  0  0  0  0  0  0  0
   -3.0963   -0.9527   -0.7816 C   0  0  0  0  0  0  0  0  0  0  0  0
   -2.5803    0.3019   -1.1662 C   0  0  0  0  0  0  0  0  0  0  0  0
   -3.4516    1.4139   -1.1923 C   0  0  0  0  0  0  0  0  0  0  0  0
   -1.1537    0.4623   -1.5647 C   0  0  0  0  0  0  0  0  0  0  0  0
   -0.7140    1.6012   -1.8797 O   0  0  0  0  0  0  0  0  0  0  0  0
   -0.2618   -0.6563   -1.6264 N   0  0  0  0  0  0  0  0  0  0  0  0
    0.3580   -1.2333   -0.4240 C   0  0  2  0  0  0  0  0  0  0  0  0
    1.4145   -0.2755    0.1843 C   0  0  2  0  0  0  0  0  0  0  0  0
    0.7564    0.8221    0.7629 O   0  0  0  0  0  0  0  0  0  0  0  0
    2.4522    0.2279   -0.8451 C   0  0  0  0  0  0  0  0  0  0  0  0
    3.5835    0.8552   -0.1508 N   0  0  0  0  0  0  0  0  0  0  0  0
    4.4625    1.5392   -1.1054 C   0  0  0  0  0  0  0  0  0  0  0  0
    5.6226    2.1645   -0.3759 C   0  0  0  0  0  0  0  0  0  0  0  0
    5.4403    3.3495    0.3519 C   0  0  0  0  0  0  0  0  0  0  0  0
    6.5085    3.9161    1.0526 C   0  0  0  0  0  0  0  0  0  0  0  0
    7.7687    3.3081    1.0322 C   0  0  0  0  0  0  0  0  0  0  0  0
    7.9681    2.1101    0.3176 C   0  0  0  0  0  0  0  0  0  0  0  0
    9.3272    1.4356    0.2781 C   0  0  0  0  0  0  0  0  0  0  0  0
    9.8037    1.0509    1.6819 C   0  0  0  0  0  0  0  0  0  0  0  0
   10.3602    2.3205   -0.4258 C   0  0  0  0  0  0  0  0  0  0  0  0
    6.8833    1.5453   -0.3803 C   0  0  0  0  0  0  0  0  0  0  0  0
    0.9752   -2.6209   -0.7346 C   0  0  0  0  0  0  0  0  0  0  0  0
   -0.0806   -3.6532   -1.0426 C   0  0  0  0  0  0  0  0  0  0  0  0
   -0.4575   -3.9106   -2.3703 C   0  0  0  0  0  0  0  0  0  0  0  0
   -1.3955   -4.9063   -2.6563 C   0  0  0  0  0  0  0  0  0  0  0  0
   -1.9691   -5.6471   -1.6213 C   0  0  0  0  0  0  0  0  0  0  0  0
   -1.6330   -5.3800   -0.2885 C   0  0  0  0  0  0  0  0  0  0  0  0
   -0.6832   -4.3802   -0.0029 C   0  0  0  0  0  0  0  0  0  0  0  0
   -2.2425   -6.1445    0.7180 O   0  0  0  0  0  0  0  0  0  0  0  0
   -2.6336   -5.6372    1.9980 C   0  0  0  0  0  0  0  0  0  0  0  0
   -4.1575   -5.4836    2.0736 C   0  0  0  0  0  0  0  0  0  0  0  0
   -4.7454   -4.6075    0.9519 C   0  0  0  0  0  0  0  0  0  0  0  0
   -4.3446   -3.1315    1.0767 C   0  0  0  0  0  0  0  0  0  0  0  0
   -4.9741   -2.3521    0.0121 N   0  0  0  0  0  0  0  0  0  0  0  0
   -3.0810    4.5744   -0.0355 H   0  0  0  0  0  0  0  0  0  0  0  0
   -4.6443    4.9862   -0.8527 H   0  0  0  0  0  0  0  0  0  0  0  0
   -3.6200    6.2952   -0.1438 H   0  0  0  0  0  0  0  0  0  0  0  0
   -4.0238    5.4960    2.1261 H   0  0  0  0  0  0  0  0  0  0  0  0
   -5.6127    5.7487    1.3172 H   0  0  0  0  0  0  0  0  0  0  0  0
   -4.1756    3.0038    1.5725 H   0  0  0  0  0  0  0  0  0  0  0  0
   -5.4200    3.6115    2.6963 H   0  0  0  0  0  0  0  0  0  0  0  0
   -6.7923    3.7800   -2.0895 H   0  0  0  0  0  0  0  0  0  0  0  0
   -5.1972    3.2857   -2.7525 H   0  0  0  0  0  0  0  0  0  0  0  0
   -6.5902    2.1266   -2.7842 H   0  0  0  0  0  0  0  0  0  0  0  0
   -6.3389   -0.0868   -0.2037 H   0  0  0  0  0  0  0  0  0  0  0  0
   -2.4623   -1.8287   -0.7883 H   0  0  0  0  0  0  0  0  0  0  0  0
   -3.0868    2.3943   -1.4769 H   0  0  0  0  0  0  0  0  0  0  0  0
    0.1245   -0.9063   -2.5713 H   0  0  0  0  0  0  0  0  0  0  0  0
   -0.4264   -1.3872    0.3481 H   0  0  0  0  0  0  0  0  0  0  0  0
    1.9490   -0.8368    0.9903 H   0  0  0  0  0  0  0  0  0  0  0  0
    1.3933    1.2427    1.3988 H   0  0  0  0  0  0  0  0  0  0  0  0
    2.8246   -0.6149   -1.4673 H   0  0  0  0  0  0  0  0  0  0  0  0
    1.9670    0.9687   -1.5209 H   0  0  0  0  0  0  0  0  0  0  0  0
    4.1393    0.0942    0.3044 H   0  0  0  0  0  0  0  0  0  0  0  0
    3.8972    2.3403   -1.6282 H   0  0  0  0  0  0  0  0  0  0  0  0
    4.8331    0.8275   -1.8799 H   0  0  0  0  0  0  0  0  0  0  0  0
    4.4708    3.8402    0.3664 H   0  0  0  0  0  0  0  0  0  0  0  0
    6.3579    4.8322    1.6090 H   0  0  0  0  0  0  0  0  0  0  0  0
    8.5835    3.7714    1.5776 H   0  0  0  0  0  0  0  0  0  0  0  0
    9.2575    0.4912   -0.3062 H   0  0  0  0  0  0  0  0  0  0  0  0
   10.0008    1.9517    2.3008 H   0  0  0  0  0  0  0  0  0  0  0  0
   10.7409    0.4590    1.6110 H   0  0  0  0  0  0  0  0  0  0  0  0
    9.0375    0.4287    2.1908 H   0  0  0  0  0  0  0  0  0  0  0  0
   11.3273    1.7766   -0.5089 H   0  0  0  0  0  0  0  0  0  0  0  0
   10.0121    2.5749   -1.4521 H   0  0  0  0  0  0  0  0  0  0  0  0
   10.5292    3.2634    0.1350 H   0  0  0  0  0  0  0  0  0  0  0  0
    7.0161    0.6195   -0.9257 H   0  0  0  0  0  0  0  0  0  0  0  0
    1.6831   -2.5471   -1.5895 H   0  0  0  0  0  0  0  0  0  0  0  0
    1.5695   -2.9785    0.1394 H   0  0  0  0  0  0  0  0  0  0  0  0
   -0.0157   -3.3543   -3.1860 H   0  0  0  0  0  0  0  0  0  0  0  0
   -1.6715   -5.1056   -3.6844 H   0  0  0  0  0  0  0  0  0  0  0  0
   -2.6893   -6.4208   -1.8536 H   0  0  0  0  0  0  0  0  0  0  0  0
   -0.3721   -4.1935    1.0150 H   0  0  0  0  0  0  0  0  0  0  0  0
   -2.3202   -6.3678    2.7731 H   0  0  0  0  0  0  0  0  0  0  0  0
   -2.1491   -4.6712    2.2435 H   0  0  0  0  0  0  0  0  0  0  0  0
   -4.4332   -5.0601    3.0674 H   0  0  0  0  0  0  0  0  0  0  0  0
   -4.6193   -6.4952    2.0011 H   0  0  0  0  0  0  0  0  0  0  0  0
   -4.4469   -4.9990   -0.0475 H   0  0  0  0  0  0  0  0  0  0  0  0
   -5.8532   -4.6830    1.0028 H   0  0  0  0  0  0  0  0  0  0  0  0
   -4.6872   -2.7355    2.0579 H   0  0  0  0  0  0  0  0  0  0  0  0
   -3.2399   -3.0304    1.0291 H   0  0  0  0  0  0  0  0  0  0  0  0
   -5.9983   -2.5120   -0.1441 H   0  0  0  0  0  0  0  0  0  0  0  0
  1  2  1  0
  2  3  1  0
  3  4  1  0
  4  5  2  0
  4  6  2  0
  4  7  1  0
  7  8  1  0
  7  9  1  0
  9 10  2  0
 10 11  1  0
 11 12  2  0
 12 13  1  0
 13 14  2  0
 13 15  1  0
 15 16  2  0
 15 17  1  0
 17 18  1  0
 18 19  1  0
 19 20  1  0
 19 21  1  0
 21 22  1  0
 22 23  1  0
 23 24  1  0
 24 25  2  0
 25 26  1  0
 26 27  2  0
 27 28  1  0
 28 29  1  0
 29 30  1  0
 29 31  1  0
 28 32  2  0
 18 33  1  0
 33 34  1  0
 34 35  2  0
 35 36  1  0
 36 37  2  0
 37 38  1  0
 38 39  2  0
 38 40  1  0
 40 41  1  0
 41 42  1  0
 42 43  1  0
 43 44  1  0
 44 45  1  0
 14  9  1  0
 32 24  1  0
 39 34  1  0
 45 11  1  0
  1 46  1  0
  1 47  1  0
  1 48  1  0
  2 49  1  0
  2 50  1  0
  3 51  1  0
  3 52  1  0
  8 53  1  0
  8 54  1  0
  8 55  1  0
 10 56  1  0
 12 57  1  0
 14 58  1  0
 17 59  1  0
 18 60  1  1
 19 61  1  1
 20 62  1  0
 21 63  1  0
 21 64  1  0
 22 65  1  0
 23 66  1  0
 23 67  1  0
 25 68  1  0
 26 69  1  0
 27 70  1  0
 29 71  1  0
 30 72  1  0
 30 73  1  0
 30 74  1  0
 31 75  1  0
 31 76  1  0
 31 77  1  0
 32 78  1  0
 33 79  1  0
 33 80  1  0
 35 81  1  0
 36 82  1  0
 37 83  1  0
 39 84  1  0
 41 85  1  0
 41 86  1  0
 42 87  1  0
 42 88  1  0
 43 89  1  0
 43 90  1  0
 44 91  1  0
 44 92  1  0
 45 93  1  0
M  END
$$$$
