
     RDKit          3D

 73 77  0  0  0  0  0  0  0  0999 V2000
   -3.5211   -4.0637    1.0336 C   0  0  0  0  0  0  0  0  0  0  0  0
   -3.5757   -2.9466   -0.0116 C   0  0  0  0  0  0  0  0  0  0  0  0
   -2.2159   -2.2597   -0.2785 C   0  0  2  0  0  0  0  0  0  0  0  0
   -1.1721   -3.2542   -0.8816 C   0  0  0  0  0  0  0  0  0  0  0  0
   -0.1691   -2.6071   -1.8642 C   0  0  0  0  0  0  0  0  0  0  0  0
    1.0688   -1.9749   -1.1804 C   0  0  0  0  0  0  0  0  0  0  0  0
    1.5280   -0.6708   -1.8813 C   0  0  2  0  0  0  0  0  0  0  0  0
    2.7802   -0.1987   -1.2875 N   0  0  0  0  0  0  0  0  0  0  0  0
    3.8657    0.3072   -2.0847 C   0  0  0  0  0  0  0  0  0  0  0  0
    3.6960    0.5066   -3.3176 O   0  0  0  0  0  0  0  0  0  0  0  0
    5.1860    0.6192   -1.5035 C   0  0  0  0  0  0  0  0  0  0  0  0
    5.5858    0.1909   -0.2992 C   0  0  0  0  0  0  0  0  0  0  0  0
    6.9232    0.5173    0.2510 C   0  0  0  0  0  0  0  0  0  0  0  0
    8.0544    0.4706   -0.5859 C   0  0  0  0  0  0  0  0  0  0  0  0
    9.3345    0.7025   -0.0731 C   0  0  0  0  0  0  0  0  0  0  0  0
   10.7338    0.6227   -1.1301 Cl  0  0  0  0  0  0  0  0  0  0  0  0
    9.5022    0.9792    1.2836 C   0  0  0  0  0  0  0  0  0  0  0  0
    8.3931    1.0195    2.1297 C   0  0  0  0  0  0  0  0  0  0  0  0
    7.0969    0.7923    1.6311 C   0  0  0  0  0  0  0  0  0  0  0  0
    5.9727    0.8852    2.5262 N   0  0  0  0  0  0  0  0  0  0  0  0
    5.9151    0.5099    3.8175 C   0  0  0  0  0  0  0  0  0  0  0  0
    4.7017    0.8049    4.3199 N   0  0  0  0  0  0  0  0  0  0  0  0
    4.0341    1.3654    3.3188 N   0  0  0  0  0  0  0  0  0  0  0  0
    4.7992    1.4174    2.2379 N   0  0  0  0  0  0  0  0  0  0  0  0
    0.4794    0.4014   -1.7559 C   0  0  0  0  0  0  0  0  0  0  0  0
   -0.4710    0.3574   -0.8100 N   0  0  0  0  0  0  0  0  0  0  0  0
   -1.3704    1.2880   -1.1634 C   0  0  0  0  0  0  0  0  0  0  0  0
   -0.9200    1.9213   -2.3137 C   0  0  0  0  0  0  0  0  0  0  0  0
    0.2468    1.3566   -2.6783 N   0  0  0  0  0  0  0  0  0  0  0  0
   -2.7237    1.3560   -0.5486 C   0  0  0  0  0  0  0  0  0  0  0  0
   -3.7365    2.1256   -1.1511 C   0  0  0  0  0  0  0  0  0  0  0  0
   -5.0423    2.1090   -0.6531 C   0  0  0  0  0  0  0  0  0  0  0  0
   -5.3642    1.3437    0.4775 C   0  0  0  0  0  0  0  0  0  0  0  0
   -6.7102    1.2573    0.9792 N   0  0  0  0  0  0  0  0  0  0  0  0
   -7.6877    2.3034    0.9072 C   0  0  0  0  0  0  0  0  0  0  0  0
   -7.3621    3.4693    0.5531 O   0  0  0  0  0  0  0  0  0  0  0  0
   -9.0040    2.0243    1.2793 O   0  0  0  0  0  0  0  0  0  0  0  0
  -10.0332    3.0059    1.2595 C   0  0  0  0  0  0  0  0  0  0  0  0
   -4.3626    0.5806    1.0867 C   0  0  0  0  0  0  0  0  0  0  0  0
   -3.0559    0.5653    0.5844 C   0  0  0  0  0  0  0  0  0  0  0  0
   -2.0703   -0.2028    1.2927 N   0  0  0  0  0  0  0  0  0  0  0  0
   -1.7217   -1.5646    0.9799 C   0  0  0  0  0  0  0  0  0  0  0  0
   -1.0197   -2.2086    1.8058 O   0  0  0  0  0  0  0  0  0  0  0  0
   -2.7911   -4.8476    0.7382 H   0  0  0  0  0  0  0  0  0  0  0  0
   -3.2485   -3.6550    2.0288 H   0  0  0  0  0  0  0  0  0  0  0  0
   -4.5231   -4.5358    1.1212 H   0  0  0  0  0  0  0  0  0  0  0  0
   -4.3152   -2.1878    0.3241 H   0  0  0  0  0  0  0  0  0  0  0  0
   -3.9637   -3.3690   -0.9642 H   0  0  0  0  0  0  0  0  0  0  0  0
   -2.4223   -1.4883   -1.0491 H   0  0  0  0  0  0  0  0  0  0  0  0
   -1.7204   -4.0228   -1.4706 H   0  0  0  0  0  0  0  0  0  0  0  0
   -0.6283   -3.8090   -0.0861 H   0  0  0  0  0  0  0  0  0  0  0  0
   -0.7030   -1.8793   -2.5125 H   0  0  0  0  0  0  0  0  0  0  0  0
    0.1993   -3.3987   -2.5546 H   0  0  0  0  0  0  0  0  0  0  0  0
    1.9036   -2.7105   -1.2033 H   0  0  0  0  0  0  0  0  0  0  0  0
    0.8692   -1.7684   -0.1069 H   0  0  0  0  0  0  0  0  0  0  0  0
    1.6775   -0.9014   -2.9587 H   0  0  0  0  0  0  0  0  0  0  0  0
    2.8122   -0.0933   -0.2485 H   0  0  0  0  0  0  0  0  0  0  0  0
    5.8624    1.2078   -2.1127 H   0  0  0  0  0  0  0  0  0  0  0  0
    4.9241   -0.3992    0.3168 H   0  0  0  0  0  0  0  0  0  0  0  0
    7.9485    0.2227   -1.6351 H   0  0  0  0  0  0  0  0  0  0  0  0
   10.4917    1.1655    1.6857 H   0  0  0  0  0  0  0  0  0  0  0  0
    8.5417    1.2523    3.1759 H   0  0  0  0  0  0  0  0  0  0  0  0
    6.7158    0.0396    4.3726 H   0  0  0  0  0  0  0  0  0  0  0  0
   -1.4309    2.6766   -2.8922 H   0  0  0  0  0  0  0  0  0  0  0  0
    0.7934    1.5501   -3.5483 H   0  0  0  0  0  0  0  0  0  0  0  0
   -3.5376    2.7177   -2.0334 H   0  0  0  0  0  0  0  0  0  0  0  0
   -5.8040    2.6634   -1.1830 H   0  0  0  0  0  0  0  0  0  0  0  0
   -6.9838    0.3926    1.4981 H   0  0  0  0  0  0  0  0  0  0  0  0
   -9.7816    3.8342    1.9573 H   0  0  0  0  0  0  0  0  0  0  0  0
  -10.9882    2.5426    1.5863 H   0  0  0  0  0  0  0  0  0  0  0  0
  -10.1581    3.4043    0.2283 H   0  0  0  0  0  0  0  0  0  0  0  0
   -4.6029   -0.0195    1.9566 H   0  0  0  0  0  0  0  0  0  0  0  0
   -1.7246    0.1918    2.1969 H   0  0  0  0  0  0  0  0  0  0  0  0
  1  2  1  0
  2  3  1  0
  3  4  1  0
  4  5  1  0
  5  6  1  0
  6  7  1  0
  7  8  1  0
  8  9  1  0
  9 10  2  0
  9 11  1  0
 11 12  2  0
 12 13  1  0
 13 14  2  0
 14 15  1  0
 15 16  1  0
 15 17  2  0
 17 18  1  0
 18 19  2  0
 19 20  1  0
 20 21  1  0
 21 22  2  0
 22 23  1  0
 23 24  2  0
  7 25  1  0
 25 26  2  0
 26 27  1  0
 27 28  2  0
 28 29  1  0
 27 30  1  0
 30 31  2  0
 31 32  1  0
 32 33  2  0
 33 34  1  0
 34 35  1  0
 35 36  2  0
 35 37  1  0
 37 38  1  0
 33 39  1  0
 39 40  2  0
 40 41  1  0
 41 42  1  0
 42 43  2  0
 42  3  1  0
 19 13  1  0
 24 20  1  0
 29 25  1  0
 40 30  1  0
  1 44  1  0
  1 45  1  0
  1 46  1  0
  2 47  1  0
  2 48  1  0
  3 49  1  6
  4 50  1  0
  4 51  1  0
  5 52  1  0
  5 53  1  0
  6 54  1  0
  6 55  1  0
  7 56  1  6
  8 57  1  0
 11 58  1  0
 12 59  1  0
 14 60  1  0
 17 61  1  0
 18 62  1  0
 21 63  1  0
 28 64  1  0
 29 65  1  0
 31 66  1  0
 32 67  1  0
 34 68  1  0
 38 69  1  0
 38 70  1  0
 38 71  1  0
 39 72  1  0
 41 73  1  0
M  END
$$$$
