
     RDKit          3D

 64 68  0  0  0  0  0  0  0  0999 V2000
    6.1741   -0.0501   -1.6970 C   0  0  0  0  0  0  0  0  0  0  0  0
    5.5040    0.5451   -0.4905 C   0  0  0  0  0  0  0  0  0  0  0  0
    6.2637    1.3246    0.3231 N   0  0  0  0  0  0  0  0  0  0  0  0
    5.7565    1.8931    1.4406 C   0  0  0  0  0  0  0  0  0  0  0  0
    4.4692    1.6704    1.7858 N   0  0  0  0  0  0  0  0  0  0  0  0
    3.6478    0.9017    1.0222 C   0  0  0  0  0  0  0  0  0  0  0  0
    4.1274    0.3357   -0.1915 C   0  0  0  0  0  0  0  0  0  0  0  0
    3.2400   -0.4981   -1.1397 C   0  0  1  0  0  0  0  0  0  0  0  0
    3.2297   -2.0093   -0.7769 C   0  0  0  0  0  0  0  0  0  0  0  0
    1.9436   -2.4812   -0.0869 C   0  0  0  0  0  0  0  0  0  0  0  0
    0.6586   -2.0975   -0.8957 C   0  0  2  0  0  0  0  0  0  0  0  0
    0.8451   -0.9457   -1.9122 C   0  0  0  0  0  0  0  0  0  0  0  0
    1.8393    0.1085   -1.4319 C   0  0  0  0  0  0  0  0  0  0  0  0
   -0.5508   -1.9767   -0.1435 O   0  0  0  0  0  0  0  0  0  0  0  0
   -0.5029   -1.0830    0.9593 C   0  0  0  0  0  0  0  0  0  0  0  0
   -1.2960    0.2200    0.7165 C   0  0  0  0  0  0  0  0  0  0  0  0
   -2.8393    0.0195    0.7419 C   0  0  1  0  0  0  0  0  0  0  0  0
   -3.2433   -1.0366   -0.2069 N   0  0  0  0  0  0  0  0  0  0  0  0
   -4.9390   -0.9648   -0.6036 S   0  0  0  0  0  6  0  0  0  0  0  0
   -5.7736   -1.2087    0.6231 O   0  0  0  0  0  0  0  0  0  0  0  0
   -5.2345   -2.0525   -1.6006 O   0  0  0  0  0  0  0  0  0  0  0  0
   -5.3577    0.6421   -1.2876 C   0  0  0  0  0  0  0  0  0  0  0  0
   -6.3306    0.6267   -2.4562 C   0  0  0  0  0  0  0  0  0  0  0  0
   -4.8489    0.8657   -2.7023 C   0  0  0  0  0  0  0  0  0  0  0  0
   -3.3683   -0.2807    2.1709 C   0  0  0  0  0  0  0  0  0  0  0  0
   -2.5272    0.3279    3.3084 C   0  0  0  0  0  0  0  0  0  0  0  0
   -1.7474    1.5608    2.8559 C   0  0  0  0  0  0  0  0  0  0  0  0
   -0.8868    1.2265    1.7191 N   0  0  0  0  0  0  0  0  0  0  0  0
    0.3324    1.9635    1.5335 C   0  0  0  0  0  0  0  0  0  0  0  0
    0.3701    2.9002    0.6905 O   0  0  0  0  0  0  0  0  0  0  0  0
    1.5839    1.5747    2.2671 C   0  0  0  0  0  0  0  0  0  0  0  0
    2.3393    0.6732    1.4565 O   0  0  0  0  0  0  0  0  0  0  0  0
    5.8066    0.4485   -2.6175 H   0  0  0  0  0  0  0  0  0  0  0  0
    7.2739    0.0948   -1.6417 H   0  0  0  0  0  0  0  0  0  0  0  0
    5.9774   -1.1408   -1.7496 H   0  0  0  0  0  0  0  0  0  0  0  0
    6.3848    2.5094    2.0683 H   0  0  0  0  0  0  0  0  0  0  0  0
    3.7164   -0.4668   -2.1419 H   0  0  0  0  0  0  0  0  0  0  0  0
    3.3446   -2.6036   -1.7122 H   0  0  0  0  0  0  0  0  0  0  0  0
    4.1045   -2.2634   -0.1380 H   0  0  0  0  0  0  0  0  0  0  0  0
    1.9820   -2.1293    0.9586 H   0  0  0  0  0  0  0  0  0  0  0  0
    1.9858   -3.5902    0.0011 H   0  0  0  0  0  0  0  0  0  0  0  0
    0.4791   -2.9845   -1.5440 H   0  0  0  0  0  0  0  0  0  0  0  0
    1.2272   -1.3591   -2.8728 H   0  0  0  0  0  0  0  0  0  0  0  0
   -0.1327   -0.4723   -2.1434 H   0  0  0  0  0  0  0  0  0  0  0  0
    1.9396    0.8866   -2.2206 H   0  0  0  0  0  0  0  0  0  0  0  0
    1.3853    0.6262   -0.5837 H   0  0  0  0  0  0  0  0  0  0  0  0
   -0.9146   -1.6155    1.8406 H   0  0  0  0  0  0  0  0  0  0  0  0
    0.5043   -0.7881    1.2475 H   0  0  0  0  0  0  0  0  0  0  0  0
   -1.0363    0.6132   -0.2891 H   0  0  0  0  0  0  0  0  0  0  0  0
   -3.2726    0.9923    0.4193 H   0  0  0  0  0  0  0  0  0  0  0  0
   -2.7469   -0.8743   -1.1132 H   0  0  0  0  0  0  0  0  0  0  0  0
   -5.3922    1.5433   -0.6397 H   0  0  0  0  0  0  0  0  0  0  0  0
   -6.9507    1.5432   -2.5514 H   0  0  0  0  0  0  0  0  0  0  0  0
   -6.6881   -0.3656   -2.8004 H   0  0  0  0  0  0  0  0  0  0  0  0
   -4.5964    1.9209   -2.9412 H   0  0  0  0  0  0  0  0  0  0  0  0
   -4.3269    0.0081   -3.1784 H   0  0  0  0  0  0  0  0  0  0  0  0
   -4.3973    0.1298    2.2553 H   0  0  0  0  0  0  0  0  0  0  0  0
   -3.4360   -1.3784    2.3311 H   0  0  0  0  0  0  0  0  0  0  0  0
   -1.8074   -0.4299    3.6870 H   0  0  0  0  0  0  0  0  0  0  0  0
   -3.1890    0.6012    4.1586 H   0  0  0  0  0  0  0  0  0  0  0  0
   -2.4500    2.3695    2.5614 H   0  0  0  0  0  0  0  0  0  0  0  0
   -1.1340    1.9248    3.7089 H   0  0  0  0  0  0  0  0  0  0  0  0
    1.3173    1.0651    3.2174 H   0  0  0  0  0  0  0  0  0  0  0  0
    2.1635    2.4900    2.5183 H   0  0  0  0  0  0  0  0  0  0  0  0
  1  2  1  0
  2  3  2  0
  3  4  1  0
  4  5  2  0
  5  6  1  0
  6  7  2  0
  7  8  1  0
  8  9  1  0
  9 10  1  0
 10 11  1  0
 11 12  1  0
 12 13  1  0
 11 14  1  0
 14 15  1  0
 15 16  1  0
 16 17  1  0
 17 18  1  0
 18 19  1  0
 19 20  2  0
 19 21  2  0
 19 22  1  0
 22 23  1  0
 23 24  1  0
 17 25  1  0
 25 26  1  0
 26 27  1  0
 27 28  1  0
 28 29  1  0
 29 30  2  0
 29 31  1  0
 31 32  1  0
  7  2  1  0
 13  8  1  0
 28 16  1  0
 32  6  1  0
 24 22  1  0
  1 33  1  0
  1 34  1  0
  1 35  1  0
  4 36  1  0
  8 37  1  6
  9 38  1  0
  9 39  1  0
 10 40  1  0
 10 41  1  0
 11 42  1  6
 12 43  1  0
 12 44  1  0
 13 45  1  0
 13 46  1  0
 15 47  1  0
 15 48  1  0
 16 49  1  0
 17 50  1  6
 18 51  1  0
 22 52  1  0
 23 53  1  0
 23 54  1  0
 24 55  1  0
 24 56  1  0
 25 57  1  0
 25 58  1  0
 26 59  1  0
 26 60  1  0
 27 61  1  0
 27 62  1  0
 31 63  1  0
 31 64  1  0
M  END
$$$$
