
     RDKit          3D

 75 79  0  0  0  0  0  0  0  0999 V2000
   -2.2842    2.5856    3.3167 C   0  0  0  0  0  0  0  0  0  0  0  0
   -2.4861    1.0950    3.6404 C   0  0  0  0  0  0  0  0  0  0  0  0
   -1.7989    0.0827    2.6792 C   0  0  2  0  0  0  0  0  0  0  0  0
   -0.3923    0.5285    2.1724 C   0  0  0  0  0  0  0  0  0  0  0  0
    0.7211   -0.5266    2.3666 C   0  0  0  0  0  0  0  0  0  0  0  0
    0.6006   -1.8031    1.5042 C   0  0  0  0  0  0  0  0  0  0  0  0
    1.1856   -1.7100    0.0717 C   0  0  2  0  0  0  0  0  0  0  0  0
    2.6224   -1.4090    0.1138 N   0  0  0  0  0  0  0  0  0  0  0  0
    3.6247   -2.4382    0.1637 C   0  0  0  0  0  0  0  0  0  0  0  0
    3.2888   -3.6354    0.3692 O   0  0  0  0  0  0  0  0  0  0  0  0
    5.0589   -2.1219    0.0173 C   0  0  0  0  0  0  0  0  0  0  0  0
    5.4929   -0.9996   -0.5717 C   0  0  0  0  0  0  0  0  0  0  0  0
    6.9301   -0.6571   -0.6975 C   0  0  0  0  0  0  0  0  0  0  0  0
    7.8774   -1.6657   -0.9654 C   0  0  0  0  0  0  0  0  0  0  0  0
    9.2206   -1.3442   -1.1764 C   0  0  0  0  0  0  0  0  0  0  0  0
   10.3862   -2.6120   -1.5132 Cl  0  0  0  0  0  0  0  0  0  0  0  0
    9.6338   -0.0132   -1.1366 C   0  0  0  0  0  0  0  0  0  0  0  0
    8.7095    0.9989   -0.8787 C   0  0  0  0  0  0  0  0  0  0  0  0
    7.3562    0.6954   -0.6488 C   0  0  0  0  0  0  0  0  0  0  0  0
    6.4420    1.7621   -0.3298 N   0  0  0  0  0  0  0  0  0  0  0  0
    6.4384    3.0181   -0.8094 C   0  0  0  0  0  0  0  0  0  0  0  0
    5.4523    3.7236   -0.2244 N   0  0  0  0  0  0  0  0  0  0  0  0
    4.8693    2.8801    0.6170 N   0  0  0  0  0  0  0  0  0  0  0  0
    5.4672    1.6995    0.5606 N   0  0  0  0  0  0  0  0  0  0  0  0
    0.4397   -0.7171   -0.7888 C   0  0  0  0  0  0  0  0  0  0  0  0
   -0.9232   -0.9105   -1.0496 C   0  0  0  0  0  0  0  0  0  0  0  0
   -1.6529    0.0946   -1.6889 C   0  0  0  0  0  0  0  0  0  0  0  0
   -0.9910    1.2307   -2.1673 C   0  0  0  0  0  0  0  0  0  0  0  0
    0.3826    1.3603   -1.9533 C   0  0  0  0  0  0  0  0  0  0  0  0
    1.0557    0.4063   -1.2567 N   0  0  0  0  0  0  0  0  0  0  0  0
   -3.1198    0.0064   -1.7484 C   0  0  0  0  0  0  0  0  0  0  0  0
   -3.7480   -0.2780   -2.9669 C   0  0  0  0  0  0  0  0  0  0  0  0
   -5.1422   -0.3257   -3.0458 C   0  0  0  0  0  0  0  0  0  0  0  0
   -5.9292   -0.0883   -1.9098 C   0  0  0  0  0  0  0  0  0  0  0  0
   -7.3623   -0.1072   -2.0313 N   0  0  0  0  0  0  0  0  0  0  0  0
   -8.2584   -0.5208   -0.9909 C   0  0  0  0  0  0  0  0  0  0  0  0
   -7.8218   -1.0961    0.0440 O   0  0  0  0  0  0  0  0  0  0  0  0
   -9.6318   -0.3170   -1.1577 O   0  0  0  0  0  0  0  0  0  0  0  0
  -10.5868   -0.6838   -0.1684 C   0  0  0  0  0  0  0  0  0  0  0  0
   -5.2982    0.2295   -0.6932 C   0  0  0  0  0  0  0  0  0  0  0  0
   -3.8998    0.2538   -0.5992 C   0  0  0  0  0  0  0  0  0  0  0  0
   -3.2858    0.6394    0.6388 N   0  0  0  0  0  0  0  0  0  0  0  0
   -2.7164   -0.3255    1.5383 C   0  0  0  0  0  0  0  0  0  0  0  0
   -2.9889   -1.5477    1.3851 O   0  0  0  0  0  0  0  0  0  0  0  0
   -2.1401    2.7737    2.2353 H   0  0  0  0  0  0  0  0  0  0  0  0
   -3.1621    3.1684    3.6687 H   0  0  0  0  0  0  0  0  0  0  0  0
   -1.3897    2.9758    3.8477 H   0  0  0  0  0  0  0  0  0  0  0  0
   -2.1010    0.9249    4.6713 H   0  0  0  0  0  0  0  0  0  0  0  0
   -3.5764    0.8789    3.6816 H   0  0  0  0  0  0  0  0  0  0  0  0
   -1.6581   -0.8323    3.2988 H   0  0  0  0  0  0  0  0  0  0  0  0
   -0.0472    1.4104    2.7503 H   0  0  0  0  0  0  0  0  0  0  0  0
   -0.4385    0.8722    1.1199 H   0  0  0  0  0  0  0  0  0  0  0  0
    0.7212   -0.8292    3.4368 H   0  0  0  0  0  0  0  0  0  0  0  0
    1.7048   -0.0450    2.1923 H   0  0  0  0  0  0  0  0  0  0  0  0
    1.1509   -2.6130    2.0298 H   0  0  0  0  0  0  0  0  0  0  0  0
   -0.4519   -2.1446    1.4697 H   0  0  0  0  0  0  0  0  0  0  0  0
    1.0450   -2.7040   -0.4087 H   0  0  0  0  0  0  0  0  0  0  0  0
    2.9211   -0.4201    0.2702 H   0  0  0  0  0  0  0  0  0  0  0  0
    5.7712   -2.8427    0.4006 H   0  0  0  0  0  0  0  0  0  0  0  0
    4.7774   -0.2944   -0.9727 H   0  0  0  0  0  0  0  0  0  0  0  0
    7.5722   -2.7007   -1.0453 H   0  0  0  0  0  0  0  0  0  0  0  0
   10.6732    0.2396   -1.3037 H   0  0  0  0  0  0  0  0  0  0  0  0
    9.0560    2.0234   -0.8352 H   0  0  0  0  0  0  0  0  0  0  0  0
    7.1162    3.4087   -1.5581 H   0  0  0  0  0  0  0  0  0  0  0  0
   -1.4251   -1.8034   -0.7005 H   0  0  0  0  0  0  0  0  0  0  0  0
   -1.5368    2.0189   -2.6702 H   0  0  0  0  0  0  0  0  0  0  0  0
    0.9069    2.2377   -2.3080 H   0  0  0  0  0  0  0  0  0  0  0  0
   -3.1592   -0.4606   -3.8575 H   0  0  0  0  0  0  0  0  0  0  0  0
   -5.6117   -0.5508   -3.9948 H   0  0  0  0  0  0  0  0  0  0  0  0
   -7.7821    0.1108   -2.9629 H   0  0  0  0  0  0  0  0  0  0  0  0
  -10.4069   -0.1079    0.7634 H   0  0  0  0  0  0  0  0  0  0  0  0
  -10.5173   -1.7707    0.0438 H   0  0  0  0  0  0  0  0  0  0  0  0
  -11.6065   -0.4581   -0.5416 H   0  0  0  0  0  0  0  0  0  0  0  0
   -5.8842    0.4844    0.1805 H   0  0  0  0  0  0  0  0  0  0  0  0
   -3.4593    1.6128    0.9664 H   0  0  0  0  0  0  0  0  0  0  0  0
  1  2  1  0
  2  3  1  0
  3  4  1  0
  4  5  1  0
  5  6  1  0
  6  7  1  0
  7  8  1  0
  8  9  1  0
  9 10  2  0
  9 11  1  0
 11 12  2  0
 12 13  1  0
 13 14  2  0
 14 15  1  0
 15 16  1  0
 15 17  2  0
 17 18  1  0
 18 19  2  0
 19 20  1  0
 20 21  1  0
 21 22  2  0
 22 23  1  0
 23 24  2  0
  7 25  1  0
 25 26  1  0
 26 27  2  0
 27 28  1  0
 28 29  2  0
 29 30  1  0
 27 31  1  0
 31 32  2  0
 32 33  1  0
 33 34  2  0
 34 35  1  0
 35 36  1  0
 36 37  2  0
 36 38  1  0
 38 39  1  0
 34 40  1  0
 40 41  2  0
 41 42  1  0
 42 43  1  0
 43 44  2  0
 43  3  1  0
 19 13  1  0
 24 20  1  0
 30 25  2  0
 41 31  1  0
  1 45  1  0
  1 46  1  0
  1 47  1  0
  2 48  1  0
  2 49  1  0
  3 50  1  1
  4 51  1  0
  4 52  1  0
  5 53  1  0
  5 54  1  0
  6 55  1  0
  6 56  1  0
  7 57  1  6
  8 58  1  0
 11 59  1  0
 12 60  1  0
 14 61  1  0
 17 62  1  0
 18 63  1  0
 21 64  1  0
 26 65  1  0
 28 66  1  0
 29 67  1  0
 32 68  1  0
 33 69  1  0
 35 70  1  0
 39 71  1  0
 39 72  1  0
 39 73  1  0
 40 74  1  0
 42 75  1  0
M  END
$$$$
