
     RDKit          3D

 84 88  0  0  0  0  0  0  0  0999 V2000
    7.3680   -1.4530   -1.6943 C   0  0  0  0  0  0  0  0  0  0  0  0
    7.1596   -0.0009   -1.2412 C   0  0  0  0  0  0  0  0  0  0  0  0
    7.9172    0.9777   -2.1489 C   0  0  0  0  0  0  0  0  0  0  0  0
    5.6855    0.3488   -1.1745 C   0  0  0  0  0  0  0  0  0  0  0  0
    4.8717    0.2641   -2.3175 C   0  0  0  0  0  0  0  0  0  0  0  0
    3.5221    0.6001   -2.2498 C   0  0  0  0  0  0  0  0  0  0  0  0
    2.9685    1.0428   -1.0471 C   0  0  0  0  0  0  0  0  0  0  0  0
    3.7657    1.1464    0.1021 C   0  0  0  0  0  0  0  0  0  0  0  0
    3.1539    1.5920    1.4014 C   0  0  0  0  0  0  0  0  0  0  0  0
    2.4937    0.4524    2.0512 N   0  0  0  0  0  0  0  0  0  0  0  0
    1.6756    0.8751    3.1987 C   0  0  0  0  0  0  0  0  0  0  0  0
    0.1779    0.9353    2.8327 C   0  0  1  0  0  0  0  0  0  0  0  0
   -0.0444    1.9065    1.8389 O   0  0  0  0  0  0  0  0  0  0  0  0
   -0.3937   -0.4496    2.3926 C   0  0  2  0  0  0  0  0  0  0  0  0
   -0.2721   -0.7095    0.8698 C   0  0  0  0  0  0  0  0  0  0  0  0
   -0.2731   -2.1822    0.5507 C   0  0  0  0  0  0  0  0  0  0  0  0
    0.9284   -2.9110    0.5862 C   0  0  0  0  0  0  0  0  0  0  0  0
    0.9341   -4.2757    0.2857 C   0  0  0  0  0  0  0  0  0  0  0  0
   -0.2589   -4.9221   -0.0480 C   0  0  0  0  0  0  0  0  0  0  0  0
   -1.4752   -4.2176   -0.0654 C   0  0  0  0  0  0  0  0  0  0  0  0
   -1.4717   -2.8462    0.2475 C   0  0  0  0  0  0  0  0  0  0  0  0
   -2.6492   -4.9300   -0.3652 O   0  0  0  0  0  0  0  0  0  0  0  0
   -3.9809   -4.4077   -0.4167 C   0  0  0  0  0  0  0  0  0  0  0  0
   -4.3825   -4.0003   -1.8454 C   0  0  0  0  0  0  0  0  0  0  0  0
   -4.1171   -2.5258   -2.1900 C   0  0  0  0  0  0  0  0  0  0  0  0
   -5.1529   -1.5746   -1.5655 C   0  0  0  0  0  0  0  0  0  0  0  0
   -4.7368   -0.1811   -1.7407 N   0  0  0  0  0  0  0  0  0  0  0  0
   -4.1769    0.6605   -0.7083 C   0  0  0  0  0  0  0  0  0  0  0  0
   -3.7956    0.1575    0.5497 C   0  0  0  0  0  0  0  0  0  0  0  0
   -3.2163    0.9958    1.5069 C   0  0  0  0  0  0  0  0  0  0  0  0
   -3.0808    2.3630    1.2436 C   0  0  0  0  0  0  0  0  0  0  0  0
   -3.4633    2.8967    0.0019 C   0  0  0  0  0  0  0  0  0  0  0  0
   -3.3008    4.3068   -0.2617 N   0  0  0  0  0  0  0  0  0  0  0  0
   -3.7690    5.0305   -1.3951 C   0  0  0  0  0  0  0  0  0  0  0  0
   -3.3962    6.2884   -1.3041 C   0  0  0  0  0  0  0  0  0  0  0  0
   -2.6720    6.4874   -0.1395 O   0  0  0  0  0  0  0  0  0  0  0  0
   -2.5947    5.2651    0.5849 C   0  0  0  0  0  0  0  0  0  0  0  0
   -3.9904    2.0280   -0.9741 C   0  0  0  0  0  0  0  0  0  0  0  0
   -2.7661    0.4399    2.7910 C   0  0  0  0  0  0  0  0  0  0  0  0
   -3.2576    0.8856    3.8656 O   0  0  0  0  0  0  0  0  0  0  0  0
   -1.7889   -0.6114    2.8457 N   0  0  0  0  0  0  0  0  0  0  0  0
    5.1189    0.7900    0.0360 C   0  0  0  0  0  0  0  0  0  0  0  0
    8.4435   -1.7178   -1.6222 H   0  0  0  0  0  0  0  0  0  0  0  0
    7.0381   -1.6053   -2.7452 H   0  0  0  0  0  0  0  0  0  0  0  0
    6.7979   -2.1435   -1.0332 H   0  0  0  0  0  0  0  0  0  0  0  0
    7.6035    0.0855   -0.2246 H   0  0  0  0  0  0  0  0  0  0  0  0
    7.7697    2.0190   -1.7939 H   0  0  0  0  0  0  0  0  0  0  0  0
    9.0044    0.7563   -2.1274 H   0  0  0  0  0  0  0  0  0  0  0  0
    7.5642    0.9044   -3.1999 H   0  0  0  0  0  0  0  0  0  0  0  0
    5.2823   -0.0510   -3.2645 H   0  0  0  0  0  0  0  0  0  0  0  0
    2.9010    0.5390   -3.1367 H   0  0  0  0  0  0  0  0  0  0  0  0
    1.9200    1.3080   -1.0090 H   0  0  0  0  0  0  0  0  0  0  0  0
    3.9369    2.0196    2.0691 H   0  0  0  0  0  0  0  0  0  0  0  0
    2.4181    2.3984    1.1899 H   0  0  0  0  0  0  0  0  0  0  0  0
    3.2345   -0.1982    2.3951 H   0  0  0  0  0  0  0  0  0  0  0  0
    2.0058    1.8603    3.6012 H   0  0  0  0  0  0  0  0  0  0  0  0
    1.7951    0.1465    4.0314 H   0  0  0  0  0  0  0  0  0  0  0  0
   -0.3503    1.2365    3.7706 H   0  0  0  0  0  0  0  0  0  0  0  0
   -0.1074    2.7825    2.2964 H   0  0  0  0  0  0  0  0  0  0  0  0
    0.2101   -1.2310    2.9113 H   0  0  0  0  0  0  0  0  0  0  0  0
    0.6667   -0.2731    0.4759 H   0  0  0  0  0  0  0  0  0  0  0  0
   -1.0896   -0.2005    0.3209 H   0  0  0  0  0  0  0  0  0  0  0  0
    1.8604   -2.4196    0.8432 H   0  0  0  0  0  0  0  0  0  0  0  0
    1.8598   -4.8363    0.3228 H   0  0  0  0  0  0  0  0  0  0  0  0
   -0.2456   -5.9809   -0.2752 H   0  0  0  0  0  0  0  0  0  0  0  0
   -2.3855   -2.2860    0.2562 H   0  0  0  0  0  0  0  0  0  0  0  0
   -4.6524   -5.2426   -0.1167 H   0  0  0  0  0  0  0  0  0  0  0  0
   -4.1450   -3.6091    0.3346 H   0  0  0  0  0  0  0  0  0  0  0  0
   -3.8400   -4.6486   -2.5704 H   0  0  0  0  0  0  0  0  0  0  0  0
   -5.4681   -4.2065   -1.9868 H   0  0  0  0  0  0  0  0  0  0  0  0
   -3.0846   -2.2429   -1.9027 H   0  0  0  0  0  0  0  0  0  0  0  0
   -4.1850   -2.4140   -3.2935 H   0  0  0  0  0  0  0  0  0  0  0  0
   -5.3452   -1.8145   -0.5027 H   0  0  0  0  0  0  0  0  0  0  0  0
   -6.1289   -1.7193   -2.0808 H   0  0  0  0  0  0  0  0  0  0  0  0
   -4.8285    0.2176   -2.7031 H   0  0  0  0  0  0  0  0  0  0  0  0
   -3.9425   -0.8760    0.8113 H   0  0  0  0  0  0  0  0  0  0  0  0
   -2.6558    3.0035    2.0037 H   0  0  0  0  0  0  0  0  0  0  0  0
   -4.3587    4.6238   -2.2044 H   0  0  0  0  0  0  0  0  0  0  0  0
   -3.6233    7.0596   -2.0257 H   0  0  0  0  0  0  0  0  0  0  0  0
   -1.5322    4.9644    0.7176 H   0  0  0  0  0  0  0  0  0  0  0  0
   -3.1070    5.3773    1.5648 H   0  0  0  0  0  0  0  0  0  0  0  0
   -4.2599    2.4055   -1.9519 H   0  0  0  0  0  0  0  0  0  0  0  0
   -1.9723   -1.3852    3.5210 H   0  0  0  0  0  0  0  0  0  0  0  0
    5.7321    0.8563    0.9257 H   0  0  0  0  0  0  0  0  0  0  0  0
  1  2  1  0
  2  3  1  0
  2  4  1  0
  4  5  2  0
  5  6  1  0
  6  7  2  0
  7  8  1  0
  8  9  1  0
  9 10  1  0
 10 11  1  0
 11 12  1  0
 12 13  1  0
 12 14  1  0
 14 15  1  0
 15 16  1  0
 16 17  2  0
 17 18  1  0
 18 19  2  0
 19 20  1  0
 20 21  2  0
 20 22  1  0
 22 23  1  0
 23 24  1  0
 24 25  1  0
 25 26  1  0
 26 27  1  0
 27 28  1  0
 28 29  2  0
 29 30  1  0
 30 31  2  0
 31 32  1  0
 32 33  1  0
 33 34  1  0
 34 35  2  0
 35 36  1  0
 36 37  1  0
 32 38  2  0
 30 39  1  0
 39 40  2  0
 39 41  1  0
  8 42  2  0
 42  4  1  0
 41 14  1  0
 21 16  1  0
 38 28  1  0
 37 33  1  0
  1 43  1  0
  1 44  1  0
  1 45  1  0
  2 46  1  0
  3 47  1  0
  3 48  1  0
  3 49  1  0
  5 50  1  0
  6 51  1  0
  7 52  1  0
  9 53  1  0
  9 54  1  0
 10 55  1  0
 11 56  1  0
 11 57  1  0
 12 58  1  1
 13 59  1  0
 14 60  1  1
 15 61  1  0
 15 62  1  0
 17 63  1  0
 18 64  1  0
 19 65  1  0
 21 66  1  0
 23 67  1  0
 23 68  1  0
 24 69  1  0
 24 70  1  0
 25 71  1  0
 25 72  1  0
 26 73  1  0
 26 74  1  0
 27 75  1  0
 29 76  1  0
 31 77  1  0
 34 78  1  0
 35 79  1  0
 37 80  1  0
 37 81  1  0
 38 82  1  0
 41 83  1  0
 42 84  1  0
M  END
$$$$
