
     RDKit          3D

 59 62  0  0  0  0  0  0  0  0999 V2000
   -0.0315    2.9903    1.8586 O   0  0  0  0  0  0  0  0  0  0  0  0
   -0.3023    2.3128    0.8295 C   0  0  0  0  0  0  0  0  0  0  0  0
    0.6470    2.3825   -0.3325 C   0  0  0  0  0  0  0  0  0  0  0  0
    1.6514    1.3858   -0.1717 O   0  0  0  0  0  0  0  0  0  0  0  0
    2.8959    1.3418   -0.8265 C   0  0  0  0  0  0  0  0  0  0  0  0
    3.2855    2.3391   -1.7418 C   0  0  0  0  0  0  0  0  0  0  0  0
    4.5407    2.2895   -2.3502 C   0  0  0  0  0  0  0  0  0  0  0  0
    5.4188    1.2459   -2.0625 C   0  0  0  0  0  0  0  0  0  0  0  0
    5.0421    0.2371   -1.1749 C   0  0  0  0  0  0  0  0  0  0  0  0
    3.7821    0.2654   -0.5504 C   0  0  0  0  0  0  0  0  0  0  0  0
    3.3695   -0.8977    0.3444 C   0  0  0  0  0  0  0  0  0  0  0  0
    2.1917   -1.6615   -0.3194 C   0  0  0  0  0  0  0  0  0  0  0  0
    1.4623   -2.5944    0.6448 C   0  0  0  0  0  0  0  0  0  0  0  0
    1.0284   -1.8315    1.9114 C   0  0  0  0  0  0  0  0  0  0  0  0
    2.3053   -1.4125    2.6487 C   0  0  0  0  0  0  0  0  0  0  0  0
    3.1209   -0.4187    1.8056 C   0  0  0  0  0  0  0  0  0  0  0  0
    0.3013   -0.6533    1.5952 O   0  0  0  0  0  0  0  0  0  0  0  0
   -1.0404   -0.9136    1.2367 C   0  0  0  0  0  0  0  0  0  0  0  0
   -1.4790    0.1458    0.1972 C   0  0  1  0  0  0  0  0  0  0  0  0
   -2.8534   -0.1502   -0.4513 C   0  0  1  0  0  0  0  0  0  0  0  0
   -2.8764   -1.5223   -0.9983 N   0  0  0  0  0  0  0  0  0  0  0  0
   -3.4866   -1.5658   -2.6274 S   0  0  0  0  0  6  0  0  0  0  0  0
   -2.6087   -0.7325   -3.5187 O   0  0  0  0  0  0  0  0  0  0  0  0
   -3.4685   -2.9870   -3.1151 O   0  0  0  0  0  0  0  0  0  0  0  0
   -5.1580   -0.9532   -2.6980 C   0  0  0  0  0  0  0  0  0  0  0  0
   -5.6633   -1.1324   -3.9716 F   0  0  0  0  0  0  0  0  0  0  0  0
   -3.9991    0.0906    0.5528 C   0  0  0  0  0  0  0  0  0  0  0  0
   -3.9561    1.5292    1.0702 C   0  0  0  0  0  0  0  0  0  0  0  0
   -2.6025    1.8470    1.7111 C   0  0  0  0  0  0  0  0  0  0  0  0
   -1.4922    1.4919    0.8094 N   0  0  0  0  0  0  0  0  0  0  0  0
    0.1088    2.2317   -1.2918 H   0  0  0  0  0  0  0  0  0  0  0  0
    1.1067    3.3939   -0.3368 H   0  0  0  0  0  0  0  0  0  0  0  0
    2.6259    3.1565   -1.9953 H   0  0  0  0  0  0  0  0  0  0  0  0
    4.8331    3.0628   -3.0489 H   0  0  0  0  0  0  0  0  0  0  0  0
    6.3903    1.2114   -2.5386 H   0  0  0  0  0  0  0  0  0  0  0  0
    5.7332   -0.5747   -0.9849 H   0  0  0  0  0  0  0  0  0  0  0  0
    4.2059   -1.6303    0.4090 H   0  0  0  0  0  0  0  0  0  0  0  0
    1.4448   -0.9706   -0.7576 H   0  0  0  0  0  0  0  0  0  0  0  0
    2.5863   -2.2641   -1.1666 H   0  0  0  0  0  0  0  0  0  0  0  0
    2.1320   -3.4391    0.9203 H   0  0  0  0  0  0  0  0  0  0  0  0
    0.5898   -3.0444    0.1282 H   0  0  0  0  0  0  0  0  0  0  0  0
    0.4411   -2.5037    2.5794 H   0  0  0  0  0  0  0  0  0  0  0  0
    2.9267   -2.3049    2.8837 H   0  0  0  0  0  0  0  0  0  0  0  0
    2.0326   -0.9334    3.6142 H   0  0  0  0  0  0  0  0  0  0  0  0
    4.1037   -0.2587    2.3005 H   0  0  0  0  0  0  0  0  0  0  0  0
    2.6058    0.5610    1.8405 H   0  0  0  0  0  0  0  0  0  0  0  0
   -1.6707   -0.8522    2.1475 H   0  0  0  0  0  0  0  0  0  0  0  0
   -1.1842   -1.9285    0.8111 H   0  0  0  0  0  0  0  0  0  0  0  0
   -0.7402    0.1154   -0.6315 H   0  0  0  0  0  0  0  0  0  0  0  0
   -2.9716    0.5967   -1.2700 H   0  0  0  0  0  0  0  0  0  0  0  0
   -3.4758   -2.1525   -0.4167 H   0  0  0  0  0  0  0  0  0  0  0  0
   -5.1729    0.1277   -2.4495 H   0  0  0  0  0  0  0  0  0  0  0  0
   -5.7868   -1.5086   -1.9721 H   0  0  0  0  0  0  0  0  0  0  0  0
   -3.9283   -0.6168    1.4073 H   0  0  0  0  0  0  0  0  0  0  0  0
   -4.9768   -0.0805    0.0558 H   0  0  0  0  0  0  0  0  0  0  0  0
   -4.7626    1.6760    1.8205 H   0  0  0  0  0  0  0  0  0  0  0  0
   -4.1394    2.2323    0.2280 H   0  0  0  0  0  0  0  0  0  0  0  0
   -2.4979    1.2950    2.6695 H   0  0  0  0  0  0  0  0  0  0  0  0
   -2.5845    2.9343    1.9440 H   0  0  0  0  0  0  0  0  0  0  0  0
  1  2  2  0
  2  3  1  0
  3  4  1  0
  4  5  1  0
  5  6  2  0
  6  7  1  0
  7  8  2  0
  8  9  1  0
  9 10  2  0
 10 11  1  0
 11 12  1  0
 12 13  1  0
 13 14  1  0
 14 15  1  0
 15 16  1  0
 14 17  1  0
 17 18  1  0
 18 19  1  0
 19 20  1  0
 20 21  1  0
 21 22  1  0
 22 23  2  0
 22 24  2  0
 22 25  1  0
 25 26  1  0
 20 27  1  0
 27 28  1  0
 28 29  1  0
 29 30  1  0
 30  2  1  0
 10  5  1  0
 16 11  1  0
 30 19  1  0
  3 31  1  0
  3 32  1  0
  6 33  1  0
  7 34  1  0
  8 35  1  0
  9 36  1  0
 11 37  1  0
 12 38  1  0
 12 39  1  0
 13 40  1  0
 13 41  1  0
 14 42  1  0
 15 43  1  0
 15 44  1  0
 16 45  1  0
 16 46  1  0
 18 47  1  0
 18 48  1  0
 19 49  1  6
 20 50  1  6
 21 51  1  0
 25 52  1  0
 25 53  1  0
 27 54  1  0
 27 55  1  0
 28 56  1  0
 28 57  1  0
 29 58  1  0
 29 59  1  0
M  END
$$$$
