
     RDKit          3D

 67 71  0  0  0  0  0  0  0  0999 V2000
    4.5248    0.0160    2.8187 O   0  0  0  0  0  0  0  0  0  0  0  0
    3.9968   -0.1170    1.4164 S   0  0  0  0  0  6  0  0  0  0  0  0
    3.0497    1.0205    1.1432 O   0  0  0  0  0  0  0  0  0  0  0  0
    5.3659   -0.0479    0.2714 C   0  0  0  0  0  0  0  0  0  0  0  0
    5.9009    1.3860    0.1788 C   0  0  0  0  0  0  0  0  0  0  0  0
    7.3895    1.5163   -0.1114 C   0  0  0  0  0  0  0  0  0  0  0  0
    6.8596    1.7978    1.2877 C   0  0  0  0  0  0  0  0  0  0  0  0
    3.1893   -1.6542    1.2605 N   0  0  0  0  0  0  0  0  0  0  0  0
    2.1623   -1.6428    0.1983 C   0  0  1  0  0  0  0  0  0  0  0  0
    2.0995   -2.9998   -0.4944 C   0  0  0  0  0  0  0  0  0  0  0  0
    1.1914   -2.8925   -1.7198 C   0  0  0  0  0  0  0  0  0  0  0  0
   -0.2092   -2.4024   -1.3302 C   0  0  0  0  0  0  0  0  0  0  0  0
   -0.2017   -1.1639   -0.5055 N   0  0  0  0  0  0  0  0  0  0  0  0
   -0.1641    0.0900   -1.3094 C   0  0  0  0  0  0  0  0  0  0  0  0
   -1.4863    0.3179   -2.1092 C   0  0  0  0  0  0  0  0  0  0  0  0
   -1.9624    1.6749   -2.0001 O   0  0  0  0  0  0  0  0  0  0  0  0
   -3.3153    2.0512   -1.7890 C   0  0  0  0  0  0  0  0  0  0  0  0
   -3.9499    2.8148   -2.7770 C   0  0  0  0  0  0  0  0  0  0  0  0
   -5.2670    3.2492   -2.6052 C   0  0  0  0  0  0  0  0  0  0  0  0
   -5.9666    2.9316   -1.4383 C   0  0  0  0  0  0  0  0  0  0  0  0
   -5.3517    2.1832   -0.4305 C   0  0  0  0  0  0  0  0  0  0  0  0
   -4.0258    1.7520   -0.5798 C   0  0  0  0  0  0  0  0  0  0  0  0
   -3.3682    0.9363    0.5004 C   0  0  1  0  0  0  0  0  0  0  0  0
   -3.2984    1.4812    1.9542 C   0  0  0  0  0  0  0  0  0  0  0  0
   -2.4594    0.5196    2.8873 C   0  0  0  0  0  0  0  0  0  0  0  0
   -1.7405   -0.5649    2.0502 C   0  0  2  0  0  0  0  0  0  0  0  0
   -2.8204   -1.4098    1.3111 C   0  0  0  0  0  0  0  0  0  0  0  0
   -3.8358   -0.5291    0.5402 C   0  0  0  0  0  0  0  0  0  0  0  0
   -0.7895   -1.3495    2.7466 O   0  0  0  0  0  0  0  0  0  0  0  0
    0.0806   -2.0615    1.8426 C   0  0  0  0  0  0  0  0  0  0  0  0
    0.7377   -1.2102    0.6674 C   0  0  0  0  0  0  0  0  0  0  0  0
    6.1464   -0.7655    0.6064 H   0  0  0  0  0  0  0  0  0  0  0  0
    5.0136   -0.3626   -0.7331 H   0  0  0  0  0  0  0  0  0  0  0  0
    5.2595    2.1989   -0.2292 H   0  0  0  0  0  0  0  0  0  0  0  0
    7.6716    2.4314   -0.6742 H   0  0  0  0  0  0  0  0  0  0  0  0
    7.9651    0.5673   -0.1906 H   0  0  0  0  0  0  0  0  0  0  0  0
    7.1141    1.0122    2.0346 H   0  0  0  0  0  0  0  0  0  0  0  0
    6.8127    2.8758    1.5537 H   0  0  0  0  0  0  0  0  0  0  0  0
    2.8074   -1.8993    2.1951 H   0  0  0  0  0  0  0  0  0  0  0  0
    2.4829   -0.9194   -0.5866 H   0  0  0  0  0  0  0  0  0  0  0  0
    3.1183   -3.2990   -0.8233 H   0  0  0  0  0  0  0  0  0  0  0  0
    1.7168   -3.7766    0.2032 H   0  0  0  0  0  0  0  0  0  0  0  0
    1.1075   -3.8896   -2.2008 H   0  0  0  0  0  0  0  0  0  0  0  0
    1.6374   -2.1987   -2.4645 H   0  0  0  0  0  0  0  0  0  0  0  0
   -0.7226   -3.2136   -0.7754 H   0  0  0  0  0  0  0  0  0  0  0  0
   -0.8033   -2.2603   -2.2578 H   0  0  0  0  0  0  0  0  0  0  0  0
   -0.0119    0.9639   -0.6397 H   0  0  0  0  0  0  0  0  0  0  0  0
    0.6977    0.0694   -2.0105 H   0  0  0  0  0  0  0  0  0  0  0  0
   -2.2666   -0.3926   -1.7822 H   0  0  0  0  0  0  0  0  0  0  0  0
   -1.3033    0.0993   -3.1818 H   0  0  0  0  0  0  0  0  0  0  0  0
   -3.4184    3.0728   -3.6847 H   0  0  0  0  0  0  0  0  0  0  0  0
   -5.7458    3.8349   -3.3810 H   0  0  0  0  0  0  0  0  0  0  0  0
   -6.9887    3.2668   -1.3143 H   0  0  0  0  0  0  0  0  0  0  0  0
   -5.9081    1.9409    0.4657 H   0  0  0  0  0  0  0  0  0  0  0  0
   -2.3416    0.9763    0.1645 H   0  0  0  0  0  0  0  0  0  0  0  0
   -2.8280    2.4885    1.9415 H   0  0  0  0  0  0  0  0  0  0  0  0
   -4.3252    1.5937    2.3656 H   0  0  0  0  0  0  0  0  0  0  0  0
   -3.1289    0.0322    3.6300 H   0  0  0  0  0  0  0  0  0  0  0  0
   -1.7050    1.1122    3.4492 H   0  0  0  0  0  0  0  0  0  0  0  0
   -1.1522    0.0601    1.3927 H   0  0  0  0  0  0  0  0  0  0  0  0
   -2.3591   -2.1100    0.5907 H   0  0  0  0  0  0  0  0  0  0  0  0
   -3.3658   -2.0291    2.0585 H   0  0  0  0  0  0  0  0  0  0  0  0
   -3.9865   -0.9328   -0.4832 H   0  0  0  0  0  0  0  0  0  0  0  0
   -4.8249   -0.5785    1.0476 H   0  0  0  0  0  0  0  0  0  0  0  0
   -0.4513   -2.9430    1.4389 H   0  0  0  0  0  0  0  0  0  0  0  0
    0.8549   -2.5268    2.4720 H   0  0  0  0  0  0  0  0  0  0  0  0
    0.8954   -0.1922    1.0773 H   0  0  0  0  0  0  0  0  0  0  0  0
  1  2  2  0
  2  3  2  0
  2  4  1  0
  4  5  1  0
  5  6  1  0
  6  7  1  0
  2  8  1  0
  8  9  1  0
  9 10  1  0
 10 11  1  0
 11 12  1  0
 12 13  1  0
 13 14  1  0
 14 15  1  0
 15 16  1  0
 16 17  1  0
 17 18  2  0
 18 19  1  0
 19 20  2  0
 20 21  1  0
 21 22  2  0
 22 23  1  0
 23 24  1  0
 24 25  1  0
 25 26  1  0
 26 27  1  0
 27 28  1  0
 26 29  1  0
 29 30  1  0
 30 31  1  0
  7  5  1  0
 31  9  1  0
 31 13  1  0
 22 17  1  0
 28 23  1  0
  4 32  1  0
  4 33  1  0
  5 34  1  0
  6 35  1  0
  6 36  1  0
  7 37  1  0
  7 38  1  0
  8 39  1  0
  9 40  1  6
 10 41  1  0
 10 42  1  0
 11 43  1  0
 11 44  1  0
 12 45  1  0
 12 46  1  0
 14 47  1  0
 14 48  1  0
 15 49  1  0
 15 50  1  0
 18 51  1  0
 19 52  1  0
 20 53  1  0
 21 54  1  0
 23 55  1  6
 24 56  1  0
 24 57  1  0
 25 58  1  0
 25 59  1  0
 26 60  1  6
 27 61  1  0
 27 62  1  0
 28 63  1  0
 28 64  1  0
 30 65  1  0
 30 66  1  0
 31 67  1  0
M  END
$$$$
