
     RDKit          3D

 69 72  0  0  0  0  0  0  0  0999 V2000
    4.2634    2.0917    3.1991 C   0  0  0  0  0  0  0  0  0  0  0  0
    4.1496    1.2782    2.0376 O   0  0  0  0  0  0  0  0  0  0  0  0
    2.9211    0.8111    1.5623 C   0  0  0  0  0  0  0  0  0  0  0  0
    1.8573    1.0833    2.1792 O   0  0  0  0  0  0  0  0  0  0  0  0
    2.8925    0.0114    0.3746 N   0  0  0  0  0  0  0  0  0  0  0  0
    1.6586   -0.5277   -0.2231 C   0  0  2  0  0  0  0  0  0  0  0  0
    1.3449   -1.8585    0.4370 C   0  0  0  0  0  0  0  0  0  0  0  0
    2.2616   -2.7220    0.5036 O   0  0  0  0  0  0  0  0  0  0  0  0
    0.0394   -2.1794    0.9775 N   0  0  0  0  0  0  0  0  0  0  0  0
   -0.2771   -3.5382    1.3960 C   0  0  0  0  0  0  0  0  0  0  0  0
   -1.7702   -3.5800    1.7004 C   0  0  1  0  0  0  0  0  0  0  0  0
   -2.3008   -2.1605    1.4976 C   0  0  1  0  0  0  0  0  0  0  0  0
   -1.1199   -1.2852    1.0550 C   0  0  1  0  0  0  0  0  0  0  0  0
   -0.9133   -0.2055    2.0930 C   0  0  0  0  0  0  0  0  0  0  0  0
   -0.3809   -0.5217    3.1920 O   0  0  0  0  0  0  0  0  0  0  0  0
   -1.2660    1.1772    1.8708 N   0  0  0  0  0  0  0  0  0  0  0  0
   -2.5206    1.7213    1.3090 C   0  0  2  0  0  0  0  0  0  0  0  0
   -3.3560    0.7240    0.6182 C   0  0  0  0  0  0  0  0  0  0  0  0
   -4.0289   -0.0400    0.0681 N   0  0  0  0  0  0  0  0  0  0  0  0
   -2.2284    2.9065    0.3587 C   0  0  0  0  0  0  0  0  0  0  0  0
   -1.0794    2.5920   -0.6332 C   0  0  2  0  0  0  0  0  0  0  0  0
    0.2921    3.1713   -0.2040 C   0  0  0  0  0  0  0  0  0  0  0  0
    0.9278    3.8196   -1.4568 C   0  0  2  0  0  0  0  0  0  0  0  0
   -0.0827    3.7605   -2.4958 N   0  0  0  0  0  0  0  0  0  0  0  0
   -1.2604    3.1686   -1.9874 C   0  0  0  0  0  0  0  0  0  0  0  0
   -2.3112    3.0567   -2.6711 O   0  0  0  0  0  0  0  0  0  0  0  0
    2.2220    3.1593   -1.8909 C   0  0  0  0  0  0  0  0  0  0  0  0
    3.1791    3.8926   -2.2532 O   0  0  0  0  0  0  0  0  0  0  0  0
    2.4325    1.7757   -1.8315 O   0  0  0  0  0  0  0  0  0  0  0  0
    1.5619    0.8141   -2.4240 C   0  0  0  0  0  0  0  0  0  0  0  0
    1.7582   -0.5994   -1.8054 C   0  0  0  0  0  0  0  0  0  0  0  0
    0.6406   -1.5011   -2.3828 C   0  0  0  0  0  0  0  0  0  0  0  0
    3.1128   -1.1703   -2.2960 C   0  0  0  0  0  0  0  0  0  0  0  0
   -2.7941   -3.2924    0.5942 C   0  0  0  0  0  0  0  0  0  0  0  0
   -4.2328   -3.7320    0.8836 C   0  0  0  0  0  0  0  0  0  0  0  0
   -2.3715   -3.2738   -0.8840 C   0  0  0  0  0  0  0  0  0  0  0  0
    3.8681    1.5487    4.0834 H   0  0  0  0  0  0  0  0  0  0  0  0
    3.6997    3.0379    3.0566 H   0  0  0  0  0  0  0  0  0  0  0  0
    5.3323    2.3332    3.3727 H   0  0  0  0  0  0  0  0  0  0  0  0
    3.8156   -0.3769    0.0831 H   0  0  0  0  0  0  0  0  0  0  0  0
    0.8290    0.1588    0.0132 H   0  0  0  0  0  0  0  0  0  0  0  0
   -0.0262   -4.2704    0.5982 H   0  0  0  0  0  0  0  0  0  0  0  0
    0.2981   -3.7874    2.3142 H   0  0  0  0  0  0  0  0  0  0  0  0
   -2.1188   -4.0322    2.6536 H   0  0  0  0  0  0  0  0  0  0  0  0
   -2.9667   -1.8280    2.3253 H   0  0  0  0  0  0  0  0  0  0  0  0
   -1.3200   -0.8438    0.0595 H   0  0  0  0  0  0  0  0  0  0  0  0
   -0.7000    1.8710    2.4110 H   0  0  0  0  0  0  0  0  0  0  0  0
   -3.1316    2.1069    2.1528 H   0  0  0  0  0  0  0  0  0  0  0  0
   -1.9957    3.8073    0.9657 H   0  0  0  0  0  0  0  0  0  0  0  0
   -3.1601    3.1611   -0.1933 H   0  0  0  0  0  0  0  0  0  0  0  0
   -1.0032    1.4943   -0.7654 H   0  0  0  0  0  0  0  0  0  0  0  0
    0.9358    2.3845    0.2212 H   0  0  0  0  0  0  0  0  0  0  0  0
    0.1809    3.9481    0.5819 H   0  0  0  0  0  0  0  0  0  0  0  0
    1.1325    4.8906   -1.2351 H   0  0  0  0  0  0  0  0  0  0  0  0
    0.0255    4.1476   -3.4587 H   0  0  0  0  0  0  0  0  0  0  0  0
    0.5123    1.1232   -2.3085 H   0  0  0  0  0  0  0  0  0  0  0  0
    1.7562    0.7894   -3.5192 H   0  0  0  0  0  0  0  0  0  0  0  0
    0.7838   -2.5599   -2.0797 H   0  0  0  0  0  0  0  0  0  0  0  0
    0.6451   -1.4745   -3.4944 H   0  0  0  0  0  0  0  0  0  0  0  0
   -0.3570   -1.1555   -2.0425 H   0  0  0  0  0  0  0  0  0  0  0  0
    3.3542   -2.1236   -1.7826 H   0  0  0  0  0  0  0  0  0  0  0  0
    3.0826   -1.3721   -3.3888 H   0  0  0  0  0  0  0  0  0  0  0  0
    3.9420   -0.4484   -2.1347 H   0  0  0  0  0  0  0  0  0  0  0  0
   -4.9382   -3.0028    0.4376 H   0  0  0  0  0  0  0  0  0  0  0  0
   -4.4384   -3.7977    1.9719 H   0  0  0  0  0  0  0  0  0  0  0  0
   -4.4161   -4.7280    0.4335 H   0  0  0  0  0  0  0  0  0  0  0  0
   -1.2797   -3.1915   -1.0284 H   0  0  0  0  0  0  0  0  0  0  0  0
   -2.6991   -4.2171   -1.3733 H   0  0  0  0  0  0  0  0  0  0  0  0
   -2.8640   -2.4203   -1.3991 H   0  0  0  0  0  0  0  0  0  0  0  0
  1  2  1  0
  2  3  1  0
  3  4  2  0
  3  5  1  0
  5  6  1  0
  6  7  1  0
  7  8  2  0
  7  9  1  0
  9 10  1  0
 10 11  1  0
 11 12  1  0
 12 13  1  0
 13 14  1  0
 14 15  2  0
 14 16  1  0
 16 17  1  0
 17 18  1  0
 18 19  3  0
 17 20  1  0
 20 21  1  0
 21 22  1  0
 22 23  1  0
 23 24  1  0
 24 25  1  0
 25 26  2  0
 23 27  1  0
 27 28  2  0
 27 29  1  0
 29 30  1  0
 30 31  1  0
 31 32  1  0
 31 33  1  0
 12 34  1  0
 34 35  1  0
 34 36  1  0
 31  6  1  0
 13  9  1  0
 25 21  1  0
 34 11  1  0
  1 37  1  0
  1 38  1  0
  1 39  1  0
  5 40  1  0
  6 41  1  6
 10 42  1  0
 10 43  1  0
 11 44  1  1
 12 45  1  1
 13 46  1  6
 16 47  1  0
 17 48  1  1
 20 49  1  0
 20 50  1  0
 21 51  1  6
 22 52  1  0
 22 53  1  0
 23 54  1  1
 24 55  1  0
 30 56  1  0
 30 57  1  0
 32 58  1  0
 32 59  1  0
 32 60  1  0
 33 61  1  0
 33 62  1  0
 33 63  1  0
 35 64  1  0
 35 65  1  0
 35 66  1  0
 36 67  1  0
 36 68  1  0
 36 69  1  0
M  END
$$$$
