
     RDKit          3D

 69 73  0  0  0  0  0  0  0  0999 V2000
  -10.5774    2.6637   -0.4171 C   0  0  0  0  0  0  0  0  0  0  0  0
   -9.6782    1.5866   -0.6517 O   0  0  0  0  0  0  0  0  0  0  0  0
   -8.2964    1.7077   -0.4805 C   0  0  0  0  0  0  0  0  0  0  0  0
   -7.7935    2.8099   -0.1274 O   0  0  0  0  0  0  0  0  0  0  0  0
   -7.4584    0.5769   -0.7541 N   0  0  0  0  0  0  0  0  0  0  0  0
   -6.0535    0.5166   -0.4524 C   0  0  0  0  0  0  0  0  0  0  0  0
   -5.5239    1.1221    0.6964 C   0  0  0  0  0  0  0  0  0  0  0  0
   -4.1590    1.0349    0.9771 C   0  0  0  0  0  0  0  0  0  0  0  0
   -3.2904    0.3250    0.1273 C   0  0  0  0  0  0  0  0  0  0  0  0
   -3.8333   -0.3181   -1.0147 C   0  0  0  0  0  0  0  0  0  0  0  0
   -5.2023   -0.2109   -1.2923 C   0  0  0  0  0  0  0  0  0  0  0  0
   -3.0102   -1.0505   -1.9323 N   0  0  0  0  0  0  0  0  0  0  0  0
   -2.5711   -2.4021   -1.7152 C   0  0  0  0  0  0  0  0  0  0  0  0
   -1.9338   -2.9847   -2.6338 O   0  0  0  0  0  0  0  0  0  0  0  0
   -2.9220   -3.1704   -0.4625 C   0  0  0  0  0  0  0  0  0  0  0  0
   -1.7787   -4.0804    0.0150 C   0  0  0  0  0  0  0  0  0  0  0  0
   -0.6176   -3.2739    0.5315 C   0  0  0  0  0  0  0  0  0  0  0  0
    0.5468   -3.1872   -0.1327 C   0  0  0  0  0  0  0  0  0  0  0  0
    1.6570   -2.2833    0.3468 C   0  0  0  0  0  0  0  0  0  0  0  0
    1.4938   -0.8505   -0.2096 C   0  0  2  0  0  0  0  0  0  0  0  0
    2.6768   -0.0011    0.0387 N   0  0  0  0  0  0  0  0  0  0  0  0
    3.3462    0.0956    1.3449 C   0  0  0  0  0  0  0  0  0  0  0  0
    4.8707   -0.0751    1.2002 C   0  0  0  0  0  0  0  0  0  0  0  0
    5.4520    0.5138   -0.1204 C   0  0  2  0  0  0  0  0  0  0  0  0
    6.8271    1.1181    0.0958 C   0  0  0  0  0  0  0  0  0  0  0  0
    7.9529    0.5608   -0.5376 C   0  0  0  0  0  0  0  0  0  0  0  0
    9.2213    1.1155   -0.3435 C   0  0  0  0  0  0  0  0  0  0  0  0
    9.3809    2.2297    0.4833 C   0  0  0  0  0  0  0  0  0  0  0  0
    8.2712    2.7927    1.1201 C   0  0  0  0  0  0  0  0  0  0  0  0
    8.4728    4.1904    2.1605 Cl  0  0  0  0  0  0  0  0  0  0  0  0
    6.9998    2.2409    0.9285 C   0  0  0  0  0  0  0  0  0  0  0  0
    4.5080    1.5222   -0.8074 C   0  0  0  0  0  0  0  0  0  0  0  0
    3.1624    0.8886   -0.9827 C   0  0  0  0  0  0  0  0  0  0  0  0
    2.4638    1.1595   -1.9968 O   0  0  0  0  0  0  0  0  0  0  0  0
    0.2409   -0.1969    0.3081 C   0  0  0  0  0  0  0  0  0  0  0  0
   -0.8971   -0.1720   -0.4135 N   0  0  0  0  0  0  0  0  0  0  0  0
   -1.8402    0.2529    0.4496 C   0  0  0  0  0  0  0  0  0  0  0  0
   -1.2530    0.4805    1.6814 C   0  0  0  0  0  0  0  0  0  0  0  0
    0.0532    0.1879    1.5862 N   0  0  0  0  0  0  0  0  0  0  0  0
  -10.3395    3.5119   -1.0934 H   0  0  0  0  0  0  0  0  0  0  0  0
  -10.5060    2.9951    0.6406 H   0  0  0  0  0  0  0  0  0  0  0  0
  -11.6140    2.3237   -0.6179 H   0  0  0  0  0  0  0  0  0  0  0  0
   -7.8850   -0.2158   -1.2850 H   0  0  0  0  0  0  0  0  0  0  0  0
   -6.1654    1.6471    1.3913 H   0  0  0  0  0  0  0  0  0  0  0  0
   -3.7873    1.5348    1.8611 H   0  0  0  0  0  0  0  0  0  0  0  0
   -5.6056   -0.6960   -2.1731 H   0  0  0  0  0  0  0  0  0  0  0  0
   -2.8503   -0.6285   -2.8746 H   0  0  0  0  0  0  0  0  0  0  0  0
   -3.8098   -3.7998   -0.6840 H   0  0  0  0  0  0  0  0  0  0  0  0
   -3.2024   -2.4845    0.3636 H   0  0  0  0  0  0  0  0  0  0  0  0
   -2.1542   -4.7112    0.8488 H   0  0  0  0  0  0  0  0  0  0  0  0
   -1.4656   -4.7713   -0.7986 H   0  0  0  0  0  0  0  0  0  0  0  0
   -0.7620   -2.7022    1.4443 H   0  0  0  0  0  0  0  0  0  0  0  0
    0.6892   -3.7382   -1.0581 H   0  0  0  0  0  0  0  0  0  0  0  0
    1.6745   -2.2941    1.4567 H   0  0  0  0  0  0  0  0  0  0  0  0
    2.6245   -2.6974   -0.0101 H   0  0  0  0  0  0  0  0  0  0  0  0
    1.3746   -0.9674   -1.3110 H   0  0  0  0  0  0  0  0  0  0  0  0
    3.1399    1.1015    1.7724 H   0  0  0  0  0  0  0  0  0  0  0  0
    2.9639   -0.6442    2.0732 H   0  0  0  0  0  0  0  0  0  0  0  0
    5.1109   -1.1605    1.2381 H   0  0  0  0  0  0  0  0  0  0  0  0
    5.3496    0.3826    2.0930 H   0  0  0  0  0  0  0  0  0  0  0  0
    5.5490   -0.3408   -0.8297 H   0  0  0  0  0  0  0  0  0  0  0  0
    7.8517   -0.3030   -1.1827 H   0  0  0  0  0  0  0  0  0  0  0  0
   10.0820    0.6803   -0.8348 H   0  0  0  0  0  0  0  0  0  0  0  0
   10.3663    2.6535    0.6290 H   0  0  0  0  0  0  0  0  0  0  0  0
    6.1493    2.6837    1.4317 H   0  0  0  0  0  0  0  0  0  0  0  0
    4.3898    2.4387   -0.1914 H   0  0  0  0  0  0  0  0  0  0  0  0
    4.9229    1.8102   -1.7984 H   0  0  0  0  0  0  0  0  0  0  0  0
   -1.7430    0.7704    2.6009 H   0  0  0  0  0  0  0  0  0  0  0  0
    0.7446    0.1863    2.3668 H   0  0  0  0  0  0  0  0  0  0  0  0
  1  2  1  0
  2  3  1  0
  3  4  2  0
  3  5  1  0
  5  6  1  0
  6  7  2  0
  7  8  1  0
  8  9  2  0
  9 10  1  0
 10 11  2  0
 10 12  1  0
 12 13  1  0
 13 14  2  0
 13 15  1  0
 15 16  1  0
 16 17  1  0
 17 18  2  0
 18 19  1  0
 19 20  1  0
 20 21  1  0
 21 22  1  0
 22 23  1  0
 23 24  1  0
 24 25  1  0
 25 26  2  0
 26 27  1  0
 27 28  2  0
 28 29  1  0
 29 30  1  0
 29 31  2  0
 24 32  1  0
 32 33  1  0
 33 34  2  0
 20 35  1  0
 35 36  2  0
 36 37  1  0
 37 38  2  0
 38 39  1  0
 11  6  1  0
 33 21  1  0
 39 35  1  0
 37  9  1  0
 31 25  1  0
  1 40  1  0
  1 41  1  0
  1 42  1  0
  5 43  1  0
  7 44  1  0
  8 45  1  0
 11 46  1  0
 12 47  1  0
 15 48  1  0
 15 49  1  0
 16 50  1  0
 16 51  1  0
 17 52  1  0
 18 53  1  0
 19 54  1  0
 19 55  1  0
 20 56  1  6
 22 57  1  0
 22 58  1  0
 23 59  1  0
 23 60  1  0
 24 61  1  6
 26 62  1  0
 27 63  1  0
 28 64  1  0
 31 65  1  0
 32 66  1  0
 32 67  1  0
 38 68  1  0
 39 69  1  0
M  END
$$$$
