
     RDKit          3D

115119  0  0  0  0  0  0  0  0999 V2000
   -9.1564   -2.3282    1.9877 C   0  0  0  0  0  0  0  0  0  0  0  0
   -7.9228   -3.0529    2.5178 C   0  0  0  0  0  0  0  0  0  0  0  0
   -6.6105   -2.3103    2.2135 C   0  0  0  0  0  0  0  0  0  0  0  0
   -6.2958   -2.2556    0.7080 C   0  0  0  0  0  0  0  0  0  0  0  0
   -5.0026   -1.7032    0.4856 O   0  0  0  0  0  0  0  0  0  0  0  0
   -4.6960   -0.3492    0.6243 C   0  0  0  0  0  0  0  0  0  0  0  0
   -5.6060    0.4693    0.9454 O   0  0  0  0  0  0  0  0  0  0  0  0
   -3.3287    0.1634    0.3143 C   0  0  0  0  0  0  0  0  0  0  0  0
   -3.2389    1.6499    0.0226 C   0  0  0  0  0  0  0  0  0  0  0  0
   -3.6503    1.9392   -1.4252 C   0  0  0  0  0  0  0  0  0  0  0  0
   -3.3275    3.3589   -1.8204 C   0  0  0  0  0  0  0  0  0  0  0  0
   -4.1723    4.4012   -1.6610 C   0  0  0  0  0  0  0  0  0  0  0  0
   -3.7293    5.7616   -2.1343 C   0  0  0  0  0  0  0  0  0  0  0  0
   -5.5387    4.2403   -1.0318 C   0  0  0  0  0  0  0  0  0  0  0  0
   -2.2356   -0.6579    0.2674 C   0  0  0  0  0  0  0  0  0  0  0  0
   -2.1632   -1.9829    1.0229 C   0  0  1  0  0  0  0  0  0  0  0  0
   -2.8605   -3.0250    0.3282 O   0  0  0  0  0  0  0  0  0  0  0  0
   -3.1804   -4.2412    0.9279 C   0  0  0  0  0  0  0  0  0  0  0  0
   -3.6132   -5.3897    0.0830 C   0  0  0  0  0  0  0  0  0  0  0  0
   -3.0289   -4.4068    2.1703 O   0  0  0  0  0  0  0  0  0  0  0  0
   -0.6575   -2.3338    1.0555 C   0  0  0  0  0  0  0  0  0  0  0  0
   -0.0812   -1.6558   -0.2093 C   0  0  1  0  0  0  0  0  0  0  0  0
   -0.5995   -2.5082   -1.4422 C   0  0  0  0  0  0  0  0  0  0  0  0
   -0.8078   -0.2805   -0.1154 C   0  0  1  0  0  0  0  0  0  0  0  0
   -0.4306    0.6209   -1.3181 C   0  0  0  0  0  0  0  0  0  0  0  0
    1.1072    0.8895   -1.3230 C   0  0  1  0  0  0  0  0  0  0  0  0
    1.4814    1.5091   -0.1083 O   0  0  0  0  0  0  0  0  0  0  0  0
    1.5739    2.9159   -0.1572 C   0  0  0  0  0  0  0  0  0  0  0  0
    2.0179    3.3713    1.2566 C   0  0  0  0  0  0  0  0  0  0  0  0
    2.7493    4.5867    1.2767 O   0  0  0  0  0  0  0  0  0  0  0  0
    4.1151    4.4049    0.9286 C   0  0  0  0  0  0  0  0  0  0  0  0
    4.9800    3.7471    2.0342 C   0  0  0  0  0  0  0  0  0  0  0  0
    5.9155    2.8724    1.4284 O   0  0  0  0  0  0  0  0  0  0  0  0
    6.2984    1.8062    2.2871 C   0  0  0  0  0  0  0  0  0  0  0  0
    5.2942    0.6318    2.2525 C   0  0  0  0  0  0  0  0  0  0  0  0
    5.4883   -0.3718    1.2543 O   0  0  0  0  0  0  0  0  0  0  0  0
    5.7174    0.0786   -0.0792 C   0  0  2  0  0  0  0  0  0  0  0  0
    4.7292    1.1691   -0.5808 C   0  0  0  0  0  0  0  0  0  0  0  0
    4.0985    0.8881   -1.9366 C   0  0  0  0  0  0  0  0  0  0  0  0
    3.3739   -0.4913   -2.0306 C   0  0  1  0  0  0  0  0  0  0  0  0
    3.2542   -0.7261   -3.5742 C   0  0  0  0  0  0  0  0  0  0  0  0
    4.3290   -1.6571   -1.4691 C   0  0  0  0  0  0  0  0  0  0  0  0
    3.7364   -2.6560   -0.4403 C   0  0  0  0  0  0  0  0  0  0  0  0
    2.2212   -2.7989   -0.5409 C   0  0  0  0  0  0  0  0  0  0  0  0
    1.5072   -1.4554   -0.2488 C   0  0  2  0  0  0  0  0  0  0  0  0
    2.0186   -0.9321    1.1324 C   0  0  0  0  0  0  0  0  0  0  0  0
    1.8681   -0.4729   -1.4370 C   0  0  1  0  0  0  0  0  0  0  0  0
    5.7506   -1.1412   -1.0480 C   0  0  2  0  0  0  0  0  0  0  0  0
    6.6953   -2.2570   -0.5523 C   0  0  0  0  0  0  0  0  0  0  0  0
  -10.0672   -2.8007    2.4042 H   0  0  0  0  0  0  0  0  0  0  0  0
   -9.1588   -1.2620    2.3008 H   0  0  0  0  0  0  0  0  0  0  0  0
   -9.1980   -2.3802    0.8802 H   0  0  0  0  0  0  0  0  0  0  0  0
   -7.8920   -4.0760    2.0896 H   0  0  0  0  0  0  0  0  0  0  0  0
   -8.0243   -3.1531    3.6229 H   0  0  0  0  0  0  0  0  0  0  0  0
   -6.6729   -1.2826    2.6249 H   0  0  0  0  0  0  0  0  0  0  0  0
   -5.7754   -2.8266    2.7383 H   0  0  0  0  0  0  0  0  0  0  0  0
   -6.3135   -3.2907    0.2907 H   0  0  0  0  0  0  0  0  0  0  0  0
   -7.0611   -1.6464    0.1672 H   0  0  0  0  0  0  0  0  0  0  0  0
   -3.9189    2.2024    0.6978 H   0  0  0  0  0  0  0  0  0  0  0  0
   -2.2409    2.0533    0.2834 H   0  0  0  0  0  0  0  0  0  0  0  0
   -3.0967    1.2566   -2.1108 H   0  0  0  0  0  0  0  0  0  0  0  0
   -4.7292    1.7182   -1.5727 H   0  0  0  0  0  0  0  0  0  0  0  0
   -2.3610    3.5350   -2.2885 H   0  0  0  0  0  0  0  0  0  0  0  0
   -4.4968    6.5448   -1.9139 H   0  0  0  0  0  0  0  0  0  0  0  0
   -3.5704    5.7281   -3.2342 H   0  0  0  0  0  0  0  0  0  0  0  0
   -2.7724    6.0395   -1.6366 H   0  0  0  0  0  0  0  0  0  0  0  0
   -6.0757    5.2110   -0.9779 H   0  0  0  0  0  0  0  0  0  0  0  0
   -6.1595    3.5483   -1.6280 H   0  0  0  0  0  0  0  0  0  0  0  0
   -5.4473    3.8552    0.0055 H   0  0  0  0  0  0  0  0  0  0  0  0
   -2.5645   -1.8489    2.0514 H   0  0  0  0  0  0  0  0  0  0  0  0
   -2.7408   -6.0524   -0.1070 H   0  0  0  0  0  0  0  0  0  0  0  0
   -4.3996   -5.9573    0.6154 H   0  0  0  0  0  0  0  0  0  0  0  0
   -4.0176   -5.0230   -0.8869 H   0  0  0  0  0  0  0  0  0  0  0  0
   -0.2291   -1.9085    1.9899 H   0  0  0  0  0  0  0  0  0  0  0  0
   -0.4785   -3.4328    1.0786 H   0  0  0  0  0  0  0  0  0  0  0  0
   -1.6499   -2.2821   -1.6990 H   0  0  0  0  0  0  0  0  0  0  0  0
   -0.0666   -2.3593   -2.3960 H   0  0  0  0  0  0  0  0  0  0  0  0
   -0.5085   -3.6000   -1.2234 H   0  0  0  0  0  0  0  0  0  0  0  0
   -0.4785    0.2875    0.7787 H   0  0  0  0  0  0  0  0  0  0  0  0
   -0.7529    0.1504   -2.2693 H   0  0  0  0  0  0  0  0  0  0  0  0
   -0.9078    1.6029   -1.2808 H   0  0  0  0  0  0  0  0  0  0  0  0
    1.3087    1.5243   -2.2124 H   0  0  0  0  0  0  0  0  0  0  0  0
    2.3029    3.2310   -0.9322 H   0  0  0  0  0  0  0  0  0  0  0  0
    0.5839    3.3691   -0.4046 H   0  0  0  0  0  0  0  0  0  0  0  0
    2.5698    2.5592    1.7733 H   0  0  0  0  0  0  0  0  0  0  0  0
    1.0943    3.5313    1.8626 H   0  0  0  0  0  0  0  0  0  0  0  0
    4.2091    3.8762   -0.0332 H   0  0  0  0  0  0  0  0  0  0  0  0
    4.5467    5.4112    0.7268 H   0  0  0  0  0  0  0  0  0  0  0  0
    4.3474    3.2505    2.8018 H   0  0  0  0  0  0  0  0  0  0  0  0
    5.5498    4.5469    2.5578 H   0  0  0  0  0  0  0  0  0  0  0  0
    6.4334    2.1581    3.3373 H   0  0  0  0  0  0  0  0  0  0  0  0
    7.2868    1.4275    1.9731 H   0  0  0  0  0  0  0  0  0  0  0  0
    5.4016    0.1070    3.2317 H   0  0  0  0  0  0  0  0  0  0  0  0
    4.2583    0.9946    2.2578 H   0  0  0  0  0  0  0  0  0  0  0  0
    6.7409    0.5099   -0.1197 H   0  0  0  0  0  0  0  0  0  0  0  0
    3.9281    1.3845    0.1446 H   0  0  0  0  0  0  0  0  0  0  0  0
    5.3208    2.0970   -0.7408 H   0  0  0  0  0  0  0  0  0  0  0  0
    3.4510    1.7361   -2.2252 H   0  0  0  0  0  0  0  0  0  0  0  0
    4.9230    0.9368   -2.6856 H   0  0  0  0  0  0  0  0  0  0  0  0
    2.6390    0.0634   -4.0493 H   0  0  0  0  0  0  0  0  0  0  0  0
    4.2477   -0.7412   -4.0704 H   0  0  0  0  0  0  0  0  0  0  0  0
    2.7845   -1.7063   -3.8020 H   0  0  0  0  0  0  0  0  0  0  0  0
    4.5606   -2.3306   -2.3208 H   0  0  0  0  0  0  0  0  0  0  0  0
    4.0406   -2.4009    0.5865 H   0  0  0  0  0  0  0  0  0  0  0  0
    4.1764   -3.6629   -0.6203 H   0  0  0  0  0  0  0  0  0  0  0  0
    1.8933   -3.5784    0.1775 H   0  0  0  0  0  0  0  0  0  0  0  0
    1.9778   -3.1697   -1.5641 H   0  0  0  0  0  0  0  0  0  0  0  0
    3.0044   -0.4668    1.0102 H   0  0  0  0  0  0  0  0  0  0  0  0
    2.1144   -1.7729    1.8553 H   0  0  0  0  0  0  0  0  0  0  0  0
    1.3696   -0.1848    1.6268 H   0  0  0  0  0  0  0  0  0  0  0  0
    1.3147   -0.9089   -2.2720 H   0  0  0  0  0  0  0  0  0  0  0  0
    6.2321   -0.7796   -1.9832 H   0  0  0  0  0  0  0  0  0  0  0  0
    7.7145   -1.8456   -0.4010 H   0  0  0  0  0  0  0  0  0  0  0  0
    6.3560   -2.6874    0.4101 H   0  0  0  0  0  0  0  0  0  0  0  0
    6.7573   -3.0630   -1.3113 H   0  0  0  0  0  0  0  0  0  0  0  0
  1  2  1  0
  2  3  1  0
  3  4  1  0
  4  5  1  0
  5  6  1  0
  6  7  2  0
  6  8  1  0
  8  9  1  0
  9 10  1  0
 10 11  1  0
 11 12  2  3
 12 13  1  0
 12 14  1  0
  8 15  2  0
 15 16  1  0
 16 17  1  0
 17 18  1  0
 18 19  1  0
 18 20  2  0
 16 21  1  0
 21 22  1  0
 22 23  1  6
 22 24  1  0
 24 25  1  0
 25 26  1  0
 26 27  1  0
 27 28  1  0
 28 29  1  0
 29 30  1  0
 30 31  1  0
 31 32  1  0
 32 33  1  0
 33 34  1  0
 34 35  1  0
 35 36  1  0
 36 37  1  0
 37 38  1  0
 38 39  1  0
 39 40  1  0
 40 41  1  6
 40 42  1  0
 42 43  1  0
 43 44  1  0
 44 45  1  0
 45 46  1  1
 45 47  1  0
 42 48  1  0
 48 49  1  0
 24 15  1  0
 47 26  1  0
 45 22  1  0
 48 37  1  0
 47 40  1  0
  1 50  1  0
  1 51  1  0
  1 52  1  0
  2 53  1  0
  2 54  1  0
  3 55  1  0
  3 56  1  0
  4 57  1  0
  4 58  1  0
  9 59  1  0
  9 60  1  0
 10 61  1  0
 10 62  1  0
 11 63  1  0
 13 64  1  0
 13 65  1  0
 13 66  1  0
 14 67  1  0
 14 68  1  0
 14 69  1  0
 16 70  1  1
 19 71  1  0
 19 72  1  0
 19 73  1  0
 21 74  1  0
 21 75  1  0
 23 76  1  0
 23 77  1  0
 23 78  1  0
 24 79  1  1
 25 80  1  0
 25 81  1  0
 26 82  1  6
 28 83  1  0
 28 84  1  0
 29 85  1  0
 29 86  1  0
 31 87  1  0
 31 88  1  0
 32 89  1  0
 32 90  1  0
 34 91  1  0
 34 92  1  0
 35 93  1  0
 35 94  1  0
 37 95  1  1
 38 96  1  0
 38 97  1  0
 39 98  1  0
 39 99  1  0
 41100  1  0
 41101  1  0
 41102  1  0
 42103  1  0
 43104  1  0
 43105  1  0
 44106  1  0
 44107  1  0
 46108  1  0
 46109  1  0
 46110  1  0
 47111  1  6
 48112  1  6
 49113  1  0
 49114  1  0
 49115  1  0
M  END
$$$$
