
     RDKit          3D

134135  0  0  0  0  0  0  0  0999 V2000
    9.1816   -1.9343   -0.8223 C   0  0  0  0  0  0  0  0  0  0  0  0
    7.9213   -1.2938   -1.3910 C   0  0  0  0  0  0  0  0  0  0  0  0
    6.9423   -0.9165   -0.2618 C   0  0  0  0  0  0  0  0  0  0  0  0
    5.5386   -0.4873   -0.7817 C   0  0  2  0  0  0  0  0  0  0  0  0
    5.6370    0.8494   -1.5341 C   0  0  0  0  0  0  0  0  0  0  0  0
    4.5201   -0.4553    0.4134 C   0  0  1  0  0  0  0  0  0  0  0  0
    3.3601    0.3467    0.1381 O   0  0  0  0  0  0  0  0  0  0  0  0
    3.1896    1.6616    0.5916 C   0  0  0  0  0  0  0  0  0  0  0  0
    3.8795    2.5949    0.0792 O   0  0  0  0  0  0  0  0  0  0  0  0
    2.0841    1.9832    1.5580 C   0  0  1  0  0  0  0  0  0  0  0  0
    2.2790    1.2531    2.8949 C   0  0  0  0  0  0  0  0  0  0  0  0
    1.9761    3.4353    1.8019 N   0  0  0  0  0  0  0  0  0  0  0  0
    3.0593    4.1802    2.4585 C   0  0  0  0  0  0  0  0  0  0  0  0
    0.7217    4.1008    1.5716 C   0  0  0  0  0  0  0  0  0  0  0  0
    0.2321    4.8263    2.4911 O   0  0  0  0  0  0  0  0  0  0  0  0
    0.0525    4.0290    0.2165 C   0  0  2  0  0  0  0  0  0  0  0  0
   -0.0877    5.4157   -0.4963 C   0  0  1  0  0  0  0  0  0  0  0  0
   -0.8149    6.4806    0.3583 C   0  0  0  0  0  0  0  0  0  0  0  0
    1.3003    5.9355   -0.9480 C   0  0  0  0  0  0  0  0  0  0  0  0
    1.2092    7.1942   -1.8124 C   0  0  0  0  0  0  0  0  0  0  0  0
   -1.2220    3.3002    0.2447 N   0  0  0  0  0  0  0  0  0  0  0  0
   -2.2852    3.5322    1.1726 C   0  0  0  0  0  0  0  0  0  0  0  0
   -2.0797    3.3970    2.4061 O   0  0  0  0  0  0  0  0  0  0  0  0
   -3.6837    3.8737    0.7084 C   0  0  0  0  0  0  0  0  0  0  0  0
   -3.7853    3.9893   -0.7611 N   0  0  0  0  0  0  0  0  0  0  0  0
   -3.7708    5.3210   -1.3750 C   0  0  0  0  0  0  0  0  0  0  0  0
   -3.8901    2.8277   -1.6265 C   0  0  0  0  0  0  0  0  0  0  0  0
   -3.6317    2.9533   -2.8553 O   0  0  0  0  0  0  0  0  0  0  0  0
   -4.3533    1.4790   -1.0932 C   0  0  1  0  0  0  0  0  0  0  0  0
   -5.8884    1.4873   -0.8822 C   0  0  0  0  0  0  0  0  0  0  0  0
   -6.3718    0.2514   -0.1615 C   0  0  0  0  0  0  0  0  0  0  0  0
   -6.3789    0.2146    1.2422 C   0  0  0  0  0  0  0  0  0  0  0  0
   -6.7974   -0.9358    1.9145 C   0  0  0  0  0  0  0  0  0  0  0  0
   -7.1802   -2.0691    1.1961 C   0  0  0  0  0  0  0  0  0  0  0  0
   -7.1739   -2.0428   -0.2000 C   0  0  0  0  0  0  0  0  0  0  0  0
   -6.7715   -0.8886   -0.8815 C   0  0  0  0  0  0  0  0  0  0  0  0
   -3.9215    0.3476   -1.9555 N   0  0  0  0  0  0  0  0  0  0  0  0
   -4.3750    0.2321   -3.3504 C   0  0  0  0  0  0  0  0  0  0  0  0
   -3.0706   -0.7150   -1.4658 C   0  0  0  0  0  0  0  0  0  0  0  0
   -2.2993   -1.2949   -2.2821 O   0  0  0  0  0  0  0  0  0  0  0  0
   -3.0516   -1.1599   -0.0089 C   0  0  2  0  0  0  0  0  0  0  0  0
   -1.6834   -0.8920    0.6079 C   0  0  0  0  0  0  0  0  0  0  0  0
   -3.4449   -2.5679    0.1397 N   0  0  0  0  0  0  0  0  0  0  0  0
   -3.0957   -3.6209   -0.7727 C   0  0  0  0  0  0  0  0  0  0  0  0
   -3.9731   -4.0549   -1.5739 O   0  0  0  0  0  0  0  0  0  0  0  0
   -1.7644   -4.3304   -0.6903 C   0  0  1  0  0  0  0  0  0  0  0  0
   -1.9067   -5.6182    0.1767 C   0  0  1  0  0  0  0  0  0  0  0  0
   -0.6358   -6.4847    0.1655 C   0  0  0  0  0  0  0  0  0  0  0  0
   -2.3605   -5.3387    1.6321 C   0  0  0  0  0  0  0  0  0  0  0  0
   -1.3765   -4.5036    2.4582 C   0  0  0  0  0  0  0  0  0  0  0  0
   -1.3824   -4.6575   -2.0354 O   0  0  0  0  0  0  0  0  0  0  0  0
   -0.0771   -4.9020   -2.4990 C   0  0  0  0  0  0  0  0  0  0  0  0
    0.0662   -5.6498   -3.5054 O   0  0  0  0  0  0  0  0  0  0  0  0
    1.1346   -4.3262   -1.8572 C   0  0  0  0  0  0  0  0  0  0  0  0
    2.3335   -5.2272   -1.6909 C   0  0  0  0  0  0  0  0  0  0  0  0
    1.1967   -2.9974   -1.6154 C   0  0  0  0  0  0  0  0  0  0  0  0
    2.4410   -2.2674   -1.1630 C   0  0  0  0  0  0  0  0  0  0  0  0
    2.6387   -2.3415    0.3692 C   0  0  2  0  0  0  0  0  0  0  0  0
    1.6759   -1.5399    1.0114 O   0  0  0  0  0  0  0  0  0  0  0  0
    4.0783   -1.9149    0.8094 C   0  0  2  0  0  0  0  0  0  0  0  0
    4.2688   -2.1313    2.3232 C   0  0  0  0  0  0  0  0  0  0  0  0
    9.8965   -2.1354   -1.6487 H   0  0  0  0  0  0  0  0  0  0  0  0
    9.6646   -1.2447   -0.0892 H   0  0  0  0  0  0  0  0  0  0  0  0
    8.9407   -2.8983   -0.3166 H   0  0  0  0  0  0  0  0  0  0  0  0
    7.4342   -2.0090   -2.0952 H   0  0  0  0  0  0  0  0  0  0  0  0
    8.2220   -0.3790   -1.9463 H   0  0  0  0  0  0  0  0  0  0  0  0
    7.3814   -0.0925    0.3443 H   0  0  0  0  0  0  0  0  0  0  0  0
    6.8392   -1.7968    0.4232 H   0  0  0  0  0  0  0  0  0  0  0  0
    5.1840   -1.2431   -1.5190 H   0  0  0  0  0  0  0  0  0  0  0  0
    6.0342    1.6458   -0.8629 H   0  0  0  0  0  0  0  0  0  0  0  0
    4.6361    1.1521   -1.9298 H   0  0  0  0  0  0  0  0  0  0  0  0
    6.3019    0.7454   -2.4168 H   0  0  0  0  0  0  0  0  0  0  0  0
    5.0467    0.0156    1.2769 H   0  0  0  0  0  0  0  0  0  0  0  0
    1.1351    1.5990    1.1076 H   0  0  0  0  0  0  0  0  0  0  0  0
    1.9982    0.1833    2.8098 H   0  0  0  0  0  0  0  0  0  0  0  0
    1.6149    1.7004    3.6712 H   0  0  0  0  0  0  0  0  0  0  0  0
    3.3309    1.3184    3.2474 H   0  0  0  0  0  0  0  0  0  0  0  0
    3.9768    3.5586    2.5423 H   0  0  0  0  0  0  0  0  0  0  0  0
    2.7468    4.4809    3.4839 H   0  0  0  0  0  0  0  0  0  0  0  0
    3.3023    5.0829    1.8532 H   0  0  0  0  0  0  0  0  0  0  0  0
    0.7250    3.4336   -0.4335 H   0  0  0  0  0  0  0  0  0  0  0  0
   -0.7026    5.2507   -1.4161 H   0  0  0  0  0  0  0  0  0  0  0  0
   -1.2217    7.2938   -0.2902 H   0  0  0  0  0  0  0  0  0  0  0  0
   -0.1257    6.9403    1.0950 H   0  0  0  0  0  0  0  0  0  0  0  0
   -1.6735    6.0456    0.8992 H   0  0  0  0  0  0  0  0  0  0  0  0
    1.8063    5.1426   -1.5385 H   0  0  0  0  0  0  0  0  0  0  0  0
    1.9293    6.1399   -0.0589 H   0  0  0  0  0  0  0  0  0  0  0  0
    0.4864    7.0337   -2.6426 H   0  0  0  0  0  0  0  0  0  0  0  0
    0.8948    8.0646   -1.2112 H   0  0  0  0  0  0  0  0  0  0  0  0
    2.2093    7.4091   -2.2493 H   0  0  0  0  0  0  0  0  0  0  0  0
   -1.4114    2.6401   -0.5633 H   0  0  0  0  0  0  0  0  0  0  0  0
   -4.4188    3.1420    1.1073 H   0  0  0  0  0  0  0  0  0  0  0  0
   -3.9636    4.8351    1.1893 H   0  0  0  0  0  0  0  0  0  0  0  0
   -4.7639    5.5446   -1.8109 H   0  0  0  0  0  0  0  0  0  0  0  0
   -3.0030    5.3637   -2.1791 H   0  0  0  0  0  0  0  0  0  0  0  0
   -3.5241    6.1056   -0.6349 H   0  0  0  0  0  0  0  0  0  0  0  0
   -3.8723    1.3871   -0.1074 H   0  0  0  0  0  0  0  0  0  0  0  0
   -6.4223    1.5982   -1.8646 H   0  0  0  0  0  0  0  0  0  0  0  0
   -6.1828    2.3894   -0.2931 H   0  0  0  0  0  0  0  0  0  0  0  0
   -6.0503    1.0820    1.8181 H   0  0  0  0  0  0  0  0  0  0  0  0
   -6.7938   -0.9549    2.9975 H   0  0  0  0  0  0  0  0  0  0  0  0
   -7.4916   -2.9573    1.7260 H   0  0  0  0  0  0  0  0  0  0  0  0
   -7.4707   -2.9223   -0.7528 H   0  0  0  0  0  0  0  0  0  0  0  0
   -6.7591   -0.8882   -1.9643 H   0  0  0  0  0  0  0  0  0  0  0  0
   -5.0995    1.0331   -3.6199 H   0  0  0  0  0  0  0  0  0  0  0  0
   -3.5012    0.3097   -4.0331 H   0  0  0  0  0  0  0  0  0  0  0  0
   -4.8650   -0.7551   -3.5042 H   0  0  0  0  0  0  0  0  0  0  0  0
   -3.7789   -0.5815    0.5765 H   0  0  0  0  0  0  0  0  0  0  0  0
   -1.4434    0.1929    0.5475 H   0  0  0  0  0  0  0  0  0  0  0  0
   -0.8938   -1.4332    0.0660 H   0  0  0  0  0  0  0  0  0  0  0  0
   -1.6836   -1.1826    1.6721 H   0  0  0  0  0  0  0  0  0  0  0  0
   -4.2932   -2.7502    0.7147 H   0  0  0  0  0  0  0  0  0  0  0  0
   -1.0109   -3.6546   -0.2415 H   0  0  0  0  0  0  0  0  0  0  0  0
   -2.7070   -6.2438   -0.2784 H   0  0  0  0  0  0  0  0  0  0  0  0
   -0.4939   -6.9559   -0.8297 H   0  0  0  0  0  0  0  0  0  0  0  0
    0.2673   -5.8868    0.4059 H   0  0  0  0  0  0  0  0  0  0  0  0
   -0.7096   -7.3218    0.9032 H   0  0  0  0  0  0  0  0  0  0  0  0
   -2.5192   -6.3140    2.1616 H   0  0  0  0  0  0  0  0  0  0  0  0
   -3.3460   -4.8384    1.6371 H   0  0  0  0  0  0  0  0  0  0  0  0
   -0.3955   -5.0336    2.5525 H   0  0  0  0  0  0  0  0  0  0  0  0
   -1.2280   -3.5083    2.0197 H   0  0  0  0  0  0  0  0  0  0  0  0
   -1.7908   -4.3643    3.4904 H   0  0  0  0  0  0  0  0  0  0  0  0
    2.0975   -6.2728   -1.9831 H   0  0  0  0  0  0  0  0  0  0  0  0
    3.1794   -4.8773   -2.3246 H   0  0  0  0  0  0  0  0  0  0  0  0
    2.6487   -5.2522   -0.6226 H   0  0  0  0  0  0  0  0  0  0  0  0
    0.3396   -2.3835   -1.8731 H   0  0  0  0  0  0  0  0  0  0  0  0
    2.3267   -1.2092   -1.4809 H   0  0  0  0  0  0  0  0  0  0  0  0
    3.3260   -2.6634   -1.7031 H   0  0  0  0  0  0  0  0  0  0  0  0
    2.5056   -3.4090    0.6678 H   0  0  0  0  0  0  0  0  0  0  0  0
    1.1077   -2.1405    1.5620 H   0  0  0  0  0  0  0  0  0  0  0  0
    4.7506   -2.6581    0.3235 H   0  0  0  0  0  0  0  0  0  0  0  0
    3.8471   -3.1148    2.6490 H   0  0  0  0  0  0  0  0  0  0  0  0
    3.7935   -1.3223    2.9077 H   0  0  0  0  0  0  0  0  0  0  0  0
    5.3502   -2.1441    2.5567 H   0  0  0  0  0  0  0  0  0  0  0  0
  1  2  1  0
  2  3  1  0
  3  4  1  0
  4  5  1  0
  4  6  1  0
  6  7  1  0
  7  8  1  0
  8  9  2  0
  8 10  1  0
 10 11  1  0
 10 12  1  0
 12 13  1  0
 12 14  1  0
 14 15  2  0
 14 16  1  0
 16 17  1  0
 17 18  1  0
 17 19  1  0
 19 20  1  0
 16 21  1  0
 21 22  1  0
 22 23  2  0
 22 24  1  0
 24 25  1  0
 25 26  1  0
 25 27  1  0
 27 28  2  0
 27 29  1  0
 29 30  1  0
 30 31  1  0
 31 32  2  0
 32 33  1  0
 33 34  2  0
 34 35  1  0
 35 36  2  0
 29 37  1  0
 37 38  1  0
 37 39  1  0
 39 40  2  0
 39 41  1  0
 41 42  1  0
 41 43  1  0
 43 44  1  0
 44 45  2  0
 44 46  1  0
 46 47  1  0
 47 48  1  0
 47 49  1  0
 49 50  1  0
 46 51  1  0
 51 52  1  0
 52 53  2  0
 52 54  1  0
 54 55  1  0
 54 56  2  0
 56 57  1  0
 57 58  1  0
 58 59  1  0
 58 60  1  0
 60 61  1  0
 60  6  1  0
 36 31  1  0
  1 62  1  0
  1 63  1  0
  1 64  1  0
  2 65  1  0
  2 66  1  0
  3 67  1  0
  3 68  1  0
  4 69  1  6
  5 70  1  0
  5 71  1  0
  5 72  1  0
  6 73  1  1
 10 74  1  6
 11 75  1  0
 11 76  1  0
 11 77  1  0
 13 78  1  0
 13 79  1  0
 13 80  1  0
 16 81  1  6
 17 82  1  6
 18 83  1  0
 18 84  1  0
 18 85  1  0
 19 86  1  0
 19 87  1  0
 20 88  1  0
 20 89  1  0
 20 90  1  0
 21 91  1  0
 24 92  1  0
 24 93  1  0
 26 94  1  0
 26 95  1  0
 26 96  1  0
 29 97  1  1
 30 98  1  0
 30 99  1  0
 32100  1  0
 33101  1  0
 34102  1  0
 35103  1  0
 36104  1  0
 38105  1  0
 38106  1  0
 38107  1  0
 41108  1  1
 42109  1  0
 42110  1  0
 42111  1  0
 43112  1  0
 46113  1  1
 47114  1  6
 48115  1  0
 48116  1  0
 48117  1  0
 49118  1  0
 49119  1  0
 50120  1  0
 50121  1  0
 50122  1  0
 55123  1  0
 55124  1  0
 55125  1  0
 56126  1  0
 57127  1  0
 57128  1  0
 58129  1  1
 59130  1  0
 60131  1  6
 61132  1  0
 61133  1  0
 61134  1  0
M  END
$$$$
