
     RDKit          3D

 84 88  0  0  0  0  0  0  0  0999 V2000
    2.8869    2.5261   -1.0288 O   0  0  0  0  0  0  0  0  0  0  0  0
    2.8153    1.2740   -0.8889 C   0  0  0  0  0  0  0  0  0  0  0  0
    3.4512    0.6404    0.2287 N   0  0  0  0  0  0  0  0  0  0  0  0
    3.8826    1.3885    1.4059 C   0  0  0  0  0  0  0  0  0  0  0  0
    2.6615    1.9514    2.1514 C   0  0  0  0  0  0  0  0  0  0  0  0
    2.8303    2.1106    3.6545 C   0  0  0  0  0  0  0  0  0  0  0  0
    1.9730    0.9785    3.1003 C   0  0  0  0  0  0  0  0  0  0  0  0
    2.0808    0.4524   -1.9158 C   0  0  2  0  0  0  0  0  0  0  0  0
    2.9308    0.2743   -3.1995 C   0  0  0  0  0  0  0  0  0  0  0  0
    3.6582   -1.0824   -3.2302 C   0  0  0  0  0  0  0  0  0  0  0  0
    2.6978   -2.2467   -3.5738 C   0  0  0  0  0  0  0  0  0  0  0  0
    2.8354   -3.4094   -2.5858 C   0  0  0  0  0  0  0  0  0  0  0  0
    1.9695   -4.4895   -2.9447 O   0  0  0  0  0  0  0  0  0  0  0  0
    0.6472   -4.6508   -2.5037 C   0  0  0  0  0  0  0  0  0  0  0  0
    0.0626   -5.9153   -2.6253 C   0  0  0  0  0  0  0  0  0  0  0  0
   -1.2183   -6.1588   -2.1213 C   0  0  0  0  0  0  0  0  0  0  0  0
   -1.9389   -5.1292   -1.5152 C   0  0  0  0  0  0  0  0  0  0  0  0
   -1.3951   -3.8371   -1.4252 C   0  0  0  0  0  0  0  0  0  0  0  0
   -0.1001   -3.6030   -1.9293 C   0  0  0  0  0  0  0  0  0  0  0  0
   -2.1854   -2.7225   -0.7713 C   0  0  0  0  0  0  0  0  0  0  0  0
   -1.6815   -2.4163    0.6592 C   0  0  2  0  0  0  0  0  0  0  0  0
   -2.5893   -1.5810    1.4767 N   0  0  0  0  0  0  0  0  0  0  0  0
   -2.3168   -1.3071    2.8809 C   0  0  0  0  0  0  0  0  0  0  0  0
   -3.5015   -0.4787    3.4095 C   0  0  0  0  0  0  0  0  0  0  0  0
   -4.3570   -0.0894    2.1975 C   0  0  0  0  0  0  0  0  0  0  0  0
   -3.7729   -0.8816    1.0975 C   0  0  0  0  0  0  0  0  0  0  0  0
   -4.2575   -0.8911   -0.0668 O   0  0  0  0  0  0  0  0  0  0  0  0
   -0.2792   -1.8348    0.6627 C   0  0  0  0  0  0  0  0  0  0  0  0
    0.6747   -2.5924    0.9923 O   0  0  0  0  0  0  0  0  0  0  0  0
    0.0164   -0.4568    0.3666 N   0  0  0  0  0  0  0  0  0  0  0  0
   -0.8458    0.4828   -0.3589 C   0  0  1  0  0  0  0  0  0  0  0  0
   -0.7894    1.8599    0.3236 C   0  0  0  0  0  0  0  0  0  0  0  0
   -1.8607    2.8217   -0.2065 C   0  0  0  0  0  0  0  0  0  0  0  0
   -1.8171    4.1182    0.5563 C   0  0  0  0  0  0  0  0  0  0  0  0
   -0.8374    5.0811    0.2590 C   0  0  0  0  0  0  0  0  0  0  0  0
   -0.7611    6.2625    1.0032 C   0  0  0  0  0  0  0  0  0  0  0  0
   -1.6656    6.4922    2.0454 C   0  0  0  0  0  0  0  0  0  0  0  0
   -2.6397    5.5375    2.3492 C   0  0  0  0  0  0  0  0  0  0  0  0
   -2.7130    4.3525    1.6156 C   0  0  0  0  0  0  0  0  0  0  0  0
   -0.4600    0.5731   -1.8196 C   0  0  0  0  0  0  0  0  0  0  0  0
   -1.3264    0.3074   -2.6941 O   0  0  0  0  0  0  0  0  0  0  0  0
    0.8066    1.0983   -2.2394 N   0  0  0  0  0  0  0  0  0  0  0  0
    3.5781   -0.3995    0.2209 H   0  0  0  0  0  0  0  0  0  0  0  0
    4.4836    0.7191    2.0579 H   0  0  0  0  0  0  0  0  0  0  0  0
    4.5396    2.2264    1.0930 H   0  0  0  0  0  0  0  0  0  0  0  0
    2.0186    2.7141    1.6727 H   0  0  0  0  0  0  0  0  0  0  0  0
    2.2416    2.9371    4.1005 H   0  0  0  0  0  0  0  0  0  0  0  0
    3.8063    1.7754    4.0820 H   0  0  0  0  0  0  0  0  0  0  0  0
    2.4363   -0.0297    3.1774 H   0  0  0  0  0  0  0  0  0  0  0  0
    0.8812    1.1445    3.2133 H   0  0  0  0  0  0  0  0  0  0  0  0
    1.8698   -0.5483   -1.4847 H   0  0  0  0  0  0  0  0  0  0  0  0
    2.2927    0.3519   -4.1079 H   0  0  0  0  0  0  0  0  0  0  0  0
    3.6811    1.0911   -3.2870 H   0  0  0  0  0  0  0  0  0  0  0  0
    4.1737   -1.2439   -2.2535 H   0  0  0  0  0  0  0  0  0  0  0  0
    4.4562   -1.0408   -4.0042 H   0  0  0  0  0  0  0  0  0  0  0  0
    2.9278   -2.6213   -4.5955 H   0  0  0  0  0  0  0  0  0  0  0  0
    1.6433   -1.9024   -3.5940 H   0  0  0  0  0  0  0  0  0  0  0  0
    3.8801   -3.7842   -2.6254 H   0  0  0  0  0  0  0  0  0  0  0  0
    2.6348   -3.0731   -1.5431 H   0  0  0  0  0  0  0  0  0  0  0  0
    0.6216   -6.7294   -3.0738 H   0  0  0  0  0  0  0  0  0  0  0  0
   -1.6516   -7.1478   -2.1986 H   0  0  0  0  0  0  0  0  0  0  0  0
   -2.9322   -5.3352   -1.1273 H   0  0  0  0  0  0  0  0  0  0  0  0
    0.3161   -2.6113   -1.8585 H   0  0  0  0  0  0  0  0  0  0  0  0
   -3.2509   -3.0284   -0.7171 H   0  0  0  0  0  0  0  0  0  0  0  0
   -2.1394   -1.8239   -1.4166 H   0  0  0  0  0  0  0  0  0  0  0  0
   -1.6287   -3.4006    1.1789 H   0  0  0  0  0  0  0  0  0  0  0  0
   -1.3753   -0.7234    2.9730 H   0  0  0  0  0  0  0  0  0  0  0  0
   -2.2163   -2.2595    3.4450 H   0  0  0  0  0  0  0  0  0  0  0  0
   -4.1031   -1.0906    4.1184 H   0  0  0  0  0  0  0  0  0  0  0  0
   -3.1370    0.4294    3.9374 H   0  0  0  0  0  0  0  0  0  0  0  0
   -4.2535    0.9966    1.9825 H   0  0  0  0  0  0  0  0  0  0  0  0
   -5.4252   -0.3605    2.3522 H   0  0  0  0  0  0  0  0  0  0  0  0
    0.9622   -0.1232    0.6490 H   0  0  0  0  0  0  0  0  0  0  0  0
   -1.8887    0.1441   -0.3073 H   0  0  0  0  0  0  0  0  0  0  0  0
    0.2141    2.3078    0.1753 H   0  0  0  0  0  0  0  0  0  0  0  0
   -0.9406    1.7204    1.4149 H   0  0  0  0  0  0  0  0  0  0  0  0
   -1.6864    3.0237   -1.2849 H   0  0  0  0  0  0  0  0  0  0  0  0
   -2.8674    2.3559   -0.1153 H   0  0  0  0  0  0  0  0  0  0  0  0
   -0.1300    4.9116   -0.5452 H   0  0  0  0  0  0  0  0  0  0  0  0
   -0.0029    6.9991    0.7719 H   0  0  0  0  0  0  0  0  0  0  0  0
   -1.6075    7.4053    2.6236 H   0  0  0  0  0  0  0  0  0  0  0  0
   -3.3326    5.7109    3.1662 H   0  0  0  0  0  0  0  0  0  0  0  0
   -3.4636    3.6153    1.8701 H   0  0  0  0  0  0  0  0  0  0  0  0
    0.8031    1.8879   -2.9279 H   0  0  0  0  0  0  0  0  0  0  0  0
  1  2  2  0
  2  3  1  0
  3  4  1  0
  4  5  1  0
  5  6  1  0
  6  7  1  0
  2  8  1  0
  8  9  1  0
  9 10  1  0
 10 11  1  0
 11 12  1  0
 12 13  1  0
 13 14  1  0
 14 15  2  0
 15 16  1  0
 16 17  2  0
 17 18  1  0
 18 19  2  0
 18 20  1  0
 20 21  1  0
 21 22  1  0
 22 23  1  0
 23 24  1  0
 24 25  1  0
 25 26  1  0
 26 27  2  0
 21 28  1  0
 28 29  2  0
 28 30  1  0
 30 31  1  0
 31 32  1  0
 32 33  1  0
 33 34  1  0
 34 35  2  0
 35 36  1  0
 36 37  2  0
 37 38  1  0
 38 39  2  0
 31 40  1  0
 40 41  2  0
 40 42  1  0
  7  5  1  0
 42  8  1  0
 19 14  1  0
 26 22  1  0
 39 34  1  0
  3 43  1  0
  4 44  1  0
  4 45  1  0
  5 46  1  0
  6 47  1  0
  6 48  1  0
  7 49  1  0
  7 50  1  0
  8 51  1  1
  9 52  1  0
  9 53  1  0
 10 54  1  0
 10 55  1  0
 11 56  1  0
 11 57  1  0
 12 58  1  0
 12 59  1  0
 15 60  1  0
 16 61  1  0
 17 62  1  0
 19 63  1  0
 20 64  1  0
 20 65  1  0
 21 66  1  1
 23 67  1  0
 23 68  1  0
 24 69  1  0
 24 70  1  0
 25 71  1  0
 25 72  1  0
 30 73  1  0
 31 74  1  6
 32 75  1  0
 32 76  1  0
 33 77  1  0
 33 78  1  0
 35 79  1  0
 36 80  1  0
 37 81  1  0
 38 82  1  0
 39 83  1  0
 42 84  1  0
M  END
$$$$
