
     RDKit          3D

 72 77  0  0  0  0  0  0  0  0999 V2000
    7.6461    1.2027   -3.8557 C   0  0  0  0  0  0  0  0  0  0  0  0
    7.0347    0.2652   -2.9130 N   0  0  0  0  0  0  0  0  0  0  0  0
    6.4836    0.9901   -1.7547 C   0  0  0  0  0  0  0  0  0  0  0  0
    5.7383    0.0926   -0.8156 C   0  0  0  0  0  0  0  0  0  0  0  0
    4.4093    0.6894   -1.0543 N   0  0  0  0  0  0  0  0  0  0  0  0
    3.0720    0.5166   -0.5872 C   0  0  0  0  0  0  0  0  0  0  0  0
    2.7584   -0.5483    0.2838 C   0  0  0  0  0  0  0  0  0  0  0  0
    1.4391   -0.6803    0.7536 C   0  0  0  0  0  0  0  0  0  0  0  0
    0.5250    0.2300    0.3278 N   0  0  0  0  0  0  0  0  0  0  0  0
   -0.7389    0.3361    0.7020 N   0  0  0  0  0  0  0  0  0  0  0  0
   -1.2245    1.4490    0.0936 C   0  0  0  0  0  0  0  0  0  0  0  0
   -0.2393    2.0511   -0.6896 C   0  0  0  0  0  0  0  0  0  0  0  0
    0.8463    1.2375   -0.4930 C   0  0  0  0  0  0  0  0  0  0  0  0
    2.1069    1.4057   -0.9616 N   0  0  0  0  0  0  0  0  0  0  0  0
   -2.6131    1.9996    0.2918 C   0  0  2  0  0  0  0  0  0  0  0  0
   -2.5965    3.3715    0.9892 C   0  0  0  0  0  0  0  0  0  0  0  0
   -2.2078    3.3099    2.4798 C   0  0  0  0  0  0  0  0  0  0  0  0
   -2.3482    1.9142    3.1120 C   0  0  0  0  0  0  0  0  0  0  0  0
   -3.5083    1.1005    2.5184 C   0  0  0  0  0  0  0  0  0  0  0  0
   -3.4735    1.0625    1.0441 N   0  0  0  0  0  0  0  0  0  0  0  0
   -4.3785    0.1697    0.3535 C   0  0  0  0  0  0  0  0  0  0  0  0
   -5.3360   -0.3651    0.9763 O   0  0  0  0  0  0  0  0  0  0  0  0
   -4.2236   -0.1213   -1.0850 C   0  0  0  0  0  0  0  0  0  0  0  0
   -4.8621    0.7382   -1.9978 C   0  0  0  0  0  0  0  0  0  0  0  0
   -4.6374    0.6128   -3.3698 C   0  0  0  0  0  0  0  0  0  0  0  0
   -5.2132    1.4826   -4.2343 F   0  0  0  0  0  0  0  0  0  0  0  0
   -3.7939   -0.3894   -3.8486 C   0  0  0  0  0  0  0  0  0  0  0  0
   -3.1964   -1.2834   -2.9597 C   0  0  0  0  0  0  0  0  0  0  0  0
   -3.4110   -1.1796   -1.5786 C   0  0  0  0  0  0  0  0  0  0  0  0
   -2.7921   -2.1506   -0.7722 O   0  0  0  0  0  0  0  0  0  0  0  0
   -3.2634   -2.6029    0.4928 C   0  0  0  0  0  0  0  0  0  0  0  0
   -2.7389   -3.9863    0.7485 C   0  0  0  0  0  0  0  0  0  0  0  0
   -3.1996   -4.9386    0.0643 O   0  0  0  0  0  0  0  0  0  0  0  0
   -1.7094   -4.2631    1.7159 N   0  0  0  0  0  0  0  0  0  0  0  0
   -0.7853   -3.2681    2.2656 C   0  0  0  0  0  0  0  0  0  0  0  0
    0.1975   -2.7969    1.1879 C   0  0  0  0  0  0  0  0  0  0  0  0
    1.0761   -1.7245    1.6733 N   0  0  0  0  0  0  0  0  0  0  0  0
    1.9148   -1.9459    2.8565 C   0  0  0  0  0  0  0  0  0  0  0  0
    5.1239    1.5848   -1.9824 C   0  0  0  0  0  0  0  0  0  0  0  0
    6.8761    1.8625   -4.3045 H   0  0  0  0  0  0  0  0  0  0  0  0
    8.1422    0.6347   -4.6671 H   0  0  0  0  0  0  0  0  0  0  0  0
    8.4170    1.8228   -3.3559 H   0  0  0  0  0  0  0  0  0  0  0  0
    6.2792   -0.2579   -3.4198 H   0  0  0  0  0  0  0  0  0  0  0  0
    7.2058    1.6608   -1.2382 H   0  0  0  0  0  0  0  0  0  0  0  0
    5.7507   -0.9815   -1.1092 H   0  0  0  0  0  0  0  0  0  0  0  0
    6.0519    0.2372    0.2412 H   0  0  0  0  0  0  0  0  0  0  0  0
    3.5240   -1.2486    0.5921 H   0  0  0  0  0  0  0  0  0  0  0  0
   -0.3008    2.9639   -1.2714 H   0  0  0  0  0  0  0  0  0  0  0  0
   -3.0370    2.1866   -0.7179 H   0  0  0  0  0  0  0  0  0  0  0  0
   -3.6202    3.8022    0.9129 H   0  0  0  0  0  0  0  0  0  0  0  0
   -1.9197    4.0712    0.4494 H   0  0  0  0  0  0  0  0  0  0  0  0
   -1.1526    3.6463    2.5997 H   0  0  0  0  0  0  0  0  0  0  0  0
   -2.8423    4.0306    3.0447 H   0  0  0  0  0  0  0  0  0  0  0  0
   -2.5010    2.0194    4.2093 H   0  0  0  0  0  0  0  0  0  0  0  0
   -1.3999    1.3519    2.9790 H   0  0  0  0  0  0  0  0  0  0  0  0
   -4.4764    1.5363    2.8520 H   0  0  0  0  0  0  0  0  0  0  0  0
   -3.4369    0.0650    2.9184 H   0  0  0  0  0  0  0  0  0  0  0  0
   -5.4863    1.5481   -1.6350 H   0  0  0  0  0  0  0  0  0  0  0  0
   -3.6115   -0.4816   -4.9107 H   0  0  0  0  0  0  0  0  0  0  0  0
   -2.5627   -2.0709   -3.3462 H   0  0  0  0  0  0  0  0  0  0  0  0
   -4.3742   -2.6658    0.4797 H   0  0  0  0  0  0  0  0  0  0  0  0
   -2.9522   -1.8945    1.2875 H   0  0  0  0  0  0  0  0  0  0  0  0
   -1.5630   -5.2597    1.9983 H   0  0  0  0  0  0  0  0  0  0  0  0
   -1.3383   -2.4117    2.7066 H   0  0  0  0  0  0  0  0  0  0  0  0
   -0.2112   -3.7469    3.0868 H   0  0  0  0  0  0  0  0  0  0  0  0
   -0.3778   -2.4467    0.3049 H   0  0  0  0  0  0  0  0  0  0  0  0
    0.8222   -3.6542    0.8572 H   0  0  0  0  0  0  0  0  0  0  0  0
    1.2859   -2.1461    3.7463 H   0  0  0  0  0  0  0  0  0  0  0  0
    2.5991   -2.8044    2.6838 H   0  0  0  0  0  0  0  0  0  0  0  0
    2.5220   -1.0444    3.0868 H   0  0  0  0  0  0  0  0  0  0  0  0
    4.7407    1.4671   -3.0211 H   0  0  0  0  0  0  0  0  0  0  0  0
    5.0659    2.6404   -1.6328 H   0  0  0  0  0  0  0  0  0  0  0  0
  1  2  1  0
  2  3  1  0
  3  4  1  0
  4  5  1  0
  5  6  1  0
  6  7  1  0
  7  8  2  0
  8  9  1  0
  9 10  1  0
 10 11  2  0
 11 12  1  0
 12 13  2  0
 13 14  1  0
 11 15  1  0
 15 16  1  0
 16 17  1  0
 17 18  1  0
 18 19  1  0
 19 20  1  0
 20 21  1  0
 21 22  2  0
 21 23  1  0
 23 24  2  0
 24 25  1  0
 25 26  1  0
 25 27  2  0
 27 28  1  0
 28 29  2  0
 29 30  1  0
 30 31  1  0
 31 32  1  0
 32 33  2  0
 32 34  1  0
 34 35  1  0
 35 36  1  0
 36 37  1  0
 37 38  1  0
  5 39  1  0
 39  3  1  0
 14  6  2  0
 20 15  1  0
 29 23  1  0
 37  8  1  0
 13  9  1  0
  1 40  1  0
  1 41  1  0
  1 42  1  0
  2 43  1  0
  3 44  1  0
  4 45  1  0
  4 46  1  0
  7 47  1  0
 12 48  1  0
 15 49  1  6
 16 50  1  0
 16 51  1  0
 17 52  1  0
 17 53  1  0
 18 54  1  0
 18 55  1  0
 19 56  1  0
 19 57  1  0
 24 58  1  0
 27 59  1  0
 28 60  1  0
 31 61  1  0
 31 62  1  0
 34 63  1  0
 35 64  1  0
 35 65  1  0
 36 66  1  0
 36 67  1  0
 38 68  1  0
 38 69  1  0
 38 70  1  0
 39 71  1  0
 39 72  1  0
M  END
$$$$
