
     RDKit          3D

 67 70  0  0  0  0  0  0  0  0999 V2000
   -5.1189    2.4294   -0.0628 C   0  0  0  0  0  0  0  0  0  0  0  0
   -4.6428    1.0557    0.3425 C   0  0  0  0  0  0  0  0  0  0  0  0
   -5.2823    0.4348    1.4249 C   0  0  0  0  0  0  0  0  0  0  0  0
   -4.8696   -0.8199    1.8493 C   0  0  0  0  0  0  0  0  0  0  0  0
   -3.8494   -1.4445    1.2185 N   0  0  0  0  0  0  0  0  0  0  0  0
   -3.1973   -0.8952    0.1567 C   0  0  0  0  0  0  0  0  0  0  0  0
   -3.5899    0.3767   -0.3407 C   0  0  0  0  0  0  0  0  0  0  0  0
   -2.8457    1.0566   -1.5051 C   0  0  0  0  0  0  0  0  0  0  0  0
   -2.5285    0.1208   -2.7147 C   0  0  0  0  0  0  0  0  0  0  0  0
   -1.0713   -0.3876   -2.8701 C   0  0  0  0  0  0  0  0  0  0  0  0
    0.0025    0.3800   -2.0661 C   0  0  0  0  0  0  0  0  0  0  0  0
   -0.4208    1.8364   -1.8841 C   0  0  0  0  0  0  0  0  0  0  0  0
   -1.6590    1.9114   -0.9877 C   0  0  0  0  0  0  0  0  0  0  0  0
    0.1839   -0.1899   -0.7809 O   0  0  0  0  0  0  0  0  0  0  0  0
    1.1317   -1.2368   -0.7924 C   0  0  0  0  0  0  0  0  0  0  0  0
    1.3460   -1.7565    0.6468 C   0  0  1  0  0  0  0  0  0  0  0  0
    2.5569   -1.0907    1.3890 C   0  0  1  0  0  0  0  0  0  0  0  0
    2.5434    0.3881    1.3352 N   0  0  0  0  0  0  0  0  0  0  0  0
    4.1414    1.0861    1.4347 S   0  0  0  0  0  6  0  0  0  0  0  0
    4.0247    2.4106    2.1328 O   0  0  0  0  0  0  0  0  0  0  0  0
    5.0609    0.2094    2.2386 O   0  0  0  0  0  0  0  0  0  0  0  0
    4.8804    1.3710   -0.1817 C   0  0  0  0  0  0  0  0  0  0  0  0
    5.2749    0.0562   -0.8581 C   0  0  0  0  0  0  0  0  0  0  0  0
    3.9605    2.1991   -1.0839 C   0  0  0  0  0  0  0  0  0  0  0  0
    2.5015   -1.5448    2.8630 C   0  0  0  0  0  0  0  0  0  0  0  0
    1.2179   -1.0700    3.5801 C   0  0  0  0  0  0  0  0  0  0  0  0
    0.0532   -0.7836    2.6167 C   0  0  0  0  0  0  0  0  0  0  0  0
    0.1069   -1.6812    1.4567 N   0  0  0  0  0  0  0  0  0  0  0  0
   -0.9150   -2.6848    1.3250 C   0  0  0  0  0  0  0  0  0  0  0  0
   -1.2210   -3.3957    2.3201 O   0  0  0  0  0  0  0  0  0  0  0  0
   -1.6677   -2.8618    0.0410 C   0  0  0  0  0  0  0  0  0  0  0  0
   -2.1439   -1.6019   -0.4330 O   0  0  0  0  0  0  0  0  0  0  0  0
   -5.6259    2.3768   -1.0481 H   0  0  0  0  0  0  0  0  0  0  0  0
   -4.2644    3.1344   -0.1134 H   0  0  0  0  0  0  0  0  0  0  0  0
   -5.8402    2.8485    0.6699 H   0  0  0  0  0  0  0  0  0  0  0  0
   -6.0931    0.9238    1.9496 H   0  0  0  0  0  0  0  0  0  0  0  0
   -5.3568   -1.2980    2.6889 H   0  0  0  0  0  0  0  0  0  0  0  0
   -3.5513    1.7864   -1.9534 H   0  0  0  0  0  0  0  0  0  0  0  0
   -3.2271   -0.7447   -2.7247 H   0  0  0  0  0  0  0  0  0  0  0  0
   -2.7657    0.6846   -3.6464 H   0  0  0  0  0  0  0  0  0  0  0  0
   -1.0293   -1.4710   -2.6439 H   0  0  0  0  0  0  0  0  0  0  0  0
   -0.8015   -0.3178   -3.9475 H   0  0  0  0  0  0  0  0  0  0  0  0
    0.9528    0.3919   -2.6523 H   0  0  0  0  0  0  0  0  0  0  0  0
   -0.6335    2.3039   -2.8710 H   0  0  0  0  0  0  0  0  0  0  0  0
    0.4086    2.4050   -1.4084 H   0  0  0  0  0  0  0  0  0  0  0  0
   -1.3746    1.6002    0.0424 H   0  0  0  0  0  0  0  0  0  0  0  0
   -1.9685    2.9766   -0.9105 H   0  0  0  0  0  0  0  0  0  0  0  0
    2.1020   -0.9019   -1.2153 H   0  0  0  0  0  0  0  0  0  0  0  0
    0.7784   -2.0742   -1.4280 H   0  0  0  0  0  0  0  0  0  0  0  0
    1.6184   -2.8336    0.5532 H   0  0  0  0  0  0  0  0  0  0  0  0
    3.4894   -1.4863    0.9292 H   0  0  0  0  0  0  0  0  0  0  0  0
    2.1073    0.7494    0.4644 H   0  0  0  0  0  0  0  0  0  0  0  0
    5.8110    1.9574   -0.0159 H   0  0  0  0  0  0  0  0  0  0  0  0
    5.8021    0.2658   -1.8144 H   0  0  0  0  0  0  0  0  0  0  0  0
    4.3826   -0.5614   -1.0791 H   0  0  0  0  0  0  0  0  0  0  0  0
    5.9632   -0.5219   -0.2054 H   0  0  0  0  0  0  0  0  0  0  0  0
    3.0691    1.6157   -1.3989 H   0  0  0  0  0  0  0  0  0  0  0  0
    4.5118    2.5114   -1.9955 H   0  0  0  0  0  0  0  0  0  0  0  0
    3.6249    3.1156   -0.5531 H   0  0  0  0  0  0  0  0  0  0  0  0
    2.5425   -2.6567    2.8953 H   0  0  0  0  0  0  0  0  0  0  0  0
    3.3860   -1.1820    3.4255 H   0  0  0  0  0  0  0  0  0  0  0  0
    0.9056   -1.8475    4.3113 H   0  0  0  0  0  0  0  0  0  0  0  0
    1.4379   -0.1438    4.1549 H   0  0  0  0  0  0  0  0  0  0  0  0
   -0.9151   -0.8777    3.1578 H   0  0  0  0  0  0  0  0  0  0  0  0
    0.1103    0.2671    2.2593 H   0  0  0  0  0  0  0  0  0  0  0  0
   -2.5221   -3.5599    0.1794 H   0  0  0  0  0  0  0  0  0  0  0  0
   -0.9981   -3.3131   -0.7165 H   0  0  0  0  0  0  0  0  0  0  0  0
  1  2  1  0
  2  3  2  0
  3  4  1  0
  4  5  2  0
  5  6  1  0
  6  7  2  0
  7  8  1  0
  8  9  1  0
  9 10  1  0
 10 11  1  0
 11 12  1  0
 12 13  1  0
 11 14  1  0
 14 15  1  0
 15 16  1  0
 16 17  1  0
 17 18  1  0
 18 19  1  0
 19 20  2  0
 19 21  2  0
 19 22  1  0
 22 23  1  0
 22 24  1  0
 17 25  1  0
 25 26  1  0
 26 27  1  0
 27 28  1  0
 28 29  1  0
 29 30  2  0
 29 31  1  0
 31 32  1  0
  7  2  1  0
 13  8  1  0
 28 16  1  0
 32  6  1  0
  1 33  1  0
  1 34  1  0
  1 35  1  0
  3 36  1  0
  4 37  1  0
  8 38  1  0
  9 39  1  0
  9 40  1  0
 10 41  1  0
 10 42  1  0
 11 43  1  0
 12 44  1  0
 12 45  1  0
 13 46  1  0
 13 47  1  0
 15 48  1  0
 15 49  1  0
 16 50  1  6
 17 51  1  6
 18 52  1  0
 22 53  1  0
 23 54  1  0
 23 55  1  0
 23 56  1  0
 24 57  1  0
 24 58  1  0
 24 59  1  0
 25 60  1  0
 25 61  1  0
 26 62  1  0
 26 63  1  0
 27 64  1  0
 27 65  1  0
 31 66  1  0
 31 67  1  0
M  END
$$$$
