
     RDKit          3D

 81 86  0  0  0  0  0  0  0  0999 V2000
    7.1161    1.7726   -0.4640 C   0  0  0  0  0  0  0  0  0  0  0  0
    5.7788    1.1834   -0.4909 N   0  0  0  0  0  0  0  0  0  0  0  0
    5.4517    0.0623    0.4200 C   0  0  0  0  0  0  0  0  0  0  0  0
    5.3774   -1.2635   -0.3620 C   0  0  0  0  0  0  0  0  0  0  0  0
    4.1619   -2.0798    0.0086 C   0  0  0  0  0  0  0  0  0  0  0  0
    3.1032   -2.1769   -0.8148 C   0  0  0  0  0  0  0  0  0  0  0  0
    2.0752   -3.2664   -0.6339 C   0  0  2  0  0  0  0  0  0  0  0  0
    1.4545   -3.5356   -1.8655 O   0  0  0  0  0  0  0  0  0  0  0  0
    1.0168   -2.9153    0.4376 C   0  0  2  0  0  0  0  0  0  0  0  0
    0.0259   -4.0636    0.6281 C   0  0  0  0  0  0  0  0  0  0  0  0
   -1.0745   -3.2250    0.0022 C   0  0  0  0  0  0  0  0  0  0  0  0
   -0.1322   -2.0100   -0.0561 C   0  0  1  0  0  0  0  0  0  0  0  0
   -0.5245   -0.9075    0.9626 C   0  0  0  0  0  0  0  0  0  0  0  0
   -1.3394    0.1618    0.3435 N   0  0  0  0  0  0  0  0  0  0  0  0
   -2.6510   -0.1496   -0.2540 C   0  0  0  0  0  0  0  0  0  0  0  0
   -3.8473    0.5340    0.4618 C   0  0  2  0  0  0  0  0  0  0  0  0
   -3.8830    0.2340    1.9882 C   0  0  0  0  0  0  0  0  0  0  0  0
   -4.1287   -1.2375    2.3111 C   0  0  0  0  0  0  0  0  0  0  0  0
   -5.3550   -1.8355    1.5996 C   0  0  0  0  0  0  0  0  0  0  0  0
   -5.8430   -1.0895    0.3808 C   0  0  0  0  0  0  0  0  0  0  0  0
   -7.0182   -1.5605   -0.2274 C   0  0  0  0  0  0  0  0  0  0  0  0
   -7.5026   -0.9656   -1.3936 C   0  0  0  0  0  0  0  0  0  0  0  0
   -8.9822   -1.5546   -2.1395 Cl  0  0  0  0  0  0  0  0  0  0  0  0
   -6.7959    0.0780   -1.9908 C   0  0  0  0  0  0  0  0  0  0  0  0
   -5.6173    0.5432   -1.4135 C   0  0  0  0  0  0  0  0  0  0  0  0
   -5.1428    0.0088   -0.1866 C   0  0  0  0  0  0  0  0  0  0  0  0
   -3.7520    2.0737    0.2983 C   0  0  0  0  0  0  0  0  0  0  0  0
   -2.6931    2.6379    1.0629 O   0  0  0  0  0  0  0  0  0  0  0  0
   -1.3717    2.6337    0.6194 C   0  0  0  0  0  0  0  0  0  0  0  0
   -0.6675    3.8391    0.6487 C   0  0  0  0  0  0  0  0  0  0  0  0
    0.6541    3.8966    0.2126 C   0  0  0  0  0  0  0  0  0  0  0  0
    1.3026    2.7533   -0.2876 C   0  0  0  0  0  0  0  0  0  0  0  0
    0.5704    1.5461   -0.3460 C   0  0  0  0  0  0  0  0  0  0  0  0
   -0.7393    1.4613    0.1583 C   0  0  0  0  0  0  0  0  0  0  0  0
    2.7769    2.8745   -0.6812 C   0  0  1  0  0  0  0  0  0  0  0  0
    2.8592    3.9223   -1.6296 O   0  0  0  0  0  0  0  0  0  0  0  0
    3.5584    3.2461    0.5664 C   0  0  0  0  0  0  0  0  0  0  0  0
    3.4206    2.5692    1.6289 O   0  0  0  0  0  0  0  0  0  0  0  0
    4.4691    4.3139    0.5256 O   0  0  0  0  0  0  0  0  0  0  0  0
    3.3609    1.5697   -1.3011 C   0  0  0  0  0  0  0  0  0  0  0  0
    4.8550    1.6254   -1.5091 C   0  0  0  0  0  0  0  0  0  0  0  0
    5.3011    2.0979   -2.5904 O   0  0  0  0  0  0  0  0  0  0  0  0
    7.0380    2.8759   -0.4691 H   0  0  0  0  0  0  0  0  0  0  0  0
    7.6712    1.4887    0.4606 H   0  0  0  0  0  0  0  0  0  0  0  0
    7.7068    1.4372   -1.3486 H   0  0  0  0  0  0  0  0  0  0  0  0
    4.5173    0.2774    0.9848 H   0  0  0  0  0  0  0  0  0  0  0  0
    6.2177   -0.0448    1.2266 H   0  0  0  0  0  0  0  0  0  0  0  0
    5.4035   -1.0838   -1.4633 H   0  0  0  0  0  0  0  0  0  0  0  0
    6.2830   -1.8683   -0.1220 H   0  0  0  0  0  0  0  0  0  0  0  0
    4.2088   -2.6829    0.9132 H   0  0  0  0  0  0  0  0  0  0  0  0
    3.0847   -1.5948   -1.7319 H   0  0  0  0  0  0  0  0  0  0  0  0
    2.6038   -4.1931   -0.3008 H   0  0  0  0  0  0  0  0  0  0  0  0
    2.1232   -4.0040   -2.4366 H   0  0  0  0  0  0  0  0  0  0  0  0
    1.4739   -2.5976    1.4006 H   0  0  0  0  0  0  0  0  0  0  0  0
    0.2441   -4.9835    0.0502 H   0  0  0  0  0  0  0  0  0  0  0  0
   -0.1722   -4.2621    1.7018 H   0  0  0  0  0  0  0  0  0  0  0  0
   -1.9528   -3.1269    0.6744 H   0  0  0  0  0  0  0  0  0  0  0  0
   -1.3452   -3.5941   -1.0141 H   0  0  0  0  0  0  0  0  0  0  0  0
    0.0206   -1.6103   -1.0858 H   0  0  0  0  0  0  0  0  0  0  0  0
   -1.0638   -1.3347    1.8258 H   0  0  0  0  0  0  0  0  0  0  0  0
    0.4040   -0.4716    1.3915 H   0  0  0  0  0  0  0  0  0  0  0  0
   -2.8218   -1.2429   -0.2580 H   0  0  0  0  0  0  0  0  0  0  0  0
   -2.6369    0.1498   -1.3228 H   0  0  0  0  0  0  0  0  0  0  0  0
   -4.6906    0.8288    2.4757 H   0  0  0  0  0  0  0  0  0  0  0  0
   -2.9231    0.5344    2.4670 H   0  0  0  0  0  0  0  0  0  0  0  0
   -4.2626   -1.3410    3.4128 H   0  0  0  0  0  0  0  0  0  0  0  0
   -3.2290   -1.8278    2.0417 H   0  0  0  0  0  0  0  0  0  0  0  0
   -6.2035   -1.9237    2.3336 H   0  0  0  0  0  0  0  0  0  0  0  0
   -5.0760   -2.8659    1.2694 H   0  0  0  0  0  0  0  0  0  0  0  0
   -7.5648   -2.3949    0.2072 H   0  0  0  0  0  0  0  0  0  0  0  0
   -7.1592    0.5316   -2.9113 H   0  0  0  0  0  0  0  0  0  0  0  0
   -5.0914    1.3266   -1.9377 H   0  0  0  0  0  0  0  0  0  0  0  0
   -4.7039    2.5317    0.6418 H   0  0  0  0  0  0  0  0  0  0  0  0
   -3.6067    2.3656   -0.7617 H   0  0  0  0  0  0  0  0  0  0  0  0
   -1.1476    4.7404    1.0120 H   0  0  0  0  0  0  0  0  0  0  0  0
    1.1831    4.8392    0.2711 H   0  0  0  0  0  0  0  0  0  0  0  0
    1.0055    0.6400   -0.7410 H   0  0  0  0  0  0  0  0  0  0  0  0
    3.8070    4.0548   -1.8922 H   0  0  0  0  0  0  0  0  0  0  0  0
    5.0223    4.5507    1.3444 H   0  0  0  0  0  0  0  0  0  0  0  0
    2.8695    1.3691   -2.2820 H   0  0  0  0  0  0  0  0  0  0  0  0
    3.1348    0.7046   -0.6544 H   0  0  0  0  0  0  0  0  0  0  0  0
  1  2  1  0
  2  3  1  0
  3  4  1  0
  4  5  1  0
  5  6  2  0
  6  7  1  0
  7  8  1  0
  7  9  1  0
  9 10  1  0
 10 11  1  0
 11 12  1  0
 12 13  1  0
 13 14  1  0
 14 15  1  0
 16 15  1  6
 16 17  1  0
 17 18  1  0
 18 19  1  0
 19 20  1  0
 20 21  2  0
 21 22  1  0
 22 23  1  0
 22 24  2  0
 24 25  1  0
 25 26  2  0
 16 27  1  0
 27 28  1  0
 28 29  1  0
 29 30  2  0
 30 31  1  0
 31 32  2  0
 32 33  1  0
 33 34  2  0
 32 35  1  0
 35 36  1  6
 35 37  1  0
 37 38  2  0
 37 39  1  0
 35 40  1  0
 40 41  1  0
 41 42  2  0
 41  2  1  0
 12  9  1  0
 34 14  1  0
 26 16  1  0
 34 29  1  0
 26 20  1  0
  1 43  1  0
  1 44  1  0
  1 45  1  0
  3 46  1  0
  3 47  1  0
  4 48  1  0
  4 49  1  0
  5 50  1  0
  6 51  1  0
  7 52  1  1
  8 53  1  0
  9 54  1  1
 10 55  1  0
 10 56  1  0
 11 57  1  0
 11 58  1  0
 12 59  1  6
 13 60  1  0
 13 61  1  0
 15 62  1  0
 15 63  1  0
 17 64  1  0
 17 65  1  0
 18 66  1  0
 18 67  1  0
 19 68  1  0
 19 69  1  0
 21 70  1  0
 24 71  1  0
 25 72  1  0
 27 73  1  0
 27 74  1  0
 30 75  1  0
 31 76  1  0
 33 77  1  0
 36 78  1  0
 39 79  1  0
 40 80  1  0
 40 81  1  0
M  END
$$$$
