
     RDKit          3D

 68 71  0  0  0  0  0  0  0  0999 V2000
    3.5866   -0.6764   -2.1049 C   0  0  0  0  0  0  0  0  0  0  0  0
    4.7022    0.2049   -1.5087 C   0  0  0  0  0  0  0  0  0  0  0  0
    6.0695   -0.3491   -1.9462 C   0  0  0  0  0  0  0  0  0  0  0  0
    4.5542    1.6484   -2.0160 C   0  0  0  0  0  0  0  0  0  0  0  0
    4.6128    0.1811    0.3007 S   0  0  0  0  0  6  0  0  0  0  0  0
    5.5123    1.2538    0.8437 O   0  0  0  0  0  0  0  0  0  0  0  0
    5.1218   -1.1459    0.7877 O   0  0  0  0  0  0  0  0  0  0  0  0
    2.9899    0.4806    0.8920 N   0  0  0  0  0  0  0  0  0  0  0  0
    2.2700   -0.7732    1.1988 C   0  0  1  0  0  0  0  0  0  0  0  0
    2.6434   -1.2850    2.6095 C   0  0  0  0  0  0  0  0  0  0  0  0
    1.6156   -2.2698    3.2065 C   0  0  0  0  0  0  0  0  0  0  0  0
    0.7103   -2.9231    2.1532 C   0  0  0  0  0  0  0  0  0  0  0  0
    0.0903   -1.9383    1.2365 N   0  0  0  0  0  0  0  0  0  0  0  0
   -1.0196   -2.4039    0.4245 C   0  0  0  0  0  0  0  0  0  0  0  0
   -1.6648   -3.4296    0.7925 O   0  0  0  0  0  0  0  0  0  0  0  0
   -1.4658   -1.7422   -0.8573 C   0  0  0  0  0  0  0  0  0  0  0  0
   -2.4753   -0.7707   -0.5596 O   0  0  0  0  0  0  0  0  0  0  0  0
   -3.4828   -0.2991   -1.4253 C   0  0  0  0  0  0  0  0  0  0  0  0
   -3.7682   -0.9258   -2.6579 C   0  0  0  0  0  0  0  0  0  0  0  0
   -4.7872   -0.4430   -3.4797 C   0  0  0  0  0  0  0  0  0  0  0  0
   -5.5402    0.6631   -3.0902 C   0  0  0  0  0  0  0  0  0  0  0  0
   -5.2647    1.3091   -1.8852 C   0  0  0  0  0  0  0  0  0  0  0  0
   -4.2420    0.8391   -1.0350 C   0  0  0  0  0  0  0  0  0  0  0  0
   -3.8998    1.6303    0.2236 C   0  0  1  0  0  0  0  0  0  0  0  0
   -4.0919    0.7551    1.5023 C   0  0  0  0  0  0  0  0  0  0  0  0
   -3.3409    1.2848    2.7342 C   0  0  0  0  0  0  0  0  0  0  0  0
   -1.8800    1.6083    2.3892 C   0  0  2  0  0  0  0  0  0  0  0  0
   -1.8819    2.7520    1.3607 C   0  0  0  0  0  0  0  0  0  0  0  0
   -2.4985    2.2827    0.0436 C   0  0  0  0  0  0  0  0  0  0  0  0
   -1.2818    0.4427    1.8396 O   0  0  0  0  0  0  0  0  0  0  0  0
    0.1202    0.4364    2.0116 C   0  0  0  0  0  0  0  0  0  0  0  0
    0.7305   -0.6134    1.0530 C   0  0  0  0  0  0  0  0  0  0  0  0
    3.6605   -0.7083   -3.2140 H   0  0  0  0  0  0  0  0  0  0  0  0
    2.5833   -0.2825   -1.8501 H   0  0  0  0  0  0  0  0  0  0  0  0
    3.6629   -1.7149   -1.7242 H   0  0  0  0  0  0  0  0  0  0  0  0
    6.1769   -0.2992   -3.0519 H   0  0  0  0  0  0  0  0  0  0  0  0
    6.1852   -1.4100   -1.6384 H   0  0  0  0  0  0  0  0  0  0  0  0
    6.8929    0.2402   -1.4876 H   0  0  0  0  0  0  0  0  0  0  0  0
    4.6260    1.6868   -3.1230 H   0  0  0  0  0  0  0  0  0  0  0  0
    5.3550    2.2912   -1.6008 H   0  0  0  0  0  0  0  0  0  0  0  0
    3.5742    2.0690   -1.7222 H   0  0  0  0  0  0  0  0  0  0  0  0
    2.4904    1.0024    0.1395 H   0  0  0  0  0  0  0  0  0  0  0  0
    2.5626   -1.5599    0.4671 H   0  0  0  0  0  0  0  0  0  0  0  0
    2.7532   -0.4229    3.3012 H   0  0  0  0  0  0  0  0  0  0  0  0
    3.6266   -1.7971    2.5670 H   0  0  0  0  0  0  0  0  0  0  0  0
    2.1506   -3.0727    3.7633 H   0  0  0  0  0  0  0  0  0  0  0  0
    0.9788   -1.7485    3.9537 H   0  0  0  0  0  0  0  0  0  0  0  0
    1.3102   -3.6476    1.5548 H   0  0  0  0  0  0  0  0  0  0  0  0
   -0.0801   -3.4907    2.6997 H   0  0  0  0  0  0  0  0  0  0  0  0
   -0.6278   -1.2774   -1.4212 H   0  0  0  0  0  0  0  0  0  0  0  0
   -1.8710   -2.5505   -1.5027 H   0  0  0  0  0  0  0  0  0  0  0  0
   -3.2260   -1.7906   -3.0003 H   0  0  0  0  0  0  0  0  0  0  0  0
   -4.9919   -0.9308   -4.4226 H   0  0  0  0  0  0  0  0  0  0  0  0
   -6.3254    1.0369   -3.7366 H   0  0  0  0  0  0  0  0  0  0  0  0
   -5.8433    2.1881   -1.6226 H   0  0  0  0  0  0  0  0  0  0  0  0
   -4.6108    2.4814    0.3392 H   0  0  0  0  0  0  0  0  0  0  0  0
   -5.1765    0.7104    1.7436 H   0  0  0  0  0  0  0  0  0  0  0  0
   -3.7897   -0.2977    1.3459 H   0  0  0  0  0  0  0  0  0  0  0  0
   -3.8553    2.1896    3.1262 H   0  0  0  0  0  0  0  0  0  0  0  0
   -3.3695    0.5140    3.5343 H   0  0  0  0  0  0  0  0  0  0  0  0
   -1.3712    1.9447    3.3266 H   0  0  0  0  0  0  0  0  0  0  0  0
   -2.4571    3.6197    1.7552 H   0  0  0  0  0  0  0  0  0  0  0  0
   -0.8471    3.1044    1.1689 H   0  0  0  0  0  0  0  0  0  0  0  0
   -2.5868    3.1579   -0.6420 H   0  0  0  0  0  0  0  0  0  0  0  0
   -1.7831    1.5895   -0.4444 H   0  0  0  0  0  0  0  0  0  0  0  0
    0.5763    1.4303    1.7829 H   0  0  0  0  0  0  0  0  0  0  0  0
    0.3480    0.2042    3.0767 H   0  0  0  0  0  0  0  0  0  0  0  0
    0.5550   -0.2435    0.0273 H   0  0  0  0  0  0  0  0  0  0  0  0
  1  2  1  0
  2  3  1  0
  2  4  1  0
  2  5  1  0
  5  6  2  0
  5  7  2  0
  5  8  1  0
  8  9  1  0
  9 10  1  0
 10 11  1  0
 11 12  1  0
 12 13  1  0
 13 14  1  0
 14 15  2  0
 14 16  1  0
 16 17  1  0
 17 18  1  0
 18 19  2  0
 19 20  1  0
 20 21  2  0
 21 22  1  0
 22 23  2  0
 23 24  1  0
 24 25  1  0
 25 26  1  0
 26 27  1  0
 27 28  1  0
 28 29  1  0
 27 30  1  0
 30 31  1  0
 31 32  1  0
 32  9  1  0
 32 13  1  0
 23 18  1  0
 29 24  1  0
  1 33  1  0
  1 34  1  0
  1 35  1  0
  3 36  1  0
  3 37  1  0
  3 38  1  0
  4 39  1  0
  4 40  1  0
  4 41  1  0
  8 42  1  0
  9 43  1  6
 10 44  1  0
 10 45  1  0
 11 46  1  0
 11 47  1  0
 12 48  1  0
 12 49  1  0
 16 50  1  0
 16 51  1  0
 19 52  1  0
 20 53  1  0
 21 54  1  0
 22 55  1  0
 24 56  1  1
 25 57  1  0
 25 58  1  0
 26 59  1  0
 26 60  1  0
 27 61  1  1
 28 62  1  0
 28 63  1  0
 29 64  1  0
 29 65  1  0
 31 66  1  0
 31 67  1  0
 32 68  1  0
M  END
$$$$
