
     RDKit          3D

 63 66  0  0  0  0  0  0  0  0999 V2000
    1.9210   -1.2723   -2.2773 C   0  0  0  0  0  0  0  0  0  0  0  0
    0.7857   -0.5712   -1.5072 C   0  0  1  0  0  0  0  0  0  0  0  0
   -0.5813   -1.1879   -1.8809 C   0  0  0  0  0  0  0  0  0  0  0  0
   -1.6787   -0.5108   -1.2474 O   0  0  0  0  0  0  0  0  0  0  0  0
   -3.0355   -0.8325   -1.4590 C   0  0  0  0  0  0  0  0  0  0  0  0
   -3.3752   -1.8564   -2.3768 C   0  0  0  0  0  0  0  0  0  0  0  0
   -4.7015   -2.1721   -2.6505 C   0  0  0  0  0  0  0  0  0  0  0  0
   -5.7252   -1.4951   -2.0043 C   0  0  0  0  0  0  0  0  0  0  0  0
   -5.4251   -0.4994   -1.0802 C   0  0  0  0  0  0  0  0  0  0  0  0
   -4.0899   -0.1449   -0.7723 C   0  0  0  0  0  0  0  0  0  0  0  0
   -3.9149    0.9725    0.2782 C   0  0  0  0  0  0  0  0  0  0  0  0
   -3.5182    2.3396   -0.2868 C   0  0  0  0  0  0  0  0  0  0  0  0
   -2.0264    2.4684   -0.5422 C   0  0  0  0  0  0  0  0  0  0  0  0
   -1.1387    2.1043    0.6673 C   0  0  0  0  0  0  0  0  0  0  0  0
   -1.5939    0.7970    1.3966 C   0  0  0  0  0  0  0  0  0  0  0  0
   -3.1049    0.6081    1.5294 C   0  0  0  0  0  0  0  0  0  0  0  0
    0.1701    2.0138    0.1291 O   0  0  0  0  0  0  0  0  0  0  0  0
    1.1854    1.6550    1.0439 C   0  0  0  0  0  0  0  0  0  0  0  0
    1.9875    0.5016    0.4045 C   0  0  0  0  0  0  0  0  0  0  0  0
    3.1275   -0.0637    1.3055 C   0  0  1  0  0  0  0  0  0  0  0  0
    4.0471    0.9825    1.8035 N   0  0  0  0  0  0  0  0  0  0  0  0
    5.7155    0.5206    1.5690 S   0  0  0  0  0  6  0  0  0  0  0  0
    6.1272    0.6081   -0.1668 C   0  0  0  0  0  0  0  0  0  0  0  0
    6.6005    1.4697    2.3287 O   0  0  0  0  0  0  0  0  0  0  0  0
    5.9483   -0.8776    2.0771 O   0  0  0  0  0  0  0  0  0  0  0  0
    2.5601   -0.8598    2.4935 C   0  0  0  0  0  0  0  0  0  0  0  0
    1.3694   -1.7572    2.1046 C   0  0  0  0  0  0  0  0  0  0  0  0
    1.2060   -1.8901    0.5861 C   0  0  0  0  0  0  0  0  0  0  0  0
    1.0255   -0.5579   -0.0373 N   0  0  0  0  0  0  0  0  0  0  0  0
    1.8507   -1.0291   -3.3583 H   0  0  0  0  0  0  0  0  0  0  0  0
    2.9132   -0.9397   -1.9096 H   0  0  0  0  0  0  0  0  0  0  0  0
    1.8567   -2.3764   -2.1721 H   0  0  0  0  0  0  0  0  0  0  0  0
    0.7472    0.4771   -1.8785 H   0  0  0  0  0  0  0  0  0  0  0  0
   -0.6983   -1.1060   -2.9837 H   0  0  0  0  0  0  0  0  0  0  0  0
   -0.6077   -2.2652   -1.6144 H   0  0  0  0  0  0  0  0  0  0  0  0
   -2.6173   -2.4061   -2.9123 H   0  0  0  0  0  0  0  0  0  0  0  0
   -4.9335   -2.9477   -3.3697 H   0  0  0  0  0  0  0  0  0  0  0  0
   -6.7598   -1.7321   -2.2227 H   0  0  0  0  0  0  0  0  0  0  0  0
   -6.2587    0.0023   -0.6055 H   0  0  0  0  0  0  0  0  0  0  0  0
   -4.9302    1.1649    0.6999 H   0  0  0  0  0  0  0  0  0  0  0  0
   -3.8128    3.1378    0.4345 H   0  0  0  0  0  0  0  0  0  0  0  0
   -4.0814    2.5378   -1.2226 H   0  0  0  0  0  0  0  0  0  0  0  0
   -1.7567    1.8659   -1.4310 H   0  0  0  0  0  0  0  0  0  0  0  0
   -1.8158    3.5237   -0.8241 H   0  0  0  0  0  0  0  0  0  0  0  0
   -1.1863    2.9504    1.3901 H   0  0  0  0  0  0  0  0  0  0  0  0
   -1.2021    0.8069    2.4362 H   0  0  0  0  0  0  0  0  0  0  0  0
   -1.1604   -0.1057    0.9486 H   0  0  0  0  0  0  0  0  0  0  0  0
   -3.4503    1.2575    2.3669 H   0  0  0  0  0  0  0  0  0  0  0  0
   -3.3265   -0.4399    1.8299 H   0  0  0  0  0  0  0  0  0  0  0  0
    0.8317    1.3732    2.0532 H   0  0  0  0  0  0  0  0  0  0  0  0
    1.8336    2.5445    1.1843 H   0  0  0  0  0  0  0  0  0  0  0  0
    2.5051    0.9413   -0.4774 H   0  0  0  0  0  0  0  0  0  0  0  0
    3.6777   -0.7882    0.6631 H   0  0  0  0  0  0  0  0  0  0  0  0
    3.9347    1.8661    1.2516 H   0  0  0  0  0  0  0  0  0  0  0  0
    7.2113    0.4089   -0.2958 H   0  0  0  0  0  0  0  0  0  0  0  0
    5.5429   -0.1504   -0.7301 H   0  0  0  0  0  0  0  0  0  0  0  0
    5.8823    1.6223   -0.5518 H   0  0  0  0  0  0  0  0  0  0  0  0
    3.3687   -1.4894    2.9241 H   0  0  0  0  0  0  0  0  0  0  0  0
    2.2413   -0.1622    3.2980 H   0  0  0  0  0  0  0  0  0  0  0  0
    0.4307   -1.3336    2.5275 H   0  0  0  0  0  0  0  0  0  0  0  0
    1.4997   -2.7665    2.5537 H   0  0  0  0  0  0  0  0  0  0  0  0
    0.3128   -2.5210    0.4049 H   0  0  0  0  0  0  0  0  0  0  0  0
    2.0905   -2.4133    0.1652 H   0  0  0  0  0  0  0  0  0  0  0  0
  1  2  1  0
  2  3  1  0
  3  4  1  0
  4  5  1  0
  5  6  2  0
  6  7  1  0
  7  8  2  0
  8  9  1  0
  9 10  2  0
 10 11  1  0
 11 12  1  0
 12 13  1  0
 13 14  1  0
 14 15  1  0
 15 16  1  0
 14 17  1  0
 17 18  1  0
 18 19  1  0
 19 20  1  0
 20 21  1  0
 21 22  1  0
 22 23  1  0
 22 24  2  0
 22 25  2  0
 20 26  1  0
 26 27  1  0
 27 28  1  0
 28 29  1  0
 29  2  1  0
 10  5  1  0
 16 11  1  0
 29 19  1  0
  1 30  1  0
  1 31  1  0
  1 32  1  0
  2 33  1  6
  3 34  1  0
  3 35  1  0
  6 36  1  0
  7 37  1  0
  8 38  1  0
  9 39  1  0
 11 40  1  0
 12 41  1  0
 12 42  1  0
 13 43  1  0
 13 44  1  0
 14 45  1  0
 15 46  1  0
 15 47  1  0
 16 48  1  0
 16 49  1  0
 18 50  1  0
 18 51  1  0
 19 52  1  0
 20 53  1  6
 21 54  1  0
 23 55  1  0
 23 56  1  0
 23 57  1  0
 26 58  1  0
 26 59  1  0
 27 60  1  0
 27 61  1  0
 28 62  1  0
 28 63  1  0
M  END
$$$$
