
     RDKit          3D

107113  0  0  0  0  0  0  0  0999 V2000
    8.0337    4.3673   -1.9258 C   0  0  0  0  0  0  0  0  0  0  0  0
    8.0555    2.9773   -1.5965 O   0  0  0  0  0  0  0  0  0  0  0  0
    6.9120    2.1946   -1.3591 C   0  0  0  0  0  0  0  0  0  0  0  0
    5.6167    2.7366   -1.4584 C   0  0  0  0  0  0  0  0  0  0  0  0
    4.4905    1.9522   -1.2173 C   0  0  0  0  0  0  0  0  0  0  0  0
    4.6338    0.5925   -0.9012 C   0  0  0  0  0  0  0  0  0  0  0  0
    3.5120   -0.2408   -0.7035 C   0  0  0  0  0  0  0  0  0  0  0  0
    2.2135    0.2737   -0.7827 O   0  0  0  0  0  0  0  0  0  0  0  0
    1.5666    0.8691    0.3460 C   0  0  2  0  0  0  0  0  0  0  0  0
    0.7766   -0.1956    1.1020 C   0  0  0  0  0  0  0  0  0  0  0  0
   -0.5699   -0.2489    0.3948 C   0  0  1  0  0  0  0  0  0  0  0  0
   -1.6686   -0.6209    1.3485 C   0  0  0  0  0  0  0  0  0  0  0  0
   -2.1374    0.2369    2.1463 O   0  0  0  0  0  0  0  0  0  0  0  0
   -2.1406   -1.9753    1.3987 N   0  0  0  0  0  0  0  0  0  0  0  0
   -3.4170   -2.3851    0.8123 C   0  0  2  0  0  0  0  0  0  0  0  0
   -4.1478   -3.5136    1.4827 C   0  0  0  0  0  0  0  0  0  0  0  0
   -5.1541   -3.2709    2.2035 O   0  0  0  0  0  0  0  0  0  0  0  0
   -3.6744   -4.8573    1.3121 N   0  0  0  0  0  0  0  0  0  0  0  0
   -4.6570   -6.2506    1.6547 S   0  0  0  0  0  6  0  0  0  0  0  0
   -6.0714   -5.8236    1.9292 O   0  0  0  0  0  0  0  0  0  0  0  0
   -4.1076   -6.9502    2.8663 O   0  0  0  0  0  0  0  0  0  0  0  0
   -4.6970   -7.4078    0.2783 C   0  0  0  0  0  0  0  0  0  0  0  0
   -4.4280   -6.8170   -1.0966 C   0  0  0  0  0  0  0  0  0  0  0  0
   -3.3609   -7.6573   -0.4039 C   0  0  0  0  0  0  0  0  0  0  0  0
   -3.3306   -2.5955   -0.7067 C   0  0  0  0  0  0  0  0  0  0  0  0
   -4.1048   -1.4112   -0.1470 C   0  0  1  0  0  0  0  0  0  0  0  0
   -5.6059   -1.4972   -0.2846 C   0  0  0  0  0  0  0  0  0  0  0  0
   -6.4294   -0.4859    0.0511 C   0  0  0  0  0  0  0  0  0  0  0  0
   -5.9718    0.8064    0.6823 C   0  0  0  0  0  0  0  0  0  0  0  0
   -6.3753    2.0663   -0.1080 C   0  0  0  0  0  0  0  0  0  0  0  0
   -6.2213    2.0105   -1.6431 C   0  0  0  0  0  0  0  0  0  0  0  0
   -4.8058    1.7437   -2.1882 C   0  0  0  0  0  0  0  0  0  0  0  0
   -3.7716    2.8522   -1.8803 C   0  0  0  0  0  0  0  0  0  0  0  0
   -2.7801    2.5088   -0.7459 C   0  0  2  0  0  0  0  0  0  0  0  0
   -2.0497    3.7243   -0.3730 N   0  0  0  0  0  0  0  0  0  0  0  0
   -2.2514    4.4026    0.8774 C   0  0  0  0  0  0  0  0  0  0  0  0
   -3.0073    3.9052    1.7565 O   0  0  0  0  0  0  0  0  0  0  0  0
   -1.5768    5.6826    1.1467 C   0  0  0  0  0  0  0  0  0  0  0  0
   -0.8033    6.3372    0.2561 N   0  0  0  0  0  0  0  0  0  0  0  0
   -0.3215    7.5051    0.7613 C   0  0  0  0  0  0  0  0  0  0  0  0
    0.5321    8.4241   -0.0494 C   0  0  0  0  0  0  0  0  0  0  0  0
   -0.7216    7.7965    2.0611 C   0  0  0  0  0  0  0  0  0  0  0  0
   -1.7018    6.5376    2.5893 S   0  0  0  0  0  0  0  0  0  0  0  0
   -1.7913    1.4123   -1.0877 C   0  0  0  0  0  0  0  0  0  0  0  0
   -1.9164    0.7298   -2.1369 O   0  0  0  0  0  0  0  0  0  0  0  0
   -0.7443    1.0873   -0.1626 N   0  0  0  0  0  0  0  0  0  0  0  0
    0.4996    1.8476   -0.1373 C   0  0  0  0  0  0  0  0  0  0  0  0
    3.7007   -1.6070   -0.4476 C   0  0  0  0  0  0  0  0  0  0  0  0
    4.9939   -2.1227   -0.3492 C   0  0  0  0  0  0  0  0  0  0  0  0
    5.1706   -3.4822   -0.0569 O   0  0  0  0  0  0  0  0  0  0  0  0
    6.4508   -4.0961    0.1375 C   0  0  0  0  0  0  0  0  0  0  0  0
    7.0307   -3.7108    1.4999 C   0  0  0  0  0  0  0  0  0  0  0  0
    6.2972   -5.6164    0.0458 C   0  0  0  0  0  0  0  0  0  0  0  0
    6.0626   -1.3007   -0.5383 N   0  0  0  0  0  0  0  0  0  0  0  0
    5.9281    0.0286   -0.8119 C   0  0  0  0  0  0  0  0  0  0  0  0
    7.0701    0.8337   -1.0164 C   0  0  0  0  0  0  0  0  0  0  0  0
    8.4514    0.2254   -0.9394 C   0  0  0  0  0  0  0  0  0  0  0  0
    7.4760    4.5278   -2.8734 H   0  0  0  0  0  0  0  0  0  0  0  0
    7.5712    4.9526   -1.1004 H   0  0  0  0  0  0  0  0  0  0  0  0
    9.0716    4.7243   -2.0675 H   0  0  0  0  0  0  0  0  0  0  0  0
    5.4685    3.7647   -1.7478 H   0  0  0  0  0  0  0  0  0  0  0  0
    3.5094    2.4080   -1.2921 H   0  0  0  0  0  0  0  0  0  0  0  0
    2.3084    1.3844    1.0020 H   0  0  0  0  0  0  0  0  0  0  0  0
    0.6528    0.1398    2.1606 H   0  0  0  0  0  0  0  0  0  0  0  0
    1.2734   -1.1868    1.0995 H   0  0  0  0  0  0  0  0  0  0  0  0
   -0.5282   -0.9916   -0.4304 H   0  0  0  0  0  0  0  0  0  0  0  0
   -1.7575   -2.5767    2.1676 H   0  0  0  0  0  0  0  0  0  0  0  0
   -2.7444   -5.0020    0.8541 H   0  0  0  0  0  0  0  0  0  0  0  0
   -5.3875   -8.2763    0.2937 H   0  0  0  0  0  0  0  0  0  0  0  0
   -4.9651   -7.3362   -1.9195 H   0  0  0  0  0  0  0  0  0  0  0  0
   -4.2182   -5.7289   -1.1276 H   0  0  0  0  0  0  0  0  0  0  0  0
   -2.4955   -7.0821   -0.0204 H   0  0  0  0  0  0  0  0  0  0  0  0
   -3.2449   -8.6771   -0.8217 H   0  0  0  0  0  0  0  0  0  0  0  0
   -3.9670   -3.3975   -1.1435 H   0  0  0  0  0  0  0  0  0  0  0  0
   -2.3712   -2.3103   -1.1872 H   0  0  0  0  0  0  0  0  0  0  0  0
   -3.5856   -0.4632   -0.3347 H   0  0  0  0  0  0  0  0  0  0  0  0
   -6.0498   -2.3946   -0.7015 H   0  0  0  0  0  0  0  0  0  0  0  0
   -7.4918   -0.6156   -0.1164 H   0  0  0  0  0  0  0  0  0  0  0  0
   -4.8924    0.8200    0.8772 H   0  0  0  0  0  0  0  0  0  0  0  0
   -6.4318    0.8721    1.6896 H   0  0  0  0  0  0  0  0  0  0  0  0
   -7.4473    2.2693    0.0980 H   0  0  0  0  0  0  0  0  0  0  0  0
   -5.8218    2.9422    0.2917 H   0  0  0  0  0  0  0  0  0  0  0  0
   -6.8993    1.2220   -2.0399 H   0  0  0  0  0  0  0  0  0  0  0  0
   -6.5790    2.9791   -2.0585 H   0  0  0  0  0  0  0  0  0  0  0  0
   -4.4611    0.7476   -1.8741 H   0  0  0  0  0  0  0  0  0  0  0  0
   -4.9081    1.6834   -3.2960 H   0  0  0  0  0  0  0  0  0  0  0  0
   -3.1833    3.0656   -2.7997 H   0  0  0  0  0  0  0  0  0  0  0  0
   -4.3035    3.7923   -1.6218 H   0  0  0  0  0  0  0  0  0  0  0  0
   -3.3606    2.1476    0.1171 H   0  0  0  0  0  0  0  0  0  0  0  0
   -1.4002    4.1369   -1.0809 H   0  0  0  0  0  0  0  0  0  0  0  0
    0.8982    7.9051   -0.9617 H   0  0  0  0  0  0  0  0  0  0  0  0
    1.4099    8.7512    0.5490 H   0  0  0  0  0  0  0  0  0  0  0  0
   -0.0680    9.3090   -0.3548 H   0  0  0  0  0  0  0  0  0  0  0  0
   -0.4595    8.6763    2.6275 H   0  0  0  0  0  0  0  0  0  0  0  0
    0.4023    2.6953    0.5806 H   0  0  0  0  0  0  0  0  0  0  0  0
    0.7431    2.2387   -1.1523 H   0  0  0  0  0  0  0  0  0  0  0  0
    2.8481   -2.2663   -0.3240 H   0  0  0  0  0  0  0  0  0  0  0  0
    7.1458   -3.7695   -0.6649 H   0  0  0  0  0  0  0  0  0  0  0  0
    7.1792   -2.6113    1.5564 H   0  0  0  0  0  0  0  0  0  0  0  0
    8.0218   -4.1955    1.6481 H   0  0  0  0  0  0  0  0  0  0  0  0
    6.3480   -4.0219    2.3217 H   0  0  0  0  0  0  0  0  0  0  0  0
    5.6235   -5.9916    0.8528 H   0  0  0  0  0  0  0  0  0  0  0  0
    7.2893   -6.1161    0.1462 H   0  0  0  0  0  0  0  0  0  0  0  0
    5.8741   -5.8851   -0.9468 H   0  0  0  0  0  0  0  0  0  0  0  0
    8.4849   -0.5970   -0.1975 H   0  0  0  0  0  0  0  0  0  0  0  0
    8.7415   -0.1653   -1.9338 H   0  0  0  0  0  0  0  0  0  0  0  0
    9.1968    0.9758   -0.6167 H   0  0  0  0  0  0  0  0  0  0  0  0
  1  2  1  0
  2  3  1  0
  3  4  2  0
  4  5  1  0
  5  6  2  0
  6  7  1  0
  7  8  1  0
  8  9  1  0
  9 10  1  0
 10 11  1  0
 11 12  1  0
 12 13  2  0
 12 14  1  0
 14 15  1  0
 15 16  1  1
 16 17  2  0
 16 18  1  0
 18 19  1  0
 19 20  2  0
 19 21  2  0
 19 22  1  0
 22 23  1  0
 23 24  1  0
 15 25  1  0
 25 26  1  0
 26 27  1  0
 27 28  2  0
 28 29  1  0
 29 30  1  0
 30 31  1  0
 31 32  1  0
 32 33  1  0
 33 34  1  0
 34 35  1  0
 35 36  1  0
 36 37  2  0
 36 38  1  0
 38 39  2  0
 39 40  1  0
 40 41  1  0
 40 42  2  0
 42 43  1  0
 34 44  1  0
 44 45  2  0
 44 46  1  0
 46 47  1  0
  7 48  2  0
 48 49  1  0
 49 50  1  0
 50 51  1  0
 51 52  1  0
 51 53  1  0
 49 54  2  0
 54 55  1  0
 55 56  2  0
 56 57  1  0
 56  3  1  0
 55  6  1  0
 47  9  1  0
 46 11  1  0
 26 15  1  0
 43 38  1  0
 24 22  1  0
  1 58  1  0
  1 59  1  0
  1 60  1  0
  4 61  1  0
  5 62  1  0
  9 63  1  1
 10 64  1  0
 10 65  1  0
 11 66  1  6
 14 67  1  0
 18 68  1  0
 22 69  1  0
 23 70  1  0
 23 71  1  0
 24 72  1  0
 24 73  1  0
 25 74  1  0
 25 75  1  0
 26 76  1  6
 27 77  1  0
 28 78  1  0
 29 79  1  0
 29 80  1  0
 30 81  1  0
 30 82  1  0
 31 83  1  0
 31 84  1  0
 32 85  1  0
 32 86  1  0
 33 87  1  0
 33 88  1  0
 34 89  1  1
 35 90  1  0
 41 91  1  0
 41 92  1  0
 41 93  1  0
 42 94  1  0
 47 95  1  0
 47 96  1  0
 48 97  1  0
 51 98  1  0
 52 99  1  0
 52100  1  0
 52101  1  0
 53102  1  0
 53103  1  0
 53104  1  0
 57105  1  0
 57106  1  0
 57107  1  0
M  END
$$$$
