
     RDKit          3D

133133  0  0  0  0  0  0  0  0999 V2000
    1.1042   -9.3262   -0.8375 C   0  0  0  0  0  0  0  0  0  0  0  0
    0.1260   -8.6112    0.0972 C   0  0  0  0  0  0  0  0  0  0  0  0
    0.1258   -7.0870   -0.0986 C   0  0  0  0  0  0  0  0  0  0  0  0
    1.4044   -6.4257    0.4458 C   0  0  0  0  0  0  0  0  0  0  0  0
    1.3339   -4.8845    0.4865 C   0  0  0  0  0  0  0  0  0  0  0  0
    1.5117   -4.2068   -0.8883 C   0  0  2  0  0  0  0  0  0  0  0  0
    1.7477   -2.8106   -0.7227 O   0  0  0  0  0  0  0  0  0  0  0  0
    2.9351   -2.2146   -1.1457 C   0  0  0  0  0  0  0  0  0  0  0  0
    2.9195   -1.4810   -2.1679 O   0  0  0  0  0  0  0  0  0  0  0  0
    4.2064   -2.3955   -0.3592 C   0  0  1  0  0  0  0  0  0  0  0  0
    5.4258   -2.5537   -1.2843 C   0  0  0  0  0  0  0  0  0  0  0  0
    4.3742   -1.2861    0.6036 N   0  0  0  0  0  0  0  0  0  0  0  0
    3.7270   -1.3374    1.9109 C   0  0  0  0  0  0  0  0  0  0  0  0
    5.0312   -0.0587    0.2359 C   0  0  0  0  0  0  0  0  0  0  0  0
    6.2568    0.0841    0.5061 O   0  0  0  0  0  0  0  0  0  0  0  0
    4.2728    1.0191   -0.5055 C   0  0  2  0  0  0  0  0  0  0  0  0
    4.8558    2.4261   -0.2362 C   0  0  0  0  0  0  0  0  0  0  0  0
    4.6393    2.9081    1.2139 C   0  0  0  0  0  0  0  0  0  0  0  0
    5.4513    4.1683    1.5553 C   0  0  0  0  0  0  0  0  0  0  0  0
    5.0912    5.3719    0.6719 C   0  0  0  0  0  0  0  0  0  0  0  0
    5.7283    6.6531    1.1977 C   0  0  0  0  0  0  0  0  0  0  0  0
    2.8966    0.9549   -0.1198 O   0  0  0  0  0  0  0  0  0  0  0  0
    1.8048    1.0751   -0.9866 C   0  0  0  0  0  0  0  0  0  0  0  0
    0.7792    0.3820   -0.7446 O   0  0  0  0  0  0  0  0  0  0  0  0
    1.7860    2.0427   -2.1527 C   0  0  1  0  0  0  0  0  0  0  0  0
    1.3567    1.3271   -3.4438 C   0  0  0  0  0  0  0  0  0  0  0  0
    0.9138    3.2068   -1.8743 N   0  0  0  0  0  0  0  0  0  0  0  0
    1.0766    4.4037   -2.7113 C   0  0  0  0  0  0  0  0  0  0  0  0
   -0.3955    3.0129   -1.3067 C   0  0  0  0  0  0  0  0  0  0  0  0
   -1.3448    2.6736   -2.0703 O   0  0  0  0  0  0  0  0  0  0  0  0
   -0.6966    3.2033    0.1653 C   0  0  2  0  0  0  0  0  0  0  0  0
    0.5021    3.6214    1.0529 C   0  0  0  0  0  0  0  0  0  0  0  0
    1.0935    5.0197    0.7810 C   0  0  0  0  0  0  0  0  0  0  0  0
    0.0383    6.1361    0.7080 C   0  0  0  0  0  0  0  0  0  0  0  0
    0.6747    7.5285    0.5776 C   0  0  0  0  0  0  0  0  0  0  0  0
    1.2257    8.0479    1.9051 C   0  0  0  0  0  0  0  0  0  0  0  0
   -1.2484    1.9801    0.6544 O   0  0  0  0  0  0  0  0  0  0  0  0
   -2.1240    1.9114    1.7440 C   0  0  0  0  0  0  0  0  0  0  0  0
   -2.2056    2.8634    2.5693 O   0  0  0  0  0  0  0  0  0  0  0  0
   -3.1148    0.7844    1.7797 C   0  0  1  0  0  0  0  0  0  0  0  0
   -3.5345    0.3882    3.2069 C   0  0  0  0  0  0  0  0  0  0  0  0
   -4.2680    1.1490    0.9324 N   0  0  0  0  0  0  0  0  0  0  0  0
   -5.2817    2.1066    1.3966 C   0  0  0  0  0  0  0  0  0  0  0  0
   -4.2039    0.8762   -0.4794 C   0  0  0  0  0  0  0  0  0  0  0  0
   -4.2087    1.8363   -1.2991 O   0  0  0  0  0  0  0  0  0  0  0  0
   -4.1663   -0.5336   -1.0124 C   0  0  2  0  0  0  0  0  0  0  0  0
   -5.2075   -1.4250   -0.3015 C   0  0  0  0  0  0  0  0  0  0  0  0
   -6.6571   -1.0316   -0.6422 C   0  0  0  0  0  0  0  0  0  0  0  0
   -7.6833   -1.6857    0.3018 C   0  0  0  0  0  0  0  0  0  0  0  0
   -7.7289   -3.2243    0.2380 C   0  0  0  0  0  0  0  0  0  0  0  0
   -8.2613   -3.7452   -1.0935 C   0  0  0  0  0  0  0  0  0  0  0  0
   -2.8547   -1.0731   -0.8387 O   0  0  0  0  0  0  0  0  0  0  0  0
   -2.4645   -2.3010   -1.3810 C   0  0  0  0  0  0  0  0  0  0  0  0
   -3.0264   -2.7351   -2.4253 O   0  0  0  0  0  0  0  0  0  0  0  0
   -1.5607   -3.1938   -0.5726 C   0  0  1  0  0  0  0  0  0  0  0  0
   -2.3822   -3.7741    0.5888 C   0  0  0  0  0  0  0  0  0  0  0  0
   -1.0298   -4.2845   -1.3984 N   0  0  0  0  0  0  0  0  0  0  0  0
    0.3401   -4.3988   -1.8253 C   0  0  0  0  0  0  0  0  0  0  0  0
    0.5751   -4.7431   -3.0129 O   0  0  0  0  0  0  0  0  0  0  0  0
    2.1483   -9.0538   -0.5885 H   0  0  0  0  0  0  0  0  0  0  0  0
    0.9899  -10.4248   -0.7229 H   0  0  0  0  0  0  0  0  0  0  0  0
    0.8933   -9.0592   -1.8958 H   0  0  0  0  0  0  0  0  0  0  0  0
    0.3569   -8.8711    1.1540 H   0  0  0  0  0  0  0  0  0  0  0  0
   -0.8994   -8.9911   -0.1206 H   0  0  0  0  0  0  0  0  0  0  0  0
    0.0084   -6.8793   -1.1811 H   0  0  0  0  0  0  0  0  0  0  0  0
   -0.7546   -6.6708    0.4319 H   0  0  0  0  0  0  0  0  0  0  0  0
    2.2850   -6.7406   -0.1562 H   0  0  0  0  0  0  0  0  0  0  0  0
    1.5684   -6.7832    1.4845 H   0  0  0  0  0  0  0  0  0  0  0  0
    0.4073   -4.5495    0.9837 H   0  0  0  0  0  0  0  0  0  0  0  0
    2.1641   -4.5404    1.1379 H   0  0  0  0  0  0  0  0  0  0  0  0
    2.4046   -4.6717   -1.3659 H   0  0  0  0  0  0  0  0  0  0  0  0
    4.1277   -3.3498    0.2056 H   0  0  0  0  0  0  0  0  0  0  0  0
    5.5722   -1.6485   -1.9170 H   0  0  0  0  0  0  0  0  0  0  0  0
    5.2863   -3.4331   -1.9486 H   0  0  0  0  0  0  0  0  0  0  0  0
    6.3410   -2.7160   -0.6764 H   0  0  0  0  0  0  0  0  0  0  0  0
    3.0167   -0.4925    2.0193 H   0  0  0  0  0  0  0  0  0  0  0  0
    4.4935   -1.2682    2.7067 H   0  0  0  0  0  0  0  0  0  0  0  0
    3.1587   -2.2837    2.0448 H   0  0  0  0  0  0  0  0  0  0  0  0
    4.3743    0.7935   -1.5897 H   0  0  0  0  0  0  0  0  0  0  0  0
    5.9441    2.4244   -0.4734 H   0  0  0  0  0  0  0  0  0  0  0  0
    4.3773    3.1545   -0.9262 H   0  0  0  0  0  0  0  0  0  0  0  0
    3.5637    3.1107    1.3899 H   0  0  0  0  0  0  0  0  0  0  0  0
    4.9481    2.1079    1.9239 H   0  0  0  0  0  0  0  0  0  0  0  0
    5.2538    4.4234    2.6198 H   0  0  0  0  0  0  0  0  0  0  0  0
    6.5380    3.9466    1.4559 H   0  0  0  0  0  0  0  0  0  0  0  0
    5.4471    5.1995   -0.3637 H   0  0  0  0  0  0  0  0  0  0  0  0
    3.9906    5.5096    0.6475 H   0  0  0  0  0  0  0  0  0  0  0  0
    6.8292    6.5293    1.2822 H   0  0  0  0  0  0  0  0  0  0  0  0
    5.3043    6.9117    2.1923 H   0  0  0  0  0  0  0  0  0  0  0  0
    5.5164    7.4870    0.4965 H   0  0  0  0  0  0  0  0  0  0  0  0
    2.8171    2.4093   -2.3336 H   0  0  0  0  0  0  0  0  0  0  0  0
    1.3912    2.0278   -4.3026 H   0  0  0  0  0  0  0  0  0  0  0  0
    2.0551    0.4967   -3.6668 H   0  0  0  0  0  0  0  0  0  0  0  0
    0.3244    0.9122   -3.3602 H   0  0  0  0  0  0  0  0  0  0  0  0
    2.1533    4.6360   -2.8477 H   0  0  0  0  0  0  0  0  0  0  0  0
    0.6070    4.2476   -3.7016 H   0  0  0  0  0  0  0  0  0  0  0  0
    0.6021    5.2789   -2.2330 H   0  0  0  0  0  0  0  0  0  0  0  0
   -1.4910    3.9793    0.2267 H   0  0  0  0  0  0  0  0  0  0  0  0
    1.3103    2.8649    0.9662 H   0  0  0  0  0  0  0  0  0  0  0  0
    0.1789    3.6102    2.1174 H   0  0  0  0  0  0  0  0  0  0  0  0
    1.7014    5.0003   -0.1446 H   0  0  0  0  0  0  0  0  0  0  0  0
    1.7996    5.2387    1.6128 H   0  0  0  0  0  0  0  0  0  0  0  0
   -0.6270    6.1003    1.5929 H   0  0  0  0  0  0  0  0  0  0  0  0
   -0.5831    5.9874   -0.1998 H   0  0  0  0  0  0  0  0  0  0  0  0
    1.4870    7.5168   -0.1857 H   0  0  0  0  0  0  0  0  0  0  0  0
   -0.1054    8.2414    0.2220 H   0  0  0  0  0  0  0  0  0  0  0  0
    2.1021    7.4513    2.2284 H   0  0  0  0  0  0  0  0  0  0  0  0
    0.4396    8.0142    2.6894 H   0  0  0  0  0  0  0  0  0  0  0  0
    1.5473    9.1041    1.7797 H   0  0  0  0  0  0  0  0  0  0  0  0
   -2.6181   -0.1172    1.3643 H   0  0  0  0  0  0  0  0  0  0  0  0
   -4.4190   -0.2906    3.1646 H   0  0  0  0  0  0  0  0  0  0  0  0
   -2.7030   -0.1550    3.7113 H   0  0  0  0  0  0  0  0  0  0  0  0
   -3.8011    1.2698    3.8300 H   0  0  0  0  0  0  0  0  0  0  0  0
   -5.0673    2.4739    2.4213 H   0  0  0  0  0  0  0  0  0  0  0  0
   -6.2776    1.6169    1.4002 H   0  0  0  0  0  0  0  0  0  0  0  0
   -5.3160    2.9949    0.7285 H   0  0  0  0  0  0  0  0  0  0  0  0
   -4.4031   -0.5064   -2.1002 H   0  0  0  0  0  0  0  0  0  0  0  0
   -5.0414   -1.3926    0.7998 H   0  0  0  0  0  0  0  0  0  0  0  0
   -5.0515   -2.4780   -0.6222 H   0  0  0  0  0  0  0  0  0  0  0  0
   -6.8733   -1.2934   -1.7020 H   0  0  0  0  0  0  0  0  0  0  0  0
   -6.7740    0.0687   -0.5492 H   0  0  0  0  0  0  0  0  0  0  0  0
   -7.4493   -1.3804    1.3489 H   0  0  0  0  0  0  0  0  0  0  0  0
   -8.6895   -1.2834    0.0613 H   0  0  0  0  0  0  0  0  0  0  0  0
   -6.7299   -3.6611    0.4406 H   0  0  0  0  0  0  0  0  0  0  0  0
   -8.4013   -3.5778    1.0448 H   0  0  0  0  0  0  0  0  0  0  0  0
   -7.5527   -3.5195   -1.9148 H   0  0  0  0  0  0  0  0  0  0  0  0
   -8.3853   -4.8477   -1.0371 H   0  0  0  0  0  0  0  0  0  0  0  0
   -9.2500   -3.2912   -1.3209 H   0  0  0  0  0  0  0  0  0  0  0  0
   -0.7339   -2.5856   -0.1544 H   0  0  0  0  0  0  0  0  0  0  0  0
   -3.2720   -4.3187    0.2075 H   0  0  0  0  0  0  0  0  0  0  0  0
   -1.7870   -4.4848    1.1925 H   0  0  0  0  0  0  0  0  0  0  0  0
   -2.7262   -2.9569    1.2611 H   0  0  0  0  0  0  0  0  0  0  0  0
   -1.7253   -4.9061   -1.8739 H   0  0  0  0  0  0  0  0  0  0  0  0
  1  2  1  0
  2  3  1  0
  3  4  1  0
  4  5  1  0
  5  6  1  0
  6  7  1  0
  7  8  1  0
  8  9  2  0
  8 10  1  0
 10 11  1  0
 10 12  1  0
 12 13  1  0
 12 14  1  0
 14 15  2  0
 14 16  1  0
 16 17  1  0
 17 18  1  0
 18 19  1  0
 19 20  1  0
 20 21  1  0
 16 22  1  0
 22 23  1  0
 23 24  2  0
 23 25  1  0
 25 26  1  0
 25 27  1  0
 27 28  1  0
 27 29  1  0
 29 30  2  0
 29 31  1  0
 31 32  1  0
 32 33  1  0
 33 34  1  0
 34 35  1  0
 35 36  1  0
 31 37  1  0
 37 38  1  0
 38 39  2  0
 38 40  1  0
 40 41  1  0
 40 42  1  0
 42 43  1  0
 42 44  1  0
 44 45  2  0
 44 46  1  0
 46 47  1  0
 47 48  1  0
 48 49  1  0
 49 50  1  0
 50 51  1  0
 46 52  1  0
 52 53  1  0
 53 54  2  0
 53 55  1  0
 55 56  1  0
 55 57  1  0
 57 58  1  0
 58 59  2  0
 58  6  1  0
  1 60  1  0
  1 61  1  0
  1 62  1  0
  2 63  1  0
  2 64  1  0
  3 65  1  0
  3 66  1  0
  4 67  1  0
  4 68  1  0
  5 69  1  0
  5 70  1  0
  6 71  1  6
 10 72  1  1
 11 73  1  0
 11 74  1  0
 11 75  1  0
 13 76  1  0
 13 77  1  0
 13 78  1  0
 16 79  1  6
 17 80  1  0
 17 81  1  0
 18 82  1  0
 18 83  1  0
 19 84  1  0
 19 85  1  0
 20 86  1  0
 20 87  1  0
 21 88  1  0
 21 89  1  0
 21 90  1  0
 25 91  1  6
 26 92  1  0
 26 93  1  0
 26 94  1  0
 28 95  1  0
 28 96  1  0
 28 97  1  0
 31 98  1  6
 32 99  1  0
 32100  1  0
 33101  1  0
 33102  1  0
 34103  1  0
 34104  1  0
 35105  1  0
 35106  1  0
 36107  1  0
 36108  1  0
 36109  1  0
 40110  1  6
 41111  1  0
 41112  1  0
 41113  1  0
 43114  1  0
 43115  1  0
 43116  1  0
 46117  1  6
 47118  1  0
 47119  1  0
 48120  1  0
 48121  1  0
 49122  1  0
 49123  1  0
 50124  1  0
 50125  1  0
 51126  1  0
 51127  1  0
 51128  1  0
 55129  1  1
 56130  1  0
 56131  1  0
 56132  1  0
 57133  1  0
M  END
$$$$
