
     RDKit          3D

104110  0  0  0  0  0  0  0  0999 V2000
    6.0724    3.2691    2.2634 C   0  0  0  0  0  0  0  0  0  0  0  0
    5.7883    1.9705    2.1611 C   0  0  0  0  0  0  0  0  0  0  0  0
    4.4117    1.5257    1.7391 C   0  0  2  0  0  0  0  0  0  0  0  0
    4.3102    0.0248    1.4687 C   0  0  0  0  0  0  0  0  0  0  0  0
    4.2408    1.0146    0.3073 C   0  0  1  0  0  0  0  0  0  0  0  0
    2.9114    1.2388   -0.2550 N   0  0  0  0  0  0  0  0  0  0  0  0
    2.0858    0.1558   -0.7072 C   0  0  0  0  0  0  0  0  0  0  0  0
    2.6146   -0.9512   -0.9916 O   0  0  0  0  0  0  0  0  0  0  0  0
    0.5935    0.3501   -0.8711 C   0  0  2  0  0  0  0  0  0  0  0  0
   -0.0025    1.1646    0.2841 C   0  0  0  0  0  0  0  0  0  0  0  0
   -1.2721    0.4308    0.7191 C   0  0  2  0  0  0  0  0  0  0  0  0
   -1.1047   -0.9962    0.2175 C   0  0  0  0  0  0  0  0  0  0  0  0
   -0.1127   -0.9274   -0.8458 N   0  0  0  0  0  0  0  0  0  0  0  0
   -0.0254   -1.8956   -1.9134 C   0  0  0  0  0  0  0  0  0  0  0  0
    0.4585   -1.5431   -3.0235 O   0  0  0  0  0  0  0  0  0  0  0  0
   -0.5795   -3.2979   -1.7412 C   0  0  2  0  0  0  0  0  0  0  0  0
    0.2942   -4.4485   -2.3533 C   0  0  0  0  0  0  0  0  0  0  0  0
   -0.2715   -5.8065   -1.8801 C   0  0  0  0  0  0  0  0  0  0  0  0
    0.2949   -4.4412   -3.8997 C   0  0  0  0  0  0  0  0  0  0  0  0
    1.7495   -4.3426   -1.8505 C   0  0  0  0  0  0  0  0  0  0  0  0
   -1.9514   -3.3295   -2.2636 N   0  0  0  0  0  0  0  0  0  0  0  0
   -3.0710   -3.5637   -1.4042 C   0  0  0  0  0  0  0  0  0  0  0  0
   -4.1568   -2.9624   -1.6233 O   0  0  0  0  0  0  0  0  0  0  0  0
   -2.9488   -4.4314   -0.3144 O   0  0  0  0  0  0  0  0  0  0  0  0
   -3.5283   -4.1498    0.9562 C   0  0  2  0  0  0  0  0  0  0  0  0
   -4.2406   -5.3432    1.5706 C   0  0  0  0  0  0  0  0  0  0  0  0
   -5.0493   -4.1840    1.0007 C   0  0  1  0  0  0  0  0  0  0  0  0
   -5.6427   -3.1957    2.0171 C   0  0  0  0  0  0  0  0  0  0  0  0
   -5.5792   -1.7694    1.4562 C   0  0  0  0  0  0  0  0  0  0  0  0
   -6.0604   -0.7320    2.4826 C   0  0  0  0  0  0  0  0  0  0  0  0
   -5.7127    0.6996    2.0406 C   0  0  0  0  0  0  0  0  0  0  0  0
   -4.2705    1.0805    2.4182 C   0  0  0  0  0  0  0  0  0  0  0  0
   -3.8230    2.3018    1.6634 C   0  0  0  0  0  0  0  0  0  0  0  0
   -4.3235    3.5140    2.0260 N   0  0  0  0  0  0  0  0  0  0  0  0
   -4.0263    4.6427    1.3343 C   0  0  0  0  0  0  0  0  0  0  0  0
   -4.5492    5.8754    1.7263 C   0  0  0  0  0  0  0  0  0  0  0  0
   -4.2508    7.0235    0.9865 C   0  0  0  0  0  0  0  0  0  0  0  0
   -3.4258    6.9525   -0.1456 C   0  0  0  0  0  0  0  0  0  0  0  0
   -3.1597    8.1360   -0.8520 O   0  0  0  0  0  0  0  0  0  0  0  0
   -2.3839    8.2060   -2.0431 C   0  0  0  0  0  0  0  0  0  0  0  0
   -2.8949    5.7069   -0.5347 C   0  0  0  0  0  0  0  0  0  0  0  0
   -3.1953    4.5580    0.2034 C   0  0  0  0  0  0  0  0  0  0  0  0
   -2.6905    3.3522   -0.1609 N   0  0  0  0  0  0  0  0  0  0  0  0
   -2.9719    2.2224    0.5403 C   0  0  0  0  0  0  0  0  0  0  0  0
   -2.4311    1.0074    0.1133 O   0  0  0  0  0  0  0  0  0  0  0  0
    5.4090    1.0922   -0.6288 C   0  0  0  0  0  0  0  0  0  0  0  0
    5.8896    2.2176   -0.9276 O   0  0  0  0  0  0  0  0  0  0  0  0
    5.9660   -0.1027   -1.1825 N   0  0  0  0  0  0  0  0  0  0  0  0
    7.5925   -0.1495   -1.7725 S   0  0  0  0  0  6  0  0  0  0  0  0
    7.8344    1.0178   -2.6911 O   0  0  0  0  0  0  0  0  0  0  0  0
    7.7965   -1.4200   -2.5481 O   0  0  0  0  0  0  0  0  0  0  0  0
    8.7099   -0.1422   -0.3722 C   0  0  0  0  0  0  0  0  0  0  0  0
    9.0171    1.2359    0.1915 C   0  0  0  0  0  0  0  0  0  0  0  0
   10.0637    0.4985   -0.6265 C   0  0  0  0  0  0  0  0  0  0  0  0
    7.0621    3.5850    2.5708 H   0  0  0  0  0  0  0  0  0  0  0  0
    5.3225    4.0225    2.0421 H   0  0  0  0  0  0  0  0  0  0  0  0
    6.5610    1.2405    2.3962 H   0  0  0  0  0  0  0  0  0  0  0  0
    3.5204    1.9417    2.2555 H   0  0  0  0  0  0  0  0  0  0  0  0
    3.3367   -0.4167    1.7739 H   0  0  0  0  0  0  0  0  0  0  0  0
    5.2614   -0.5494    1.5369 H   0  0  0  0  0  0  0  0  0  0  0  0
    2.5401    2.2145   -0.2835 H   0  0  0  0  0  0  0  0  0  0  0  0
    0.3896    0.8678   -1.8338 H   0  0  0  0  0  0  0  0  0  0  0  0
    0.6899    1.1994    1.1554 H   0  0  0  0  0  0  0  0  0  0  0  0
   -0.2092    2.2064   -0.0390 H   0  0  0  0  0  0  0  0  0  0  0  0
   -1.3689    0.4399    1.8275 H   0  0  0  0  0  0  0  0  0  0  0  0
   -2.0726   -1.3842   -0.1632 H   0  0  0  0  0  0  0  0  0  0  0  0
   -0.7354   -1.6543    1.0353 H   0  0  0  0  0  0  0  0  0  0  0  0
   -0.6007   -3.4858   -0.6433 H   0  0  0  0  0  0  0  0  0  0  0  0
   -1.3041   -5.9595   -2.2605 H   0  0  0  0  0  0  0  0  0  0  0  0
    0.3562   -6.6468   -2.2501 H   0  0  0  0  0  0  0  0  0  0  0  0
   -0.2960   -5.8585   -0.7685 H   0  0  0  0  0  0  0  0  0  0  0  0
    0.8552   -5.3199   -4.2898 H   0  0  0  0  0  0  0  0  0  0  0  0
    0.7937   -3.5429   -4.3134 H   0  0  0  0  0  0  0  0  0  0  0  0
   -0.7390   -4.4998   -4.3014 H   0  0  0  0  0  0  0  0  0  0  0  0
    1.7781   -4.3277   -0.7401 H   0  0  0  0  0  0  0  0  0  0  0  0
    2.3532   -5.2041   -2.2086 H   0  0  0  0  0  0  0  0  0  0  0  0
    2.2343   -3.4182   -2.2277 H   0  0  0  0  0  0  0  0  0  0  0  0
   -2.1362   -2.9332   -3.2119 H   0  0  0  0  0  0  0  0  0  0  0  0
   -2.9767   -3.4861    1.6535 H   0  0  0  0  0  0  0  0  0  0  0  0
   -4.2420   -6.2574    0.9397 H   0  0  0  0  0  0  0  0  0  0  0  0
   -4.1718   -5.3927    2.6775 H   0  0  0  0  0  0  0  0  0  0  0  0
   -5.5752   -4.3963    0.0439 H   0  0  0  0  0  0  0  0  0  0  0  0
   -5.0906   -3.2379    2.9841 H   0  0  0  0  0  0  0  0  0  0  0  0
   -6.7022   -3.4697    2.2126 H   0  0  0  0  0  0  0  0  0  0  0  0
   -4.5328   -1.5457    1.1539 H   0  0  0  0  0  0  0  0  0  0  0  0
   -6.2165   -1.7040    0.5464 H   0  0  0  0  0  0  0  0  0  0  0  0
   -7.1629   -0.8228    2.5853 H   0  0  0  0  0  0  0  0  0  0  0  0
   -5.6132   -0.9294    3.4826 H   0  0  0  0  0  0  0  0  0  0  0  0
   -5.8684    0.8002    0.9414 H   0  0  0  0  0  0  0  0  0  0  0  0
   -6.4133    1.4131    2.5345 H   0  0  0  0  0  0  0  0  0  0  0  0
   -3.5905    0.2296    2.2283 H   0  0  0  0  0  0  0  0  0  0  0  0
   -4.2209    1.2869    3.5104 H   0  0  0  0  0  0  0  0  0  0  0  0
   -5.1944    5.9413    2.5932 H   0  0  0  0  0  0  0  0  0  0  0  0
   -4.6549    7.9783    1.2975 H   0  0  0  0  0  0  0  0  0  0  0  0
   -2.8415    7.5737   -2.8328 H   0  0  0  0  0  0  0  0  0  0  0  0
   -1.3462    7.8682   -1.8436 H   0  0  0  0  0  0  0  0  0  0  0  0
   -2.3562    9.2588   -2.3948 H   0  0  0  0  0  0  0  0  0  0  0  0
   -2.2572    5.6222   -1.4038 H   0  0  0  0  0  0  0  0  0  0  0  0
    5.4399   -1.0010   -1.0986 H   0  0  0  0  0  0  0  0  0  0  0  0
    8.6741   -0.9560    0.3822 H   0  0  0  0  0  0  0  0  0  0  0  0
    9.2337    1.2548    1.2810 H   0  0  0  0  0  0  0  0  0  0  0  0
    8.5748    2.1060   -0.3338 H   0  0  0  0  0  0  0  0  0  0  0  0
   10.2235    0.9153   -1.6405 H   0  0  0  0  0  0  0  0  0  0  0  0
   10.8904    0.0738   -0.0230 H   0  0  0  0  0  0  0  0  0  0  0  0
  1  2  2  3
  2  3  1  0
  3  4  1  0
  4  5  1  0
  5  6  1  6
  6  7  1  0
  7  8  2  0
  7  9  1  0
  9 10  1  0
 10 11  1  0
 11 12  1  0
 12 13  1  0
 13 14  1  0
 14 15  2  0
 14 16  1  0
 16 17  1  0
 17 18  1  0
 17 19  1  0
 17 20  1  0
 16 21  1  0
 21 22  1  0
 22 23  2  0
 22 24  1  0
 24 25  1  0
 25 26  1  0
 26 27  1  0
 27 28  1  0
 28 29  1  0
 29 30  1  0
 30 31  1  0
 31 32  1  0
 32 33  1  0
 33 34  2  0
 34 35  1  0
 35 36  2  0
 36 37  1  0
 37 38  2  0
 38 39  1  0
 39 40  1  0
 38 41  1  0
 41 42  2  0
 42 43  1  0
 43 44  2  0
 44 45  1  0
  5 46  1  0
 46 47  2  0
 46 48  1  0
 48 49  1  0
 49 50  2  0
 49 51  2  0
 49 52  1  0
 52 53  1  0
 53 54  1  0
  5  3  1  0
 13  9  1  0
 27 25  1  0
 44 33  1  0
 54 52  1  0
 45 11  1  0
 42 35  1  0
  1 55  1  0
  1 56  1  0
  2 57  1  0
  3 58  1  1
  4 59  1  0
  4 60  1  0
  6 61  1  0
  9 62  1  6
 10 63  1  0
 10 64  1  0
 11 65  1  1
 12 66  1  0
 12 67  1  0
 16 68  1  1
 18 69  1  0
 18 70  1  0
 18 71  1  0
 19 72  1  0
 19 73  1  0
 19 74  1  0
 20 75  1  0
 20 76  1  0
 20 77  1  0
 21 78  1  0
 25 79  1  1
 26 80  1  0
 26 81  1  0
 27 82  1  6
 28 83  1  0
 28 84  1  0
 29 85  1  0
 29 86  1  0
 30 87  1  0
 30 88  1  0
 31 89  1  0
 31 90  1  0
 32 91  1  0
 32 92  1  0
 36 93  1  0
 37 94  1  0
 40 95  1  0
 40 96  1  0
 40 97  1  0
 41 98  1  0
 48 99  1  0
 52100  1  0
 53101  1  0
 53102  1  0
 54103  1  0
 54104  1  0
M  END
$$$$
