
     RDKit          3D

105110  0  0  0  0  0  0  0  0999 V2000
    7.4993   -4.1947    1.5634 C   0  0  0  0  0  0  0  0  0  0  0  0
    6.2901   -3.6829    1.0127 O   0  0  0  0  0  0  0  0  0  0  0  0
    6.1060   -2.3310    0.7034 C   0  0  0  0  0  0  0  0  0  0  0  0
    4.8921   -1.9093    0.1570 C   0  0  0  0  0  0  0  0  0  0  0  0
    4.6895   -0.5460   -0.1219 C   0  0  0  0  0  0  0  0  0  0  0  0
    3.4918   -0.0617   -0.6726 O   0  0  0  0  0  0  0  0  0  0  0  0
    2.4176   -0.8448   -1.1948 C   0  0  2  0  0  0  0  0  0  0  0  0
    1.4931    0.1002   -1.9605 C   0  0  0  0  0  0  0  0  0  0  0  0
    0.5752    0.6493   -0.8769 C   0  0  1  0  0  0  0  0  0  0  0  0
   -0.7496    1.1084   -1.4180 C   0  0  0  0  0  0  0  0  0  0  0  0
   -1.6674    0.2846   -1.6615 O   0  0  0  0  0  0  0  0  0  0  0  0
   -0.9554    2.5059   -1.6607 N   0  0  0  0  0  0  0  0  0  0  0  0
   -2.2028    3.1794   -1.2952 C   0  0  2  0  0  0  0  0  0  0  0  0
   -3.3035    3.1811   -2.3372 C   0  0  0  0  0  0  0  0  0  0  0  0
   -3.2863    2.2806   -3.2175 O   0  0  0  0  0  0  0  0  0  0  0  0
   -4.3568    4.1535   -2.3527 N   0  0  0  0  0  0  0  0  0  0  0  0
   -5.6359    4.0767   -3.5162 S   0  0  0  0  0  6  0  0  0  0  0  0
   -6.4496    2.8349   -3.2836 O   0  0  0  0  0  0  0  0  0  0  0  0
   -5.0518    4.0420   -4.8996 O   0  0  0  0  0  0  0  0  0  0  0  0
   -6.6446    5.5470   -3.3564 C   0  0  0  0  0  0  0  0  0  0  0  0
   -8.1026    5.3787   -3.7486 C   0  0  0  0  0  0  0  0  0  0  0  0
   -7.7087    5.4684   -2.2758 C   0  0  0  0  0  0  0  0  0  0  0  0
   -1.9692    4.3805   -0.3812 C   0  0  0  0  0  0  0  0  0  0  0  0
   -2.5624    3.0885    0.1933 C   0  0  1  0  0  0  0  0  0  0  0  0
   -4.0040    3.2499    0.6131 C   0  0  0  0  0  0  0  0  0  0  0  0
   -4.9104    2.2641    0.5693 C   0  0  0  0  0  0  0  0  0  0  0  0
   -4.6324    0.8909    0.0083 C   0  0  0  0  0  0  0  0  0  0  0  0
   -5.4989   -0.1824    0.6875 C   0  0  0  0  0  0  0  0  0  0  0  0
   -5.1492   -0.4267    2.1715 C   0  0  0  0  0  0  0  0  0  0  0  0
   -3.9370   -1.3582    2.3737 C   0  0  0  0  0  0  0  0  0  0  0  0
   -2.5805   -0.6136    2.4150 C   0  0  0  0  0  0  0  0  0  0  0  0
   -1.5644   -1.2093    1.4163 C   0  0  2  0  0  0  0  0  0  0  0  0
   -1.1861   -2.5645    1.8245 N   0  0  0  0  0  0  0  0  0  0  0  0
   -1.2413   -3.6875    0.9368 C   0  0  0  0  0  0  0  0  0  0  0  0
   -1.5170   -3.5200   -0.2840 O   0  0  0  0  0  0  0  0  0  0  0  0
   -0.9949   -4.9686    1.4515 O   0  0  0  0  0  0  0  0  0  0  0  0
   -1.0814   -6.2033    0.7256 C   0  0  0  0  0  0  0  0  0  0  0  0
   -0.7685   -7.3291    1.7213 C   0  0  0  0  0  0  0  0  0  0  0  0
   -0.0424   -6.2306   -0.4093 C   0  0  0  0  0  0  0  0  0  0  0  0
   -2.5040   -6.4112    0.1697 C   0  0  0  0  0  0  0  0  0  0  0  0
   -0.3272   -0.3610    1.2777 C   0  0  0  0  0  0  0  0  0  0  0  0
    0.0511    0.3918    2.2138 O   0  0  0  0  0  0  0  0  0  0  0  0
    0.4506   -0.4421    0.0789 N   0  0  0  0  0  0  0  0  0  0  0  0
    1.5382   -1.3966   -0.0619 C   0  0  0  0  0  0  0  0  0  0  0  0
    5.7224    0.3710    0.1451 C   0  0  0  0  0  0  0  0  0  0  0  0
    5.5743    1.7378   -0.1407 C   0  0  0  0  0  0  0  0  0  0  0  0
    6.6291    2.6233    0.0817 C   0  0  0  0  0  0  0  0  0  0  0  0
    7.8552    2.1660    0.5967 C   0  0  0  0  0  0  0  0  0  0  0  0
    8.9372    3.0402    0.7973 O   0  0  0  0  0  0  0  0  0  0  0  0
    8.9218    4.4340    0.5008 C   0  0  0  0  0  0  0  0  0  0  0  0
    8.0066    0.7976    0.9124 C   0  0  0  0  0  0  0  0  0  0  0  0
    9.3164    0.2785    1.4469 C   0  0  0  0  0  0  0  0  0  0  0  0
    6.9451   -0.0977    0.6747 C   0  0  0  0  0  0  0  0  0  0  0  0
    7.0934   -1.4245    0.9387 N   0  0  0  0  0  0  0  0  0  0  0  0
    7.3806   -5.2797    1.7721 H   0  0  0  0  0  0  0  0  0  0  0  0
    7.7363   -3.6742    2.5146 H   0  0  0  0  0  0  0  0  0  0  0  0
    8.3313   -4.0586    0.8404 H   0  0  0  0  0  0  0  0  0  0  0  0
    4.1196   -2.6424   -0.0427 H   0  0  0  0  0  0  0  0  0  0  0  0
    2.8068   -1.6460   -1.8616 H   0  0  0  0  0  0  0  0  0  0  0  0
    2.0572    0.9119   -2.4750 H   0  0  0  0  0  0  0  0  0  0  0  0
    0.9118   -0.4853   -2.7089 H   0  0  0  0  0  0  0  0  0  0  0  0
    1.0768    1.5050   -0.3686 H   0  0  0  0  0  0  0  0  0  0  0  0
   -0.1465    3.0881   -1.9800 H   0  0  0  0  0  0  0  0  0  0  0  0
   -4.4205    4.9017   -1.6358 H   0  0  0  0  0  0  0  0  0  0  0  0
   -6.2025    6.5529   -3.5141 H   0  0  0  0  0  0  0  0  0  0  0  0
   -8.5800    6.3063   -4.1436 H   0  0  0  0  0  0  0  0  0  0  0  0
   -8.4161    4.3555   -4.0661 H   0  0  0  0  0  0  0  0  0  0  0  0
   -7.7875    4.5046   -1.7234 H   0  0  0  0  0  0  0  0  0  0  0  0
   -7.9500    6.4439   -1.8034 H   0  0  0  0  0  0  0  0  0  0  0  0
   -2.6633    5.2390   -0.4642 H   0  0  0  0  0  0  0  0  0  0  0  0
   -0.9094    4.5493   -0.0913 H   0  0  0  0  0  0  0  0  0  0  0  0
   -1.8634    2.5446    0.8649 H   0  0  0  0  0  0  0  0  0  0  0  0
   -4.3059    4.2003    1.0339 H   0  0  0  0  0  0  0  0  0  0  0  0
   -5.9288    2.4985    0.8761 H   0  0  0  0  0  0  0  0  0  0  0  0
   -4.8851    0.9096   -1.0744 H   0  0  0  0  0  0  0  0  0  0  0  0
   -3.5642    0.6192    0.0978 H   0  0  0  0  0  0  0  0  0  0  0  0
   -6.5691    0.1234    0.6235 H   0  0  0  0  0  0  0  0  0  0  0  0
   -5.4099   -1.1357    0.1189 H   0  0  0  0  0  0  0  0  0  0  0  0
   -6.0305   -0.9275    2.6363 H   0  0  0  0  0  0  0  0  0  0  0  0
   -5.0131    0.5324    2.7199 H   0  0  0  0  0  0  0  0  0  0  0  0
   -4.0665   -1.8842    3.3440 H   0  0  0  0  0  0  0  0  0  0  0  0
   -3.9454   -2.1651    1.6042 H   0  0  0  0  0  0  0  0  0  0  0  0
   -2.1610   -0.6732    3.4453 H   0  0  0  0  0  0  0  0  0  0  0  0
   -2.7160    0.4670    2.1993 H   0  0  0  0  0  0  0  0  0  0  0  0
   -2.0525   -1.2334    0.4230 H   0  0  0  0  0  0  0  0  0  0  0  0
   -0.8625   -2.7304    2.8014 H   0  0  0  0  0  0  0  0  0  0  0  0
   -0.8631   -8.3261    1.2370 H   0  0  0  0  0  0  0  0  0  0  0  0
   -1.4710   -7.2887    2.5828 H   0  0  0  0  0  0  0  0  0  0  0  0
    0.2654   -7.2219    2.1128 H   0  0  0  0  0  0  0  0  0  0  0  0
   -0.2894   -5.4978   -1.2034 H   0  0  0  0  0  0  0  0  0  0  0  0
    0.0066   -7.2339   -0.8804 H   0  0  0  0  0  0  0  0  0  0  0  0
    0.9616   -5.9823   -0.0061 H   0  0  0  0  0  0  0  0  0  0  0  0
   -3.2489   -6.3149    0.9835 H   0  0  0  0  0  0  0  0  0  0  0  0
   -2.6118   -7.4200   -0.2851 H   0  0  0  0  0  0  0  0  0  0  0  0
   -2.7420   -5.6657   -0.6120 H   0  0  0  0  0  0  0  0  0  0  0  0
    1.1303   -2.3863   -0.3527 H   0  0  0  0  0  0  0  0  0  0  0  0
    2.1024   -1.5006    0.8927 H   0  0  0  0  0  0  0  0  0  0  0  0
    4.6509    2.1322   -0.5482 H   0  0  0  0  0  0  0  0  0  0  0  0
    6.4841    3.6653   -0.1731 H   0  0  0  0  0  0  0  0  0  0  0  0
    8.1384    4.9402    1.1028 H   0  0  0  0  0  0  0  0  0  0  0  0
    9.9090    4.8676    0.7605 H   0  0  0  0  0  0  0  0  0  0  0  0
    8.7389    4.5908   -0.5830 H   0  0  0  0  0  0  0  0  0  0  0  0
    9.8543   -0.2554    0.6395 H   0  0  0  0  0  0  0  0  0  0  0  0
    9.9685    1.0929    1.8309 H   0  0  0  0  0  0  0  0  0  0  0  0
    9.1357   -0.4203    2.2874 H   0  0  0  0  0  0  0  0  0  0  0  0
  1  2  1  0
  2  3  1  0
  3  4  2  0
  4  5  1  0
  5  6  1  0
  6  7  1  0
  7  8  1  0
  8  9  1  0
  9 10  1  0
 10 11  2  0
 10 12  1  0
 12 13  1  0
 13 14  1  6
 14 15  2  0
 14 16  1  0
 16 17  1  0
 17 18  2  0
 17 19  2  0
 17 20  1  0
 20 21  1  0
 21 22  1  0
 13 23  1  0
 23 24  1  0
 24 25  1  0
 25 26  2  0
 26 27  1  0
 27 28  1  0
 28 29  1  0
 29 30  1  0
 30 31  1  0
 31 32  1  0
 32 33  1  0
 33 34  1  0
 34 35  2  0
 34 36  1  0
 36 37  1  0
 37 38  1  0
 37 39  1  0
 37 40  1  0
 32 41  1  0
 41 42  2  0
 41 43  1  0
 43 44  1  0
  5 45  2  0
 45 46  1  0
 46 47  2  0
 47 48  1  0
 48 49  1  0
 49 50  1  0
 48 51  2  0
 51 52  1  0
 51 53  1  0
 53 54  2  0
 54  3  1  0
 44  7  1  0
 53 45  1  0
 43  9  1  0
 24 13  1  0
 22 20  1  0
  1 55  1  0
  1 56  1  0
  1 57  1  0
  4 58  1  0
  7 59  1  6
  8 60  1  0
  8 61  1  0
  9 62  1  1
 12 63  1  0
 16 64  1  0
 20 65  1  0
 21 66  1  0
 21 67  1  0
 22 68  1  0
 22 69  1  0
 23 70  1  0
 23 71  1  0
 24 72  1  1
 25 73  1  0
 26 74  1  0
 27 75  1  0
 27 76  1  0
 28 77  1  0
 28 78  1  0
 29 79  1  0
 29 80  1  0
 30 81  1  0
 30 82  1  0
 31 83  1  0
 31 84  1  0
 32 85  1  6
 33 86  1  0
 38 87  1  0
 38 88  1  0
 38 89  1  0
 39 90  1  0
 39 91  1  0
 39 92  1  0
 40 93  1  0
 40 94  1  0
 40 95  1  0
 44 96  1  0
 44 97  1  0
 46 98  1  0
 47 99  1  0
 50100  1  0
 50101  1  0
 50102  1  0
 52103  1  0
 52104  1  0
 52105  1  0
M  END
$$$$
