
     RDKit          3D

 76 80  0  0  0  0  0  0  0  0999 V2000
   -0.2850    2.5930   -2.2146 O   0  0  0  0  0  0  0  0  0  0  0  0
    0.3223    1.9044   -1.3480 C   0  0  0  0  0  0  0  0  0  0  0  0
    0.2875    2.3404    0.0975 C   0  0  0  0  0  0  0  0  0  0  0  0
   -1.1174    2.7845    0.5079 C   0  0  0  0  0  0  0  0  0  0  0  0
   -1.1844    3.0001    2.3245 S   0  0  0  0  0  0  0  0  0  0  0  0
   -2.8262    3.8144    2.3803 C   0  0  0  0  0  0  0  0  0  0  0  0
   -3.8969    2.9627    1.7482 C   0  0  0  0  0  0  0  0  0  0  0  0
   -4.4613    3.3388    0.5189 C   0  0  0  0  0  0  0  0  0  0  0  0
   -5.3886    2.5128   -0.1094 C   0  0  0  0  0  0  0  0  0  0  0  0
   -5.7731    1.2958    0.4757 C   0  0  0  0  0  0  0  0  0  0  0  0
   -5.2244    0.9258    1.7130 C   0  0  0  0  0  0  0  0  0  0  0  0
   -4.2902    1.7542    2.3447 C   0  0  0  0  0  0  0  0  0  0  0  0
   -6.7179    0.3852   -0.2583 C   0  0  0  0  0  0  0  0  0  0  0  0
   -5.8923   -0.2769   -1.7456 S   0  0  0  0  0  0  0  0  0  0  0  0
   -5.2294   -1.7901   -0.9651 C   0  0  0  0  0  0  0  0  0  0  0  0
   -3.9233   -2.2065   -1.6620 C   0  0  0  0  0  0  0  0  0  0  0  0
   -2.6603   -1.7059   -1.0203 C   0  0  0  0  0  0  0  0  0  0  0  0
   -2.1775   -3.0352   -0.5896 N   0  0  0  0  0  0  0  0  0  0  0  0
   -3.4147   -3.5414   -1.2092 C   0  0  0  0  0  0  0  0  0  0  0  0
   -1.0262   -3.6175    0.0215 C   0  0  0  0  0  0  0  0  0  0  0  0
   -0.8577   -4.8655   -0.0588 O   0  0  0  0  0  0  0  0  0  0  0  0
    0.0038   -2.7503    0.7014 C   0  0  1  0  0  0  0  0  0  0  0  0
    0.6804   -3.5065    1.8719 C   0  0  0  0  0  0  0  0  0  0  0  0
    1.7677   -2.6508    2.5302 C   0  0  0  0  0  0  0  0  0  0  0  0
    2.7922   -2.1989    1.4846 C   0  0  0  0  0  0  0  0  0  0  0  0
    2.1026   -1.5154    0.3852 N   0  0  0  0  0  0  0  0  0  0  0  0
    1.0540   -2.2657   -0.3156 C   0  0  0  0  0  0  0  0  0  0  0  0
    2.4569   -0.1600    0.0352 C   0  0  0  0  0  0  0  0  0  0  0  0
    2.8842    0.6139    0.9385 O   0  0  0  0  0  0  0  0  0  0  0  0
    2.3801    0.3378   -1.3956 C   0  0  2  0  0  0  0  0  0  0  0  0
    3.3674    1.4942   -1.6709 C   0  0  0  0  0  0  0  0  0  0  0  0
    4.7528    1.0581   -1.4679 N   0  0  0  0  0  0  0  0  0  0  0  0
    5.8233    2.0031   -1.3123 C   0  0  0  0  0  0  0  0  0  0  0  0
    5.5924    3.2397   -1.4252 O   0  0  0  0  0  0  0  0  0  0  0  0
    7.1982    1.5589   -1.0140 C   0  0  0  0  0  0  0  0  0  0  0  0
    7.6440    0.2455   -0.8524 C   0  0  0  0  0  0  0  0  0  0  0  0
    9.0099    0.1570   -0.5498 C   0  0  0  0  0  0  0  0  0  0  0  0
    9.6353    1.3927   -0.4738 C   0  0  0  0  0  0  0  0  0  0  0  0
   11.3317    1.6581   -0.1283 Cl  0  0  0  0  0  0  0  0  0  0  0  0
    8.5057    2.5965   -0.7809 S   0  0  0  0  0  0  0  0  0  0  0  0
    1.0109    0.7149   -1.7711 N   0  0  0  0  0  0  0  0  0  0  0  0
    0.5768    1.4931    0.7548 H   0  0  0  0  0  0  0  0  0  0  0  0
    1.0088    3.1808    0.2413 H   0  0  0  0  0  0  0  0  0  0  0  0
   -1.3744    3.7402   -0.0025 H   0  0  0  0  0  0  0  0  0  0  0  0
   -1.8422    1.9902    0.2144 H   0  0  0  0  0  0  0  0  0  0  0  0
   -3.0825    3.9904    3.4441 H   0  0  0  0  0  0  0  0  0  0  0  0
   -2.7591    4.8091    1.8866 H   0  0  0  0  0  0  0  0  0  0  0  0
   -4.1714    4.2621    0.0324 H   0  0  0  0  0  0  0  0  0  0  0  0
   -5.7814    2.8121   -1.0713 H   0  0  0  0  0  0  0  0  0  0  0  0
   -5.5084   -0.0058    2.1854 H   0  0  0  0  0  0  0  0  0  0  0  0
   -3.8624    1.4459    3.2898 H   0  0  0  0  0  0  0  0  0  0  0  0
   -7.0958   -0.4366    0.3899 H   0  0  0  0  0  0  0  0  0  0  0  0
   -7.6002    0.9766   -0.5820 H   0  0  0  0  0  0  0  0  0  0  0  0
   -5.0702   -1.6596    0.1255 H   0  0  0  0  0  0  0  0  0  0  0  0
   -5.9863   -2.5824   -1.1096 H   0  0  0  0  0  0  0  0  0  0  0  0
   -3.9329   -2.1170   -2.7749 H   0  0  0  0  0  0  0  0  0  0  0  0
   -2.8166   -1.0356   -0.1471 H   0  0  0  0  0  0  0  0  0  0  0  0
   -1.9620   -1.2558   -1.7594 H   0  0  0  0  0  0  0  0  0  0  0  0
   -4.0555   -4.0317   -0.4441 H   0  0  0  0  0  0  0  0  0  0  0  0
   -3.1819   -4.2189   -2.0617 H   0  0  0  0  0  0  0  0  0  0  0  0
   -0.5177   -1.8571    1.1229 H   0  0  0  0  0  0  0  0  0  0  0  0
   -0.0840   -3.7769    2.6316 H   0  0  0  0  0  0  0  0  0  0  0  0
    1.1453   -4.4486    1.5037 H   0  0  0  0  0  0  0  0  0  0  0  0
    1.3083   -1.7546    3.0052 H   0  0  0  0  0  0  0  0  0  0  0  0
    2.2835   -3.2417    3.3189 H   0  0  0  0  0  0  0  0  0  0  0  0
    3.3365   -3.0821    1.0761 H   0  0  0  0  0  0  0  0  0  0  0  0
    3.5452   -1.5382    1.9679 H   0  0  0  0  0  0  0  0  0  0  0  0
    1.5154   -3.1342   -0.8434 H   0  0  0  0  0  0  0  0  0  0  0  0
    0.5420   -1.6386   -1.0635 H   0  0  0  0  0  0  0  0  0  0  0  0
    2.6877   -0.5085   -2.0519 H   0  0  0  0  0  0  0  0  0  0  0  0
    3.2516    1.8465   -2.7200 H   0  0  0  0  0  0  0  0  0  0  0  0
    3.1411    2.3488   -0.9938 H   0  0  0  0  0  0  0  0  0  0  0  0
    4.9571    0.0368   -1.3947 H   0  0  0  0  0  0  0  0  0  0  0  0
    7.0163   -0.6306   -0.9360 H   0  0  0  0  0  0  0  0  0  0  0  0
    9.5220   -0.7820   -0.3890 H   0  0  0  0  0  0  0  0  0  0  0  0
    0.5909    0.2077   -2.5859 H   0  0  0  0  0  0  0  0  0  0  0  0
  1  2  2  0
  2  3  1  0
  3  4  1  0
  4  5  1  0
  5  6  1  0
  6  7  1  0
  7  8  2  0
  8  9  1  0
  9 10  2  0
 10 11  1  0
 11 12  2  0
 10 13  1  0
 13 14  1  0
 14 15  1  0
 15 16  1  0
 16 17  1  0
 17 18  1  0
 18 19  1  0
 18 20  1  0
 20 21  2  0
 20 22  1  0
 22 23  1  0
 23 24  1  0
 24 25  1  0
 25 26  1  0
 26 27  1  0
 26 28  1  0
 28 29  2  0
 28 30  1  0
 30 31  1  0
 31 32  1  0
 32 33  1  0
 33 34  2  0
 33 35  1  0
 35 36  2  0
 36 37  1  0
 37 38  2  0
 38 39  1  0
 38 40  1  0
 30 41  1  0
 41  2  1  0
 12  7  1  0
 19 16  1  0
 27 22  1  0
 40 35  1  0
  3 42  1  0
  3 43  1  0
  4 44  1  0
  4 45  1  0
  6 46  1  0
  6 47  1  0
  8 48  1  0
  9 49  1  0
 11 50  1  0
 12 51  1  0
 13 52  1  0
 13 53  1  0
 15 54  1  0
 15 55  1  0
 16 56  1  0
 17 57  1  0
 17 58  1  0
 19 59  1  0
 19 60  1  0
 22 61  1  1
 23 62  1  0
 23 63  1  0
 24 64  1  0
 24 65  1  0
 25 66  1  0
 25 67  1  0
 27 68  1  0
 27 69  1  0
 30 70  1  6
 31 71  1  0
 31 72  1  0
 32 73  1  0
 36 74  1  0
 37 75  1  0
 41 76  1  0
M  END
$$$$
