
     RDKit          3D

 95 97  0  0  0  0  0  0  0  0999 V2000
    4.2455    4.5569   -0.0379 C   0  0  0  0  0  0  0  0  0  0  0  0
    4.4003    4.8936    1.4421 C   0  0  0  0  0  0  0  0  0  0  0  0
    4.8287    3.6867    2.2952 C   0  0  0  0  0  0  0  0  0  0  0  0
    3.7582    2.5753    2.3783 C   0  0  0  0  0  0  0  0  0  0  0  0
    4.0156    1.4080    1.3910 C   0  0  2  0  0  0  0  0  0  0  0  0
    2.8473    0.5149    1.2833 N   0  0  0  0  0  0  0  0  0  0  0  0
    1.8148    1.0433    0.3794 C   0  0  0  0  0  0  0  0  0  0  0  0
    0.7694   -0.0461    0.0736 C   0  0  2  0  0  0  0  0  0  0  0  0
    1.3740   -1.1497   -0.8379 C   0  0  0  0  0  0  0  0  0  0  0  0
    0.6628   -2.4848   -0.7404 C   0  0  0  0  0  0  0  0  0  0  0  0
    1.4120   -3.6768   -0.7138 C   0  0  0  0  0  0  0  0  0  0  0  0
    0.7704   -4.9152   -0.6317 C   0  0  0  0  0  0  0  0  0  0  0  0
   -0.6231   -4.9809   -0.5557 C   0  0  0  0  0  0  0  0  0  0  0  0
   -1.3864   -3.8047   -0.5990 C   0  0  0  0  0  0  0  0  0  0  0  0
   -0.7390   -2.5705   -0.7393 C   0  0  0  0  0  0  0  0  0  0  0  0
   -2.8690   -3.8445   -0.3364 C   0  0  0  0  0  0  0  0  0  0  0  0
   -3.1306   -4.1134    1.1561 C   0  0  0  0  0  0  0  0  0  0  0  0
   -4.4977   -3.5880    1.6320 C   0  0  0  0  0  0  0  0  0  0  0  0
   -4.4029   -2.2120    2.3156 C   0  0  0  0  0  0  0  0  0  0  0  0
   -4.1831   -1.0811    1.3422 C   0  0  0  0  0  0  0  0  0  0  0  0
   -2.9059   -0.5178    1.1634 C   0  0  0  0  0  0  0  0  0  0  0  0
   -2.7354    0.5943    0.3243 C   0  0  0  0  0  0  0  0  0  0  0  0
   -3.8428    1.1423   -0.3347 C   0  0  0  0  0  0  0  0  0  0  0  0
   -5.1109    0.5705   -0.1863 C   0  0  0  0  0  0  0  0  0  0  0  0
   -6.2434    1.1418   -0.8532 N   0  0  0  0  0  0  0  0  0  0  0  0
   -6.9774    0.3613   -1.8548 C   0  0  0  0  0  0  0  0  0  0  0  0
   -6.8624    0.9904   -3.2484 C   0  0  0  0  0  0  0  0  0  0  0  0
   -5.4266    0.9767   -3.7688 C   0  0  0  0  0  0  0  0  0  0  0  0
   -6.8689    2.6639   -0.2927 S   0  0  0  0  0  6  0  0  0  0  0  0
   -5.8244    4.0013   -0.8277 C   0  0  0  0  0  0  0  0  0  0  0  0
   -6.9425    2.6505    1.2087 O   0  0  0  0  0  0  0  0  0  0  0  0
   -8.2522    2.8802   -0.8408 O   0  0  0  0  0  0  0  0  0  0  0  0
   -5.2756   -0.5449    0.6438 C   0  0  0  0  0  0  0  0  0  0  0  0
   -1.4177    1.2233    0.1645 C   0  0  0  0  0  0  0  0  0  0  0  0
   -1.2387    2.4004    0.5778 O   0  0  0  0  0  0  0  0  0  0  0  0
   -0.3887    0.5689   -0.5817 N   0  0  0  0  0  0  0  0  0  0  0  0
    5.1991    0.5912    1.8405 C   0  0  0  0  0  0  0  0  0  0  0  0
    5.0996   -0.1352    2.8665 O   0  0  0  0  0  0  0  0  0  0  0  0
    6.4360    0.6490    1.1125 N   0  0  0  0  0  0  0  0  0  0  0  0
    7.5142   -0.3205    1.3096 C   0  0  0  0  0  0  0  0  0  0  0  0
    7.4991   -1.4171    0.2235 C   0  0  0  0  0  0  0  0  0  0  0  0
    6.1693   -2.1837    0.2027 C   0  0  0  0  0  0  0  0  0  0  0  0
    7.8179   -0.8464   -1.1661 C   0  0  0  0  0  0  0  0  0  0  0  0
    3.3652    3.9022   -0.1950 H   0  0  0  0  0  0  0  0  0  0  0  0
    4.0785    5.4923   -0.6150 H   0  0  0  0  0  0  0  0  0  0  0  0
    5.1626    4.0575   -0.4214 H   0  0  0  0  0  0  0  0  0  0  0  0
    5.1775    5.6833    1.5381 H   0  0  0  0  0  0  0  0  0  0  0  0
    3.4447    5.3126    1.8296 H   0  0  0  0  0  0  0  0  0  0  0  0
    5.0155    4.0624    3.3254 H   0  0  0  0  0  0  0  0  0  0  0  0
    5.8007    3.2913    1.9283 H   0  0  0  0  0  0  0  0  0  0  0  0
    3.7396    2.1720    3.4154 H   0  0  0  0  0  0  0  0  0  0  0  0
    2.7543    3.0157    2.2073 H   0  0  0  0  0  0  0  0  0  0  0  0
    4.2572    1.8192    0.3884 H   0  0  0  0  0  0  0  0  0  0  0  0
    2.4258    0.3684    2.2319 H   0  0  0  0  0  0  0  0  0  0  0  0
    1.3123    1.9138    0.8517 H   0  0  0  0  0  0  0  0  0  0  0  0
    2.2645    1.3846   -0.5802 H   0  0  0  0  0  0  0  0  0  0  0  0
    0.4453   -0.5035    1.0374 H   0  0  0  0  0  0  0  0  0  0  0  0
    1.3718   -0.8197   -1.8976 H   0  0  0  0  0  0  0  0  0  0  0  0
    2.4400   -1.2970   -0.5634 H   0  0  0  0  0  0  0  0  0  0  0  0
    2.4947   -3.6481   -0.7523 H   0  0  0  0  0  0  0  0  0  0  0  0
    1.3564   -5.8270   -0.6042 H   0  0  0  0  0  0  0  0  0  0  0  0
   -1.1049   -5.9431   -0.4370 H   0  0  0  0  0  0  0  0  0  0  0  0
   -1.3380   -1.6794   -0.8119 H   0  0  0  0  0  0  0  0  0  0  0  0
   -3.3336   -2.8841   -0.6474 H   0  0  0  0  0  0  0  0  0  0  0  0
   -3.3410   -4.6430   -0.9505 H   0  0  0  0  0  0  0  0  0  0  0  0
   -3.0891   -5.2126    1.3191 H   0  0  0  0  0  0  0  0  0  0  0  0
   -2.3211   -3.6746    1.7814 H   0  0  0  0  0  0  0  0  0  0  0  0
   -5.2366   -3.5650    0.8003 H   0  0  0  0  0  0  0  0  0  0  0  0
   -4.8941   -4.3020    2.3885 H   0  0  0  0  0  0  0  0  0  0  0  0
   -3.6047   -2.2226    3.0896 H   0  0  0  0  0  0  0  0  0  0  0  0
   -5.3536   -2.0280    2.8623 H   0  0  0  0  0  0  0  0  0  0  0  0
   -2.0540   -0.9233    1.6967 H   0  0  0  0  0  0  0  0  0  0  0  0
   -3.7142    2.0022   -0.9781 H   0  0  0  0  0  0  0  0  0  0  0  0
   -6.5982   -0.6839   -1.8962 H   0  0  0  0  0  0  0  0  0  0  0  0
   -8.0472    0.3028   -1.5625 H   0  0  0  0  0  0  0  0  0  0  0  0
   -7.2406    2.0354   -3.2318 H   0  0  0  0  0  0  0  0  0  0  0  0
   -7.4997    0.4121   -3.9518 H   0  0  0  0  0  0  0  0  0  0  0  0
   -4.7867    1.6412   -3.1540 H   0  0  0  0  0  0  0  0  0  0  0  0
   -5.4081    1.3460   -4.8157 H   0  0  0  0  0  0  0  0  0  0  0  0
   -5.0135   -0.0539   -3.7502 H   0  0  0  0  0  0  0  0  0  0  0  0
   -5.6186    3.9030   -1.9137 H   0  0  0  0  0  0  0  0  0  0  0  0
   -6.3334    4.9671   -0.6340 H   0  0  0  0  0  0  0  0  0  0  0  0
   -4.8699    3.9792   -0.2634 H   0  0  0  0  0  0  0  0  0  0  0  0
   -6.2635   -0.9691    0.7758 H   0  0  0  0  0  0  0  0  0  0  0  0
   -0.3100    0.8277   -1.5931 H   0  0  0  0  0  0  0  0  0  0  0  0
    6.5299    1.3321    0.3282 H   0  0  0  0  0  0  0  0  0  0  0  0
    8.4889    0.2142    1.2828 H   0  0  0  0  0  0  0  0  0  0  0  0
    7.4371   -0.7917    2.3138 H   0  0  0  0  0  0  0  0  0  0  0  0
    8.3036   -2.1437    0.4759 H   0  0  0  0  0  0  0  0  0  0  0  0
    5.3357   -1.5242   -0.1204 H   0  0  0  0  0  0  0  0  0  0  0  0
    5.9390   -2.5835    1.2138 H   0  0  0  0  0  0  0  0  0  0  0  0
    6.2334   -3.0391   -0.5029 H   0  0  0  0  0  0  0  0  0  0  0  0
    8.7713   -0.2749   -1.1366 H   0  0  0  0  0  0  0  0  0  0  0  0
    7.0036   -0.1779   -1.5184 H   0  0  0  0  0  0  0  0  0  0  0  0
    7.9359   -1.6745   -1.8990 H   0  0  0  0  0  0  0  0  0  0  0  0
  1  2  1  0
  2  3  1  0
  3  4  1  0
  4  5  1  0
  5  6  1  0
  6  7  1  0
  7  8  1  0
  8  9  1  0
  9 10  1  0
 10 11  1  0
 11 12  2  0
 12 13  1  0
 13 14  2  0
 14 15  1  0
 14 16  1  0
 16 17  1  0
 17 18  1  0
 18 19  1  0
 19 20  1  0
 20 21  1  0
 21 22  2  0
 22 23  1  0
 23 24  2  0
 24 25  1  0
 25 26  1  0
 26 27  1  0
 27 28  1  0
 25 29  1  0
 29 30  1  0
 29 31  2  0
 29 32  2  0
 24 33  1  0
 22 34  1  0
 34 35  2  0
 34 36  1  0
  5 37  1  0
 37 38  2  0
 37 39  1  0
 39 40  1  0
 40 41  1  0
 41 42  1  0
 41 43  1  0
 36  8  1  0
 15 10  2  0
 33 20  2  0
  1 44  1  0
  1 45  1  0
  1 46  1  0
  2 47  1  0
  2 48  1  0
  3 49  1  0
  3 50  1  0
  4 51  1  0
  4 52  1  0
  5 53  1  6
  6 54  1  0
  7 55  1  0
  7 56  1  0
  8 57  1  1
  9 58  1  0
  9 59  1  0
 11 60  1  0
 12 61  1  0
 13 62  1  0
 15 63  1  0
 16 64  1  0
 16 65  1  0
 17 66  1  0
 17 67  1  0
 18 68  1  0
 18 69  1  0
 19 70  1  0
 19 71  1  0
 21 72  1  0
 23 73  1  0
 26 74  1  0
 26 75  1  0
 27 76  1  0
 27 77  1  0
 28 78  1  0
 28 79  1  0
 28 80  1  0
 30 81  1  0
 30 82  1  0
 30 83  1  0
 33 84  1  0
 36 85  1  0
 39 86  1  0
 40 87  1  0
 40 88  1  0
 41 89  1  0
 42 90  1  0
 42 91  1  0
 42 92  1  0
 43 93  1  0
 43 94  1  0
 43 95  1  0
M  END
$$$$
