
     RDKit          3D

 71 73  0  0  0  0  0  0  0  0999 V2000
    6.5121    0.1678   -0.0879 C   0  0  0  0  0  0  0  0  0  0  0  0
    5.0917    0.6377   -0.4318 C   0  0  0  0  0  0  0  0  0  0  0  0
    5.1255    1.4841   -1.7137 C   0  0  0  0  0  0  0  0  0  0  0  0
    4.1491   -0.5836   -0.5702 C   0  0  0  0  0  0  0  0  0  0  0  0
    2.6457   -0.2196   -0.5370 C   0  0  2  0  0  0  0  0  0  0  0  0
    2.2802    0.4030    0.7402 N   0  0  0  0  0  0  0  0  0  0  0  0
    1.2439    1.3851    0.9326 C   0  0  0  0  0  0  0  0  0  0  0  0
    1.0796    1.8502    2.0932 O   0  0  0  0  0  0  0  0  0  0  0  0
    0.3778    1.9140   -0.1989 C   0  0  2  0  0  0  0  0  0  0  0  0
    1.1022    3.0198   -0.9867 C   0  0  0  0  0  0  0  0  0  0  0  0
   -0.9173    2.4156    0.3184 N   0  0  0  0  0  0  0  0  0  0  0  0
   -1.0039    3.6898    1.0466 C   0  0  0  0  0  0  0  0  0  0  0  0
   -2.1446    1.6753    0.1436 C   0  0  0  0  0  0  0  0  0  0  0  0
   -3.2323    2.3075    0.0393 O   0  0  0  0  0  0  0  0  0  0  0  0
   -2.1872    0.1616    0.2227 C   0  0  2  0  0  0  0  0  0  0  0  0
   -2.6735   -0.4581   -1.1089 C   0  0  0  0  0  0  0  0  0  0  0  0
   -4.0859   -0.0767   -1.4870 C   0  0  0  0  0  0  0  0  0  0  0  0
   -5.1846   -0.7312   -0.9039 C   0  0  0  0  0  0  0  0  0  0  0  0
   -6.4891   -0.3656   -1.2508 C   0  0  0  0  0  0  0  0  0  0  0  0
   -6.7078    0.6501   -2.1848 C   0  0  0  0  0  0  0  0  0  0  0  0
   -5.6220    1.3015   -2.7751 C   0  0  0  0  0  0  0  0  0  0  0  0
   -4.3158    0.9401   -2.4306 C   0  0  0  0  0  0  0  0  0  0  0  0
   -3.0349   -0.2513    1.3666 N   0  0  0  0  0  0  0  0  0  0  0  0
   -2.7942   -1.6300    1.8367 C   0  0  0  0  0  0  0  0  0  0  0  0
   -1.3527   -1.8641    2.2253 C   0  0  0  0  0  0  0  0  0  0  0  0
   -0.6640   -1.0882    3.1409 C   0  0  0  0  0  0  0  0  0  0  0  0
    0.6728   -1.3865    2.9842 C   0  0  0  0  0  0  0  0  0  0  0  0
    0.7512   -2.3256    1.9739 C   0  0  0  0  0  0  0  0  0  0  0  0
   -0.4900   -2.6604    1.5514 N   0  0  0  0  0  0  0  0  0  0  0  0
   -0.8253   -3.6296    0.5058 C   0  0  0  0  0  0  0  0  0  0  0  0
    2.0377   -2.8110    1.3630 C   0  0  0  0  0  0  0  0  0  0  0  0
    2.0075   -2.6835   -0.0957 N   0  0  0  0  0  0  0  0  0  0  0  0
    1.8019   -1.4449   -0.7949 C   0  0  0  0  0  0  0  0  0  0  0  0
    0.9492   -1.4081   -1.7227 O   0  0  0  0  0  0  0  0  0  0  0  0
    6.5099   -0.3974    0.8695 H   0  0  0  0  0  0  0  0  0  0  0  0
    6.9133   -0.4874   -0.8921 H   0  0  0  0  0  0  0  0  0  0  0  0
    7.1880    1.0410    0.0347 H   0  0  0  0  0  0  0  0  0  0  0  0
    4.7439    1.2835    0.4042 H   0  0  0  0  0  0  0  0  0  0  0  0
    4.1345    1.9365   -1.9164 H   0  0  0  0  0  0  0  0  0  0  0  0
    5.4272    0.8653   -2.5873 H   0  0  0  0  0  0  0  0  0  0  0  0
    5.8504    2.3186   -1.6009 H   0  0  0  0  0  0  0  0  0  0  0  0
    4.3783   -1.1164   -1.5201 H   0  0  0  0  0  0  0  0  0  0  0  0
    4.3620   -1.2967    0.2545 H   0  0  0  0  0  0  0  0  0  0  0  0
    2.4663    0.4894   -1.3644 H   0  0  0  0  0  0  0  0  0  0  0  0
    2.8235    0.1268    1.5889 H   0  0  0  0  0  0  0  0  0  0  0  0
    0.1837    1.0931   -0.9198 H   0  0  0  0  0  0  0  0  0  0  0  0
    1.8546    2.5931   -1.6766 H   0  0  0  0  0  0  0  0  0  0  0  0
    1.6219    3.7316   -0.3097 H   0  0  0  0  0  0  0  0  0  0  0  0
    0.3729    3.5817   -1.6083 H   0  0  0  0  0  0  0  0  0  0  0  0
   -1.5115    3.5306    2.0220 H   0  0  0  0  0  0  0  0  0  0  0  0
   -1.5830    4.4250    0.4485 H   0  0  0  0  0  0  0  0  0  0  0  0
   -0.0025    4.1173    1.2567 H   0  0  0  0  0  0  0  0  0  0  0  0
   -1.1499   -0.1916    0.3769 H   0  0  0  0  0  0  0  0  0  0  0  0
   -1.9724   -0.1557   -1.9180 H   0  0  0  0  0  0  0  0  0  0  0  0
   -2.6039   -1.5636   -1.0560 H   0  0  0  0  0  0  0  0  0  0  0  0
   -5.0351   -1.5249   -0.1848 H   0  0  0  0  0  0  0  0  0  0  0  0
   -7.3310   -0.8718   -0.7966 H   0  0  0  0  0  0  0  0  0  0  0  0
   -7.7186    0.9316   -2.4516 H   0  0  0  0  0  0  0  0  0  0  0  0
   -5.7924    2.0879   -3.4990 H   0  0  0  0  0  0  0  0  0  0  0  0
   -3.4847    1.4581   -2.8926 H   0  0  0  0  0  0  0  0  0  0  0  0
   -2.8659    0.3910    2.1771 H   0  0  0  0  0  0  0  0  0  0  0  0
   -3.4266   -1.8160    2.7309 H   0  0  0  0  0  0  0  0  0  0  0  0
   -3.1329   -2.3493    1.0680 H   0  0  0  0  0  0  0  0  0  0  0  0
   -1.0764   -0.3216    3.7838 H   0  0  0  0  0  0  0  0  0  0  0  0
    1.4990   -0.9141    3.4982 H   0  0  0  0  0  0  0  0  0  0  0  0
   -0.8781   -3.1217   -0.4779 H   0  0  0  0  0  0  0  0  0  0  0  0
   -0.0634   -4.4347    0.4644 H   0  0  0  0  0  0  0  0  0  0  0  0
   -1.7935   -4.1235    0.7278 H   0  0  0  0  0  0  0  0  0  0  0  0
    2.9041   -2.2577    1.7778 H   0  0  0  0  0  0  0  0  0  0  0  0
    2.1713   -3.8794    1.6352 H   0  0  0  0  0  0  0  0  0  0  0  0
    1.9139   -3.5637   -0.6508 H   0  0  0  0  0  0  0  0  0  0  0  0
  1  2  1  0
  2  3  1  0
  2  4  1  0
  4  5  1  0
  5  6  1  0
  6  7  1  0
  7  8  2  0
  7  9  1  0
  9 10  1  0
  9 11  1  0
 11 12  1  0
 11 13  1  0
 13 14  2  0
 13 15  1  0
 15 16  1  0
 16 17  1  0
 17 18  2  0
 18 19  1  0
 19 20  2  0
 20 21  1  0
 21 22  2  0
 15 23  1  0
 23 24  1  0
 24 25  1  0
 25 26  2  0
 26 27  1  0
 27 28  2  0
 28 29  1  0
 29 30  1  0
 28 31  1  0
 31 32  1  0
 32 33  1  0
 33 34  2  0
 33  5  1  0
 22 17  1  0
 29 25  1  0
  1 35  1  0
  1 36  1  0
  1 37  1  0
  2 38  1  0
  3 39  1  0
  3 40  1  0
  3 41  1  0
  4 42  1  0
  4 43  1  0
  5 44  1  6
  6 45  1  0
  9 46  1  6
 10 47  1  0
 10 48  1  0
 10 49  1  0
 12 50  1  0
 12 51  1  0
 12 52  1  0
 15 53  1  1
 16 54  1  0
 16 55  1  0
 18 56  1  0
 19 57  1  0
 20 58  1  0
 21 59  1  0
 22 60  1  0
 23 61  1  0
 24 62  1  0
 24 63  1  0
 26 64  1  0
 27 65  1  0
 30 66  1  0
 30 67  1  0
 30 68  1  0
 31 69  1  0
 31 70  1  0
 32 71  1  0
M  END
$$$$
