
     RDKit          3D

109113  0  0  0  0  0  0  0  0999 V2000
    8.0950    5.2251    4.0513 C   0  0  0  0  0  0  0  0  0  0  0  0
    6.9264    5.3222    3.2467 O   0  0  0  0  0  0  0  0  0  0  0  0
    6.5596    4.3371    2.3272 C   0  0  0  0  0  0  0  0  0  0  0  0
    5.3809    4.4833    1.5979 C   0  0  0  0  0  0  0  0  0  0  0  0
    5.0032    3.4583    0.7298 C   0  0  0  0  0  0  0  0  0  0  0  0
    3.8164    3.5660    0.0038 O   0  0  0  0  0  0  0  0  0  0  0  0
    2.9497    2.4912   -0.2234 C   0  0  0  0  0  0  0  0  0  0  0  0
    2.8084    1.4581    0.7137 C   0  0  0  0  0  0  0  0  0  0  0  0
    1.8674    0.4491    0.5119 C   0  0  0  0  0  0  0  0  0  0  0  0
    1.0569    0.4448   -0.6340 C   0  0  0  0  0  0  0  0  0  0  0  0
    0.0013   -0.6410   -0.7760 C   0  0  0  0  0  0  0  0  0  0  0  0
   -0.9030   -0.3888   -1.9069 N   0  0  0  0  0  0  0  0  0  0  0  0
   -2.0735    0.4539   -1.8656 C   0  0  0  0  0  0  0  0  0  0  0  0
   -2.6024    0.7969   -2.9559 O   0  0  0  0  0  0  0  0  0  0  0  0
   -2.7333    0.9146   -0.5802 C   0  0  2  0  0  0  0  0  0  0  0  0
   -1.7845    1.6455    0.2682 N   0  0  0  0  0  0  0  0  0  0  0  0
   -1.3886    2.9908   -0.0252 C   0  0  0  0  0  0  0  0  0  0  0  0
   -1.7420    3.5314   -1.1092 O   0  0  0  0  0  0  0  0  0  0  0  0
   -0.6219    3.6936    0.9176 O   0  0  0  0  0  0  0  0  0  0  0  0
   -0.3491    5.1045    0.9030 C   0  0  0  0  0  0  0  0  0  0  0  0
   -1.6618    5.9151    0.8789 C   0  0  0  0  0  0  0  0  0  0  0  0
    0.4141    5.4353    2.1925 C   0  0  0  0  0  0  0  0  0  0  0  0
    0.5299    5.4858   -0.2983 C   0  0  0  0  0  0  0  0  0  0  0  0
   -3.3782   -0.2697    0.1765 C   0  0  0  0  0  0  0  0  0  0  0  0
   -4.7807   -0.5952   -0.3549 C   0  0  0  0  0  0  0  0  0  0  0  0
   -5.2733   -1.9515    0.1740 C   0  0  0  0  0  0  0  0  0  0  0  0
   -6.7997   -2.1346    0.0757 C   0  0  0  0  0  0  0  0  0  0  0  0
   -7.4021   -1.8708   -1.3167 C   0  0  0  0  0  0  0  0  0  0  0  0
   -6.7246   -2.6326   -2.4257 C   0  0  0  0  0  0  0  0  0  0  0  0
   -6.7016   -3.9731   -2.4628 C   0  0  0  0  0  0  0  0  0  0  0  0
   -6.0608   -4.7193   -3.6082 C   0  0  0  0  0  0  0  0  0  0  0  0
   -4.5602   -4.4230   -3.7389 C   0  0  0  0  0  0  0  0  0  0  0  0
   -3.7436   -5.0124   -2.5845 C   0  0  0  0  0  0  0  0  0  0  0  0
   -2.1251   -4.2605   -2.5184 S   0  0  0  0  0  6  0  0  0  0  0  0
   -2.2465   -2.8892   -1.9246 O   0  0  0  0  0  0  0  0  0  0  0  0
   -1.5493   -4.1461   -3.8990 O   0  0  0  0  0  0  0  0  0  0  0  0
   -1.0709   -5.2300   -1.5509 N   0  0  0  0  0  0  0  0  0  0  0  0
   -1.3554   -5.4666   -0.1716 C   0  0  0  0  0  0  0  0  0  0  0  0
   -1.4179   -6.6535    0.2421 O   0  0  0  0  0  0  0  0  0  0  0  0
   -1.5726   -4.3577    0.7810 C   0  0  0  0  0  0  0  0  0  0  0  0
   -2.6246   -4.4718    1.7073 C   0  0  0  0  0  0  0  0  0  0  0  0
   -2.7955   -3.5200    2.7123 C   0  0  0  0  0  0  0  0  0  0  0  0
   -1.8825   -2.4742    2.8400 C   0  0  0  0  0  0  0  0  0  0  0  0
   -0.8290   -2.3509    1.9310 C   0  0  0  0  0  0  0  0  0  0  0  0
   -0.7011   -3.2434    0.8516 C   0  0  0  0  0  0  0  0  0  0  0  0
    0.4078   -3.1198   -0.0598 N   0  0  0  0  0  0  0  0  0  0  0  0
    0.6673   -1.9946   -0.9289 C   0  0  0  0  0  0  0  0  0  0  0  0
    1.5070   -2.1412   -1.8564 O   0  0  0  0  0  0  0  0  0  0  0  0
    1.2366    1.4596   -1.5937 C   0  0  0  0  0  0  0  0  0  0  0  0
    2.1662    2.4806   -1.3786 C   0  0  0  0  0  0  0  0  0  0  0  0
    5.8062    2.3713    0.5758 N   0  0  0  0  0  0  0  0  0  0  0  0
    6.9757    2.2538    1.2616 C   0  0  0  0  0  0  0  0  0  0  0  0
    7.8602    1.0826    1.0405 C   0  0  0  0  0  0  0  0  0  0  0  0
    9.0584    0.9433    1.7683 C   0  0  0  0  0  0  0  0  0  0  0  0
    9.9108   -0.1400    1.5303 C   0  0  0  0  0  0  0  0  0  0  0  0
    9.5861   -1.0863    0.5572 C   0  0  0  0  0  0  0  0  0  0  0  0
    8.4026   -0.9606   -0.1706 C   0  0  0  0  0  0  0  0  0  0  0  0
    7.5457    0.1190    0.0631 C   0  0  0  0  0  0  0  0  0  0  0  0
    7.3340    3.2332    2.1379 N   0  0  0  0  0  0  0  0  0  0  0  0
    8.9963    5.1871    3.4057 H   0  0  0  0  0  0  0  0  0  0  0  0
    8.0504    4.3143    4.6853 H   0  0  0  0  0  0  0  0  0  0  0  0
    8.1574    6.1141    4.7074 H   0  0  0  0  0  0  0  0  0  0  0  0
    4.7501    5.3528    1.7315 H   0  0  0  0  0  0  0  0  0  0  0  0
    3.3985    1.4537    1.6213 H   0  0  0  0  0  0  0  0  0  0  0  0
    1.7628   -0.3240    1.2621 H   0  0  0  0  0  0  0  0  0  0  0  0
   -0.5851   -0.6279    0.1437 H   0  0  0  0  0  0  0  0  0  0  0  0
   -0.5971   -0.7193   -2.8537 H   0  0  0  0  0  0  0  0  0  0  0  0
   -3.5553    1.6270   -0.8365 H   0  0  0  0  0  0  0  0  0  0  0  0
   -1.4822    1.2473    1.1858 H   0  0  0  0  0  0  0  0  0  0  0  0
   -2.3293    5.5905    1.7050 H   0  0  0  0  0  0  0  0  0  0  0  0
   -1.4601    7.0044    0.9867 H   0  0  0  0  0  0  0  0  0  0  0  0
   -2.1977    5.7739   -0.0819 H   0  0  0  0  0  0  0  0  0  0  0  0
   -0.2124    5.2025    3.0785 H   0  0  0  0  0  0  0  0  0  0  0  0
    1.3419    4.8278    2.2599 H   0  0  0  0  0  0  0  0  0  0  0  0
    0.6940    6.5121    2.2245 H   0  0  0  0  0  0  0  0  0  0  0  0
    1.5103    4.9677   -0.2393 H   0  0  0  0  0  0  0  0  0  0  0  0
    0.0441    5.2167   -1.2579 H   0  0  0  0  0  0  0  0  0  0  0  0
    0.7214    6.5829   -0.3097 H   0  0  0  0  0  0  0  0  0  0  0  0
   -3.4720   -0.0247    1.2572 H   0  0  0  0  0  0  0  0  0  0  0  0
   -2.7449   -1.1745    0.0935 H   0  0  0  0  0  0  0  0  0  0  0  0
   -4.7622   -0.6272   -1.4644 H   0  0  0  0  0  0  0  0  0  0  0  0
   -5.4773    0.2143   -0.0424 H   0  0  0  0  0  0  0  0  0  0  0  0
   -4.7613   -2.7709   -0.3744 H   0  0  0  0  0  0  0  0  0  0  0  0
   -4.9954   -2.0527    1.2462 H   0  0  0  0  0  0  0  0  0  0  0  0
   -7.0543   -3.1702    0.3902 H   0  0  0  0  0  0  0  0  0  0  0  0
   -7.2873   -1.4510    0.8040 H   0  0  0  0  0  0  0  0  0  0  0  0
   -8.4796   -2.1424   -1.3016 H   0  0  0  0  0  0  0  0  0  0  0  0
   -7.3443   -0.7842   -1.5433 H   0  0  0  0  0  0  0  0  0  0  0  0
   -6.2757   -2.0640   -3.2384 H   0  0  0  0  0  0  0  0  0  0  0  0
   -7.1727   -4.5500   -1.6712 H   0  0  0  0  0  0  0  0  0  0  0  0
   -6.2070   -5.8138   -3.4687 H   0  0  0  0  0  0  0  0  0  0  0  0
   -6.5670   -4.4280   -4.5551 H   0  0  0  0  0  0  0  0  0  0  0  0
   -4.1888   -4.8582   -4.6905 H   0  0  0  0  0  0  0  0  0  0  0  0
   -4.3996   -3.3275   -3.8029 H   0  0  0  0  0  0  0  0  0  0  0  0
   -4.2459   -4.8269   -1.6134 H   0  0  0  0  0  0  0  0  0  0  0  0
   -3.6372   -6.1104   -2.7166 H   0  0  0  0  0  0  0  0  0  0  0  0
   -0.4597   -5.9106   -2.0544 H   0  0  0  0  0  0  0  0  0  0  0  0
   -3.3074   -5.3118    1.6593 H   0  0  0  0  0  0  0  0  0  0  0  0
   -3.6155   -3.6165    3.4164 H   0  0  0  0  0  0  0  0  0  0  0  0
   -1.9836   -1.7654    3.6516 H   0  0  0  0  0  0  0  0  0  0  0  0
   -0.1002   -1.5690    2.0918 H   0  0  0  0  0  0  0  0  0  0  0  0
    0.9691   -3.9826   -0.2392 H   0  0  0  0  0  0  0  0  0  0  0  0
    0.6459    1.4870   -2.4999 H   0  0  0  0  0  0  0  0  0  0  0  0
    2.2687    3.2688   -2.1128 H   0  0  0  0  0  0  0  0  0  0  0  0
    9.3418    1.6696    2.5189 H   0  0  0  0  0  0  0  0  0  0  0  0
   10.8340   -0.2356    2.0907 H   0  0  0  0  0  0  0  0  0  0  0  0
   10.2548   -1.9134    0.3604 H   0  0  0  0  0  0  0  0  0  0  0  0
    8.1536   -1.6924   -0.9272 H   0  0  0  0  0  0  0  0  0  0  0  0
    6.6442    0.2036   -0.5321 H   0  0  0  0  0  0  0  0  0  0  0  0
  1  2  1  0
  2  3  1  0
  3  4  2  0
  4  5  1  0
  5  6  1  0
  6  7  1  0
  7  8  2  0
  8  9  1  0
  9 10  2  0
 10 11  1  0
 11 12  1  0
 12 13  1  0
 13 14  2  0
 13 15  1  0
 15 16  1  0
 16 17  1  0
 17 18  2  0
 17 19  1  0
 19 20  1  0
 20 21  1  0
 20 22  1  0
 20 23  1  0
 15 24  1  0
 24 25  1  0
 25 26  1  0
 26 27  1  0
 27 28  1  0
 28 29  1  0
 29 30  2  0
 30 31  1  0
 31 32  1  0
 32 33  1  0
 33 34  1  0
 34 35  2  0
 34 36  2  0
 34 37  1  0
 37 38  1  0
 38 39  2  0
 38 40  1  0
 40 41  2  0
 41 42  1  0
 42 43  2  0
 43 44  1  0
 44 45  2  0
 45 46  1  0
 46 47  1  0
 47 48  2  0
 10 49  1  0
 49 50  2  0
  5 51  2  0
 51 52  1  0
 52 53  1  0
 53 54  2  0
 54 55  1  0
 55 56  2  0
 56 57  1  0
 57 58  2  0
 52 59  2  0
 59  3  1  0
 50  7  1  0
 58 53  1  0
 47 11  1  0
 45 40  1  0
  1 60  1  0
  1 61  1  0
  1 62  1  0
  4 63  1  0
  8 64  1  0
  9 65  1  0
 11 66  1  0
 12 67  1  0
 15 68  1  6
 16 69  1  0
 21 70  1  0
 21 71  1  0
 21 72  1  0
 22 73  1  0
 22 74  1  0
 22 75  1  0
 23 76  1  0
 23 77  1  0
 23 78  1  0
 24 79  1  0
 24 80  1  0
 25 81  1  0
 25 82  1  0
 26 83  1  0
 26 84  1  0
 27 85  1  0
 27 86  1  0
 28 87  1  0
 28 88  1  0
 29 89  1  0
 30 90  1  0
 31 91  1  0
 31 92  1  0
 32 93  1  0
 32 94  1  0
 33 95  1  0
 33 96  1  0
 37 97  1  0
 41 98  1  0
 42 99  1  0
 43100  1  0
 44101  1  0
 46102  1  0
 49103  1  0
 50104  1  0
 54105  1  0
 55106  1  0
 56107  1  0
 57108  1  0
 58109  1  0
M  END
$$$$
