
     RDKit          3D

 72 77  0  0  0  0  0  0  0  0999 V2000
    1.2167    2.0284    3.2052 C   0  0  0  0  0  0  0  0  0  0  0  0
    0.6895    1.6129    1.9035 N   0  0  0  0  0  0  0  0  0  0  0  0
   -0.4674    2.3270    1.3472 C   0  0  0  0  0  0  0  0  0  0  0  0
   -0.0619    3.2116    0.1537 C   0  0  0  0  0  0  0  0  0  0  0  0
   -1.0863    3.1522   -0.8848 N   0  0  0  0  0  0  0  0  0  0  0  0
   -1.1911    2.0167   -1.7521 C   0  0  0  0  0  0  0  0  0  0  0  0
   -0.1693    1.3300   -2.0228 O   0  0  0  0  0  0  0  0  0  0  0  0
   -2.5256    1.5735   -2.2571 C   0  0  0  0  0  0  0  0  0  0  0  0
   -3.1648    0.7705   -1.2645 O   0  0  0  0  0  0  0  0  0  0  0  0
   -3.8253    1.2386   -0.1148 C   0  0  0  0  0  0  0  0  0  0  0  0
   -4.3613    2.5412   -0.0544 C   0  0  0  0  0  0  0  0  0  0  0  0
   -5.0003    2.9944    1.0993 C   0  0  0  0  0  0  0  0  0  0  0  0
   -5.1205    2.1591    2.2063 C   0  0  0  0  0  0  0  0  0  0  0  0
   -5.7393    2.6050    3.3263 F   0  0  0  0  0  0  0  0  0  0  0  0
   -4.6042    0.8641    2.1633 C   0  0  0  0  0  0  0  0  0  0  0  0
   -3.9603    0.3824    1.0075 C   0  0  0  0  0  0  0  0  0  0  0  0
   -3.3675   -0.9841    1.0410 C   0  0  0  0  0  0  0  0  0  0  0  0
   -3.0388   -1.4801    2.1539 O   0  0  0  0  0  0  0  0  0  0  0  0
   -3.1382   -1.7510   -0.1585 N   0  0  0  0  0  0  0  0  0  0  0  0
   -4.2426   -1.9249   -1.1161 C   0  0  0  0  0  0  0  0  0  0  0  0
   -4.5924   -3.4085   -1.2253 C   0  0  0  0  0  0  0  0  0  0  0  0
   -3.3696   -4.2725   -1.6014 C   0  0  0  0  0  0  0  0  0  0  0  0
   -2.0256   -3.5280   -1.5046 C   0  0  0  0  0  0  0  0  0  0  0  0
   -1.9515   -2.6335   -0.2461 C   0  0  1  0  0  0  0  0  0  0  0  0
   -0.6627   -1.8308   -0.2061 C   0  0  0  0  0  0  0  0  0  0  0  0
    0.5721   -2.2366   -0.7231 C   0  0  0  0  0  0  0  0  0  0  0  0
    1.4369   -1.2764   -0.2634 C   0  0  0  0  0  0  0  0  0  0  0  0
    2.7802   -1.2288   -0.4201 N   0  0  0  0  0  0  0  0  0  0  0  0
    3.4898   -0.2238    0.1753 C   0  0  0  0  0  0  0  0  0  0  0  0
    4.9218   -0.1802    0.0184 N   0  0  0  0  0  0  0  0  0  0  0  0
    5.7799    0.8680    0.5510 C   0  0  0  0  0  0  0  0  0  0  0  0
    7.1825    0.5571    0.0411 C   0  0  0  0  0  0  0  0  0  0  0  0
    7.1420   -0.9092   -0.3973 C   0  0  2  0  0  0  0  0  0  0  0  0
    7.9951   -1.1486   -1.5632 N   0  0  0  0  0  0  0  0  0  0  0  0
    5.6686   -1.2175   -0.6739 C   0  0  0  0  0  0  0  0  0  0  0  0
    2.8087    0.7434    0.9555 C   0  0  0  0  0  0  0  0  0  0  0  0
    1.4120    0.6489    1.1073 C   0  0  0  0  0  0  0  0  0  0  0  0
    0.7792   -0.3769    0.4738 N   0  0  0  0  0  0  0  0  0  0  0  0
   -0.4989   -0.7090    0.5412 N   0  0  0  0  0  0  0  0  0  0  0  0
    1.9559    1.2929    3.5877 H   0  0  0  0  0  0  0  0  0  0  0  0
    0.3918    2.0927    3.9451 H   0  0  0  0  0  0  0  0  0  0  0  0
    1.7049    3.0211    3.1097 H   0  0  0  0  0  0  0  0  0  0  0  0
   -0.9371    2.9720    2.1230 H   0  0  0  0  0  0  0  0  0  0  0  0
   -1.2477    1.5981    1.0589 H   0  0  0  0  0  0  0  0  0  0  0  0
    0.9176    2.9079   -0.2746 H   0  0  0  0  0  0  0  0  0  0  0  0
    0.0529    4.2622    0.4980 H   0  0  0  0  0  0  0  0  0  0  0  0
   -1.8672    3.8452   -0.8506 H   0  0  0  0  0  0  0  0  0  0  0  0
   -3.1483    2.4355   -2.5656 H   0  0  0  0  0  0  0  0  0  0  0  0
   -2.3769    0.9497   -3.1633 H   0  0  0  0  0  0  0  0  0  0  0  0
   -4.3053    3.2146   -0.8947 H   0  0  0  0  0  0  0  0  0  0  0  0
   -5.4068    3.9969    1.1331 H   0  0  0  0  0  0  0  0  0  0  0  0
   -4.7102    0.2339    3.0379 H   0  0  0  0  0  0  0  0  0  0  0  0
   -3.9355   -1.5465   -2.1147 H   0  0  0  0  0  0  0  0  0  0  0  0
   -5.1456   -1.3586   -0.8018 H   0  0  0  0  0  0  0  0  0  0  0  0
   -4.9936   -3.7490   -0.2444 H   0  0  0  0  0  0  0  0  0  0  0  0
   -5.3968   -3.5429   -1.9816 H   0  0  0  0  0  0  0  0  0  0  0  0
   -3.3381   -5.1624   -0.9343 H   0  0  0  0  0  0  0  0  0  0  0  0
   -3.4912   -4.6474   -2.6417 H   0  0  0  0  0  0  0  0  0  0  0  0
   -1.2111   -4.2845   -1.4879 H   0  0  0  0  0  0  0  0  0  0  0  0
   -1.8897   -2.9007   -2.4136 H   0  0  0  0  0  0  0  0  0  0  0  0
   -1.9462   -3.3094    0.6369 H   0  0  0  0  0  0  0  0  0  0  0  0
    0.8150   -3.1202   -1.2974 H   0  0  0  0  0  0  0  0  0  0  0  0
    5.7563    0.8406    1.6621 H   0  0  0  0  0  0  0  0  0  0  0  0
    5.4487    1.8647    0.1858 H   0  0  0  0  0  0  0  0  0  0  0  0
    7.9447    0.7189    0.8341 H   0  0  0  0  0  0  0  0  0  0  0  0
    7.4126    1.2196   -0.8222 H   0  0  0  0  0  0  0  0  0  0  0  0
    7.4928   -1.5427    0.4493 H   0  0  0  0  0  0  0  0  0  0  0  0
    7.6379   -0.6006   -2.3800 H   0  0  0  0  0  0  0  0  0  0  0  0
    7.9254   -2.1606   -1.8173 H   0  0  0  0  0  0  0  0  0  0  0  0
    5.4047   -2.2200   -0.2718 H   0  0  0  0  0  0  0  0  0  0  0  0
    5.4311   -1.1764   -1.7595 H   0  0  0  0  0  0  0  0  0  0  0  0
    3.3456    1.5508    1.4343 H   0  0  0  0  0  0  0  0  0  0  0  0
  1  2  1  0
  2  3  1  0
  3  4  1  0
  4  5  1  0
  5  6  1  0
  6  7  2  0
  6  8  1  0
  8  9  1  0
  9 10  1  0
 10 11  2  0
 11 12  1  0
 12 13  2  0
 13 14  1  0
 13 15  1  0
 15 16  2  0
 16 17  1  0
 17 18  2  0
 17 19  1  0
 19 20  1  0
 20 21  1  0
 21 22  1  0
 22 23  1  0
 23 24  1  0
 24 25  1  0
 25 26  1  0
 26 27  2  0
 27 28  1  0
 28 29  2  0
 29 30  1  0
 30 31  1  0
 31 32  1  0
 32 33  1  0
 33 34  1  0
 33 35  1  0
 29 36  1  0
 36 37  2  0
 37 38  1  0
 38 39  1  0
 37  2  1  0
 16 10  1  0
 24 19  1  0
 39 25  2  0
 38 27  1  0
 35 30  1  0
  1 40  1  0
  1 41  1  0
  1 42  1  0
  3 43  1  0
  3 44  1  0
  4 45  1  0
  4 46  1  0
  5 47  1  0
  8 48  1  0
  8 49  1  0
 11 50  1  0
 12 51  1  0
 15 52  1  0
 20 53  1  0
 20 54  1  0
 21 55  1  0
 21 56  1  0
 22 57  1  0
 22 58  1  0
 23 59  1  0
 23 60  1  0
 24 61  1  1
 26 62  1  0
 31 63  1  0
 31 64  1  0
 32 65  1  0
 32 66  1  0
 33 67  1  1
 34 68  1  0
 34 69  1  0
 35 70  1  0
 35 71  1  0
 36 72  1  0
M  END
$$$$
