
     RDKit          3D

 62 63  0  0  0  0  0  0  0  0999 V2000
   -1.6505   -0.4280   -3.8410 C   0  0  0  0  0  0  0  0  0  0  0  0
   -1.7088    0.3477   -2.7556 C   0  0  0  0  0  0  0  0  0  0  0  0
   -0.4827    0.8404   -2.1841 N   0  0  0  0  0  0  0  0  0  0  0  0
   -0.3827    1.9828   -1.3212 C   0  0  0  0  0  0  0  0  0  0  0  0
   -1.3097    2.8383   -1.2985 O   0  0  0  0  0  0  0  0  0  0  0  0
    0.7953    2.1081   -0.3773 C   0  0  2  0  0  0  0  0  0  0  0  0
    0.9382    3.5257    0.1847 C   0  0  0  0  0  0  0  0  0  0  0  0
    2.0400    1.7299   -1.0580 N   0  0  0  0  0  0  0  0  0  0  0  0
    3.0895    0.9345   -0.4752 C   0  0  0  0  0  0  0  0  0  0  0  0
    4.0662    0.6044   -1.2019 O   0  0  0  0  0  0  0  0  0  0  0  0
    3.0297    0.4446    0.9654 C   0  0  2  0  0  0  0  0  0  0  0  0
    4.4308    0.2497    1.6157 C   0  0  1  0  0  0  0  0  0  0  0  0
    4.2974    0.2426    3.0157 O   0  0  0  0  0  0  0  0  0  0  0  0
    5.1305   -1.0143    1.1777 C   0  0  0  0  0  0  0  0  0  0  0  0
    6.1729   -0.9707    0.1997 N   0  0  0  0  0  0  0  0  0  0  0  0
    4.7882   -2.1241    1.6673 O   0  0  0  0  0  0  0  0  0  0  0  0
    2.1693   -0.7516    1.1097 N   0  0  0  0  0  0  0  0  0  0  0  0
    1.5302   -1.0287    2.4008 C   0  0  0  0  0  0  0  0  0  0  0  0
    2.0000   -1.7045    0.0359 C   0  0  0  0  0  0  0  0  0  0  0  0
    3.0093   -2.1111   -0.6029 O   0  0  0  0  0  0  0  0  0  0  0  0
    0.6230   -2.2152   -0.3282 C   0  0  2  0  0  0  0  0  0  0  0  0
    0.5822   -2.7296   -1.7772 C   0  0  0  0  0  0  0  0  0  0  0  0
   -0.3024   -1.1449   -0.1590 O   0  0  0  0  0  0  0  0  0  0  0  0
   -1.6919   -1.2801   -0.1216 C   0  0  0  0  0  0  0  0  0  0  0  0
   -2.2453   -2.3821   -0.3889 O   0  0  0  0  0  0  0  0  0  0  0  0
   -2.5146   -0.0796    0.2507 C   0  0  2  0  0  0  0  0  0  0  0  0
   -3.4223   -0.3623    1.4499 C   0  0  0  0  0  0  0  0  0  0  0  0
   -4.6732    0.4765    1.1884 C   0  0  2  0  0  0  0  0  0  0  0  0
   -5.9363   -0.1298    1.8087 C   0  0  0  0  0  0  0  0  0  0  0  0
   -4.7598    0.5914   -0.3333 C   0  0  0  0  0  0  0  0  0  0  0  0
   -3.4077    0.3500   -0.8240 N   0  0  0  0  0  0  0  0  0  0  0  0
   -3.0387    0.6659   -2.1860 C   0  0  0  0  0  0  0  0  0  0  0  0
   -3.9043    1.1684   -2.9538 O   0  0  0  0  0  0  0  0  0  0  0  0
   -2.5503   -0.8270   -4.2935 H   0  0  0  0  0  0  0  0  0  0  0  0
   -0.6992   -0.6821   -4.2917 H   0  0  0  0  0  0  0  0  0  0  0  0
    0.4041    0.3491   -2.4388 H   0  0  0  0  0  0  0  0  0  0  0  0
    0.5907    1.4185    0.4654 H   0  0  0  0  0  0  0  0  0  0  0  0
    1.0663    4.2594   -0.6409 H   0  0  0  0  0  0  0  0  0  0  0  0
    0.0399    3.7976    0.7809 H   0  0  0  0  0  0  0  0  0  0  0  0
    1.8253    3.5813    0.8513 H   0  0  0  0  0  0  0  0  0  0  0  0
    2.2087    2.1213   -2.0125 H   0  0  0  0  0  0  0  0  0  0  0  0
    2.5732    1.2773    1.5415 H   0  0  0  0  0  0  0  0  0  0  0  0
    5.0583    1.1264    1.3291 H   0  0  0  0  0  0  0  0  0  0  0  0
    5.1904    0.4581    3.3944 H   0  0  0  0  0  0  0  0  0  0  0  0
    6.6163   -1.8563   -0.1310 H   0  0  0  0  0  0  0  0  0  0  0  0
    6.5303   -0.0608   -0.1650 H   0  0  0  0  0  0  0  0  0  0  0  0
    1.9749   -1.9443    2.8477 H   0  0  0  0  0  0  0  0  0  0  0  0
    1.6765   -0.1887    3.1126 H   0  0  0  0  0  0  0  0  0  0  0  0
    0.4384   -1.1752    2.2743 H   0  0  0  0  0  0  0  0  0  0  0  0
    0.3606   -3.0453    0.3639 H   0  0  0  0  0  0  0  0  0  0  0  0
    1.2149   -3.6387   -1.8753 H   0  0  0  0  0  0  0  0  0  0  0  0
    0.9686   -1.9553   -2.4759 H   0  0  0  0  0  0  0  0  0  0  0  0
   -0.4507   -2.9993   -2.0777 H   0  0  0  0  0  0  0  0  0  0  0  0
   -1.8446    0.7610    0.5218 H   0  0  0  0  0  0  0  0  0  0  0  0
   -2.9345   -0.0749    2.4082 H   0  0  0  0  0  0  0  0  0  0  0  0
   -3.6974   -1.4404    1.4959 H   0  0  0  0  0  0  0  0  0  0  0  0
   -4.5158    1.4925    1.6156 H   0  0  0  0  0  0  0  0  0  0  0  0
   -5.8250   -0.1829    2.9132 H   0  0  0  0  0  0  0  0  0  0  0  0
   -6.1170   -1.1545    1.4196 H   0  0  0  0  0  0  0  0  0  0  0  0
   -6.8148    0.5077    1.5719 H   0  0  0  0  0  0  0  0  0  0  0  0
   -5.1101    1.6064   -0.6205 H   0  0  0  0  0  0  0  0  0  0  0  0
   -5.4397   -0.1753   -0.7675 H   0  0  0  0  0  0  0  0  0  0  0  0
  1  2  2  3
  2  3  1  0
  3  4  1  0
  4  5  2  0
  4  6  1  0
  6  7  1  0
  6  8  1  0
  8  9  1  0
  9 10  2  0
  9 11  1  0
 11 12  1  0
 12 13  1  0
 12 14  1  0
 14 15  1  0
 14 16  2  0
 11 17  1  0
 17 18  1  0
 17 19  1  0
 19 20  2  0
 19 21  1  0
 21 22  1  0
 21 23  1  0
 23 24  1  0
 24 25  2  0
 24 26  1  0
 26 27  1  0
 27 28  1  0
 28 29  1  0
 28 30  1  0
 30 31  1  0
 31 32  1  0
 32 33  2  0
 32  2  1  0
 31 26  1  0
  1 34  1  0
  1 35  1  0
  3 36  1  0
  6 37  1  1
  7 38  1  0
  7 39  1  0
  7 40  1  0
  8 41  1  0
 11 42  1  1
 12 43  1  1
 13 44  1  0
 15 45  1  0
 15 46  1  0
 18 47  1  0
 18 48  1  0
 18 49  1  0
 21 50  1  1
 22 51  1  0
 22 52  1  0
 22 53  1  0
 26 54  1  1
 27 55  1  0
 27 56  1  0
 28 57  1  1
 29 58  1  0
 29 59  1  0
 29 60  1  0
 30 61  1  0
 30 62  1  0
M  END
$$$$
