
     RDKit          3D

 63 67  0  0  0  0  0  0  0  0999 V2000
   -6.2298    1.1818    0.2840 C   0  0  0  0  0  0  0  0  0  0  0  0
   -5.3306   -0.0240    0.1549 C   0  0  0  0  0  0  0  0  0  0  0  0
   -5.8796   -1.2792    0.4585 C   0  0  0  0  0  0  0  0  0  0  0  0
   -5.1020   -2.4270    0.4067 C   0  0  0  0  0  0  0  0  0  0  0  0
   -3.7659   -2.3494    0.0384 C   0  0  0  0  0  0  0  0  0  0  0  0
   -3.1826   -1.1152   -0.3061 C   0  0  0  0  0  0  0  0  0  0  0  0
   -3.9651    0.0770   -0.2570 C   0  0  0  0  0  0  0  0  0  0  0  0
   -3.3365    1.4650   -0.5038 C   0  0  1  0  0  0  0  0  0  0  0  0
   -2.6561    2.0035    0.7756 C   0  0  0  0  0  0  0  0  0  0  0  0
   -1.2111    1.5214    0.9253 C   0  0  0  0  0  0  0  0  0  0  0  0
   -0.3276    1.7715   -0.3308 C   0  0  2  0  0  0  0  0  0  0  0  0
   -1.1271    2.3349   -1.5242 C   0  0  0  0  0  0  0  0  0  0  0  0
   -2.4449    1.5830   -1.7777 C   0  0  0  0  0  0  0  0  0  0  0  0
    0.3161    0.5731   -0.7358 O   0  0  0  0  0  0  0  0  0  0  0  0
    1.4511    0.3147    0.0674 C   0  0  0  0  0  0  0  0  0  0  0  0
    1.9903   -1.1037   -0.2146 C   0  0  0  0  0  0  0  0  0  0  0  0
    3.4760   -1.3489    0.1832 C   0  0  1  0  0  0  0  0  0  0  0  0
    3.9696   -0.5612    1.3361 N   0  0  0  0  0  0  0  0  0  0  0  0
    5.3830    0.3730    0.9403 S   0  0  0  0  0  6  0  0  0  0  0  0
    6.4214   -0.5206    0.3180 O   0  0  0  0  0  0  0  0  0  0  0  0
    5.9443    0.9528    2.2071 O   0  0  0  0  0  0  0  0  0  0  0  0
    4.9497    1.7274   -0.1522 C   0  0  0  0  0  0  0  0  0  0  0  0
    6.1226    2.3051   -0.9273 C   0  0  0  0  0  0  0  0  0  0  0  0
    5.0897    1.4449   -1.6390 C   0  0  0  0  0  0  0  0  0  0  0  0
    3.4975   -2.8207    0.5909 C   0  0  0  0  0  0  0  0  0  0  0  0
    2.1091   -3.0986    1.1455 C   0  0  0  0  0  0  0  0  0  0  0  0
    1.2338   -2.1394    0.4931 N   0  0  0  0  0  0  0  0  0  0  0  0
   -0.1779   -2.4006    0.3711 C   0  0  0  0  0  0  0  0  0  0  0  0
   -0.7928   -2.9225    1.3398 O   0  0  0  0  0  0  0  0  0  0  0  0
   -0.9315   -2.1261   -0.8971 C   0  0  0  0  0  0  0  0  0  0  0  0
   -1.8385   -1.0416   -0.7069 O   0  0  0  0  0  0  0  0  0  0  0  0
   -7.2224    0.9170    0.7065 H   0  0  0  0  0  0  0  0  0  0  0  0
   -5.7731    1.9291    0.9662 H   0  0  0  0  0  0  0  0  0  0  0  0
   -6.4008    1.6330   -0.7157 H   0  0  0  0  0  0  0  0  0  0  0  0
   -6.9164   -1.3720    0.7562 H   0  0  0  0  0  0  0  0  0  0  0  0
   -5.5365   -3.3853    0.6612 H   0  0  0  0  0  0  0  0  0  0  0  0
   -3.1959   -3.2660    0.0354 H   0  0  0  0  0  0  0  0  0  0  0  0
   -4.1549    2.1852   -0.7022 H   0  0  0  0  0  0  0  0  0  0  0  0
   -2.6525    3.1160    0.7490 H   0  0  0  0  0  0  0  0  0  0  0  0
   -3.2377    1.7113    1.6776 H   0  0  0  0  0  0  0  0  0  0  0  0
   -1.2232    0.4448    1.1936 H   0  0  0  0  0  0  0  0  0  0  0  0
   -0.7583    2.0458    1.7951 H   0  0  0  0  0  0  0  0  0  0  0  0
    0.4260    2.5583   -0.0818 H   0  0  0  0  0  0  0  0  0  0  0  0
   -0.5008    2.3012   -2.4423 H   0  0  0  0  0  0  0  0  0  0  0  0
   -1.3588    3.4060   -1.3327 H   0  0  0  0  0  0  0  0  0  0  0  0
   -2.2340    0.6119   -2.2606 H   0  0  0  0  0  0  0  0  0  0  0  0
   -3.0033    2.1476   -2.5576 H   0  0  0  0  0  0  0  0  0  0  0  0
    1.2013    0.3968    1.1491 H   0  0  0  0  0  0  0  0  0  0  0  0
    2.2401    1.0513   -0.1904 H   0  0  0  0  0  0  0  0  0  0  0  0
    1.9175   -1.2912   -1.3085 H   0  0  0  0  0  0  0  0  0  0  0  0
    4.1196   -1.2130   -0.7140 H   0  0  0  0  0  0  0  0  0  0  0  0
    3.2655    0.0640    1.7783 H   0  0  0  0  0  0  0  0  0  0  0  0
    4.1815    2.4705    0.1495 H   0  0  0  0  0  0  0  0  0  0  0  0
    7.1043    1.8056   -0.7849 H   0  0  0  0  0  0  0  0  0  0  0  0
    6.0368    3.3884   -1.1558 H   0  0  0  0  0  0  0  0  0  0  0  0
    5.4663    0.4405   -1.9238 H   0  0  0  0  0  0  0  0  0  0  0  0
    4.3902    2.0196   -2.2825 H   0  0  0  0  0  0  0  0  0  0  0  0
    4.2888   -3.0489    1.3386 H   0  0  0  0  0  0  0  0  0  0  0  0
    3.6652   -3.4512   -0.3104 H   0  0  0  0  0  0  0  0  0  0  0  0
    1.8042   -4.1409    0.9077 H   0  0  0  0  0  0  0  0  0  0  0  0
    2.0840   -2.9365    2.2444 H   0  0  0  0  0  0  0  0  0  0  0  0
   -0.2302   -1.8510   -1.7075 H   0  0  0  0  0  0  0  0  0  0  0  0
   -1.4471   -3.0382   -1.2585 H   0  0  0  0  0  0  0  0  0  0  0  0
  1  2  1  0
  2  3  2  0
  3  4  1  0
  4  5  2  0
  5  6  1  0
  6  7  2  0
  7  8  1  0
  8  9  1  0
  9 10  1  0
 10 11  1  0
 11 12  1  0
 12 13  1  0
 11 14  1  0
 14 15  1  0
 15 16  1  0
 16 17  1  0
 17 18  1  0
 18 19  1  0
 19 20  2  0
 19 21  2  0
 19 22  1  0
 22 23  1  0
 23 24  1  0
 17 25  1  0
 25 26  1  0
 26 27  1  0
 27 28  1  0
 28 29  2  0
 28 30  1  0
 30 31  1  0
  7  2  1  0
 13  8  1  0
 27 16  1  0
 31  6  1  0
 24 22  1  0
  1 32  1  0
  1 33  1  0
  1 34  1  0
  3 35  1  0
  4 36  1  0
  5 37  1  0
  8 38  1  6
  9 39  1  0
  9 40  1  0
 10 41  1  0
 10 42  1  0
 11 43  1  1
 12 44  1  0
 12 45  1  0
 13 46  1  0
 13 47  1  0
 15 48  1  0
 15 49  1  0
 16 50  1  0
 17 51  1  6
 18 52  1  0
 22 53  1  0
 23 54  1  0
 23 55  1  0
 24 56  1  0
 24 57  1  0
 25 58  1  0
 25 59  1  0
 26 60  1  0
 26 61  1  0
 30 62  1  0
 30 63  1  0
M  END
$$$$
