
     RDKit          3D

107113  0  0  0  0  0  0  0  0999 V2000
    7.8269   -0.0290    5.4218 C   0  0  0  0  0  0  0  0  0  0  0  0
    7.8250   -0.4210    4.0468 O   0  0  0  0  0  0  0  0  0  0  0  0
    6.7564   -0.1994    3.1611 C   0  0  0  0  0  0  0  0  0  0  0  0
    5.6198    0.5432    3.5389 C   0  0  0  0  0  0  0  0  0  0  0  0
    4.5859    0.7730    2.6283 C   0  0  0  0  0  0  0  0  0  0  0  0
    4.6720    0.2800    1.3167 C   0  0  0  0  0  0  0  0  0  0  0  0
    3.6640    0.5200    0.3607 C   0  0  0  0  0  0  0  0  0  0  0  0
    2.5085    1.2408    0.6684 O   0  0  0  0  0  0  0  0  0  0  0  0
    1.4155    0.7020    1.4191 C   0  0  2  0  0  0  0  0  0  0  0  0
    0.7687   -0.4880    0.6996 C   0  0  0  0  0  0  0  0  0  0  0  0
   -0.3665    0.1038   -0.1413 C   0  0  1  0  0  0  0  0  0  0  0  0
   -1.6157   -0.7418   -0.0248 C   0  0  0  0  0  0  0  0  0  0  0  0
   -2.4706   -0.4784    0.8658 O   0  0  0  0  0  0  0  0  0  0  0  0
   -1.7764   -1.9121   -0.8566 N   0  0  0  0  0  0  0  0  0  0  0  0
   -3.0412   -2.6369   -0.9497 C   0  0  2  0  0  0  0  0  0  0  0  0
   -3.2891   -3.7378    0.0564 C   0  0  0  0  0  0  0  0  0  0  0  0
   -4.1100   -3.5500    0.9966 O   0  0  0  0  0  0  0  0  0  0  0  0
   -2.5875   -4.9895   -0.0575 N   0  0  0  0  0  0  0  0  0  0  0  0
   -2.8235   -6.3316    1.0157 S   0  0  0  0  0  6  0  0  0  0  0  0
   -1.5180   -7.0641    1.1660 O   0  0  0  0  0  0  0  0  0  0  0  0
   -3.2568   -5.8457    2.3713 O   0  0  0  0  0  0  0  0  0  0  0  0
   -4.0348   -7.4842    0.3896 C   0  0  0  0  0  0  0  0  0  0  0  0
   -5.2302   -6.8329   -0.2822 C   0  0  0  0  0  0  0  0  0  0  0  0
   -4.1604   -7.5254   -1.1207 C   0  0  0  0  0  0  0  0  0  0  0  0
   -3.3787   -2.9999   -2.3862 C   0  0  0  0  0  0  0  0  0  0  0  0
   -4.2037   -1.9359   -1.6578 C   0  0  1  0  0  0  0  0  0  0  0  0
   -5.6237   -2.4102   -1.4366 C   0  0  0  0  0  0  0  0  0  0  0  0
   -6.6086   -1.6639   -0.8818 C   0  0  0  0  0  0  0  0  0  0  0  0
   -6.3994   -0.3059   -0.2739 C   0  0  0  0  0  0  0  0  0  0  0  0
   -6.3840    0.7959   -1.3487 C   0  0  0  0  0  0  0  0  0  0  0  0
   -5.8393    2.1388   -0.8203 C   0  0  0  0  0  0  0  0  0  0  0  0
   -4.3211    2.0751   -0.5680 C   0  0  0  0  0  0  0  0  0  0  0  0
   -3.7211    3.4420   -0.2031 C   0  0  0  0  0  0  0  0  0  0  0  0
   -2.3574    3.2738    0.5135 C   0  0  2  0  0  0  0  0  0  0  0  0
   -1.7800    4.5746    0.8800 N   0  0  0  0  0  0  0  0  0  0  0  0
   -1.4672    5.5977   -0.0810 C   0  0  0  0  0  0  0  0  0  0  0  0
   -1.3161    5.3073   -1.2983 O   0  0  0  0  0  0  0  0  0  0  0  0
   -1.2838    6.9905    0.3450 C   0  0  0  0  0  0  0  0  0  0  0  0
   -1.4378    7.5156    1.6175 C   0  0  0  0  0  0  0  0  0  0  0  0
   -1.2030    8.8414    1.5398 N   0  0  0  0  0  0  0  0  0  0  0  0
   -0.8864    9.0816    0.2766 N   0  0  0  0  0  0  0  0  0  0  0  0
   -0.6213   10.4188   -0.2363 C   0  0  0  0  0  0  0  0  0  0  0  0
   -0.9429    7.9931   -0.4838 N   0  0  0  0  0  0  0  0  0  0  0  0
   -1.3760    2.4321   -0.2750 C   0  0  0  0  0  0  0  0  0  0  0  0
   -1.2956    2.5555   -1.5280 O   0  0  0  0  0  0  0  0  0  0  0  0
   -0.5679    1.4450    0.3908 N   0  0  0  0  0  0  0  0  0  0  0  0
    0.3159    1.7531    1.4986 C   0  0  0  0  0  0  0  0  0  0  0  0
    3.8283    0.0643   -0.9467 C   0  0  0  0  0  0  0  0  0  0  0  0
    4.9759   -0.6452   -1.2991 C   0  0  0  0  0  0  0  0  0  0  0  0
    5.1332   -1.0655   -2.6242 O   0  0  0  0  0  0  0  0  0  0  0  0
    6.3096   -1.7038   -3.1276 C   0  0  0  0  0  0  0  0  0  0  0  0
    6.3786   -3.1629   -2.6481 C   0  0  0  0  0  0  0  0  0  0  0  0
    6.2884   -1.6423   -4.6585 C   0  0  0  0  0  0  0  0  0  0  0  0
    5.9305   -0.8928   -0.3617 N   0  0  0  0  0  0  0  0  0  0  0  0
    5.8149   -0.4664    0.9285 C   0  0  0  0  0  0  0  0  0  0  0  0
    6.8431   -0.7243    1.8569 C   0  0  0  0  0  0  0  0  0  0  0  0
    8.0781   -1.4926    1.4442 C   0  0  0  0  0  0  0  0  0  0  0  0
    7.7121    1.0764    5.5294 H   0  0  0  0  0  0  0  0  0  0  0  0
    7.0187   -0.5666    5.9631 H   0  0  0  0  0  0  0  0  0  0  0  0
    8.7945   -0.3047    5.8825 H   0  0  0  0  0  0  0  0  0  0  0  0
    5.5487    0.9799    4.5284 H   0  0  0  0  0  0  0  0  0  0  0  0
    3.7470    1.3707    2.9446 H   0  0  0  0  0  0  0  0  0  0  0  0
    1.7440    0.4000    2.4405 H   0  0  0  0  0  0  0  0  0  0  0  0
    1.4753   -1.0455    0.0517 H   0  0  0  0  0  0  0  0  0  0  0  0
    0.3853   -1.2021    1.4684 H   0  0  0  0  0  0  0  0  0  0  0  0
   -0.0353    0.1810   -1.2201 H   0  0  0  0  0  0  0  0  0  0  0  0
   -0.9928   -2.2093   -1.4925 H   0  0  0  0  0  0  0  0  0  0  0  0
   -1.8866   -5.1134   -0.8274 H   0  0  0  0  0  0  0  0  0  0  0  0
   -4.2321   -8.4345    0.9385 H   0  0  0  0  0  0  0  0  0  0  0  0
   -6.1843   -7.3954   -0.1817 H   0  0  0  0  0  0  0  0  0  0  0  0
   -5.2231   -5.7272   -0.3709 H   0  0  0  0  0  0  0  0  0  0  0  0
   -3.5125   -6.8445   -1.7023 H   0  0  0  0  0  0  0  0  0  0  0  0
   -4.4616   -8.5185   -1.5055 H   0  0  0  0  0  0  0  0  0  0  0  0
   -2.7317   -2.5560   -3.1865 H   0  0  0  0  0  0  0  0  0  0  0  0
   -3.8634   -4.0029   -2.5086 H   0  0  0  0  0  0  0  0  0  0  0  0
   -4.0017   -0.9120   -2.0597 H   0  0  0  0  0  0  0  0  0  0  0  0
   -5.9187   -3.3856   -1.8037 H   0  0  0  0  0  0  0  0  0  0  0  0
   -7.5914   -2.1137   -0.8135 H   0  0  0  0  0  0  0  0  0  0  0  0
   -7.2505   -0.1092    0.4180 H   0  0  0  0  0  0  0  0  0  0  0  0
   -5.4821   -0.3175    0.3458 H   0  0  0  0  0  0  0  0  0  0  0  0
   -5.8231    0.4719   -2.2344 H   0  0  0  0  0  0  0  0  0  0  0  0
   -7.4328    0.9648   -1.6879 H   0  0  0  0  0  0  0  0  0  0  0  0
   -6.0607    2.9328   -1.5747 H   0  0  0  0  0  0  0  0  0  0  0  0
   -6.3761    2.4035    0.1219 H   0  0  0  0  0  0  0  0  0  0  0  0
   -3.7994    1.6986   -1.4784 H   0  0  0  0  0  0  0  0  0  0  0  0
   -4.1345    1.3773    0.2491 H   0  0  0  0  0  0  0  0  0  0  0  0
   -3.6111    4.0539   -1.1215 H   0  0  0  0  0  0  0  0  0  0  0  0
   -4.4223    3.9748    0.4835 H   0  0  0  0  0  0  0  0  0  0  0  0
   -2.5586    2.7177    1.4640 H   0  0  0  0  0  0  0  0  0  0  0  0
   -1.7089    4.7840    1.9034 H   0  0  0  0  0  0  0  0  0  0  0  0
   -1.7474    6.9966    2.5159 H   0  0  0  0  0  0  0  0  0  0  0  0
   -1.5709   10.8689   -0.5995 H   0  0  0  0  0  0  0  0  0  0  0  0
    0.1134   10.3648   -1.0689 H   0  0  0  0  0  0  0  0  0  0  0  0
   -0.2151   11.0529    0.5783 H   0  0  0  0  0  0  0  0  0  0  0  0
   -0.2428    1.6789    2.4551 H   0  0  0  0  0  0  0  0  0  0  0  0
    0.7287    2.7792    1.4046 H   0  0  0  0  0  0  0  0  0  0  0  0
    3.0675    0.2810   -1.6888 H   0  0  0  0  0  0  0  0  0  0  0  0
    7.1998   -1.1746   -2.7496 H   0  0  0  0  0  0  0  0  0  0  0  0
    5.5121   -3.7439   -3.0217 H   0  0  0  0  0  0  0  0  0  0  0  0
    6.3851   -3.2137   -1.5290 H   0  0  0  0  0  0  0  0  0  0  0  0
    7.3064   -3.6576   -3.0178 H   0  0  0  0  0  0  0  0  0  0  0  0
    7.2379   -2.0435   -5.0685 H   0  0  0  0  0  0  0  0  0  0  0  0
    5.4359   -2.2234   -5.0680 H   0  0  0  0  0  0  0  0  0  0  0  0
    6.1998   -0.5902   -4.9798 H   0  0  0  0  0  0  0  0  0  0  0  0
    8.8499   -0.7843    1.0881 H   0  0  0  0  0  0  0  0  0  0  0  0
    7.8725   -2.2309    0.6487 H   0  0  0  0  0  0  0  0  0  0  0  0
    8.4932   -2.0694    2.3007 H   0  0  0  0  0  0  0  0  0  0  0  0
  1  2  1  0
  2  3  1  0
  3  4  2  0
  4  5  1  0
  5  6  2  0
  6  7  1  0
  7  8  1  0
  8  9  1  0
  9 10  1  0
 10 11  1  0
 11 12  1  0
 12 13  2  0
 12 14  1  0
 14 15  1  0
 15 16  1  1
 16 17  2  0
 16 18  1  0
 18 19  1  0
 19 20  2  0
 19 21  2  0
 19 22  1  0
 22 23  1  0
 23 24  1  0
 15 25  1  0
 25 26  1  0
 26 27  1  0
 27 28  2  0
 28 29  1  0
 29 30  1  0
 30 31  1  0
 31 32  1  0
 32 33  1  0
 33 34  1  0
 34 35  1  0
 35 36  1  0
 36 37  2  0
 36 38  1  0
 38 39  1  0
 39 40  2  0
 40 41  1  0
 41 42  1  0
 41 43  1  0
 34 44  1  0
 44 45  2  0
 44 46  1  0
 46 47  1  0
  7 48  2  0
 48 49  1  0
 49 50  1  0
 50 51  1  0
 51 52  1  0
 51 53  1  0
 49 54  2  0
 54 55  1  0
 55 56  2  0
 56 57  1  0
 56  3  1  0
 55  6  1  0
 47  9  1  0
 46 11  1  0
 26 15  1  0
 43 38  2  0
 24 22  1  0
  1 58  1  0
  1 59  1  0
  1 60  1  0
  4 61  1  0
  5 62  1  0
  9 63  1  1
 10 64  1  0
 10 65  1  0
 11 66  1  6
 14 67  1  0
 18 68  1  0
 22 69  1  0
 23 70  1  0
 23 71  1  0
 24 72  1  0
 24 73  1  0
 25 74  1  0
 25 75  1  0
 26 76  1  6
 27 77  1  0
 28 78  1  0
 29 79  1  0
 29 80  1  0
 30 81  1  0
 30 82  1  0
 31 83  1  0
 31 84  1  0
 32 85  1  0
 32 86  1  0
 33 87  1  0
 33 88  1  0
 34 89  1  1
 35 90  1  0
 39 91  1  0
 42 92  1  0
 42 93  1  0
 42 94  1  0
 47 95  1  0
 47 96  1  0
 48 97  1  0
 51 98  1  0
 52 99  1  0
 52100  1  0
 52101  1  0
 53102  1  0
 53103  1  0
 53104  1  0
 57105  1  0
 57106  1  0
 57107  1  0
M  END
$$$$
