
     RDKit          3D

130130  0  0  0  0  0  0  0  0999 V2000
    8.6672   -5.4072    0.7447 C   0  0  0  0  0  0  0  0  0  0  0  0
    7.3277   -4.7132    0.5512 C   0  0  0  0  0  0  0  0  0  0  0  0
    7.3949   -3.6736   -0.5781 C   0  0  0  0  0  0  0  0  0  0  0  0
    6.2083   -2.6973   -0.5542 C   0  0  0  0  0  0  0  0  0  0  0  0
    4.8963   -3.3378   -1.0362 C   0  0  0  0  0  0  0  0  0  0  0  0
    3.6648   -2.4493   -0.7628 C   0  0  2  0  0  0  0  0  0  0  0  0
    2.5000   -3.1934   -1.1197 O   0  0  0  0  0  0  0  0  0  0  0  0
    1.1992   -2.8529   -0.7203 C   0  0  0  0  0  0  0  0  0  0  0  0
    0.9844   -1.8200   -0.0235 O   0  0  0  0  0  0  0  0  0  0  0  0
    0.0597   -3.7888   -1.0078 C   0  0  1  0  0  0  0  0  0  0  0  0
    0.3293   -4.6790   -2.2314 C   0  0  0  0  0  0  0  0  0  0  0  0
   -0.2294   -4.5989    0.1939 N   0  0  0  0  0  0  0  0  0  0  0  0
    0.8006   -5.5043    0.7239 C   0  0  0  0  0  0  0  0  0  0  0  0
   -1.3817   -4.3425    1.0340 C   0  0  0  0  0  0  0  0  0  0  0  0
   -1.2746   -4.4895    2.2838 O   0  0  0  0  0  0  0  0  0  0  0  0
   -2.7344   -3.9445    0.4921 C   0  0  2  0  0  0  0  0  0  0  0  0
   -3.2244   -4.8548   -0.6539 C   0  0  0  0  0  0  0  0  0  0  0  0
   -3.2722   -6.3533   -0.3067 C   0  0  0  0  0  0  0  0  0  0  0  0
   -4.3463   -6.6888    0.7378 C   0  0  0  0  0  0  0  0  0  0  0  0
   -4.5166   -8.2068    0.8832 C   0  0  0  0  0  0  0  0  0  0  0  0
   -5.5423   -8.5452    1.9617 C   0  0  0  0  0  0  0  0  0  0  0  0
   -2.7013   -2.5894    0.0483 O   0  0  0  0  0  0  0  0  0  0  0  0
   -3.8097   -1.7377    0.0937 C   0  0  0  0  0  0  0  0  0  0  0  0
   -4.7191   -1.9260    0.9451 O   0  0  0  0  0  0  0  0  0  0  0  0
   -3.8983   -0.5977   -0.8810 C   0  0  1  0  0  0  0  0  0  0  0  0
   -5.3316   -0.0728   -1.0352 C   0  0  0  0  0  0  0  0  0  0  0  0
   -2.9518    0.4749   -0.5302 N   0  0  0  0  0  0  0  0  0  0  0  0
   -1.6587    0.5660   -1.2145 C   0  0  0  0  0  0  0  0  0  0  0  0
   -3.1229    1.2669    0.6604 C   0  0  0  0  0  0  0  0  0  0  0  0
   -2.7231    0.8030    1.7632 O   0  0  0  0  0  0  0  0  0  0  0  0
   -3.8416    2.5977    0.6400 C   0  0  2  0  0  0  0  0  0  0  0  0
   -3.8671    3.3002   -0.7400 C   0  0  0  0  0  0  0  0  0  0  0  0
   -4.5848    4.6626   -0.7194 C   0  0  0  0  0  0  0  0  0  0  0  0
   -6.1073    4.5325   -0.5442 C   0  0  0  0  0  0  0  0  0  0  0  0
   -6.7825    5.9079   -0.5521 C   0  0  0  0  0  0  0  0  0  0  0  0
   -8.2918    5.7879   -0.3488 C   0  0  0  0  0  0  0  0  0  0  0  0
   -3.3716    3.4656    1.6794 O   0  0  0  0  0  0  0  0  0  0  0  0
   -2.0867    4.0238    1.8448 C   0  0  0  0  0  0  0  0  0  0  0  0
   -1.9159    4.8171    2.8091 O   0  0  0  0  0  0  0  0  0  0  0  0
   -0.9190    3.7477    0.9261 C   0  0  1  0  0  0  0  0  0  0  0  0
   -0.5601    4.9877    0.0968 C   0  0  0  0  0  0  0  0  0  0  0  0
    0.2328    3.2593    1.6924 N   0  0  0  0  0  0  0  0  0  0  0  0
    1.2281    4.1142    2.2766 C   0  0  0  0  0  0  0  0  0  0  0  0
    0.8609    5.0969    2.9794 O   0  0  0  0  0  0  0  0  0  0  0  0
    2.6998    3.7982    2.1369 C   0  0  2  0  0  0  0  0  0  0  0  0
    3.5618    5.0780    2.1301 C   0  0  0  0  0  0  0  0  0  0  0  0
    3.2694    5.9752    0.9127 C   0  0  0  0  0  0  0  0  0  0  0  0
    4.2627    7.1414    0.8213 C   0  0  0  0  0  0  0  0  0  0  0  0
    3.8754    8.1532   -0.2691 C   0  0  0  0  0  0  0  0  0  0  0  0
    3.9656    7.5703   -1.6843 C   0  0  0  0  0  0  0  0  0  0  0  0
    2.9630    3.0882    0.9230 O   0  0  0  0  0  0  0  0  0  0  0  0
    3.0120    1.6959    0.8155 C   0  0  0  0  0  0  0  0  0  0  0  0
    2.4080    0.9593    1.6471 O   0  0  0  0  0  0  0  0  0  0  0  0
    3.8360    1.0858   -0.2768 C   0  0  1  0  0  0  0  0  0  0  0  0
    5.1648    0.6041    0.3209 C   0  0  0  0  0  0  0  0  0  0  0  0
    3.0805    0.0176   -0.9420 N   0  0  0  0  0  0  0  0  0  0  0  0
    3.6929   -1.1444   -1.5159 C   0  0  0  0  0  0  0  0  0  0  0  0
    4.1243   -1.0970   -2.6993 O   0  0  0  0  0  0  0  0  0  0  0  0
    9.0029   -5.8809   -0.2023 H   0  0  0  0  0  0  0  0  0  0  0  0
    8.5597   -6.1966    1.5176 H   0  0  0  0  0  0  0  0  0  0  0  0
    9.4327   -4.6789    1.0821 H   0  0  0  0  0  0  0  0  0  0  0  0
    7.0400   -4.2219    1.5061 H   0  0  0  0  0  0  0  0  0  0  0  0
    6.5565   -5.4771    0.3069 H   0  0  0  0  0  0  0  0  0  0  0  0
    7.4388   -4.1872   -1.5654 H   0  0  0  0  0  0  0  0  0  0  0  0
    8.3285   -3.0712   -0.4731 H   0  0  0  0  0  0  0  0  0  0  0  0
    6.0865   -2.3007    0.4746 H   0  0  0  0  0  0  0  0  0  0  0  0
    6.4541   -1.8475   -1.2232 H   0  0  0  0  0  0  0  0  0  0  0  0
    4.9725   -3.5653   -2.1232 H   0  0  0  0  0  0  0  0  0  0  0  0
    4.7349   -4.2992   -0.5110 H   0  0  0  0  0  0  0  0  0  0  0  0
    3.6303   -2.2375    0.3289 H   0  0  0  0  0  0  0  0  0  0  0  0
   -0.8120   -3.1637   -1.2740 H   0  0  0  0  0  0  0  0  0  0  0  0
   -0.4770   -5.4335   -2.3411 H   0  0  0  0  0  0  0  0  0  0  0  0
    0.3571   -4.0545   -3.1487 H   0  0  0  0  0  0  0  0  0  0  0  0
    1.2951   -5.2204   -2.1489 H   0  0  0  0  0  0  0  0  0  0  0  0
    0.3711   -6.5132    0.8766 H   0  0  0  0  0  0  0  0  0  0  0  0
    1.1851   -5.1199    1.6906 H   0  0  0  0  0  0  0  0  0  0  0  0
    1.6671   -5.5981    0.0377 H   0  0  0  0  0  0  0  0  0  0  0  0
   -3.4669   -4.0283    1.3245 H   0  0  0  0  0  0  0  0  0  0  0  0
   -2.5760   -4.7137   -1.5415 H   0  0  0  0  0  0  0  0  0  0  0  0
   -4.2438   -4.5243   -0.9665 H   0  0  0  0  0  0  0  0  0  0  0  0
   -3.4960   -6.9138   -1.2421 H   0  0  0  0  0  0  0  0  0  0  0  0
   -2.2777   -6.7001    0.0530 H   0  0  0  0  0  0  0  0  0  0  0  0
   -4.0555   -6.2568    1.7203 H   0  0  0  0  0  0  0  0  0  0  0  0
   -5.3187   -6.2426    0.4256 H   0  0  0  0  0  0  0  0  0  0  0  0
   -4.8510   -8.6390   -0.0845 H   0  0  0  0  0  0  0  0  0  0  0  0
   -3.5419   -8.6663    1.1559 H   0  0  0  0  0  0  0  0  0  0  0  0
   -5.1941   -8.1728    2.9497 H   0  0  0  0  0  0  0  0  0  0  0  0
   -5.6641   -9.6462    2.0241 H   0  0  0  0  0  0  0  0  0  0  0  0
   -6.5241   -8.0870    1.7200 H   0  0  0  0  0  0  0  0  0  0  0  0
   -3.6247   -1.0118   -1.8721 H   0  0  0  0  0  0  0  0  0  0  0  0
   -5.3848    0.6730   -1.8512 H   0  0  0  0  0  0  0  0  0  0  0  0
   -6.0117   -0.9105   -1.3100 H   0  0  0  0  0  0  0  0  0  0  0  0
   -5.7016    0.3769   -0.0938 H   0  0  0  0  0  0  0  0  0  0  0  0
   -1.6073    1.5016   -1.8126 H   0  0  0  0  0  0  0  0  0  0  0  0
   -0.8272    0.5634   -0.4767 H   0  0  0  0  0  0  0  0  0  0  0  0
   -1.4938   -0.2902   -1.8942 H   0  0  0  0  0  0  0  0  0  0  0  0
   -4.8926    2.3575    0.8963 H   0  0  0  0  0  0  0  0  0  0  0  0
   -4.3635    2.6522   -1.4842 H   0  0  0  0  0  0  0  0  0  0  0  0
   -2.8393    3.4592   -1.1153 H   0  0  0  0  0  0  0  0  0  0  0  0
   -4.3799    5.1719   -1.6859 H   0  0  0  0  0  0  0  0  0  0  0  0
   -4.1632    5.3037    0.0835 H   0  0  0  0  0  0  0  0  0  0  0  0
   -6.5227    3.9080   -1.3672 H   0  0  0  0  0  0  0  0  0  0  0  0
   -6.3331    4.0366    0.4236 H   0  0  0  0  0  0  0  0  0  0  0  0
   -6.5883    6.4174   -1.5241 H   0  0  0  0  0  0  0  0  0  0  0  0
   -6.3578    6.5344    0.2651 H   0  0  0  0  0  0  0  0  0  0  0  0
   -8.7563    5.3161   -1.2388 H   0  0  0  0  0  0  0  0  0  0  0  0
   -8.5200    5.1920    0.5573 H   0  0  0  0  0  0  0  0  0  0  0  0
   -8.7241    6.7993   -0.2180 H   0  0  0  0  0  0  0  0  0  0  0  0
   -1.1745    2.9493    0.2144 H   0  0  0  0  0  0  0  0  0  0  0  0
    0.3440    4.7852   -0.5135 H   0  0  0  0  0  0  0  0  0  0  0  0
   -1.3891    5.2406   -0.5903 H   0  0  0  0  0  0  0  0  0  0  0  0
   -0.3677    5.8686    0.7453 H   0  0  0  0  0  0  0  0  0  0  0  0
    0.2817    2.2278    1.8945 H   0  0  0  0  0  0  0  0  0  0  0  0
    3.0096    3.1814    3.0084 H   0  0  0  0  0  0  0  0  0  0  0  0
    4.6295    4.7715    2.1073 H   0  0  0  0  0  0  0  0  0  0  0  0
    3.4035    5.6503    3.0706 H   0  0  0  0  0  0  0  0  0  0  0  0
    3.3488    5.3730   -0.0172 H   0  0  0  0  0  0  0  0  0  0  0  0
    2.2352    6.3739    0.9825 H   0  0  0  0  0  0  0  0  0  0  0  0
    5.2865    6.7518    0.6171 H   0  0  0  0  0  0  0  0  0  0  0  0
    4.2883    7.6767    1.7950 H   0  0  0  0  0  0  0  0  0  0  0  0
    4.5644    9.0224   -0.2043 H   0  0  0  0  0  0  0  0  0  0  0  0
    2.8437    8.5304   -0.0923 H   0  0  0  0  0  0  0  0  0  0  0  0
    4.9609    7.1060   -1.8524 H   0  0  0  0  0  0  0  0  0  0  0  0
    3.8233    8.3814   -2.4301 H   0  0  0  0  0  0  0  0  0  0  0  0
    3.1688    6.8116   -1.8481 H   0  0  0  0  0  0  0  0  0  0  0  0
    4.0642    1.8688   -1.0301 H   0  0  0  0  0  0  0  0  0  0  0  0
    5.6748    1.4428    0.8434 H   0  0  0  0  0  0  0  0  0  0  0  0
    5.8440    0.2651   -0.4872 H   0  0  0  0  0  0  0  0  0  0  0  0
    4.9942   -0.2180    1.0496 H   0  0  0  0  0  0  0  0  0  0  0  0
    2.1402    0.2738   -1.3214 H   0  0  0  0  0  0  0  0  0  0  0  0
  1  2  1  0
  2  3  1  0
  3  4  1  0
  4  5  1  0
  5  6  1  0
  6  7  1  0
  7  8  1  0
  8  9  2  0
  8 10  1  0
 10 11  1  0
 10 12  1  0
 12 13  1  0
 12 14  1  0
 14 15  2  0
 14 16  1  0
 16 17  1  0
 17 18  1  0
 18 19  1  0
 19 20  1  0
 20 21  1  0
 16 22  1  0
 22 23  1  0
 23 24  2  0
 23 25  1  0
 25 26  1  0
 25 27  1  0
 27 28  1  0
 27 29  1  0
 29 30  2  0
 29 31  1  0
 31 32  1  0
 32 33  1  0
 33 34  1  0
 34 35  1  0
 35 36  1  0
 31 37  1  0
 37 38  1  0
 38 39  2  0
 38 40  1  0
 40 41  1  0
 40 42  1  0
 42 43  1  0
 43 44  2  0
 43 45  1  0
 45 46  1  0
 46 47  1  0
 47 48  1  0
 48 49  1  0
 49 50  1  0
 45 51  1  0
 51 52  1  0
 52 53  2  0
 52 54  1  0
 54 55  1  0
 54 56  1  0
 56 57  1  0
 57 58  2  0
 57  6  1  0
  1 59  1  0
  1 60  1  0
  1 61  1  0
  2 62  1  0
  2 63  1  0
  3 64  1  0
  3 65  1  0
  4 66  1  0
  4 67  1  0
  5 68  1  0
  5 69  1  0
  6 70  1  1
 10 71  1  6
 11 72  1  0
 11 73  1  0
 11 74  1  0
 13 75  1  0
 13 76  1  0
 13 77  1  0
 16 78  1  1
 17 79  1  0
 17 80  1  0
 18 81  1  0
 18 82  1  0
 19 83  1  0
 19 84  1  0
 20 85  1  0
 20 86  1  0
 21 87  1  0
 21 88  1  0
 21 89  1  0
 25 90  1  6
 26 91  1  0
 26 92  1  0
 26 93  1  0
 28 94  1  0
 28 95  1  0
 28 96  1  0
 31 97  1  1
 32 98  1  0
 32 99  1  0
 33100  1  0
 33101  1  0
 34102  1  0
 34103  1  0
 35104  1  0
 35105  1  0
 36106  1  0
 36107  1  0
 36108  1  0
 40109  1  6
 41110  1  0
 41111  1  0
 41112  1  0
 42113  1  0
 45114  1  1
 46115  1  0
 46116  1  0
 47117  1  0
 47118  1  0
 48119  1  0
 48120  1  0
 49121  1  0
 49122  1  0
 50123  1  0
 50124  1  0
 50125  1  0
 54126  1  6
 55127  1  0
 55128  1  0
 55129  1  0
 56130  1  0
M  END
$$$$
