
     RDKit          3D

151157  0  0  0  0  0  0  0  0999 V2000
   -9.0266    4.4070   -0.7913 C   0  0  0  0  0  0  0  0  0  0  0  0
   -9.0465    3.2207   -1.7602 C   0  0  0  0  0  0  0  0  0  0  0  0
   -8.0625    2.1689   -1.4112 N   0  0  0  0  0  0  0  0  0  0  0  0
   -8.2987    0.8172   -1.1939 C   0  0  0  0  0  0  0  0  0  0  0  0
   -9.6223    0.2437   -1.1750 C   0  0  0  0  0  0  0  0  0  0  0  0
  -10.1012   -0.4364   -2.3287 C   0  0  0  0  0  0  0  0  0  0  0  0
  -11.3581   -1.0318   -2.3270 C   0  0  0  0  0  0  0  0  0  0  0  0
  -12.1684   -0.9292   -1.1967 C   0  0  0  0  0  0  0  0  0  0  0  0
  -11.7058   -0.2731   -0.0978 N   0  0  0  0  0  0  0  0  0  0  0  0
  -10.5201    0.3551   -0.0465 C   0  0  0  0  0  0  0  0  0  0  0  0
  -10.1704    1.0143    1.3117 C   0  0  2  0  0  0  0  0  0  0  0  0
  -10.6727    2.4848    1.4031 C   0  0  0  0  0  0  0  0  0  0  0  0
   -8.7487    0.9274    1.5278 O   0  0  0  0  0  0  0  0  0  0  0  0
   -8.4526    0.7427    2.9073 C   0  0  0  0  0  0  0  0  0  0  0  0
   -7.1345    0.0978   -0.9048 C   0  0  0  0  0  0  0  0  0  0  0  0
   -6.1499    1.0638   -0.9965 C   0  0  0  0  0  0  0  0  0  0  0  0
   -4.8095    1.0125   -0.6754 C   0  0  0  0  0  0  0  0  0  0  0  0
   -4.0765    2.2040   -0.4527 C   0  0  0  0  0  0  0  0  0  0  0  0
   -4.6426    3.4000   -0.8490 C   0  0  0  0  0  0  0  0  0  0  0  0
   -5.9615    3.4420   -1.3244 C   0  0  0  0  0  0  0  0  0  0  0  0
   -6.7184    2.2661   -1.2946 C   0  0  0  0  0  0  0  0  0  0  0  0
   -2.8741    2.2049    0.3752 N   0  0  0  0  0  0  0  0  0  0  0  0
   -2.7100    3.2145    1.4198 C   0  0  0  0  0  0  0  0  0  0  0  0
   -2.1630    2.5882    2.7356 C   0  0  0  0  0  0  0  0  0  0  0  0
   -0.9130    1.9897    2.5334 O   0  0  0  0  0  0  0  0  0  0  0  0
   -0.8601    1.1703    1.3641 C   0  0  1  0  0  0  0  0  0  0  0  0
   -0.3195   -0.2307    1.8032 C   0  0  0  0  0  0  0  0  0  0  0  0
    0.6707   -0.8936    0.8203 C   0  0  2  0  0  0  0  0  0  0  0  0
    1.7562    0.0219    0.4911 N   0  0  0  0  0  0  0  0  0  0  0  0
    3.0869   -0.3291    0.5002 C   0  0  0  0  0  0  0  0  0  0  0  0
    3.5707   -0.8431    1.5865 O   0  0  0  0  0  0  0  0  0  0  0  0
    3.9000   -0.2369   -0.8062 C   0  0  2  0  0  0  0  0  0  0  0  0
    4.4020   -1.6884   -1.2336 C   0  0  0  0  0  0  0  0  0  0  0  0
    3.2782   -2.4963   -1.9182 C   0  0  0  0  0  0  0  0  0  0  0  0
    5.0113   -2.5841   -0.0944 C   0  0  0  0  0  0  0  0  0  0  0  0
    4.9506    0.8323   -0.7450 N   0  0  0  0  0  0  0  0  0  0  0  0
    4.6030    2.0759   -0.1312 C   0  0  0  0  0  0  0  0  0  0  0  0
    5.7744    0.9791   -1.9753 C   0  0  0  0  0  0  0  0  0  0  0  0
    5.1976    1.0086   -3.0777 O   0  0  0  0  0  0  0  0  0  0  0  0
    7.3127    1.0121   -1.8623 C   0  0  0  0  0  0  0  0  0  0  0  0
    7.8154    1.9773   -2.7666 F   0  0  0  0  0  0  0  0  0  0  0  0
    7.7593   -0.4336   -2.3013 C   0  0  0  0  0  0  0  0  0  0  0  0
    7.9090   -1.2995   -1.0361 C   0  0  0  0  0  0  0  0  0  0  0  0
    8.9766   -0.7550   -0.1509 N   0  0  0  0  0  0  0  0  0  0  0  0
    9.6864   -1.6670    0.7018 C   0  0  0  0  0  0  0  0  0  0  0  0
    9.2413   -2.7717    1.0654 O   0  0  0  0  0  0  0  0  0  0  0  0
   11.1063   -1.3335    0.8300 C   0  0  0  0  0  0  0  0  0  0  0  0
   12.1329   -0.8349    0.6361 C   0  0  0  0  0  0  0  0  0  0  0  0
   13.3551   -0.1118    0.1819 C   0  0  0  0  0  0  0  0  0  0  0  0
   13.0111    0.7218   -1.1084 C   0  0  0  0  0  0  0  0  0  0  0  0
   14.3114   -1.2691   -0.1927 C   0  0  0  0  0  0  0  0  0  0  0  0
   13.8730    0.7826    1.3131 N   0  0  0  0  0  0  0  0  0  0  0  0
   15.2251    1.3268    1.0462 C   0  0  0  0  0  0  0  0  0  0  0  0
   12.9189    1.8265    1.7559 C   0  0  0  0  0  0  0  0  0  0  0  0
    9.2011    0.7034   -0.1095 C   0  0  0  0  0  0  0  0  0  0  0  0
    7.9074    1.4225   -0.4360 C   0  0  0  0  0  0  0  0  0  0  0  0
    0.0713   -1.4160   -0.4967 C   0  0  0  0  0  0  0  0  0  0  0  0
    0.2293   -0.6476   -1.4705 O   0  0  0  0  0  0  0  0  0  0  0  0
   -0.4938   -2.7351   -0.8521 N   0  0  0  0  0  0  0  0  0  0  0  0
   -1.2230   -2.7748   -2.1387 C   0  0  0  0  0  0  0  0  0  0  0  0
   -2.5706   -2.0562   -1.8981 C   0  0  0  0  0  0  0  0  0  0  0  0
   -2.9170   -2.0168   -0.3740 C   0  0  0  0  0  0  0  0  0  0  0  0
   -2.6066   -3.3443    0.2810 C   0  0  2  0  0  0  0  0  0  0  0  0
   -1.1555   -3.6015    0.1303 N   0  0  0  0  0  0  0  0  0  0  0  0
   -3.6582   -4.2515   -0.3568 C   0  0  0  0  0  0  0  0  0  0  0  0
   -3.3517   -5.3693   -0.8691 O   0  0  0  0  0  0  0  0  0  0  0  0
   -4.9998   -3.7295   -0.4653 O   0  0  0  0  0  0  0  0  0  0  0  0
   -5.8252   -3.4938    0.6965 C   0  0  0  0  0  0  0  0  0  0  0  0
   -6.6222   -2.0632    0.7824 C   0  0  0  0  0  0  0  0  0  0  0  0
   -5.7818   -1.0112    1.6823 C   0  0  0  0  0  0  0  0  0  0  0  0
   -7.9475   -2.4200    1.6641 C   0  0  0  0  0  0  0  0  0  0  0  0
   -7.0406   -1.4608   -0.6965 C   0  0  0  0  0  0  0  0  0  0  0  0
   -2.1655    0.9641    0.5453 C   0  0  0  0  0  0  0  0  0  0  0  0
   -8.8107    4.1104    0.2635 H   0  0  0  0  0  0  0  0  0  0  0  0
   -9.9550    4.9939   -0.8597 H   0  0  0  0  0  0  0  0  0  0  0  0
   -8.2012    5.1089   -1.0229 H   0  0  0  0  0  0  0  0  0  0  0  0
   -8.8481    3.5768   -2.7842 H   0  0  0  0  0  0  0  0  0  0  0  0
  -10.0703    2.8198   -1.7436 H   0  0  0  0  0  0  0  0  0  0  0  0
   -9.4678   -0.5605   -3.1839 H   0  0  0  0  0  0  0  0  0  0  0  0
  -11.6782   -1.6169   -3.1793 H   0  0  0  0  0  0  0  0  0  0  0  0
  -13.1365   -1.3520   -1.1604 H   0  0  0  0  0  0  0  0  0  0  0  0
  -10.7139    0.3894    2.0590 H   0  0  0  0  0  0  0  0  0  0  0  0
   -9.9350    3.1197    2.0103 H   0  0  0  0  0  0  0  0  0  0  0  0
  -11.6718    2.5583    1.9310 H   0  0  0  0  0  0  0  0  0  0  0  0
  -10.7939    2.9235    0.4147 H   0  0  0  0  0  0  0  0  0  0  0  0
   -7.5152    1.2373    3.1914 H   0  0  0  0  0  0  0  0  0  0  0  0
   -9.1937    1.2471    3.6043 H   0  0  0  0  0  0  0  0  0  0  0  0
   -8.5825   -0.3583    3.1675 H   0  0  0  0  0  0  0  0  0  0  0  0
   -4.4504    0.0932   -0.3846 H   0  0  0  0  0  0  0  0  0  0  0  0
   -4.0591    4.3102   -0.7221 H   0  0  0  0  0  0  0  0  0  0  0  0
   -6.3321    4.3851   -1.6423 H   0  0  0  0  0  0  0  0  0  0  0  0
   -3.6874    3.7290    1.6620 H   0  0  0  0  0  0  0  0  0  0  0  0
   -1.9820    3.9832    1.0415 H   0  0  0  0  0  0  0  0  0  0  0  0
   -2.8600    1.8121    3.1644 H   0  0  0  0  0  0  0  0  0  0  0  0
   -2.0911    3.3152    3.5715 H   0  0  0  0  0  0  0  0  0  0  0  0
   -0.1673    1.6985    0.6703 H   0  0  0  0  0  0  0  0  0  0  0  0
   -1.0850   -0.9895    2.1380 H   0  0  0  0  0  0  0  0  0  0  0  0
    0.2596   -0.0616    2.7073 H   0  0  0  0  0  0  0  0  0  0  0  0
    1.0460   -1.7691    1.4238 H   0  0  0  0  0  0  0  0  0  0  0  0
    1.5797    0.8619   -0.1576 H   0  0  0  0  0  0  0  0  0  0  0  0
    3.1898    0.1182   -1.5731 H   0  0  0  0  0  0  0  0  0  0  0  0
    5.1923   -1.6386   -2.0462 H   0  0  0  0  0  0  0  0  0  0  0  0
    2.8284   -1.9248   -2.7461 H   0  0  0  0  0  0  0  0  0  0  0  0
    2.4534   -2.6914   -1.1908 H   0  0  0  0  0  0  0  0  0  0  0  0
    3.6454   -3.4963   -2.2900 H   0  0  0  0  0  0  0  0  0  0  0  0
    4.2793   -3.1951    0.4363 H   0  0  0  0  0  0  0  0  0  0  0  0
    5.4394   -1.9565    0.7074 H   0  0  0  0  0  0  0  0  0  0  0  0
    5.8351   -3.2539   -0.4445 H   0  0  0  0  0  0  0  0  0  0  0  0
    5.5156    2.6858    0.0338 H   0  0  0  0  0  0  0  0  0  0  0  0
    4.2657    1.8928    0.9197 H   0  0  0  0  0  0  0  0  0  0  0  0
    3.8489    2.6345   -0.7147 H   0  0  0  0  0  0  0  0  0  0  0  0
    8.7511   -0.4200   -2.8093 H   0  0  0  0  0  0  0  0  0  0  0  0
    7.1310   -0.9131   -3.1292 H   0  0  0  0  0  0  0  0  0  0  0  0
    8.0139   -2.3774   -1.2327 H   0  0  0  0  0  0  0  0  0  0  0  0
    6.9710   -1.2434   -0.4956 H   0  0  0  0  0  0  0  0  0  0  0  0
   12.8285    1.8059   -0.8919 H   0  0  0  0  0  0  0  0  0  0  0  0
   13.9222    0.8224   -1.7785 H   0  0  0  0  0  0  0  0  0  0  0  0
   12.2292    0.3491   -1.7739 H   0  0  0  0  0  0  0  0  0  0  0  0
   14.6168   -1.8141    0.7472 H   0  0  0  0  0  0  0  0  0  0  0  0
   15.2331   -0.8784   -0.7177 H   0  0  0  0  0  0  0  0  0  0  0  0
   13.8660   -2.0155   -0.8773 H   0  0  0  0  0  0  0  0  0  0  0  0
   15.4727    2.2035    1.7038 H   0  0  0  0  0  0  0  0  0  0  0  0
   15.3184    1.7071    0.0114 H   0  0  0  0  0  0  0  0  0  0  0  0
   16.0138    0.5378    1.1783 H   0  0  0  0  0  0  0  0  0  0  0  0
   12.9337    1.8909    2.8707 H   0  0  0  0  0  0  0  0  0  0  0  0
   11.8403    1.6277    1.5048 H   0  0  0  0  0  0  0  0  0  0  0  0
   13.1129    2.8155    1.3003 H   0  0  0  0  0  0  0  0  0  0  0  0
    9.9732    0.9389   -0.8769 H   0  0  0  0  0  0  0  0  0  0  0  0
    9.6030    1.0222    0.8870 H   0  0  0  0  0  0  0  0  0  0  0  0
    8.0417    2.5651   -0.3316 H   0  0  0  0  0  0  0  0  0  0  0  0
    7.2246    1.1990    0.3854 H   0  0  0  0  0  0  0  0  0  0  0  0
   -0.6578   -2.3163   -2.9993 H   0  0  0  0  0  0  0  0  0  0  0  0
   -1.3606   -3.8352   -2.5894 H   0  0  0  0  0  0  0  0  0  0  0  0
   -2.5386   -1.0445   -2.3475 H   0  0  0  0  0  0  0  0  0  0  0  0
   -3.2388   -2.6401   -2.5348 H   0  0  0  0  0  0  0  0  0  0  0  0
   -2.2715   -1.4031    0.2455 H   0  0  0  0  0  0  0  0  0  0  0  0
   -3.9447   -1.7921   -0.3386 H   0  0  0  0  0  0  0  0  0  0  0  0
   -2.8382   -3.2858    1.4186 H   0  0  0  0  0  0  0  0  0  0  0  0
   -0.6955   -3.6151    1.0522 H   0  0  0  0  0  0  0  0  0  0  0  0
   -6.5805   -4.3324    0.7283 H   0  0  0  0  0  0  0  0  0  0  0  0
   -5.1329   -3.5783    1.5463 H   0  0  0  0  0  0  0  0  0  0  0  0
   -6.0840   -0.8065    2.7312 H   0  0  0  0  0  0  0  0  0  0  0  0
   -4.6800   -1.2200    1.7597 H   0  0  0  0  0  0  0  0  0  0  0  0
   -5.8666    0.0362    1.3284 H   0  0  0  0  0  0  0  0  0  0  0  0
   -7.7312   -2.2160    2.7407 H   0  0  0  0  0  0  0  0  0  0  0  0
   -8.8859   -1.9052    1.3294 H   0  0  0  0  0  0  0  0  0  0  0  0
   -8.1942   -3.5650    1.7122 H   0  0  0  0  0  0  0  0  0  0  0  0
   -6.3352   -1.8693   -1.4711 H   0  0  0  0  0  0  0  0  0  0  0  0
   -8.0036   -1.8748   -1.0286 H   0  0  0  0  0  0  0  0  0  0  0  0
   -1.9273    0.5495   -0.4678 H   0  0  0  0  0  0  0  0  0  0  0  0
   -2.8193    0.3003    1.1293 H   0  0  0  0  0  0  0  0  0  0  0  0
  1  2  1  0
  2  3  1  0
  3  4  1  0
  4  5  1  0
  5  6  2  0
  6  7  1  0
  7  8  2  0
  8  9  1  0
  9 10  2  0
 10 11  1  0
 11 12  1  0
 11 13  1  0
 13 14  1  0
  4 15  2  0
 15 16  1  0
 16 17  2  0
 17 18  1  0
 18 19  2  0
 19 20  1  0
 20 21  2  0
 18 22  1  0
 22 23  1  0
 23 24  1  0
 24 25  1  0
 25 26  1  0
 26 27  1  0
 27 28  1  0
 28 29  1  0
 29 30  1  0
 30 31  2  0
 30 32  1  0
 32 33  1  0
 33 34  1  0
 33 35  1  0
 32 36  1  0
 36 37  1  0
 36 38  1  0
 38 39  2  0
 38 40  1  0
 40 41  1  0
 40 42  1  0
 42 43  1  0
 43 44  1  0
 44 45  1  0
 45 46  2  0
 45 47  1  0
 47 48  3  0
 48 49  1  0
 49 50  1  0
 49 51  1  0
 49 52  1  0
 52 53  1  0
 52 54  1  0
 44 55  1  0
 55 56  1  0
 28 57  1  0
 57 58  2  0
 57 59  1  0
 59 60  1  0
 60 61  1  0
 61 62  1  0
 62 63  1  0
 63 64  1  0
 63 65  1  0
 65 66  2  0
 65 67  1  0
 67 68  1  0
 68 69  1  0
 69 70  1  0
 69 71  1  0
 69 72  1  0
 26 73  1  0
 21  3  1  0
 73 22  1  0
 10  5  1  0
 72 15  1  0
 21 16  1  0
 56 40  1  0
 64 59  1  0
  1 74  1  0
  1 75  1  0
  1 76  1  0
  2 77  1  0
  2 78  1  0
  6 79  1  0
  7 80  1  0
  8 81  1  0
 11 82  1  1
 12 83  1  0
 12 84  1  0
 12 85  1  0
 14 86  1  0
 14 87  1  0
 14 88  1  0
 17 89  1  0
 19 90  1  0
 20 91  1  0
 23 92  1  0
 23 93  1  0
 24 94  1  0
 24 95  1  0
 26 96  1  6
 27 97  1  0
 27 98  1  0
 28 99  1  1
 29100  1  0
 32101  1  6
 33102  1  0
 34103  1  0
 34104  1  0
 34105  1  0
 35106  1  0
 35107  1  0
 35108  1  0
 37109  1  0
 37110  1  0
 37111  1  0
 42112  1  0
 42113  1  0
 43114  1  0
 43115  1  0
 50116  1  0
 50117  1  0
 50118  1  0
 51119  1  0
 51120  1  0
 51121  1  0
 53122  1  0
 53123  1  0
 53124  1  0
 54125  1  0
 54126  1  0
 54127  1  0
 55128  1  0
 55129  1  0
 56130  1  0
 56131  1  0
 60132  1  0
 60133  1  0
 61134  1  0
 61135  1  0
 62136  1  0
 62137  1  0
 63138  1  1
 64139  1  0
 68140  1  0
 68141  1  0
 70142  1  0
 70143  1  0
 70144  1  0
 71145  1  0
 71146  1  0
 71147  1  0
 72148  1  0
 72149  1  0
 73150  1  0
 73151  1  0
M  END
$$$$
