
     RDKit          3D

 63 66  0  0  0  0  0  0  0  0999 V2000
   -3.3855    2.6697   -0.6410 C   0  0  0  0  0  0  0  0  0  0  0  0
   -3.8077    1.5902    0.3153 C   0  0  0  0  0  0  0  0  0  0  0  0
   -5.1312    1.5924    0.7695 C   0  0  0  0  0  0  0  0  0  0  0  0
   -5.6058    0.5503    1.5534 C   0  0  0  0  0  0  0  0  0  0  0  0
   -4.7798   -0.5291    1.8554 C   0  0  0  0  0  0  0  0  0  0  0  0
   -3.4356   -0.5655    1.4326 C   0  0  0  0  0  0  0  0  0  0  0  0
   -2.9253    0.5573    0.7175 C   0  0  0  0  0  0  0  0  0  0  0  0
   -1.5647    0.6505    0.4094 O   0  0  0  0  0  0  0  0  0  0  0  0
   -0.7207    1.6588    0.9736 C   0  0  0  0  0  0  0  0  0  0  0  0
    0.7350    1.4273    0.5636 C   0  0  0  0  0  0  0  0  0  0  0  0
    0.8494    1.3921   -0.9168 N   0  0  0  0  0  0  0  0  0  0  0  0
    1.1346    2.7236   -1.4942 C   0  0  0  0  0  0  0  0  0  0  0  0
    2.5974    3.1532   -1.2890 C   0  0  0  0  0  0  0  0  0  0  0  0
    3.5645    2.0819   -1.7897 C   0  0  0  0  0  0  0  0  0  0  0  0
    3.2526    0.7007   -1.1905 C   0  0  2  0  0  0  0  0  0  0  0  0
    4.1894   -0.2681   -1.7973 N   0  0  0  0  0  0  0  0  0  0  0  0
    5.4393   -0.7415   -0.6839 S   0  0  0  0  0  6  0  0  0  0  0  0
    4.7632   -1.7570    0.6157 C   0  0  0  0  0  0  0  0  0  0  0  0
    6.0848    0.4773   -0.0864 O   0  0  0  0  0  0  0  0  0  0  0  0
    6.4800   -1.5295   -1.4276 O   0  0  0  0  0  0  0  0  0  0  0  0
    1.7587    0.3481   -1.4706 C   0  0  0  0  0  0  0  0  0  0  0  0
    1.3617   -1.0789   -1.0024 C   0  0  0  0  0  0  0  0  0  0  0  0
   -0.0224   -1.1183   -0.7258 O   0  0  0  0  0  0  0  0  0  0  0  0
   -0.4613   -2.4033   -0.3239 C   0  0  1  0  0  0  0  0  0  0  0  0
   -0.2446   -2.6201    1.1951 C   0  0  0  0  0  0  0  0  0  0  0  0
   -1.2010   -1.7946    2.0738 C   0  0  0  0  0  0  0  0  0  0  0  0
   -2.6882   -1.8932    1.6341 C   0  0  2  0  0  0  0  0  0  0  0  0
   -2.9009   -2.8392    0.4310 C   0  0  0  0  0  0  0  0  0  0  0  0
   -1.9503   -2.5383   -0.7349 C   0  0  0  0  0  0  0  0  0  0  0  0
   -4.1862    2.8396   -1.3882 H   0  0  0  0  0  0  0  0  0  0  0  0
   -2.4757    2.3808   -1.2077 H   0  0  0  0  0  0  0  0  0  0  0  0
   -3.2033    3.6145   -0.0903 H   0  0  0  0  0  0  0  0  0  0  0  0
   -5.8054    2.3931    0.4929 H   0  0  0  0  0  0  0  0  0  0  0  0
   -6.6359    0.5520    1.8893 H   0  0  0  0  0  0  0  0  0  0  0  0
   -5.2076   -1.3596    2.4031 H   0  0  0  0  0  0  0  0  0  0  0  0
   -1.0394    2.6703    0.6582 H   0  0  0  0  0  0  0  0  0  0  0  0
   -0.7883    1.6181    2.0826 H   0  0  0  0  0  0  0  0  0  0  0  0
    1.3616    2.2222    1.0136 H   0  0  0  0  0  0  0  0  0  0  0  0
    1.0700    0.4824    1.0330 H   0  0  0  0  0  0  0  0  0  0  0  0
    0.9115    2.7015   -2.5840 H   0  0  0  0  0  0  0  0  0  0  0  0
    0.4636    3.4901   -1.0487 H   0  0  0  0  0  0  0  0  0  0  0  0
    2.7999    3.3682   -0.2192 H   0  0  0  0  0  0  0  0  0  0  0  0
    2.7806    4.0957   -1.8506 H   0  0  0  0  0  0  0  0  0  0  0  0
    4.6011    2.3805   -1.5210 H   0  0  0  0  0  0  0  0  0  0  0  0
    3.5027    2.0284   -2.9005 H   0  0  0  0  0  0  0  0  0  0  0  0
    3.3879    0.7628   -0.0883 H   0  0  0  0  0  0  0  0  0  0  0  0
    3.7177   -1.1402   -2.1204 H   0  0  0  0  0  0  0  0  0  0  0  0
    4.1545   -2.5751    0.1752 H   0  0  0  0  0  0  0  0  0  0  0  0
    5.5893   -2.1965    1.2121 H   0  0  0  0  0  0  0  0  0  0  0  0
    4.1228   -1.1391    1.2802 H   0  0  0  0  0  0  0  0  0  0  0  0
    1.6210    0.3421   -2.5771 H   0  0  0  0  0  0  0  0  0  0  0  0
    1.9488   -1.3426   -0.1004 H   0  0  0  0  0  0  0  0  0  0  0  0
    1.6036   -1.8054   -1.8109 H   0  0  0  0  0  0  0  0  0  0  0  0
    0.0966   -3.2082   -0.8596 H   0  0  0  0  0  0  0  0  0  0  0  0
    0.8018   -2.3933    1.4847 H   0  0  0  0  0  0  0  0  0  0  0  0
   -0.3971   -3.6981    1.4231 H   0  0  0  0  0  0  0  0  0  0  0  0
   -1.1088   -2.1861    3.1131 H   0  0  0  0  0  0  0  0  0  0  0  0
   -0.8419   -0.7561    2.1513 H   0  0  0  0  0  0  0  0  0  0  0  0
   -3.1917   -2.4108    2.4843 H   0  0  0  0  0  0  0  0  0  0  0  0
   -3.9540   -2.7819    0.0760 H   0  0  0  0  0  0  0  0  0  0  0  0
   -2.7359   -3.8896    0.7598 H   0  0  0  0  0  0  0  0  0  0  0  0
   -2.2961   -1.6080   -1.2373 H   0  0  0  0  0  0  0  0  0  0  0  0
   -2.0532   -3.3485   -1.4892 H   0  0  0  0  0  0  0  0  0  0  0  0
  1  2  1  0
  2  3  2  0
  3  4  1  0
  4  5  2  0
  5  6  1  0
  6  7  2  0
  7  8  1  0
  8  9  1  0
  9 10  1  0
 10 11  1  0
 11 12  1  0
 12 13  1  0
 13 14  1  0
 14 15  1  0
 15 16  1  0
 16 17  1  0
 17 18  1  0
 17 19  2  0
 17 20  2  0
 15 21  1  0
 21 22  1  0
 22 23  1  0
 23 24  1  0
 24 25  1  0
 25 26  1  0
 26 27  1  0
 27 28  1  0
 28 29  1  0
  7  2  1  0
 21 11  1  0
 29 24  1  0
 27  6  1  0
  1 30  1  0
  1 31  1  0
  1 32  1  0
  3 33  1  0
  4 34  1  0
  5 35  1  0
  9 36  1  0
  9 37  1  0
 10 38  1  0
 10 39  1  0
 12 40  1  0
 12 41  1  0
 13 42  1  0
 13 43  1  0
 14 44  1  0
 14 45  1  0
 15 46  1  1
 16 47  1  0
 18 48  1  0
 18 49  1  0
 18 50  1  0
 21 51  1  0
 22 52  1  0
 22 53  1  0
 24 54  1  6
 25 55  1  0
 25 56  1  0
 26 57  1  0
 26 58  1  0
 27 59  1  1
 28 60  1  0
 28 61  1  0
 29 62  1  0
 29 63  1  0
M  END
$$$$
