
     RDKit          3D

 75 79  0  0  0  0  0  0  0  0999 V2000
   -7.3083    2.7955   -0.7432 C   0  0  0  0  0  0  0  0  0  0  0  0
   -5.9486    2.2600   -0.9120 N   0  0  0  0  0  0  0  0  0  0  0  0
   -6.0086    0.8183   -1.2077 C   0  0  0  0  0  0  0  0  0  0  0  0
   -4.6017    0.2603   -1.4545 C   0  0  0  0  0  0  0  0  0  0  0  0
   -3.6693    0.4934   -0.2332 C   0  0  0  0  0  0  0  0  0  0  0  0
   -2.2562    0.0749   -0.4963 N   0  0  0  0  0  0  0  0  0  0  0  0
   -1.3543    0.2588    0.6736 C   0  0  0  0  0  0  0  0  0  0  0  0
   -0.3241    1.3389    0.4078 C   0  0  0  0  0  0  0  0  0  0  0  0
   -0.6432    2.3071   -0.3345 O   0  0  0  0  0  0  0  0  0  0  0  0
    0.9955    1.3119    1.0134 N   0  0  0  0  0  0  0  0  0  0  0  0
    2.1111    2.0226    0.3694 C   0  0  0  0  0  0  0  0  0  0  0  0
    2.9090    1.0438   -0.5183 C   0  0  0  0  0  0  0  0  0  0  0  0
    3.3067   -0.2674    0.2266 C   0  0  1  0  0  0  0  0  0  0  0  0
    4.5104   -0.0632    1.1820 C   0  0  0  0  0  0  0  0  0  0  0  0
    5.7602    0.2928    0.4286 C   0  0  0  0  0  0  0  0  0  0  0  0
    6.3749   -0.6016   -0.2138 O   0  0  0  0  0  0  0  0  0  0  0  0
    6.2299    1.6465    0.4092 N   0  0  0  0  0  0  0  0  0  0  0  0
    7.4082    2.0343   -0.3605 C   0  0  0  0  0  0  0  0  0  0  0  0
    7.1276    2.1904   -1.8459 C   0  0  0  0  0  0  0  0  0  0  0  0
    7.3143    3.4215   -0.9722 C   0  0  0  0  0  0  0  0  0  0  0  0
    2.0520   -0.8534    0.9331 C   0  0  1  0  0  0  0  0  0  0  0  0
    2.2821   -2.1608    1.6595 C   0  0  0  0  0  0  0  0  0  0  0  0
    1.9510   -3.3730    1.1709 C   0  0  0  0  0  0  0  0  0  0  0  0
    1.4137   -3.6327   -0.2189 C   0  0  0  0  0  0  0  0  0  0  0  0
    0.1763   -2.9579   -0.4623 O   0  0  0  0  0  0  0  0  0  0  0  0
   -1.0755   -3.2688    0.0949 C   0  0  0  0  0  0  0  0  0  0  0  0
   -1.2402   -4.3658    0.9617 C   0  0  0  0  0  0  0  0  0  0  0  0
   -2.4986   -4.6815    1.4731 C   0  0  0  0  0  0  0  0  0  0  0  0
   -3.6076   -3.9166    1.1206 C   0  0  0  0  0  0  0  0  0  0  0  0
   -3.4629   -2.8221    0.2674 C   0  0  0  0  0  0  0  0  0  0  0  0
   -2.1986   -2.4640   -0.2367 C   0  0  0  0  0  0  0  0  0  0  0  0
   -2.0506   -1.2492   -1.1577 C   0  0  0  0  0  0  0  0  0  0  0  0
    1.4165    0.1926    1.8596 C   0  0  0  0  0  0  0  0  0  0  0  0
   -3.7236    2.0063    0.1101 C   0  0  0  0  0  0  0  0  0  0  0  0
   -5.1622    2.4885    0.3122 C   0  0  0  0  0  0  0  0  0  0  0  0
   -7.8380    2.3001    0.1016 H   0  0  0  0  0  0  0  0  0  0  0  0
   -7.8949    2.6475   -1.6754 H   0  0  0  0  0  0  0  0  0  0  0  0
   -7.2668    3.8899   -0.5535 H   0  0  0  0  0  0  0  0  0  0  0  0
   -6.4912    0.2581   -0.3732 H   0  0  0  0  0  0  0  0  0  0  0  0
   -6.6105    0.6497   -2.1283 H   0  0  0  0  0  0  0  0  0  0  0  0
   -4.7322   -0.8176   -1.6683 H   0  0  0  0  0  0  0  0  0  0  0  0
   -4.1667    0.7434   -2.3567 H   0  0  0  0  0  0  0  0  0  0  0  0
   -4.0687   -0.0723    0.6370 H   0  0  0  0  0  0  0  0  0  0  0  0
   -1.9105    0.5030    1.6027 H   0  0  0  0  0  0  0  0  0  0  0  0
   -0.8372   -0.6835    0.9132 H   0  0  0  0  0  0  0  0  0  0  0  0
    1.7502    2.8761   -0.2439 H   0  0  0  0  0  0  0  0  0  0  0  0
    2.7805    2.4469    1.1489 H   0  0  0  0  0  0  0  0  0  0  0  0
    3.8022    1.5580   -0.9290 H   0  0  0  0  0  0  0  0  0  0  0  0
    2.2726    0.7734   -1.3892 H   0  0  0  0  0  0  0  0  0  0  0  0
    3.6192   -1.0055   -0.5474 H   0  0  0  0  0  0  0  0  0  0  0  0
    4.7132   -1.0007    1.7410 H   0  0  0  0  0  0  0  0  0  0  0  0
    4.2956    0.7252    1.9309 H   0  0  0  0  0  0  0  0  0  0  0  0
    5.7567    2.3627    1.0058 H   0  0  0  0  0  0  0  0  0  0  0  0
    8.4053    1.6394   -0.0711 H   0  0  0  0  0  0  0  0  0  0  0  0
    7.9945    1.9666   -2.5038 H   0  0  0  0  0  0  0  0  0  0  0  0
    6.0760    2.0106   -2.1580 H   0  0  0  0  0  0  0  0  0  0  0  0
    6.3744    3.9776   -0.7690 H   0  0  0  0  0  0  0  0  0  0  0  0
    8.2927    3.9280   -1.1081 H   0  0  0  0  0  0  0  0  0  0  0  0
    1.3202   -1.0216    0.1245 H   0  0  0  0  0  0  0  0  0  0  0  0
    2.7134   -2.1167    2.6553 H   0  0  0  0  0  0  0  0  0  0  0  0
    2.1313   -4.2395    1.8005 H   0  0  0  0  0  0  0  0  0  0  0  0
    2.1614   -3.2732   -0.9570 H   0  0  0  0  0  0  0  0  0  0  0  0
    1.2894   -4.7242   -0.3852 H   0  0  0  0  0  0  0  0  0  0  0  0
   -0.4015   -4.9873    1.2426 H   0  0  0  0  0  0  0  0  0  0  0  0
   -2.6158   -5.5295    2.1349 H   0  0  0  0  0  0  0  0  0  0  0  0
   -4.5862   -4.1770    1.5032 H   0  0  0  0  0  0  0  0  0  0  0  0
   -4.3485   -2.2704   -0.0020 H   0  0  0  0  0  0  0  0  0  0  0  0
   -1.0355   -1.2343   -1.6063 H   0  0  0  0  0  0  0  0  0  0  0  0
   -2.6952   -1.3756   -2.0463 H   0  0  0  0  0  0  0  0  0  0  0  0
    2.1454    0.5467    2.6182 H   0  0  0  0  0  0  0  0  0  0  0  0
    0.5738   -0.2202    2.4506 H   0  0  0  0  0  0  0  0  0  0  0  0
   -3.2628    2.5915   -0.7154 H   0  0  0  0  0  0  0  0  0  0  0  0
   -3.1652    2.2323    1.0409 H   0  0  0  0  0  0  0  0  0  0  0  0
   -5.1300    3.5766    0.5418 H   0  0  0  0  0  0  0  0  0  0  0  0
   -5.6161    1.9651    1.1851 H   0  0  0  0  0  0  0  0  0  0  0  0
  1  2  1  0
  2  3  1  0
  3  4  1  0
  4  5  1  0
  5  6  1  0
  6  7  1  0
  7  8  1  0
  8  9  2  0
  8 10  1  0
 10 11  1  0
 11 12  1  0
 12 13  1  0
 13 14  1  0
 14 15  1  0
 15 16  2  0
 15 17  1  0
 17 18  1  0
 18 19  1  0
 19 20  1  0
 13 21  1  0
 21 22  1  0
 22 23  2  0
 23 24  1  0
 24 25  1  0
 25 26  1  0
 26 27  2  0
 27 28  1  0
 28 29  2  0
 29 30  1  0
 30 31  2  0
 31 32  1  0
 21 33  1  0
  5 34  1  0
 34 35  1  0
 35  2  1  0
 32  6  1  0
 33 10  1  0
 20 18  1  0
 31 26  1  0
  1 36  1  0
  1 37  1  0
  1 38  1  0
  3 39  1  0
  3 40  1  0
  4 41  1  0
  4 42  1  0
  5 43  1  0
  7 44  1  0
  7 45  1  0
 11 46  1  0
 11 47  1  0
 12 48  1  0
 12 49  1  0
 13 50  1  6
 14 51  1  0
 14 52  1  0
 17 53  1  0
 18 54  1  0
 19 55  1  0
 19 56  1  0
 20 57  1  0
 20 58  1  0
 21 59  1  6
 22 60  1  0
 23 61  1  0
 24 62  1  0
 24 63  1  0
 27 64  1  0
 28 65  1  0
 29 66  1  0
 30 67  1  0
 32 68  1  0
 32 69  1  0
 33 70  1  0
 33 71  1  0
 34 72  1  0
 34 73  1  0
 35 74  1  0
 35 75  1  0
M  END
$$$$
