
     RDKit          3D

 93 95  0  0  0  0  0  0  0  0999 V2000
   -8.8187    0.5593    3.8774 C   0  0  0  0  0  0  0  0  0  0  0  0
   -8.0443    0.3124    2.6163 C   0  0  0  0  0  0  0  0  0  0  0  0
   -7.3300    1.3606    2.0170 C   0  0  0  0  0  0  0  0  0  0  0  0
   -6.6352    1.1481    0.8232 C   0  0  0  0  0  0  0  0  0  0  0  0
   -6.6477   -0.1144    0.2137 C   0  0  0  0  0  0  0  0  0  0  0  0
   -5.7744   -0.3810   -1.2976 S   0  0  0  0  0  6  0  0  0  0  0  0
   -5.8429    0.8671   -2.1327 O   0  0  0  0  0  0  0  0  0  0  0  0
   -6.4354   -1.4905   -2.0679 O   0  0  0  0  0  0  0  0  0  0  0  0
   -4.1025   -0.7955   -1.0002 N   0  0  0  0  0  0  0  0  0  0  0  0
   -4.0448   -2.0845   -0.2935 C   0  0  0  0  0  0  0  0  0  0  0  0
   -3.4400    0.2715   -0.2213 C   0  0  0  0  0  0  0  0  0  0  0  0
   -1.9101    0.3145   -0.5147 C   0  0  1  0  0  0  0  0  0  0  0  0
   -1.5996    1.1320   -1.6398 O   0  0  0  0  0  0  0  0  0  0  0  0
   -2.1619    0.6194   -2.8381 C   0  0  0  0  0  0  0  0  0  0  0  0
   -1.4605    1.2348   -4.0626 C   0  0  0  0  0  0  0  0  0  0  0  0
   -0.3400    0.3457   -4.6368 C   0  0  0  0  0  0  0  0  0  0  0  0
    0.8506    0.1765   -3.6814 C   0  0  0  0  0  0  0  0  0  0  0  0
    1.7506    1.4325   -3.6080 C   0  0  2  0  0  0  0  0  0  0  0  0
    3.0691    1.2354   -4.3729 C   0  0  0  0  0  0  0  0  0  0  0  0
    1.9533    1.8155   -2.2419 O   0  0  0  0  0  0  0  0  0  0  0  0
    3.0761    1.5053   -1.4640 C   0  0  0  0  0  0  0  0  0  0  0  0
    4.1459    2.4077   -1.4415 C   0  0  0  0  0  0  0  0  0  0  0  0
    5.2553    2.1717   -0.6285 C   0  0  0  0  0  0  0  0  0  0  0  0
    5.3073    1.0347    0.1866 C   0  0  0  0  0  0  0  0  0  0  0  0
    6.4656    0.8071    1.0071 N   0  0  0  0  0  0  0  0  0  0  0  0
    6.4264    0.1665    2.2927 C   0  0  0  0  0  0  0  0  0  0  0  0
    5.3251   -0.0271    2.8786 O   0  0  0  0  0  0  0  0  0  0  0  0
    7.7020   -0.2376    2.9753 C   0  0  0  0  0  0  0  0  0  0  0  0
    7.7309   -1.7516    3.2305 C   0  0  0  0  0  0  0  0  0  0  0  0
    9.0549   -2.2014    3.8539 C   0  0  0  0  0  0  0  0  0  0  0  0
   10.1028   -1.9544    2.9814 F   0  0  0  0  0  0  0  0  0  0  0  0
    9.2815   -1.5276    5.0431 F   0  0  0  0  0  0  0  0  0  0  0  0
    9.0014   -3.5597    4.1143 F   0  0  0  0  0  0  0  0  0  0  0  0
    4.2486    0.1123    0.1441 C   0  0  0  0  0  0  0  0  0  0  0  0
    3.1229    0.3484   -0.6585 C   0  0  0  0  0  0  0  0  0  0  0  0
    2.0536   -0.6666   -0.6842 C   0  0  0  0  0  0  0  0  0  0  0  0
    2.1860   -1.6407   -1.4721 O   0  0  0  0  0  0  0  0  0  0  0  0
    0.9150   -0.6004    0.2116 N   0  0  0  0  0  0  0  0  0  0  0  0
    0.6145   -1.7626    1.0872 C   0  0  2  0  0  0  0  0  0  0  0  0
    1.6852   -1.9037    2.1763 C   0  0  0  0  0  0  0  0  0  0  0  0
    0.4562   -3.0886    0.3155 C   0  0  0  0  0  0  0  0  0  0  0  0
   -0.3749   -2.9140   -0.7967 O   0  0  0  0  0  0  0  0  0  0  0  0
    0.4035    0.7391    0.5840 C   0  0  0  0  0  0  0  0  0  0  0  0
   -1.1378    0.8378    0.7323 C   0  0  1  0  0  0  0  0  0  0  0  0
   -1.5150    2.2966    1.0574 C   0  0  0  0  0  0  0  0  0  0  0  0
   -7.3655   -1.1624    0.8092 C   0  0  0  0  0  0  0  0  0  0  0  0
   -8.0652   -0.9485    2.0000 C   0  0  0  0  0  0  0  0  0  0  0  0
   -9.1293   -0.3947    4.3541 H   0  0  0  0  0  0  0  0  0  0  0  0
   -8.1942    1.1207    4.6038 H   0  0  0  0  0  0  0  0  0  0  0  0
   -9.7283    1.1517    3.6444 H   0  0  0  0  0  0  0  0  0  0  0  0
   -7.3156    2.3438    2.4717 H   0  0  0  0  0  0  0  0  0  0  0  0
   -6.0908    1.9682    0.3754 H   0  0  0  0  0  0  0  0  0  0  0  0
   -4.4767   -2.8854   -0.9284 H   0  0  0  0  0  0  0  0  0  0  0  0
   -2.9954   -2.3707   -0.0820 H   0  0  0  0  0  0  0  0  0  0  0  0
   -4.5981   -2.0464    0.6695 H   0  0  0  0  0  0  0  0  0  0  0  0
   -3.6410    0.1339    0.8661 H   0  0  0  0  0  0  0  0  0  0  0  0
   -3.8550    1.2692   -0.4840 H   0  0  0  0  0  0  0  0  0  0  0  0
   -1.5482   -0.7155   -0.6967 H   0  0  0  0  0  0  0  0  0  0  0  0
   -3.2306    0.9212   -2.8864 H   0  0  0  0  0  0  0  0  0  0  0  0
   -2.1143   -0.4941   -2.8959 H   0  0  0  0  0  0  0  0  0  0  0  0
   -1.0757    2.2493   -3.8188 H   0  0  0  0  0  0  0  0  0  0  0  0
   -2.2166    1.3684   -4.8669 H   0  0  0  0  0  0  0  0  0  0  0  0
   -0.7597   -0.6572   -4.8716 H   0  0  0  0  0  0  0  0  0  0  0  0
    0.0147    0.7765   -5.5994 H   0  0  0  0  0  0  0  0  0  0  0  0
    0.4568   -0.0742   -2.6793 H   0  0  0  0  0  0  0  0  0  0  0  0
    1.4426   -0.7078   -4.0078 H   0  0  0  0  0  0  0  0  0  0  0  0
    1.2346    2.2884   -4.0948 H   0  0  0  0  0  0  0  0  0  0  0  0
    3.6614    0.4042   -3.9326 H   0  0  0  0  0  0  0  0  0  0  0  0
    2.8547    0.9987   -5.4368 H   0  0  0  0  0  0  0  0  0  0  0  0
    3.6702    2.1678   -4.3396 H   0  0  0  0  0  0  0  0  0  0  0  0
    4.1118    3.3023   -2.0525 H   0  0  0  0  0  0  0  0  0  0  0  0
    6.0713    2.8843   -0.6255 H   0  0  0  0  0  0  0  0  0  0  0  0
    7.3714    1.2270    0.6962 H   0  0  0  0  0  0  0  0  0  0  0  0
    7.7787    0.3117    3.9383 H   0  0  0  0  0  0  0  0  0  0  0  0
    8.5719    0.0484    2.3458 H   0  0  0  0  0  0  0  0  0  0  0  0
    7.5835   -2.2947    2.2697 H   0  0  0  0  0  0  0  0  0  0  0  0
    6.9002   -2.0270    3.9180 H   0  0  0  0  0  0  0  0  0  0  0  0
    4.3115   -0.8044    0.7126 H   0  0  0  0  0  0  0  0  0  0  0  0
   -0.3483   -1.6057    1.6103 H   0  0  0  0  0  0  0  0  0  0  0  0
    1.7885   -0.9533    2.7393 H   0  0  0  0  0  0  0  0  0  0  0  0
    1.3982   -2.7019    2.8939 H   0  0  0  0  0  0  0  0  0  0  0  0
    2.6669   -2.1684    1.7337 H   0  0  0  0  0  0  0  0  0  0  0  0
    0.0073   -3.8478    0.9957 H   0  0  0  0  0  0  0  0  0  0  0  0
    1.4442   -3.4813   -0.0094 H   0  0  0  0  0  0  0  0  0  0  0  0
   -0.4639   -3.8070   -1.2201 H   0  0  0  0  0  0  0  0  0  0  0  0
    0.8875    1.0500    1.5364 H   0  0  0  0  0  0  0  0  0  0  0  0
    0.6950    1.4857   -0.1774 H   0  0  0  0  0  0  0  0  0  0  0  0
   -1.4407    0.2420    1.6183 H   0  0  0  0  0  0  0  0  0  0  0  0
   -2.5970    2.3886    1.2850 H   0  0  0  0  0  0  0  0  0  0  0  0
   -0.9616    2.6449    1.9547 H   0  0  0  0  0  0  0  0  0  0  0  0
   -1.2714    2.9711    0.2087 H   0  0  0  0  0  0  0  0  0  0  0  0
   -7.3863   -2.1422    0.3506 H   0  0  0  0  0  0  0  0  0  0  0  0
   -8.6218   -1.7673    2.4400 H   0  0  0  0  0  0  0  0  0  0  0  0
  1  2  1  0
  2  3  2  0
  3  4  1  0
  4  5  2  0
  5  6  1  0
  6  7  2  0
  6  8  2  0
  6  9  1  0
  9 10  1  0
  9 11  1  0
 11 12  1  0
 12 13  1  0
 13 14  1  0
 14 15  1  0
 15 16  1  0
 16 17  1  0
 17 18  1  0
 18 19  1  0
 18 20  1  0
 20 21  1  0
 21 22  2  0
 22 23  1  0
 23 24  2  0
 24 25  1  0
 25 26  1  0
 26 27  2  0
 26 28  1  0
 28 29  1  0
 29 30  1  0
 30 31  1  0
 30 32  1  0
 30 33  1  0
 24 34  1  0
 34 35  2  0
 35 36  1  0
 36 37  2  0
 36 38  1  0
 38 39  1  0
 39 40  1  0
 39 41  1  0
 41 42  1  0
 38 43  1  0
 43 44  1  0
 44 45  1  0
  5 46  1  0
 46 47  2  0
 47  2  1  0
 44 12  1  0
 35 21  1  0
  1 48  1  0
  1 49  1  0
  1 50  1  0
  3 51  1  0
  4 52  1  0
 10 53  1  0
 10 54  1  0
 10 55  1  0
 11 56  1  0
 11 57  1  0
 12 58  1  6
 14 59  1  0
 14 60  1  0
 15 61  1  0
 15 62  1  0
 16 63  1  0
 16 64  1  0
 17 65  1  0
 17 66  1  0
 18 67  1  6
 19 68  1  0
 19 69  1  0
 19 70  1  0
 22 71  1  0
 23 72  1  0
 25 73  1  0
 28 74  1  0
 28 75  1  0
 29 76  1  0
 29 77  1  0
 34 78  1  0
 39 79  1  1
 40 80  1  0
 40 81  1  0
 40 82  1  0
 41 83  1  0
 41 84  1  0
 42 85  1  0
 43 86  1  0
 43 87  1  0
 44 88  1  1
 45 89  1  0
 45 90  1  0
 45 91  1  0
 46 92  1  0
 47 93  1  0
M  END
$$$$
