
     RDKit          3D

 94 98  0  0  0  0  0  0  0  0999 V2000
    6.7488    5.0686   -1.4974 C   0  0  0  0  0  0  0  0  0  0  0  0
    5.9097    3.8450   -1.3239 C   0  0  0  0  0  0  0  0  0  0  0  0
    5.0596    3.5399   -2.2041 O   0  0  0  0  0  0  0  0  0  0  0  0
    6.0819    3.0262   -0.1610 N   0  0  0  0  0  0  0  0  0  0  0  0
    5.5075    1.6794   -0.0526 C   0  0  1  0  0  0  0  0  0  0  0  0
    6.3876    0.6631   -0.8321 C   0  0  0  0  0  0  0  0  0  0  0  0
    5.6819    0.1413   -2.0553 C   0  0  0  0  0  0  0  0  0  0  0  0
    5.9181    0.6733   -3.1740 O   0  0  0  0  0  0  0  0  0  0  0  0
    4.7078   -0.9100   -1.9682 N   0  0  0  0  0  0  0  0  0  0  0  0
    4.4112   -1.6067   -0.7166 C   0  0  0  0  0  0  0  0  0  0  0  0
    3.2046   -2.5232   -0.8743 C   0  0  0  0  0  0  0  0  0  0  0  0
    2.8323   -3.3043    0.7292 S   0  0  0  0  0  0  0  0  0  0  0  0
    1.1978   -3.8480    0.2371 C   0  0  0  0  0  0  0  0  0  0  0  0
    0.0854   -3.1132    0.2204 C   0  0  0  0  0  0  0  0  0  0  0  0
   -0.0490   -1.7618    0.5827 O   0  0  0  0  0  0  0  0  0  0  0  0
    0.6890   -1.0934    1.6047 C   0  0  0  0  0  0  0  0  0  0  0  0
    0.1213    0.3177    1.8232 C   0  0  2  0  0  0  0  0  0  0  0  0
    0.8696    0.9920    2.8864 N   0  0  0  0  0  0  0  0  0  0  0  0
    1.8617    2.0003    2.6483 C   0  0  0  0  0  0  0  0  0  0  0  0
    1.9494    2.9745    3.4456 O   0  0  0  0  0  0  0  0  0  0  0  0
    2.8911    1.8572    1.5597 C   0  0  0  0  0  0  0  0  0  0  0  0
    4.1341    1.3098    2.1122 N   0  0  0  0  0  0  0  0  0  0  0  0
    5.3887    1.2992    1.4111 C   0  0  0  0  0  0  0  0  0  0  0  0
    6.4352    0.9978    2.0497 O   0  0  0  0  0  0  0  0  0  0  0  0
   -1.3460    0.3179    2.1803 C   0  0  0  0  0  0  0  0  0  0  0  0
   -1.9339   -0.7470    2.5119 O   0  0  0  0  0  0  0  0  0  0  0  0
   -2.0401    1.5641    2.2927 N   0  0  0  0  0  0  0  0  0  0  0  0
   -2.9353    2.0955    1.2599 C   0  0  1  0  0  0  0  0  0  0  0  0
   -2.2642    2.0640   -0.1339 C   0  0  0  0  0  0  0  0  0  0  0  0
   -3.0681    2.7873   -1.1918 C   0  0  0  0  0  0  0  0  0  0  0  0
   -3.3234    4.1669   -1.0718 C   0  0  0  0  0  0  0  0  0  0  0  0
   -4.0678    4.8354   -2.0500 C   0  0  0  0  0  0  0  0  0  0  0  0
   -4.5485    4.1387   -3.1628 C   0  0  0  0  0  0  0  0  0  0  0  0
   -4.2751    2.7751   -3.3048 C   0  0  0  0  0  0  0  0  0  0  0  0
   -3.5325    2.1036   -2.3287 C   0  0  0  0  0  0  0  0  0  0  0  0
   -4.2791    1.4039    1.3363 C   0  0  0  0  0  0  0  0  0  0  0  0
   -5.1431    1.8512    2.1365 O   0  0  0  0  0  0  0  0  0  0  0  0
   -4.5869    0.2478    0.5396 N   0  0  0  0  0  0  0  0  0  0  0  0
   -4.9069   -1.0757    1.0914 C   0  0  1  0  0  0  0  0  0  0  0  0
   -5.5186   -1.0176    2.5028 C   0  0  0  0  0  0  0  0  0  0  0  0
   -5.8342   -1.7997    0.1386 C   0  0  0  0  0  0  0  0  0  0  0  0
   -7.0733   -1.5601    0.2034 O   0  0  0  0  0  0  0  0  0  0  0  0
   -5.3720   -2.7046   -0.8866 N   0  0  0  0  0  0  0  0  0  0  0  0
   -4.0310   -3.2897   -1.0327 C   0  0  1  0  0  0  0  0  0  0  0  0
   -3.0147   -2.2576   -1.5241 C   0  0  0  0  0  0  0  0  0  0  0  0
   -1.4729   -3.1107   -1.9816 S   0  0  0  0  0  0  0  0  0  0  0  0
   -1.0732   -3.8626   -0.3365 C   0  0  2  0  0  0  0  0  0  0  0  0
   -2.1873   -3.8342    0.6268 N   0  0  0  0  0  0  0  0  0  0  0  0
   -3.5606   -3.9357    0.2338 C   0  0  0  0  0  0  0  0  0  0  0  0
   -4.3744   -4.5552    0.9695 O   0  0  0  0  0  0  0  0  0  0  0  0
   -0.5336   -5.3104   -0.4961 C   0  0  0  0  0  0  0  0  0  0  0  0
   -1.0400   -6.1396    0.4953 F   0  0  0  0  0  0  0  0  0  0  0  0
   -0.8671   -5.8630   -1.7264 F   0  0  0  0  0  0  0  0  0  0  0  0
    0.9874   -5.2014   -0.3362 C   0  0  0  0  0  0  0  0  0  0  0  0
    1.4882   -6.1743    0.5185 F   0  0  0  0  0  0  0  0  0  0  0  0
    1.6184   -5.2881   -1.5665 F   0  0  0  0  0  0  0  0  0  0  0  0
    6.5254    5.5619   -2.4658 H   0  0  0  0  0  0  0  0  0  0  0  0
    7.8196    4.7825   -1.4771 H   0  0  0  0  0  0  0  0  0  0  0  0
    6.5435    5.7775   -0.6732 H   0  0  0  0  0  0  0  0  0  0  0  0
    6.7801    3.3360    0.5551 H   0  0  0  0  0  0  0  0  0  0  0  0
    4.4871    1.6937   -0.4897 H   0  0  0  0  0  0  0  0  0  0  0  0
    6.6750   -0.2000   -0.1989 H   0  0  0  0  0  0  0  0  0  0  0  0
    7.3489    1.1346   -1.1392 H   0  0  0  0  0  0  0  0  0  0  0  0
    4.2017   -1.1817   -2.8430 H   0  0  0  0  0  0  0  0  0  0  0  0
    4.1832   -0.8647    0.0776 H   0  0  0  0  0  0  0  0  0  0  0  0
    5.2937   -2.2080   -0.4069 H   0  0  0  0  0  0  0  0  0  0  0  0
    2.3372   -1.9144   -1.2119 H   0  0  0  0  0  0  0  0  0  0  0  0
    3.4201   -3.3091   -1.6292 H   0  0  0  0  0  0  0  0  0  0  0  0
    0.6388   -1.6797    2.5497 H   0  0  0  0  0  0  0  0  0  0  0  0
    1.7418   -0.9769    1.2955 H   0  0  0  0  0  0  0  0  0  0  0  0
    0.2302    0.8827    0.8725 H   0  0  0  0  0  0  0  0  0  0  0  0
    0.5807    0.8258    3.8795 H   0  0  0  0  0  0  0  0  0  0  0  0
    3.0890    2.8618    1.1344 H   0  0  0  0  0  0  0  0  0  0  0  0
    2.5305    1.2008    0.7429 H   0  0  0  0  0  0  0  0  0  0  0  0
    4.1349    0.9506    3.0957 H   0  0  0  0  0  0  0  0  0  0  0  0
   -2.1308    1.9630    3.2588 H   0  0  0  0  0  0  0  0  0  0  0  0
   -3.1111    3.1637    1.5134 H   0  0  0  0  0  0  0  0  0  0  0  0
   -2.0668    1.0130   -0.4363 H   0  0  0  0  0  0  0  0  0  0  0  0
   -1.2743    2.5634   -0.0609 H   0  0  0  0  0  0  0  0  0  0  0  0
   -2.9392    4.7266   -0.2279 H   0  0  0  0  0  0  0  0  0  0  0  0
   -4.2673    5.8954   -1.9457 H   0  0  0  0  0  0  0  0  0  0  0  0
   -5.1256    4.6563   -3.9179 H   0  0  0  0  0  0  0  0  0  0  0  0
   -4.6401    2.2393   -4.1693 H   0  0  0  0  0  0  0  0  0  0  0  0
   -3.3169    1.0517   -2.4676 H   0  0  0  0  0  0  0  0  0  0  0  0
   -4.2838    0.2615   -0.4585 H   0  0  0  0  0  0  0  0  0  0  0  0
   -3.9629   -1.6308    1.1960 H   0  0  0  0  0  0  0  0  0  0  0  0
   -4.7896   -0.5822    3.2207 H   0  0  0  0  0  0  0  0  0  0  0  0
   -5.7681   -2.0446    2.8548 H   0  0  0  0  0  0  0  0  0  0  0  0
   -6.4473   -0.4079    2.5095 H   0  0  0  0  0  0  0  0  0  0  0  0
   -6.0988   -3.0565   -1.5492 H   0  0  0  0  0  0  0  0  0  0  0  0
   -4.0920   -4.0929   -1.8022 H   0  0  0  0  0  0  0  0  0  0  0  0
   -2.7806   -1.4964   -0.7548 H   0  0  0  0  0  0  0  0  0  0  0  0
   -3.4124   -1.7414   -2.4253 H   0  0  0  0  0  0  0  0  0  0  0  0
   -1.9692   -4.0037    1.6369 H   0  0  0  0  0  0  0  0  0  0  0  0
  1  2  1  0
  2  3  2  0
  2  4  1  0
  4  5  1  0
  5  6  1  0
  6  7  1  0
  7  8  2  0
  7  9  1  0
  9 10  1  0
 10 11  1  0
 11 12  1  0
 12 13  1  0
 13 14  2  0
 14 15  1  0
 15 16  1  0
 16 17  1  0
 17 18  1  0
 18 19  1  0
 19 20  2  0
 19 21  1  0
 21 22  1  0
 22 23  1  0
 23 24  2  0
 17 25  1  0
 25 26  2  0
 25 27  1  0
 27 28  1  0
 28 29  1  0
 29 30  1  0
 30 31  2  0
 31 32  1  0
 32 33  2  0
 33 34  1  0
 34 35  2  0
 28 36  1  0
 36 37  2  0
 36 38  1  0
 38 39  1  0
 39 40  1  0
 39 41  1  0
 41 42  2  0
 41 43  1  0
 43 44  1  0
 44 45  1  0
 45 46  1  0
 46 47  1  0
 47 48  1  0
 48 49  1  0
 49 50  2  0
 47 51  1  6
 51 52  1  0
 51 53  1  0
 51 54  1  0
 54 55  1  0
 54 56  1  0
 23  5  1  0
 35 30  1  0
 49 44  1  0
 54 13  1  0
 47 14  1  0
  1 57  1  0
  1 58  1  0
  1 59  1  0
  4 60  1  0
  5 61  1  6
  6 62  1  0
  6 63  1  0
  9 64  1  0
 10 65  1  0
 10 66  1  0
 11 67  1  0
 11 68  1  0
 16 69  1  0
 16 70  1  0
 17 71  1  6
 18 72  1  0
 21 73  1  0
 21 74  1  0
 22 75  1  0
 27 76  1  0
 28 77  1  1
 29 78  1  0
 29 79  1  0
 31 80  1  0
 32 81  1  0
 33 82  1  0
 34 83  1  0
 35 84  1  0
 38 85  1  0
 39 86  1  1
 40 87  1  0
 40 88  1  0
 40 89  1  0
 43 90  1  0
 44 91  1  6
 45 92  1  0
 45 93  1  0
 48 94  1  0
M  END
$$$$
