
     RDKit          3D

 91 97  0  0  0  0  0  0  0  0999 V2000
   -6.0925    6.1618   -1.6461 C   0  0  0  0  0  0  0  0  0  0  0  0
   -4.9394    5.8137   -0.8876 O   0  0  0  0  0  0  0  0  0  0  0  0
   -4.6565    4.5205   -0.4322 C   0  0  0  0  0  0  0  0  0  0  0  0
   -3.4272    4.2981    0.1970 C   0  0  0  0  0  0  0  0  0  0  0  0
   -3.0790    3.0235    0.6537 C   0  0  0  0  0  0  0  0  0  0  0  0
   -3.9689    1.9469    0.4902 C   0  0  0  0  0  0  0  0  0  0  0  0
   -3.6572    0.6451    0.9261 C   0  0  0  0  0  0  0  0  0  0  0  0
   -2.4127    0.3427    1.4824 O   0  0  0  0  0  0  0  0  0  0  0  0
   -1.2482    0.1706    0.6733 C   0  0  2  0  0  0  0  0  0  0  0  0
   -1.3683   -1.0593   -0.2180 C   0  0  0  0  0  0  0  0  0  0  0  0
    0.0417   -1.6125   -0.3466 C   0  0  1  0  0  0  0  0  0  0  0  0
    0.7645   -0.9861   -1.5234 C   0  0  0  0  0  0  0  0  0  0  0  0
    0.7637   -1.5863   -2.6329 O   0  0  0  0  0  0  0  0  0  0  0  0
    1.4270    0.2858   -1.4136 N   0  0  0  0  0  0  0  0  0  0  0  0
    2.8815    0.4461   -1.2596 C   0  0  2  0  0  0  0  0  0  0  0  0
    3.3363    1.6034   -0.4009 C   0  0  0  0  0  0  0  0  0  0  0  0
    2.9924    1.6201    0.8155 O   0  0  0  0  0  0  0  0  0  0  0  0
    4.1260    2.6766   -0.9416 N   0  0  0  0  0  0  0  0  0  0  0  0
    4.7726    3.9504    0.0425 S   0  0  0  0  0  6  0  0  0  0  0  0
    4.8385    3.5183    1.4828 O   0  0  0  0  0  0  0  0  0  0  0  0
    3.8845    5.1544   -0.0775 O   0  0  0  0  0  0  0  0  0  0  0  0
    6.4084    4.3593   -0.5657 C   0  0  0  0  0  0  0  0  0  0  0  0
    7.3802    4.8919    0.4792 C   0  0  0  0  0  0  0  0  0  0  0  0
    7.5171    3.4621   -0.0316 C   0  0  0  0  0  0  0  0  0  0  0  0
    3.6998    0.0767   -2.4956 C   0  0  0  0  0  0  0  0  0  0  0  0
    3.7196   -0.8467   -1.2698 C   0  0  1  0  0  0  0  0  0  0  0  0
    5.0514   -0.8367   -0.5418 C   0  0  0  0  0  0  0  0  0  0  0  0
    5.7264   -1.9370   -0.1581 C   0  0  0  0  0  0  0  0  0  0  0  0
    5.2907   -3.3704   -0.3804 C   0  0  0  0  0  0  0  0  0  0  0  0
    4.8945   -4.0627    0.9334 C   0  0  0  0  0  0  0  0  0  0  0  0
    3.5773   -3.5455    1.5404 C   0  0  0  0  0  0  0  0  0  0  0  0
    2.3398   -3.9729    0.7378 C   0  0  0  0  0  0  0  0  0  0  0  0
    1.1159   -3.8025    1.5345 N   0  0  0  0  0  0  0  0  0  0  0  0
    0.4634   -4.9876    2.0925 C   0  0  0  0  0  0  0  0  0  0  0  0
    0.6611   -2.4962    1.9466 C   0  0  0  0  0  0  0  0  0  0  0  0
    0.2342   -2.3532    3.1306 O   0  0  0  0  0  0  0  0  0  0  0  0
    0.7225   -1.3000    1.0062 C   0  0  2  0  0  0  0  0  0  0  0  0
   -0.0063   -0.0459    1.5461 C   0  0  0  0  0  0  0  0  0  0  0  0
   -4.6031   -0.3767    0.8003 C   0  0  0  0  0  0  0  0  0  0  0  0
   -5.8395   -0.1145    0.1818 C   0  0  0  0  0  0  0  0  0  0  0  0
   -6.8645   -1.1758    0.0032 C   0  0  0  0  0  0  0  0  0  0  0  0
   -8.2281   -0.8300   -0.0697 C   0  0  0  0  0  0  0  0  0  0  0  0
   -9.2043   -1.8146   -0.2457 C   0  0  0  0  0  0  0  0  0  0  0  0
   -8.8337   -3.1574   -0.3641 C   0  0  0  0  0  0  0  0  0  0  0  0
   -7.4855   -3.5151   -0.3083 C   0  0  0  0  0  0  0  0  0  0  0  0
   -6.5022   -2.5336   -0.1247 C   0  0  0  0  0  0  0  0  0  0  0  0
   -6.1065    1.1491   -0.2543 N   0  0  0  0  0  0  0  0  0  0  0  0
   -5.2245    2.1753   -0.1174 C   0  0  0  0  0  0  0  0  0  0  0  0
   -5.5585    3.4500   -0.5863 C   0  0  0  0  0  0  0  0  0  0  0  0
   -6.0438    7.2416   -1.8939 H   0  0  0  0  0  0  0  0  0  0  0  0
   -7.0065    5.9784   -1.0522 H   0  0  0  0  0  0  0  0  0  0  0  0
   -6.1207    5.5741   -2.5854 H   0  0  0  0  0  0  0  0  0  0  0  0
   -2.7306    5.1164    0.3261 H   0  0  0  0  0  0  0  0  0  0  0  0
   -2.1230    2.8930    1.1466 H   0  0  0  0  0  0  0  0  0  0  0  0
   -1.0897    1.0651    0.0359 H   0  0  0  0  0  0  0  0  0  0  0  0
   -1.9985   -1.8259    0.2815 H   0  0  0  0  0  0  0  0  0  0  0  0
   -1.8311   -0.8082   -1.1993 H   0  0  0  0  0  0  0  0  0  0  0  0
   -0.0237   -2.7093   -0.5276 H   0  0  0  0  0  0  0  0  0  0  0  0
    0.8341    1.1517   -1.4429 H   0  0  0  0  0  0  0  0  0  0  0  0
    4.3007    2.7298   -1.9703 H   0  0  0  0  0  0  0  0  0  0  0  0
    6.5430    4.7216   -1.6046 H   0  0  0  0  0  0  0  0  0  0  0  0
    6.9926    4.9735    1.5172 H   0  0  0  0  0  0  0  0  0  0  0  0
    8.1550    5.5815    0.0853 H   0  0  0  0  0  0  0  0  0  0  0  0
    8.3711    3.3191   -0.7265 H   0  0  0  0  0  0  0  0  0  0  0  0
    7.2217    2.6891    0.7068 H   0  0  0  0  0  0  0  0  0  0  0  0
    3.1086   -0.3298   -3.3469 H   0  0  0  0  0  0  0  0  0  0  0  0
    4.6531    0.6199   -2.6691 H   0  0  0  0  0  0  0  0  0  0  0  0
    3.2061   -1.8011   -1.4823 H   0  0  0  0  0  0  0  0  0  0  0  0
    5.5027    0.1216   -0.2915 H   0  0  0  0  0  0  0  0  0  0  0  0
    6.6550   -1.7917    0.3887 H   0  0  0  0  0  0  0  0  0  0  0  0
    4.4943   -3.4815   -1.1371 H   0  0  0  0  0  0  0  0  0  0  0  0
    6.1658   -3.9106   -0.7934 H   0  0  0  0  0  0  0  0  0  0  0  0
    4.8124   -5.1575    0.7525 H   0  0  0  0  0  0  0  0  0  0  0  0
    5.7074   -3.9255    1.6788 H   0  0  0  0  0  0  0  0  0  0  0  0
    3.4902   -3.9594    2.5687 H   0  0  0  0  0  0  0  0  0  0  0  0
    3.6134   -2.4382    1.6329 H   0  0  0  0  0  0  0  0  0  0  0  0
    2.4457   -5.0368    0.4394 H   0  0  0  0  0  0  0  0  0  0  0  0
    2.2672   -3.3891   -0.1970 H   0  0  0  0  0  0  0  0  0  0  0  0
    0.4708   -5.8180    1.3555 H   0  0  0  0  0  0  0  0  0  0  0  0
   -0.5997   -4.7700    2.3318 H   0  0  0  0  0  0  0  0  0  0  0  0
    0.9955   -5.3061    3.0124 H   0  0  0  0  0  0  0  0  0  0  0  0
    1.7950   -1.0610    0.8597 H   0  0  0  0  0  0  0  0  0  0  0  0
    0.6566    0.8391    1.4464 H   0  0  0  0  0  0  0  0  0  0  0  0
   -0.2823   -0.1006    2.6190 H   0  0  0  0  0  0  0  0  0  0  0  0
   -4.3639   -1.3610    1.1872 H   0  0  0  0  0  0  0  0  0  0  0  0
   -8.5436    0.2014    0.0225 H   0  0  0  0  0  0  0  0  0  0  0  0
  -10.2516   -1.5396   -0.2942 H   0  0  0  0  0  0  0  0  0  0  0  0
   -9.5864   -3.9232   -0.5059 H   0  0  0  0  0  0  0  0  0  0  0  0
   -7.2017   -4.5558   -0.4041 H   0  0  0  0  0  0  0  0  0  0  0  0
   -5.4653   -2.8416   -0.1127 H   0  0  0  0  0  0  0  0  0  0  0  0
   -6.5203    3.6011   -1.0618 H   0  0  0  0  0  0  0  0  0  0  0  0
  1  2  1  0
  2  3  1  0
  3  4  2  0
  4  5  1  0
  5  6  2  0
  6  7  1  0
  7  8  1  0
  8  9  1  0
  9 10  1  0
 10 11  1  0
 11 12  1  0
 12 13  2  0
 12 14  1  0
 14 15  1  0
 15 16  1  1
 16 17  2  0
 16 18  1  0
 18 19  1  0
 19 20  2  0
 19 21  2  0
 19 22  1  0
 22 23  1  0
 23 24  1  0
 15 25  1  0
 25 26  1  0
 26 27  1  0
 27 28  2  0
 28 29  1  0
 29 30  1  0
 30 31  1  0
 31 32  1  0
 32 33  1  0
 33 34  1  0
 33 35  1  0
 35 36  2  0
 35 37  1  0
 37 38  1  0
  7 39  2  0
 39 40  1  0
 40 41  1  0
 41 42  2  0
 42 43  1  0
 43 44  2  0
 44 45  1  0
 45 46  2  0
 40 47  2  0
 47 48  1  0
 48 49  2  0
 49  3  1  0
 48  6  1  0
 38  9  1  0
 46 41  1  0
 37 11  1  0
 26 15  1  0
 24 22  1  0
  1 50  1  0
  1 51  1  0
  1 52  1  0
  4 53  1  0
  5 54  1  0
  9 55  1  6
 10 56  1  0
 10 57  1  0
 11 58  1  6
 14 59  1  0
 18 60  1  0
 22 61  1  0
 23 62  1  0
 23 63  1  0
 24 64  1  0
 24 65  1  0
 25 66  1  0
 25 67  1  0
 26 68  1  6
 27 69  1  0
 28 70  1  0
 29 71  1  0
 29 72  1  0
 30 73  1  0
 30 74  1  0
 31 75  1  0
 31 76  1  0
 32 77  1  0
 32 78  1  0
 34 79  1  0
 34 80  1  0
 34 81  1  0
 37 82  1  6
 38 83  1  0
 38 84  1  0
 39 85  1  0
 42 86  1  0
 43 87  1  0
 44 88  1  0
 45 89  1  0
 46 90  1  0
 49 91  1  0
M  END
$$$$
