
     RDKit          3D

 55 59  0  0  0  0  0  0  0  0999 V2000
    3.7608   -3.0255   -0.6208 C   0  0  0  0  0  0  0  0  0  0  0  0
    2.5488   -2.0919   -0.7104 C   0  0  1  0  0  0  0  0  0  0  0  0
    1.6620   -2.4781    0.3396 O   0  0  0  0  0  0  0  0  0  0  0  0
    0.2787   -2.2596    0.3798 C   0  0  0  0  0  0  0  0  0  0  0  0
   -0.3136   -1.1922   -0.3016 C   0  0  0  0  0  0  0  0  0  0  0  0
   -1.5912   -0.7648    0.0650 C   0  0  0  0  0  0  0  0  0  0  0  0
   -2.3593   -1.5791    0.9071 C   0  0  0  0  0  0  0  0  0  0  0  0
   -1.8157   -2.7003    1.4473 N   0  0  0  0  0  0  0  0  0  0  0  0
   -0.5201   -3.0491    1.2237 C   0  0  0  0  0  0  0  0  0  0  0  0
    0.0225   -4.1917    1.8891 N   0  0  0  0  0  0  0  0  0  0  0  0
   -2.0101    0.6180   -0.2222 C   0  0  0  0  0  0  0  0  0  0  0  0
   -3.2601    1.0583   -0.6305 C   0  0  0  0  0  0  0  0  0  0  0  0
   -4.4556    0.2092   -0.9456 C   0  0  0  0  0  0  0  0  0  0  0  0
   -5.0648    0.4655   -2.3159 C   0  0  0  0  0  0  0  0  0  0  0  0
   -4.2508   -0.7930   -2.0721 C   0  0  0  0  0  0  0  0  0  0  0  0
   -3.2731    2.4041   -0.6736 N   0  0  0  0  0  0  0  0  0  0  0  0
   -2.0733    2.8322   -0.3116 N   0  0  0  0  0  0  0  0  0  0  0  0
   -1.7183    4.2459   -0.2530 C   0  0  0  0  0  0  0  0  0  0  0  0
   -1.2766    1.7823   -0.0053 C   0  0  0  0  0  0  0  0  0  0  0  0
    0.1865    1.9019    0.3891 C   0  0  0  0  0  0  0  0  0  0  0  0
    0.5799    0.9839    1.4816 N   0  0  0  0  0  0  0  0  0  0  0  0
   -0.1742    1.0035    2.7391 C   0  0  0  0  0  0  0  0  0  0  0  0
    1.7938    0.1852    1.4156 C   0  0  0  0  0  0  0  0  0  0  0  0
    2.0627   -0.6314    2.3384 O   0  0  0  0  0  0  0  0  0  0  0  0
    2.7634    0.3538    0.3147 C   0  0  0  0  0  0  0  0  0  0  0  0
    3.3786    1.6165    0.2285 C   0  0  0  0  0  0  0  0  0  0  0  0
    4.1827    1.9513   -0.8567 C   0  0  0  0  0  0  0  0  0  0  0  0
    4.3773    1.0361   -1.8836 C   0  0  0  0  0  0  0  0  0  0  0  0
    5.1363    1.3729   -2.9556 F   0  0  0  0  0  0  0  0  0  0  0  0
    3.7998   -0.2307   -1.8089 C   0  0  0  0  0  0  0  0  0  0  0  0
    3.0190   -0.6257   -0.6989 C   0  0  0  0  0  0  0  0  0  0  0  0
    4.4316   -2.9082   -1.4968 H   0  0  0  0  0  0  0  0  0  0  0  0
    3.4197   -4.0826   -0.5973 H   0  0  0  0  0  0  0  0  0  0  0  0
    4.3357   -2.8194    0.3077 H   0  0  0  0  0  0  0  0  0  0  0  0
    2.0462   -2.2951   -1.6828 H   0  0  0  0  0  0  0  0  0  0  0  0
    0.2747   -0.5867   -0.9758 H   0  0  0  0  0  0  0  0  0  0  0  0
   -3.3583   -1.2862    1.2005 H   0  0  0  0  0  0  0  0  0  0  0  0
    1.0120   -4.4905    1.7408 H   0  0  0  0  0  0  0  0  0  0  0  0
   -0.5761   -4.7555    2.5326 H   0  0  0  0  0  0  0  0  0  0  0  0
   -5.1707   -0.0798   -0.1469 H   0  0  0  0  0  0  0  0  0  0  0  0
   -4.5475    1.2139   -2.9547 H   0  0  0  0  0  0  0  0  0  0  0  0
   -6.1590    0.2862   -2.3760 H   0  0  0  0  0  0  0  0  0  0  0  0
   -3.2523   -0.7844   -2.5605 H   0  0  0  0  0  0  0  0  0  0  0  0
   -4.8611   -1.7160   -1.9800 H   0  0  0  0  0  0  0  0  0  0  0  0
   -2.5580    4.8687   -0.6283 H   0  0  0  0  0  0  0  0  0  0  0  0
   -0.8256    4.4372   -0.8849 H   0  0  0  0  0  0  0  0  0  0  0  0
   -1.5019    4.5348    0.7970 H   0  0  0  0  0  0  0  0  0  0  0  0
    0.7735    1.7176   -0.5318 H   0  0  0  0  0  0  0  0  0  0  0  0
    0.4142    2.9379    0.7135 H   0  0  0  0  0  0  0  0  0  0  0  0
   -0.5975   -0.0036    2.9368 H   0  0  0  0  0  0  0  0  0  0  0  0
    0.4969    1.2902    3.5762 H   0  0  0  0  0  0  0  0  0  0  0  0
   -1.0077    1.7366    2.7004 H   0  0  0  0  0  0  0  0  0  0  0  0
    3.2049    2.3627    0.9953 H   0  0  0  0  0  0  0  0  0  0  0  0
    4.6350    2.9332   -0.9119 H   0  0  0  0  0  0  0  0  0  0  0  0
    3.9754   -0.9183   -2.6271 H   0  0  0  0  0  0  0  0  0  0  0  0
  1  2  1  0
  2  3  1  0
  3  4  1  0
  4  5  1  0
  5  6  2  0
  6  7  1  0
  7  8  2  0
  8  9  1  0
  9 10  1  0
  6 11  1  0
 11 12  1  0
 12 13  1  0
 13 14  1  0
 14 15  1  0
 12 16  2  0
 16 17  1  0
 17 18  1  0
 17 19  1  0
 19 20  1  0
 20 21  1  0
 21 22  1  0
 21 23  1  0
 23 24  2  0
 23 25  1  0
 25 26  2  0
 26 27  1  0
 27 28  2  0
 28 29  1  0
 28 30  1  0
 30 31  2  0
 31  2  1  0
  9  4  2  0
 19 11  2  0
 31 25  1  0
 15 13  1  0
  1 32  1  0
  1 33  1  0
  1 34  1  0
  2 35  1  6
  5 36  1  0
  7 37  1  0
 10 38  1  0
 10 39  1  0
 13 40  1  0
 14 41  1  0
 14 42  1  0
 15 43  1  0
 15 44  1  0
 18 45  1  0
 18 46  1  0
 18 47  1  0
 20 48  1  0
 20 49  1  0
 22 50  1  0
 22 51  1  0
 22 52  1  0
 26 53  1  0
 27 54  1  0
 30 55  1  0
M  END
$$$$
