
     RDKit          3D

 94 99  0  0  0  0  0  0  0  0999 V2000
   -7.0127   -1.4798   -2.0476 C   0  0  0  0  0  0  0  0  0  0  0  0
   -6.7509   -1.4224   -0.5770 C   0  0  0  0  0  0  0  0  0  0  0  0
   -7.5325   -0.7746    0.1709 O   0  0  0  0  0  0  0  0  0  0  0  0
   -5.5890   -2.0658   -0.0284 N   0  0  0  0  0  0  0  0  0  0  0  0
   -5.3192   -2.0736    1.4147 C   0  0  1  0  0  0  0  0  0  0  0  0
   -4.3333   -3.1857    1.8371 C   0  0  0  0  0  0  0  0  0  0  0  0
   -3.0240   -3.1975    1.1027 C   0  0  0  0  0  0  0  0  0  0  0  0
   -1.8438   -2.6383    1.5463 C   0  0  0  0  0  0  0  0  0  0  0  0
   -0.8637   -3.0458    0.7224 N   0  0  0  0  0  0  0  0  0  0  0  0
   -1.4583   -3.8698   -0.1687 C   0  0  0  0  0  0  0  0  0  0  0  0
   -2.7867   -3.9870    0.0337 N   0  0  0  0  0  0  0  0  0  0  0  0
    0.5350   -3.0108    1.0397 C   0  0  0  0  0  0  0  0  0  0  0  0
    1.4861   -2.5719    0.2065 C   0  0  0  0  0  0  0  0  0  0  0  0
    1.1189   -2.4665   -1.5722 S   0  0  0  0  0  0  0  0  0  0  0  0
    1.2837   -0.6779   -1.8826 C   0  0  0  0  0  0  0  0  0  0  0  0
    0.4711    0.2535   -0.9709 C   0  0  2  0  0  0  0  0  0  0  0  0
   -0.9344   -0.1542   -0.8806 N   0  0  0  0  0  0  0  0  0  0  0  0
   -1.8046    0.4345    0.0987 C   0  0  0  0  0  0  0  0  0  0  0  0
   -1.3452    1.2805    0.9162 O   0  0  0  0  0  0  0  0  0  0  0  0
   -3.2744    0.0896    0.1274 C   0  0  2  0  0  0  0  0  0  0  0  0
   -4.0969    1.1152   -0.6795 C   0  0  0  0  0  0  0  0  0  0  0  0
   -4.0661    2.5047   -0.0879 C   0  0  0  0  0  0  0  0  0  0  0  0
   -3.0970    3.4305   -0.5095 C   0  0  0  0  0  0  0  0  0  0  0  0
   -3.0218    4.6924    0.0856 C   0  0  0  0  0  0  0  0  0  0  0  0
   -3.9166    5.0439    1.0972 C   0  0  0  0  0  0  0  0  0  0  0  0
   -4.8939    4.1342    1.5129 C   0  0  0  0  0  0  0  0  0  0  0  0
   -4.9697    2.8693    0.9263 C   0  0  0  0  0  0  0  0  0  0  0  0
   -3.7500    0.0051    1.5125 N   0  0  0  0  0  0  0  0  0  0  0  0
   -4.9156   -0.7123    1.9462 C   0  0  0  0  0  0  0  0  0  0  0  0
   -5.5819   -0.2312    2.9017 O   0  0  0  0  0  0  0  0  0  0  0  0
    0.5488    1.6631   -1.5094 C   0  0  0  0  0  0  0  0  0  0  0  0
   -0.1700    1.9921   -2.4896 O   0  0  0  0  0  0  0  0  0  0  0  0
    1.4074    2.6401   -0.9162 N   0  0  0  0  0  0  0  0  0  0  0  0
    2.8435    2.6859   -1.2143 C   0  0  1  0  0  0  0  0  0  0  0  0
    3.1093    3.6463   -2.3770 C   0  0  0  0  0  0  0  0  0  0  0  0
    3.6138    3.1153    0.0095 C   0  0  0  0  0  0  0  0  0  0  0  0
    3.1576    4.0410    0.7325 O   0  0  0  0  0  0  0  0  0  0  0  0
    4.8305    2.4650    0.4068 N   0  0  0  0  0  0  0  0  0  0  0  0
    6.0058    2.3238   -0.4610 C   0  0  1  0  0  0  0  0  0  0  0  0
    7.2915    2.2260    0.3789 C   0  0  0  0  0  0  0  0  0  0  0  0
    7.2395    1.1185    1.2378 O   0  0  0  0  0  0  0  0  0  0  0  0
    5.9204    1.1764   -1.4528 C   0  0  0  0  0  0  0  0  0  0  0  0
    6.6128    1.2656   -2.5020 O   0  0  0  0  0  0  0  0  0  0  0  0
    5.0382    0.0485   -1.3212 N   0  0  0  0  0  0  0  0  0  0  0  0
    5.0208   -0.9042   -0.1991 C   0  0  1  0  0  0  0  0  0  0  0  0
    3.9458   -0.4838    0.8036 C   0  0  0  0  0  0  0  0  0  0  0  0
    3.5085   -1.7753    1.9735 S   0  0  0  0  0  0  0  0  0  0  0  0
    2.8474   -2.9722    0.7444 C   0  0  2  0  0  0  0  0  0  0  0  0
    3.8225   -3.2275   -0.3202 N   0  0  0  0  0  0  0  0  0  0  0  0
    4.8460   -2.3125   -0.7475 C   0  0  0  0  0  0  0  0  0  0  0  0
    5.6548   -2.6965   -1.6341 O   0  0  0  0  0  0  0  0  0  0  0  0
    2.4882   -4.2492    1.5281 C   0  0  0  0  0  0  0  0  0  0  0  0
    2.4051   -5.3449    0.6814 F   0  0  0  0  0  0  0  0  0  0  0  0
    3.3853   -4.5394    2.5461 F   0  0  0  0  0  0  0  0  0  0  0  0
    1.0956   -3.9267    2.0784 C   0  0  0  0  0  0  0  0  0  0  0  0
    0.3320   -5.0770    2.2087 F   0  0  0  0  0  0  0  0  0  0  0  0
    1.1631   -3.2751    3.2989 F   0  0  0  0  0  0  0  0  0  0  0  0
   -8.0306   -1.0905   -2.2796 H   0  0  0  0  0  0  0  0  0  0  0  0
   -6.2590   -0.8666   -2.5781 H   0  0  0  0  0  0  0  0  0  0  0  0
   -6.9381   -2.5268   -2.3971 H   0  0  0  0  0  0  0  0  0  0  0  0
   -4.9919   -2.6336   -0.6727 H   0  0  0  0  0  0  0  0  0  0  0  0
   -6.2787   -2.3444    1.9232 H   0  0  0  0  0  0  0  0  0  0  0  0
   -4.8315   -4.1653    1.6779 H   0  0  0  0  0  0  0  0  0  0  0  0
   -4.1340   -3.1083    2.9279 H   0  0  0  0  0  0  0  0  0  0  0  0
   -1.6957   -2.0672    2.4563 H   0  0  0  0  0  0  0  0  0  0  0  0
   -0.9232   -4.4636   -0.8989 H   0  0  0  0  0  0  0  0  0  0  0  0
    0.9628   -0.5239   -2.9329 H   0  0  0  0  0  0  0  0  0  0  0  0
    2.3512   -0.4207   -1.8361 H   0  0  0  0  0  0  0  0  0  0  0  0
    0.9027    0.2216    0.0486 H   0  0  0  0  0  0  0  0  0  0  0  0
   -1.2939   -0.9607   -1.4491 H   0  0  0  0  0  0  0  0  0  0  0  0
   -3.3853   -0.8948   -0.3602 H   0  0  0  0  0  0  0  0  0  0  0  0
   -3.7131    1.1419   -1.7248 H   0  0  0  0  0  0  0  0  0  0  0  0
   -5.1482    0.7714   -0.7438 H   0  0  0  0  0  0  0  0  0  0  0  0
   -2.3924    3.1698   -1.2875 H   0  0  0  0  0  0  0  0  0  0  0  0
   -2.2624    5.3927   -0.2356 H   0  0  0  0  0  0  0  0  0  0  0  0
   -3.8603    6.0220    1.5489 H   0  0  0  0  0  0  0  0  0  0  0  0
   -5.5807    4.4073    2.3030 H   0  0  0  0  0  0  0  0  0  0  0  0
   -5.7188    2.1646    1.2701 H   0  0  0  0  0  0  0  0  0  0  0  0
   -3.3974    0.7298    2.1787 H   0  0  0  0  0  0  0  0  0  0  0  0
    0.9522    3.5316   -0.6158 H   0  0  0  0  0  0  0  0  0  0  0  0
    3.1726    1.6806   -1.5204 H   0  0  0  0  0  0  0  0  0  0  0  0
    2.7860    4.6764   -2.1159 H   0  0  0  0  0  0  0  0  0  0  0  0
    4.1900    3.6563   -2.6257 H   0  0  0  0  0  0  0  0  0  0  0  0
    2.5444    3.3084   -3.2732 H   0  0  0  0  0  0  0  0  0  0  0  0
    5.0078    2.4770    1.4381 H   0  0  0  0  0  0  0  0  0  0  0  0
    6.0918    3.2624   -1.0528 H   0  0  0  0  0  0  0  0  0  0  0  0
    7.4030    3.1651    0.9706 H   0  0  0  0  0  0  0  0  0  0  0  0
    8.1791    2.1379   -0.2827 H   0  0  0  0  0  0  0  0  0  0  0  0
    7.9186    1.2755    1.9461 H   0  0  0  0  0  0  0  0  0  0  0  0
    4.6087   -0.2675   -2.2224 H   0  0  0  0  0  0  0  0  0  0  0  0
    6.0039   -0.8921    0.3125 H   0  0  0  0  0  0  0  0  0  0  0  0
    4.3359    0.3295    1.4298 H   0  0  0  0  0  0  0  0  0  0  0  0
    3.0473   -0.1187    0.2968 H   0  0  0  0  0  0  0  0  0  0  0  0
    3.6999   -4.0889   -0.9015 H   0  0  0  0  0  0  0  0  0  0  0  0
  1  2  1  0
  2  3  2  0
  2  4  1  0
  4  5  1  0
  5  6  1  0
  6  7  1  0
  7  8  2  0
  8  9  1  0
  9 10  1  0
 10 11  2  0
  9 12  1  0
 12 13  2  0
 13 14  1  0
 14 15  1  0
 15 16  1  0
 16 17  1  0
 17 18  1  0
 18 19  2  0
 18 20  1  0
 20 21  1  0
 21 22  1  0
 22 23  2  0
 23 24  1  0
 24 25  2  0
 25 26  1  0
 26 27  2  0
 20 28  1  0
 28 29  1  0
 29 30  2  0
 16 31  1  0
 31 32  2  0
 31 33  1  0
 33 34  1  0
 34 35  1  0
 34 36  1  0
 36 37  2  0
 36 38  1  0
 38 39  1  0
 39 40  1  0
 40 41  1  0
 39 42  1  0
 42 43  2  0
 42 44  1  0
 44 45  1  0
 45 46  1  0
 46 47  1  0
 47 48  1  0
 48 49  1  0
 49 50  1  0
 50 51  2  0
 48 52  1  1
 52 53  1  0
 52 54  1  0
 52 55  1  0
 55 56  1  0
 55 57  1  0
 29  5  1  0
 50 45  1  0
 11  7  1  0
 55 12  1  0
 48 13  1  0
 27 22  1  0
  1 58  1  0
  1 59  1  0
  1 60  1  0
  4 61  1  0
  5 62  1  1
  6 63  1  0
  6 64  1  0
  8 65  1  0
 10 66  1  0
 15 67  1  0
 15 68  1  0
 16 69  1  1
 17 70  1  0
 20 71  1  6
 21 72  1  0
 21 73  1  0
 23 74  1  0
 24 75  1  0
 25 76  1  0
 26 77  1  0
 27 78  1  0
 28 79  1  0
 33 80  1  0
 34 81  1  6
 35 82  1  0
 35 83  1  0
 35 84  1  0
 38 85  1  0
 39 86  1  6
 40 87  1  0
 40 88  1  0
 41 89  1  0
 44 90  1  0
 45 91  1  1
 46 92  1  0
 46 93  1  0
 49 94  1  0
M  END
$$$$
