
     RDKit          3D

 69 73  0  0  0  0  0  0  0  0999 V2000
    5.5019    0.7140   -1.6095 O   0  0  0  0  0  0  0  0  0  0  0  0
    5.2213    0.7189   -0.3795 C   0  0  0  0  0  0  0  0  0  0  0  0
    4.0657   -0.1026    0.1173 C   0  0  0  0  0  0  0  0  0  0  0  0
    2.7084    0.5105   -0.2994 C   0  0  2  0  0  0  0  0  0  0  0  0
    2.5704    1.9932    0.2086 C   0  0  0  0  0  0  0  0  0  0  0  0
    1.1093    2.4381    0.5083 C   0  0  0  0  0  0  0  0  0  0  0  0
    0.3709    1.4360    1.3053 N   0  0  0  0  0  0  0  0  0  0  0  0
    1.0257    0.1509    1.5414 C   0  0  0  0  0  0  0  0  0  0  0  0
    1.4914   -0.3422    0.1650 C   0  0  2  0  0  0  0  0  0  0  0  0
    1.6094   -1.8523    0.1172 C   0  0  0  0  0  0  0  0  0  0  0  0
    0.7147   -2.6717   -0.4888 C   0  0  0  0  0  0  0  0  0  0  0  0
   -0.3878   -2.2419   -1.4457 C   0  0  0  0  0  0  0  0  0  0  0  0
   -1.4733   -3.1630   -1.4328 O   0  0  0  0  0  0  0  0  0  0  0  0
   -2.4905   -3.3669   -0.4735 C   0  0  0  0  0  0  0  0  0  0  0  0
   -3.2182   -4.5525   -0.6622 C   0  0  0  0  0  0  0  0  0  0  0  0
   -4.2319   -4.9350    0.2120 C   0  0  0  0  0  0  0  0  0  0  0  0
   -4.5416   -4.1383    1.3056 C   0  0  0  0  0  0  0  0  0  0  0  0
   -3.8523   -2.9472    1.5165 C   0  0  0  0  0  0  0  0  0  0  0  0
   -2.8429   -2.5118    0.6294 C   0  0  0  0  0  0  0  0  0  0  0  0
   -2.2026   -1.1731    0.9555 C   0  0  0  0  0  0  0  0  0  0  0  0
   -2.7691   -0.0487    0.1703 N   0  0  0  0  0  0  0  0  0  0  0  0
   -4.1173    0.3483    0.6340 C   0  0  0  0  0  0  0  0  0  0  0  0
   -4.9131    0.8968   -0.5189 C   0  0  0  0  0  0  0  0  0  0  0  0
   -5.3082    2.2420   -0.5511 C   0  0  0  0  0  0  0  0  0  0  0  0
   -6.0323    2.7297   -1.6405 C   0  0  0  0  0  0  0  0  0  0  0  0
   -6.3557    1.8661   -2.6893 C   0  0  0  0  0  0  0  0  0  0  0  0
   -5.9655    0.5646   -2.6450 N   0  0  0  0  0  0  0  0  0  0  0  0
   -5.2596    0.0659   -1.5951 C   0  0  0  0  0  0  0  0  0  0  0  0
   -1.8664    1.1371    0.0634 C   0  0  0  0  0  0  0  0  0  0  0  0
   -1.0695    1.4649    1.3162 C   0  0  0  0  0  0  0  0  0  0  0  0
   -1.6720    1.7701    2.3791 O   0  0  0  0  0  0  0  0  0  0  0  0
    5.9788    1.5273    0.5294 N   0  0  0  0  0  0  0  0  0  0  0  0
    7.0130    2.4411    0.0555 C   0  0  0  0  0  0  0  0  0  0  0  0
    8.3050    1.7397   -0.3274 C   0  0  0  0  0  0  0  0  0  0  0  0
    8.2218    2.5282    0.9706 C   0  0  0  0  0  0  0  0  0  0  0  0
    4.1163   -0.2057    1.2222 H   0  0  0  0  0  0  0  0  0  0  0  0
    4.1689   -1.1184   -0.3193 H   0  0  0  0  0  0  0  0  0  0  0  0
    2.6883    0.5321   -1.4138 H   0  0  0  0  0  0  0  0  0  0  0  0
    3.1494    2.1214    1.1494 H   0  0  0  0  0  0  0  0  0  0  0  0
    3.0150    2.6857   -0.5388 H   0  0  0  0  0  0  0  0  0  0  0  0
    0.5905    2.6064   -0.4597 H   0  0  0  0  0  0  0  0  0  0  0  0
    1.1247    3.4029    1.0587 H   0  0  0  0  0  0  0  0  0  0  0  0
    1.8942    0.2913    2.2211 H   0  0  0  0  0  0  0  0  0  0  0  0
    0.3615   -0.5556    2.0762 H   0  0  0  0  0  0  0  0  0  0  0  0
    0.7217   -0.0586   -0.5614 H   0  0  0  0  0  0  0  0  0  0  0  0
    2.3758   -2.3145    0.7324 H   0  0  0  0  0  0  0  0  0  0  0  0
    0.8726   -3.7411   -0.3843 H   0  0  0  0  0  0  0  0  0  0  0  0
    0.0544   -2.2649   -2.4630 H   0  0  0  0  0  0  0  0  0  0  0  0
   -0.7881   -1.2266   -1.3367 H   0  0  0  0  0  0  0  0  0  0  0  0
   -2.9811   -5.1985   -1.4985 H   0  0  0  0  0  0  0  0  0  0  0  0
   -4.7709   -5.8583    0.0454 H   0  0  0  0  0  0  0  0  0  0  0  0
   -5.3203   -4.4430    1.9931 H   0  0  0  0  0  0  0  0  0  0  0  0
   -4.1183   -2.3545    2.3840 H   0  0  0  0  0  0  0  0  0  0  0  0
   -1.1357   -1.2747    0.7822 H   0  0  0  0  0  0  0  0  0  0  0  0
   -2.2907   -0.9545    2.0443 H   0  0  0  0  0  0  0  0  0  0  0  0
   -4.0532    1.0821    1.4680 H   0  0  0  0  0  0  0  0  0  0  0  0
   -4.6883   -0.5143    1.0279 H   0  0  0  0  0  0  0  0  0  0  0  0
   -5.0504    2.9117    0.2597 H   0  0  0  0  0  0  0  0  0  0  0  0
   -6.3375    3.7679   -1.6736 H   0  0  0  0  0  0  0  0  0  0  0  0
   -6.9156    2.2312   -3.5398 H   0  0  0  0  0  0  0  0  0  0  0  0
   -4.9656   -0.9762   -1.5989 H   0  0  0  0  0  0  0  0  0  0  0  0
   -2.4392    2.0471   -0.2176 H   0  0  0  0  0  0  0  0  0  0  0  0
   -1.1863    0.9837   -0.7930 H   0  0  0  0  0  0  0  0  0  0  0  0
    5.7185    1.5434    1.5419 H   0  0  0  0  0  0  0  0  0  0  0  0
    6.7218    3.3347   -0.5360 H   0  0  0  0  0  0  0  0  0  0  0  0
    8.3135    0.6370   -0.1879 H   0  0  0  0  0  0  0  0  0  0  0  0
    8.8808    2.2473   -1.1298 H   0  0  0  0  0  0  0  0  0  0  0  0
    8.7484    3.5050    0.9404 H   0  0  0  0  0  0  0  0  0  0  0  0
    8.1868    1.8924    1.8813 H   0  0  0  0  0  0  0  0  0  0  0  0
  1  2  2  0
  2  3  1  0
  3  4  1  0
  4  5  1  0
  5  6  1  0
  6  7  1  0
  7  8  1  0
  8  9  1  0
  9 10  1  0
 10 11  2  0
 11 12  1  0
 12 13  1  0
 13 14  1  0
 14 15  2  0
 15 16  1  0
 16 17  2  0
 17 18  1  0
 18 19  2  0
 19 20  1  0
 20 21  1  0
 21 22  1  0
 22 23  1  0
 23 24  2  0
 24 25  1  0
 25 26  2  0
 26 27  1  0
 27 28  2  0
 21 29  1  0
 29 30  1  0
 30 31  2  0
  2 32  1  0
 32 33  1  0
 33 34  1  0
 34 35  1  0
  9  4  1  0
 19 14  1  0
 28 23  1  0
 35 33  1  0
 30  7  1  0
  3 36  1  0
  3 37  1  0
  4 38  1  6
  5 39  1  0
  5 40  1  0
  6 41  1  0
  6 42  1  0
  8 43  1  0
  8 44  1  0
  9 45  1  6
 10 46  1  0
 11 47  1  0
 12 48  1  0
 12 49  1  0
 15 50  1  0
 16 51  1  0
 17 52  1  0
 18 53  1  0
 20 54  1  0
 20 55  1  0
 22 56  1  0
 22 57  1  0
 24 58  1  0
 25 59  1  0
 26 60  1  0
 28 61  1  0
 29 62  1  0
 29 63  1  0
 32 64  1  0
 33 65  1  0
 34 66  1  0
 34 67  1  0
 35 68  1  0
 35 69  1  0
M  END
$$$$
