
     RDKit          3D

 69 73  0  0  0  0  0  0  0  0999 V2000
    6.5805    1.0834    1.1128 C   0  0  0  0  0  0  0  0  0  0  0  0
    6.0271    0.1245    0.0966 C   0  0  0  0  0  0  0  0  0  0  0  0
    6.9177   -0.6007   -0.7151 C   0  0  0  0  0  0  0  0  0  0  0  0
    6.4325   -1.5194   -1.6412 C   0  0  0  0  0  0  0  0  0  0  0  0
    5.0964   -1.7147   -1.7773 N   0  0  0  0  0  0  0  0  0  0  0  0
    4.1944   -1.0245   -1.0385 C   0  0  0  0  0  0  0  0  0  0  0  0
    4.6396   -0.0591   -0.0882 C   0  0  0  0  0  0  0  0  0  0  0  0
    3.5411    0.6091    0.7099 C   0  0  1  0  0  0  0  0  0  0  0  0
    2.9379   -0.3629    1.7548 C   0  0  0  0  0  0  0  0  0  0  0  0
    1.5229    0.0634    2.2042 C   0  0  0  0  0  0  0  0  0  0  0  0
    1.0235    1.3062    1.4422 C   0  0  2  0  0  0  0  0  0  0  0  0
    2.0351    2.4537    1.7104 C   0  0  0  0  0  0  0  0  0  0  0  0
    3.5097    2.0544    1.2726 C   0  0  0  0  0  0  0  0  0  0  0  0
   -0.3342    1.5691    1.7531 O   0  0  0  0  0  0  0  0  0  0  0  0
   -1.1879    1.2105    0.6503 C   0  0  0  0  0  0  0  0  0  0  0  0
   -1.2107   -0.3287    0.2832 C   0  0  0  0  0  0  0  0  0  0  0  0
   -2.5376   -0.7772   -0.3933 C   0  0  1  0  0  0  0  0  0  0  0  0
   -3.0018    0.2440   -1.3542 N   0  0  0  0  0  0  0  0  0  0  0  0
   -4.7124    0.0956   -1.6945 S   0  0  0  0  0  6  0  0  0  0  0  0
   -4.9932   -1.2287   -2.3479 O   0  0  0  0  0  0  0  0  0  0  0  0
   -5.1124    1.1903   -2.6506 O   0  0  0  0  0  0  0  0  0  0  0  0
   -5.7134    0.2347   -0.2042 C   0  0  0  0  0  0  0  0  0  0  0  0
   -7.1833    0.2383   -0.5054 C   0  0  0  0  0  0  0  0  0  0  0  0
   -7.7507    1.1024    0.6003 C   0  0  0  0  0  0  0  0  0  0  0  0
   -6.7406    1.9619    1.0839 O   0  0  0  0  0  0  0  0  0  0  0  0
   -5.5141    1.5532    0.5233 C   0  0  0  0  0  0  0  0  0  0  0  0
   -2.3833   -2.1753   -1.0674 C   0  0  0  0  0  0  0  0  0  0  0  0
   -1.3268   -3.0424   -0.3678 C   0  0  0  0  0  0  0  0  0  0  0  0
    0.0644   -2.3717   -0.3982 C   0  0  0  0  0  0  0  0  0  0  0  0
   -0.0555   -0.9043   -0.4804 N   0  0  0  0  0  0  0  0  0  0  0  0
    0.6222   -0.2329   -1.5805 C   0  0  0  0  0  0  0  0  0  0  0  0
    0.0641    0.7480   -2.1357 O   0  0  0  0  0  0  0  0  0  0  0  0
    1.9691   -0.6808   -2.1469 C   0  0  0  0  0  0  0  0  0  0  0  0
    2.8128   -1.3046   -1.1713 O   0  0  0  0  0  0  0  0  0  0  0  0
    7.6740    0.9351    1.2504 H   0  0  0  0  0  0  0  0  0  0  0  0
    6.1090    0.9005    2.1005 H   0  0  0  0  0  0  0  0  0  0  0  0
    6.4086    2.1298    0.7737 H   0  0  0  0  0  0  0  0  0  0  0  0
    7.9914   -0.4666   -0.6167 H   0  0  0  0  0  0  0  0  0  0  0  0
    7.1215   -2.0789   -2.2568 H   0  0  0  0  0  0  0  0  0  0  0  0
    2.8855    0.7606   -0.1459 H   0  0  0  0  0  0  0  0  0  0  0  0
    2.8756   -1.3985    1.3539 H   0  0  0  0  0  0  0  0  0  0  0  0
    3.6147   -0.4030    2.6399 H   0  0  0  0  0  0  0  0  0  0  0  0
    0.8309   -0.7926    2.0914 H   0  0  0  0  0  0  0  0  0  0  0  0
    1.5469    0.2975    3.2952 H   0  0  0  0  0  0  0  0  0  0  0  0
    1.0842    1.1807    0.3648 H   0  0  0  0  0  0  0  0  0  0  0  0
    2.0251    2.6945    2.7934 H   0  0  0  0  0  0  0  0  0  0  0  0
    1.7082    3.3624    1.1602 H   0  0  0  0  0  0  0  0  0  0  0  0
    4.1748    2.1354    2.1571 H   0  0  0  0  0  0  0  0  0  0  0  0
    3.8746    2.7766    0.5133 H   0  0  0  0  0  0  0  0  0  0  0  0
   -2.2153    1.4851    0.9574 H   0  0  0  0  0  0  0  0  0  0  0  0
   -0.9790    1.8468   -0.2324 H   0  0  0  0  0  0  0  0  0  0  0  0
   -1.2310   -0.8308    1.2751 H   0  0  0  0  0  0  0  0  0  0  0  0
   -3.2736   -0.8743    0.4307 H   0  0  0  0  0  0  0  0  0  0  0  0
   -2.4846    0.1610   -2.2629 H   0  0  0  0  0  0  0  0  0  0  0  0
   -5.4932   -0.6123    0.4761 H   0  0  0  0  0  0  0  0  0  0  0  0
   -7.4096    0.7085   -1.4936 H   0  0  0  0  0  0  0  0  0  0  0  0
   -7.6046   -0.7924   -0.4814 H   0  0  0  0  0  0  0  0  0  0  0  0
   -8.6075    1.7075    0.2172 H   0  0  0  0  0  0  0  0  0  0  0  0
   -8.1126    0.4638    1.4342 H   0  0  0  0  0  0  0  0  0  0  0  0
   -5.1776    2.3476   -0.1787 H   0  0  0  0  0  0  0  0  0  0  0  0
   -4.7544    1.4393    1.3254 H   0  0  0  0  0  0  0  0  0  0  0  0
   -2.0864   -2.0659   -2.1338 H   0  0  0  0  0  0  0  0  0  0  0  0
   -3.3549   -2.7114   -1.0423 H   0  0  0  0  0  0  0  0  0  0  0  0
   -1.2646   -4.0367   -0.8704 H   0  0  0  0  0  0  0  0  0  0  0  0
   -1.6504   -3.2181    0.6810 H   0  0  0  0  0  0  0  0  0  0  0  0
    0.6340   -2.6402    0.5183 H   0  0  0  0  0  0  0  0  0  0  0  0
    0.6193   -2.7837   -1.2698 H   0  0  0  0  0  0  0  0  0  0  0  0
    1.8054   -1.3752   -3.0002 H   0  0  0  0  0  0  0  0  0  0  0  0
    2.4823    0.2331   -2.5386 H   0  0  0  0  0  0  0  0  0  0  0  0
  1  2  1  0
  2  3  2  0
  3  4  1  0
  4  5  2  0
  5  6  1  0
  6  7  2  0
  7  8  1  0
  8  9  1  0
  9 10  1  0
 10 11  1  0
 11 12  1  0
 12 13  1  0
 11 14  1  0
 14 15  1  0
 15 16  1  0
 16 17  1  0
 17 18  1  0
 18 19  1  0
 19 20  2  0
 19 21  2  0
 19 22  1  0
 22 23  1  0
 23 24  1  0
 24 25  1  0
 25 26  1  0
 17 27  1  0
 27 28  1  0
 28 29  1  0
 29 30  1  0
 30 31  1  0
 31 32  2  0
 31 33  1  0
 33 34  1  0
  7  2  1  0
 13  8  1  0
 30 16  1  0
 34  6  1  0
 26 22  1  0
  1 35  1  0
  1 36  1  0
  1 37  1  0
  3 38  1  0
  4 39  1  0
  8 40  1  6
  9 41  1  0
  9 42  1  0
 10 43  1  0
 10 44  1  0
 11 45  1  6
 12 46  1  0
 12 47  1  0
 13 48  1  0
 13 49  1  0
 15 50  1  0
 15 51  1  0
 16 52  1  0
 17 53  1  1
 18 54  1  0
 22 55  1  0
 23 56  1  0
 23 57  1  0
 24 58  1  0
 24 59  1  0
 26 60  1  0
 26 61  1  0
 27 62  1  0
 27 63  1  0
 28 64  1  0
 28 65  1  0
 29 66  1  0
 29 67  1  0
 33 68  1  0
 33 69  1  0
M  END
$$$$
