
     RDKit          3D

 80 83  0  0  0  0  0  0  0  0999 V2000
    7.3342   -1.4541   -4.0219 C   0  0  0  0  0  0  0  0  0  0  0  0
    7.1348   -1.0279   -2.6035 C   0  0  0  0  0  0  0  0  0  0  0  0
    8.0516   -0.3928   -2.0092 O   0  0  0  0  0  0  0  0  0  0  0  0
    5.9362   -1.3996   -1.9088 N   0  0  0  0  0  0  0  0  0  0  0  0
    5.5775   -0.8989   -0.6087 C   0  0  0  0  0  0  0  0  0  0  0  0
    5.7834    0.4536   -0.2764 C   0  0  0  0  0  0  0  0  0  0  0  0
    5.3219    0.9707    0.9497 C   0  0  0  0  0  0  0  0  0  0  0  0
    4.7901    0.0851    1.9013 C   0  0  0  0  0  0  0  0  0  0  0  0
    4.5434   -1.2408    1.5619 C   0  0  0  0  0  0  0  0  0  0  0  0
    4.8527   -1.7096    0.2819 C   0  0  0  0  0  0  0  0  0  0  0  0
    4.3170   -2.9295   -0.1342 O   0  0  0  0  0  0  0  0  0  0  0  0
    2.9352   -3.0050   -0.3179 C   0  0  0  0  0  0  0  0  0  0  0  0
    2.1595   -3.8460    0.4910 C   0  0  0  0  0  0  0  0  0  0  0  0
    0.7653   -3.7269    0.4831 C   0  0  0  0  0  0  0  0  0  0  0  0
    0.1371   -2.8132   -0.3822 C   0  0  0  0  0  0  0  0  0  0  0  0
    0.9168   -2.0528   -1.2652 C   0  0  0  0  0  0  0  0  0  0  0  0
    2.3053   -2.1440   -1.2278 C   0  0  0  0  0  0  0  0  0  0  0  0
   -1.3401   -2.5478   -0.2803 C   0  0  0  0  0  0  0  0  0  0  0  0
   -1.6475   -1.4415    0.7569 C   0  0  2  0  0  0  0  0  0  0  0  0
   -3.0947   -1.2667    0.9460 N   0  0  0  0  0  0  0  0  0  0  0  0
   -4.0400   -0.9577   -0.0888 C   0  0  0  0  0  0  0  0  0  0  0  0
   -3.6596   -0.8106   -1.2789 O   0  0  0  0  0  0  0  0  0  0  0  0
   -5.3947   -0.8236    0.2539 O   0  0  0  0  0  0  0  0  0  0  0  0
   -6.5002   -0.7618   -0.6629 C   0  0  0  0  0  0  0  0  0  0  0  0
   -6.3974    0.4723   -1.5797 C   0  0  0  0  0  0  0  0  0  0  0  0
   -6.5659   -2.0520   -1.5026 C   0  0  0  0  0  0  0  0  0  0  0  0
   -7.7830   -0.6454    0.1720 C   0  0  0  0  0  0  0  0  0  0  0  0
   -0.9880   -0.1181    0.4351 C   0  0  0  0  0  0  0  0  0  0  0  0
   -1.3206    0.5116   -0.6034 O   0  0  0  0  0  0  0  0  0  0  0  0
    0.0530    0.3970    1.2846 N   0  0  0  0  0  0  0  0  0  0  0  0
    0.5001    1.8001    1.2459 C   0  0  1  0  0  0  0  0  0  0  0  0
   -0.5139    2.7219    1.9536 C   0  0  0  0  0  0  0  0  0  0  0  0
   -1.7863    2.9064    1.1688 C   0  0  0  0  0  0  0  0  0  0  0  0
   -2.9872    2.3215    1.6057 C   0  0  0  0  0  0  0  0  0  0  0  0
   -4.1661    2.5123    0.8805 C   0  0  0  0  0  0  0  0  0  0  0  0
   -4.1535    3.2819   -0.2852 C   0  0  0  0  0  0  0  0  0  0  0  0
   -2.9602    3.8546   -0.7326 C   0  0  0  0  0  0  0  0  0  0  0  0
   -1.7805    3.6699   -0.0098 C   0  0  0  0  0  0  0  0  0  0  0  0
    1.8430    1.9532    1.9265 C   0  0  0  0  0  0  0  0  0  0  0  0
    2.0469    1.3822    3.0348 O   0  0  0  0  0  0  0  0  0  0  0  0
    2.8558    2.7979    1.3510 N   0  0  0  0  0  0  0  0  0  0  0  0
    4.1540    3.0588    1.9813 C   0  0  0  0  0  0  0  0  0  0  0  0
    5.2521    2.4382    1.1589 C   0  0  0  0  0  0  0  0  0  0  0  0
    6.0280    3.1924    0.5167 O   0  0  0  0  0  0  0  0  0  0  0  0
    7.4391   -2.5589   -4.0612 H   0  0  0  0  0  0  0  0  0  0  0  0
    6.4635   -1.1384   -4.6342 H   0  0  0  0  0  0  0  0  0  0  0  0
    8.2528   -0.9973   -4.4432 H   0  0  0  0  0  0  0  0  0  0  0  0
    5.3309   -2.1321   -2.3487 H   0  0  0  0  0  0  0  0  0  0  0  0
    6.2041    1.1225   -1.0196 H   0  0  0  0  0  0  0  0  0  0  0  0
    4.4945    0.4277    2.8835 H   0  0  0  0  0  0  0  0  0  0  0  0
    4.0275   -1.8875    2.2619 H   0  0  0  0  0  0  0  0  0  0  0  0
    2.6391   -4.5125    1.1921 H   0  0  0  0  0  0  0  0  0  0  0  0
    0.1790   -4.3162    1.1762 H   0  0  0  0  0  0  0  0  0  0  0  0
    0.4510   -1.3433   -1.9389 H   0  0  0  0  0  0  0  0  0  0  0  0
    2.8914   -1.4932   -1.8626 H   0  0  0  0  0  0  0  0  0  0  0  0
   -1.8629   -3.4828    0.0129 H   0  0  0  0  0  0  0  0  0  0  0  0
   -1.7272   -2.2728   -1.2808 H   0  0  0  0  0  0  0  0  0  0  0  0
   -1.2303   -1.7921    1.7271 H   0  0  0  0  0  0  0  0  0  0  0  0
   -3.4714   -1.3859    1.9131 H   0  0  0  0  0  0  0  0  0  0  0  0
   -6.2834    1.3950   -0.9716 H   0  0  0  0  0  0  0  0  0  0  0  0
   -7.3166    0.5739   -2.1937 H   0  0  0  0  0  0  0  0  0  0  0  0
   -5.5406    0.3965   -2.2789 H   0  0  0  0  0  0  0  0  0  0  0  0
   -7.4603   -2.0511   -2.1557 H   0  0  0  0  0  0  0  0  0  0  0  0
   -5.6699   -2.1462   -2.1514 H   0  0  0  0  0  0  0  0  0  0  0  0
   -6.6115   -2.9403   -0.8351 H   0  0  0  0  0  0  0  0  0  0  0  0
   -7.7498    0.2716    0.8019 H   0  0  0  0  0  0  0  0  0  0  0  0
   -8.6797   -0.5884   -0.4834 H   0  0  0  0  0  0  0  0  0  0  0  0
   -7.8797   -1.5206    0.8482 H   0  0  0  0  0  0  0  0  0  0  0  0
    0.5713   -0.2971    1.8715 H   0  0  0  0  0  0  0  0  0  0  0  0
    0.6145    2.1080    0.1807 H   0  0  0  0  0  0  0  0  0  0  0  0
   -0.0631    3.7307    2.1048 H   0  0  0  0  0  0  0  0  0  0  0  0
   -0.7383    2.3154    2.9671 H   0  0  0  0  0  0  0  0  0  0  0  0
   -3.0089    1.7165    2.5019 H   0  0  0  0  0  0  0  0  0  0  0  0
   -5.0869    2.0538    1.2170 H   0  0  0  0  0  0  0  0  0  0  0  0
   -5.0650    3.4302   -0.8484 H   0  0  0  0  0  0  0  0  0  0  0  0
   -2.9513    4.4481   -1.6386 H   0  0  0  0  0  0  0  0  0  0  0  0
   -0.8630    4.1207   -0.3631 H   0  0  0  0  0  0  0  0  0  0  0  0
    2.6941    3.1969    0.4015 H   0  0  0  0  0  0  0  0  0  0  0  0
    4.1856    2.6760    3.0205 H   0  0  0  0  0  0  0  0  0  0  0  0
    4.3059    4.1580    2.0426 H   0  0  0  0  0  0  0  0  0  0  0  0
  1  2  1  0
  2  3  2  0
  2  4  1  0
  4  5  1  0
  5  6  2  0
  6  7  1  0
  7  8  2  0
  8  9  1  0
  9 10  2  0
 10 11  1  0
 11 12  1  0
 12 13  2  0
 13 14  1  0
 14 15  2  0
 15 16  1  0
 16 17  2  0
 15 18  1  0
 18 19  1  0
 19 20  1  0
 20 21  1  0
 21 22  2  0
 21 23  1  0
 23 24  1  0
 24 25  1  0
 24 26  1  0
 24 27  1  0
 19 28  1  0
 28 29  2  0
 28 30  1  0
 30 31  1  0
 31 32  1  0
 32 33  1  0
 33 34  2  0
 34 35  1  0
 35 36  2  0
 36 37  1  0
 37 38  2  0
 31 39  1  0
 39 40  2  0
 39 41  1  0
 41 42  1  0
 42 43  1  0
 43 44  2  0
 10  5  1  0
 17 12  1  0
 38 33  1  0
 43  7  1  0
  1 45  1  0
  1 46  1  0
  1 47  1  0
  4 48  1  0
  6 49  1  0
  8 50  1  0
  9 51  1  0
 13 52  1  0
 14 53  1  0
 16 54  1  0
 17 55  1  0
 18 56  1  0
 18 57  1  0
 19 58  1  1
 20 59  1  0
 25 60  1  0
 25 61  1  0
 25 62  1  0
 26 63  1  0
 26 64  1  0
 26 65  1  0
 27 66  1  0
 27 67  1  0
 27 68  1  0
 30 69  1  0
 31 70  1  6
 32 71  1  0
 32 72  1  0
 34 73  1  0
 35 74  1  0
 36 75  1  0
 37 76  1  0
 38 77  1  0
 41 78  1  0
 42 79  1  0
 42 80  1  0
M  END
$$$$
