
     RDKit          3D

 73 77  0  0  0  0  0  0  0  0999 V2000
    2.0321   -4.6592    0.2107 C   0  0  0  0  0  0  0  0  0  0  0  0
    1.6465   -3.2469    0.2830 N   0  0  0  0  0  0  0  0  0  0  0  0
    1.1360   -2.5735   -0.9308 C   0  0  0  0  0  0  0  0  0  0  0  0
   -0.1621   -3.2070   -1.4750 C   0  0  0  0  0  0  0  0  0  0  0  0
   -0.5038   -2.5430   -2.6400 F   0  0  0  0  0  0  0  0  0  0  0  0
    0.0814   -4.5249   -1.8224 F   0  0  0  0  0  0  0  0  0  0  0  0
   -1.3308   -3.1738   -0.4558 C   0  0  0  0  0  0  0  0  0  0  0  0
   -2.1965   -1.8917   -0.4649 C   0  0  0  0  0  0  0  0  0  0  0  0
   -2.8070   -1.5969   -1.7918 N   0  0  0  0  0  0  0  0  0  0  0  0
   -3.6805   -2.6976   -2.2529 C   0  0  0  0  0  0  0  0  0  0  0  0
   -3.5327   -0.2962   -1.8871 C   0  0  1  0  0  0  0  0  0  0  0  0
   -4.7806   -0.1870   -0.9897 C   0  0  0  0  0  0  0  0  0  0  0  0
   -4.8496    1.2698   -0.5775 C   0  0  0  0  0  0  0  0  0  0  0  0
   -3.3952    1.7183   -0.4937 C   0  0  1  0  0  0  0  0  0  0  0  0
   -2.6686    0.9488   -1.6003 C   0  0  0  0  0  0  0  0  0  0  0  0
   -3.2655    3.1730   -0.6566 N   0  0  0  0  0  0  0  0  0  0  0  0
   -2.0906    3.8757   -0.2356 C   0  0  0  0  0  0  0  0  0  0  0  0
   -2.0999    5.2284   -0.1501 N   0  0  0  0  0  0  0  0  0  0  0  0
   -1.0148    5.9078    0.3019 C   0  0  0  0  0  0  0  0  0  0  0  0
    0.1407    5.2202    0.7140 C   0  0  0  0  0  0  0  0  0  0  0  0
    1.3043    6.0070    1.2805 C   0  0  0  0  0  0  0  0  0  0  0  0
    1.9785    5.2776    2.2421 F   0  0  0  0  0  0  0  0  0  0  0  0
    2.1751    6.3452    0.2617 F   0  0  0  0  0  0  0  0  0  0  0  0
    0.8572    7.1711    1.8826 F   0  0  0  0  0  0  0  0  0  0  0  0
    0.1500    3.8112    0.5516 C   0  0  0  0  0  0  0  0  0  0  0  0
   -0.9704    3.1929    0.0986 N   0  0  0  0  0  0  0  0  0  0  0  0
    1.3248    2.9530    0.8129 C   0  0  0  0  0  0  0  0  0  0  0  0
    2.6193    3.1562    0.3496 C   0  0  0  0  0  0  0  0  0  0  0  0
    3.3596    2.0380    0.5029 N   0  0  0  0  0  0  0  0  0  0  0  0
    2.5443    1.1071    1.0389 C   0  0  0  0  0  0  0  0  0  0  0  0
    2.8165   -0.2565    1.2564 C   0  0  0  0  0  0  0  0  0  0  0  0
    4.4992   -0.8927    1.0104 P   0  0  0  0  0  5  0  0  0  0  0  0
    4.7600   -1.2352   -0.7524 C   0  0  0  0  0  0  0  0  0  0  0  0
    4.8847   -2.3883    1.9656 C   0  0  0  0  0  0  0  0  0  0  0  0
    5.4906    0.1613    1.4508 O   0  0  0  0  0  0  0  0  0  0  0  0
    1.7120   -1.0839    1.6185 C   0  0  0  0  0  0  0  0  0  0  0  0
    0.4512   -0.5068    1.8896 C   0  0  0  0  0  0  0  0  0  0  0  0
    0.2336    0.8619    1.7013 C   0  0  0  0  0  0  0  0  0  0  0  0
    1.2936    1.6361    1.2380 C   0  0  0  0  0  0  0  0  0  0  0  0
    1.7682   -2.5519    1.5470 C   0  0  0  0  0  0  0  0  0  0  0  0
    1.8817   -3.2045    2.6218 O   0  0  0  0  0  0  0  0  0  0  0  0
    2.3661   -4.9200   -0.8147 H   0  0  0  0  0  0  0  0  0  0  0  0
    2.8748   -4.8819    0.8981 H   0  0  0  0  0  0  0  0  0  0  0  0
    1.1678   -5.2961    0.4898 H   0  0  0  0  0  0  0  0  0  0  0  0
    0.9482   -1.4948   -0.7581 H   0  0  0  0  0  0  0  0  0  0  0  0
    1.9125   -2.6295   -1.7215 H   0  0  0  0  0  0  0  0  0  0  0  0
   -0.9367   -3.3165    0.5723 H   0  0  0  0  0  0  0  0  0  0  0  0
   -1.9873   -4.0534   -0.6247 H   0  0  0  0  0  0  0  0  0  0  0  0
   -1.5504   -1.0587   -0.1333 H   0  0  0  0  0  0  0  0  0  0  0  0
   -2.9779   -2.0248    0.3109 H   0  0  0  0  0  0  0  0  0  0  0  0
   -4.4034   -2.9974   -1.4624 H   0  0  0  0  0  0  0  0  0  0  0  0
   -4.2484   -2.4077   -3.1647 H   0  0  0  0  0  0  0  0  0  0  0  0
   -3.0706   -3.5755   -2.5484 H   0  0  0  0  0  0  0  0  0  0  0  0
   -3.8829   -0.1754   -2.9404 H   0  0  0  0  0  0  0  0  0  0  0  0
   -4.7128   -0.8085   -0.0757 H   0  0  0  0  0  0  0  0  0  0  0  0
   -5.7006   -0.4819   -1.5431 H   0  0  0  0  0  0  0  0  0  0  0  0
   -5.3921    1.8427   -1.3640 H   0  0  0  0  0  0  0  0  0  0  0  0
   -5.3709    1.3936    0.3964 H   0  0  0  0  0  0  0  0  0  0  0  0
   -2.9905    1.4081    0.4958 H   0  0  0  0  0  0  0  0  0  0  0  0
   -1.6201    0.7239   -1.3180 H   0  0  0  0  0  0  0  0  0  0  0  0
   -2.6078    1.5790   -2.5195 H   0  0  0  0  0  0  0  0  0  0  0  0
   -4.0952    3.7404   -0.9405 H   0  0  0  0  0  0  0  0  0  0  0  0
   -1.0662    6.9882    0.3620 H   0  0  0  0  0  0  0  0  0  0  0  0
    2.9788    4.0368   -0.1621 H   0  0  0  0  0  0  0  0  0  0  0  0
    4.3376    1.9165    0.1628 H   0  0  0  0  0  0  0  0  0  0  0  0
    4.4516   -0.3537   -1.3502 H   0  0  0  0  0  0  0  0  0  0  0  0
    4.1580   -2.1166   -1.0487 H   0  0  0  0  0  0  0  0  0  0  0  0
    5.8331   -1.4471   -0.9361 H   0  0  0  0  0  0  0  0  0  0  0  0
    4.4210   -3.2713    1.4896 H   0  0  0  0  0  0  0  0  0  0  0  0
    5.9838   -2.5395    1.9746 H   0  0  0  0  0  0  0  0  0  0  0  0
    4.5187   -2.2740    3.0085 H   0  0  0  0  0  0  0  0  0  0  0  0
   -0.3845   -1.1332    2.1782 H   0  0  0  0  0  0  0  0  0  0  0  0
   -0.7460    1.2853    1.8688 H   0  0  0  0  0  0  0  0  0  0  0  0
  1  2  1  0
  2  3  1  0
  3  4  1  0
  4  5  1  0
  4  6  1  0
  4  7  1  0
  7  8  1  0
  8  9  1  0
  9 10  1  0
  9 11  1  0
 11 12  1  0
 12 13  1  0
 13 14  1  0
 14 15  1  0
 14 16  1  0
 16 17  1  0
 17 18  2  0
 18 19  1  0
 19 20  2  0
 20 21  1  0
 21 22  1  0
 21 23  1  0
 21 24  1  0
 20 25  1  0
 25 26  2  0
 25 27  1  0
 27 28  2  0
 28 29  1  0
 29 30  1  0
 30 31  2  0
 31 32  1  0
 32 33  1  0
 32 34  1  0
 32 35  2  0
 31 36  1  0
 36 37  2  0
 37 38  1  0
 38 39  2  0
 36 40  1  0
 40 41  2  0
 40  2  1  0
 15 11  1  0
 26 17  1  0
 39 27  1  0
 39 30  1  0
  1 42  1  0
  1 43  1  0
  1 44  1  0
  3 45  1  0
  3 46  1  0
  7 47  1  0
  7 48  1  0
  8 49  1  0
  8 50  1  0
 10 51  1  0
 10 52  1  0
 10 53  1  0
 11 54  1  6
 12 55  1  0
 12 56  1  0
 13 57  1  0
 13 58  1  0
 14 59  1  1
 15 60  1  0
 15 61  1  0
 16 62  1  0
 19 63  1  0
 28 64  1  0
 29 65  1  0
 33 66  1  0
 33 67  1  0
 33 68  1  0
 34 69  1  0
 34 70  1  0
 34 71  1  0
 37 72  1  0
 38 73  1  0
M  END
$$$$
