
     RDKit          3D

 66 68  0  0  0  0  0  0  0  0999 V2000
   -5.6774    1.8126   -1.2820 C   0  0  0  0  0  0  0  0  0  0  0  0
   -5.2456    0.4826   -1.9165 C   0  0  0  0  0  0  0  0  0  0  0  0
   -5.7540    0.4156   -3.3618 C   0  0  0  0  0  0  0  0  0  0  0  0
   -3.7079    0.3046   -1.8879 C   0  0  0  0  0  0  0  0  0  0  0  0
   -3.1271   -0.0460   -0.4905 C   0  0  2  0  0  0  0  0  0  0  0  0
   -1.6637   -0.0698   -0.5686 N   0  0  0  0  0  0  0  0  0  0  0  0
   -0.8204   -0.0059    0.5953 C   0  0  0  0  0  0  0  0  0  0  0  0
   -1.3323    0.0942    1.7445 O   0  0  0  0  0  0  0  0  0  0  0  0
    0.6829    0.0106    0.4569 C   0  0  2  0  0  0  0  0  0  0  0  0
    1.1293    1.3356   -0.1751 C   0  0  0  0  0  0  0  0  0  0  0  0
    2.5324    1.4021   -0.1687 O   0  0  0  0  0  0  0  0  0  0  0  0
    2.9615    2.6333   -0.7093 C   0  0  0  0  0  0  0  0  0  0  0  0
    4.4853    2.6815   -0.6646 C   0  0  0  0  0  0  0  0  0  0  0  0
    5.1232    1.5919   -1.5491 C   0  0  0  0  0  0  0  0  0  0  0  0
    6.3728    0.9551   -0.9114 C   0  0  0  0  0  0  0  0  0  0  0  0
    6.0604   -0.3411   -0.1440 C   0  0  0  0  0  0  0  0  0  0  0  0
    5.2468   -0.1237    1.1021 C   0  0  0  0  0  0  0  0  0  0  0  0
    5.6434    0.6952    1.9735 O   0  0  0  0  0  0  0  0  0  0  0  0
    4.1011   -0.9339    1.3773 N   0  0  0  0  0  0  0  0  0  0  0  0
    3.3858   -1.3564    2.5986 C   0  0  0  0  0  0  0  0  0  0  0  0
    2.5944   -2.4529    1.9593 C   0  0  0  0  0  0  0  0  0  0  0  0
    3.3472   -2.0266    0.7332 C   0  0  1  0  0  0  0  0  0  0  0  0
    2.5167   -1.5437   -0.4415 C   0  0  0  0  0  0  0  0  0  0  0  0
    3.0485   -1.5547   -1.5829 O   0  0  0  0  0  0  0  0  0  0  0  0
    1.1414   -1.1426   -0.3329 N   0  0  0  0  0  0  0  0  0  0  0  0
   -3.6247   -1.3977   -0.0203 C   0  0  0  0  0  0  0  0  0  0  0  0
   -3.4285   -2.3829   -0.7188 O   0  0  0  0  0  0  0  0  0  0  0  0
   -4.3446   -1.5589    1.2988 C   0  0  1  0  0  0  0  0  0  0  0  0
   -5.5352   -0.6586    1.6521 C   0  0  0  0  0  0  0  0  0  0  0  0
   -4.1978   -2.8451    2.0313 C   0  0  0  0  0  0  0  0  0  0  0  0
   -3.4467   -1.6991    2.3767 O   0  0  0  0  0  0  0  0  0  0  0  0
   -5.2605    2.6670   -1.8611 H   0  0  0  0  0  0  0  0  0  0  0  0
   -5.3234    1.9005   -0.2339 H   0  0  0  0  0  0  0  0  0  0  0  0
   -6.7880    1.8940   -1.2732 H   0  0  0  0  0  0  0  0  0  0  0  0
   -5.7252   -0.3519   -1.3655 H   0  0  0  0  0  0  0  0  0  0  0  0
   -5.2769    1.2065   -3.9784 H   0  0  0  0  0  0  0  0  0  0  0  0
   -6.8574    0.5485   -3.3874 H   0  0  0  0  0  0  0  0  0  0  0  0
   -5.5251   -0.5747   -3.8066 H   0  0  0  0  0  0  0  0  0  0  0  0
   -3.4202   -0.5120   -2.5889 H   0  0  0  0  0  0  0  0  0  0  0  0
   -3.2271    1.2342   -2.2677 H   0  0  0  0  0  0  0  0  0  0  0  0
   -3.4206    0.7482    0.2271 H   0  0  0  0  0  0  0  0  0  0  0  0
   -1.2074   -0.0665   -1.5079 H   0  0  0  0  0  0  0  0  0  0  0  0
    1.1175   -0.0398    1.4745 H   0  0  0  0  0  0  0  0  0  0  0  0
    0.7090    2.1655    0.4296 H   0  0  0  0  0  0  0  0  0  0  0  0
    0.7408    1.4062   -1.2113 H   0  0  0  0  0  0  0  0  0  0  0  0
    2.6272    2.7425   -1.7654 H   0  0  0  0  0  0  0  0  0  0  0  0
    2.5718    3.4867   -0.1081 H   0  0  0  0  0  0  0  0  0  0  0  0
    4.8246    3.6826   -1.0084 H   0  0  0  0  0  0  0  0  0  0  0  0
    4.8000    2.5812    0.3949 H   0  0  0  0  0  0  0  0  0  0  0  0
    4.3949    0.7993   -1.8070 H   0  0  0  0  0  0  0  0  0  0  0  0
    5.4117    2.0621   -2.5139 H   0  0  0  0  0  0  0  0  0  0  0  0
    7.0738    0.6836   -1.7294 H   0  0  0  0  0  0  0  0  0  0  0  0
    6.9079    1.6740   -0.2493 H   0  0  0  0  0  0  0  0  0  0  0  0
    5.5565   -1.0644   -0.8132 H   0  0  0  0  0  0  0  0  0  0  0  0
    7.0201   -0.8087    0.1585 H   0  0  0  0  0  0  0  0  0  0  0  0
    2.7522   -0.5370    3.0030 H   0  0  0  0  0  0  0  0  0  0  0  0
    4.0999   -1.7438    3.3600 H   0  0  0  0  0  0  0  0  0  0  0  0
    2.8876   -3.4619    2.3244 H   0  0  0  0  0  0  0  0  0  0  0  0
    1.5015   -2.2621    1.9583 H   0  0  0  0  0  0  0  0  0  0  0  0
    4.0548   -2.8249    0.4025 H   0  0  0  0  0  0  0  0  0  0  0  0
    0.5110   -1.5076   -1.0847 H   0  0  0  0  0  0  0  0  0  0  0  0
   -6.3240   -0.7522    0.8777 H   0  0  0  0  0  0  0  0  0  0  0  0
   -5.2091    0.4007    1.7179 H   0  0  0  0  0  0  0  0  0  0  0  0
   -5.9779   -0.9466    2.6315 H   0  0  0  0  0  0  0  0  0  0  0  0
   -3.5381   -3.6245    1.5896 H   0  0  0  0  0  0  0  0  0  0  0  0
   -4.9488   -3.0804    2.8162 H   0  0  0  0  0  0  0  0  0  0  0  0
  1  2  1  0
  2  3  1  0
  2  4  1  0
  4  5  1  0
  5  6  1  0
  6  7  1  0
  7  8  2  0
  7  9  1  0
  9 10  1  0
 10 11  1  0
 11 12  1  0
 12 13  1  0
 13 14  1  0
 14 15  1  0
 15 16  1  0
 16 17  1  0
 17 18  2  0
 17 19  1  0
 19 20  1  0
 20 21  1  0
 21 22  1  0
 22 23  1  0
 23 24  2  0
 23 25  1  0
  5 26  1  0
 26 27  2  0
 26 28  1  0
 28 29  1  1
 28 30  1  0
 30 31  1  0
 25  9  1  0
 31 28  1  0
 22 19  1  0
  1 32  1  0
  1 33  1  0
  1 34  1  0
  2 35  1  0
  3 36  1  0
  3 37  1  0
  3 38  1  0
  4 39  1  0
  4 40  1  0
  5 41  1  1
  6 42  1  0
  9 43  1  1
 10 44  1  0
 10 45  1  0
 12 46  1  0
 12 47  1  0
 13 48  1  0
 13 49  1  0
 14 50  1  0
 14 51  1  0
 15 52  1  0
 15 53  1  0
 16 54  1  0
 16 55  1  0
 20 56  1  0
 20 57  1  0
 21 58  1  0
 21 59  1  0
 22 60  1  6
 25 61  1  0
 29 62  1  0
 29 63  1  0
 29 64  1  0
 30 65  1  0
 30 66  1  0
M  END
$$$$
