
     RDKit          3D

 66 70  0  0  0  0  0  0  0  0999 V2000
    6.5319    3.4965   -1.4869 N   0  0  0  0  0  0  0  0  0  0  0  0
    5.6711    3.6386   -0.7251 C   0  0  0  0  0  0  0  0  0  0  0  0
    4.5794    3.8164    0.2426 C   0  0  0  0  0  0  0  0  0  0  0  0
    3.8002    2.6409    0.6220 N   0  0  0  0  0  0  0  0  0  0  0  0
    2.7898    2.0990   -0.2488 C   0  0  0  0  0  0  0  0  0  0  0  0
    2.5822    2.6452   -1.3680 O   0  0  0  0  0  0  0  0  0  0  0  0
    1.9361    0.9069    0.1271 C   0  0  2  0  0  0  0  0  0  0  0  0
    2.2757    0.2895    1.5007 C   0  0  0  0  0  0  0  0  0  0  0  0
    1.3184   -0.8214    1.8529 C   0  0  0  0  0  0  0  0  0  0  0  0
    1.7774   -2.1385    2.0031 C   0  0  0  0  0  0  0  0  0  0  0  0
    0.8712   -3.1785    2.2204 C   0  0  0  0  0  0  0  0  0  0  0  0
   -0.5109   -2.9197    2.2418 C   0  0  0  0  0  0  0  0  0  0  0  0
   -0.9625   -1.5943    2.1827 C   0  0  0  0  0  0  0  0  0  0  0  0
   -2.6816   -1.2334    2.2256 Cl  0  0  0  0  0  0  0  0  0  0  0  0
   -0.0524   -0.5516    2.0009 C   0  0  0  0  0  0  0  0  0  0  0  0
   -1.4604   -3.9506    2.2644 O   0  0  0  0  0  0  0  0  0  0  0  0
   -1.2388   -5.2853    1.8026 C   0  0  0  0  0  0  0  0  0  0  0  0
   -0.7098   -5.3365    0.3541 C   0  0  0  0  0  0  0  0  0  0  0  0
   -1.3987   -4.3375   -0.6058 C   0  0  0  0  0  0  0  0  0  0  0  0
   -0.3863   -3.3854   -1.2553 C   0  0  0  0  0  0  0  0  0  0  0  0
   -1.0542   -2.4979   -2.1456 O   0  0  0  0  0  0  0  0  0  0  0  0
   -1.3909   -1.1823   -1.8083 C   0  0  0  0  0  0  0  0  0  0  0  0
   -2.7414   -0.8687   -1.6307 C   0  0  0  0  0  0  0  0  0  0  0  0
   -3.1488    0.4500   -1.3914 C   0  0  0  0  0  0  0  0  0  0  0  0
   -2.1817    1.4786   -1.3576 C   0  0  0  0  0  0  0  0  0  0  0  0
   -0.8330    1.1649   -1.5735 C   0  0  0  0  0  0  0  0  0  0  0  0
   -0.4116   -0.1670   -1.7078 C   0  0  0  0  0  0  0  0  0  0  0  0
    1.0277   -0.4825   -1.8825 C   0  0  0  0  0  0  0  0  0  0  0  0
    1.3698   -1.1551   -2.8938 O   0  0  0  0  0  0  0  0  0  0  0  0
    2.0480   -0.1083   -0.9309 N   0  0  0  0  0  0  0  0  0  0  0  0
   -2.5773    2.9277   -1.2014 C   0  0  0  0  0  0  0  0  0  0  0  0
   -3.9524    3.0899   -0.5489 C   0  0  0  0  0  0  0  0  0  0  0  0
   -4.9779    2.1996   -1.2493 C   0  0  0  0  0  0  0  0  0  0  0  0
   -4.6049    0.7221   -1.0907 C   0  0  0  0  0  0  0  0  0  0  0  0
    3.8156    5.1298    0.2101 C   0  0  0  0  0  0  0  0  0  0  0  0
    4.7917    4.8364    1.3479 C   0  0  0  0  0  0  0  0  0  0  0  0
    4.0680    2.1581    1.5074 H   0  0  0  0  0  0  0  0  0  0  0  0
    0.9069    1.2852    0.2127 H   0  0  0  0  0  0  0  0  0  0  0  0
    3.3233   -0.0851    1.4932 H   0  0  0  0  0  0  0  0  0  0  0  0
    2.1940    1.0675    2.2908 H   0  0  0  0  0  0  0  0  0  0  0  0
    2.8331   -2.3663    1.9252 H   0  0  0  0  0  0  0  0  0  0  0  0
    1.2488   -4.1858    2.3248 H   0  0  0  0  0  0  0  0  0  0  0  0
   -0.4206    0.4640    1.9270 H   0  0  0  0  0  0  0  0  0  0  0  0
   -0.5315   -5.8069    2.4821 H   0  0  0  0  0  0  0  0  0  0  0  0
   -2.2060   -5.8292    1.8488 H   0  0  0  0  0  0  0  0  0  0  0  0
    0.3904   -5.1840    0.3656 H   0  0  0  0  0  0  0  0  0  0  0  0
   -0.8591   -6.3683   -0.0318 H   0  0  0  0  0  0  0  0  0  0  0  0
   -1.9116   -4.9067   -1.4121 H   0  0  0  0  0  0  0  0  0  0  0  0
   -2.1816   -3.7391   -0.0919 H   0  0  0  0  0  0  0  0  0  0  0  0
    0.1692   -2.8146   -0.4821 H   0  0  0  0  0  0  0  0  0  0  0  0
    0.3472   -3.9803   -1.8404 H   0  0  0  0  0  0  0  0  0  0  0  0
   -3.4775   -1.6623   -1.6769 H   0  0  0  0  0  0  0  0  0  0  0  0
   -0.1108    1.9688   -1.6443 H   0  0  0  0  0  0  0  0  0  0  0  0
    2.9945   -0.5316   -1.0698 H   0  0  0  0  0  0  0  0  0  0  0  0
   -1.8246    3.4595   -0.5796 H   0  0  0  0  0  0  0  0  0  0  0  0
   -2.5891    3.4017   -2.2067 H   0  0  0  0  0  0  0  0  0  0  0  0
   -3.8922    2.8207    0.5291 H   0  0  0  0  0  0  0  0  0  0  0  0
   -4.2720    4.1514   -0.6219 H   0  0  0  0  0  0  0  0  0  0  0  0
   -5.0274    2.4614   -2.3288 H   0  0  0  0  0  0  0  0  0  0  0  0
   -5.9819    2.3746   -0.8073 H   0  0  0  0  0  0  0  0  0  0  0  0
   -5.2508    0.1180   -1.7642 H   0  0  0  0  0  0  0  0  0  0  0  0
   -4.8108    0.4054   -0.0451 H   0  0  0  0  0  0  0  0  0  0  0  0
    4.1881    5.8837   -0.5172 H   0  0  0  0  0  0  0  0  0  0  0  0
    2.7475    5.0703    0.5117 H   0  0  0  0  0  0  0  0  0  0  0  0
    4.2922    4.6080    2.3150 H   0  0  0  0  0  0  0  0  0  0  0  0
    5.7334    5.4243    1.2900 H   0  0  0  0  0  0  0  0  0  0  0  0
  1  2  3  0
  2  3  1  0
  3  4  1  0
  4  5  1  0
  5  6  2  0
  5  7  1  0
  7  8  1  0
  8  9  1  0
  9 10  2  0
 10 11  1  0
 11 12  2  0
 12 13  1  0
 13 14  1  0
 13 15  2  0
 12 16  1  0
 16 17  1  0
 17 18  1  0
 18 19  1  0
 19 20  1  0
 20 21  1  0
 21 22  1  0
 22 23  2  0
 23 24  1  0
 24 25  2  0
 25 26  1  0
 26 27  2  0
 27 28  1  0
 28 29  2  0
 28 30  1  0
 25 31  1  0
 31 32  1  0
 32 33  1  0
 33 34  1  0
  3 35  1  0
 35 36  1  0
 36  3  1  0
 30  7  1  0
 15  9  1  0
 27 22  1  0
 34 24  1  0
  4 37  1  0
  7 38  1  1
  8 39  1  0
  8 40  1  0
 10 41  1  0
 11 42  1  0
 15 43  1  0
 17 44  1  0
 17 45  1  0
 18 46  1  0
 18 47  1  0
 19 48  1  0
 19 49  1  0
 20 50  1  0
 20 51  1  0
 23 52  1  0
 26 53  1  0
 30 54  1  0
 31 55  1  0
 31 56  1  0
 32 57  1  0
 32 58  1  0
 33 59  1  0
 33 60  1  0
 34 61  1  0
 34 62  1  0
 35 63  1  0
 35 64  1  0
 36 65  1  0
 36 66  1  0
M  END
$$$$
