
     RDKit          3D

 86 89  0  0  0  0  0  0  0  0999 V2000
    0.7026   -2.6108   -0.7571 O   0  0  0  0  0  0  0  0  0  0  0  0
    0.5692   -3.2100    0.3451 C   0  0  0  0  0  0  0  0  0  0  0  0
    0.9811   -4.6527    0.4456 C   0  0  0  0  0  0  0  0  0  0  0  0
   -0.1605   -5.6035    0.8577 C   0  0  0  0  0  0  0  0  0  0  0  0
   -0.9800   -6.1576   -0.3249 C   0  0  0  0  0  0  0  0  0  0  0  0
   -1.8982   -5.1355   -1.0139 C   0  0  0  0  0  0  0  0  0  0  0  0
   -2.9962   -4.5880   -0.0786 C   0  0  0  0  0  0  0  0  0  0  0  0
   -4.1191   -3.8641   -0.8460 C   0  0  0  0  0  0  0  0  0  0  0  0
   -3.9587   -2.3361   -0.9017 C   0  0  0  0  0  0  0  0  0  0  0  0
   -2.6814   -1.8895   -1.6097 C   0  0  0  0  0  0  0  0  0  0  0  0
   -2.7020   -0.4891   -1.7641 O   0  0  0  0  0  0  0  0  0  0  0  0
   -1.4785   -0.0180   -2.2946 C   0  0  0  0  0  0  0  0  0  0  0  0
   -0.8776    1.0937   -1.4048 C   0  0  1  0  0  0  0  0  0  0  0  0
   -1.9143    2.0591   -0.8685 C   0  0  0  0  0  0  0  0  0  0  0  0
   -1.7944    2.5288    0.2952 O   0  0  0  0  0  0  0  0  0  0  0  0
   -2.9952    2.5048   -1.7049 N   0  0  0  0  0  0  0  0  0  0  0  0
   -4.1977    3.1332   -1.1574 C   0  0  0  0  0  0  0  0  0  0  0  0
   -3.9489    4.5686   -0.7607 C   0  0  0  0  0  0  0  0  0  0  0  0
   -3.1634    5.4109   -1.5694 C   0  0  0  0  0  0  0  0  0  0  0  0
   -2.9986    6.7589   -1.2384 C   0  0  0  0  0  0  0  0  0  0  0  0
   -3.6335    7.2834   -0.1125 C   0  0  0  0  0  0  0  0  0  0  0  0
   -4.4320    6.4626    0.6895 C   0  0  0  0  0  0  0  0  0  0  0  0
   -4.5959    5.1119    0.3694 C   0  0  0  0  0  0  0  0  0  0  0  0
   -5.4004    4.3396    1.1488 F   0  0  0  0  0  0  0  0  0  0  0  0
   -0.0600    0.5098   -0.3263 N   0  0  0  0  0  0  0  0  0  0  0  0
   -0.5911   -0.2660    0.7689 C   0  0  0  0  0  0  0  0  0  0  0  0
   -1.8361   -0.3136    0.9495 O   0  0  0  0  0  0  0  0  0  0  0  0
    0.2893   -1.0621    1.7161 C   0  0  2  0  0  0  0  0  0  0  0  0
    1.8028   -0.7321    1.6829 C   0  0  0  0  0  0  0  0  0  0  0  0
    2.1642    0.6309    2.2233 C   0  0  0  0  0  0  0  0  0  0  0  0
    1.2617    1.4194    2.6181 O   0  0  0  0  0  0  0  0  0  0  0  0
    3.5433    1.0231    2.3274 N   0  0  0  0  0  0  0  0  0  0  0  0
    4.0193    1.9420    3.3522 C   0  0  0  0  0  0  0  0  0  0  0  0
    5.5263    2.0421    3.1606 C   0  0  0  0  0  0  0  0  0  0  0  0
    5.9165    0.8746    2.2550 C   0  0  0  0  0  0  0  0  0  0  0  0
    4.6252    0.4211    1.5589 C   0  0  2  0  0  0  0  0  0  0  0  0
    4.5717    0.8782    0.1141 C   0  0  0  0  0  0  0  0  0  0  0  0
    4.4082    2.2373   -0.2063 C   0  0  0  0  0  0  0  0  0  0  0  0
    4.3968    2.6522   -1.5445 C   0  0  0  0  0  0  0  0  0  0  0  0
    4.5422    1.7170   -2.5701 C   0  0  0  0  0  0  0  0  0  0  0  0
    4.6992    0.3642   -2.2639 C   0  0  0  0  0  0  0  0  0  0  0  0
    4.7174   -0.0567   -0.9286 C   0  0  0  0  0  0  0  0  0  0  0  0
    0.0909   -2.5011    1.4986 N   0  0  0  0  0  0  0  0  0  0  0  0
    1.4382   -4.9854   -0.5149 H   0  0  0  0  0  0  0  0  0  0  0  0
    1.7806   -4.7099    1.2161 H   0  0  0  0  0  0  0  0  0  0  0  0
    0.3092   -6.4817    1.3562 H   0  0  0  0  0  0  0  0  0  0  0  0
   -0.8274   -5.1565    1.6212 H   0  0  0  0  0  0  0  0  0  0  0  0
   -0.2845   -6.5775   -1.0826 H   0  0  0  0  0  0  0  0  0  0  0  0
   -1.6039   -7.0025    0.0382 H   0  0  0  0  0  0  0  0  0  0  0  0
   -2.3799   -5.6574   -1.8658 H   0  0  0  0  0  0  0  0  0  0  0  0
   -1.2825   -4.3159   -1.4360 H   0  0  0  0  0  0  0  0  0  0  0  0
   -2.5567   -3.9115    0.6867 H   0  0  0  0  0  0  0  0  0  0  0  0
   -3.4475   -5.4426    0.4649 H   0  0  0  0  0  0  0  0  0  0  0  0
   -5.0739   -4.0671   -0.3210 H   0  0  0  0  0  0  0  0  0  0  0  0
   -4.2337   -4.2657   -1.8751 H   0  0  0  0  0  0  0  0  0  0  0  0
   -4.8323   -1.9131   -1.4413 H   0  0  0  0  0  0  0  0  0  0  0  0
   -3.9671   -1.9242    0.1295 H   0  0  0  0  0  0  0  0  0  0  0  0
   -1.8182   -2.1908   -0.9836 H   0  0  0  0  0  0  0  0  0  0  0  0
   -2.6190   -2.3898   -2.6048 H   0  0  0  0  0  0  0  0  0  0  0  0
   -0.7058   -0.8077   -2.4617 H   0  0  0  0  0  0  0  0  0  0  0  0
   -1.6868    0.4034   -3.2993 H   0  0  0  0  0  0  0  0  0  0  0  0
   -0.1995    1.6941   -2.0522 H   0  0  0  0  0  0  0  0  0  0  0  0
   -2.9817    2.2740   -2.7228 H   0  0  0  0  0  0  0  0  0  0  0  0
   -4.9999    3.1207   -1.9265 H   0  0  0  0  0  0  0  0  0  0  0  0
   -4.5572    2.5275   -0.2944 H   0  0  0  0  0  0  0  0  0  0  0  0
   -2.6815    5.0254   -2.4596 H   0  0  0  0  0  0  0  0  0  0  0  0
   -2.3911    7.4009   -1.8648 H   0  0  0  0  0  0  0  0  0  0  0  0
   -3.5150    8.3288    0.1418 H   0  0  0  0  0  0  0  0  0  0  0  0
   -4.9352    6.8777    1.5533 H   0  0  0  0  0  0  0  0  0  0  0  0
    0.9691    0.6536   -0.4049 H   0  0  0  0  0  0  0  0  0  0  0  0
   -0.0670   -0.8292    2.7479 H   0  0  0  0  0  0  0  0  0  0  0  0
    2.3288   -1.4802    2.3197 H   0  0  0  0  0  0  0  0  0  0  0  0
    2.2137   -0.8591    0.6542 H   0  0  0  0  0  0  0  0  0  0  0  0
    3.7862    1.5234    4.3530 H   0  0  0  0  0  0  0  0  0  0  0  0
    3.5329    2.9405    3.2321 H   0  0  0  0  0  0  0  0  0  0  0  0
    5.7755    2.9993    2.6559 H   0  0  0  0  0  0  0  0  0  0  0  0
    6.0646    1.9985    4.1360 H   0  0  0  0  0  0  0  0  0  0  0  0
    6.7143    1.1679    1.5400 H   0  0  0  0  0  0  0  0  0  0  0  0
    6.3084    0.0393    2.8835 H   0  0  0  0  0  0  0  0  0  0  0  0
    4.5562   -0.6883    1.6178 H   0  0  0  0  0  0  0  0  0  0  0  0
    4.3021    2.9787    0.5782 H   0  0  0  0  0  0  0  0  0  0  0  0
    4.2701    3.6973   -1.7809 H   0  0  0  0  0  0  0  0  0  0  0  0
    4.5312    2.0412   -3.6021 H   0  0  0  0  0  0  0  0  0  0  0  0
    4.8141   -0.3578   -3.0616 H   0  0  0  0  0  0  0  0  0  0  0  0
    4.8468   -1.1098   -0.7108 H   0  0  0  0  0  0  0  0  0  0  0  0
   -0.3093   -3.0498    2.2941 H   0  0  0  0  0  0  0  0  0  0  0  0
  1  2  2  0
  2  3  1  0
  3  4  1  0
  4  5  1  0
  5  6  1  0
  6  7  1  0
  7  8  1  0
  8  9  1  0
  9 10  1  0
 10 11  1  0
 11 12  1  0
 12 13  1  0
 13 14  1  0
 14 15  2  0
 14 16  1  0
 16 17  1  0
 17 18  1  0
 18 19  2  0
 19 20  1  0
 20 21  2  0
 21 22  1  0
 22 23  2  0
 23 24  1  0
 13 25  1  0
 25 26  1  0
 26 27  2  0
 26 28  1  0
 28 29  1  0
 29 30  1  0
 30 31  2  0
 30 32  1  0
 32 33  1  0
 33 34  1  0
 34 35  1  0
 35 36  1  0
 36 37  1  0
 37 38  2  0
 38 39  1  0
 39 40  2  0
 40 41  1  0
 41 42  2  0
 28 43  1  0
 43  2  1  0
 23 18  1  0
 36 32  1  0
 42 37  1  0
  3 44  1  0
  3 45  1  0
  4 46  1  0
  4 47  1  0
  5 48  1  0
  5 49  1  0
  6 50  1  0
  6 51  1  0
  7 52  1  0
  7 53  1  0
  8 54  1  0
  8 55  1  0
  9 56  1  0
  9 57  1  0
 10 58  1  0
 10 59  1  0
 12 60  1  0
 12 61  1  0
 13 62  1  6
 16 63  1  0
 17 64  1  0
 17 65  1  0
 19 66  1  0
 20 67  1  0
 21 68  1  0
 22 69  1  0
 25 70  1  0
 28 71  1  1
 29 72  1  0
 29 73  1  0
 33 74  1  0
 33 75  1  0
 34 76  1  0
 34 77  1  0
 35 78  1  0
 35 79  1  0
 36 80  1  6
 38 81  1  0
 39 82  1  0
 40 83  1  0
 41 84  1  0
 42 85  1  0
 43 86  1  0
M  END
$$$$
