
     RDKit          3D

 64 68  0  0  0  0  0  0  0  0999 V2000
   -3.1721    3.6710    0.3223 C   0  0  0  0  0  0  0  0  0  0  0  0
   -2.4394    3.5118   -0.7893 C   0  0  0  0  0  0  0  0  0  0  0  0
   -0.9405    3.6039   -0.7561 C   0  0  0  0  0  0  0  0  0  0  0  0
   -0.3972    2.5004   -0.0553 O   0  0  0  0  0  0  0  0  0  0  0  0
   -0.0108    1.4834   -0.9583 C   0  0  0  0  0  0  0  0  0  0  0  0
    0.5392    0.3075   -0.1915 C   0  0  0  0  0  0  0  0  0  0  0  0
   -0.0032   -0.9735   -0.3915 C   0  0  0  0  0  0  0  0  0  0  0  0
    0.5101   -2.0872    0.2948 C   0  0  0  0  0  0  0  0  0  0  0  0
    1.6017   -1.9143    1.1529 C   0  0  0  0  0  0  0  0  0  0  0  0
    2.1557   -0.6487    1.3507 C   0  0  0  0  0  0  0  0  0  0  0  0
    1.6410    0.4718    0.6731 C   0  0  0  0  0  0  0  0  0  0  0  0
    2.1814    1.7590    0.8395 O   0  0  0  0  0  0  0  0  0  0  0  0
    3.4977    2.0682    1.3025 C   0  0  0  0  0  0  0  0  0  0  0  0
    4.5310    1.8266    0.1971 C   0  0  0  0  0  0  0  0  0  0  0  0
    4.8117    0.3852    0.0443 N   0  0  0  0  0  0  0  0  0  0  0  0
    5.8205   -0.1035    0.9920 C   0  0  0  0  0  0  0  0  0  0  0  0
    6.4495   -1.3339    0.3570 C   0  0  0  0  0  0  0  0  0  0  0  0
    6.1478   -1.2170   -1.1289 C   0  0  0  0  0  0  0  0  0  0  0  0
    5.3561    0.0729   -1.2785 C   0  0  0  0  0  0  0  0  0  0  0  0
   -0.0279   -3.4064    0.0938 N   0  0  0  0  0  0  0  0  0  0  0  0
   -1.4196   -3.6827   -0.1213 C   0  0  0  0  0  0  0  0  0  0  0  0
   -1.8091   -4.9274   -0.5055 N   0  0  0  0  0  0  0  0  0  0  0  0
   -3.1210   -5.2210   -0.6980 C   0  0  0  0  0  0  0  0  0  0  0  0
   -4.0941   -4.2424   -0.4934 C   0  0  0  0  0  0  0  0  0  0  0  0
   -3.6831   -2.9664   -0.0836 C   0  0  0  0  0  0  0  0  0  0  0  0
   -2.3588   -2.7242    0.0973 N   0  0  0  0  0  0  0  0  0  0  0  0
   -4.6357   -1.8692    0.1587 C   0  0  0  0  0  0  0  0  0  0  0  0
   -6.0151   -1.9028    0.0252 C   0  0  0  0  0  0  0  0  0  0  0  0
   -6.4556   -0.6381    0.3581 C   0  0  0  0  0  0  0  0  0  0  0  0
   -5.3214    0.0806    0.6789 C   0  0  0  0  0  0  0  0  0  0  0  0
   -4.2566   -0.6728    0.5458 O   0  0  0  0  0  0  0  0  0  0  0  0
   -5.2728    1.5156    1.0821 C   0  0  0  0  0  0  0  0  0  0  0  0
   -5.0999    2.3087   -0.0735 O   0  0  0  0  0  0  0  0  0  0  0  0
   -4.6736    3.6094    0.2817 C   0  0  0  0  0  0  0  0  0  0  0  0
   -2.6821    3.8671    1.2723 H   0  0  0  0  0  0  0  0  0  0  0  0
   -2.9308    3.3436   -1.7439 H   0  0  0  0  0  0  0  0  0  0  0  0
   -0.5509    3.7098   -1.7961 H   0  0  0  0  0  0  0  0  0  0  0  0
   -0.6492    4.5351   -0.2257 H   0  0  0  0  0  0  0  0  0  0  0  0
   -0.8830    1.1680   -1.5756 H   0  0  0  0  0  0  0  0  0  0  0  0
    0.7913    1.8476   -1.6392 H   0  0  0  0  0  0  0  0  0  0  0  0
   -0.8060   -1.1050   -1.1049 H   0  0  0  0  0  0  0  0  0  0  0  0
    2.0147   -2.7630    1.6835 H   0  0  0  0  0  0  0  0  0  0  0  0
    2.9745   -0.5554    2.0461 H   0  0  0  0  0  0  0  0  0  0  0  0
    3.7464    1.5233    2.2354 H   0  0  0  0  0  0  0  0  0  0  0  0
    3.5177    3.1494    1.5545 H   0  0  0  0  0  0  0  0  0  0  0  0
    5.4578    2.4033    0.4162 H   0  0  0  0  0  0  0  0  0  0  0  0
    4.1132    2.2414   -0.7488 H   0  0  0  0  0  0  0  0  0  0  0  0
    5.3493   -0.3647    1.9625 H   0  0  0  0  0  0  0  0  0  0  0  0
    6.6195    0.6527    1.1712 H   0  0  0  0  0  0  0  0  0  0  0  0
    7.5456   -1.3613    0.5445 H   0  0  0  0  0  0  0  0  0  0  0  0
    5.9851   -2.2572    0.7692 H   0  0  0  0  0  0  0  0  0  0  0  0
    7.0831   -1.1795   -1.7290 H   0  0  0  0  0  0  0  0  0  0  0  0
    5.5330   -2.0826   -1.4615 H   0  0  0  0  0  0  0  0  0  0  0  0
    4.5288   -0.0562   -2.0099 H   0  0  0  0  0  0  0  0  0  0  0  0
    6.0391    0.8801   -1.6346 H   0  0  0  0  0  0  0  0  0  0  0  0
    0.6172   -4.2228    0.1940 H   0  0  0  0  0  0  0  0  0  0  0  0
   -3.4096   -6.2166   -1.0082 H   0  0  0  0  0  0  0  0  0  0  0  0
   -5.1368   -4.4835   -0.6508 H   0  0  0  0  0  0  0  0  0  0  0  0
   -6.6338   -2.7357   -0.2800 H   0  0  0  0  0  0  0  0  0  0  0  0
   -7.4783   -0.2848    0.3633 H   0  0  0  0  0  0  0  0  0  0  0  0
   -4.4293    1.6351    1.8014 H   0  0  0  0  0  0  0  0  0  0  0  0
   -6.2235    1.7897    1.5913 H   0  0  0  0  0  0  0  0  0  0  0  0
   -5.0403    4.3217   -0.4877 H   0  0  0  0  0  0  0  0  0  0  0  0
   -5.0982    3.9563    1.2534 H   0  0  0  0  0  0  0  0  0  0  0  0
  1  2  2  0
  2  3  1  0
  3  4  1  0
  4  5  1  0
  5  6  1  0
  6  7  1  0
  7  8  2  0
  8  9  1  0
  9 10  2  0
 10 11  1  0
 11 12  1  0
 12 13  1  0
 13 14  1  0
 14 15  1  0
 15 16  1  0
 16 17  1  0
 17 18  1  0
 18 19  1  0
  8 20  1  0
 20 21  1  0
 21 22  1  0
 22 23  2  0
 23 24  1  0
 24 25  2  0
 25 26  1  0
 25 27  1  0
 27 28  2  0
 28 29  1  0
 29 30  2  0
 30 31  1  0
 30 32  1  0
 32 33  1  0
 33 34  1  0
 34  1  1  0
 11  6  2  0
 19 15  1  0
 26 21  2  0
 31 27  1  0
  1 35  1  0
  2 36  1  0
  3 37  1  0
  3 38  1  0
  5 39  1  0
  5 40  1  0
  7 41  1  0
  9 42  1  0
 10 43  1  0
 13 44  1  0
 13 45  1  0
 14 46  1  0
 14 47  1  0
 16 48  1  0
 16 49  1  0
 17 50  1  0
 17 51  1  0
 18 52  1  0
 18 53  1  0
 19 54  1  0
 19 55  1  0
 20 56  1  0
 23 57  1  0
 24 58  1  0
 28 59  1  0
 29 60  1  0
 32 61  1  0
 32 62  1  0
 34 63  1  0
 34 64  1  0
M  END
$$$$
