
     RDKit          3D

 61 63  0  0  0  0  0  0  0  0999 V2000
    4.7322    1.0803   -2.3123 C   0  0  0  0  0  0  0  0  0  0  0  0
    4.4538    0.1698   -1.1980 N   0  0  0  0  0  0  0  0  0  0  0  0
    3.2369    0.2884   -0.4213 C   0  0  0  0  0  0  0  0  0  0  0  0
    2.3888    1.4068   -0.5456 C   0  0  0  0  0  0  0  0  0  0  0  0
    1.2334    1.5005    0.2418 C   0  0  0  0  0  0  0  0  0  0  0  0
    0.9212    0.4594    1.1240 C   0  0  0  0  0  0  0  0  0  0  0  0
    1.7451   -0.6725    1.1830 C   0  0  0  0  0  0  0  0  0  0  0  0
    2.8787   -0.7095    0.4329 N   0  0  0  0  0  0  0  0  0  0  0  0
    1.4122   -1.8072    2.0000 N   0  0  0  0  0  0  0  0  0  0  0  0
    0.0438   -2.3071    2.1855 C   0  0  0  0  0  0  0  0  0  0  0  0
   -0.2760   -3.4349    1.1896 C   0  0  0  0  0  0  0  0  0  0  0  0
   -0.3766   -2.9545   -0.2767 C   0  0  0  0  0  0  0  0  0  0  0  0
   -1.8131   -2.9330   -0.8286 C   0  0  0  0  0  0  0  0  0  0  0  0
   -2.7569   -2.0122   -0.0863 C   0  0  0  0  0  0  0  0  0  0  0  0
   -4.0313   -2.4722    0.2845 C   0  0  0  0  0  0  0  0  0  0  0  0
   -4.9440   -1.6105    0.8969 C   0  0  0  0  0  0  0  0  0  0  0  0
   -4.5947   -0.2833    1.1523 C   0  0  0  0  0  0  0  0  0  0  0  0
   -3.3256    0.1980    0.7926 C   0  0  0  0  0  0  0  0  0  0  0  0
   -2.4220   -0.6676    0.1518 C   0  0  0  0  0  0  0  0  0  0  0  0
   -2.9172    1.6104    1.1593 C   0  0  0  0  0  0  0  0  0  0  0  0
   -2.8800    2.6196   -0.0251 C   0  0  1  0  0  0  0  0  0  0  0  0
   -4.3033    2.7541   -0.6259 C   0  0  0  0  0  0  0  0  0  0  0  0
   -2.4667    3.9346    0.4869 N   0  0  0  0  0  0  0  0  0  0  0  0
   -1.8912    2.1785   -1.1074 C   0  0  0  0  0  0  0  0  0  0  0  0
   -2.3253    1.5498   -2.1110 O   0  0  0  0  0  0  0  0  0  0  0  0
   -0.5142    2.4647   -1.0773 O   0  0  0  0  0  0  0  0  0  0  0  0
    0.3037    2.6719    0.0762 C   0  0  0  0  0  0  0  0  0  0  0  0
    5.6988   -0.9759   -0.7611 S   0  0  0  0  0  6  0  0  0  0  0  0
    6.9880   -0.1188    0.1181 C   0  0  0  0  0  0  0  0  0  0  0  0
    6.2677   -1.5992   -2.0046 O   0  0  0  0  0  0  0  0  0  0  0  0
    5.1556   -2.0728    0.1108 O   0  0  0  0  0  0  0  0  0  0  0  0
    5.6703    0.8027   -2.8358 H   0  0  0  0  0  0  0  0  0  0  0  0
    4.8529    2.1151   -1.9322 H   0  0  0  0  0  0  0  0  0  0  0  0
    3.9048    1.0393   -3.0486 H   0  0  0  0  0  0  0  0  0  0  0  0
    2.6180    2.2094   -1.2334 H   0  0  0  0  0  0  0  0  0  0  0  0
    0.0541    0.5354    1.7586 H   0  0  0  0  0  0  0  0  0  0  0  0
    2.1875   -2.4684    2.2352 H   0  0  0  0  0  0  0  0  0  0  0  0
   -0.7084   -1.5013    2.1041 H   0  0  0  0  0  0  0  0  0  0  0  0
   -0.0412   -2.7160    3.2159 H   0  0  0  0  0  0  0  0  0  0  0  0
   -1.2213   -3.9315    1.5002 H   0  0  0  0  0  0  0  0  0  0  0  0
    0.5225   -4.2053    1.2664 H   0  0  0  0  0  0  0  0  0  0  0  0
    0.2054   -3.6589   -0.9103 H   0  0  0  0  0  0  0  0  0  0  0  0
    0.0971   -1.9658   -0.4263 H   0  0  0  0  0  0  0  0  0  0  0  0
   -2.2028   -3.9744   -0.8246 H   0  0  0  0  0  0  0  0  0  0  0  0
   -1.7779   -2.6089   -1.8906 H   0  0  0  0  0  0  0  0  0  0  0  0
   -4.3258   -3.4963    0.0903 H   0  0  0  0  0  0  0  0  0  0  0  0
   -5.9248   -1.9733    1.1771 H   0  0  0  0  0  0  0  0  0  0  0  0
   -5.3103    0.3658    1.6419 H   0  0  0  0  0  0  0  0  0  0  0  0
   -1.4523   -0.2983   -0.1457 H   0  0  0  0  0  0  0  0  0  0  0  0
   -3.6117    2.0013    1.9364 H   0  0  0  0  0  0  0  0  0  0  0  0
   -1.9381    1.5670    1.6657 H   0  0  0  0  0  0  0  0  0  0  0  0
   -4.3072    3.4995   -1.4510 H   0  0  0  0  0  0  0  0  0  0  0  0
   -5.0253    3.0909    0.1499 H   0  0  0  0  0  0  0  0  0  0  0  0
   -4.6656    1.7849   -1.0325 H   0  0  0  0  0  0  0  0  0  0  0  0
   -2.4500    4.6275   -0.2979 H   0  0  0  0  0  0  0  0  0  0  0  0
   -3.1667    4.2804    1.1848 H   0  0  0  0  0  0  0  0  0  0  0  0
    0.9037    3.5930   -0.0826 H   0  0  0  0  0  0  0  0  0  0  0  0
   -0.2800    2.8419    0.9979 H   0  0  0  0  0  0  0  0  0  0  0  0
    7.4181    0.6682   -0.5359 H   0  0  0  0  0  0  0  0  0  0  0  0
    7.7876   -0.8338    0.4084 H   0  0  0  0  0  0  0  0  0  0  0  0
    6.5656    0.3541    1.0295 H   0  0  0  0  0  0  0  0  0  0  0  0
  1  2  1  0
  2  3  1  0
  3  4  2  0
  4  5  1  0
  5  6  2  0
  6  7  1  0
  7  8  2  0
  7  9  1  0
  9 10  1  0
 10 11  1  0
 11 12  1  0
 12 13  1  0
 13 14  1  0
 14 15  2  0
 15 16  1  0
 16 17  2  0
 17 18  1  0
 18 19  2  0
 18 20  1  0
 20 21  1  0
 21 22  1  0
 21 23  1  1
 21 24  1  0
 24 25  2  0
 24 26  1  0
 26 27  1  0
  2 28  1  0
 28 29  1  0
 28 30  2  0
 28 31  2  0
  8  3  1  0
 19 14  1  0
 27  5  1  0
  1 32  1  0
  1 33  1  0
  1 34  1  0
  4 35  1  0
  6 36  1  0
  9 37  1  0
 10 38  1  0
 10 39  1  0
 11 40  1  0
 11 41  1  0
 12 42  1  0
 12 43  1  0
 13 44  1  0
 13 45  1  0
 15 46  1  0
 16 47  1  0
 17 48  1  0
 19 49  1  0
 20 50  1  0
 20 51  1  0
 22 52  1  0
 22 53  1  0
 22 54  1  0
 23 55  1  0
 23 56  1  0
 27 57  1  0
 27 58  1  0
 29 59  1  0
 29 60  1  0
 29 61  1  0
M  END
$$$$
