
     RDKit          3D

 66 69  0  0  0  0  0  0  0  0999 V2000
   -4.5415   -2.4995    1.4877 C   0  0  0  0  0  0  0  0  0  0  0  0
   -3.7042   -1.2046    1.5517 C   0  0  0  0  0  0  0  0  0  0  0  0
   -4.4842   -0.0855    2.2548 C   0  0  0  0  0  0  0  0  0  0  0  0
   -3.1633   -0.7581    0.2316 N   0  0  0  0  0  0  0  0  0  0  0  0
   -2.2272   -1.7260   -0.3956 C   0  0  0  0  0  0  0  0  0  0  0  0
   -1.1019   -2.1515    0.5196 C   0  0  0  0  0  0  0  0  0  0  0  0
   -1.1888   -3.2724    1.0909 O   0  0  0  0  0  0  0  0  0  0  0  0
    0.0679   -1.3303    0.7337 N   0  0  0  0  0  0  0  0  0  0  0  0
    1.2965   -1.9232    1.2804 C   0  0  0  0  0  0  0  0  0  0  0  0
    2.5320   -1.3819    0.5487 C   0  0  0  0  0  0  0  0  0  0  0  0
    2.5126    0.1642    0.4677 C   0  0  1  0  0  0  0  0  0  0  0  0
    3.7447    0.7240   -0.2806 C   0  0  0  0  0  0  0  0  0  0  0  0
    5.0225    0.4190    0.4470 C   0  0  0  0  0  0  0  0  0  0  0  0
    5.3175    1.0710    1.4850 O   0  0  0  0  0  0  0  0  0  0  0  0
    5.8881   -0.6237   -0.0211 N   0  0  0  0  0  0  0  0  0  0  0  0
    7.0385   -1.0672    0.7572 C   0  0  0  0  0  0  0  0  0  0  0  0
    8.2284   -0.1282    0.6645 C   0  0  0  0  0  0  0  0  0  0  0  0
    8.2410   -1.4489   -0.0891 C   0  0  0  0  0  0  0  0  0  0  0  0
    1.1802    0.6855   -0.1450 C   0  0  1  0  0  0  0  0  0  0  0  0
    1.0299    0.3230   -1.6193 C   0  0  0  0  0  0  0  0  0  0  0  0
    0.1806    0.9121   -2.4834 C   0  0  0  0  0  0  0  0  0  0  0  0
   -0.8326    1.9609   -2.1246 C   0  0  0  0  0  0  0  0  0  0  0  0
   -2.0387    1.3193   -1.7217 O   0  0  0  0  0  0  0  0  0  0  0  0
   -3.1816    1.9806   -1.2506 C   0  0  0  0  0  0  0  0  0  0  0  0
   -3.2769    3.3864   -1.2560 C   0  0  0  0  0  0  0  0  0  0  0  0
   -4.4397    4.0178   -0.8115 C   0  0  0  0  0  0  0  0  0  0  0  0
   -5.5205    3.2585   -0.3657 C   0  0  0  0  0  0  0  0  0  0  0  0
   -5.4388    1.8653   -0.3521 C   0  0  0  0  0  0  0  0  0  0  0  0
   -4.2649    1.2128   -0.7713 C   0  0  0  0  0  0  0  0  0  0  0  0
   -4.1905   -0.2977   -0.7426 C   0  0  0  0  0  0  0  0  0  0  0  0
    0.0057    0.1356    0.6812 C   0  0  0  0  0  0  0  0  0  0  0  0
   -3.9439   -3.3435    1.0903 H   0  0  0  0  0  0  0  0  0  0  0  0
   -5.4553   -2.3824    0.8736 H   0  0  0  0  0  0  0  0  0  0  0  0
   -4.8602   -2.7839    2.5133 H   0  0  0  0  0  0  0  0  0  0  0  0
   -2.8480   -1.4109    2.2300 H   0  0  0  0  0  0  0  0  0  0  0  0
   -5.4935    0.0358    1.8141 H   0  0  0  0  0  0  0  0  0  0  0  0
   -3.9282    0.8729    2.1837 H   0  0  0  0  0  0  0  0  0  0  0  0
   -4.6128   -0.3315    3.3310 H   0  0  0  0  0  0  0  0  0  0  0  0
   -1.7614   -1.2670   -1.2939 H   0  0  0  0  0  0  0  0  0  0  0  0
   -2.7784   -2.6222   -0.7566 H   0  0  0  0  0  0  0  0  0  0  0  0
    1.3676   -1.6833    2.3638 H   0  0  0  0  0  0  0  0  0  0  0  0
    1.2889   -3.0293    1.1741 H   0  0  0  0  0  0  0  0  0  0  0  0
    3.4356   -1.7207    1.0996 H   0  0  0  0  0  0  0  0  0  0  0  0
    2.5799   -1.8261   -0.4678 H   0  0  0  0  0  0  0  0  0  0  0  0
    2.5637    0.5510    1.5123 H   0  0  0  0  0  0  0  0  0  0  0  0
    3.7980    0.3145   -1.3108 H   0  0  0  0  0  0  0  0  0  0  0  0
    3.6522    1.8278   -0.3701 H   0  0  0  0  0  0  0  0  0  0  0  0
    5.6201   -1.1672   -0.8733 H   0  0  0  0  0  0  0  0  0  0  0  0
    6.8748   -1.5923    1.7224 H   0  0  0  0  0  0  0  0  0  0  0  0
    8.0911    0.7610    0.0138 H   0  0  0  0  0  0  0  0  0  0  0  0
    8.8750   -0.1174    1.5670 H   0  0  0  0  0  0  0  0  0  0  0  0
    8.8899   -2.2250    0.3663 H   0  0  0  0  0  0  0  0  0  0  0  0
    8.1135   -1.3430   -1.1877 H   0  0  0  0  0  0  0  0  0  0  0  0
    1.1900    1.7919   -0.0462 H   0  0  0  0  0  0  0  0  0  0  0  0
    1.6797   -0.4395   -2.0362 H   0  0  0  0  0  0  0  0  0  0  0  0
    0.1878    0.5685   -3.5142 H   0  0  0  0  0  0  0  0  0  0  0  0
   -1.0308    2.5807   -3.0245 H   0  0  0  0  0  0  0  0  0  0  0  0
   -0.4586    2.6271   -1.3207 H   0  0  0  0  0  0  0  0  0  0  0  0
   -2.4620    4.0004   -1.6132 H   0  0  0  0  0  0  0  0  0  0  0  0
   -4.5064    5.0981   -0.8223 H   0  0  0  0  0  0  0  0  0  0  0  0
   -6.4262    3.7501   -0.0337 H   0  0  0  0  0  0  0  0  0  0  0  0
   -6.2975    1.2973   -0.0172 H   0  0  0  0  0  0  0  0  0  0  0  0
   -3.9598   -0.6341   -1.7789 H   0  0  0  0  0  0  0  0  0  0  0  0
   -5.1891   -0.7265   -0.5259 H   0  0  0  0  0  0  0  0  0  0  0  0
    0.0656    0.5352    1.7173 H   0  0  0  0  0  0  0  0  0  0  0  0
   -0.9519    0.4960    0.2781 H   0  0  0  0  0  0  0  0  0  0  0  0
  1  2  1  0
  2  3  1  0
  2  4  1  0
  4  5  1  0
  5  6  1  0
  6  7  2  0
  6  8  1  0
  8  9  1  0
  9 10  1  0
 10 11  1  0
 11 12  1  0
 12 13  1  0
 13 14  2  0
 13 15  1  0
 15 16  1  0
 16 17  1  0
 17 18  1  0
 11 19  1  0
 19 20  1  0
 20 21  2  0
 21 22  1  0
 22 23  1  0
 23 24  1  0
 24 25  2  0
 25 26  1  0
 26 27  2  0
 27 28  1  0
 28 29  2  0
 29 30  1  0
 19 31  1  0
 30  4  1  0
 31  8  1  0
 18 16  1  0
 29 24  1  0
  1 32  1  0
  1 33  1  0
  1 34  1  0
  2 35  1  0
  3 36  1  0
  3 37  1  0
  3 38  1  0
  5 39  1  0
  5 40  1  0
  9 41  1  0
  9 42  1  0
 10 43  1  0
 10 44  1  0
 11 45  1  1
 12 46  1  0
 12 47  1  0
 15 48  1  0
 16 49  1  0
 17 50  1  0
 17 51  1  0
 18 52  1  0
 18 53  1  0
 19 54  1  6
 20 55  1  0
 21 56  1  0
 22 57  1  0
 22 58  1  0
 25 59  1  0
 26 60  1  0
 27 61  1  0
 28 62  1  0
 30 63  1  0
 30 64  1  0
 31 65  1  0
 31 66  1  0
M  END
$$$$
