
     RDKit          3D

 59 62  0  0  0  0  0  0  0  0999 V2000
    5.2478    0.7913   -2.4451 C   0  0  0  0  0  0  0  0  0  0  0  0
    5.3449    0.7118   -0.6652 S   0  0  0  0  0  6  0  0  0  0  0  0
    5.9595    1.9844   -0.1572 O   0  0  0  0  0  0  0  0  0  0  0  0
    6.2205   -0.4455   -0.2712 O   0  0  0  0  0  0  0  0  0  0  0  0
    3.7547    0.5482    0.0205 N   0  0  0  0  0  0  0  0  0  0  0  0
    3.2120   -0.8131   -0.1754 C   0  0  1  0  0  0  0  0  0  0  0  0
    3.5297   -1.6841    1.0637 C   0  0  0  0  0  0  0  0  0  0  0  0
    2.7611   -1.2260    2.3123 C   0  0  0  0  0  0  0  0  0  0  0  0
    1.2533   -1.1261    2.0405 C   0  0  0  0  0  0  0  0  0  0  0  0
    1.0019   -0.3148    0.8352 N   0  0  0  0  0  0  0  0  0  0  0  0
    0.8339    1.1113    1.0939 C   0  0  0  0  0  0  0  0  0  0  0  0
    1.6752    1.7019    1.8228 O   0  0  0  0  0  0  0  0  0  0  0  0
   -0.3607    1.9179    0.6287 C   0  0  0  0  0  0  0  0  0  0  0  0
   -1.5293    1.6044    1.4114 O   0  0  0  0  0  0  0  0  0  0  0  0
   -2.8511    2.0186    1.1077 C   0  0  0  0  0  0  0  0  0  0  0  0
   -3.3728    3.1670    1.7090 C   0  0  0  0  0  0  0  0  0  0  0  0
   -4.7036    3.5319    1.4871 C   0  0  0  0  0  0  0  0  0  0  0  0
   -5.5278    2.7456    0.6733 C   0  0  0  0  0  0  0  0  0  0  0  0
   -5.0246    1.5963    0.0553 C   0  0  0  0  0  0  0  0  0  0  0  0
   -5.8388    0.8503   -0.7327 F   0  0  0  0  0  0  0  0  0  0  0  0
   -3.6860    1.2326    0.2546 C   0  0  0  0  0  0  0  0  0  0  0  0
   -3.0480    0.0557   -0.4235 C   0  0  1  0  0  0  0  0  0  0  0  0
   -2.7346   -1.1184    0.5353 C   0  0  0  0  0  0  0  0  0  0  0  0
   -1.7364   -2.1237   -0.0890 C   0  0  0  0  0  0  0  0  0  0  0  0
   -1.0486   -1.5162   -1.3351 C   0  0  2  0  0  0  0  0  0  0  0  0
   -2.1566   -1.2680   -2.4102 C   0  0  0  0  0  0  0  0  0  0  0  0
   -3.3952   -0.4719   -1.8291 C   0  0  0  0  0  0  0  0  0  0  0  0
    0.0434   -2.2687   -1.8123 O   0  0  0  0  0  0  0  0  0  0  0  0
    1.1668   -2.2138   -0.9199 C   0  0  0  0  0  0  0  0  0  0  0  0
    1.6699   -0.7820   -0.4203 C   0  0  0  0  0  0  0  0  0  0  0  0
    4.8971   -0.1797   -2.8510 H   0  0  0  0  0  0  0  0  0  0  0  0
    4.5388    1.5901   -2.7398 H   0  0  0  0  0  0  0  0  0  0  0  0
    6.2502    1.0160   -2.8617 H   0  0  0  0  0  0  0  0  0  0  0  0
    3.1682    1.2505   -0.4831 H   0  0  0  0  0  0  0  0  0  0  0  0
    3.6891   -1.2843   -1.0629 H   0  0  0  0  0  0  0  0  0  0  0  0
    4.6165   -1.6555    1.2845 H   0  0  0  0  0  0  0  0  0  0  0  0
    3.2774   -2.7458    0.8523 H   0  0  0  0  0  0  0  0  0  0  0  0
    3.1532   -0.2422    2.6467 H   0  0  0  0  0  0  0  0  0  0  0  0
    2.9371   -1.9513    3.1361 H   0  0  0  0  0  0  0  0  0  0  0  0
    0.8368   -2.1439    1.9340 H   0  0  0  0  0  0  0  0  0  0  0  0
    0.7453   -0.6820    2.9255 H   0  0  0  0  0  0  0  0  0  0  0  0
   -0.4967    1.7709   -0.4574 H   0  0  0  0  0  0  0  0  0  0  0  0
   -0.1412    3.0002    0.7568 H   0  0  0  0  0  0  0  0  0  0  0  0
   -2.7512    3.7679    2.3603 H   0  0  0  0  0  0  0  0  0  0  0  0
   -5.1035    4.4197    1.9588 H   0  0  0  0  0  0  0  0  0  0  0  0
   -6.5605    3.0319    0.5198 H   0  0  0  0  0  0  0  0  0  0  0  0
   -2.1596    0.5934   -0.6948 H   0  0  0  0  0  0  0  0  0  0  0  0
   -3.6828   -1.6417    0.7883 H   0  0  0  0  0  0  0  0  0  0  0  0
   -2.3099   -0.7425    1.4909 H   0  0  0  0  0  0  0  0  0  0  0  0
   -2.2744   -3.0511   -0.3870 H   0  0  0  0  0  0  0  0  0  0  0  0
   -1.0090   -2.4209    0.6866 H   0  0  0  0  0  0  0  0  0  0  0  0
   -0.6336   -0.5320   -1.1163 H   0  0  0  0  0  0  0  0  0  0  0  0
   -1.7118   -0.6912   -3.2514 H   0  0  0  0  0  0  0  0  0  0  0  0
   -2.5031   -2.2428   -2.8206 H   0  0  0  0  0  0  0  0  0  0  0  0
   -4.2804   -1.1419   -1.7664 H   0  0  0  0  0  0  0  0  0  0  0  0
   -3.6488    0.3738   -2.5063 H   0  0  0  0  0  0  0  0  0  0  0  0
    1.9968   -2.6814   -1.4888 H   0  0  0  0  0  0  0  0  0  0  0  0
    1.0150   -2.9227   -0.0858 H   0  0  0  0  0  0  0  0  0  0  0  0
    1.4846   -0.0585   -1.2457 H   0  0  0  0  0  0  0  0  0  0  0  0
  1  2  1  0
  2  3  2  0
  2  4  2  0
  2  5  1  0
  5  6  1  0
  6  7  1  0
  7  8  1  0
  8  9  1  0
  9 10  1  0
 10 11  1  0
 11 12  2  0
 11 13  1  0
 13 14  1  0
 14 15  1  0
 15 16  2  0
 16 17  1  0
 17 18  2  0
 18 19  1  0
 19 20  1  0
 19 21  2  0
 21 22  1  0
 22 23  1  0
 23 24  1  0
 24 25  1  0
 25 26  1  0
 26 27  1  0
 25 28  1  0
 28 29  1  0
 29 30  1  0
 30  6  1  0
 30 10  1  0
 21 15  1  0
 27 22  1  0
  1 31  1  0
  1 32  1  0
  1 33  1  0
  5 34  1  0
  6 35  1  6
  7 36  1  0
  7 37  1  0
  8 38  1  0
  8 39  1  0
  9 40  1  0
  9 41  1  0
 13 42  1  0
 13 43  1  0
 16 44  1  0
 17 45  1  0
 18 46  1  0
 22 47  1  6
 23 48  1  0
 23 49  1  0
 24 50  1  0
 24 51  1  0
 25 52  1  1
 26 53  1  0
 26 54  1  0
 27 55  1  0
 27 56  1  0
 29 57  1  0
 29 58  1  0
 30 59  1  0
M  END
$$$$
