
     RDKit          3D

175180  0  0  0  0  0  0  0  0999 V2000
   -6.8363   -7.2917    1.3023 C   0  0  0  0  0  0  0  0  0  0  0  0
   -6.2848   -6.0290    1.6389 O   0  0  0  0  0  0  0  0  0  0  0  0
   -6.2309   -5.1030    0.5490 C   0  0  2  0  0  0  0  0  0  0  0  0
   -5.4745   -5.7291   -0.6584 C   0  0  0  0  0  0  0  0  0  0  0  0
   -5.4270   -3.8922    1.0768 C   0  0  0  0  0  0  0  0  0  0  0  0
   -5.5716   -2.6426    0.2023 C   0  0  2  0  0  0  0  0  0  0  0  0
   -4.8181   -1.6059    0.8095 O   0  0  0  0  0  0  0  0  0  0  0  0
   -4.4593   -0.5640   -0.0981 C   0  0  1  0  0  0  0  0  0  0  0  0
   -4.3932    0.8202    0.6777 C   0  0  2  0  0  0  0  0  0  0  0  0
   -5.2422    0.7343    1.9715 C   0  0  0  0  0  0  0  0  0  0  0  0
   -4.8339    2.0542   -0.2146 C   0  0  1  0  0  0  0  0  0  0  0  0
   -6.2458    2.2465   -0.0841 O   0  0  0  0  0  0  0  0  0  0  0  0
   -6.9559    2.1576   -1.3119 C   0  0  2  0  0  0  0  0  0  0  0  0
   -7.0870    3.4580   -1.8883 O   0  0  0  0  0  0  0  0  0  0  0  0
   -8.3136    4.1263   -1.6136 C   0  0  2  0  0  0  0  0  0  0  0  0
   -8.4307    4.5877   -0.1446 C   0  0  0  0  0  0  0  0  0  0  0  0
   -9.5565    3.3382   -2.1013 C   0  0  0  0  0  0  0  0  0  0  0  0
   -9.2893    1.8178   -2.1818 C   0  0  2  0  0  0  0  0  0  0  0  0
  -10.5148    0.9694   -2.1745 N   0  0  0  0  0  0  0  0  0  0  0  0
  -11.2664    1.0903   -3.4335 C   0  0  0  0  0  0  0  0  0  0  0  0
  -11.4126    1.1615   -1.0195 C   0  0  0  0  0  0  0  0  0  0  0  0
   -8.2922    1.4064   -1.0867 C   0  0  1  0  0  0  0  0  0  0  0  0
   -8.0590    0.0240   -1.1345 O   0  0  0  0  0  0  0  0  0  0  0  0
   -4.1038    3.4381    0.0531 C   0  0  2  0  0  0  0  0  0  0  0  0
   -4.3048    3.9067    1.5118 C   0  0  0  0  0  0  0  0  0  0  0  0
   -4.6682    4.3665   -0.8455 O   0  0  0  0  0  0  0  0  0  0  0  0
   -2.5810    3.3598   -0.2952 C   0  0  0  0  0  0  0  0  0  0  0  0
   -1.6845    4.6397   -0.1923 C   0  0  1  0  0  0  0  0  0  0  0  0
   -2.2995    5.8871   -0.8433 C   0  0  0  0  0  0  0  0  0  0  0  0
   -1.1151    4.9869    1.2120 C   0  0  0  0  0  0  0  0  0  0  0  0
   -0.7903    3.8148    2.0528 N   0  0  0  0  0  0  0  0  0  0  0  0
   -1.3391    3.7411    3.4151 C   0  0  0  0  0  0  0  0  0  0  0  0
    0.1747    2.8033    1.6816 C   0  0  0  0  0  0  0  0  0  0  0  0
    0.1912    1.7335    2.3378 O   0  0  0  0  0  0  0  0  0  0  0  0
    1.1180    2.9795    0.5064 C   0  0  0  0  0  0  0  0  0  0  0  0
    2.3837    2.0696    0.4217 C   0  0  1  0  0  0  0  0  0  0  0  0
    3.0878    1.7342    1.7578 C   0  0  0  0  0  0  0  0  0  0  0  0
    4.3185    0.8972    1.5108 C   0  0  0  0  0  0  0  0  0  0  0  0
    4.2474   -0.5007    1.6301 C   0  0  0  0  0  0  0  0  0  0  0  0
    5.3264   -1.2973    1.2496 C   0  0  0  0  0  0  0  0  0  0  0  0
    6.5079   -0.7087    0.7793 C   0  0  0  0  0  0  0  0  0  0  0  0
    7.5909   -1.5413    0.3484 N   0  0  0  0  0  0  0  0  0  0  0  0
    8.9518   -1.3108    0.7372 C   0  0  0  0  0  0  0  0  0  0  0  0
    9.2210   -0.4667    1.6375 O   0  0  0  0  0  0  0  0  0  0  0  0
   10.0553   -2.1254    0.1156 C   0  0  2  0  0  0  0  0  0  0  0  0
   10.0333   -3.5657    0.6568 C   0  0  0  0  0  0  0  0  0  0  0  0
   11.0929   -4.4153   -0.0097 C   0  0  0  0  0  0  0  0  0  0  0  0
   10.8573   -4.8867   -1.3144 C   0  0  0  0  0  0  0  0  0  0  0  0
   11.8317   -5.6274   -1.9885 C   0  0  0  0  0  0  0  0  0  0  0  0
   13.0499   -5.9026   -1.3728 C   0  0  0  0  0  0  0  0  0  0  0  0
   13.3004   -5.4431   -0.0807 C   0  0  0  0  0  0  0  0  0  0  0  0
   12.3330   -4.7008    0.6095 C   0  0  0  0  0  0  0  0  0  0  0  0
   12.7180   -4.1613    2.2428 Cl  0  0  0  0  0  0  0  0  0  0  0  0
   11.3581   -1.5047    0.3817 N   0  0  0  0  0  0  0  0  0  0  0  0
   12.0432   -0.6845   -0.5731 C   0  0  0  0  0  0  0  0  0  0  0  0
   11.4662   -0.3283   -1.6373 O   0  0  0  0  0  0  0  0  0  0  0  0
   13.3918   -0.2740   -0.3091 N   0  0  0  0  0  0  0  0  0  0  0  0
   14.0651    0.7742   -1.0723 C   0  0  0  0  0  0  0  0  0  0  0  0
   13.9259    2.0861   -0.3506 C   0  0  0  0  0  0  0  0  0  0  0  0
   14.8795    2.4706    0.6063 C   0  0  0  0  0  0  0  0  0  0  0  0
   14.7295    3.6701    1.3083 C   0  0  0  0  0  0  0  0  0  0  0  0
   13.6194    4.4852    1.0695 C   0  0  0  0  0  0  0  0  0  0  0  0
   12.6575    4.1009    0.1294 C   0  0  0  0  0  0  0  0  0  0  0  0
   12.8048    2.9017   -0.5754 C   0  0  0  0  0  0  0  0  0  0  0  0
    6.5920    0.6898    0.6775 C   0  0  0  0  0  0  0  0  0  0  0  0
    5.5011    1.4870    1.0366 C   0  0  0  0  0  0  0  0  0  0  0  0
    2.1886    0.8674   -0.4118 N   0  0  0  0  0  0  0  0  0  0  0  0
    0.9536    0.1616   -0.5781 C   0  0  0  0  0  0  0  0  0  0  0  0
    0.3846    0.2065   -1.6987 O   0  0  0  0  0  0  0  0  0  0  0  0
    0.4448   -0.7751    0.4874 C   0  0  2  0  0  0  0  0  0  0  0  0
    1.0287   -2.2125    0.3012 C   0  0  0  0  0  0  0  0  0  0  0  0
    0.8546   -3.0902    1.5497 C   0  0  0  0  0  0  0  0  0  0  0  0
    0.6213   -2.9475   -0.9886 C   0  0  0  0  0  0  0  0  0  0  0  0
   -1.0222   -0.6439    0.6361 N   0  0  0  0  0  0  0  0  0  0  0  0
   -2.0535   -1.4991    0.1227 C   0  0  0  0  0  0  0  0  0  0  0  0
   -2.1584   -2.6723    0.5626 O   0  0  0  0  0  0  0  0  0  0  0  0
   -3.1332   -0.9935   -0.8214 C   0  0  2  0  0  0  0  0  0  0  0  0
   -2.6097    0.0081   -1.8440 C   0  0  0  0  0  0  0  0  0  0  0  0
   -6.9270   -2.2510    0.1372 O   0  0  0  0  0  0  0  0  0  0  0  0
   -7.7365   -3.2248   -0.5048 C   0  0  1  0  0  0  0  0  0  0  0  0
   -7.5428   -3.2517   -2.0307 C   0  0  0  0  0  0  0  0  0  0  0  0
   -7.6767   -4.6206    0.1777 C   0  0  2  0  0  0  0  0  0  0  0  0
   -8.4479   -4.5676    1.3561 O   0  0  0  0  0  0  0  0  0  0  0  0
   -7.7550   -7.2180    0.6889 H   0  0  0  0  0  0  0  0  0  0  0  0
   -6.0806   -7.9275    0.7931 H   0  0  0  0  0  0  0  0  0  0  0  0
   -7.1181   -7.8104    2.2435 H   0  0  0  0  0  0  0  0  0  0  0  0
   -4.5820   -6.2793   -0.2958 H   0  0  0  0  0  0  0  0  0  0  0  0
   -5.1014   -4.9840   -1.3770 H   0  0  0  0  0  0  0  0  0  0  0  0
   -6.1187   -6.4420   -1.2135 H   0  0  0  0  0  0  0  0  0  0  0  0
   -4.3542   -4.1641    1.1691 H   0  0  0  0  0  0  0  0  0  0  0  0
   -5.7897   -3.6344    2.1009 H   0  0  0  0  0  0  0  0  0  0  0  0
   -5.1779   -2.8669   -0.8056 H   0  0  0  0  0  0  0  0  0  0  0  0
   -5.2504   -0.4478   -0.8796 H   0  0  0  0  0  0  0  0  0  0  0  0
   -3.3628    0.9725    1.0257 H   0  0  0  0  0  0  0  0  0  0  0  0
   -5.3063    1.6915    2.5164 H   0  0  0  0  0  0  0  0  0  0  0  0
   -6.2775    0.4042    1.7399 H   0  0  0  0  0  0  0  0  0  0  0  0
   -4.7918    0.0081    2.6821 H   0  0  0  0  0  0  0  0  0  0  0  0
   -4.5397    1.8102   -1.2524 H   0  0  0  0  0  0  0  0  0  0  0  0
   -6.4220    1.5421   -2.0723 H   0  0  0  0  0  0  0  0  0  0  0  0
   -8.2892    5.0693   -2.2064 H   0  0  0  0  0  0  0  0  0  0  0  0
   -7.4919    5.0645    0.1952 H   0  0  0  0  0  0  0  0  0  0  0  0
   -8.6763    3.7568    0.5449 H   0  0  0  0  0  0  0  0  0  0  0  0
   -9.2384    5.3476   -0.0575 H   0  0  0  0  0  0  0  0  0  0  0  0
   -9.8330    3.6958   -3.1192 H   0  0  0  0  0  0  0  0  0  0  0  0
  -10.4141    3.5728   -1.4420 H   0  0  0  0  0  0  0  0  0  0  0  0
   -8.7557    1.6372   -3.1455 H   0  0  0  0  0  0  0  0  0  0  0  0
  -11.6730    2.1160   -3.5618 H   0  0  0  0  0  0  0  0  0  0  0  0
  -12.1105    0.3686   -3.4413 H   0  0  0  0  0  0  0  0  0  0  0  0
  -10.6147    0.8466   -4.2992 H   0  0  0  0  0  0  0  0  0  0  0  0
  -12.0241    2.0837   -1.1189 H   0  0  0  0  0  0  0  0  0  0  0  0
  -10.8529    1.1828   -0.0640 H   0  0  0  0  0  0  0  0  0  0  0  0
  -12.1098    0.2999   -0.9555 H   0  0  0  0  0  0  0  0  0  0  0  0
   -8.6886    1.6771   -0.0840 H   0  0  0  0  0  0  0  0  0  0  0  0
   -8.8016   -0.4076   -0.6349 H   0  0  0  0  0  0  0  0  0  0  0  0
   -5.3823    3.8738    1.7874 H   0  0  0  0  0  0  0  0  0  0  0  0
   -3.7312    3.2696    2.2081 H   0  0  0  0  0  0  0  0  0  0  0  0
   -3.9845    4.9610    1.6348 H   0  0  0  0  0  0  0  0  0  0  0  0
   -5.3834    4.8822   -0.4009 H   0  0  0  0  0  0  0  0  0  0  0  0
   -2.5310    3.0625   -1.3632 H   0  0  0  0  0  0  0  0  0  0  0  0
   -2.0951    2.5437    0.2591 H   0  0  0  0  0  0  0  0  0  0  0  0
   -0.8055    4.4364   -0.8301 H   0  0  0  0  0  0  0  0  0  0  0  0
   -3.1511    6.2769   -0.2480 H   0  0  0  0  0  0  0  0  0  0  0  0
   -1.5403    6.6947   -0.9102 H   0  0  0  0  0  0  0  0  0  0  0  0
   -2.6383    5.6609   -1.8775 H   0  0  0  0  0  0  0  0  0  0  0  0
   -1.8331    5.6505    1.7340 H   0  0  0  0  0  0  0  0  0  0  0  0
   -0.1998    5.6014    1.0884 H   0  0  0  0  0  0  0  0  0  0  0  0
   -1.8882    2.7858    3.5501 H   0  0  0  0  0  0  0  0  0  0  0  0
   -0.5087    3.7821    4.1544 H   0  0  0  0  0  0  0  0  0  0  0  0
   -2.0357    4.5796    3.6364 H   0  0  0  0  0  0  0  0  0  0  0  0
    1.4624    4.0384    0.5024 H   0  0  0  0  0  0  0  0  0  0  0  0
    0.5401    2.8216   -0.4244 H   0  0  0  0  0  0  0  0  0  0  0  0
    3.1226    2.6961   -0.1283 H   0  0  0  0  0  0  0  0  0  0  0  0
    2.4322    1.1794    2.4550 H   0  0  0  0  0  0  0  0  0  0  0  0
    3.3777    2.6785    2.2700 H   0  0  0  0  0  0  0  0  0  0  0  0
    3.3424   -0.9754    1.9940 H   0  0  0  0  0  0  0  0  0  0  0  0
    5.2462   -2.3725    1.3222 H   0  0  0  0  0  0  0  0  0  0  0  0
    7.3615   -2.4122   -0.1840 H   0  0  0  0  0  0  0  0  0  0  0  0
    9.8728   -2.1659   -0.9815 H   0  0  0  0  0  0  0  0  0  0  0  0
   10.1491   -3.5608    1.7618 H   0  0  0  0  0  0  0  0  0  0  0  0
    9.0390   -4.0219    0.4541 H   0  0  0  0  0  0  0  0  0  0  0  0
    9.9247   -4.6644   -1.8163 H   0  0  0  0  0  0  0  0  0  0  0  0
   11.6425   -5.9777   -2.9964 H   0  0  0  0  0  0  0  0  0  0  0  0
   13.8041   -6.4739   -1.8988 H   0  0  0  0  0  0  0  0  0  0  0  0
   14.2510   -5.6629    0.3893 H   0  0  0  0  0  0  0  0  0  0  0  0
   11.7743   -1.5959    1.3354 H   0  0  0  0  0  0  0  0  0  0  0  0
   13.8623   -0.6328    0.5528 H   0  0  0  0  0  0  0  0  0  0  0  0
   13.6515    0.8482   -2.1010 H   0  0  0  0  0  0  0  0  0  0  0  0
   15.1376    0.5076   -1.1756 H   0  0  0  0  0  0  0  0  0  0  0  0
   15.7382    1.8419    0.8116 H   0  0  0  0  0  0  0  0  0  0  0  0
   15.4706    3.9681    2.0435 H   0  0  0  0  0  0  0  0  0  0  0  0
   13.5005    5.4143    1.6127 H   0  0  0  0  0  0  0  0  0  0  0  0
   11.7945    4.7302   -0.0498 H   0  0  0  0  0  0  0  0  0  0  0  0
   12.0483    2.6083   -1.2931 H   0  0  0  0  0  0  0  0  0  0  0  0
    7.4838    1.1594    0.2754 H   0  0  0  0  0  0  0  0  0  0  0  0
    5.5620    2.5641    0.9059 H   0  0  0  0  0  0  0  0  0  0  0  0
    2.8938    0.7166   -1.1698 H   0  0  0  0  0  0  0  0  0  0  0  0
    0.8923   -0.4194    1.4363 H   0  0  0  0  0  0  0  0  0  0  0  0
    2.1269   -2.0741    0.2020 H   0  0  0  0  0  0  0  0  0  0  0  0
    1.2528   -2.5637    2.4438 H   0  0  0  0  0  0  0  0  0  0  0  0
    1.4245   -4.0352    1.4273 H   0  0  0  0  0  0  0  0  0  0  0  0
   -0.2012   -3.3430    1.7399 H   0  0  0  0  0  0  0  0  0  0  0  0
    1.2130   -3.8841   -1.0822 H   0  0  0  0  0  0  0  0  0  0  0  0
    0.8440   -2.3312   -1.8832 H   0  0  0  0  0  0  0  0  0  0  0  0
   -0.4407   -3.2362   -1.0117 H   0  0  0  0  0  0  0  0  0  0  0  0
   -1.3455    0.1784    1.1902 H   0  0  0  0  0  0  0  0  0  0  0  0
   -3.3902   -1.8641   -1.4529 H   0  0  0  0  0  0  0  0  0  0  0  0
   -1.8570   -0.4855   -2.4890 H   0  0  0  0  0  0  0  0  0  0  0  0
   -3.4232    0.3516   -2.5153 H   0  0  0  0  0  0  0  0  0  0  0  0
   -2.1342    0.8628   -1.3419 H   0  0  0  0  0  0  0  0  0  0  0  0
   -8.7829   -2.8692   -0.3797 H   0  0  0  0  0  0  0  0  0  0  0  0
   -6.5791   -3.6906   -2.3375 H   0  0  0  0  0  0  0  0  0  0  0  0
   -7.5970   -2.2195   -2.4353 H   0  0  0  0  0  0  0  0  0  0  0  0
   -8.3503   -3.8507   -2.5018 H   0  0  0  0  0  0  0  0  0  0  0  0
   -8.1394   -5.3611   -0.5147 H   0  0  0  0  0  0  0  0  0  0  0  0
   -9.3997   -4.6553    1.0897 H   0  0  0  0  0  0  0  0  0  0  0  0
  1  2  1  0
  3  2  1  1
  3  4  1  0
  3  5  1  0
  5  6  1  0
  6  7  1  0
  7  8  1  0
  8  9  1  0
  9 10  1  0
  9 11  1  0
 11 12  1  0
 12 13  1  0
 13 14  1  0
 14 15  1  0
 15 16  1  0
 15 17  1  0
 17 18  1  0
 18 19  1  0
 19 20  1  0
 19 21  1  0
 18 22  1  0
 22 23  1  0
 11 24  1  0
 24 25  1  0
 24 26  1  6
 24 27  1  0
 27 28  1  0
 28 29  1  0
 28 30  1  0
 30 31  1  0
 31 32  1  0
 31 33  1  0
 33 34  2  0
 33 35  1  0
 35 36  1  0
 36 37  1  0
 37 38  1  0
 38 39  2  0
 39 40  1  0
 40 41  2  0
 41 42  1  0
 42 43  1  0
 43 44  2  0
 43 45  1  0
 45 46  1  0
 46 47  1  0
 47 48  2  0
 48 49  1  0
 49 50  2  0
 50 51  1  0
 51 52  2  0
 52 53  1  0
 45 54  1  0
 54 55  1  0
 55 56  2  0
 55 57  1  0
 57 58  1  0
 58 59  1  0
 59 60  2  0
 60 61  1  0
 61 62  2  0
 62 63  1  0
 63 64  2  0
 41 65  1  0
 65 66  2  0
 36 67  1  0
 67 68  1  0
 68 69  2  0
 68 70  1  0
 70 71  1  0
 71 72  1  0
 71 73  1  0
 70 74  1  0
 74 75  1  0
 75 76  2  0
 75 77  1  0
 77 78  1  0
  6 79  1  0
 79 80  1  0
 80 81  1  0
 80 82  1  0
 82 83  1  0
 82  3  1  0
 77  8  1  0
 22 13  1  0
 66 38  1  0
 52 47  1  0
 64 59  1  0
  1 84  1  0
  1 85  1  0
  1 86  1  0
  4 87  1  0
  4 88  1  0
  4 89  1  0
  5 90  1  0
  5 91  1  0
  6 92  1  6
  8 93  1  6
  9 94  1  1
 10 95  1  0
 10 96  1  0
 10 97  1  0
 11 98  1  6
 13 99  1  6
 15100  1  6
 16101  1  0
 16102  1  0
 16103  1  0
 17104  1  0
 17105  1  0
 18106  1  6
 20107  1  0
 20108  1  0
 20109  1  0
 21110  1  0
 21111  1  0
 21112  1  0
 22113  1  1
 23114  1  0
 25115  1  0
 25116  1  0
 25117  1  0
 26118  1  0
 27119  1  0
 27120  1  0
 28121  1  6
 29122  1  0
 29123  1  0
 29124  1  0
 30125  1  0
 30126  1  0
 32127  1  0
 32128  1  0
 32129  1  0
 35130  1  0
 35131  1  0
 36132  1  6
 37133  1  0
 37134  1  0
 39135  1  0
 40136  1  0
 42137  1  0
 45138  1  6
 46139  1  0
 46140  1  0
 48141  1  0
 49142  1  0
 50143  1  0
 51144  1  0
 54145  1  0
 57146  1  0
 58147  1  0
 58148  1  0
 60149  1  0
 61150  1  0
 62151  1  0
 63152  1  0
 64153  1  0
 65154  1  0
 66155  1  0
 67156  1  0
 70157  1  1
 71158  1  0
 72159  1  0
 72160  1  0
 72161  1  0
 73162  1  0
 73163  1  0
 73164  1  0
 74165  1  0
 77166  1  6
 78167  1  0
 78168  1  0
 78169  1  0
 80170  1  6
 81171  1  0
 81172  1  0
 81173  1  0
 82174  1  6
 83175  1  0
M  END
$$$$
