
     RDKit          3D

 67 71  0  0  0  0  0  0  0  0999 V2000
    0.7836   -1.4060    2.7096 O   0  0  0  0  0  0  0  0  0  0  0  0
    0.6424   -0.8885    1.5677 C   0  0  0  0  0  0  0  0  0  0  0  0
   -0.2239    0.2542    1.4478 N   0  0  0  0  0  0  0  0  0  0  0  0
   -0.1900    1.2607    0.3886 C   0  0  0  0  0  0  0  0  0  0  0  0
   -1.5321    1.3077   -0.3538 C   0  0  2  0  0  0  0  0  0  0  0  0
   -1.5016    2.3841   -1.4604 C   0  0  0  0  0  0  0  0  0  0  0  0
   -2.9094    2.6989   -1.9982 C   0  0  0  0  0  0  0  0  0  0  0  0
   -3.9250    1.6438   -1.5624 C   0  0  0  0  0  0  0  0  0  0  0  0
   -3.8779    1.4902   -0.0193 C   0  0  1  0  0  0  0  0  0  0  0  0
   -4.6707    0.2677    0.4928 C   0  0  0  0  0  0  0  0  0  0  0  0
   -4.0475   -1.1027    0.1935 C   0  0  0  0  0  0  0  0  0  0  0  0
   -2.8416   -1.2759    0.9304 O   0  0  0  0  0  0  0  0  0  0  0  0
   -2.2827   -2.5389    1.1381 C   0  0  0  0  0  0  0  0  0  0  0  0
   -2.7483   -3.3292    2.1972 C   0  0  0  0  0  0  0  0  0  0  0  0
   -2.1638   -4.5707    2.4611 C   0  0  0  0  0  0  0  0  0  0  0  0
   -1.1122   -5.0305    1.6654 C   0  0  0  0  0  0  0  0  0  0  0  0
   -0.6475   -4.2535    0.6001 C   0  0  0  0  0  0  0  0  0  0  0  0
   -1.2258   -3.0043    0.3309 C   0  0  0  0  0  0  0  0  0  0  0  0
   -0.7460   -2.2129   -0.8149 C   0  0  0  0  0  0  0  0  0  0  0  0
   -1.5076   -2.0989   -1.8136 O   0  0  0  0  0  0  0  0  0  0  0  0
    0.5637   -1.5963   -0.8327 N   0  0  0  0  0  0  0  0  0  0  0  0
    1.0306   -1.0691   -2.1297 C   0  0  0  0  0  0  0  0  0  0  0  0
    2.4950   -0.6379   -2.1282 C   0  0  0  0  0  0  0  0  0  0  0  0
    2.8066    0.0646   -0.8783 N   0  0  0  0  0  0  0  0  0  0  0  0
    4.1230    0.7299   -0.9684 C   0  0  0  0  0  0  0  0  0  0  0  0
    4.2693    1.7465    0.1340 C   0  0  0  0  0  0  0  0  0  0  0  0
    3.3648    2.8185    0.2235 C   0  0  0  0  0  0  0  0  0  0  0  0
    3.4709    3.7447    1.2650 C   0  0  0  0  0  0  0  0  0  0  0  0
    4.4826    3.6090    2.2200 C   0  0  0  0  0  0  0  0  0  0  0  0
    5.3910    2.5509    2.1334 C   0  0  0  0  0  0  0  0  0  0  0  0
    5.2857    1.6198    1.0962 C   0  0  0  0  0  0  0  0  0  0  0  0
    2.7841   -0.9124    0.2215 C   0  0  0  0  0  0  0  0  0  0  0  0
    1.3808   -1.5361    0.4059 C   0  0  1  0  0  0  0  0  0  0  0  0
   -2.5781    1.5585    0.5689 O   0  0  0  0  0  0  0  0  0  0  0  0
   -0.8539    0.4521    2.2584 H   0  0  0  0  0  0  0  0  0  0  0  0
    0.6215    1.0612   -0.3274 H   0  0  0  0  0  0  0  0  0  0  0  0
    0.0172    2.2498    0.8515 H   0  0  0  0  0  0  0  0  0  0  0  0
   -1.6794    0.3181   -0.8294 H   0  0  0  0  0  0  0  0  0  0  0  0
   -1.0496    3.3236   -1.0702 H   0  0  0  0  0  0  0  0  0  0  0  0
   -0.8600    2.0236   -2.2936 H   0  0  0  0  0  0  0  0  0  0  0  0
   -3.2378    3.6900   -1.6149 H   0  0  0  0  0  0  0  0  0  0  0  0
   -2.8898    2.7586   -3.1090 H   0  0  0  0  0  0  0  0  0  0  0  0
   -4.9442    1.9529   -1.8824 H   0  0  0  0  0  0  0  0  0  0  0  0
   -3.6899    0.6871   -2.0723 H   0  0  0  0  0  0  0  0  0  0  0  0
   -4.4243    2.3759    0.3736 H   0  0  0  0  0  0  0  0  0  0  0  0
   -4.7947    0.3615    1.5943 H   0  0  0  0  0  0  0  0  0  0  0  0
   -5.6914    0.2932    0.0515 H   0  0  0  0  0  0  0  0  0  0  0  0
   -3.8488   -1.2276   -0.8905 H   0  0  0  0  0  0  0  0  0  0  0  0
   -4.7790   -1.8869    0.4918 H   0  0  0  0  0  0  0  0  0  0  0  0
   -3.5527   -2.9704    2.8271 H   0  0  0  0  0  0  0  0  0  0  0  0
   -2.5224   -5.1732    3.2863 H   0  0  0  0  0  0  0  0  0  0  0  0
   -0.6605   -5.9918    1.8716 H   0  0  0  0  0  0  0  0  0  0  0  0
    0.1598   -4.6267   -0.0186 H   0  0  0  0  0  0  0  0  0  0  0  0
    0.9053   -1.8478   -2.9121 H   0  0  0  0  0  0  0  0  0  0  0  0
    0.3993   -0.2012   -2.4138 H   0  0  0  0  0  0  0  0  0  0  0  0
    2.6491    0.0323   -3.0036 H   0  0  0  0  0  0  0  0  0  0  0  0
    3.1557   -1.5250   -2.2684 H   0  0  0  0  0  0  0  0  0  0  0  0
    4.2149    1.2839   -1.9295 H   0  0  0  0  0  0  0  0  0  0  0  0
    4.9490   -0.0175   -0.9464 H   0  0  0  0  0  0  0  0  0  0  0  0
    2.5726    2.9284   -0.5065 H   0  0  0  0  0  0  0  0  0  0  0  0
    2.7652    4.5622    1.3356 H   0  0  0  0  0  0  0  0  0  0  0  0
    4.5630    4.3249    3.0267 H   0  0  0  0  0  0  0  0  0  0  0  0
    6.1737    2.4461    2.8737 H   0  0  0  0  0  0  0  0  0  0  0  0
    5.9904    0.7989    1.0496 H   0  0  0  0  0  0  0  0  0  0  0  0
    3.1039   -0.4285    1.1716 H   0  0  0  0  0  0  0  0  0  0  0  0
    3.5237   -1.7246    0.0314 H   0  0  0  0  0  0  0  0  0  0  0  0
    1.5714   -2.5889    0.7117 H   0  0  0  0  0  0  0  0  0  0  0  0
  1  2  2  0
  2  3  1  0
  3  4  1  0
  4  5  1  0
  5  6  1  0
  6  7  1  0
  7  8  1  0
  8  9  1  0
  9 10  1  0
 10 11  1  0
 11 12  1  0
 12 13  1  0
 13 14  2  0
 14 15  1  0
 15 16  2  0
 16 17  1  0
 17 18  2  0
 18 19  1  0
 19 20  2  0
 19 21  1  0
 21 22  1  0
 22 23  1  0
 23 24  1  0
 24 25  1  0
 25 26  1  0
 26 27  2  0
 27 28  1  0
 28 29  2  0
 29 30  1  0
 30 31  2  0
 24 32  1  0
 32 33  1  0
  9 34  1  0
 33  2  1  0
 34  5  1  0
 18 13  1  0
 33 21  1  0
 31 26  1  0
  3 35  1  0
  4 36  1  0
  4 37  1  0
  5 38  1  6
  6 39  1  0
  6 40  1  0
  7 41  1  0
  7 42  1  0
  8 43  1  0
  8 44  1  0
  9 45  1  1
 10 46  1  0
 10 47  1  0
 11 48  1  0
 11 49  1  0
 14 50  1  0
 15 51  1  0
 16 52  1  0
 17 53  1  0
 22 54  1  0
 22 55  1  0
 23 56  1  0
 23 57  1  0
 25 58  1  0
 25 59  1  0
 27 60  1  0
 28 61  1  0
 29 62  1  0
 30 63  1  0
 31 64  1  0
 32 65  1  0
 32 66  1  0
 33 67  1  1
M  END
$$$$
