
     RDKit          3D

 89 92  0  0  0  0  0  0  0  0999 V2000
   -6.9502    5.0046    1.9857 C   0  0  0  0  0  0  0  0  0  0  0  0
   -7.6166    4.6092    0.8049 O   0  0  0  0  0  0  0  0  0  0  0  0
   -6.7397    4.6906   -0.3006 C   0  0  0  0  0  0  0  0  0  0  0  0
   -6.0037    3.3877   -0.4815 C   0  0  0  0  0  0  0  0  0  0  0  0
   -6.6713    2.2747   -0.9986 C   0  0  0  0  0  0  0  0  0  0  0  0
   -6.0233    1.0360   -1.1221 C   0  0  0  0  0  0  0  0  0  0  0  0
   -4.6683    0.9271   -0.7267 C   0  0  0  0  0  0  0  0  0  0  0  0
   -3.9967    2.0299   -0.1500 C   0  0  0  0  0  0  0  0  0  0  0  0
   -4.6777    3.2569   -0.0472 C   0  0  0  0  0  0  0  0  0  0  0  0
   -2.6394    1.9093    0.4603 C   0  0  0  0  0  0  0  0  0  0  0  0
   -2.1889    2.8718    1.1364 O   0  0  0  0  0  0  0  0  0  0  0  0
   -1.8486    0.7144    0.3359 N   0  0  0  0  0  0  0  0  0  0  0  0
   -0.7981    0.3839    1.3205 C   0  0  2  0  0  0  0  0  0  0  0  0
    0.6090    0.7484    0.7611 C   0  0  2  0  0  0  0  0  0  0  0  0
    1.1121   -0.2647   -0.0751 O   0  0  0  0  0  0  0  0  0  0  0  0
    1.5960    1.0167    1.9214 C   0  0  0  0  0  0  0  0  0  0  0  0
    2.9541    1.3715    1.4705 N   0  0  0  0  0  0  0  0  0  0  0  0
    3.9077    0.2432    1.4023 C   0  0  0  0  0  0  0  0  0  0  0  0
    4.1346   -0.4207    2.7789 C   0  0  0  0  0  0  0  0  0  0  0  0
    3.2589   -1.4804    2.9589 F   0  0  0  0  0  0  0  0  0  0  0  0
    5.2463    0.7507    0.8978 C   0  0  0  0  0  0  0  0  0  0  0  0
    5.7751    1.9648    1.3731 C   0  0  0  0  0  0  0  0  0  0  0  0
    7.0458    2.3809    0.9801 C   0  0  0  0  0  0  0  0  0  0  0  0
    7.8178    1.5824    0.1356 C   0  0  0  0  0  0  0  0  0  0  0  0
    7.3313    0.3433   -0.3467 C   0  0  0  0  0  0  0  0  0  0  0  0
    8.2372   -0.5293   -1.2457 C   0  0  0  0  0  0  0  0  0  0  0  0
    8.6171    0.2638   -2.5136 C   0  0  0  0  0  0  0  0  0  0  0  0
    7.5659   -1.8491   -1.7019 C   0  0  0  0  0  0  0  0  0  0  0  0
    9.5217   -0.8943   -0.4740 C   0  0  0  0  0  0  0  0  0  0  0  0
    6.0308   -0.0577    0.0518 C   0  0  0  0  0  0  0  0  0  0  0  0
   -0.9264   -1.0709    1.8627 C   0  0  0  0  0  0  0  0  0  0  0  0
   -1.1139   -2.1292    0.8033 C   0  0  0  0  0  0  0  0  0  0  0  0
   -0.0581   -2.9718    0.4113 C   0  0  0  0  0  0  0  0  0  0  0  0
   -0.2579   -3.9239   -0.5950 C   0  0  0  0  0  0  0  0  0  0  0  0
   -1.4962   -4.0185   -1.2408 C   0  0  0  0  0  0  0  0  0  0  0  0
   -2.5377   -3.1607   -0.8702 C   0  0  0  0  0  0  0  0  0  0  0  0
   -2.3645   -2.2734    0.1929 C   0  0  0  0  0  0  0  0  0  0  0  0
   -3.7057   -3.0941   -1.6258 O   0  0  0  0  0  0  0  0  0  0  0  0
   -4.7474   -4.0529   -1.5555 C   0  0  0  0  0  0  0  0  0  0  0  0
   -5.7973   -3.6573   -0.5002 C   0  0  0  0  0  0  0  0  0  0  0  0
   -6.1464   -2.1466   -0.4259 C   0  0  0  0  0  0  0  0  0  0  0  0
   -6.2919   -1.4540   -1.7936 C   0  0  0  0  0  0  0  0  0  0  0  0
   -6.7854   -0.0825   -1.6248 N   0  0  0  0  0  0  0  0  0  0  0  0
   -7.6275    4.8347    2.8465 H   0  0  0  0  0  0  0  0  0  0  0  0
   -6.0312    4.3985    2.1630 H   0  0  0  0  0  0  0  0  0  0  0  0
   -6.7019    6.0901    1.9511 H   0  0  0  0  0  0  0  0  0  0  0  0
   -6.0261    5.5459   -0.2337 H   0  0  0  0  0  0  0  0  0  0  0  0
   -7.3486    4.8860   -1.2100 H   0  0  0  0  0  0  0  0  0  0  0  0
   -7.7118    2.3659   -1.2881 H   0  0  0  0  0  0  0  0  0  0  0  0
   -4.1497   -0.0116   -0.8419 H   0  0  0  0  0  0  0  0  0  0  0  0
   -4.1881    4.1146    0.4046 H   0  0  0  0  0  0  0  0  0  0  0  0
   -1.8943    0.1874   -0.5613 H   0  0  0  0  0  0  0  0  0  0  0  0
   -0.9671    1.0196    2.2169 H   0  0  0  0  0  0  0  0  0  0  0  0
    0.5247    1.6976    0.1744 H   0  0  0  0  0  0  0  0  0  0  0  0
    0.5485   -0.2751   -0.8931 H   0  0  0  0  0  0  0  0  0  0  0  0
    1.2108    1.8847    2.4985 H   0  0  0  0  0  0  0  0  0  0  0  0
    1.6042    0.1729    2.6314 H   0  0  0  0  0  0  0  0  0  0  0  0
    2.9055    1.8420    0.5320 H   0  0  0  0  0  0  0  0  0  0  0  0
    3.5206   -0.5196    0.6940 H   0  0  0  0  0  0  0  0  0  0  0  0
    3.9893    0.3215    3.5938 H   0  0  0  0  0  0  0  0  0  0  0  0
    5.1698   -0.8298    2.8747 H   0  0  0  0  0  0  0  0  0  0  0  0
    5.2099    2.5848    2.0657 H   0  0  0  0  0  0  0  0  0  0  0  0
    7.4444    3.3190    1.3425 H   0  0  0  0  0  0  0  0  0  0  0  0
    8.8119    1.9326   -0.1303 H   0  0  0  0  0  0  0  0  0  0  0  0
    9.2270    1.1608   -2.2716 H   0  0  0  0  0  0  0  0  0  0  0  0
    9.2187   -0.3621   -3.2071 H   0  0  0  0  0  0  0  0  0  0  0  0
    7.7018    0.5941   -3.0455 H   0  0  0  0  0  0  0  0  0  0  0  0
    8.2511   -2.4374   -2.3492 H   0  0  0  0  0  0  0  0  0  0  0  0
    7.3129   -2.4920   -0.8287 H   0  0  0  0  0  0  0  0  0  0  0  0
    6.6466   -1.6467   -2.2922 H   0  0  0  0  0  0  0  0  0  0  0  0
    9.2689   -1.4483    0.4571 H   0  0  0  0  0  0  0  0  0  0  0  0
   10.1134    0.0062   -0.1988 H   0  0  0  0  0  0  0  0  0  0  0  0
   10.1807   -1.5426   -1.0948 H   0  0  0  0  0  0  0  0  0  0  0  0
    5.6177   -1.0037   -0.2631 H   0  0  0  0  0  0  0  0  0  0  0  0
   -1.7998   -1.1178    2.5544 H   0  0  0  0  0  0  0  0  0  0  0  0
   -0.0492   -1.3287    2.4894 H   0  0  0  0  0  0  0  0  0  0  0  0
    0.9151   -2.8814    0.8706 H   0  0  0  0  0  0  0  0  0  0  0  0
    0.5609   -4.5590   -0.9067 H   0  0  0  0  0  0  0  0  0  0  0  0
   -1.6270   -4.7100   -2.0641 H   0  0  0  0  0  0  0  0  0  0  0  0
   -3.1798   -1.6436    0.5047 H   0  0  0  0  0  0  0  0  0  0  0  0
   -4.3367   -5.0605   -1.3332 H   0  0  0  0  0  0  0  0  0  0  0  0
   -5.2428   -4.0962   -2.5507 H   0  0  0  0  0  0  0  0  0  0  0  0
   -5.4215   -3.9696    0.4977 H   0  0  0  0  0  0  0  0  0  0  0  0
   -6.7282   -4.2322   -0.6960 H   0  0  0  0  0  0  0  0  0  0  0  0
   -5.3820   -1.6202    0.1799 H   0  0  0  0  0  0  0  0  0  0  0  0
   -7.1086   -2.0374    0.1281 H   0  0  0  0  0  0  0  0  0  0  0  0
   -5.3373   -1.4297   -2.3640 H   0  0  0  0  0  0  0  0  0  0  0  0
   -7.0332   -2.0297   -2.3974 H   0  0  0  0  0  0  0  0  0  0  0  0
   -7.7722    0.0961   -1.9280 H   0  0  0  0  0  0  0  0  0  0  0  0
  1  2  1  0
  2  3  1  0
  3  4  1  0
  4  5  2  0
  5  6  1  0
  6  7  2  0
  7  8  1  0
  8  9  2  0
  8 10  1  0
 10 11  2  0
 10 12  1  0
 12 13  1  0
 13 14  1  0
 14 15  1  0
 14 16  1  0
 16 17  1  0
 17 18  1  0
 18 19  1  0
 19 20  1  0
 18 21  1  0
 21 22  2  0
 22 23  1  0
 23 24  2  0
 24 25  1  0
 25 26  1  0
 26 27  1  0
 26 28  1  0
 26 29  1  0
 25 30  2  0
 13 31  1  0
 31 32  1  0
 32 33  2  0
 33 34  1  0
 34 35  2  0
 35 36  1  0
 36 37  2  0
 36 38  1  0
 38 39  1  0
 39 40  1  0
 40 41  1  0
 41 42  1  0
 42 43  1  0
  9  4  1  0
 30 21  1  0
 37 32  1  0
 43  6  1  0
  1 44  1  0
  1 45  1  0
  1 46  1  0
  3 47  1  0
  3 48  1  0
  5 49  1  0
  7 50  1  0
  9 51  1  0
 12 52  1  0
 13 53  1  1
 14 54  1  6
 15 55  1  0
 16 56  1  0
 16 57  1  0
 17 58  1  0
 18 59  1  0
 19 60  1  0
 19 61  1  0
 22 62  1  0
 23 63  1  0
 24 64  1  0
 27 65  1  0
 27 66  1  0
 27 67  1  0
 28 68  1  0
 28 69  1  0
 28 70  1  0
 29 71  1  0
 29 72  1  0
 29 73  1  0
 30 74  1  0
 31 75  1  0
 31 76  1  0
 33 77  1  0
 34 78  1  0
 35 79  1  0
 37 80  1  0
 39 81  1  0
 39 82  1  0
 40 83  1  0
 40 84  1  0
 41 85  1  0
 41 86  1  0
 42 87  1  0
 42 88  1  0
 43 89  1  0
M  END
$$$$
