
     RDKit          3D

 89 93  0  0  0  0  0  0  0  0999 V2000
   -6.7110   -2.7866   -2.2532 C   0  0  0  0  0  0  0  0  0  0  0  0
   -6.3917   -1.4042   -1.6498 C   0  0  0  0  0  0  0  0  0  0  0  0
   -7.1544   -0.3293   -2.4397 C   0  0  0  0  0  0  0  0  0  0  0  0
   -6.8343   -1.3417   -0.1725 C   0  0  0  0  0  0  0  0  0  0  0  0
   -4.9935   -1.1022   -1.7726 O   0  0  0  0  0  0  0  0  0  0  0  0
   -3.9346   -1.8177   -1.1945 C   0  0  0  0  0  0  0  0  0  0  0  0
   -4.1474   -2.8714   -0.5321 O   0  0  0  0  0  0  0  0  0  0  0  0
   -2.5965   -1.3354   -1.3738 N   0  0  0  0  0  0  0  0  0  0  0  0
   -1.4191   -2.0241   -0.8363 C   0  0  1  0  0  0  0  0  0  0  0  0
   -0.7899   -2.9180   -1.9386 C   0  0  0  0  0  0  0  0  0  0  0  0
   -0.0783   -4.1703   -1.3946 C   0  0  0  0  0  0  0  0  0  0  0  0
    1.1627   -3.8213   -0.6213 C   0  0  0  0  0  0  0  0  0  0  0  0
    2.3889   -3.6421   -1.2842 C   0  0  0  0  0  0  0  0  0  0  0  0
    3.4951   -3.1355   -0.5918 C   0  0  0  0  0  0  0  0  0  0  0  0
    3.3612   -2.7427    0.7447 C   0  0  0  0  0  0  0  0  0  0  0  0
    2.1648   -3.0128    1.4310 C   0  0  0  0  0  0  0  0  0  0  0  0
    1.0775   -3.5632    0.7538 C   0  0  0  0  0  0  0  0  0  0  0  0
    4.3784   -2.0077    1.3587 O   0  0  0  0  0  0  0  0  0  0  0  0
    4.0594   -0.8098    2.0011 C   0  0  0  0  0  0  0  0  0  0  0  0
    3.9496   -0.7754    3.3934 C   0  0  0  0  0  0  0  0  0  0  0  0
    3.4121    0.3500    4.0228 C   0  0  0  0  0  0  0  0  0  0  0  0
    2.9835    1.4467    3.2641 C   0  0  0  0  0  0  0  0  0  0  0  0
    3.2208    1.4626    1.8831 C   0  0  0  0  0  0  0  0  0  0  0  0
    3.7623    0.3435    1.2467 C   0  0  0  0  0  0  0  0  0  0  0  0
    3.9899    0.3653   -0.1670 N   0  0  0  0  0  0  0  0  0  0  0  0
    4.9892    1.2211   -0.7439 C   0  0  0  0  0  0  0  0  0  0  0  0
    5.5366    2.1106   -0.0345 O   0  0  0  0  0  0  0  0  0  0  0  0
    5.4573    1.0258   -2.1331 C   0  0  0  0  0  0  0  0  0  0  0  0
    4.6480    0.4216   -3.1137 C   0  0  0  0  0  0  0  0  0  0  0  0
    5.1612    0.2242   -4.3981 C   0  0  0  0  0  0  0  0  0  0  0  0
    6.4602    0.6364   -4.7019 C   0  0  0  0  0  0  0  0  0  0  0  0
    7.2302    1.2505   -3.7136 C   0  0  0  0  0  0  0  0  0  0  0  0
    6.7175    1.4296   -2.4662 N   0  0  0  0  0  0  0  0  0  0  0  0
    2.2201    2.5312    3.9042 C   0  0  0  0  0  0  0  0  0  0  0  0
    2.5709    2.9579    5.0379 O   0  0  0  0  0  0  0  0  0  0  0  0
    0.9361    3.0201    3.3021 C   0  0  0  0  0  0  0  0  0  0  0  0
   -0.1648    2.1491    3.7171 N   0  0  0  0  0  0  0  0  0  0  0  0
   -0.6498    0.9962    2.9997 C   0  0  0  0  0  0  0  0  0  0  0  0
   -1.3187    0.1422    3.6456 O   0  0  0  0  0  0  0  0  0  0  0  0
   -0.5328    0.8501    1.4842 C   0  0  2  0  0  0  0  0  0  0  0  0
   -1.6838    1.6110    0.7928 C   0  0  0  0  0  0  0  0  0  0  0  0
   -1.6750    3.0902    1.0815 C   0  0  0  0  0  0  0  0  0  0  0  0
   -2.5089    3.6208    2.0779 C   0  0  0  0  0  0  0  0  0  0  0  0
   -2.4886    4.9915    2.3530 C   0  0  0  0  0  0  0  0  0  0  0  0
   -1.6477    5.8412    1.6290 C   0  0  0  0  0  0  0  0  0  0  0  0
   -0.8068    5.3197    0.6426 C   0  0  0  0  0  0  0  0  0  0  0  0
   -0.8186    3.9492    0.3655 C   0  0  0  0  0  0  0  0  0  0  0  0
   -0.5941   -0.5694    1.0863 N   0  0  0  0  0  0  0  0  0  0  0  0
   -0.4716   -0.9821   -0.2857 C   0  0  0  0  0  0  0  0  0  0  0  0
    0.3284   -0.3800   -1.0550 O   0  0  0  0  0  0  0  0  0  0  0  0
   -6.2533   -3.6030   -1.6672 H   0  0  0  0  0  0  0  0  0  0  0  0
   -7.8069   -2.9575   -2.2678 H   0  0  0  0  0  0  0  0  0  0  0  0
   -6.3326   -2.8553   -3.2912 H   0  0  0  0  0  0  0  0  0  0  0  0
   -8.2515   -0.5039   -2.3922 H   0  0  0  0  0  0  0  0  0  0  0  0
   -6.8455   -0.3389   -3.5060 H   0  0  0  0  0  0  0  0  0  0  0  0
   -6.9354    0.6798   -2.0303 H   0  0  0  0  0  0  0  0  0  0  0  0
   -6.5337   -0.3699    0.2777 H   0  0  0  0  0  0  0  0  0  0  0  0
   -6.3730   -2.1604    0.4182 H   0  0  0  0  0  0  0  0  0  0  0  0
   -7.9417   -1.4464   -0.0914 H   0  0  0  0  0  0  0  0  0  0  0  0
   -2.4576   -0.5061   -1.9973 H   0  0  0  0  0  0  0  0  0  0  0  0
   -1.7341   -2.6748    0.0067 H   0  0  0  0  0  0  0  0  0  0  0  0
   -0.1036   -2.3393   -2.5905 H   0  0  0  0  0  0  0  0  0  0  0  0
   -1.6043   -3.2823   -2.6023 H   0  0  0  0  0  0  0  0  0  0  0  0
   -0.7776   -4.7631   -0.7631 H   0  0  0  0  0  0  0  0  0  0  0  0
    0.1992   -4.8181   -2.2542 H   0  0  0  0  0  0  0  0  0  0  0  0
    2.4740   -3.8467   -2.3453 H   0  0  0  0  0  0  0  0  0  0  0  0
    4.4193   -2.9489   -1.1230 H   0  0  0  0  0  0  0  0  0  0  0  0
    2.0594   -2.7516    2.4763 H   0  0  0  0  0  0  0  0  0  0  0  0
    0.1448   -3.7122    1.2822 H   0  0  0  0  0  0  0  0  0  0  0  0
    4.1977   -1.6514    3.9800 H   0  0  0  0  0  0  0  0  0  0  0  0
    3.2606    0.3311    5.0926 H   0  0  0  0  0  0  0  0  0  0  0  0
    2.9549    2.3272    1.2890 H   0  0  0  0  0  0  0  0  0  0  0  0
    3.6037   -0.4216   -0.7332 H   0  0  0  0  0  0  0  0  0  0  0  0
    3.6260    0.1241   -2.9072 H   0  0  0  0  0  0  0  0  0  0  0  0
    4.5527   -0.2442   -5.1607 H   0  0  0  0  0  0  0  0  0  0  0  0
    6.8637    0.4887   -5.6950 H   0  0  0  0  0  0  0  0  0  0  0  0
    8.2361    1.5818   -3.9367 H   0  0  0  0  0  0  0  0  0  0  0  0
    1.0052    3.0930    2.2062 H   0  0  0  0  0  0  0  0  0  0  0  0
    0.7376    4.0497    3.6702 H   0  0  0  0  0  0  0  0  0  0  0  0
   -0.4918    2.2614    4.7030 H   0  0  0  0  0  0  0  0  0  0  0  0
    0.4396    1.2557    1.1402 H   0  0  0  0  0  0  0  0  0  0  0  0
   -2.6520    1.1673    1.1081 H   0  0  0  0  0  0  0  0  0  0  0  0
   -1.6149    1.4726   -0.3069 H   0  0  0  0  0  0  0  0  0  0  0  0
   -3.1693    2.9737    2.6445 H   0  0  0  0  0  0  0  0  0  0  0  0
   -3.1386    5.3960    3.1167 H   0  0  0  0  0  0  0  0  0  0  0  0
   -1.6425    6.9018    1.8395 H   0  0  0  0  0  0  0  0  0  0  0  0
   -0.1510    5.9763    0.0820 H   0  0  0  0  0  0  0  0  0  0  0  0
   -0.1603    3.5581   -0.4015 H   0  0  0  0  0  0  0  0  0  0  0  0
   -1.0526   -1.2578    1.7300 H   0  0  0  0  0  0  0  0  0  0  0  0
  1  2  1  0
  2  3  1  0
  2  4  1  0
  2  5  1  0
  5  6  1  0
  6  7  2  0
  6  8  1  0
  8  9  1  0
  9 10  1  0
 10 11  1  0
 11 12  1  0
 12 13  2  0
 13 14  1  0
 14 15  2  0
 15 16  1  0
 16 17  2  0
 15 18  1  0
 18 19  1  0
 19 20  2  0
 20 21  1  0
 21 22  2  0
 22 23  1  0
 23 24  2  0
 24 25  1  0
 25 26  1  0
 26 27  2  0
 26 28  1  0
 28 29  2  0
 29 30  1  0
 30 31  2  0
 31 32  1  0
 32 33  2  0
 22 34  1  0
 34 35  2  0
 34 36  1  0
 36 37  1  0
 37 38  1  0
 38 39  2  0
 38 40  1  0
 40 41  1  0
 41 42  1  0
 42 43  2  0
 43 44  1  0
 44 45  2  0
 45 46  1  0
 46 47  2  0
 40 48  1  0
 48 49  1  0
 49 50  2  0
 49  9  1  0
 17 12  1  0
 24 19  1  0
 33 28  1  0
 47 42  1  0
  1 51  1  0
  1 52  1  0
  1 53  1  0
  3 54  1  0
  3 55  1  0
  3 56  1  0
  4 57  1  0
  4 58  1  0
  4 59  1  0
  8 60  1  0
  9 61  1  1
 10 62  1  0
 10 63  1  0
 11 64  1  0
 11 65  1  0
 13 66  1  0
 14 67  1  0
 16 68  1  0
 17 69  1  0
 20 70  1  0
 21 71  1  0
 23 72  1  0
 25 73  1  0
 29 74  1  0
 30 75  1  0
 31 76  1  0
 32 77  1  0
 36 78  1  0
 36 79  1  0
 37 80  1  0
 40 81  1  6
 41 82  1  0
 41 83  1  0
 43 84  1  0
 44 85  1  0
 45 86  1  0
 46 87  1  0
 47 88  1  0
 48 89  1  0
M  END
$$$$
