
     RDKit          3D

 79 84  0  0  0  0  0  0  0  0999 V2000
    0.7557   -2.3993   -2.2339 C   0  0  0  0  0  0  0  0  0  0  0  0
    0.5868   -2.1627   -0.7543 C   0  0  0  0  0  0  0  0  0  0  0  0
    0.8251   -0.8695   -0.2518 C   0  0  0  0  0  0  0  0  0  0  0  0
    0.6826   -0.5826    1.1187 C   0  0  0  0  0  0  0  0  0  0  0  0
    0.2888   -1.6117    1.9827 C   0  0  0  0  0  0  0  0  0  0  0  0
    0.0607   -2.8995    1.5026 C   0  0  0  0  0  0  0  0  0  0  0  0
    0.2342   -3.2117    0.1387 C   0  0  0  0  0  0  0  0  0  0  0  0
   -0.0083   -4.6430   -0.3515 C   0  0  1  0  0  0  0  0  0  0  0  0
    0.5556   -5.7053    0.6074 C   0  0  0  0  0  0  0  0  0  0  0  0
   -1.4973   -4.9019   -0.6506 C   0  0  0  0  0  0  0  0  0  0  0  0
   -2.3110   -4.5720    0.4767 O   0  0  0  0  0  0  0  0  0  0  0  0
   -3.1068   -3.4238    0.5389 C   0  0  0  0  0  0  0  0  0  0  0  0
   -3.3854   -2.9303    1.6634 O   0  0  0  0  0  0  0  0  0  0  0  0
   -3.6202   -2.8147   -0.6531 N   0  0  0  0  0  0  0  0  0  0  0  0
   -3.6868   -1.3922   -0.8361 C   0  0  0  0  0  0  0  0  0  0  0  0
   -4.6542   -0.8463   -1.6821 C   0  0  0  0  0  0  0  0  0  0  0  0
   -4.7094    0.5311   -1.8933 C   0  0  0  0  0  0  0  0  0  0  0  0
   -3.7755    1.3920   -1.2920 C   0  0  0  0  0  0  0  0  0  0  0  0
   -3.9234    3.1335   -1.5978 S   0  0  0  0  0  6  0  0  0  0  0  0
   -5.0438    3.3868   -2.5698 O   0  0  0  0  0  0  0  0  0  0  0  0
   -2.6475    3.6482   -2.2061 O   0  0  0  0  0  0  0  0  0  0  0  0
   -4.3243    3.9720   -0.0622 C   0  0  0  0  0  0  0  0  0  0  0  0
   -3.3167    4.9989    0.4321 C   0  0  0  0  0  0  0  0  0  0  0  0
   -4.6035    5.4568   -0.2331 C   0  0  0  0  0  0  0  0  0  0  0  0
   -2.7653    0.8409   -0.4577 C   0  0  0  0  0  0  0  0  0  0  0  0
   -2.7467   -0.5460   -0.2356 C   0  0  0  0  0  0  0  0  0  0  0  0
   -1.6540    1.6660    0.1638 C   0  0  0  0  0  0  0  0  0  0  0  0
   -1.5525    1.4535    1.6180 N   0  0  0  0  0  0  0  0  0  0  0  0
   -2.7505    1.6294    2.4497 C   0  0  0  0  0  0  0  0  0  0  0  0
   -0.2705    1.4343    2.2922 C   0  0  0  0  0  0  0  0  0  0  0  0
   -0.1695    1.9682    3.4317 O   0  0  0  0  0  0  0  0  0  0  0  0
    0.9736    0.7900    1.7086 C   0  0  2  0  0  0  0  0  0  0  0  0
    1.6451    1.7025    0.7708 N   0  0  0  0  0  0  0  0  0  0  0  0
    3.0308    1.5919    0.3833 C   0  0  0  0  0  0  0  0  0  0  0  0
    3.6087    2.6154   -0.3789 C   0  0  0  0  0  0  0  0  0  0  0  0
    4.9469    2.5502   -0.7731 C   0  0  0  0  0  0  0  0  0  0  0  0
    5.7456    1.4440   -0.4221 C   0  0  0  0  0  0  0  0  0  0  0  0
    7.1108    1.3253   -0.7955 C   0  0  0  0  0  0  0  0  0  0  0  0
    7.7836    2.3087   -1.5925 N   0  0  0  0  0  0  0  0  0  0  0  0
    7.8205    0.2360   -0.3941 N   0  0  0  0  0  0  0  0  0  0  0  0
    7.2749   -0.7604    0.3466 C   0  0  0  0  0  0  0  0  0  0  0  0
    5.9382   -0.6975    0.7282 C   0  0  0  0  0  0  0  0  0  0  0  0
    5.1648    0.4068    0.3514 C   0  0  0  0  0  0  0  0  0  0  0  0
    3.8205    0.4860    0.7460 C   0  0  0  0  0  0  0  0  0  0  0  0
    1.6774   -2.9901   -2.4146 H   0  0  0  0  0  0  0  0  0  0  0  0
   -0.1220   -2.9397   -2.6418 H   0  0  0  0  0  0  0  0  0  0  0  0
    0.8410   -1.4456   -2.7961 H   0  0  0  0  0  0  0  0  0  0  0  0
    1.1238   -0.0876   -0.9373 H   0  0  0  0  0  0  0  0  0  0  0  0
    0.1599   -1.4147    3.0404 H   0  0  0  0  0  0  0  0  0  0  0  0
   -0.2568   -3.6527    2.2097 H   0  0  0  0  0  0  0  0  0  0  0  0
    0.5453   -4.8036   -1.3001 H   0  0  0  0  0  0  0  0  0  0  0  0
    1.5993   -5.4505    0.8926 H   0  0  0  0  0  0  0  0  0  0  0  0
   -0.0632   -5.8002    1.5245 H   0  0  0  0  0  0  0  0  0  0  0  0
    0.5687   -6.6968    0.1057 H   0  0  0  0  0  0  0  0  0  0  0  0
   -1.6458   -5.9754   -0.8940 H   0  0  0  0  0  0  0  0  0  0  0  0
   -1.7961   -4.3288   -1.5525 H   0  0  0  0  0  0  0  0  0  0  0  0
   -3.9841   -3.4388   -1.4085 H   0  0  0  0  0  0  0  0  0  0  0  0
   -5.3773   -1.4890   -2.1681 H   0  0  0  0  0  0  0  0  0  0  0  0
   -5.4867    0.9208   -2.5371 H   0  0  0  0  0  0  0  0  0  0  0  0
   -4.9570    3.4724    0.7006 H   0  0  0  0  0  0  0  0  0  0  0  0
   -2.4145    5.1680   -0.1918 H   0  0  0  0  0  0  0  0  0  0  0  0
   -3.3056    5.1361    1.5345 H   0  0  0  0  0  0  0  0  0  0  0  0
   -4.4552    5.8743   -1.2529 H   0  0  0  0  0  0  0  0  0  0  0  0
   -5.3472    5.8746    0.4778 H   0  0  0  0  0  0  0  0  0  0  0  0
   -1.9821   -0.9722    0.3944 H   0  0  0  0  0  0  0  0  0  0  0  0
   -1.7719    2.7468   -0.0120 H   0  0  0  0  0  0  0  0  0  0  0  0
   -0.7200    1.3822   -0.3501 H   0  0  0  0  0  0  0  0  0  0  0  0
   -3.6788    1.6525    1.8414 H   0  0  0  0  0  0  0  0  0  0  0  0
   -2.8310    0.7860    3.1685 H   0  0  0  0  0  0  0  0  0  0  0  0
   -2.6862    2.5858    3.0121 H   0  0  0  0  0  0  0  0  0  0  0  0
    1.6678    0.6292    2.5640 H   0  0  0  0  0  0  0  0  0  0  0  0
    1.1193    2.5417    0.4361 H   0  0  0  0  0  0  0  0  0  0  0  0
    3.0185    3.4775   -0.6649 H   0  0  0  0  0  0  0  0  0  0  0  0
    5.3322    3.3805   -1.3421 H   0  0  0  0  0  0  0  0  0  0  0  0
    7.2915    3.0731   -2.0976 H   0  0  0  0  0  0  0  0  0  0  0  0
    8.8092    2.2151   -1.7617 H   0  0  0  0  0  0  0  0  0  0  0  0
    7.8818   -1.6061    0.6379 H   0  0  0  0  0  0  0  0  0  0  0  0
    5.5150   -1.5032    1.3169 H   0  0  0  0  0  0  0  0  0  0  0  0
    3.4002   -0.3195    1.3322 H   0  0  0  0  0  0  0  0  0  0  0  0
  1  2  1  0
  2  3  2  0
  3  4  1  0
  4  5  2  0
  5  6  1  0
  6  7  2  0
  7  8  1  0
  8  9  1  0
  8 10  1  0
 10 11  1  0
 11 12  1  0
 12 13  2  0
 12 14  1  0
 14 15  1  0
 15 16  2  0
 16 17  1  0
 17 18  2  0
 18 19  1  0
 19 20  2  0
 19 21  2  0
 19 22  1  0
 22 23  1  0
 23 24  1  0
 18 25  1  0
 25 26  2  0
 25 27  1  0
 27 28  1  0
 28 29  1  0
 28 30  1  0
 30 31  2  0
 30 32  1  0
 32 33  1  0
 33 34  1  0
 34 35  2  0
 35 36  1  0
 36 37  2  0
 37 38  1  0
 38 39  1  0
 38 40  2  0
 40 41  1  0
 41 42  2  0
 42 43  1  0
 43 44  2  0
  7  2  1  0
 26 15  1  0
 44 34  1  0
 32  4  1  0
 43 37  1  0
 24 22  1  0
  1 45  1  0
  1 46  1  0
  1 47  1  0
  3 48  1  0
  5 49  1  0
  6 50  1  0
  8 51  1  6
  9 52  1  0
  9 53  1  0
  9 54  1  0
 10 55  1  0
 10 56  1  0
 14 57  1  0
 16 58  1  0
 17 59  1  0
 22 60  1  0
 23 61  1  0
 23 62  1  0
 24 63  1  0
 24 64  1  0
 26 65  1  0
 27 66  1  0
 27 67  1  0
 29 68  1  0
 29 69  1  0
 29 70  1  0
 32 71  1  1
 33 72  1  0
 35 73  1  0
 36 74  1  0
 39 75  1  0
 39 76  1  0
 41 77  1  0
 42 78  1  0
 44 79  1  0
M  END
$$$$
