
     RDKit          3D

 70 74  0  0  0  0  0  0  0  0999 V2000
    5.1820    1.3456    1.1239 O   0  0  0  0  0  0  0  0  0  0  0  0
    4.6802    0.6499    0.1949 C   0  0  0  0  0  0  0  0  0  0  0  0
    4.0045   -0.6559    0.5233 C   0  0  0  0  0  0  0  0  0  0  0  0
    2.7387   -0.4530    1.3967 C   0  0  2  0  0  0  0  0  0  0  0  0
    2.2688   -1.8024    1.9443 C   0  0  0  0  0  0  0  0  0  0  0  0
    1.0866   -1.6146    2.8908 C   0  0  0  0  0  0  0  0  0  0  0  0
   -0.0247   -0.8771    2.2720 N   0  0  0  0  0  0  0  0  0  0  0  0
    0.2468    0.3367    1.4782 C   0  0  0  0  0  0  0  0  0  0  0  0
    1.5831    0.3241    0.6906 C   0  0  2  0  0  0  0  0  0  0  0  0
    1.4405    0.0782   -0.8123 C   0  0  0  0  0  0  0  0  0  0  0  0
    0.8029   -0.9137   -1.4664 C   0  0  0  0  0  0  0  0  0  0  0  0
   -0.1333   -1.9304   -0.8930 C   0  0  0  0  0  0  0  0  0  0  0  0
   -1.4496   -1.3852   -0.8464 O   0  0  0  0  0  0  0  0  0  0  0  0
   -2.5781   -2.0977   -1.2801 C   0  0  0  0  0  0  0  0  0  0  0  0
   -2.6169   -2.6318   -2.5776 C   0  0  0  0  0  0  0  0  0  0  0  0
   -3.7450   -3.3320   -3.0192 C   0  0  0  0  0  0  0  0  0  0  0  0
   -4.8415   -3.5116   -2.1643 C   0  0  0  0  0  0  0  0  0  0  0  0
   -4.8144   -2.9846   -0.8680 C   0  0  0  0  0  0  0  0  0  0  0  0
   -3.6946   -2.2555   -0.4226 C   0  0  0  0  0  0  0  0  0  0  0  0
   -3.6508   -1.7724    1.0104 C   0  0  0  0  0  0  0  0  0  0  0  0
   -3.0016   -0.4384    1.1167 N   0  0  0  0  0  0  0  0  0  0  0  0
   -3.9448    0.6233    0.6915 C   0  0  0  0  0  0  0  0  0  0  0  0
   -3.1938    1.8718    0.2915 C   0  0  0  0  0  0  0  0  0  0  0  0
   -2.4465    1.8980   -0.8986 C   0  0  0  0  0  0  0  0  0  0  0  0
   -1.7719    3.0707   -1.2802 C   0  0  0  0  0  0  0  0  0  0  0  0
   -1.8338    4.2167   -0.4707 C   0  0  0  0  0  0  0  0  0  0  0  0
   -2.5666    4.1906    0.7194 C   0  0  0  0  0  0  0  0  0  0  0  0
   -3.2441    3.0239    1.1017 C   0  0  0  0  0  0  0  0  0  0  0  0
   -2.5237   -0.1833    2.4955 C   0  0  0  0  0  0  0  0  0  0  0  0
   -1.3463   -1.0699    2.8467 C   0  0  0  0  0  0  0  0  0  0  0  0
   -1.5396   -2.0049    3.6801 O   0  0  0  0  0  0  0  0  0  0  0  0
    4.7807    1.0922   -1.1694 N   0  0  0  0  0  0  0  0  0  0  0  0
    5.3533    2.3948   -1.5006 C   0  0  0  0  0  0  0  0  0  0  0  0
    5.8685    2.5037   -2.9189 C   0  0  0  0  0  0  0  0  0  0  0  0
    6.8445    2.3555   -1.7678 C   0  0  0  0  0  0  0  0  0  0  0  0
    4.7432   -1.2831    1.0748 H   0  0  0  0  0  0  0  0  0  0  0  0
    3.7478   -1.2100   -0.4083 H   0  0  0  0  0  0  0  0  0  0  0  0
    3.0494    0.1462    2.2847 H   0  0  0  0  0  0  0  0  0  0  0  0
    3.0933   -2.2688    2.5279 H   0  0  0  0  0  0  0  0  0  0  0  0
    2.0298   -2.5095    1.1254 H   0  0  0  0  0  0  0  0  0  0  0  0
    1.4193   -1.0619    3.7956 H   0  0  0  0  0  0  0  0  0  0  0  0
    0.7577   -2.6330    3.1936 H   0  0  0  0  0  0  0  0  0  0  0  0
    0.2619    1.1966    2.1731 H   0  0  0  0  0  0  0  0  0  0  0  0
   -0.5821    0.5223    0.7734 H   0  0  0  0  0  0  0  0  0  0  0  0
    1.9282    1.3880    0.7238 H   0  0  0  0  0  0  0  0  0  0  0  0
    1.9659    0.7907   -1.4451 H   0  0  0  0  0  0  0  0  0  0  0  0
    0.8635   -0.9052   -2.5536 H   0  0  0  0  0  0  0  0  0  0  0  0
    0.1493   -2.2444    0.1261 H   0  0  0  0  0  0  0  0  0  0  0  0
   -0.1011   -2.8290   -1.5476 H   0  0  0  0  0  0  0  0  0  0  0  0
   -1.7739   -2.4939   -3.2470 H   0  0  0  0  0  0  0  0  0  0  0  0
   -3.7606   -3.7386   -4.0238 H   0  0  0  0  0  0  0  0  0  0  0  0
   -5.7070   -4.0752   -2.4923 H   0  0  0  0  0  0  0  0  0  0  0  0
   -5.6570   -3.1574   -0.2002 H   0  0  0  0  0  0  0  0  0  0  0  0
   -3.0778   -2.5368    1.5725 H   0  0  0  0  0  0  0  0  0  0  0  0
   -4.6674   -1.7500    1.4661 H   0  0  0  0  0  0  0  0  0  0  0  0
   -4.6940    0.8354    1.4950 H   0  0  0  0  0  0  0  0  0  0  0  0
   -4.5297    0.2934   -0.1966 H   0  0  0  0  0  0  0  0  0  0  0  0
   -2.3995    1.0181   -1.5320 H   0  0  0  0  0  0  0  0  0  0  0  0
   -1.2035    3.0927   -2.2006 H   0  0  0  0  0  0  0  0  0  0  0  0
   -1.3161    5.1272   -0.7591 H   0  0  0  0  0  0  0  0  0  0  0  0
   -2.6234    5.0770    1.3464 H   0  0  0  0  0  0  0  0  0  0  0  0
   -3.8103    3.0253    2.0267 H   0  0  0  0  0  0  0  0  0  0  0  0
   -3.3502   -0.3534    3.2229 H   0  0  0  0  0  0  0  0  0  0  0  0
   -2.2049    0.8728    2.6297 H   0  0  0  0  0  0  0  0  0  0  0  0
    4.3054    0.5422   -1.9175 H   0  0  0  0  0  0  0  0  0  0  0  0
    4.9224    3.3109   -1.0416 H   0  0  0  0  0  0  0  0  0  0  0  0
    5.8276    3.5277   -3.3560 H   0  0  0  0  0  0  0  0  0  0  0  0
    5.7690    1.5861   -3.5429 H   0  0  0  0  0  0  0  0  0  0  0  0
    7.3102    1.3515   -1.6865 H   0  0  0  0  0  0  0  0  0  0  0  0
    7.3955    3.2846   -1.5188 H   0  0  0  0  0  0  0  0  0  0  0  0
  1  2  2  0
  2  3  1  0
  3  4  1  0
  4  5  1  0
  5  6  1  0
  6  7  1  0
  7  8  1  0
  8  9  1  0
  9 10  1  0
 10 11  2  0
 11 12  1  0
 12 13  1  0
 13 14  1  0
 14 15  2  0
 15 16  1  0
 16 17  2  0
 17 18  1  0
 18 19  2  0
 19 20  1  0
 20 21  1  0
 21 22  1  0
 22 23  1  0
 23 24  2  0
 24 25  1  0
 25 26  2  0
 26 27  1  0
 27 28  2  0
 21 29  1  0
 29 30  1  0
 30 31  2  0
  2 32  1  0
 32 33  1  0
 33 34  1  0
 34 35  1  0
  9  4  1  0
 19 14  1  0
 28 23  1  0
 35 33  1  0
 30  7  1  0
  3 36  1  0
  3 37  1  0
  4 38  1  1
  5 39  1  0
  5 40  1  0
  6 41  1  0
  6 42  1  0
  8 43  1  0
  8 44  1  0
  9 45  1  6
 10 46  1  0
 11 47  1  0
 12 48  1  0
 12 49  1  0
 15 50  1  0
 16 51  1  0
 17 52  1  0
 18 53  1  0
 20 54  1  0
 20 55  1  0
 22 56  1  0
 22 57  1  0
 24 58  1  0
 25 59  1  0
 26 60  1  0
 27 61  1  0
 28 62  1  0
 29 63  1  0
 29 64  1  0
 32 65  1  0
 33 66  1  0
 34 67  1  0
 34 68  1  0
 35 69  1  0
 35 70  1  0
M  END
$$$$
