
     RDKit          3D

 77 80  0  0  0  0  0  0  0  0999 V2000
   -5.9202    3.9841   -0.1626 C   0  0  0  0  0  0  0  0  0  0  0  0
   -4.9481    2.8963   -0.4867 C   0  0  0  0  0  0  0  0  0  0  0  0
   -3.5953    3.1956   -0.6995 C   0  0  0  0  0  0  0  0  0  0  0  0
   -2.6901    2.1576   -0.9586 C   0  0  0  0  0  0  0  0  0  0  0  0
   -3.1666    0.8435   -1.0456 C   0  0  0  0  0  0  0  0  0  0  0  0
   -4.5153    0.5765   -0.8003 C   0  0  0  0  0  0  0  0  0  0  0  0
   -5.3687    1.6020   -0.5269 N   0  0  0  0  0  0  0  0  0  0  0  0
   -4.9629   -0.7470   -0.8200 O   0  0  0  0  0  0  0  0  0  0  0  0
   -6.2681   -1.1384   -0.4077 C   0  0  0  0  0  0  0  0  0  0  0  0
   -6.3487   -2.6689   -0.3276 C   0  0  0  0  0  0  0  0  0  0  0  0
   -5.7261   -3.2544    0.9563 C   0  0  0  0  0  0  0  0  0  0  0  0
   -4.2467   -2.9042    1.1416 C   0  0  0  0  0  0  0  0  0  0  0  0
   -3.5004   -3.2920   -0.0117 O   0  0  0  0  0  0  0  0  0  0  0  0
   -2.2264   -2.8064   -0.3393 C   0  0  0  0  0  0  0  0  0  0  0  0
   -1.6753   -3.1731   -1.5724 C   0  0  0  0  0  0  0  0  0  0  0  0
   -0.4520   -2.6437   -1.9889 C   0  0  0  0  0  0  0  0  0  0  0  0
    0.2288   -1.7324   -1.1792 C   0  0  0  0  0  0  0  0  0  0  0  0
   -0.2942   -1.3709    0.0725 C   0  0  0  0  0  0  0  0  0  0  0  0
   -1.5075   -1.9352    0.5018 C   0  0  0  0  0  0  0  0  0  0  0  0
    0.3817   -0.3097    0.9053 C   0  0  0  0  0  0  0  0  0  0  0  0
   -0.3742    1.0353    0.8023 C   0  0  1  0  0  0  0  0  0  0  0  0
    0.0489    2.0664    1.8855 C   0  0  2  0  0  0  0  0  0  0  0  0
   -0.9149    3.0887    1.9239 O   0  0  0  0  0  0  0  0  0  0  0  0
    1.4384    2.7027    1.6621 C   0  0  0  0  0  0  0  0  0  0  0  0
    2.5024    1.7038    1.7891 N   0  0  0  0  0  0  0  0  0  0  0  0
    3.8155    2.2963    1.5210 C   0  0  0  0  0  0  0  0  0  0  0  0
    4.8157    1.1953    1.3135 C   0  0  0  0  0  0  0  0  0  0  0  0
    5.5004    0.6459    2.4073 C   0  0  0  0  0  0  0  0  0  0  0  0
    6.3806   -0.4212    2.2201 C   0  0  0  0  0  0  0  0  0  0  0  0
    6.5783   -0.9545    0.9442 C   0  0  0  0  0  0  0  0  0  0  0  0
    5.8915   -0.4240   -0.1643 C   0  0  0  0  0  0  0  0  0  0  0  0
    6.0876   -0.9956   -1.5556 C   0  0  0  0  0  0  0  0  0  0  0  0
    5.6226   -2.4548   -1.6226 C   0  0  0  0  0  0  0  0  0  0  0  0
    7.5449   -0.8576   -2.0106 C   0  0  0  0  0  0  0  0  0  0  0  0
    5.0031    0.6473    0.0343 C   0  0  0  0  0  0  0  0  0  0  0  0
   -0.2459    1.5962   -0.5512 N   0  0  0  0  0  0  0  0  0  0  0  0
   -1.2511    2.4434   -1.1284 C   0  0  0  0  0  0  0  0  0  0  0  0
   -0.8962    3.4530   -1.7948 O   0  0  0  0  0  0  0  0  0  0  0  0
   -5.6829    4.4099    0.8350 H   0  0  0  0  0  0  0  0  0  0  0  0
   -6.9579    3.5877   -0.1460 H   0  0  0  0  0  0  0  0  0  0  0  0
   -5.8588    4.7869   -0.9277 H   0  0  0  0  0  0  0  0  0  0  0  0
   -3.2491    4.2204   -0.6350 H   0  0  0  0  0  0  0  0  0  0  0  0
   -2.4943    0.0304   -1.2848 H   0  0  0  0  0  0  0  0  0  0  0  0
   -6.5075   -0.6945    0.5843 H   0  0  0  0  0  0  0  0  0  0  0  0
   -7.0095   -0.7681   -1.1490 H   0  0  0  0  0  0  0  0  0  0  0  0
   -5.8712   -3.1200   -1.2240 H   0  0  0  0  0  0  0  0  0  0  0  0
   -7.4215   -2.9616   -0.3499 H   0  0  0  0  0  0  0  0  0  0  0  0
   -5.8279   -4.3603    0.9250 H   0  0  0  0  0  0  0  0  0  0  0  0
   -6.2941   -2.8912    1.8402 H   0  0  0  0  0  0  0  0  0  0  0  0
   -4.1618   -1.8124    1.3198 H   0  0  0  0  0  0  0  0  0  0  0  0
   -3.8468   -3.4328    2.0334 H   0  0  0  0  0  0  0  0  0  0  0  0
   -2.2124   -3.8514   -2.2229 H   0  0  0  0  0  0  0  0  0  0  0  0
   -0.0445   -2.9196   -2.9529 H   0  0  0  0  0  0  0  0  0  0  0  0
    1.1560   -1.2984   -1.5344 H   0  0  0  0  0  0  0  0  0  0  0  0
   -1.9029   -1.6486    1.4673 H   0  0  0  0  0  0  0  0  0  0  0  0
    1.4339   -0.1921    0.5715 H   0  0  0  0  0  0  0  0  0  0  0  0
    0.4069   -0.6502    1.9635 H   0  0  0  0  0  0  0  0  0  0  0  0
   -1.4418    0.8105    1.0106 H   0  0  0  0  0  0  0  0  0  0  0  0
    0.0541    1.5434    2.8717 H   0  0  0  0  0  0  0  0  0  0  0  0
   -0.8643    3.5042    2.8237 H   0  0  0  0  0  0  0  0  0  0  0  0
    1.4698    3.1819    0.6597 H   0  0  0  0  0  0  0  0  0  0  0  0
    1.5908    3.5042    2.4205 H   0  0  0  0  0  0  0  0  0  0  0  0
    2.5046    1.3505    2.7757 H   0  0  0  0  0  0  0  0  0  0  0  0
    3.7852    2.9320    0.6068 H   0  0  0  0  0  0  0  0  0  0  0  0
    4.1257    2.9460    2.3701 H   0  0  0  0  0  0  0  0  0  0  0  0
    5.3458    1.0384    3.4048 H   0  0  0  0  0  0  0  0  0  0  0  0
    6.9069   -0.8411    3.0676 H   0  0  0  0  0  0  0  0  0  0  0  0
    7.2609   -1.7855    0.8247 H   0  0  0  0  0  0  0  0  0  0  0  0
    5.4678   -0.4239   -2.2821 H   0  0  0  0  0  0  0  0  0  0  0  0
    5.6873   -2.8267   -2.6674 H   0  0  0  0  0  0  0  0  0  0  0  0
    4.5649   -2.5324   -1.2901 H   0  0  0  0  0  0  0  0  0  0  0  0
    6.2520   -3.1034   -0.9773 H   0  0  0  0  0  0  0  0  0  0  0  0
    7.6448   -1.1891   -3.0664 H   0  0  0  0  0  0  0  0  0  0  0  0
    8.2211   -1.4750   -1.3828 H   0  0  0  0  0  0  0  0  0  0  0  0
    7.8660    0.2044   -1.9471 H   0  0  0  0  0  0  0  0  0  0  0  0
    4.4519    1.0565   -0.8048 H   0  0  0  0  0  0  0  0  0  0  0  0
    0.7074    1.6247   -0.9805 H   0  0  0  0  0  0  0  0  0  0  0  0
  1  2  1  0
  2  3  2  0
  3  4  1  0
  4  5  2  0
  5  6  1  0
  6  7  2  0
  6  8  1  0
  8  9  1  0
  9 10  1  0
 10 11  1  0
 11 12  1  0
 12 13  1  0
 13 14  1  0
 14 15  2  0
 15 16  1  0
 16 17  2  0
 17 18  1  0
 18 19  2  0
 18 20  1  0
 20 21  1  0
 21 22  1  0
 22 23  1  0
 22 24  1  0
 24 25  1  0
 25 26  1  0
 26 27  1  0
 27 28  2  0
 28 29  1  0
 29 30  2  0
 30 31  1  0
 31 32  1  0
 32 33  1  0
 32 34  1  0
 31 35  2  0
 21 36  1  0
 36 37  1  0
 37 38  2  0
  7  2  1  0
 19 14  1  0
 35 27  1  0
 37  4  1  0
  1 39  1  0
  1 40  1  0
  1 41  1  0
  3 42  1  0
  5 43  1  0
  9 44  1  0
  9 45  1  0
 10 46  1  0
 10 47  1  0
 11 48  1  0
 11 49  1  0
 12 50  1  0
 12 51  1  0
 15 52  1  0
 16 53  1  0
 17 54  1  0
 19 55  1  0
 20 56  1  0
 20 57  1  0
 21 58  1  1
 22 59  1  1
 23 60  1  0
 24 61  1  0
 24 62  1  0
 25 63  1  0
 26 64  1  0
 26 65  1  0
 28 66  1  0
 29 67  1  0
 30 68  1  0
 32 69  1  0
 33 70  1  0
 33 71  1  0
 33 72  1  0
 34 73  1  0
 34 74  1  0
 34 75  1  0
 35 76  1  0
 36 77  1  0
M  END
$$$$
