
     RDKit          3D

 68 71  0  0  0  0  0  0  0  0999 V2000
   -6.5116   -0.8471   -0.1416 C   0  0  0  0  0  0  0  0  0  0  0  0
   -5.5050    0.1743   -0.6248 C   0  0  0  0  0  0  0  0  0  0  0  0
   -5.9446    1.4491   -1.0553 C   0  0  0  0  0  0  0  0  0  0  0  0
   -7.6374    1.9404   -1.0044 Cl  0  0  0  0  0  0  0  0  0  0  0  0
   -5.0275    2.3889   -1.5203 C   0  0  0  0  0  0  0  0  0  0  0  0
   -3.6747    2.0854   -1.5935 C   0  0  0  0  0  0  0  0  0  0  0  0
   -3.2002    0.8319   -1.1770 C   0  0  0  0  0  0  0  0  0  0  0  0
   -4.1079   -0.1185   -0.6260 C   0  0  0  0  0  0  0  0  0  0  0  0
   -3.5514   -1.3769    0.0594 C   0  0  1  0  0  0  0  0  0  0  0  0
   -2.8465   -2.3190   -0.9621 C   0  0  0  0  0  0  0  0  0  0  0  0
   -1.9089   -3.3464   -0.3087 C   0  0  0  0  0  0  0  0  0  0  0  0
   -0.9629   -2.6784    0.6967 C   0  0  2  0  0  0  0  0  0  0  0  0
   -1.8238   -2.0872    1.8242 C   0  0  0  0  0  0  0  0  0  0  0  0
   -2.6960   -0.9550    1.2857 C   0  0  0  0  0  0  0  0  0  0  0  0
   -0.2344   -1.6594    0.0266 O   0  0  0  0  0  0  0  0  0  0  0  0
    0.9812   -1.3617    0.6821 C   0  0  0  0  0  0  0  0  0  0  0  0
    1.4627    0.0351    0.2352 C   0  0  0  0  0  0  0  0  0  0  0  0
    2.8605    0.3928    0.8217 C   0  0  1  0  0  0  0  0  0  0  0  0
    3.4515    1.5428    0.1049 N   0  0  0  0  0  0  0  0  0  0  0  0
    5.1895    1.4301   -0.0020 S   0  0  0  0  0  6  0  0  0  0  0  0
    5.7515    0.6210    1.1352 O   0  0  0  0  0  0  0  0  0  0  0  0
    5.7568    2.8195    0.0703 O   0  0  0  0  0  0  0  0  0  0  0  0
    5.6735    0.6914   -1.5665 C   0  0  0  0  0  0  0  0  0  0  0  0
    7.1993    0.6424   -1.6791 C   0  0  0  0  0  0  0  0  0  0  0  0
    5.0771   -0.7098   -1.7177 C   0  0  0  0  0  0  0  0  0  0  0  0
    2.7541    0.7375    2.3247 C   0  0  0  0  0  0  0  0  0  0  0  0
    1.7153    1.8368    2.5850 C   0  0  0  0  0  0  0  0  0  0  0  0
    0.3522    1.4418    2.0181 C   0  0  0  0  0  0  0  0  0  0  0  0
    0.4846    1.0833    0.5986 N   0  0  0  0  0  0  0  0  0  0  0  0
   -0.1518    1.9099   -0.4028 C   0  0  0  0  0  0  0  0  0  0  0  0
   -0.2795    3.1482   -0.2025 O   0  0  0  0  0  0  0  0  0  0  0  0
   -0.7449    1.3203   -1.6490 C   0  0  0  0  0  0  0  0  0  0  0  0
   -1.8422    0.4774   -1.3054 O   0  0  0  0  0  0  0  0  0  0  0  0
   -7.5523   -0.6005   -0.4270 H   0  0  0  0  0  0  0  0  0  0  0  0
   -6.3039   -1.8351   -0.6033 H   0  0  0  0  0  0  0  0  0  0  0  0
   -6.4632   -0.9269    0.9645 H   0  0  0  0  0  0  0  0  0  0  0  0
   -5.3682    3.3660   -1.8401 H   0  0  0  0  0  0  0  0  0  0  0  0
   -3.0122    2.8457   -1.9751 H   0  0  0  0  0  0  0  0  0  0  0  0
   -4.3616   -1.9921    0.4974 H   0  0  0  0  0  0  0  0  0  0  0  0
   -3.6272   -2.8685   -1.5320 H   0  0  0  0  0  0  0  0  0  0  0  0
   -2.2651   -1.7670   -1.7232 H   0  0  0  0  0  0  0  0  0  0  0  0
   -1.3096   -3.8481   -1.0994 H   0  0  0  0  0  0  0  0  0  0  0  0
   -2.5123   -4.1315    0.1990 H   0  0  0  0  0  0  0  0  0  0  0  0
   -0.2919   -3.4685    1.1098 H   0  0  0  0  0  0  0  0  0  0  0  0
   -1.1842   -1.7007    2.6442 H   0  0  0  0  0  0  0  0  0  0  0  0
   -2.4697   -2.8773    2.2674 H   0  0  0  0  0  0  0  0  0  0  0  0
   -2.0389   -0.0943    1.0564 H   0  0  0  0  0  0  0  0  0  0  0  0
   -3.3745   -0.6130    2.0978 H   0  0  0  0  0  0  0  0  0  0  0  0
    1.7394   -2.1193    0.3851 H   0  0  0  0  0  0  0  0  0  0  0  0
    0.8871   -1.3922    1.7873 H   0  0  0  0  0  0  0  0  0  0  0  0
    1.5767   -0.0288   -0.8656 H   0  0  0  0  0  0  0  0  0  0  0  0
    3.5078   -0.5055    0.7133 H   0  0  0  0  0  0  0  0  0  0  0  0
    3.0998    1.5987   -0.8779 H   0  0  0  0  0  0  0  0  0  0  0  0
    5.2812    1.3307   -2.3870 H   0  0  0  0  0  0  0  0  0  0  0  0
    7.4967    0.2186   -2.6624 H   0  0  0  0  0  0  0  0  0  0  0  0
    7.6225    1.6665   -1.6030 H   0  0  0  0  0  0  0  0  0  0  0  0
    7.6321    0.0129   -0.8722 H   0  0  0  0  0  0  0  0  0  0  0  0
    5.4067   -1.1657   -2.6757 H   0  0  0  0  0  0  0  0  0  0  0  0
    5.3966   -1.3656   -0.8802 H   0  0  0  0  0  0  0  0  0  0  0  0
    3.9692   -0.6552   -1.7355 H   0  0  0  0  0  0  0  0  0  0  0  0
    2.4877   -0.1703    2.9066 H   0  0  0  0  0  0  0  0  0  0  0  0
    3.7381    1.0811    2.7073 H   0  0  0  0  0  0  0  0  0  0  0  0
    1.6241    2.0064    3.6795 H   0  0  0  0  0  0  0  0  0  0  0  0
    2.0488    2.7885    2.1164 H   0  0  0  0  0  0  0  0  0  0  0  0
   -0.3646    2.2796    2.1601 H   0  0  0  0  0  0  0  0  0  0  0  0
   -0.0515    0.5789    2.5873 H   0  0  0  0  0  0  0  0  0  0  0  0
   -1.0322    2.1049   -2.3758 H   0  0  0  0  0  0  0  0  0  0  0  0
    0.0101    0.7069   -2.1751 H   0  0  0  0  0  0  0  0  0  0  0  0
  1  2  1  0
  2  3  2  0
  3  4  1  0
  3  5  1  0
  5  6  2  0
  6  7  1  0
  7  8  2  0
  8  9  1  0
  9 10  1  0
 10 11  1  0
 11 12  1  0
 12 13  1  0
 13 14  1  0
 12 15  1  0
 15 16  1  0
 16 17  1  0
 17 18  1  0
 18 19  1  0
 19 20  1  0
 20 21  2  0
 20 22  2  0
 20 23  1  0
 23 24  1  0
 23 25  1  0
 18 26  1  0
 26 27  1  0
 27 28  1  0
 28 29  1  0
 29 30  1  0
 30 31  2  0
 30 32  1  0
 32 33  1  0
  8  2  1  0
 14  9  1  0
 29 17  1  0
 33  7  1  0
  1 34  1  0
  1 35  1  0
  1 36  1  0
  5 37  1  0
  6 38  1  0
  9 39  1  1
 10 40  1  0
 10 41  1  0
 11 42  1  0
 11 43  1  0
 12 44  1  1
 13 45  1  0
 13 46  1  0
 14 47  1  0
 14 48  1  0
 16 49  1  0
 16 50  1  0
 17 51  1  0
 18 52  1  1
 19 53  1  0
 23 54  1  0
 24 55  1  0
 24 56  1  0
 24 57  1  0
 25 58  1  0
 25 59  1  0
 25 60  1  0
 26 61  1  0
 26 62  1  0
 27 63  1  0
 27 64  1  0
 28 65  1  0
 28 66  1  0
 32 67  1  0
 32 68  1  0
M  END
$$$$
