
     RDKit          3D

 74 78  0  0  0  0  0  0  0  0999 V2000
   -2.3441    5.5151    0.3893 C   0  0  0  0  0  0  0  0  0  0  0  0
   -1.9856    4.1015    0.2394 N   0  0  0  0  0  0  0  0  0  0  0  0
   -1.1104    3.6848   -0.8671 C   0  0  0  0  0  0  0  0  0  0  0  0
    0.3377    3.5823   -0.3887 C   0  0  0  0  0  0  0  0  0  0  0  0
    1.0448    2.6907   -1.2268 O   0  0  0  0  0  0  0  0  0  0  0  0
    2.2479    2.3113   -0.5947 C   0  0  0  0  0  0  0  0  0  0  0  0
    3.0054    1.3247   -1.4761 C   0  0  0  0  0  0  0  0  0  0  0  0
    4.1826    0.8246   -0.7232 N   0  0  0  0  0  0  0  0  0  0  0  0
    5.4015    1.5188   -1.1877 C   0  0  0  0  0  0  0  0  0  0  0  0
    4.3392   -0.6537   -0.7939 C   0  0  1  0  0  0  0  0  0  0  0  0
    5.4989   -1.1360    0.0874 C   0  0  0  0  0  0  0  0  0  0  0  0
    5.1092   -2.5170    0.5635 C   0  0  0  0  0  0  0  0  0  0  0  0
    3.5981   -2.4564    0.7470 C   0  0  1  0  0  0  0  0  0  0  0  0
    3.1021   -1.4169   -0.2637 C   0  0  0  0  0  0  0  0  0  0  0  0
    2.9866   -3.7763    0.5512 N   0  0  0  0  0  0  0  0  0  0  0  0
    1.6045   -4.0436    0.8161 C   0  0  0  0  0  0  0  0  0  0  0  0
    1.2359   -5.2829    1.2247 N   0  0  0  0  0  0  0  0  0  0  0  0
   -0.0620   -5.5879    1.4656 C   0  0  0  0  0  0  0  0  0  0  0  0
   -1.0653   -4.6247    1.2830 C   0  0  0  0  0  0  0  0  0  0  0  0
   -2.5056   -4.9835    1.5933 C   0  0  0  0  0  0  0  0  0  0  0  0
   -2.5663   -5.9843    2.5485 F   0  0  0  0  0  0  0  0  0  0  0  0
   -3.1289   -5.4347    0.4454 F   0  0  0  0  0  0  0  0  0  0  0  0
   -3.1922   -3.8901    2.0907 F   0  0  0  0  0  0  0  0  0  0  0  0
   -0.6698   -3.3606    0.7777 C   0  0  0  0  0  0  0  0  0  0  0  0
    0.6532   -3.0990    0.5899 N   0  0  0  0  0  0  0  0  0  0  0  0
   -1.6475   -2.3387    0.3559 C   0  0  0  0  0  0  0  0  0  0  0  0
   -2.6802   -2.5133   -0.5555 C   0  0  0  0  0  0  0  0  0  0  0  0
   -3.3453   -1.3544   -0.7441 N   0  0  0  0  0  0  0  0  0  0  0  0
   -2.7393   -0.4319    0.0298 C   0  0  0  0  0  0  0  0  0  0  0  0
   -3.0701    0.9291    0.1801 C   0  0  0  0  0  0  0  0  0  0  0  0
   -4.5132    1.6337   -0.6773 P   0  0  0  0  0  5  0  0  0  0  0  0
   -4.2918    1.5524   -2.4793 C   0  0  0  0  0  0  0  0  0  0  0  0
   -6.0301    0.7573   -0.1895 C   0  0  0  0  0  0  0  0  0  0  0  0
   -4.7166    3.0864   -0.3146 O   0  0  0  0  0  0  0  0  0  0  0  0
   -2.2412    1.6994    1.0508 C   0  0  0  0  0  0  0  0  0  0  0  0
   -1.1736    1.0836    1.7488 C   0  0  0  0  0  0  0  0  0  0  0  0
   -0.8849   -0.2756    1.5757 C   0  0  0  0  0  0  0  0  0  0  0  0
   -1.6849   -1.0030    0.7049 C   0  0  0  0  0  0  0  0  0  0  0  0
   -2.4274    3.1511    1.2363 C   0  0  0  0  0  0  0  0  0  0  0  0
   -2.9702    3.5568    2.2986 O   0  0  0  0  0  0  0  0  0  0  0  0
   -2.0016    5.8880    1.3770 H   0  0  0  0  0  0  0  0  0  0  0  0
   -3.4456    5.6320    0.3164 H   0  0  0  0  0  0  0  0  0  0  0  0
   -1.8679    6.1394   -0.3945 H   0  0  0  0  0  0  0  0  0  0  0  0
   -1.4502    2.7089   -1.2728 H   0  0  0  0  0  0  0  0  0  0  0  0
   -1.1687    4.4053   -1.7125 H   0  0  0  0  0  0  0  0  0  0  0  0
    0.3385    3.2407    0.6719 H   0  0  0  0  0  0  0  0  0  0  0  0
    0.8048    4.5918   -0.4283 H   0  0  0  0  0  0  0  0  0  0  0  0
    2.8917    3.2023   -0.4146 H   0  0  0  0  0  0  0  0  0  0  0  0
    2.0375    1.8045    0.3758 H   0  0  0  0  0  0  0  0  0  0  0  0
    3.2925    1.8263   -2.4295 H   0  0  0  0  0  0  0  0  0  0  0  0
    2.3091    0.5101   -1.7698 H   0  0  0  0  0  0  0  0  0  0  0  0
    6.2493    1.3314   -0.4969 H   0  0  0  0  0  0  0  0  0  0  0  0
    5.2454    2.6199   -1.1929 H   0  0  0  0  0  0  0  0  0  0  0  0
    5.6836    1.1904   -2.2132 H   0  0  0  0  0  0  0  0  0  0  0  0
    4.5312   -0.9679   -1.8463 H   0  0  0  0  0  0  0  0  0  0  0  0
    5.6133   -0.4739    0.9752 H   0  0  0  0  0  0  0  0  0  0  0  0
    6.4561   -1.1651   -0.4779 H   0  0  0  0  0  0  0  0  0  0  0  0
    5.6233   -2.7803    1.5134 H   0  0  0  0  0  0  0  0  0  0  0  0
    5.3858   -3.2550   -0.2227 H   0  0  0  0  0  0  0  0  0  0  0  0
    3.3783   -2.1003    1.7796 H   0  0  0  0  0  0  0  0  0  0  0  0
    2.5766   -1.9070   -1.1134 H   0  0  0  0  0  0  0  0  0  0  0  0
    2.3859   -0.7360    0.2464 H   0  0  0  0  0  0  0  0  0  0  0  0
    3.6069   -4.6062    0.4105 H   0  0  0  0  0  0  0  0  0  0  0  0
   -0.3063   -6.5870    1.8016 H   0  0  0  0  0  0  0  0  0  0  0  0
   -2.9152   -3.4298   -1.0787 H   0  0  0  0  0  0  0  0  0  0  0  0
   -4.1510   -1.2280   -1.3903 H   0  0  0  0  0  0  0  0  0  0  0  0
   -3.3298    2.0307   -2.7559 H   0  0  0  0  0  0  0  0  0  0  0  0
   -4.2905    0.5027   -2.8311 H   0  0  0  0  0  0  0  0  0  0  0  0
   -5.1228    2.0961   -2.9751 H   0  0  0  0  0  0  0  0  0  0  0  0
   -5.9915   -0.3054   -0.4943 H   0  0  0  0  0  0  0  0  0  0  0  0
   -6.9037    1.2380   -0.6763 H   0  0  0  0  0  0  0  0  0  0  0  0
   -6.1498    0.8166    0.9121 H   0  0  0  0  0  0  0  0  0  0  0  0
   -0.5532    1.6675    2.4175 H   0  0  0  0  0  0  0  0  0  0  0  0
   -0.0632   -0.7398    2.1057 H   0  0  0  0  0  0  0  0  0  0  0  0
  1  2  1  0
  2  3  1  0
  3  4  1  0
  4  5  1  0
  5  6  1  0
  6  7  1  0
  7  8  1  0
  8  9  1  0
  8 10  1  0
 10 11  1  0
 11 12  1  0
 12 13  1  0
 13 14  1  0
 13 15  1  0
 15 16  1  0
 16 17  1  0
 17 18  2  0
 18 19  1  0
 19 20  1  0
 20 21  1  0
 20 22  1  0
 20 23  1  0
 19 24  2  0
 24 25  1  0
 24 26  1  0
 26 27  2  0
 27 28  1  0
 28 29  1  0
 29 30  1  0
 30 31  1  0
 31 32  1  0
 31 33  1  0
 31 34  2  0
 30 35  2  0
 35 36  1  0
 36 37  2  0
 37 38  1  0
 35 39  1  0
 39 40  2  0
 39  2  1  0
 14 10  1  0
 25 16  2  0
 38 26  1  0
 38 29  2  0
  1 41  1  0
  1 42  1  0
  1 43  1  0
  3 44  1  0
  3 45  1  0
  4 46  1  0
  4 47  1  0
  6 48  1  0
  6 49  1  0
  7 50  1  0
  7 51  1  0
  9 52  1  0
  9 53  1  0
  9 54  1  0
 10 55  1  6
 11 56  1  0
 11 57  1  0
 12 58  1  0
 12 59  1  0
 13 60  1  1
 14 61  1  0
 14 62  1  0
 15 63  1  0
 18 64  1  0
 27 65  1  0
 28 66  1  0
 32 67  1  0
 32 68  1  0
 32 69  1  0
 33 70  1  0
 33 71  1  0
 33 72  1  0
 36 73  1  0
 37 74  1  0
M  END
$$$$
