
     RDKit          3D

 80 84  0  0  0  0  0  0  0  0999 V2000
    1.6319   -2.2482   -2.1713 C   0  0  0  0  0  0  0  0  0  0  0  0
    0.5520   -1.6179   -1.2547 C   0  0  0  0  0  0  0  0  0  0  0  0
   -0.5806   -1.0973   -2.1684 C   0  0  0  0  0  0  0  0  0  0  0  0
   -0.0296   -2.6900   -0.2743 C   0  0  0  0  0  0  0  0  0  0  0  0
   -0.3595   -3.9516   -0.9386 N   0  0  0  0  0  0  0  0  0  0  0  0
   -1.6374   -4.2336   -1.5228 C   0  0  0  0  0  0  0  0  0  0  0  0
   -1.6770   -4.6175   -2.7237 O   0  0  0  0  0  0  0  0  0  0  0  0
   -2.9257   -4.2135   -0.7378 C   0  0  2  0  0  0  0  0  0  0  0  0
   -3.9276   -3.1565   -1.2276 C   0  0  0  0  0  0  0  0  0  0  0  0
   -4.8137   -2.8743    0.0000 C   0  0  2  0  0  0  0  0  0  0  0  0
   -5.4900   -1.4680   -0.0372 C   0  0  0  0  0  0  0  0  0  0  0  0
   -4.9331   -0.3348    0.8526 C   0  0  1  0  0  0  0  0  0  0  0  0
   -5.3237   -0.5120    2.2663 C   0  0  0  0  0  0  0  0  0  0  0  0
   -5.6371   -0.6433    3.3732 N   0  0  0  0  0  0  0  0  0  0  0  0
   -3.4886   -0.1473    0.6547 N   0  0  0  0  0  0  0  0  0  0  0  0
   -2.5891    0.2506    1.7038 C   0  0  0  0  0  0  0  0  0  0  0  0
   -2.5298   -0.4184    2.7740 O   0  0  0  0  0  0  0  0  0  0  0  0
   -1.6668    1.4282    1.5230 C   0  0  2  0  0  0  0  0  0  0  0  0
   -2.4320    2.6573    1.0238 C   0  0  2  0  0  0  0  0  0  0  0  0
   -1.7641    3.1002   -0.2855 C   0  0  2  0  0  0  0  0  0  0  0  0
   -0.6216    2.1243   -0.5530 C   0  0  0  0  0  0  0  0  0  0  0  0
   -0.6534    1.1389    0.5182 N   0  0  0  0  0  0  0  0  0  0  0  0
    0.3112    0.0804    0.6812 C   0  0  0  0  0  0  0  0  0  0  0  0
    0.3870   -0.5087    1.7937 O   0  0  0  0  0  0  0  0  0  0  0  0
    1.1845   -0.4071   -0.4627 C   0  0  1  0  0  0  0  0  0  0  0  0
    2.5077   -0.7640    0.0734 N   0  0  0  0  0  0  0  0  0  0  0  0
    3.7390   -0.2711   -0.4715 C   0  0  0  0  0  0  0  0  0  0  0  0
    3.7375    0.6619   -1.3201 O   0  0  0  0  0  0  0  0  0  0  0  0
    4.9437   -0.8515   -0.0603 O   0  0  0  0  0  0  0  0  0  0  0  0
    6.2163   -0.4596   -0.5740 C   0  0  0  0  0  0  0  0  0  0  0  0
    6.6391    0.8794   -0.0279 C   0  0  0  0  0  0  0  0  0  0  0  0
    7.3085    1.7978   -0.8552 C   0  0  0  0  0  0  0  0  0  0  0  0
    7.7840    3.0039   -0.3295 C   0  0  0  0  0  0  0  0  0  0  0  0
    7.6000    3.2985    1.0232 C   0  0  0  0  0  0  0  0  0  0  0  0
    6.9387    2.3911    1.8537 C   0  0  0  0  0  0  0  0  0  0  0  0
    6.4717    1.1780    1.3353 C   0  0  0  0  0  0  0  0  0  0  0  0
   -1.7239    4.0125    0.9433 C   0  0  0  0  0  0  0  0  0  0  0  0
   -0.3870    4.2237    1.6758 C   0  0  0  0  0  0  0  0  0  0  0  0
   -2.6568    5.2250    0.8701 C   0  0  0  0  0  0  0  0  0  0  0  0
   -3.8890   -3.2200    1.1204 C   0  0  0  0  0  0  0  0  0  0  0  0
   -4.1689   -3.0995    2.3421 O   0  0  0  0  0  0  0  0  0  0  0  0
   -2.7542   -3.9412    0.6772 N   0  0  0  0  0  0  0  0  0  0  0  0
    2.1406   -1.4602   -2.7702 H   0  0  0  0  0  0  0  0  0  0  0  0
    2.3912   -2.7911   -1.5673 H   0  0  0  0  0  0  0  0  0  0  0  0
    1.1828   -2.9748   -2.8837 H   0  0  0  0  0  0  0  0  0  0  0  0
   -1.0197   -1.9147   -2.7762 H   0  0  0  0  0  0  0  0  0  0  0  0
   -1.3940   -0.6500   -1.5665 H   0  0  0  0  0  0  0  0  0  0  0  0
   -0.1977   -0.3334   -2.8752 H   0  0  0  0  0  0  0  0  0  0  0  0
    0.7146   -2.9168    0.5173 H   0  0  0  0  0  0  0  0  0  0  0  0
   -0.9258   -2.2846    0.2353 H   0  0  0  0  0  0  0  0  0  0  0  0
    0.4371   -4.5620   -1.2236 H   0  0  0  0  0  0  0  0  0  0  0  0
   -3.3947   -5.2165   -0.8343 H   0  0  0  0  0  0  0  0  0  0  0  0
   -4.5250   -3.5334   -2.0853 H   0  0  0  0  0  0  0  0  0  0  0  0
   -3.3824   -2.2319   -1.5255 H   0  0  0  0  0  0  0  0  0  0  0  0
   -5.6223   -3.6419    0.0051 H   0  0  0  0  0  0  0  0  0  0  0  0
   -6.5665   -1.5991    0.2122 H   0  0  0  0  0  0  0  0  0  0  0  0
   -5.4942   -1.1029   -1.0866 H   0  0  0  0  0  0  0  0  0  0  0  0
   -5.4318    0.6051    0.5262 H   0  0  0  0  0  0  0  0  0  0  0  0
   -3.2016    0.0986   -0.3194 H   0  0  0  0  0  0  0  0  0  0  0  0
   -1.1817    1.6635    2.4973 H   0  0  0  0  0  0  0  0  0  0  0  0
   -3.5436    2.6536    0.9741 H   0  0  0  0  0  0  0  0  0  0  0  0
   -2.5122    3.2966   -1.0845 H   0  0  0  0  0  0  0  0  0  0  0  0
   -0.7935    1.6364   -1.5324 H   0  0  0  0  0  0  0  0  0  0  0  0
    0.3530    2.6555   -0.5728 H   0  0  0  0  0  0  0  0  0  0  0  0
    1.3146    0.4342   -1.1728 H   0  0  0  0  0  0  0  0  0  0  0  0
    2.5756   -1.5126    0.7989 H   0  0  0  0  0  0  0  0  0  0  0  0
    6.9697   -1.2146   -0.2701 H   0  0  0  0  0  0  0  0  0  0  0  0
    6.1808   -0.4511   -1.6845 H   0  0  0  0  0  0  0  0  0  0  0  0
    7.4756    1.5729   -1.9014 H   0  0  0  0  0  0  0  0  0  0  0  0
    8.3114    3.7031   -0.9676 H   0  0  0  0  0  0  0  0  0  0  0  0
    7.9714    4.2293    1.4310 H   0  0  0  0  0  0  0  0  0  0  0  0
    6.8000    2.6214    2.9043 H   0  0  0  0  0  0  0  0  0  0  0  0
    5.9795    0.4762    1.9966 H   0  0  0  0  0  0  0  0  0  0  0  0
    0.1839    5.0282    1.1661 H   0  0  0  0  0  0  0  0  0  0  0  0
   -0.5885    4.5415    2.7232 H   0  0  0  0  0  0  0  0  0  0  0  0
    0.2587    3.3248    1.7116 H   0  0  0  0  0  0  0  0  0  0  0  0
   -3.5738    5.0169    0.2716 H   0  0  0  0  0  0  0  0  0  0  0  0
   -2.1230    6.0714    0.3964 H   0  0  0  0  0  0  0  0  0  0  0  0
   -2.9579    5.5177    1.8986 H   0  0  0  0  0  0  0  0  0  0  0  0
   -2.1027   -4.4601    1.3092 H   0  0  0  0  0  0  0  0  0  0  0  0
  1  2  1  0
  2  3  1  0
  2  4  1  0
  4  5  1  0
  5  6  1  0
  6  7  2  0
  6  8  1  0
  8  9  1  0
  9 10  1  0
 10 11  1  0
 11 12  1  0
 12 13  1  0
 13 14  3  0
 12 15  1  0
 15 16  1  0
 16 17  2  0
 16 18  1  0
 18 19  1  0
 19 20  1  0
 20 21  1  0
 21 22  1  0
 22 23  1  0
 23 24  2  0
 23 25  1  0
 25 26  1  0
 26 27  1  0
 27 28  2  0
 27 29  1  0
 29 30  1  0
 30 31  1  0
 31 32  2  0
 32 33  1  0
 33 34  2  0
 34 35  1  0
 35 36  2  0
 20 37  1  0
 37 38  1  0
 37 39  1  0
 10 40  1  0
 40 41  2  0
 40 42  1  0
 25  2  1  0
 36 31  1  0
 42  8  1  0
 22 18  1  0
 37 19  1  0
  1 43  1  0
  1 44  1  0
  1 45  1  0
  3 46  1  0
  3 47  1  0
  3 48  1  0
  4 49  1  0
  4 50  1  0
  5 51  1  0
  8 52  1  1
  9 53  1  0
  9 54  1  0
 10 55  1  6
 11 56  1  0
 11 57  1  0
 12 58  1  6
 15 59  1  0
 18 60  1  1
 19 61  1  6
 20 62  1  6
 21 63  1  0
 21 64  1  0
 25 65  1  6
 26 66  1  0
 30 67  1  0
 30 68  1  0
 32 69  1  0
 33 70  1  0
 34 71  1  0
 35 72  1  0
 36 73  1  0
 38 74  1  0
 38 75  1  0
 38 76  1  0
 39 77  1  0
 39 78  1  0
 39 79  1  0
 42 80  1  0
M  END
$$$$
