
     RDKit          3D

 74 77  0  0  0  0  0  0  0  0999 V2000
   -4.8435   -3.3785   -2.2330 C   0  0  0  0  0  0  0  0  0  0  0  0
   -5.1655   -2.4437   -1.0674 C   0  0  0  0  0  0  0  0  0  0  0  0
   -4.7108   -0.9935   -1.3178 C   0  0  0  0  0  0  0  0  0  0  0  0
   -3.1786   -0.7880   -1.2109 C   0  0  1  0  0  0  0  0  0  0  0  0
   -2.7922    0.5130   -1.7809 N   0  0  0  0  0  0  0  0  0  0  0  0
   -3.3298    1.7872   -1.3828 C   0  0  0  0  0  0  0  0  0  0  0  0
   -3.4695    2.6921   -2.2486 O   0  0  0  0  0  0  0  0  0  0  0  0
   -3.7119    2.0742    0.0096 C   0  0  0  0  0  0  0  0  0  0  0  0
   -5.0737    2.1831    0.3238 C   0  0  0  0  0  0  0  0  0  0  0  0
   -5.4787    2.3235    1.6501 C   0  0  0  0  0  0  0  0  0  0  0  0
   -4.5149    2.3648    2.6556 C   0  0  0  0  0  0  0  0  0  0  0  0
   -3.1957    2.3155    2.3356 N   0  0  0  0  0  0  0  0  0  0  0  0
   -2.7604    2.2075    1.0507 C   0  0  0  0  0  0  0  0  0  0  0  0
   -1.3760    2.2461    0.8283 O   0  0  0  0  0  0  0  0  0  0  0  0
   -0.7498    2.9462   -0.2474 C   0  0  0  0  0  0  0  0  0  0  0  0
    0.6811    3.2999    0.1411 C   0  0  0  0  0  0  0  0  0  0  0  0
    1.3820    2.1177    0.4570 O   0  0  0  0  0  0  0  0  0  0  0  0
    2.6943    2.4274    0.8732 C   0  0  0  0  0  0  0  0  0  0  0  0
    3.3391    1.1827    1.4911 C   0  0  0  0  0  0  0  0  0  0  0  0
    3.3535    0.0553    0.5220 N   0  0  0  0  0  0  0  0  0  0  0  0
    4.6107    0.0921   -0.2863 C   0  0  0  0  0  0  0  0  0  0  0  0
    5.8821   -0.3800    0.4512 C   0  0  0  0  0  0  0  0  0  0  0  0
    6.6167   -1.3071   -0.5154 C   0  0  0  0  0  0  0  0  0  0  0  0
    5.9794   -1.0856   -1.8769 C   0  0  0  0  0  0  0  0  0  0  0  0
    4.5363   -0.7285   -1.5757 C   0  0  0  0  0  0  0  0  0  0  0  0
    3.0874   -1.2550    1.1821 C   0  0  0  0  0  0  0  0  0  0  0  0
    1.5992   -1.6901    1.0982 C   0  0  0  0  0  0  0  0  0  0  0  0
    0.6810   -0.9044    2.0523 C   0  0  0  0  0  0  0  0  0  0  0  0
   -0.7807   -1.3107    1.8590 C   0  0  0  0  0  0  0  0  0  0  0  0
   -1.2168   -1.1134    0.4631 N   0  0  0  0  0  0  0  0  0  0  0  0
   -0.2031   -0.8958   -0.5861 C   0  0  0  0  0  0  0  0  0  0  0  0
    1.0502   -1.7499   -0.3541 C   0  0  0  0  0  0  0  0  0  0  0  0
   -2.6341   -0.9483    0.1985 C   0  0  0  0  0  0  0  0  0  0  0  0
   -3.4434   -0.9266    1.1694 O   0  0  0  0  0  0  0  0  0  0  0  0
   -5.2271   -2.9588   -3.1871 H   0  0  0  0  0  0  0  0  0  0  0  0
   -3.7501   -3.5465   -2.3146 H   0  0  0  0  0  0  0  0  0  0  0  0
   -5.3296   -4.3627   -2.0608 H   0  0  0  0  0  0  0  0  0  0  0  0
   -4.7138   -2.8450   -0.1372 H   0  0  0  0  0  0  0  0  0  0  0  0
   -6.2684   -2.4411   -0.9233 H   0  0  0  0  0  0  0  0  0  0  0  0
   -5.2294   -0.3411   -0.5869 H   0  0  0  0  0  0  0  0  0  0  0  0
   -5.0545   -0.6751   -2.3251 H   0  0  0  0  0  0  0  0  0  0  0  0
   -2.7187   -1.5786   -1.8372 H   0  0  0  0  0  0  0  0  0  0  0  0
   -2.2386    0.4937   -2.6680 H   0  0  0  0  0  0  0  0  0  0  0  0
   -5.8249    2.1143   -0.4553 H   0  0  0  0  0  0  0  0  0  0  0  0
   -6.5300    2.3801    1.8988 H   0  0  0  0  0  0  0  0  0  0  0  0
   -4.8143    2.4551    3.6905 H   0  0  0  0  0  0  0  0  0  0  0  0
   -1.3043    3.8847   -0.4656 H   0  0  0  0  0  0  0  0  0  0  0  0
   -0.7340    2.3159   -1.1590 H   0  0  0  0  0  0  0  0  0  0  0  0
    1.1636    3.8254   -0.7141 H   0  0  0  0  0  0  0  0  0  0  0  0
    0.6394    3.9841    1.0192 H   0  0  0  0  0  0  0  0  0  0  0  0
    2.7000    3.2261    1.6526 H   0  0  0  0  0  0  0  0  0  0  0  0
    3.2955    2.7766    0.0061 H   0  0  0  0  0  0  0  0  0  0  0  0
    4.3668    1.4376    1.8368 H   0  0  0  0  0  0  0  0  0  0  0  0
    2.7747    0.9345    2.4146 H   0  0  0  0  0  0  0  0  0  0  0  0
    4.7983    1.1394   -0.6198 H   0  0  0  0  0  0  0  0  0  0  0  0
    5.6720   -0.9113    1.4029 H   0  0  0  0  0  0  0  0  0  0  0  0
    6.5241    0.4972    0.6911 H   0  0  0  0  0  0  0  0  0  0  0  0
    7.7071   -1.0929   -0.5371 H   0  0  0  0  0  0  0  0  0  0  0  0
    6.4585   -2.3634   -0.2088 H   0  0  0  0  0  0  0  0  0  0  0  0
    6.4753   -0.2319   -2.3872 H   0  0  0  0  0  0  0  0  0  0  0  0
    6.0519   -1.9886   -2.5185 H   0  0  0  0  0  0  0  0  0  0  0  0
    4.0808   -0.1468   -2.4057 H   0  0  0  0  0  0  0  0  0  0  0  0
    3.9728   -1.6728   -1.4448 H   0  0  0  0  0  0  0  0  0  0  0  0
    3.4128   -1.2454    2.2471 H   0  0  0  0  0  0  0  0  0  0  0  0
    3.6806   -2.0697    0.7140 H   0  0  0  0  0  0  0  0  0  0  0  0
    1.5819   -2.7376    1.4794 H   0  0  0  0  0  0  0  0  0  0  0  0
    0.9797   -1.0937    3.1071 H   0  0  0  0  0  0  0  0  0  0  0  0
    0.7487    0.1827    1.8642 H   0  0  0  0  0  0  0  0  0  0  0  0
   -1.3896   -0.6825    2.5446 H   0  0  0  0  0  0  0  0  0  0  0  0
   -0.9231   -2.3759    2.1428 H   0  0  0  0  0  0  0  0  0  0  0  0
   -0.5871   -1.1520   -1.5906 H   0  0  0  0  0  0  0  0  0  0  0  0
    0.0803    0.1719   -0.6021 H   0  0  0  0  0  0  0  0  0  0  0  0
    1.8090   -1.4303   -1.0920 H   0  0  0  0  0  0  0  0  0  0  0  0
    0.7998   -2.8049   -0.5997 H   0  0  0  0  0  0  0  0  0  0  0  0
  1  2  1  0
  2  3  1  0
  3  4  1  0
  4  5  1  0
  5  6  1  0
  6  7  2  0
  6  8  1  0
  8  9  2  0
  9 10  1  0
 10 11  2  0
 11 12  1  0
 12 13  2  0
 13 14  1  0
 14 15  1  0
 15 16  1  0
 16 17  1  0
 17 18  1  0
 18 19  1  0
 19 20  1  0
 20 21  1  0
 21 22  1  0
 22 23  1  0
 23 24  1  0
 24 25  1  0
 20 26  1  0
 26 27  1  0
 27 28  1  0
 28 29  1  0
 29 30  1  0
 30 31  1  0
 31 32  1  0
 30 33  1  0
 33 34  2  0
 33  4  1  0
 13  8  1  0
 25 21  1  0
 32 27  1  0
  1 35  1  0
  1 36  1  0
  1 37  1  0
  2 38  1  0
  2 39  1  0
  3 40  1  0
  3 41  1  0
  4 42  1  6
  5 43  1  0
  9 44  1  0
 10 45  1  0
 11 46  1  0
 15 47  1  0
 15 48  1  0
 16 49  1  0
 16 50  1  0
 18 51  1  0
 18 52  1  0
 19 53  1  0
 19 54  1  0
 21 55  1  0
 22 56  1  0
 22 57  1  0
 23 58  1  0
 23 59  1  0
 24 60  1  0
 24 61  1  0
 25 62  1  0
 25 63  1  0
 26 64  1  0
 26 65  1  0
 27 66  1  0
 28 67  1  0
 28 68  1  0
 29 69  1  0
 29 70  1  0
 31 71  1  0
 31 72  1  0
 32 73  1  0
 32 74  1  0
M  END
$$$$
