
     RDKit          3D

 68 71  0  0  0  0  0  0  0  0999 V2000
    4.9935   -0.0900    2.4201 C   0  0  0  0  0  0  0  0  0  0  0  0
    5.5907   -0.1915    1.0131 C   0  0  0  0  0  0  0  0  0  0  0  0
    5.2822   -1.5084    0.2637 C   0  0  1  0  0  0  0  0  0  0  0  0
    5.6833   -2.7530    1.0631 C   0  0  0  0  0  0  0  0  0  0  0  0
    3.5706   -1.6315   -0.2870 S   0  0  0  0  0  6  0  0  0  0  0  0
    3.4368   -2.8751   -1.1196 O   0  0  0  0  0  0  0  0  0  0  0  0
    2.6412   -1.7508    0.8902 O   0  0  0  0  0  0  0  0  0  0  0  0
    3.1471   -0.2662   -1.2905 N   0  0  0  0  0  0  0  0  0  0  0  0
    2.4143    0.7716   -0.5366 C   0  0  1  0  0  0  0  0  0  0  0  0
    2.6955    2.1729   -1.1282 C   0  0  0  0  0  0  0  0  0  0  0  0
    2.0398    3.2885   -0.2855 C   0  0  0  0  0  0  0  0  0  0  0  0
    0.6847    2.8662    0.3080 C   0  0  0  0  0  0  0  0  0  0  0  0
    0.1165    1.7777   -0.4875 N   0  0  0  0  0  0  0  0  0  0  0  0
   -0.8935    2.1171   -1.4554 C   0  0  0  0  0  0  0  0  0  0  0  0
   -0.5968    2.1787   -2.6783 O   0  0  0  0  0  0  0  0  0  0  0  0
   -2.3051    2.3613   -1.0187 C   0  0  0  0  0  0  0  0  0  0  0  0
   -2.8647    1.1607   -0.4822 O   0  0  0  0  0  0  0  0  0  0  0  0
   -4.1330    1.0676    0.1183 C   0  0  0  0  0  0  0  0  0  0  0  0
   -4.9877    2.1910    0.1557 C   0  0  0  0  0  0  0  0  0  0  0  0
   -6.2582    2.1074    0.7237 C   0  0  0  0  0  0  0  0  0  0  0  0
   -6.6968    0.9086    1.2738 C   0  0  0  0  0  0  0  0  0  0  0  0
   -5.8638   -0.2109    1.2642 C   0  0  0  0  0  0  0  0  0  0  0  0
   -4.5721   -0.1590    0.6973 C   0  0  0  0  0  0  0  0  0  0  0  0
   -3.7936   -1.4753    0.6249 C   0  0  0  0  0  0  0  0  0  0  0  0
   -2.2986   -1.3863    1.0360 C   0  0  0  0  0  0  0  0  0  0  0  0
   -1.4035   -2.2622    0.1519 C   0  0  0  0  0  0  0  0  0  0  0  0
   -1.5400   -1.8724   -1.3374 C   0  0  0  0  0  0  0  0  0  0  0  0
   -3.0186   -1.8726   -1.8084 C   0  0  0  0  0  0  0  0  0  0  0  0
   -4.0401   -2.2132   -0.7133 C   0  0  0  0  0  0  0  0  0  0  0  0
   -1.0326   -0.5729   -1.5615 O   0  0  0  0  0  0  0  0  0  0  0  0
    0.3803   -0.4997   -1.5846 C   0  0  0  0  0  0  0  0  0  0  0  0
    0.8681    0.4953   -0.4965 C   0  0  1  0  0  0  0  0  0  0  0  0
    5.2331    0.9074    2.8466 H   0  0  0  0  0  0  0  0  0  0  0  0
    5.4325   -0.8574    3.0914 H   0  0  0  0  0  0  0  0  0  0  0  0
    3.8915   -0.1983    2.4036 H   0  0  0  0  0  0  0  0  0  0  0  0
    5.2422    0.6710    0.4075 H   0  0  0  0  0  0  0  0  0  0  0  0
    6.6947   -0.0867    1.1024 H   0  0  0  0  0  0  0  0  0  0  0  0
    5.9054   -1.5020   -0.6578 H   0  0  0  0  0  0  0  0  0  0  0  0
    5.6267   -3.6528    0.4135 H   0  0  0  0  0  0  0  0  0  0  0  0
    5.0071   -2.9056    1.9318 H   0  0  0  0  0  0  0  0  0  0  0  0
    6.7296   -2.6564    1.4248 H   0  0  0  0  0  0  0  0  0  0  0  0
    4.0463    0.1165   -1.6608 H   0  0  0  0  0  0  0  0  0  0  0  0
    2.7879    0.8101    0.5103 H   0  0  0  0  0  0  0  0  0  0  0  0
    2.3022    2.2153   -2.1680 H   0  0  0  0  0  0  0  0  0  0  0  0
    3.7902    2.3619   -1.1727 H   0  0  0  0  0  0  0  0  0  0  0  0
    1.8986    4.1849   -0.9289 H   0  0  0  0  0  0  0  0  0  0  0  0
    2.7222    3.5748    0.5454 H   0  0  0  0  0  0  0  0  0  0  0  0
   -0.0013    3.7403    0.3489 H   0  0  0  0  0  0  0  0  0  0  0  0
    0.8325    2.5134    1.3523 H   0  0  0  0  0  0  0  0  0  0  0  0
   -2.9139    2.6985   -1.8857 H   0  0  0  0  0  0  0  0  0  0  0  0
   -2.3072    3.1600   -0.2496 H   0  0  0  0  0  0  0  0  0  0  0  0
   -4.6913    3.1370   -0.2757 H   0  0  0  0  0  0  0  0  0  0  0  0
   -6.9105    2.9725    0.7207 H   0  0  0  0  0  0  0  0  0  0  0  0
   -7.6937    0.8406    1.6947 H   0  0  0  0  0  0  0  0  0  0  0  0
   -6.2484   -1.1353    1.6778 H   0  0  0  0  0  0  0  0  0  0  0  0
   -4.2393   -2.1523    1.3898 H   0  0  0  0  0  0  0  0  0  0  0  0
   -1.9109   -0.3518    1.0323 H   0  0  0  0  0  0  0  0  0  0  0  0
   -2.1879   -1.7319    2.0869 H   0  0  0  0  0  0  0  0  0  0  0  0
   -0.3494   -2.1722    0.4893 H   0  0  0  0  0  0  0  0  0  0  0  0
   -1.6833   -3.3304    0.2845 H   0  0  0  0  0  0  0  0  0  0  0  0
   -0.9926   -2.6195   -1.9574 H   0  0  0  0  0  0  0  0  0  0  0  0
   -3.1371   -2.6076   -2.6347 H   0  0  0  0  0  0  0  0  0  0  0  0
   -3.2913   -0.8836   -2.2379 H   0  0  0  0  0  0  0  0  0  0  0  0
   -3.9927   -3.3101   -0.5311 H   0  0  0  0  0  0  0  0  0  0  0  0
   -5.0668   -2.0045   -1.0886 H   0  0  0  0  0  0  0  0  0  0  0  0
    0.6948   -0.1359   -2.5848 H   0  0  0  0  0  0  0  0  0  0  0  0
    0.8737   -1.4856   -1.4328 H   0  0  0  0  0  0  0  0  0  0  0  0
    0.6606    0.0019    0.4781 H   0  0  0  0  0  0  0  0  0  0  0  0
  1  2  1  0
  2  3  1  0
  3  4  1  0
  3  5  1  0
  5  6  2  0
  5  7  2  0
  5  8  1  0
  8  9  1  0
  9 10  1  0
 10 11  1  0
 11 12  1  0
 12 13  1  0
 13 14  1  0
 14 15  2  0
 14 16  1  0
 16 17  1  0
 17 18  1  0
 18 19  2  0
 19 20  1  0
 20 21  2  0
 21 22  1  0
 22 23  2  0
 23 24  1  0
 24 25  1  0
 25 26  1  0
 26 27  1  0
 27 28  1  0
 28 29  1  0
 27 30  1  0
 30 31  1  0
 31 32  1  0
 32  9  1  0
 32 13  1  0
 23 18  1  0
 29 24  1  0
  1 33  1  0
  1 34  1  0
  1 35  1  0
  2 36  1  0
  2 37  1  0
  3 38  1  6
  4 39  1  0
  4 40  1  0
  4 41  1  0
  8 42  1  0
  9 43  1  1
 10 44  1  0
 10 45  1  0
 11 46  1  0
 11 47  1  0
 12 48  1  0
 12 49  1  0
 16 50  1  0
 16 51  1  0
 19 52  1  0
 20 53  1  0
 21 54  1  0
 22 55  1  0
 24 56  1  0
 25 57  1  0
 25 58  1  0
 26 59  1  0
 26 60  1  0
 27 61  1  0
 28 62  1  0
 28 63  1  0
 29 64  1  0
 29 65  1  0
 31 66  1  0
 31 67  1  0
 32 68  1  1
M  END
$$$$
