
     RDKit          3D

 56 59  0  0  0  0  0  0  0  0999 V2000
    0.6546    3.8098    3.0210 C   0  0  0  0  0  0  0  0  0  0  0  0
   -0.0562    2.9886    2.0330 N   0  0  0  0  0  0  0  0  0  0  0  0
    0.5703    1.9054    1.4826 C   0  0  0  0  0  0  0  0  0  0  0  0
   -0.0867    1.0813    0.5569 C   0  0  0  0  0  0  0  0  0  0  0  0
   -1.4134    1.3936    0.1864 C   0  0  0  0  0  0  0  0  0  0  0  0
   -2.0403    2.4887    0.7812 C   0  0  0  0  0  0  0  0  0  0  0  0
   -1.3540    3.2781    1.7053 C   0  0  0  0  0  0  0  0  0  0  0  0
   -1.9481    4.2563    2.2362 O   0  0  0  0  0  0  0  0  0  0  0  0
   -2.1804    0.6115   -0.6883 O   0  0  0  0  0  0  0  0  0  0  0  0
   -1.7730    0.1590   -1.9760 C   0  0  0  0  0  0  0  0  0  0  0  0
   -1.6512   -1.3714   -2.0380 C   0  0  0  0  0  0  0  0  0  0  0  0
   -2.7989   -2.1226   -1.3321 C   0  0  0  0  0  0  0  0  0  0  0  0
   -2.4445   -2.6192    0.0884 C   0  0  0  0  0  0  0  0  0  0  0  0
   -2.5932   -1.5650    1.1658 C   0  0  0  0  0  0  0  0  0  0  0  0
   -3.8749   -1.0487    1.4358 C   0  0  0  0  0  0  0  0  0  0  0  0
   -4.0752   -0.1441    2.4825 C   0  0  0  0  0  0  0  0  0  0  0  0
   -5.6746    0.5084    2.7845 Cl  0  0  0  0  0  0  0  0  0  0  0  0
   -3.0056    0.2285    3.2976 C   0  0  0  0  0  0  0  0  0  0  0  0
   -1.7332   -0.2913    3.0602 C   0  0  0  0  0  0  0  0  0  0  0  0
   -1.5088   -1.1642    1.9878 C   0  0  0  0  0  0  0  0  0  0  0  0
   -0.2114   -1.6476    1.7936 O   0  0  0  0  0  0  0  0  0  0  0  0
    0.6039   -1.3594    0.6876 C   0  0  0  0  0  0  0  0  0  0  0  0
    1.4527   -2.3787    0.2393 C   0  0  0  0  0  0  0  0  0  0  0  0
    2.3063   -2.1757   -0.8452 C   0  0  0  0  0  0  0  0  0  0  0  0
    2.3406   -0.9358   -1.4943 C   0  0  0  0  0  0  0  0  0  0  0  0
    3.2961   -0.7006   -2.6301 C   0  0  0  0  0  0  0  0  0  0  0  0
    4.8551   -0.0882   -2.0145 S   0  0  0  0  0  6  0  0  0  0  0  0
    5.9605    0.1827   -3.3808 C   0  0  0  0  0  0  0  0  0  0  0  0
    5.4618   -1.0940   -1.0768 O   0  0  0  0  0  0  0  0  0  0  0  0
    4.6406    1.2083   -1.2851 O   0  0  0  0  0  0  0  0  0  0  0  0
    1.5273    0.1062   -1.0289 C   0  0  0  0  0  0  0  0  0  0  0  0
    0.6392   -0.0947    0.0410 C   0  0  0  0  0  0  0  0  0  0  0  0
    1.7416    3.5776    3.0437 H   0  0  0  0  0  0  0  0  0  0  0  0
    0.5494    4.8871    2.7699 H   0  0  0  0  0  0  0  0  0  0  0  0
    0.2323    3.6259    4.0314 H   0  0  0  0  0  0  0  0  0  0  0  0
    1.5878    1.6621    1.7699 H   0  0  0  0  0  0  0  0  0  0  0  0
   -3.0693    2.7186    0.5311 H   0  0  0  0  0  0  0  0  0  0  0  0
   -2.5518    0.4743   -2.7027 H   0  0  0  0  0  0  0  0  0  0  0  0
   -0.8268    0.6429   -2.2955 H   0  0  0  0  0  0  0  0  0  0  0  0
   -0.6699   -1.7064   -1.6584 H   0  0  0  0  0  0  0  0  0  0  0  0
   -1.6571   -1.6543   -3.1136 H   0  0  0  0  0  0  0  0  0  0  0  0
   -3.7301   -1.5166   -1.3313 H   0  0  0  0  0  0  0  0  0  0  0  0
   -3.0259   -3.0261   -1.9401 H   0  0  0  0  0  0  0  0  0  0  0  0
   -3.1408   -3.4478    0.3434 H   0  0  0  0  0  0  0  0  0  0  0  0
   -1.4348   -3.0779    0.0920 H   0  0  0  0  0  0  0  0  0  0  0  0
   -4.7240   -1.3600    0.8401 H   0  0  0  0  0  0  0  0  0  0  0  0
   -3.1583    0.9213    4.1151 H   0  0  0  0  0  0  0  0  0  0  0  0
   -0.9088    0.0049    3.6964 H   0  0  0  0  0  0  0  0  0  0  0  0
    1.4430   -3.3420    0.7332 H   0  0  0  0  0  0  0  0  0  0  0  0
    2.9489   -2.9836   -1.1727 H   0  0  0  0  0  0  0  0  0  0  0  0
    3.4722   -1.6440   -3.1897 H   0  0  0  0  0  0  0  0  0  0  0  0
    2.8722    0.0381   -3.3436 H   0  0  0  0  0  0  0  0  0  0  0  0
    6.9317    0.5638   -3.0033 H   0  0  0  0  0  0  0  0  0  0  0  0
    5.5175    0.9265   -4.0747 H   0  0  0  0  0  0  0  0  0  0  0  0
    6.1242   -0.7726   -3.9209 H   0  0  0  0  0  0  0  0  0  0  0  0
    1.5909    1.0825   -1.4964 H   0  0  0  0  0  0  0  0  0  0  0  0
  1  2  1  0
  2  3  1  0
  3  4  2  0
  4  5  1  0
  5  6  2  0
  6  7  1  0
  7  8  2  0
  5  9  1  0
  9 10  1  0
 10 11  1  0
 11 12  1  0
 12 13  1  0
 13 14  1  0
 14 15  2  0
 15 16  1  0
 16 17  1  0
 16 18  2  0
 18 19  1  0
 19 20  2  0
 20 21  1  0
 21 22  1  0
 22 23  2  0
 23 24  1  0
 24 25  2  0
 25 26  1  0
 26 27  1  0
 27 28  1  0
 27 29  2  0
 27 30  2  0
 25 31  1  0
 31 32  2  0
  7  2  1  0
 20 14  1  0
 32 22  1  0
 32  4  1  0
  1 33  1  0
  1 34  1  0
  1 35  1  0
  3 36  1  0
  6 37  1  0
 10 38  1  0
 10 39  1  0
 11 40  1  0
 11 41  1  0
 12 42  1  0
 12 43  1  0
 13 44  1  0
 13 45  1  0
 15 46  1  0
 18 47  1  0
 19 48  1  0
 23 49  1  0
 24 50  1  0
 26 51  1  0
 26 52  1  0
 28 53  1  0
 28 54  1  0
 28 55  1  0
 31 56  1  0
M  END
$$$$
