
     RDKit          3D

 59 62  0  0  0  0  0  0  0  0999 V2000
    6.3374   -0.4727    0.5484 C   0  0  0  0  0  0  0  0  0  0  0  0
    5.0086   -0.9900    1.6146 S   0  0  0  0  0  6  0  0  0  0  0  0
    5.4469   -2.2284    2.3440 O   0  0  0  0  0  0  0  0  0  0  0  0
    4.7395    0.0930    2.6221 O   0  0  0  0  0  0  0  0  0  0  0  0
    3.5437   -1.3507    0.7375 N   0  0  0  0  0  0  0  0  0  0  0  0
    3.0334   -0.1699    0.0039 C   0  0  1  0  0  0  0  0  0  0  0  0
    3.5296   -0.2244   -1.4578 C   0  0  0  0  0  0  0  0  0  0  0  0
    3.2007    1.0788   -2.2176 C   0  0  0  0  0  0  0  0  0  0  0  0
    1.8404    1.6710   -1.8073 C   0  0  0  0  0  0  0  0  0  0  0  0
    0.9971    0.6130   -1.2512 N   0  0  0  0  0  0  0  0  0  0  0  0
    0.1398   -0.0780   -2.1804 C   0  0  0  0  0  0  0  0  0  0  0  0
    0.4946   -1.1876   -2.6618 O   0  0  0  0  0  0  0  0  0  0  0  0
   -1.2114    0.4735   -2.5084 C   0  0  0  0  0  0  0  0  0  0  0  0
   -2.0920    0.1190   -1.4520 O   0  0  0  0  0  0  0  0  0  0  0  0
   -3.3830    0.6172   -1.2260 C   0  0  0  0  0  0  0  0  0  0  0  0
   -4.1531    1.2031   -2.2533 C   0  0  0  0  0  0  0  0  0  0  0  0
   -3.6781    1.3136   -3.5182 F   0  0  0  0  0  0  0  0  0  0  0  0
   -5.4458    1.6590   -1.9877 C   0  0  0  0  0  0  0  0  0  0  0  0
   -5.9848    1.5419   -0.7074 C   0  0  0  0  0  0  0  0  0  0  0  0
   -7.2420    1.9851   -0.4598 F   0  0  0  0  0  0  0  0  0  0  0  0
   -5.2315    0.9738    0.3202 C   0  0  0  0  0  0  0  0  0  0  0  0
   -3.9257    0.5091    0.0809 C   0  0  0  0  0  0  0  0  0  0  0  0
   -3.1117   -0.0489    1.2465 C   0  0  0  0  0  0  0  0  0  0  0  0
   -2.7871   -1.5465    1.0411 C   0  0  0  0  0  0  0  0  0  0  0  0
   -1.8092   -2.1223    2.0865 C   0  0  0  0  0  0  0  0  0  0  0  0
   -0.6395   -1.1934    2.5133 C   0  0  0  0  0  0  0  0  0  0  0  0
   -1.0283    0.2891    2.6654 C   0  0  0  0  0  0  0  0  0  0  0  0
   -1.8635    0.8215    1.5043 C   0  0  0  0  0  0  0  0  0  0  0  0
    0.6067   -1.4085    1.8507 O   0  0  0  0  0  0  0  0  0  0  0  0
    0.6064   -1.2232    0.4437 C   0  0  0  0  0  0  0  0  0  0  0  0
    1.4575    0.0149    0.0325 C   0  0  0  0  0  0  0  0  0  0  0  0
    7.2694   -0.3807    1.1431 H   0  0  0  0  0  0  0  0  0  0  0  0
    6.1016    0.5148    0.1012 H   0  0  0  0  0  0  0  0  0  0  0  0
    6.4921   -1.2271   -0.2500 H   0  0  0  0  0  0  0  0  0  0  0  0
    2.8894   -1.6312    1.4924 H   0  0  0  0  0  0  0  0  0  0  0  0
    3.4594    0.7602    0.4469 H   0  0  0  0  0  0  0  0  0  0  0  0
    3.0510   -1.0865   -1.9703 H   0  0  0  0  0  0  0  0  0  0  0  0
    4.6209   -0.3967   -1.5100 H   0  0  0  0  0  0  0  0  0  0  0  0
    3.1974    0.8636   -3.3083 H   0  0  0  0  0  0  0  0  0  0  0  0
    3.9965    1.8313   -2.0255 H   0  0  0  0  0  0  0  0  0  0  0  0
    1.3529    2.1568   -2.6815 H   0  0  0  0  0  0  0  0  0  0  0  0
    1.9930    2.4576   -1.0357 H   0  0  0  0  0  0  0  0  0  0  0  0
   -1.1502    1.5792   -2.5967 H   0  0  0  0  0  0  0  0  0  0  0  0
   -1.5702    0.0389   -3.4654 H   0  0  0  0  0  0  0  0  0  0  0  0
   -6.0357    2.0999   -2.7812 H   0  0  0  0  0  0  0  0  0  0  0  0
   -5.6680    0.9032    1.3085 H   0  0  0  0  0  0  0  0  0  0  0  0
   -3.7248    0.0086    2.1750 H   0  0  0  0  0  0  0  0  0  0  0  0
   -2.4245   -1.7653    0.0205 H   0  0  0  0  0  0  0  0  0  0  0  0
   -3.7398   -2.1158    1.1169 H   0  0  0  0  0  0  0  0  0  0  0  0
   -2.4081   -2.3553    2.9955 H   0  0  0  0  0  0  0  0  0  0  0  0
   -1.4027   -3.0894    1.7203 H   0  0  0  0  0  0  0  0  0  0  0  0
   -0.4215   -1.5116    3.5572 H   0  0  0  0  0  0  0  0  0  0  0  0
   -1.6242    0.4087    3.5978 H   0  0  0  0  0  0  0  0  0  0  0  0
   -0.1147    0.9089    2.7867 H   0  0  0  0  0  0  0  0  0  0  0  0
   -2.1960    1.8512    1.7608 H   0  0  0  0  0  0  0  0  0  0  0  0
   -1.2230    0.9222    0.6123 H   0  0  0  0  0  0  0  0  0  0  0  0
    1.0291   -2.1313   -0.0349 H   0  0  0  0  0  0  0  0  0  0  0  0
   -0.4042   -1.1255    0.0434 H   0  0  0  0  0  0  0  0  0  0  0  0
    1.2593    0.7795    0.8144 H   0  0  0  0  0  0  0  0  0  0  0  0
  1  2  1  0
  2  3  2  0
  2  4  2  0
  2  5  1  0
  5  6  1  0
  6  7  1  0
  7  8  1  0
  8  9  1  0
  9 10  1  0
 10 11  1  0
 11 12  2  0
 11 13  1  0
 13 14  1  0
 14 15  1  0
 15 16  2  0
 16 17  1  0
 16 18  1  0
 18 19  2  0
 19 20  1  0
 19 21  1  0
 21 22  2  0
 22 23  1  0
 23 24  1  0
 24 25  1  0
 25 26  1  0
 26 27  1  0
 27 28  1  0
 26 29  1  0
 29 30  1  0
 30 31  1  0
 31  6  1  0
 31 10  1  0
 22 15  1  0
 28 23  1  0
  1 32  1  0
  1 33  1  0
  1 34  1  0
  5 35  1  0
  6 36  1  1
  7 37  1  0
  7 38  1  0
  8 39  1  0
  8 40  1  0
  9 41  1  0
  9 42  1  0
 13 43  1  0
 13 44  1  0
 18 45  1  0
 21 46  1  0
 23 47  1  0
 24 48  1  0
 24 49  1  0
 25 50  1  0
 25 51  1  0
 26 52  1  0
 27 53  1  0
 27 54  1  0
 28 55  1  0
 28 56  1  0
 30 57  1  0
 30 58  1  0
 31 59  1  0
M  END
$$$$
