
     RDKit          3D

 67 70  0  0  0  0  0  0  0  0999 V2000
   -7.8931   -0.6645   -1.5840 C   0  0  0  0  0  0  0  0  0  0  0  0
   -6.4048   -0.7112   -1.4015 C   0  0  0  0  0  0  0  0  0  0  0  0
   -5.5934   -1.3235   -2.3652 C   0  0  0  0  0  0  0  0  0  0  0  0
   -4.2541   -1.4243   -2.1680 N   0  0  0  0  0  0  0  0  0  0  0  0
   -3.6544   -0.9437   -1.0442 C   0  0  0  0  0  0  0  0  0  0  0  0
   -4.4232   -0.3018   -0.0453 C   0  0  0  0  0  0  0  0  0  0  0  0
   -5.8103   -0.2063   -0.2341 C   0  0  0  0  0  0  0  0  0  0  0  0
   -3.7780    0.2796    1.2088 C   0  0  1  0  0  0  0  0  0  0  0  0
   -3.1531   -0.8507    2.0754 C   0  0  0  0  0  0  0  0  0  0  0  0
   -2.2036   -0.3278    3.1626 C   0  0  0  0  0  0  0  0  0  0  0  0
   -1.1513    0.6206    2.5714 C   0  0  2  0  0  0  0  0  0  0  0  0
   -1.8880    1.8367    1.9842 C   0  0  0  0  0  0  0  0  0  0  0  0
   -2.7933    1.4194    0.8233 C   0  0  0  0  0  0  0  0  0  0  0  0
   -0.4216   -0.0805    1.5731 O   0  0  0  0  0  0  0  0  0  0  0  0
    0.8528    0.4917    1.3573 C   0  0  0  0  0  0  0  0  0  0  0  0
    1.5894   -0.2956    0.2553 C   0  0  0  0  0  0  0  0  0  0  0  0
    2.9779    0.3162   -0.0784 C   0  0  1  0  0  0  0  0  0  0  0  0
    3.7749   -0.6091   -0.9131 N   0  0  0  0  0  0  0  0  0  0  0  0
    4.9237   -1.5138    0.0330 S   0  0  0  0  0  6  0  0  0  0  0  0
    4.2840   -2.0001    1.3039 O   0  0  0  0  0  0  0  0  0  0  0  0
    5.3864   -2.6997   -0.7674 O   0  0  0  0  0  0  0  0  0  0  0  0
    6.3291   -0.4685    0.4224 C   0  0  0  0  0  0  0  0  0  0  0  0
    6.8816    0.1693   -0.8544 C   0  0  0  0  0  0  0  0  0  0  0  0
    7.4149   -1.2782    1.1405 C   0  0  0  0  0  0  0  0  0  0  0  0
    2.8572    1.6723   -0.8118 C   0  0  0  0  0  0  0  0  0  0  0  0
    1.5816    1.8375   -1.6590 C   0  0  0  0  0  0  0  0  0  0  0  0
    0.9728    0.5046   -2.1023 C   0  0  0  0  0  0  0  0  0  0  0  0
    0.7578   -0.4120   -0.9652 N   0  0  0  0  0  0  0  0  0  0  0  0
   -0.0086   -1.6233   -1.1862 C   0  0  0  0  0  0  0  0  0  0  0  0
    0.4041   -2.7176   -0.7137 O   0  0  0  0  0  0  0  0  0  0  0  0
   -1.3681   -1.5854   -1.8263 C   0  0  0  0  0  0  0  0  0  0  0  0
   -2.2787   -1.0926   -0.8577 O   0  0  0  0  0  0  0  0  0  0  0  0
   -8.3397    0.1623   -0.9887 H   0  0  0  0  0  0  0  0  0  0  0  0
   -8.1457   -0.4912   -2.6532 H   0  0  0  0  0  0  0  0  0  0  0  0
   -8.3371   -1.6277   -1.2523 H   0  0  0  0  0  0  0  0  0  0  0  0
   -6.0282   -1.7325   -3.2661 H   0  0  0  0  0  0  0  0  0  0  0  0
   -6.4282    0.2623    0.5254 H   0  0  0  0  0  0  0  0  0  0  0  0
   -4.5645    0.7514    1.8429 H   0  0  0  0  0  0  0  0  0  0  0  0
   -3.9746   -1.4219    2.5640 H   0  0  0  0  0  0  0  0  0  0  0  0
   -2.5982   -1.5805    1.4585 H   0  0  0  0  0  0  0  0  0  0  0  0
   -1.6919   -1.1901    3.6395 H   0  0  0  0  0  0  0  0  0  0  0  0
   -2.7884    0.1895    3.9541 H   0  0  0  0  0  0  0  0  0  0  0  0
   -0.4972    0.9572    3.4104 H   0  0  0  0  0  0  0  0  0  0  0  0
   -2.5018    2.3204    2.7740 H   0  0  0  0  0  0  0  0  0  0  0  0
   -1.1633    2.6001    1.6318 H   0  0  0  0  0  0  0  0  0  0  0  0
   -3.3785    2.3036    0.4897 H   0  0  0  0  0  0  0  0  0  0  0  0
   -2.1426    1.1403   -0.0298 H   0  0  0  0  0  0  0  0  0  0  0  0
    0.7621    1.5552    1.0574 H   0  0  0  0  0  0  0  0  0  0  0  0
    1.4584    0.4353    2.2898 H   0  0  0  0  0  0  0  0  0  0  0  0
    1.7887   -1.3052    0.6749 H   0  0  0  0  0  0  0  0  0  0  0  0
    3.5124    0.5216    0.8784 H   0  0  0  0  0  0  0  0  0  0  0  0
    3.1673   -1.2987   -1.4086 H   0  0  0  0  0  0  0  0  0  0  0  0
    5.9840    0.3398    1.1027 H   0  0  0  0  0  0  0  0  0  0  0  0
    6.1224    0.8393   -1.3077 H   0  0  0  0  0  0  0  0  0  0  0  0
    7.7797    0.7806   -0.6267 H   0  0  0  0  0  0  0  0  0  0  0  0
    7.1577   -0.6153   -1.5905 H   0  0  0  0  0  0  0  0  0  0  0  0
    7.0017   -1.7381    2.0637 H   0  0  0  0  0  0  0  0  0  0  0  0
    7.8067   -2.0852    0.4869 H   0  0  0  0  0  0  0  0  0  0  0  0
    8.2575   -0.6104    1.4269 H   0  0  0  0  0  0  0  0  0  0  0  0
    3.7481    1.8201   -1.4626 H   0  0  0  0  0  0  0  0  0  0  0  0
    2.8876    2.4930   -0.0581 H   0  0  0  0  0  0  0  0  0  0  0  0
    0.8157    2.4075   -1.0830 H   0  0  0  0  0  0  0  0  0  0  0  0
    1.8204    2.4415   -2.5632 H   0  0  0  0  0  0  0  0  0  0  0  0
    1.6409    0.0152   -2.8486 H   0  0  0  0  0  0  0  0  0  0  0  0
    0.0123    0.7404   -2.6007 H   0  0  0  0  0  0  0  0  0  0  0  0
   -1.6698   -2.6114   -2.1378 H   0  0  0  0  0  0  0  0  0  0  0  0
   -1.3842   -0.9368   -2.7269 H   0  0  0  0  0  0  0  0  0  0  0  0
  1  2  1  0
  2  3  2  0
  3  4  1  0
  4  5  2  0
  5  6  1  0
  6  7  2  0
  6  8  1  0
  8  9  1  0
  9 10  1  0
 10 11  1  0
 11 12  1  0
 12 13  1  0
 11 14  1  0
 14 15  1  0
 15 16  1  0
 16 17  1  0
 17 18  1  0
 18 19  1  0
 19 20  2  0
 19 21  2  0
 19 22  1  0
 22 23  1  0
 22 24  1  0
 17 25  1  0
 25 26  1  0
 26 27  1  0
 27 28  1  0
 28 29  1  0
 29 30  2  0
 29 31  1  0
 31 32  1  0
  7  2  1  0
 13  8  1  0
 28 16  1  0
 32  5  1  0
  1 33  1  0
  1 34  1  0
  1 35  1  0
  3 36  1  0
  7 37  1  0
  8 38  1  1
  9 39  1  0
  9 40  1  0
 10 41  1  0
 10 42  1  0
 11 43  1  1
 12 44  1  0
 12 45  1  0
 13 46  1  0
 13 47  1  0
 15 48  1  0
 15 49  1  0
 16 50  1  0
 17 51  1  1
 18 52  1  0
 22 53  1  0
 23 54  1  0
 23 55  1  0
 23 56  1  0
 24 57  1  0
 24 58  1  0
 24 59  1  0
 25 60  1  0
 25 61  1  0
 26 62  1  0
 26 63  1  0
 27 64  1  0
 27 65  1  0
 31 66  1  0
 31 67  1  0
M  END
$$$$
