
     RDKit          3D

 69 74  0  0  0  0  0  0  0  0999 V2000
    2.1925    3.7197    0.8495 C   0  0  0  0  0  0  0  0  0  0  0  0
    1.2928    2.6635    0.3793 N   0  0  0  0  0  0  0  0  0  0  0  0
   -0.1614    2.8743    0.3493 C   0  0  0  0  0  0  0  0  0  0  0  0
   -0.5488    4.0934   -0.5012 C   0  0  0  0  0  0  0  0  0  0  0  0
   -1.9497    4.0026   -0.9112 N   0  0  0  0  0  0  0  0  0  0  0  0
   -3.0207    3.9024    0.0374 C   0  0  0  0  0  0  0  0  0  0  0  0
   -2.8623    4.3168    1.2170 O   0  0  0  0  0  0  0  0  0  0  0  0
   -4.2979    3.2148   -0.3368 C   0  0  0  0  0  0  0  0  0  0  0  0
   -4.1584    1.8040   -0.1516 O   0  0  0  0  0  0  0  0  0  0  0  0
   -3.3550    0.9602   -0.9392 C   0  0  0  0  0  0  0  0  0  0  0  0
   -3.1580    1.2226   -2.3093 C   0  0  0  0  0  0  0  0  0  0  0  0
   -2.3513    0.3906   -3.0846 C   0  0  0  0  0  0  0  0  0  0  0  0
   -1.7344   -0.7168   -2.5097 C   0  0  0  0  0  0  0  0  0  0  0  0
   -0.9447   -1.5201   -3.2646 F   0  0  0  0  0  0  0  0  0  0  0  0
   -1.9324   -1.0047   -1.1595 C   0  0  0  0  0  0  0  0  0  0  0  0
   -2.7445   -0.1799   -0.3550 C   0  0  0  0  0  0  0  0  0  0  0  0
   -2.8821   -0.4865    1.0972 C   0  0  0  0  0  0  0  0  0  0  0  0
   -3.4626    0.3211    1.8715 O   0  0  0  0  0  0  0  0  0  0  0  0
   -2.3247   -1.6883    1.6519 N   0  0  0  0  0  0  0  0  0  0  0  0
   -2.9821   -2.9766    1.4127 C   0  0  0  0  0  0  0  0  0  0  0  0
   -3.3345   -3.6518    2.7479 C   0  0  0  0  0  0  0  0  0  0  0  0
   -2.2502   -3.4783    3.8380 C   0  0  0  0  0  0  0  0  0  0  0  0
   -0.9261   -2.9378    3.2847 C   0  0  0  0  0  0  0  0  0  0  0  0
   -1.1668   -1.5994    2.5555 C   0  0  1  0  0  0  0  0  0  0  0  0
    0.0424   -1.1283    1.7884 C   0  0  0  0  0  0  0  0  0  0  0  0
    0.9458   -1.9202    1.0721 C   0  0  0  0  0  0  0  0  0  0  0  0
    1.7122   -0.9920    0.4115 C   0  0  0  0  0  0  0  0  0  0  0  0
    2.7465   -1.2134   -0.4332 N   0  0  0  0  0  0  0  0  0  0  0  0
    3.3705   -0.1442   -1.0161 C   0  0  0  0  0  0  0  0  0  0  0  0
    4.5424   -0.3640   -1.9442 C   0  0  1  0  0  0  0  0  0  0  0  0
    5.6663   -1.1910   -1.3199 C   0  0  0  0  0  0  0  0  0  0  0  0
    5.4322   -2.2847   -2.3589 C   0  0  2  0  0  0  0  0  0  0  0  0
    6.5196   -2.4285   -3.2323 O   0  0  0  0  0  0  0  0  0  0  0  0
    4.3140   -1.4595   -2.9870 C   0  0  0  0  0  0  0  0  0  0  0  0
    2.9217    1.1685   -0.7423 C   0  0  0  0  0  0  0  0  0  0  0  0
    1.8305    1.3516    0.1259 C   0  0  0  0  0  0  0  0  0  0  0  0
    1.2815    0.2411    0.6879 N   0  0  0  0  0  0  0  0  0  0  0  0
    0.2644    0.1826    1.5292 N   0  0  0  0  0  0  0  0  0  0  0  0
    2.8414    3.3292    1.6631 H   0  0  0  0  0  0  0  0  0  0  0  0
    1.6221    4.5825    1.2533 H   0  0  0  0  0  0  0  0  0  0  0  0
    2.8272    4.0745    0.0108 H   0  0  0  0  0  0  0  0  0  0  0  0
   -0.6599    1.9838   -0.0923 H   0  0  0  0  0  0  0  0  0  0  0  0
   -0.5358    2.9975    1.3881 H   0  0  0  0  0  0  0  0  0  0  0  0
   -0.3910    5.0328    0.0696 H   0  0  0  0  0  0  0  0  0  0  0  0
    0.0902    4.1257   -1.4105 H   0  0  0  0  0  0  0  0  0  0  0  0
   -2.1609    3.8919   -1.9281 H   0  0  0  0  0  0  0  0  0  0  0  0
   -4.5939    3.4644   -1.3752 H   0  0  0  0  0  0  0  0  0  0  0  0
   -5.1120    3.5759    0.3268 H   0  0  0  0  0  0  0  0  0  0  0  0
   -3.6396    2.0585   -2.7938 H   0  0  0  0  0  0  0  0  0  0  0  0
   -2.2067    0.6055   -4.1357 H   0  0  0  0  0  0  0  0  0  0  0  0
   -1.4283   -1.8655   -0.7441 H   0  0  0  0  0  0  0  0  0  0  0  0
   -2.2922   -3.6324    0.8389 H   0  0  0  0  0  0  0  0  0  0  0  0
   -3.9054   -2.8466    0.8058 H   0  0  0  0  0  0  0  0  0  0  0  0
   -3.5070   -4.7341    2.5623 H   0  0  0  0  0  0  0  0  0  0  0  0
   -4.2900   -3.2266    3.1234 H   0  0  0  0  0  0  0  0  0  0  0  0
   -2.6218   -2.7778    4.6178 H   0  0  0  0  0  0  0  0  0  0  0  0
   -2.0636   -4.4544    4.3352 H   0  0  0  0  0  0  0  0  0  0  0  0
   -0.2066   -2.7867    4.1185 H   0  0  0  0  0  0  0  0  0  0  0  0
   -0.5011   -3.6997    2.5981 H   0  0  0  0  0  0  0  0  0  0  0  0
   -1.3904   -0.8393    3.3375 H   0  0  0  0  0  0  0  0  0  0  0  0
    1.0080   -2.9970    1.0045 H   0  0  0  0  0  0  0  0  0  0  0  0
    4.9253    0.5732   -2.4075 H   0  0  0  0  0  0  0  0  0  0  0  0
    6.6582   -0.6968   -1.4210 H   0  0  0  0  0  0  0  0  0  0  0  0
    5.4565   -1.5436   -0.2852 H   0  0  0  0  0  0  0  0  0  0  0  0
    5.0780   -3.2489   -1.9285 H   0  0  0  0  0  0  0  0  0  0  0  0
    7.2009   -2.9502   -2.7342 H   0  0  0  0  0  0  0  0  0  0  0  0
    3.3263   -1.9659   -2.9161 H   0  0  0  0  0  0  0  0  0  0  0  0
    4.5516   -1.1144   -4.0177 H   0  0  0  0  0  0  0  0  0  0  0  0
    3.3939    2.0206   -1.2142 H   0  0  0  0  0  0  0  0  0  0  0  0
  1  2  1  0
  2  3  1  0
  3  4  1  0
  4  5  1  0
  5  6  1  0
  6  7  2  0
  6  8  1  0
  8  9  1  0
  9 10  1  0
 10 11  2  0
 11 12  1  0
 12 13  2  0
 13 14  1  0
 13 15  1  0
 15 16  2  0
 16 17  1  0
 17 18  2  0
 17 19  1  0
 19 20  1  0
 20 21  1  0
 21 22  1  0
 22 23  1  0
 23 24  1  0
 24 25  1  0
 25 26  1  0
 26 27  2  0
 27 28  1  0
 28 29  2  0
 29 30  1  0
 30 31  1  0
 31 32  1  0
 32 33  1  0
 32 34  1  0
 29 35  1  0
 35 36  2  0
 36 37  1  0
 37 38  1  0
 36  2  1  0
 16 10  1  0
 24 19  1  0
 38 25  2  0
 37 27  1  0
 34 30  1  0
  1 39  1  0
  1 40  1  0
  1 41  1  0
  3 42  1  0
  3 43  1  0
  4 44  1  0
  4 45  1  0
  5 46  1  0
  8 47  1  0
  8 48  1  0
 11 49  1  0
 12 50  1  0
 15 51  1  0
 20 52  1  0
 20 53  1  0
 21 54  1  0
 21 55  1  0
 22 56  1  0
 22 57  1  0
 23 58  1  0
 23 59  1  0
 24 60  1  1
 26 61  1  0
 30 62  1  6
 31 63  1  0
 31 64  1  0
 32 65  1  1
 33 66  1  0
 34 67  1  0
 34 68  1  0
 35 69  1  0
M  END
$$$$
