
     RDKit          3D

 63 66  0  0  0  0  0  0  0  0999 V2000
   -6.4348    1.8445    1.4750 C   0  0  0  0  0  0  0  0  0  0  0  0
   -5.6222    0.5880    1.6444 C   0  0  0  0  0  0  0  0  0  0  0  0
   -6.0926   -0.3305    2.5421 N   0  0  0  0  0  0  0  0  0  0  0  0
   -5.4037   -1.4602    2.8141 C   0  0  0  0  0  0  0  0  0  0  0  0
   -4.2312   -1.7091    2.1691 N   0  0  0  0  0  0  0  0  0  0  0  0
   -3.7370   -0.8738    1.2162 C   0  0  0  0  0  0  0  0  0  0  0  0
   -4.4301    0.3323    0.9084 C   0  0  0  0  0  0  0  0  0  0  0  0
   -3.8305    1.4433    0.0168 C   0  0  1  0  0  0  0  0  0  0  0  0
   -2.9398    2.3799    0.8712 C   0  0  0  0  0  0  0  0  0  0  0  0
   -1.5117    1.8515    0.9623 C   0  0  0  0  0  0  0  0  0  0  0  0
   -0.8229    1.7000   -0.4214 C   0  0  2  0  0  0  0  0  0  0  0  0
   -1.8280    1.7542   -1.5955 C   0  0  0  0  0  0  0  0  0  0  0  0
   -3.1431    1.0005   -1.3141 C   0  0  0  0  0  0  0  0  0  0  0  0
   -0.1083    0.4812   -0.5066 O   0  0  0  0  0  0  0  0  0  0  0  0
    1.0702    0.5171    0.2852 C   0  0  0  0  0  0  0  0  0  0  0  0
    1.6800   -0.9026    0.4019 C   0  0  0  0  0  0  0  0  0  0  0  0
    2.7124   -1.2012   -0.7191 C   0  0  1  0  0  0  0  0  0  0  0  0
    3.9573   -1.7930   -0.1954 N   0  0  0  0  0  0  0  0  0  0  0  0
    5.0432   -0.5848    0.4398 S   0  0  0  0  0  6  0  0  0  0  0  0
    6.1967   -1.2858    1.1078 O   0  0  0  0  0  0  0  0  0  0  0  0
    4.3347    0.2774    1.4524 O   0  0  0  0  0  0  0  0  0  0  0  0
    5.6832    0.4535   -0.8781 C   0  0  0  0  0  0  0  0  0  0  0  0
    6.8121    1.3515   -0.3531 C   0  0  0  0  0  0  0  0  0  0  0  0
    6.1766   -0.4126   -2.0422 C   0  0  0  0  0  0  0  0  0  0  0  0
    2.0340   -2.2081   -1.6641 C   0  0  0  0  0  0  0  0  0  0  0  0
    0.7286   -2.6393   -1.0026 C   0  0  0  0  0  0  0  0  0  0  0  0
    0.6426   -1.9150    0.2569 N   0  0  0  0  0  0  0  0  0  0  0  0
   -0.4331   -2.0579    1.2083 C   0  0  0  0  0  0  0  0  0  0  0  0
   -0.2239   -1.7735    2.4198 O   0  0  0  0  0  0  0  0  0  0  0  0
   -1.8195   -2.4267    0.7832 C   0  0  0  0  0  0  0  0  0  0  0  0
   -2.5658   -1.2323    0.5394 O   0  0  0  0  0  0  0  0  0  0  0  0
   -6.9778    1.8169    0.5058 H   0  0  0  0  0  0  0  0  0  0  0  0
   -5.7862    2.7426    1.5179 H   0  0  0  0  0  0  0  0  0  0  0  0
   -7.1802    1.9393    2.2962 H   0  0  0  0  0  0  0  0  0  0  0  0
   -5.7760   -2.1560    3.5620 H   0  0  0  0  0  0  0  0  0  0  0  0
   -4.6761    2.0718   -0.3359 H   0  0  0  0  0  0  0  0  0  0  0  0
   -2.9240    3.4049    0.4272 H   0  0  0  0  0  0  0  0  0  0  0  0
   -3.3520    2.4899    1.9017 H   0  0  0  0  0  0  0  0  0  0  0  0
   -0.9199    2.5489    1.5819 H   0  0  0  0  0  0  0  0  0  0  0  0
   -1.5182    0.8856    1.5040 H   0  0  0  0  0  0  0  0  0  0  0  0
   -0.1308    2.5601   -0.5749 H   0  0  0  0  0  0  0  0  0  0  0  0
   -1.3517    1.3362   -2.5102 H   0  0  0  0  0  0  0  0  0  0  0  0
   -2.0551    2.8180   -1.8272 H   0  0  0  0  0  0  0  0  0  0  0  0
   -2.9591   -0.0850   -1.3959 H   0  0  0  0  0  0  0  0  0  0  0  0
   -3.8373    1.2150   -2.1543 H   0  0  0  0  0  0  0  0  0  0  0  0
    1.8030    1.2151   -0.1657 H   0  0  0  0  0  0  0  0  0  0  0  0
    0.8728    0.8771    1.3126 H   0  0  0  0  0  0  0  0  0  0  0  0
    2.1466   -1.0132    1.4057 H   0  0  0  0  0  0  0  0  0  0  0  0
    2.9582   -0.2978   -1.3152 H   0  0  0  0  0  0  0  0  0  0  0  0
    3.7550   -2.4921    0.5507 H   0  0  0  0  0  0  0  0  0  0  0  0
    4.8599    1.1049   -1.2430 H   0  0  0  0  0  0  0  0  0  0  0  0
    7.6574    0.7403    0.0450 H   0  0  0  0  0  0  0  0  0  0  0  0
    7.1906    2.0110   -1.1617 H   0  0  0  0  0  0  0  0  0  0  0  0
    6.4308    2.0070    0.4614 H   0  0  0  0  0  0  0  0  0  0  0  0
    5.3416   -1.0312   -2.4332 H   0  0  0  0  0  0  0  0  0  0  0  0
    6.5480    0.2282   -2.8716 H   0  0  0  0  0  0  0  0  0  0  0  0
    6.9913   -1.0919   -1.7092 H   0  0  0  0  0  0  0  0  0  0  0  0
    1.8279   -1.7272   -2.6443 H   0  0  0  0  0  0  0  0  0  0  0  0
    2.6837   -3.0961   -1.8541 H   0  0  0  0  0  0  0  0  0  0  0  0
   -0.1274   -2.3417   -1.6542 H   0  0  0  0  0  0  0  0  0  0  0  0
    0.7079   -3.7360   -0.8321 H   0  0  0  0  0  0  0  0  0  0  0  0
   -1.8106   -3.0417   -0.1389 H   0  0  0  0  0  0  0  0  0  0  0  0
   -2.2857   -3.0714    1.5660 H   0  0  0  0  0  0  0  0  0  0  0  0
  1  2  1  0
  2  3  2  0
  3  4  1  0
  4  5  2  0
  5  6  1  0
  6  7  2  0
  7  8  1  0
  8  9  1  0
  9 10  1  0
 10 11  1  0
 11 12  1  0
 12 13  1  0
 11 14  1  0
 14 15  1  0
 15 16  1  0
 16 17  1  0
 17 18  1  0
 18 19  1  0
 19 20  2  0
 19 21  2  0
 19 22  1  0
 22 23  1  0
 22 24  1  0
 17 25  1  0
 25 26  1  0
 26 27  1  0
 27 28  1  0
 28 29  2  0
 28 30  1  0
 30 31  1  0
  7  2  1  0
 13  8  1  0
 27 16  1  0
 31  6  1  0
  1 32  1  0
  1 33  1  0
  1 34  1  0
  4 35  1  0
  8 36  1  6
  9 37  1  0
  9 38  1  0
 10 39  1  0
 10 40  1  0
 11 41  1  6
 12 42  1  0
 12 43  1  0
 13 44  1  0
 13 45  1  0
 15 46  1  0
 15 47  1  0
 16 48  1  0
 17 49  1  6
 18 50  1  0
 22 51  1  0
 23 52  1  0
 23 53  1  0
 23 54  1  0
 24 55  1  0
 24 56  1  0
 24 57  1  0
 25 58  1  0
 25 59  1  0
 26 60  1  0
 26 61  1  0
 30 62  1  0
 30 63  1  0
M  END
$$$$
