
     RDKit          3D

 70 75  0  0  0  0  0  0  0  0999 V2000
    1.7948    3.1922   -1.5103 C   0  0  0  0  0  0  0  0  0  0  0  0
    1.4308    2.3569   -0.3593 N   0  0  0  0  0  0  0  0  0  0  0  0
    0.6560    2.9842    0.7221 C   0  0  0  0  0  0  0  0  0  0  0  0
   -0.8290    3.0538    0.3343 C   0  0  0  0  0  0  0  0  0  0  0  0
   -1.6924    3.1453    1.5120 N   0  0  0  0  0  0  0  0  0  0  0  0
   -3.1158    2.9526    1.4520 C   0  0  0  0  0  0  0  0  0  0  0  0
   -3.7632    2.8601    2.5279 O   0  0  0  0  0  0  0  0  0  0  0  0
   -3.8612    2.8283    0.1505 C   0  0  0  0  0  0  0  0  0  0  0  0
   -4.1027    1.4510   -0.1424 O   0  0  0  0  0  0  0  0  0  0  0  0
   -3.2498    0.6453   -0.9134 C   0  0  0  0  0  0  0  0  0  0  0  0
   -2.6843    1.1207   -2.1122 C   0  0  0  0  0  0  0  0  0  0  0  0
   -1.7831    0.3313   -2.8307 C   0  0  0  0  0  0  0  0  0  0  0  0
   -1.4648   -0.9523   -2.3830 C   0  0  0  0  0  0  0  0  0  0  0  0
   -0.5734   -1.7081   -3.0685 F   0  0  0  0  0  0  0  0  0  0  0  0
   -2.0554   -1.4522   -1.2210 C   0  0  0  0  0  0  0  0  0  0  0  0
   -2.9467   -0.6608   -0.4773 C   0  0  0  0  0  0  0  0  0  0  0  0
   -3.5232   -1.1971    0.7715 C   0  0  0  0  0  0  0  0  0  0  0  0
   -4.7495   -1.0364    1.0136 O   0  0  0  0  0  0  0  0  0  0  0  0
   -2.7027   -1.9094    1.7110 N   0  0  0  0  0  0  0  0  0  0  0  0
   -3.1255   -3.2335    2.1793 C   0  0  0  0  0  0  0  0  0  0  0  0
   -3.4887   -3.1823    3.6710 C   0  0  0  0  0  0  0  0  0  0  0  0
   -2.5314   -2.3013    4.5086 C   0  0  0  0  0  0  0  0  0  0  0  0
   -1.2635   -1.9004    3.7436 C   0  0  0  0  0  0  0  0  0  0  0  0
   -1.6394   -1.1852    2.4307 C   0  0  1  0  0  0  0  0  0  0  0  0
   -0.4321   -0.9977    1.5566 C   0  0  0  0  0  0  0  0  0  0  0  0
    0.3882   -2.0025    1.0507 C   0  0  0  0  0  0  0  0  0  0  0  0
    1.2888   -1.3011    0.2847 C   0  0  0  0  0  0  0  0  0  0  0  0
    2.2969   -1.8009   -0.4651 N   0  0  0  0  0  0  0  0  0  0  0  0
    3.0784   -0.9496   -1.1906 C   0  0  0  0  0  0  0  0  0  0  0  0
    4.1994   -1.5424   -2.0177 C   0  0  1  0  0  0  0  0  0  0  0  0
    4.2843   -1.0713   -3.4728 C   0  0  0  0  0  0  0  0  0  0  0  0
    5.7253   -0.6211   -3.2292 C   0  0  1  0  0  0  0  0  0  0  0  0
    5.9434    0.8038   -3.4892 N   0  0  0  0  0  0  0  0  0  0  0  0
    5.5943   -0.9756   -1.7449 C   0  0  0  0  0  0  0  0  0  0  0  0
    2.8185    0.4416   -1.1495 C   0  0  0  0  0  0  0  0  0  0  0  0
    1.7488    0.9354   -0.3695 C   0  0  0  0  0  0  0  0  0  0  0  0
    1.0237    0.0113    0.3314 N   0  0  0  0  0  0  0  0  0  0  0  0
   -0.0333    0.2112    1.0994 N   0  0  0  0  0  0  0  0  0  0  0  0
    1.4746    2.6993   -2.4533 H   0  0  0  0  0  0  0  0  0  0  0  0
    1.2995    4.1854   -1.4618 H   0  0  0  0  0  0  0  0  0  0  0  0
    2.8923    3.3593   -1.5253 H   0  0  0  0  0  0  0  0  0  0  0  0
    1.0318    4.0136    0.9083 H   0  0  0  0  0  0  0  0  0  0  0  0
    0.8138    2.4381    1.6758 H   0  0  0  0  0  0  0  0  0  0  0  0
   -1.0886    2.1428   -0.2328 H   0  0  0  0  0  0  0  0  0  0  0  0
   -1.0031    3.9319   -0.3234 H   0  0  0  0  0  0  0  0  0  0  0  0
   -1.2622    3.2845    2.4553 H   0  0  0  0  0  0  0  0  0  0  0  0
   -3.3286    3.3454   -0.6704 H   0  0  0  0  0  0  0  0  0  0  0  0
   -4.8399    3.3396    0.2583 H   0  0  0  0  0  0  0  0  0  0  0  0
   -2.9320    2.1028   -2.4910 H   0  0  0  0  0  0  0  0  0  0  0  0
   -1.3327    0.7149   -3.7370 H   0  0  0  0  0  0  0  0  0  0  0  0
   -1.8092   -2.4545   -0.8926 H   0  0  0  0  0  0  0  0  0  0  0  0
   -2.2896   -3.9499    2.0282 H   0  0  0  0  0  0  0  0  0  0  0  0
   -3.9915   -3.6101    1.5919 H   0  0  0  0  0  0  0  0  0  0  0  0
   -4.5234   -2.7883    3.7733 H   0  0  0  0  0  0  0  0  0  0  0  0
   -3.4901   -4.2189    4.0725 H   0  0  0  0  0  0  0  0  0  0  0  0
   -3.0649   -1.3755    4.8201 H   0  0  0  0  0  0  0  0  0  0  0  0
   -2.2417   -2.8424    5.4360 H   0  0  0  0  0  0  0  0  0  0  0  0
   -0.6477   -1.2242    4.3755 H   0  0  0  0  0  0  0  0  0  0  0  0
   -0.6647   -2.8143    3.5382 H   0  0  0  0  0  0  0  0  0  0  0  0
   -2.0279   -0.1792    2.7095 H   0  0  0  0  0  0  0  0  0  0  0  0
    0.3177   -3.0717    1.1983 H   0  0  0  0  0  0  0  0  0  0  0  0
    4.2055   -2.6552   -1.9621 H   0  0  0  0  0  0  0  0  0  0  0  0
    4.2233   -1.9143   -4.1952 H   0  0  0  0  0  0  0  0  0  0  0  0
    3.5945   -0.2353   -3.7225 H   0  0  0  0  0  0  0  0  0  0  0  0
    6.4651   -1.2591   -3.7625 H   0  0  0  0  0  0  0  0  0  0  0  0
    5.2950    1.3871   -2.9163 H   0  0  0  0  0  0  0  0  0  0  0  0
    6.9140    1.0374   -3.1783 H   0  0  0  0  0  0  0  0  0  0  0  0
    5.5973   -0.0894   -1.0729 H   0  0  0  0  0  0  0  0  0  0  0  0
    6.3167   -1.7618   -1.4346 H   0  0  0  0  0  0  0  0  0  0  0  0
    3.4364    1.1182   -1.7131 H   0  0  0  0  0  0  0  0  0  0  0  0
  1  2  1  0
  2  3  1  0
  3  4  1  0
  4  5  1  0
  5  6  1  0
  6  7  2  0
  6  8  1  0
  8  9  1  0
  9 10  1  0
 10 11  2  0
 11 12  1  0
 12 13  2  0
 13 14  1  0
 13 15  1  0
 15 16  2  0
 16 17  1  0
 17 18  2  0
 17 19  1  0
 19 20  1  0
 20 21  1  0
 21 22  1  0
 22 23  1  0
 23 24  1  0
 24 25  1  0
 25 26  1  0
 26 27  2  0
 27 28  1  0
 28 29  2  0
 29 30  1  0
 30 31  1  0
 31 32  1  0
 32 33  1  0
 32 34  1  0
 29 35  1  0
 35 36  2  0
 36 37  1  0
 37 38  1  0
 36  2  1  0
 16 10  1  0
 24 19  1  0
 38 25  2  0
 37 27  1  0
 34 30  1  0
  1 39  1  0
  1 40  1  0
  1 41  1  0
  3 42  1  0
  3 43  1  0
  4 44  1  0
  4 45  1  0
  5 46  1  0
  8 47  1  0
  8 48  1  0
 11 49  1  0
 12 50  1  0
 15 51  1  0
 20 52  1  0
 20 53  1  0
 21 54  1  0
 21 55  1  0
 22 56  1  0
 22 57  1  0
 23 58  1  0
 23 59  1  0
 24 60  1  1
 26 61  1  0
 30 62  1  6
 31 63  1  0
 31 64  1  0
 32 65  1  6
 33 66  1  0
 33 67  1  0
 34 68  1  0
 34 69  1  0
 35 70  1  0
M  END
$$$$
