
     RDKit          3D

 65 67  0  0  0  0  0  0  0  0999 V2000
    5.4898    2.4564    0.2688 C   0  0  0  0  0  0  0  0  0  0  0  0
    4.6945    1.2457   -0.2400 C   0  0  0  0  0  0  0  0  0  0  0  0
    4.2312    1.5043   -1.6806 C   0  0  0  0  0  0  0  0  0  0  0  0
    3.5127    0.9511    0.7182 C   0  0  0  0  0  0  0  0  0  0  0  0
    2.8254   -0.4204    0.4774 C   0  0  2  0  0  0  0  0  0  0  0  0
    1.9200   -0.3923   -0.6820 N   0  0  0  0  0  0  0  0  0  0  0  0
    0.9126    0.6026   -0.9349 C   0  0  0  0  0  0  0  0  0  0  0  0
    0.8334    1.1060   -2.0883 O   0  0  0  0  0  0  0  0  0  0  0  0
   -0.0782    1.0102    0.1228 C   0  0  0  0  0  0  0  0  0  0  0  0
   -1.2149    1.7552   -0.4558 N   0  0  0  0  0  0  0  0  0  0  0  0
   -1.2080    3.2211   -0.3804 C   0  0  0  0  0  0  0  0  0  0  0  0
   -2.3077    1.1182   -1.1707 C   0  0  0  0  0  0  0  0  0  0  0  0
   -3.0329    1.8167   -1.9316 O   0  0  0  0  0  0  0  0  0  0  0  0
   -2.6707   -0.3506   -1.0106 C   0  0  2  0  0  0  0  0  0  0  0  0
   -3.2173   -0.6418    0.4162 C   0  0  0  0  0  0  0  0  0  0  0  0
   -4.1907    0.4089    0.8941 C   0  0  0  0  0  0  0  0  0  0  0  0
   -3.7786    1.3985    1.8030 C   0  0  0  0  0  0  0  0  0  0  0  0
   -4.6702    2.3953    2.2103 C   0  0  0  0  0  0  0  0  0  0  0  0
   -5.9760    2.4134    1.7123 C   0  0  0  0  0  0  0  0  0  0  0  0
   -6.3916    1.4362    0.8037 C   0  0  0  0  0  0  0  0  0  0  0  0
   -5.5025    0.4385    0.3920 C   0  0  0  0  0  0  0  0  0  0  0  0
   -1.4925   -1.1661   -1.3438 N   0  0  0  0  0  0  0  0  0  0  0  0
   -1.7185   -2.6143   -1.4079 C   0  0  0  0  0  0  0  0  0  0  0  0
   -0.4268   -3.2677   -1.0490 C   0  0  0  0  0  0  0  0  0  0  0  0
    0.5166   -3.7279   -1.9498 C   0  0  0  0  0  0  0  0  0  0  0  0
    1.6839   -3.9096   -1.2317 C   0  0  0  0  0  0  0  0  0  0  0  0
    1.4043   -3.5207    0.0648 C   0  0  0  0  0  0  0  0  0  0  0  0
    0.1139   -3.1587    0.1771 N   0  0  0  0  0  0  0  0  0  0  0  0
    2.3992   -3.4256    1.1809 C   0  0  0  0  0  0  0  0  0  0  0  0
    2.0692   -2.3142    2.0762 N   0  0  0  0  0  0  0  0  0  0  0  0
    2.1110   -0.9197    1.7188 C   0  0  0  0  0  0  0  0  0  0  0  0
    1.5545   -0.0888    2.4866 O   0  0  0  0  0  0  0  0  0  0  0  0
    6.3613    2.6521   -0.3920 H   0  0  0  0  0  0  0  0  0  0  0  0
    5.8778    2.2617    1.2914 H   0  0  0  0  0  0  0  0  0  0  0  0
    4.8476    3.3633    0.2953 H   0  0  0  0  0  0  0  0  0  0  0  0
    5.3852    0.3735   -0.2453 H   0  0  0  0  0  0  0  0  0  0  0  0
    3.8423    0.5738   -2.1389 H   0  0  0  0  0  0  0  0  0  0  0  0
    5.0856    1.8387   -2.3070 H   0  0  0  0  0  0  0  0  0  0  0  0
    3.4451    2.2889   -1.7068 H   0  0  0  0  0  0  0  0  0  0  0  0
    3.9200    0.9465    1.7543 H   0  0  0  0  0  0  0  0  0  0  0  0
    2.7755    1.7799    0.6750 H   0  0  0  0  0  0  0  0  0  0  0  0
    3.6395   -1.1419    0.2602 H   0  0  0  0  0  0  0  0  0  0  0  0
    2.1737   -1.0081   -1.4873 H   0  0  0  0  0  0  0  0  0  0  0  0
    0.4439    1.6343    0.8756 H   0  0  0  0  0  0  0  0  0  0  0  0
   -0.4314    0.1154    0.6639 H   0  0  0  0  0  0  0  0  0  0  0  0
   -2.1199    3.5717    0.1477 H   0  0  0  0  0  0  0  0  0  0  0  0
   -1.1892    3.6518   -1.4038 H   0  0  0  0  0  0  0  0  0  0  0  0
   -0.3202    3.6043    0.1653 H   0  0  0  0  0  0  0  0  0  0  0  0
   -3.4821   -0.5889   -1.7370 H   0  0  0  0  0  0  0  0  0  0  0  0
   -3.7605   -1.6092    0.4211 H   0  0  0  0  0  0  0  0  0  0  0  0
   -2.3898   -0.7540    1.1450 H   0  0  0  0  0  0  0  0  0  0  0  0
   -2.7662    1.4039    2.1878 H   0  0  0  0  0  0  0  0  0  0  0  0
   -4.3472    3.1562    2.9089 H   0  0  0  0  0  0  0  0  0  0  0  0
   -6.6646    3.1863    2.0279 H   0  0  0  0  0  0  0  0  0  0  0  0
   -7.4016    1.4544    0.4152 H   0  0  0  0  0  0  0  0  0  0  0  0
   -5.8328   -0.3075   -0.3203 H   0  0  0  0  0  0  0  0  0  0  0  0
   -1.1413   -0.8708   -2.2868 H   0  0  0  0  0  0  0  0  0  0  0  0
   -2.0447   -2.9178   -2.4281 H   0  0  0  0  0  0  0  0  0  0  0  0
   -2.4812   -2.9617   -0.6862 H   0  0  0  0  0  0  0  0  0  0  0  0
    0.3959   -3.8357   -3.0196 H   0  0  0  0  0  0  0  0  0  0  0  0
    2.6443   -4.2137   -1.6264 H   0  0  0  0  0  0  0  0  0  0  0  0
   -0.3511   -2.7576    1.0224 H   0  0  0  0  0  0  0  0  0  0  0  0
    3.4312   -3.3145    0.7887 H   0  0  0  0  0  0  0  0  0  0  0  0
    2.3643   -4.3773    1.7525 H   0  0  0  0  0  0  0  0  0  0  0  0
    1.6955   -2.5582    3.0214 H   0  0  0  0  0  0  0  0  0  0  0  0
  1  2  1  0
  2  3  1  0
  2  4  1  0
  4  5  1  0
  5  6  1  0
  6  7  1  0
  7  8  2  0
  7  9  1  0
  9 10  1  0
 10 11  1  0
 10 12  1  0
 12 13  2  0
 12 14  1  0
 14 15  1  0
 15 16  1  0
 16 17  2  0
 17 18  1  0
 18 19  2  0
 19 20  1  0
 20 21  2  0
 14 22  1  0
 22 23  1  0
 23 24  1  0
 24 25  2  0
 25 26  1  0
 26 27  2  0
 27 28  1  0
 27 29  1  0
 29 30  1  0
 30 31  1  0
 31 32  2  0
 31  5  1  0
 21 16  1  0
 28 24  1  0
  1 33  1  0
  1 34  1  0
  1 35  1  0
  2 36  1  0
  3 37  1  0
  3 38  1  0
  3 39  1  0
  4 40  1  0
  4 41  1  0
  5 42  1  6
  6 43  1  0
  9 44  1  0
  9 45  1  0
 11 46  1  0
 11 47  1  0
 11 48  1  0
 14 49  1  6
 15 50  1  0
 15 51  1  0
 17 52  1  0
 18 53  1  0
 19 54  1  0
 20 55  1  0
 21 56  1  0
 22 57  1  0
 23 58  1  0
 23 59  1  0
 25 60  1  0
 26 61  1  0
 28 62  1  0
 29 63  1  0
 29 64  1  0
 30 65  1  0
M  END
$$$$
