
     RDKit          3D

 99106  0  0  0  0  0  0  0  0999 V2000
   -5.9282    5.8449    3.5136 C   0  0  0  0  0  0  0  0  0  0  0  0
   -4.9181    5.1555    2.6589 C   0  0  0  0  0  0  0  0  0  0  0  0
   -4.1959    5.7195    1.6304 C   0  0  0  0  0  0  0  0  0  0  0  0
   -3.3900    4.6838    1.1995 C   0  0  0  0  0  0  0  0  0  0  0  0
   -2.4000    4.7502    0.1143 C   0  0  0  0  0  0  0  0  0  0  0  0
   -2.2542    5.8260   -0.5258 O   0  0  0  0  0  0  0  0  0  0  0  0
   -1.6020    3.6009   -0.2091 N   0  0  0  0  0  0  0  0  0  0  0  0
   -0.4731    3.6609   -1.1511 C   0  0  1  0  0  0  0  0  0  0  0  0
    0.8401    3.9585   -0.3940 C   0  0  0  0  0  0  0  0  0  0  0  0
    1.9541    4.4545   -1.3331 C   0  0  0  0  0  0  0  0  0  0  0  0
    3.1932    4.9677   -0.5756 C   0  0  0  0  0  0  0  0  0  0  0  0
    4.0478    3.8440    0.0524 C   0  0  0  0  0  0  0  0  0  0  0  0
    3.9411    3.8223    1.5823 C   0  0  0  0  0  0  0  0  0  0  0  0
    4.7559    2.6944    2.1743 C   0  0  0  0  0  0  0  0  0  0  0  0
    4.3668    1.4068    2.1806 C   0  0  0  0  0  0  0  0  0  0  0  0
    3.0587    0.9644    1.5766 C   0  0  2  0  0  0  0  0  0  0  0  0
    2.7489   -0.5261    1.6935 C   0  0  0  0  0  0  0  0  0  0  0  0
    3.1247    0.0709    0.3361 C   0  0  2  0  0  0  0  0  0  0  0  0
    4.4566   -0.3083   -0.2416 C   0  0  0  0  0  0  0  0  0  0  0  0
    5.2214    0.5869   -0.6973 O   0  0  0  0  0  0  0  0  0  0  0  0
    4.8119   -1.6888   -0.3572 N   0  0  0  0  0  0  0  0  0  0  0  0
    6.3334   -2.2024   -1.0039 S   0  0  0  0  0  6  0  0  0  0  0  0
    6.2915   -2.1293   -2.5050 O   0  0  0  0  0  0  0  0  0  0  0  0
    7.4283   -1.3140   -0.4889 O   0  0  0  0  0  0  0  0  0  0  0  0
    6.6604   -3.8751   -0.4474 C   0  0  0  0  0  0  0  0  0  0  0  0
    6.6410   -4.1471    1.0582 C   0  0  0  0  0  0  0  0  0  0  0  0
    7.6757   -4.6529   -1.2705 C   0  0  0  0  0  0  0  0  0  0  0  0
    6.1908   -4.9994   -1.3580 C   0  0  0  0  0  0  0  0  0  0  0  0
    2.0578    0.3805   -0.6101 N   0  0  0  0  0  0  0  0  0  0  0  0
    0.8205   -0.3272   -0.6348 C   0  0  0  0  0  0  0  0  0  0  0  0
    0.8149   -1.5577   -0.9099 O   0  0  0  0  0  0  0  0  0  0  0  0
   -0.4573    0.4167   -0.3348 C   0  0  2  0  0  0  0  0  0  0  0  0
   -1.6233   -0.5174    0.0131 C   0  0  0  0  0  0  0  0  0  0  0  0
   -2.3690   -0.7206   -1.3071 C   0  0  1  0  0  0  0  0  0  0  0  0
   -3.7730   -0.9035   -1.1160 O   0  0  0  0  0  0  0  0  0  0  0  0
   -4.2895   -2.1311   -0.7019 C   0  0  0  0  0  0  0  0  0  0  0  0
   -4.1219   -2.5208    0.5850 N   0  0  0  0  0  0  0  0  0  0  0  0
   -4.5914   -3.7021    1.0540 C   0  0  0  0  0  0  0  0  0  0  0  0
   -4.3794   -4.0315    2.3974 C   0  0  0  0  0  0  0  0  0  0  0  0
   -4.8423   -5.2442    2.9055 C   0  0  0  0  0  0  0  0  0  0  0  0
   -5.5311   -6.1287    2.0785 C   0  0  0  0  0  0  0  0  0  0  0  0
   -5.7540   -5.8132    0.7365 C   0  0  0  0  0  0  0  0  0  0  0  0
   -5.2880   -4.5935    0.1952 C   0  0  0  0  0  0  0  0  0  0  0  0
   -5.4804   -4.2134   -1.1657 C   0  0  0  0  0  0  0  0  0  0  0  0
   -6.1526   -5.0304   -2.1145 C   0  0  0  0  0  0  0  0  0  0  0  0
   -6.2878   -4.6243   -3.4405 C   0  0  0  0  0  0  0  0  0  0  0  0
   -5.7867   -3.3949   -3.8576 C   0  0  0  0  0  0  0  0  0  0  0  0
   -5.9273   -3.0060   -5.1534 F   0  0  0  0  0  0  0  0  0  0  0  0
   -5.1445   -2.5608   -2.9475 C   0  0  0  0  0  0  0  0  0  0  0  0
   -4.9774   -2.9591   -1.6055 C   0  0  0  0  0  0  0  0  0  0  0  0
   -2.0937    0.5427   -2.1169 C   0  0  0  0  0  0  0  0  0  0  0  0
   -0.9108    1.1373   -1.5164 N   0  0  0  0  0  0  0  0  0  0  0  0
   -0.3887    2.3936   -1.9785 C   0  0  0  0  0  0  0  0  0  0  0  0
    0.0685    2.4620   -3.1502 O   0  0  0  0  0  0  0  0  0  0  0  0
   -3.6275    3.5850    1.9435 N   0  0  0  0  0  0  0  0  0  0  0  0
   -4.5453    3.9048    2.8073 O   0  0  0  0  0  0  0  0  0  0  0  0
   -6.6261    5.0939    3.9325 H   0  0  0  0  0  0  0  0  0  0  0  0
   -5.4187    6.3671    4.3488 H   0  0  0  0  0  0  0  0  0  0  0  0
   -6.5003    6.5817    2.9142 H   0  0  0  0  0  0  0  0  0  0  0  0
   -4.2473    6.7314    1.2518 H   0  0  0  0  0  0  0  0  0  0  0  0
   -1.7373    2.7473    0.3718 H   0  0  0  0  0  0  0  0  0  0  0  0
   -0.6609    4.4906   -1.8677 H   0  0  0  0  0  0  0  0  0  0  0  0
    0.6358    4.7496    0.3610 H   0  0  0  0  0  0  0  0  0  0  0  0
    1.1774    3.0557    0.1491 H   0  0  0  0  0  0  0  0  0  0  0  0
    1.5582    5.3016   -1.9368 H   0  0  0  0  0  0  0  0  0  0  0  0
    2.2518    3.6542   -2.0454 H   0  0  0  0  0  0  0  0  0  0  0  0
    3.8303    5.5135   -1.3102 H   0  0  0  0  0  0  0  0  0  0  0  0
    2.8825    5.7195    0.1871 H   0  0  0  0  0  0  0  0  0  0  0  0
    3.7694    2.8560   -0.3677 H   0  0  0  0  0  0  0  0  0  0  0  0
    5.1148    4.0189   -0.2135 H   0  0  0  0  0  0  0  0  0  0  0  0
    4.3364    4.7835    1.9791 H   0  0  0  0  0  0  0  0  0  0  0  0
    2.8819    3.7516    1.9069 H   0  0  0  0  0  0  0  0  0  0  0  0
    5.6972    2.9475    2.6519 H   0  0  0  0  0  0  0  0  0  0  0  0
    5.0186    0.6728    2.6481 H   0  0  0  0  0  0  0  0  0  0  0  0
    2.1455    1.5708    1.7488 H   0  0  0  0  0  0  0  0  0  0  0  0
    1.6702   -0.7480    1.8427 H   0  0  0  0  0  0  0  0  0  0  0  0
    3.5360   -1.1528    2.1686 H   0  0  0  0  0  0  0  0  0  0  0  0
    4.1450   -2.4245   -0.0373 H   0  0  0  0  0  0  0  0  0  0  0  0
    5.6250   -3.9470    1.4669 H   0  0  0  0  0  0  0  0  0  0  0  0
    7.3705   -3.4722    1.5565 H   0  0  0  0  0  0  0  0  0  0  0  0
    6.9219   -5.1966    1.2901 H   0  0  0  0  0  0  0  0  0  0  0  0
    8.2760   -5.4088   -0.7217 H   0  0  0  0  0  0  0  0  0  0  0  0
    8.0627   -4.1482   -2.1825 H   0  0  0  0  0  0  0  0  0  0  0  0
    5.7176   -4.6916   -2.3154 H   0  0  0  0  0  0  0  0  0  0  0  0
    5.9343   -5.9564   -0.8571 H   0  0  0  0  0  0  0  0  0  0  0  0
    2.1246    1.2762   -1.1347 H   0  0  0  0  0  0  0  0  0  0  0  0
   -0.2729    1.1086    0.5147 H   0  0  0  0  0  0  0  0  0  0  0  0
   -1.3047   -1.4828    0.4624 H   0  0  0  0  0  0  0  0  0  0  0  0
   -2.2887   -0.0085    0.7384 H   0  0  0  0  0  0  0  0  0  0  0  0
   -1.9407   -1.5963   -1.8477 H   0  0  0  0  0  0  0  0  0  0  0  0
   -3.8489   -3.3462    3.0459 H   0  0  0  0  0  0  0  0  0  0  0  0
   -4.6632   -5.5017    3.9425 H   0  0  0  0  0  0  0  0  0  0  0  0
   -5.8951   -7.0662    2.4768 H   0  0  0  0  0  0  0  0  0  0  0  0
   -6.2920   -6.5397    0.1529 H   0  0  0  0  0  0  0  0  0  0  0  0
   -6.5694   -5.9908   -1.8630 H   0  0  0  0  0  0  0  0  0  0  0  0
   -6.7974   -5.2660   -4.1506 H   0  0  0  0  0  0  0  0  0  0  0  0
   -4.7719   -1.6073   -3.2990 H   0  0  0  0  0  0  0  0  0  0  0  0
   -1.9081    0.2939   -3.1831 H   0  0  0  0  0  0  0  0  0  0  0  0
   -2.9392    1.2551   -2.0433 H   0  0  0  0  0  0  0  0  0  0  0  0
  1  2  1  0
  2  3  2  0
  3  4  1  0
  4  5  1  0
  5  6  2  0
  5  7  1  0
  7  8  1  0
  8  9  1  0
  9 10  1  0
 10 11  1  0
 11 12  1  0
 12 13  1  0
 13 14  1  0
 14 15  2  0
 15 16  1  0
 16 17  1  0
 17 18  1  0
 18 19  1  6
 19 20  2  0
 19 21  1  0
 21 22  1  0
 22 23  2  0
 22 24  2  0
 22 25  1  0
 25 26  1  0
 25 27  1  0
 27 28  1  0
 18 29  1  0
 29 30  1  0
 30 31  2  0
 30 32  1  0
 32 33  1  0
 33 34  1  0
 34 35  1  0
 35 36  1  0
 36 37  2  0
 37 38  1  0
 38 39  2  0
 39 40  1  0
 40 41  2  0
 41 42  1  0
 42 43  2  0
 43 44  1  0
 44 45  2  0
 45 46  1  0
 46 47  2  0
 47 48  1  0
 47 49  1  0
 49 50  2  0
 34 51  1  0
 51 52  1  0
 52 53  1  0
 53 54  2  0
  4 55  2  0
 55 56  1  0
 56  2  1  0
 53  8  1  0
 18 16  1  0
 28 25  1  0
 52 32  1  0
 50 36  1  0
 43 38  1  0
 50 44  1  0
  1 57  1  0
  1 58  1  0
  1 59  1  0
  3 60  1  0
  7 61  1  0
  8 62  1  6
  9 63  1  0
  9 64  1  0
 10 65  1  0
 10 66  1  0
 11 67  1  0
 11 68  1  0
 12 69  1  0
 12 70  1  0
 13 71  1  0
 13 72  1  0
 14 73  1  0
 15 74  1  0
 16 75  1  6
 17 76  1  0
 17 77  1  0
 21 78  1  0
 26 79  1  0
 26 80  1  0
 26 81  1  0
 27 82  1  0
 27 83  1  0
 28 84  1  0
 28 85  1  0
 29 86  1  0
 32 87  1  1
 33 88  1  0
 33 89  1  0
 34 90  1  6
 39 91  1  0
 40 92  1  0
 41 93  1  0
 42 94  1  0
 45 95  1  0
 46 96  1  0
 49 97  1  0
 51 98  1  0
 51 99  1  0
M  END
$$$$
