
     RDKit          3D

 84 85  0  0  0  0  0  0  0  0999 V2000
    8.4831    1.5325    2.6528 C   0  0  0  0  0  0  0  0  0  0  0  0
    7.0919    1.9595    2.1656 C   0  0  0  0  0  0  0  0  0  0  0  0
    7.1115    3.4009    1.6407 C   0  0  0  0  0  0  0  0  0  0  0  0
    6.5637    1.0016    1.1155 C   0  0  0  0  0  0  0  0  0  0  0  0
    7.2406    0.8209   -0.1083 C   0  0  0  0  0  0  0  0  0  0  0  0
    6.7549   -0.0771   -1.0603 C   0  0  0  0  0  0  0  0  0  0  0  0
    5.5973   -0.8152   -0.8057 C   0  0  0  0  0  0  0  0  0  0  0  0
    4.9125   -0.6579    0.4102 C   0  0  0  0  0  0  0  0  0  0  0  0
    3.6673   -1.4615    0.6870 C   0  0  0  0  0  0  0  0  0  0  0  0
    2.4582   -0.6233    0.6600 N   0  0  0  0  0  0  0  0  0  0  0  0
    2.1060   -0.0994   -0.6740 C   0  0  0  0  0  0  0  0  0  0  0  0
    1.2344   -1.0383   -1.5499 C   0  0  1  0  0  0  0  0  0  0  0  0
    1.9471   -2.2043   -1.8960 O   0  0  0  0  0  0  0  0  0  0  0  0
   -0.1734   -1.3655   -0.9598 C   0  0  2  0  0  0  0  0  0  0  0  0
   -1.0435   -2.1485   -1.9781 C   0  0  0  0  0  0  0  0  0  0  0  0
   -2.3607   -2.6872   -1.3605 C   0  0  2  0  0  0  0  0  0  0  0  0
   -2.1203   -4.0019   -0.5903 C   0  0  0  0  0  0  0  0  0  0  0  0
   -3.4302   -2.8825   -2.4661 C   0  0  0  0  0  0  0  0  0  0  0  0
   -4.8305   -3.2905   -1.9557 C   0  0  0  0  0  0  0  0  0  0  0  0
   -5.4110   -2.3993   -0.8414 C   0  0  0  0  0  0  0  0  0  0  0  0
   -5.5111   -0.9176   -1.2469 C   0  0  0  0  0  0  0  0  0  0  0  0
   -5.9895   -0.0169   -0.1003 C   0  0  0  0  0  0  0  0  0  0  0  0
   -5.0227   -0.0154    1.1041 C   0  0  0  0  0  0  0  0  0  0  0  0
   -5.1867    1.2308    1.9857 C   0  0  0  0  0  0  0  0  0  0  0  0
   -4.4277    2.4531    1.4410 C   0  0  0  0  0  0  0  0  0  0  0  0
   -2.9364    2.3414    1.6553 C   0  0  0  0  0  0  0  0  0  0  0  0
   -2.5171    2.2992    2.8462 O   0  0  0  0  0  0  0  0  0  0  0  0
   -1.9792    2.3555    0.5707 N   0  0  0  0  0  0  0  0  0  0  0  0
   -0.6383    2.8751    0.8590 C   0  0  0  0  0  0  0  0  0  0  0  0
   -2.3205    1.9225   -0.8014 C   0  0  1  0  0  0  0  0  0  0  0  0
   -2.4906    3.1477   -1.7128 C   0  0  0  0  0  0  0  0  0  0  0  0
   -1.3004    0.9314   -1.3259 C   0  0  0  0  0  0  0  0  0  0  0  0
   -0.8476    1.0475   -2.4986 O   0  0  0  0  0  0  0  0  0  0  0  0
   -0.8733   -0.1598   -0.4881 N   0  0  0  0  0  0  0  0  0  0  0  0
    5.3942    0.2569    1.3629 C   0  0  0  0  0  0  0  0  0  0  0  0
    8.8119    2.1906    3.4822 H   0  0  0  0  0  0  0  0  0  0  0  0
    8.4495    0.4882    3.0279 H   0  0  0  0  0  0  0  0  0  0  0  0
    9.2312    1.5928    1.8369 H   0  0  0  0  0  0  0  0  0  0  0  0
    6.4155    1.9469    3.0515 H   0  0  0  0  0  0  0  0  0  0  0  0
    6.0906    3.7003    1.3195 H   0  0  0  0  0  0  0  0  0  0  0  0
    7.4335    4.0992    2.4485 H   0  0  0  0  0  0  0  0  0  0  0  0
    7.8064    3.5095    0.7802 H   0  0  0  0  0  0  0  0  0  0  0  0
    8.1441    1.3731   -0.3298 H   0  0  0  0  0  0  0  0  0  0  0  0
    7.2795   -0.2034   -1.9982 H   0  0  0  0  0  0  0  0  0  0  0  0
    5.2322   -1.5059   -1.5586 H   0  0  0  0  0  0  0  0  0  0  0  0
    3.5822   -2.3155   -0.0111 H   0  0  0  0  0  0  0  0  0  0  0  0
    3.7629   -1.9080    1.7003 H   0  0  0  0  0  0  0  0  0  0  0  0
    1.6610   -1.1605    1.0697 H   0  0  0  0  0  0  0  0  0  0  0  0
    1.5623    0.8573   -0.5280 H   0  0  0  0  0  0  0  0  0  0  0  0
    3.0165    0.1711   -1.2474 H   0  0  0  0  0  0  0  0  0  0  0  0
    1.0770   -0.4901   -2.5040 H   0  0  0  0  0  0  0  0  0  0  0  0
    1.7845   -2.8897   -1.2005 H   0  0  0  0  0  0  0  0  0  0  0  0
   -0.0224   -2.0246   -0.0815 H   0  0  0  0  0  0  0  0  0  0  0  0
   -0.4691   -3.0060   -2.3917 H   0  0  0  0  0  0  0  0  0  0  0  0
   -1.2639   -1.4788   -2.8369 H   0  0  0  0  0  0  0  0  0  0  0  0
   -2.7376   -1.9288   -0.6460 H   0  0  0  0  0  0  0  0  0  0  0  0
   -2.0033   -4.8526   -1.2905 H   0  0  0  0  0  0  0  0  0  0  0  0
   -2.9710   -4.2121    0.0811 H   0  0  0  0  0  0  0  0  0  0  0  0
   -1.2148   -3.9451    0.0439 H   0  0  0  0  0  0  0  0  0  0  0  0
   -3.5232   -1.9515   -3.0674 H   0  0  0  0  0  0  0  0  0  0  0  0
   -3.0810   -3.6627   -3.1766 H   0  0  0  0  0  0  0  0  0  0  0  0
   -5.5307   -3.2830   -2.8194 H   0  0  0  0  0  0  0  0  0  0  0  0
   -4.7928   -4.3394   -1.5892 H   0  0  0  0  0  0  0  0  0  0  0  0
   -4.7987   -2.5214    0.0747 H   0  0  0  0  0  0  0  0  0  0  0  0
   -6.4299   -2.7692   -0.5936 H   0  0  0  0  0  0  0  0  0  0  0  0
   -4.5303   -0.5378   -1.5964 H   0  0  0  0  0  0  0  0  0  0  0  0
   -6.2233   -0.8246   -2.0952 H   0  0  0  0  0  0  0  0  0  0  0  0
   -6.0903    1.0105   -0.5105 H   0  0  0  0  0  0  0  0  0  0  0  0
   -7.0010   -0.3363    0.2334 H   0  0  0  0  0  0  0  0  0  0  0  0
   -3.9689   -0.1018    0.7713 H   0  0  0  0  0  0  0  0  0  0  0  0
   -5.2271   -0.9113    1.7229 H   0  0  0  0  0  0  0  0  0  0  0  0
   -4.8321    1.0050    3.0147 H   0  0  0  0  0  0  0  0  0  0  0  0
   -6.2658    1.4818    2.0674 H   0  0  0  0  0  0  0  0  0  0  0  0
   -4.6889    2.6499    0.3836 H   0  0  0  0  0  0  0  0  0  0  0  0
   -4.7728    3.3419    2.0074 H   0  0  0  0  0  0  0  0  0  0  0  0
   -0.1384    2.2304    1.6126 H   0  0  0  0  0  0  0  0  0  0  0  0
   -0.7161    3.9100    1.2582 H   0  0  0  0  0  0  0  0  0  0  0  0
   -0.0028    2.9028   -0.0529 H   0  0  0  0  0  0  0  0  0  0  0  0
   -3.2813    1.3790   -0.8090 H   0  0  0  0  0  0  0  0  0  0  0  0
   -3.3454    3.7704   -1.3577 H   0  0  0  0  0  0  0  0  0  0  0  0
   -1.5711    3.7715   -1.7129 H   0  0  0  0  0  0  0  0  0  0  0  0
   -2.7148    2.8253   -2.7538 H   0  0  0  0  0  0  0  0  0  0  0  0
   -1.1491   -0.1390    0.5170 H   0  0  0  0  0  0  0  0  0  0  0  0
    4.8650    0.3774    2.2988 H   0  0  0  0  0  0  0  0  0  0  0  0
  1  2  1  0
  2  3  1  0
  2  4  1  0
  4  5  2  0
  5  6  1  0
  6  7  2  0
  7  8  1  0
  8  9  1  0
  9 10  1  0
 10 11  1  0
 11 12  1  0
 12 13  1  0
 12 14  1  0
 14 15  1  0
 15 16  1  0
 16 17  1  0
 16 18  1  0
 18 19  1  0
 19 20  1  0
 20 21  1  0
 21 22  1  0
 22 23  1  0
 23 24  1  0
 24 25  1  0
 25 26  1  0
 26 27  2  0
 26 28  1  0
 28 29  1  0
 28 30  1  0
 30 31  1  0
 30 32  1  0
 32 33  2  0
 32 34  1  0
  8 35  2  0
 35  4  1  0
 34 14  1  0
  1 36  1  0
  1 37  1  0
  1 38  1  0
  2 39  1  0
  3 40  1  0
  3 41  1  0
  3 42  1  0
  5 43  1  0
  6 44  1  0
  7 45  1  0
  9 46  1  0
  9 47  1  0
 10 48  1  0
 11 49  1  0
 11 50  1  0
 12 51  1  6
 13 52  1  0
 14 53  1  1
 15 54  1  0
 15 55  1  0
 16 56  1  1
 17 57  1  0
 17 58  1  0
 17 59  1  0
 18 60  1  0
 18 61  1  0
 19 62  1  0
 19 63  1  0
 20 64  1  0
 20 65  1  0
 21 66  1  0
 21 67  1  0
 22 68  1  0
 22 69  1  0
 23 70  1  0
 23 71  1  0
 24 72  1  0
 24 73  1  0
 25 74  1  0
 25 75  1  0
 29 76  1  0
 29 77  1  0
 29 78  1  0
 30 79  1  1
 31 80  1  0
 31 81  1  0
 31 82  1  0
 34 83  1  0
 35 84  1  0
M  END
$$$$
