
     RDKit          3D

 51 54  0  0  0  0  0  0  0  0999 V2000
   -5.7905   -0.8731    1.1294 C   0  0  0  0  0  0  0  0  0  0  0  0
   -4.4374   -1.0310    0.7233 O   0  0  0  0  0  0  0  0  0  0  0  0
   -3.4273   -0.1590    1.1356 C   0  0  0  0  0  0  0  0  0  0  0  0
   -3.6340    0.9088    1.9300 N   0  0  0  0  0  0  0  0  0  0  0  0
   -2.4702    1.5198    2.0808 N   0  0  0  0  0  0  0  0  0  0  0  0
   -2.2941    2.6948    2.9281 C   0  0  0  0  0  0  0  0  0  0  0  0
   -1.5076    0.8554    1.3987 C   0  0  0  0  0  0  0  0  0  0  0  0
   -2.0901   -0.2442    0.7760 C   0  0  0  0  0  0  0  0  0  0  0  0
   -1.4408   -1.2843   -0.0564 C   0  0  0  0  0  0  0  0  0  0  0  0
   -1.9489   -2.5911   -0.1193 C   0  0  0  0  0  0  0  0  0  0  0  0
   -1.3296   -3.5160   -0.8968 N   0  0  0  0  0  0  0  0  0  0  0  0
   -0.2224   -3.2105   -1.6219 C   0  0  0  0  0  0  0  0  0  0  0  0
    0.3953   -4.2168   -2.4271 N   0  0  0  0  0  0  0  0  0  0  0  0
    0.2988   -1.9113   -1.5569 C   0  0  0  0  0  0  0  0  0  0  0  0
   -0.3246   -0.9855   -0.7746 N   0  0  0  0  0  0  0  0  0  0  0  0
    1.4425   -1.5764   -2.2922 O   0  0  0  0  0  0  0  0  0  0  0  0
    2.0759   -0.3008   -2.2145 C   0  0  2  0  0  0  0  0  0  0  0  0
    3.0642   -0.1554   -3.3705 C   0  0  0  0  0  0  0  0  0  0  0  0
    2.7902   -0.1528   -0.8801 C   0  0  0  0  0  0  0  0  0  0  0  0
    3.6885   -1.1565   -0.4691 C   0  0  0  0  0  0  0  0  0  0  0  0
    4.3689   -1.0512    0.7462 C   0  0  0  0  0  0  0  0  0  0  0  0
    5.2305   -2.0265    1.1266 F   0  0  0  0  0  0  0  0  0  0  0  0
    4.1636    0.0563    1.5688 C   0  0  0  0  0  0  0  0  0  0  0  0
    3.2734    1.0589    1.1821 C   0  0  0  0  0  0  0  0  0  0  0  0
    2.5779    0.9623   -0.0328 C   0  0  0  0  0  0  0  0  0  0  0  0
    1.6249    2.0289   -0.3852 C   0  0  0  0  0  0  0  0  0  0  0  0
    2.0094    2.9271   -1.1830 O   0  0  0  0  0  0  0  0  0  0  0  0
    0.2719    2.0401    0.1299 N   0  0  0  0  0  0  0  0  0  0  0  0
   -0.6181    3.1244   -0.3106 C   0  0  0  0  0  0  0  0  0  0  0  0
   -0.0562    1.2662    1.3450 C   0  0  0  0  0  0  0  0  0  0  0  0
   -5.8652   -0.9378    2.2356 H   0  0  0  0  0  0  0  0  0  0  0  0
   -6.1789    0.1083    0.7837 H   0  0  0  0  0  0  0  0  0  0  0  0
   -6.4028   -1.6812    0.6794 H   0  0  0  0  0  0  0  0  0  0  0  0
   -1.7592    3.4916    2.3721 H   0  0  0  0  0  0  0  0  0  0  0  0
   -1.7123    2.4192    3.8324 H   0  0  0  0  0  0  0  0  0  0  0  0
   -3.2824    3.0903    3.2449 H   0  0  0  0  0  0  0  0  0  0  0  0
   -2.8109   -2.8887    0.4600 H   0  0  0  0  0  0  0  0  0  0  0  0
   -0.0066   -5.1799   -2.4598 H   0  0  0  0  0  0  0  0  0  0  0  0
    1.2504   -4.0147   -2.9911 H   0  0  0  0  0  0  0  0  0  0  0  0
    1.2992    0.4799   -2.3576 H   0  0  0  0  0  0  0  0  0  0  0  0
    3.8303   -0.9589   -3.3405 H   0  0  0  0  0  0  0  0  0  0  0  0
    3.5702    0.8326   -3.3188 H   0  0  0  0  0  0  0  0  0  0  0  0
    2.5216   -0.2233   -4.3372 H   0  0  0  0  0  0  0  0  0  0  0  0
    3.8601   -2.0254   -1.0925 H   0  0  0  0  0  0  0  0  0  0  0  0
    4.6918    0.1374    2.5101 H   0  0  0  0  0  0  0  0  0  0  0  0
    3.1175    1.9092    1.8352 H   0  0  0  0  0  0  0  0  0  0  0  0
   -1.6854    2.8448   -0.2085 H   0  0  0  0  0  0  0  0  0  0  0  0
   -0.4180    4.0380    0.2872 H   0  0  0  0  0  0  0  0  0  0  0  0
   -0.4573    3.3502   -1.3862 H   0  0  0  0  0  0  0  0  0  0  0  0
    0.2061    1.8698    2.2385 H   0  0  0  0  0  0  0  0  0  0  0  0
    0.5481    0.3383    1.4038 H   0  0  0  0  0  0  0  0  0  0  0  0
  1  2  1  0
  2  3  1  0
  3  4  2  0
  4  5  1  0
  5  6  1  0
  5  7  1  0
  7  8  2  0
  8  9  1  0
  9 10  2  0
 10 11  1  0
 11 12  2  0
 12 13  1  0
 12 14  1  0
 14 15  2  0
 14 16  1  0
 16 17  1  0
 17 18  1  0
 17 19  1  0
 19 20  2  0
 20 21  1  0
 21 22  1  0
 21 23  2  0
 23 24  1  0
 24 25  2  0
 25 26  1  0
 26 27  2  0
 26 28  1  0
 28 29  1  0
 28 30  1  0
  8  3  1  0
 15  9  1  0
 25 19  1  0
 30  7  1  0
  1 31  1  0
  1 32  1  0
  1 33  1  0
  6 34  1  0
  6 35  1  0
  6 36  1  0
 10 37  1  0
 13 38  1  0
 13 39  1  0
 17 40  1  6
 18 41  1  0
 18 42  1  0
 18 43  1  0
 20 44  1  0
 23 45  1  0
 24 46  1  0
 29 47  1  0
 29 48  1  0
 29 49  1  0
 30 50  1  0
 30 51  1  0
M  END
$$$$
