
     RDKit          3D

 71 74  0  0  0  0  0  0  0  0999 V2000
   -0.0359   -1.8149   -3.2894 O   0  0  0  0  0  0  0  0  0  0  0  0
    0.9535   -1.7752   -2.5093 C   0  0  0  0  0  0  0  0  0  0  0  0
    1.0619   -2.7735   -1.3772 C   0  0  0  0  0  0  0  0  0  0  0  0
   -0.2481   -3.5136   -1.0842 C   0  0  0  0  0  0  0  0  0  0  0  0
   -1.4542   -2.3845   -0.3051 S   0  0  0  0  0  0  0  0  0  0  0  0
   -2.8416   -3.5684   -0.3544 C   0  0  0  0  0  0  0  0  0  0  0  0
   -4.0038   -2.9951    0.3979 C   0  0  0  0  0  0  0  0  0  0  0  0
   -4.3457   -3.4732    1.6711 C   0  0  0  0  0  0  0  0  0  0  0  0
   -5.4062   -2.8837    2.3613 C   0  0  0  0  0  0  0  0  0  0  0  0
   -6.1012   -1.8168    1.7905 C   0  0  0  0  0  0  0  0  0  0  0  0
   -5.7257   -1.3518    0.5231 C   0  0  0  0  0  0  0  0  0  0  0  0
   -4.6967   -1.9515   -0.1357 N   0  0  0  0  0  0  0  0  0  0  0  0
   -6.4061   -0.1655   -0.0894 C   0  0  0  0  0  0  0  0  0  0  0  0
   -6.0218    1.3710    0.8319 S   0  0  0  0  0  0  0  0  0  0  0  0
   -4.2438    1.4906    0.3795 C   0  0  0  0  0  0  0  0  0  0  0  0
   -3.8525    2.9704    0.2823 C   0  0  0  0  0  0  0  0  0  0  0  0
   -2.3575    3.1095   -0.0310 C   0  0  0  0  0  0  0  0  0  0  0  0
   -1.5255    2.3066    0.8844 N   0  0  0  0  0  0  0  0  0  0  0  0
   -2.1781    1.5258    1.9486 C   0  0  0  0  0  0  0  0  0  0  0  0
   -3.3616    0.7177    1.3961 C   0  0  0  0  0  0  0  0  0  0  0  0
   -0.0825    2.4317    0.8623 C   0  0  0  0  0  0  0  0  0  0  0  0
    0.6060    1.8338    1.7341 O   0  0  0  0  0  0  0  0  0  0  0  0
    0.6158    3.3565   -0.1111 C   0  0  0  0  0  0  0  0  0  0  0  0
    2.0766    2.9701   -0.3836 C   0  0  0  0  0  0  0  0  0  0  0  0
    2.1508    1.8037   -1.2639 N   0  0  0  0  0  0  0  0  0  0  0  0
    2.6139    0.5195   -0.8204 C   0  0  0  0  0  0  0  0  0  0  0  0
    2.6767    0.2553    0.4109 O   0  0  0  0  0  0  0  0  0  0  0  0
    3.0743   -0.5107   -1.8199 C   0  0  2  0  0  0  0  0  0  0  0  0
    4.3179   -0.0144   -2.5805 C   0  0  0  0  0  0  0  0  0  0  0  0
    5.3786    0.3696   -1.6479 N   0  0  0  0  0  0  0  0  0  0  0  0
    6.0581   -0.5859   -0.8212 C   0  0  0  0  0  0  0  0  0  0  0  0
    6.0630   -1.8067   -1.1435 O   0  0  0  0  0  0  0  0  0  0  0  0
    6.7379   -0.1657    0.4158 C   0  0  0  0  0  0  0  0  0  0  0  0
    6.6040    1.0633    1.0592 C   0  0  0  0  0  0  0  0  0  0  0  0
    7.3272    1.1423    2.2559 C   0  0  0  0  0  0  0  0  0  0  0  0
    8.0214   -0.0210    2.5521 C   0  0  0  0  0  0  0  0  0  0  0  0
    9.0087   -0.2892    3.9720 Cl  0  0  0  0  0  0  0  0  0  0  0  0
    7.7410   -1.1522    1.3439 S   0  0  0  0  0  0  0  0  0  0  0  0
    1.9884   -0.8085   -2.7594 N   0  0  0  0  0  0  0  0  0  0  0  0
    1.3864   -2.2617   -0.4470 H   0  0  0  0  0  0  0  0  0  0  0  0
    1.8391   -3.5186   -1.6473 H   0  0  0  0  0  0  0  0  0  0  0  0
   -0.0392   -4.3449   -0.3778 H   0  0  0  0  0  0  0  0  0  0  0  0
   -0.6649   -3.9517   -2.0181 H   0  0  0  0  0  0  0  0  0  0  0  0
   -3.1396   -3.7434   -1.4099 H   0  0  0  0  0  0  0  0  0  0  0  0
   -2.5279   -4.5389    0.0866 H   0  0  0  0  0  0  0  0  0  0  0  0
   -3.7979   -4.2900    2.1256 H   0  0  0  0  0  0  0  0  0  0  0  0
   -5.6814   -3.2470    3.3432 H   0  0  0  0  0  0  0  0  0  0  0  0
   -6.9109   -1.3466    2.3342 H   0  0  0  0  0  0  0  0  0  0  0  0
   -6.1130   -0.0529   -1.1548 H   0  0  0  0  0  0  0  0  0  0  0  0
   -7.5048   -0.3248   -0.0628 H   0  0  0  0  0  0  0  0  0  0  0  0
   -4.0950    1.0487   -0.6322 H   0  0  0  0  0  0  0  0  0  0  0  0
   -4.0802    3.4884    1.2403 H   0  0  0  0  0  0  0  0  0  0  0  0
   -4.4442    3.4634   -0.5207 H   0  0  0  0  0  0  0  0  0  0  0  0
   -2.0805    4.1830    0.0508 H   0  0  0  0  0  0  0  0  0  0  0  0
   -2.1813    2.7730   -1.0764 H   0  0  0  0  0  0  0  0  0  0  0  0
   -2.5346    2.2210    2.7399 H   0  0  0  0  0  0  0  0  0  0  0  0
   -1.4715    0.8127    2.4247 H   0  0  0  0  0  0  0  0  0  0  0  0
   -3.9663    0.3611    2.2583 H   0  0  0  0  0  0  0  0  0  0  0  0
   -2.9539   -0.1836    0.8951 H   0  0  0  0  0  0  0  0  0  0  0  0
    0.0788    3.3858   -1.0822 H   0  0  0  0  0  0  0  0  0  0  0  0
    0.5935    4.3795    0.3184 H   0  0  0  0  0  0  0  0  0  0  0  0
    2.5774    3.8225   -0.8908 H   0  0  0  0  0  0  0  0  0  0  0  0
    2.6311    2.7994    0.5645 H   0  0  0  0  0  0  0  0  0  0  0  0
    1.9826    1.9550   -2.2834 H   0  0  0  0  0  0  0  0  0  0  0  0
    3.3706   -1.4396   -1.2873 H   0  0  0  0  0  0  0  0  0  0  0  0
    4.0511    0.8634   -3.2088 H   0  0  0  0  0  0  0  0  0  0  0  0
    4.6894   -0.8109   -3.2619 H   0  0  0  0  0  0  0  0  0  0  0  0
    5.6171    1.3828   -1.5646 H   0  0  0  0  0  0  0  0  0  0  0  0
    5.9835    1.8721    0.6968 H   0  0  0  0  0  0  0  0  0  0  0  0
    7.3289    2.0146    2.8939 H   0  0  0  0  0  0  0  0  0  0  0  0
    1.8705   -0.1865   -3.5917 H   0  0  0  0  0  0  0  0  0  0  0  0
  1  2  2  0
  2  3  1  0
  3  4  1  0
  4  5  1  0
  5  6  1  0
  6  7  1  0
  7  8  2  0
  8  9  1  0
  9 10  2  0
 10 11  1  0
 11 12  2  0
 11 13  1  0
 13 14  1  0
 14 15  1  0
 15 16  1  0
 16 17  1  0
 17 18  1  0
 18 19  1  0
 19 20  1  0
 18 21  1  0
 21 22  2  0
 21 23  1  0
 23 24  1  0
 24 25  1  0
 25 26  1  0
 26 27  2  0
 26 28  1  0
 28 29  1  0
 29 30  1  0
 30 31  1  0
 31 32  2  0
 31 33  1  0
 33 34  2  0
 34 35  1  0
 35 36  2  0
 36 37  1  0
 36 38  1  0
 28 39  1  0
 39  2  1  0
 12  7  1  0
 20 15  1  0
 38 33  1  0
  3 40  1  0
  3 41  1  0
  4 42  1  0
  4 43  1  0
  6 44  1  0
  6 45  1  0
  8 46  1  0
  9 47  1  0
 10 48  1  0
 13 49  1  0
 13 50  1  0
 15 51  1  0
 16 52  1  0
 16 53  1  0
 17 54  1  0
 17 55  1  0
 19 56  1  0
 19 57  1  0
 20 58  1  0
 20 59  1  0
 23 60  1  0
 23 61  1  0
 24 62  1  0
 24 63  1  0
 25 64  1  0
 28 65  1  1
 29 66  1  0
 29 67  1  0
 30 68  1  0
 34 69  1  0
 35 70  1  0
 39 71  1  0
M  END
$$$$
