
     RDKit          3D

 48 52  0  0  0  0  0  0  0  0999 V2000
   -1.0046   -3.1892    1.2054 C   0  0  0  0  0  0  0  0  0  0  0  0
   -0.0916   -2.5296    0.1973 C   0  0  0  0  0  0  0  0  0  0  0  0
    1.2047   -2.3605    0.5575 C   0  0  0  0  0  0  0  0  0  0  0  0
    2.3426   -1.8662   -0.3137 C   0  0  0  0  0  0  0  0  0  0  0  0
    3.1736   -0.7886    0.4224 C   0  0  1  0  0  0  0  0  0  0  0  0
    4.5867   -0.6285   -0.2116 C   0  0  0  0  0  0  0  0  0  0  0  0
    4.5587    0.1698   -1.4461 N   0  0  0  0  0  0  0  0  0  0  0  0
    3.7507    1.3500   -1.5229 C   0  0  0  0  0  0  0  0  0  0  0  0
    3.9016    2.1788   -2.4591 O   0  0  0  0  0  0  0  0  0  0  0  0
    2.7149    1.5225   -0.5111 C   0  0  0  0  0  0  0  0  0  0  0  0
    1.7135    2.4669   -0.4226 C   0  0  0  0  0  0  0  0  0  0  0  0
    0.8594    1.9911    0.5618 C   0  0  0  0  0  0  0  0  0  0  0  0
    1.3146    0.8224    1.0666 N   0  0  0  0  0  0  0  0  0  0  0  0
    2.4529    0.5408    0.4100 C   0  0  0  0  0  0  0  0  0  0  0  0
   -0.5264    2.4522    0.7424 C   0  0  0  0  0  0  0  0  0  0  0  0
   -0.7980    3.7420    1.2206 C   0  0  0  0  0  0  0  0  0  0  0  0
   -2.1231    4.1690    1.3776 C   0  0  0  0  0  0  0  0  0  0  0  0
   -3.1847    3.3199    1.0411 C   0  0  0  0  0  0  0  0  0  0  0  0
   -2.9212    2.0420    0.5367 C   0  0  0  0  0  0  0  0  0  0  0  0
   -3.9342    1.2143    0.1664 N   0  0  0  0  0  0  0  0  0  0  0  0
   -3.6953   -0.0219   -0.3568 C   0  0  0  0  0  0  0  0  0  0  0  0
   -4.8589   -0.8832   -0.7430 C   0  0  0  0  0  0  0  0  0  0  0  0
   -2.3591   -0.4490   -0.5254 C   0  0  0  0  0  0  0  0  0  0  0  0
   -1.3568    0.3824   -0.1415 N   0  0  0  0  0  0  0  0  0  0  0  0
   -1.5927    1.6087    0.3885 C   0  0  0  0  0  0  0  0  0  0  0  0
   -2.0278   -1.7275   -1.0968 N   0  0  0  0  0  0  0  0  0  0  0  0
   -0.6403   -2.1933   -1.1815 C   0  0  0  0  0  0  0  0  0  0  0  0
   -1.1490   -2.5130    2.0744 H   0  0  0  0  0  0  0  0  0  0  0  0
   -0.5568   -4.1431    1.5572 H   0  0  0  0  0  0  0  0  0  0  0  0
   -1.9984   -3.4286    0.7744 H   0  0  0  0  0  0  0  0  0  0  0  0
    1.4957   -2.6822    1.5554 H   0  0  0  0  0  0  0  0  0  0  0  0
    2.0223   -1.4778   -1.2983 H   0  0  0  0  0  0  0  0  0  0  0  0
    2.9853   -2.7487   -0.5191 H   0  0  0  0  0  0  0  0  0  0  0  0
    3.3213   -1.1000    1.4804 H   0  0  0  0  0  0  0  0  0  0  0  0
    5.2429   -0.1097    0.5206 H   0  0  0  0  0  0  0  0  0  0  0  0
    5.0470   -1.6197   -0.4136 H   0  0  0  0  0  0  0  0  0  0  0  0
    5.1907   -0.0814   -2.2391 H   0  0  0  0  0  0  0  0  0  0  0  0
    1.5431    3.3026   -1.0890 H   0  0  0  0  0  0  0  0  0  0  0  0
    0.8145    0.1987    1.7387 H   0  0  0  0  0  0  0  0  0  0  0  0
    0.0132    4.4106    1.4812 H   0  0  0  0  0  0  0  0  0  0  0  0
   -2.3274    5.1618    1.7569 H   0  0  0  0  0  0  0  0  0  0  0  0
   -4.2055    3.6618    1.1591 H   0  0  0  0  0  0  0  0  0  0  0  0
   -4.8125   -1.8491   -0.1972 H   0  0  0  0  0  0  0  0  0  0  0  0
   -4.8431   -1.0699   -1.8372 H   0  0  0  0  0  0  0  0  0  0  0  0
   -5.8164   -0.3823   -0.4859 H   0  0  0  0  0  0  0  0  0  0  0  0
   -2.7751   -2.3480   -1.4798 H   0  0  0  0  0  0  0  0  0  0  0  0
   -0.5965   -3.1101   -1.8072 H   0  0  0  0  0  0  0  0  0  0  0  0
   -0.0542   -1.4075   -1.6941 H   0  0  0  0  0  0  0  0  0  0  0  0
  1  2  1  0
  2  3  2  0
  3  4  1  0
  4  5  1  0
  5  6  1  0
  6  7  1  0
  7  8  1  0
  8  9  2  0
  8 10  1  0
 10 11  1  0
 11 12  2  0
 12 13  1  0
 13 14  1  0
 12 15  1  0
 15 16  2  0
 16 17  1  0
 17 18  2  0
 18 19  1  0
 19 20  2  0
 20 21  1  0
 21 22  1  0
 21 23  2  0
 23 24  1  0
 24 25  2  0
 23 26  1  0
 26 27  1  0
 27  2  1  0
 14  5  1  0
 25 15  1  0
 14 10  2  0
 25 19  1  0
  1 28  1  0
  1 29  1  0
  1 30  1  0
  3 31  1  0
  4 32  1  0
  4 33  1  0
  5 34  1  1
  6 35  1  0
  6 36  1  0
  7 37  1  0
 11 38  1  0
 13 39  1  0
 16 40  1  0
 17 41  1  0
 18 42  1  0
 22 43  1  0
 22 44  1  0
 22 45  1  0
 26 46  1  0
 27 47  1  0
 27 48  1  0
M  END
$$$$
