
     RDKit          3D

 63 66  0  0  0  0  0  0  0  0999 V2000
    6.1547   -1.1712   -0.2514 C   0  0  0  0  0  0  0  0  0  0  0  0
    5.4279   -1.5620   -1.5355 C   0  0  0  0  0  0  0  0  0  0  0  0
    3.7483   -2.1021   -1.2244 S   0  0  0  0  0  6  0  0  0  0  0  0
    3.3789   -3.1230   -2.2618 O   0  0  0  0  0  0  0  0  0  0  0  0
    3.6493   -2.7440    0.1329 O   0  0  0  0  0  0  0  0  0  0  0  0
    2.6512   -0.7531   -1.3569 N   0  0  0  0  0  0  0  0  0  0  0  0
    2.6279    0.0898   -0.1413 C   0  0  1  0  0  0  0  0  0  0  0  0
    3.2653    1.4305   -0.5048 C   0  0  0  0  0  0  0  0  0  0  0  0
    3.2525    2.3538    0.6986 C   0  0  0  0  0  0  0  0  0  0  0  0
    1.8112    2.6054    1.1046 C   0  0  0  0  0  0  0  0  0  0  0  0
    1.1178    1.3450    1.4667 N   0  0  0  0  0  0  0  0  0  0  0  0
   -0.2456    1.6456    1.9823 C   0  0  0  0  0  0  0  0  0  0  0  0
   -1.2400    2.2177    0.9361 C   0  0  0  0  0  0  0  0  0  0  0  0
   -2.2372    1.2477    0.6171 O   0  0  0  0  0  0  0  0  0  0  0  0
   -3.3837    1.4735   -0.1698 C   0  0  0  0  0  0  0  0  0  0  0  0
   -3.8541    2.7755   -0.4327 C   0  0  0  0  0  0  0  0  0  0  0  0
   -5.0111    2.9708   -1.1882 C   0  0  0  0  0  0  0  0  0  0  0  0
   -5.7095    1.8767   -1.6971 C   0  0  0  0  0  0  0  0  0  0  0  0
   -5.2497    0.5812   -1.4616 C   0  0  0  0  0  0  0  0  0  0  0  0
   -4.0887    0.3594   -0.7006 C   0  0  0  0  0  0  0  0  0  0  0  0
   -3.5562   -1.0602   -0.5519 C   0  0  1  0  0  0  0  0  0  0  0  0
   -2.2127   -1.1847   -1.3265 C   0  0  0  0  0  0  0  0  0  0  0  0
   -1.3712   -2.3897   -0.9029 C   0  0  0  0  0  0  0  0  0  0  0  0
   -1.1988   -2.4150    0.6204 C   0  0  2  0  0  0  0  0  0  0  0  0
   -2.5759   -2.6468    1.2458 C   0  0  0  0  0  0  0  0  0  0  0  0
   -3.5216   -1.4772    0.9489 C   0  0  0  0  0  0  0  0  0  0  0  0
   -0.6913   -1.1741    1.0866 O   0  0  0  0  0  0  0  0  0  0  0  0
    0.7217   -1.0961    1.0227 C   0  0  0  0  0  0  0  0  0  0  0  0
    1.1734    0.2711    0.4232 C   0  0  0  0  0  0  0  0  0  0  0  0
    5.5847   -0.4080    0.3141 H   0  0  0  0  0  0  0  0  0  0  0  0
    6.3157   -2.0607    0.3905 H   0  0  0  0  0  0  0  0  0  0  0  0
    7.1418   -0.7384   -0.5136 H   0  0  0  0  0  0  0  0  0  0  0  0
    5.4024   -0.6963   -2.2284 H   0  0  0  0  0  0  0  0  0  0  0  0
    5.9844   -2.3881   -2.0290 H   0  0  0  0  0  0  0  0  0  0  0  0
    1.7060   -1.1212   -1.6058 H   0  0  0  0  0  0  0  0  0  0  0  0
    3.2442   -0.3513    0.6743 H   0  0  0  0  0  0  0  0  0  0  0  0
    4.3141    1.2767   -0.8324 H   0  0  0  0  0  0  0  0  0  0  0  0
    2.7139    1.8974   -1.3501 H   0  0  0  0  0  0  0  0  0  0  0  0
    3.8194    1.9003    1.5420 H   0  0  0  0  0  0  0  0  0  0  0  0
    3.7363    3.3189    0.4324 H   0  0  0  0  0  0  0  0  0  0  0  0
    1.3015    3.1342    0.2724 H   0  0  0  0  0  0  0  0  0  0  0  0
    1.8260    3.2927    1.9792 H   0  0  0  0  0  0  0  0  0  0  0  0
   -0.1560    2.3818    2.8115 H   0  0  0  0  0  0  0  0  0  0  0  0
   -0.6734    0.7600    2.4917 H   0  0  0  0  0  0  0  0  0  0  0  0
   -1.7225    3.1142    1.3845 H   0  0  0  0  0  0  0  0  0  0  0  0
   -0.7454    2.5263   -0.0081 H   0  0  0  0  0  0  0  0  0  0  0  0
   -3.3390    3.6478   -0.0560 H   0  0  0  0  0  0  0  0  0  0  0  0
   -5.3635    3.9769   -1.3842 H   0  0  0  0  0  0  0  0  0  0  0  0
   -6.6001    2.0315   -2.2919 H   0  0  0  0  0  0  0  0  0  0  0  0
   -5.7939   -0.2505   -1.8894 H   0  0  0  0  0  0  0  0  0  0  0  0
   -4.2553   -1.7735   -1.0445 H   0  0  0  0  0  0  0  0  0  0  0  0
   -2.4307   -1.2677   -2.4151 H   0  0  0  0  0  0  0  0  0  0  0  0
   -1.5887   -0.2757   -1.2130 H   0  0  0  0  0  0  0  0  0  0  0  0
   -0.3788   -2.3303   -1.3975 H   0  0  0  0  0  0  0  0  0  0  0  0
   -1.8572   -3.3275   -1.2505 H   0  0  0  0  0  0  0  0  0  0  0  0
   -0.5519   -3.2747    0.9168 H   0  0  0  0  0  0  0  0  0  0  0  0
   -3.0187   -3.5928    0.8635 H   0  0  0  0  0  0  0  0  0  0  0  0
   -2.4626   -2.7532    2.3477 H   0  0  0  0  0  0  0  0  0  0  0  0
   -3.2389   -0.6374    1.6136 H   0  0  0  0  0  0  0  0  0  0  0  0
   -4.5478   -1.7682    1.2634 H   0  0  0  0  0  0  0  0  0  0  0  0
    1.1266   -1.1878    2.0546 H   0  0  0  0  0  0  0  0  0  0  0  0
    1.1672   -1.9378    0.4468 H   0  0  0  0  0  0  0  0  0  0  0  0
    0.5077    0.5380   -0.4255 H   0  0  0  0  0  0  0  0  0  0  0  0
  1  2  1  0
  2  3  1  0
  3  4  2  0
  3  5  2  0
  3  6  1  0
  6  7  1  0
  7  8  1  0
  8  9  1  0
  9 10  1  0
 10 11  1  0
 11 12  1  0
 12 13  1  0
 13 14  1  0
 14 15  1  0
 15 16  2  0
 16 17  1  0
 17 18  2  0
 18 19  1  0
 19 20  2  0
 20 21  1  0
 21 22  1  0
 22 23  1  0
 23 24  1  0
 24 25  1  0
 25 26  1  0
 24 27  1  0
 27 28  1  0
 28 29  1  0
 29  7  1  0
 29 11  1  0
 20 15  1  0
 26 21  1  0
  1 30  1  0
  1 31  1  0
  1 32  1  0
  2 33  1  0
  2 34  1  0
  6 35  1  0
  7 36  1  1
  8 37  1  0
  8 38  1  0
  9 39  1  0
  9 40  1  0
 10 41  1  0
 10 42  1  0
 12 43  1  0
 12 44  1  0
 13 45  1  0
 13 46  1  0
 16 47  1  0
 17 48  1  0
 18 49  1  0
 19 50  1  0
 21 51  1  6
 22 52  1  0
 22 53  1  0
 23 54  1  0
 23 55  1  0
 24 56  1  6
 25 57  1  0
 25 58  1  0
 26 59  1  0
 26 60  1  0
 28 61  1  0
 28 62  1  0
 29 63  1  0
M  END
$$$$
