
     RDKit          3D

 65 68  0  0  0  0  0  0  0  0999 V2000
    7.3218    0.3437    0.5391 C   0  0  0  0  0  0  0  0  0  0  0  0
    5.8504    0.6232    0.8562 C   0  0  0  0  0  0  0  0  0  0  0  0
    5.5221    2.1026    0.6383 C   0  0  0  0  0  0  0  0  0  0  0  0
    4.7887   -0.4172   -0.1485 S   0  0  0  0  0  6  0  0  0  0  0  0
    5.0354   -0.1331   -1.6049 O   0  0  0  0  0  0  0  0  0  0  0  0
    5.1134   -1.8571    0.1370 O   0  0  0  0  0  0  0  0  0  0  0  0
    3.1200   -0.0896    0.2335 N   0  0  0  0  0  0  0  0  0  0  0  0
    2.2284   -1.0980   -0.3779 C   0  0  1  0  0  0  0  0  0  0  0  0
    2.1652   -2.3476    0.5579 C   0  0  0  0  0  0  0  0  0  0  0  0
    0.7476   -2.9165    0.7598 C   0  0  0  0  0  0  0  0  0  0  0  0
   -0.2314   -1.8321    1.2569 C   0  0  0  0  0  0  0  0  0  0  0  0
    0.0480   -0.5276    0.6379 N   0  0  0  0  0  0  0  0  0  0  0  0
    0.0124    0.6396    1.4825 C   0  0  0  0  0  0  0  0  0  0  0  0
    1.0829    1.2516    1.7490 O   0  0  0  0  0  0  0  0  0  0  0  0
   -1.2672    1.1213    2.1049 C   0  0  0  0  0  0  0  0  0  0  0  0
   -2.3566    1.0060    1.1884 O   0  0  0  0  0  0  0  0  0  0  0  0
   -3.3680    0.0328    1.1619 C   0  0  0  0  0  0  0  0  0  0  0  0
   -3.4676   -0.9499    2.1737 C   0  0  0  0  0  0  0  0  0  0  0  0
   -4.4992   -1.8854    2.1650 C   0  0  0  0  0  0  0  0  0  0  0  0
   -5.4553   -1.8596    1.1581 C   0  0  0  0  0  0  0  0  0  0  0  0
   -5.3745   -0.9073    0.1451 C   0  0  0  0  0  0  0  0  0  0  0  0
   -4.3316    0.0445    0.1091 C   0  0  0  0  0  0  0  0  0  0  0  0
   -4.3333    0.9978   -1.1026 C   0  0  0  0  0  0  0  0  0  0  0  0
   -3.5216    2.3158   -0.9953 C   0  0  0  0  0  0  0  0  0  0  0  0
   -2.0322    2.2158   -1.4120 C   0  0  0  0  0  0  0  0  0  0  0  0
   -1.6167    0.8017   -1.8653 C   0  0  0  0  0  0  0  0  0  0  0  0
   -2.5944    0.3287   -2.9402 C   0  0  0  0  0  0  0  0  0  0  0  0
   -4.0479    0.2433   -2.4325 C   0  0  0  0  0  0  0  0  0  0  0  0
   -0.3127    0.7946   -2.4234 O   0  0  0  0  0  0  0  0  0  0  0  0
    0.7128    0.7929   -1.4403 C   0  0  0  0  0  0  0  0  0  0  0  0
    0.7950   -0.5420   -0.6363 C   0  0  1  0  0  0  0  0  0  0  0  0
    7.5531   -0.7279    0.7116 H   0  0  0  0  0  0  0  0  0  0  0  0
    7.5505    0.5986   -0.5176 H   0  0  0  0  0  0  0  0  0  0  0  0
    7.9781    0.9478    1.2014 H   0  0  0  0  0  0  0  0  0  0  0  0
    5.6679    0.3743    1.9236 H   0  0  0  0  0  0  0  0  0  0  0  0
    6.2103    2.7418    1.2328 H   0  0  0  0  0  0  0  0  0  0  0  0
    4.4858    2.3180    0.9728 H   0  0  0  0  0  0  0  0  0  0  0  0
    5.6218    2.3713   -0.4365 H   0  0  0  0  0  0  0  0  0  0  0  0
    2.9294    0.8587   -0.1553 H   0  0  0  0  0  0  0  0  0  0  0  0
    2.6276   -1.4134   -1.3703 H   0  0  0  0  0  0  0  0  0  0  0  0
    2.5657   -2.0900    1.5629 H   0  0  0  0  0  0  0  0  0  0  0  0
    2.8120   -3.1500    0.1446 H   0  0  0  0  0  0  0  0  0  0  0  0
    0.7811   -3.7488    1.4950 H   0  0  0  0  0  0  0  0  0  0  0  0
    0.3825   -3.3416   -0.2011 H   0  0  0  0  0  0  0  0  0  0  0  0
   -0.1431   -1.7591    2.3635 H   0  0  0  0  0  0  0  0  0  0  0  0
   -1.2676   -2.1399    1.0096 H   0  0  0  0  0  0  0  0  0  0  0  0
   -1.4451    0.6239    3.0768 H   0  0  0  0  0  0  0  0  0  0  0  0
   -1.1473    2.2032    2.3321 H   0  0  0  0  0  0  0  0  0  0  0  0
   -2.7499   -1.0269    2.9710 H   0  0  0  0  0  0  0  0  0  0  0  0
   -4.5585   -2.6331    2.9451 H   0  0  0  0  0  0  0  0  0  0  0  0
   -6.2578   -2.5869    1.1559 H   0  0  0  0  0  0  0  0  0  0  0  0
   -6.1296   -0.9212   -0.6330 H   0  0  0  0  0  0  0  0  0  0  0  0
   -5.3907    1.3419   -1.1758 H   0  0  0  0  0  0  0  0  0  0  0  0
   -3.6211    2.7498    0.0227 H   0  0  0  0  0  0  0  0  0  0  0  0
   -4.0051    3.0608   -1.6672 H   0  0  0  0  0  0  0  0  0  0  0  0
   -1.3981    2.5590   -0.5703 H   0  0  0  0  0  0  0  0  0  0  0  0
   -1.8439    2.9225   -2.2499 H   0  0  0  0  0  0  0  0  0  0  0  0
   -1.7032    0.0782   -1.0344 H   0  0  0  0  0  0  0  0  0  0  0  0
   -2.2762   -0.6708   -3.3121 H   0  0  0  0  0  0  0  0  0  0  0  0
   -2.5465    1.0280   -3.8064 H   0  0  0  0  0  0  0  0  0  0  0  0
   -4.7119    0.6571   -3.2232 H   0  0  0  0  0  0  0  0  0  0  0  0
   -4.3287   -0.8284   -2.3400 H   0  0  0  0  0  0  0  0  0  0  0  0
    1.6588    0.9101   -2.0097 H   0  0  0  0  0  0  0  0  0  0  0  0
    0.6593    1.6901   -0.7927 H   0  0  0  0  0  0  0  0  0  0  0  0
    0.3064   -1.2903   -1.3010 H   0  0  0  0  0  0  0  0  0  0  0  0
  1  2  1  0
  2  3  1  0
  2  4  1  0
  4  5  2  0
  4  6  2  0
  4  7  1  0
  7  8  1  0
  8  9  1  0
  9 10  1  0
 10 11  1  0
 11 12  1  0
 12 13  1  0
 13 14  2  0
 13 15  1  0
 15 16  1  0
 16 17  1  0
 17 18  2  0
 18 19  1  0
 19 20  2  0
 20 21  1  0
 21 22  2  0
 22 23  1  0
 23 24  1  0
 24 25  1  0
 25 26  1  0
 26 27  1  0
 27 28  1  0
 26 29  1  0
 29 30  1  0
 30 31  1  0
 31  8  1  0
 31 12  1  0
 22 17  1  0
 28 23  1  0
  1 32  1  0
  1 33  1  0
  1 34  1  0
  2 35  1  0
  3 36  1  0
  3 37  1  0
  3 38  1  0
  7 39  1  0
  8 40  1  6
  9 41  1  0
  9 42  1  0
 10 43  1  0
 10 44  1  0
 11 45  1  0
 11 46  1  0
 15 47  1  0
 15 48  1  0
 18 49  1  0
 19 50  1  0
 20 51  1  0
 21 52  1  0
 23 53  1  0
 24 54  1  0
 24 55  1  0
 25 56  1  0
 25 57  1  0
 26 58  1  0
 27 59  1  0
 27 60  1  0
 28 61  1  0
 28 62  1  0
 30 63  1  0
 30 64  1  0
 31 65  1  6
M  END
$$$$
