
     RDKit          3D

 71 75  0  0  0  0  0  0  0  0999 V2000
    0.3289    5.0396   -0.6924 C   0  0  0  0  0  0  0  0  0  0  0  0
   -0.5408    4.1329    0.1949 C   0  0  1  0  0  0  0  0  0  0  0  0
   -0.8205    4.8507    1.4482 N   0  0  0  0  0  0  0  0  0  0  0  0
   -1.8692    3.8029   -0.5602 C   0  0  0  0  0  0  0  0  0  0  0  0
   -2.7644    2.8151    0.1597 C   0  0  0  0  0  0  0  0  0  0  0  0
   -3.6536    3.2484    1.1571 C   0  0  0  0  0  0  0  0  0  0  0  0
   -4.4456    2.3246    1.8451 C   0  0  0  0  0  0  0  0  0  0  0  0
   -4.3665    0.9630    1.5383 C   0  0  0  0  0  0  0  0  0  0  0  0
   -3.5119    0.5184    0.5198 C   0  0  0  0  0  0  0  0  0  0  0  0
   -2.7169    1.4490   -0.1662 C   0  0  0  0  0  0  0  0  0  0  0  0
   -3.3702   -0.9520    0.2216 C   0  0  0  0  0  0  0  0  0  0  0  0
   -2.3306   -1.6132    1.1539 C   0  0  0  0  0  0  0  0  0  0  0  0
   -1.3621   -2.5527    0.4050 C   0  0  2  0  0  0  0  0  0  0  0  0
   -2.0926   -3.6350   -0.3676 C   0  0  0  0  0  0  0  0  0  0  0  0
   -2.9871   -4.5097    0.2791 C   0  0  0  0  0  0  0  0  0  0  0  0
   -3.6466   -5.5082   -0.4425 C   0  0  0  0  0  0  0  0  0  0  0  0
   -3.4118   -5.6553   -1.8120 C   0  0  0  0  0  0  0  0  0  0  0  0
   -4.0379   -6.6384   -2.5070 F   0  0  0  0  0  0  0  0  0  0  0  0
   -2.5137   -4.8044   -2.4610 C   0  0  0  0  0  0  0  0  0  0  0  0
   -1.8542   -3.8009   -1.7451 C   0  0  0  0  0  0  0  0  0  0  0  0
   -0.4243   -3.1742    1.3472 N   0  0  0  0  0  0  0  0  0  0  0  0
    0.9945   -3.1052    1.1509 C   0  0  0  0  0  0  0  0  0  0  0  0
    1.6611   -4.1744    1.0972 O   0  0  0  0  0  0  0  0  0  0  0  0
    1.6854   -1.8030    1.0505 C   0  0  0  0  0  0  0  0  0  0  0  0
    1.2125   -0.7022    1.7775 C   0  0  0  0  0  0  0  0  0  0  0  0
    1.8404    0.5472    1.6775 C   0  0  0  0  0  0  0  0  0  0  0  0
    2.9822    0.6827    0.8772 C   0  0  0  0  0  0  0  0  0  0  0  0
    3.4799   -0.4157    0.1584 C   0  0  0  0  0  0  0  0  0  0  0  0
    4.6880   -0.2689   -0.6854 C   0  0  0  0  0  0  0  0  0  0  0  0
    5.8055   -1.0777   -0.4171 C   0  0  0  0  0  0  0  0  0  0  0  0
    6.9676   -0.9562   -1.1819 C   0  0  0  0  0  0  0  0  0  0  0  0
    7.0251   -0.0332   -2.2282 C   0  0  0  0  0  0  0  0  0  0  0  0
    5.9197    0.7732   -2.5156 C   0  0  0  0  0  0  0  0  0  0  0  0
    5.9914    1.6536   -3.5478 F   0  0  0  0  0  0  0  0  0  0  0  0
    4.7463    0.6632   -1.7508 C   0  0  0  0  0  0  0  0  0  0  0  0
    3.6027    1.4745   -2.1010 C   0  0  0  0  0  0  0  0  0  0  0  0
    2.6851    2.1215   -2.3796 N   0  0  0  0  0  0  0  0  0  0  0  0
    2.8345   -1.6590    0.2575 C   0  0  0  0  0  0  0  0  0  0  0  0
    1.3048    1.7238    2.4518 C   0  0  0  0  0  0  0  0  0  0  0  0
    1.1014    2.8738    1.6302 O   0  0  0  0  0  0  0  0  0  0  0  0
    0.2598    2.8857    0.5102 C   0  0  0  0  0  0  0  0  0  0  0  0
    0.2451    1.9014   -0.2795 O   0  0  0  0  0  0  0  0  0  0  0  0
    1.2625    5.3245   -0.1599 H   0  0  0  0  0  0  0  0  0  0  0  0
   -0.2191    5.9702   -0.9538 H   0  0  0  0  0  0  0  0  0  0  0  0
    0.6070    4.5174   -1.6330 H   0  0  0  0  0  0  0  0  0  0  0  0
   -1.4432    5.6692    1.2552 H   0  0  0  0  0  0  0  0  0  0  0  0
   -1.3136    4.2204    2.1220 H   0  0  0  0  0  0  0  0  0  0  0  0
   -1.6317    3.4072   -1.5739 H   0  0  0  0  0  0  0  0  0  0  0  0
   -2.4400    4.7424   -0.7341 H   0  0  0  0  0  0  0  0  0  0  0  0
   -3.7252    4.2990    1.4100 H   0  0  0  0  0  0  0  0  0  0  0  0
   -5.1116    2.6617    2.6282 H   0  0  0  0  0  0  0  0  0  0  0  0
   -4.9689    0.2568    2.0956 H   0  0  0  0  0  0  0  0  0  0  0  0
   -2.0574    1.1061   -0.9535 H   0  0  0  0  0  0  0  0  0  0  0  0
   -4.3523   -1.4584    0.3431 H   0  0  0  0  0  0  0  0  0  0  0  0
   -3.0862   -1.0759   -0.8467 H   0  0  0  0  0  0  0  0  0  0  0  0
   -1.7253   -0.8294    1.6509 H   0  0  0  0  0  0  0  0  0  0  0  0
   -2.8561   -2.1615    1.9645 H   0  0  0  0  0  0  0  0  0  0  0  0
   -0.7927   -1.9139   -0.3091 H   0  0  0  0  0  0  0  0  0  0  0  0
   -3.1703   -4.4251    1.3416 H   0  0  0  0  0  0  0  0  0  0  0  0
   -4.3308   -6.1774    0.0635 H   0  0  0  0  0  0  0  0  0  0  0  0
   -2.3173   -4.9313   -3.5185 H   0  0  0  0  0  0  0  0  0  0  0  0
   -1.1568   -3.1558   -2.2662 H   0  0  0  0  0  0  0  0  0  0  0  0
   -0.7880   -3.8874    2.0188 H   0  0  0  0  0  0  0  0  0  0  0  0
    0.3736   -0.8241    2.4485 H   0  0  0  0  0  0  0  0  0  0  0  0
    3.4850    1.6416    0.8181 H   0  0  0  0  0  0  0  0  0  0  0  0
    5.7810   -1.7969    0.3937 H   0  0  0  0  0  0  0  0  0  0  0  0
    7.8242   -1.5821   -0.9662 H   0  0  0  0  0  0  0  0  0  0  0  0
    7.9271    0.0525   -2.8218 H   0  0  0  0  0  0  0  0  0  0  0  0
    3.2148   -2.5061   -0.3004 H   0  0  0  0  0  0  0  0  0  0  0  0
    2.0284    1.9818    3.2519 H   0  0  0  0  0  0  0  0  0  0  0  0
    0.3413    1.4686    2.9453 H   0  0  0  0  0  0  0  0  0  0  0  0
  1  2  1  0
  2  3  1  1
  2  4  1  0
  4  5  1  0
  5  6  1  0
  6  7  2  0
  7  8  1  0
  8  9  2  0
  9 10  1  0
  9 11  1  0
 11 12  1  0
 12 13  1  0
 13 14  1  0
 14 15  2  0
 15 16  1  0
 16 17  2  0
 17 18  1  0
 17 19  1  0
 19 20  2  0
 13 21  1  0
 21 22  1  0
 22 23  2  0
 22 24  1  0
 24 25  1  0
 25 26  2  0
 26 27  1  0
 27 28  2  0
 28 29  1  0
 29 30  2  0
 30 31  1  0
 31 32  2  0
 32 33  1  0
 33 34  1  0
 33 35  2  0
 35 36  1  0
 36 37  3  0
 28 38  1  0
 26 39  1  0
 39 40  1  0
 40 41  1  0
 41 42  2  0
 41  2  1  0
 10  5  2  0
 20 14  1  0
 38 24  2  0
 35 29  1  0
  1 43  1  0
  1 44  1  0
  1 45  1  0
  3 46  1  0
  3 47  1  0
  4 48  1  0
  4 49  1  0
  6 50  1  0
  7 51  1  0
  8 52  1  0
 10 53  1  0
 11 54  1  0
 11 55  1  0
 12 56  1  0
 12 57  1  0
 13 58  1  6
 15 59  1  0
 16 60  1  0
 19 61  1  0
 20 62  1  0
 21 63  1  0
 25 64  1  0
 27 65  1  0
 30 66  1  0
 31 67  1  0
 32 68  1  0
 38 69  1  0
 39 70  1  0
 39 71  1  0
M  END
$$$$
