
     RDKit          3D

 57 60  0  0  0  0  0  0  0  0999 V2000
   -6.0495    1.3449    0.5734 C   0  0  0  0  0  0  0  0  0  0  0  0
   -4.9225    2.0685   -0.6001 S   0  0  0  0  0  6  0  0  0  0  0  0
   -4.0599    3.0831    0.0970 O   0  0  0  0  0  0  0  0  0  0  0  0
   -5.7169    2.7577   -1.6731 O   0  0  0  0  0  0  0  0  0  0  0  0
   -3.9180    0.8520   -1.3349 N   0  0  0  0  0  0  0  0  0  0  0  0
   -3.1041    0.1316   -0.3357 C   0  0  1  0  0  0  0  0  0  0  0  0
   -3.6752   -1.2729   -0.0378 C   0  0  0  0  0  0  0  0  0  0  0  0
   -2.8724   -1.9827    1.0722 C   0  0  0  0  0  0  0  0  0  0  0  0
   -1.3813   -1.5980    1.0709 C   0  0  0  0  0  0  0  0  0  0  0  0
   -0.9718   -1.1761   -0.2740 N   0  0  0  0  0  0  0  0  0  0  0  0
   -0.2114   -2.0708   -1.1163 C   0  0  0  0  0  0  0  0  0  0  0  0
   -0.5793   -2.2768   -2.3042 O   0  0  0  0  0  0  0  0  0  0  0  0
    1.0612   -2.7051   -0.6336 C   0  0  0  0  0  0  0  0  0  0  0  0
    1.9837   -1.6710   -0.3300 O   0  0  0  0  0  0  0  0  0  0  0  0
    3.2935   -1.8766    0.1137 C   0  0  0  0  0  0  0  0  0  0  0  0
    3.7725   -3.1371    0.2976 N   0  0  0  0  0  0  0  0  0  0  0  0
    5.0180   -3.3570    0.7201 N   0  0  0  0  0  0  0  0  0  0  0  0
    5.8663   -2.3315    0.9860 C   0  0  0  0  0  0  0  0  0  0  0  0
    5.4348   -1.0177    0.8170 C   0  0  0  0  0  0  0  0  0  0  0  0
    4.1289   -0.7691    0.3740 C   0  0  0  0  0  0  0  0  0  0  0  0
    3.6444    0.6626    0.1852 C   0  0  0  0  0  0  0  0  0  0  0  0
    2.4736    0.9658    1.1591 C   0  0  0  0  0  0  0  0  0  0  0  0
    1.7467    2.2670    0.8170 C   0  0  0  0  0  0  0  0  0  0  0  0
    1.2831    2.2645   -0.6528 C   0  0  0  0  0  0  0  0  0  0  0  0
    2.5358    2.2305   -1.5359 C   0  0  0  0  0  0  0  0  0  0  0  0
    3.3267    0.9339   -1.3120 C   0  0  0  0  0  0  0  0  0  0  0  0
    0.4939    1.1210   -0.9568 O   0  0  0  0  0  0  0  0  0  0  0  0
   -0.8458    1.2868   -0.5434 C   0  0  0  0  0  0  0  0  0  0  0  0
   -1.6434    0.0078   -0.8580 C   0  0  0  0  0  0  0  0  0  0  0  0
   -6.7427    2.1251    0.9490 H   0  0  0  0  0  0  0  0  0  0  0  0
   -5.4839    0.9214    1.4284 H   0  0  0  0  0  0  0  0  0  0  0  0
   -6.6354    0.5418    0.0811 H   0  0  0  0  0  0  0  0  0  0  0  0
   -4.5391    0.1970   -1.8642 H   0  0  0  0  0  0  0  0  0  0  0  0
   -3.0886    0.6807    0.6340 H   0  0  0  0  0  0  0  0  0  0  0  0
   -4.7391   -1.2022    0.2713 H   0  0  0  0  0  0  0  0  0  0  0  0
   -3.6356   -1.8877   -0.9645 H   0  0  0  0  0  0  0  0  0  0  0  0
   -3.3067   -1.7278    2.0631 H   0  0  0  0  0  0  0  0  0  0  0  0
   -2.9715   -3.0816    0.9366 H   0  0  0  0  0  0  0  0  0  0  0  0
   -0.7781   -2.4487    1.4457 H   0  0  0  0  0  0  0  0  0  0  0  0
   -1.2178   -0.7536    1.7754 H   0  0  0  0  0  0  0  0  0  0  0  0
    0.8796   -3.3317    0.2629 H   0  0  0  0  0  0  0  0  0  0  0  0
    1.4854   -3.3559   -1.4295 H   0  0  0  0  0  0  0  0  0  0  0  0
    6.8718   -2.5367    1.3276 H   0  0  0  0  0  0  0  0  0  0  0  0
    6.1152   -0.2026    1.0308 H   0  0  0  0  0  0  0  0  0  0  0  0
    4.4628    1.3666    0.4592 H   0  0  0  0  0  0  0  0  0  0  0  0
    2.8774    1.0442    2.1924 H   0  0  0  0  0  0  0  0  0  0  0  0
    1.7221    0.1523    1.1802 H   0  0  0  0  0  0  0  0  0  0  0  0
    0.8859    2.4023    1.5037 H   0  0  0  0  0  0  0  0  0  0  0  0
    2.4289    3.1277    0.9956 H   0  0  0  0  0  0  0  0  0  0  0  0
    0.7401    3.2137   -0.8726 H   0  0  0  0  0  0  0  0  0  0  0  0
    3.1841    3.1077   -1.3175 H   0  0  0  0  0  0  0  0  0  0  0  0
    2.2355    2.2945   -2.6043 H   0  0  0  0  0  0  0  0  0  0  0  0
    4.2825    0.9994   -1.8756 H   0  0  0  0  0  0  0  0  0  0  0  0
    2.7547    0.1012   -1.7680 H   0  0  0  0  0  0  0  0  0  0  0  0
   -0.8997    1.4759    0.5498 H   0  0  0  0  0  0  0  0  0  0  0  0
   -1.3148    2.1401   -1.0844 H   0  0  0  0  0  0  0  0  0  0  0  0
   -1.6843   -0.0984   -1.9656 H   0  0  0  0  0  0  0  0  0  0  0  0
  1  2  1  0
  2  3  2  0
  2  4  2  0
  2  5  1  0
  5  6  1  0
  6  7  1  0
  7  8  1  0
  8  9  1  0
  9 10  1  0
 10 11  1  0
 11 12  2  0
 11 13  1  0
 13 14  1  0
 14 15  1  0
 15 16  2  0
 16 17  1  0
 17 18  2  0
 18 19  1  0
 19 20  2  0
 20 21  1  0
 21 22  1  0
 22 23  1  0
 23 24  1  0
 24 25  1  0
 25 26  1  0
 24 27  1  0
 27 28  1  0
 28 29  1  0
 29  6  1  0
 29 10  1  0
 20 15  1  0
 26 21  1  0
  1 30  1  0
  1 31  1  0
  1 32  1  0
  5 33  1  0
  6 34  1  1
  7 35  1  0
  7 36  1  0
  8 37  1  0
  8 38  1  0
  9 39  1  0
  9 40  1  0
 13 41  1  0
 13 42  1  0
 18 43  1  0
 19 44  1  0
 21 45  1  0
 22 46  1  0
 22 47  1  0
 23 48  1  0
 23 49  1  0
 24 50  1  0
 25 51  1  0
 25 52  1  0
 26 53  1  0
 26 54  1  0
 28 55  1  0
 28 56  1  0
 29 57  1  0
M  END
$$$$
