
     RDKit          3D

 62 65  0  0  0  0  0  0  0  0999 V2000
    6.6130   -0.4599   -2.2242 C   0  0  0  0  0  0  0  0  0  0  0  0
    5.2754   -0.1554   -1.6147 C   0  0  0  0  0  0  0  0  0  0  0  0
    4.4691    0.8474   -2.1560 C   0  0  0  0  0  0  0  0  0  0  0  0
    3.2460    1.1578   -1.5691 C   0  0  0  0  0  0  0  0  0  0  0  0
    2.8088    0.4909   -0.4062 C   0  0  0  0  0  0  0  0  0  0  0  0
    3.6255   -0.5332    0.1614 C   0  0  0  0  0  0  0  0  0  0  0  0
    4.8545   -0.8329   -0.4652 C   0  0  0  0  0  0  0  0  0  0  0  0
    3.2379   -1.4206    1.3585 C   0  0  0  0  0  0  0  0  0  0  0  0
    2.4275   -0.7488    2.5085 C   0  0  0  0  0  0  0  0  0  0  0  0
    1.1098   -1.4771    2.8464 C   0  0  0  0  0  0  0  0  0  0  0  0
    0.2909   -1.8775    1.6001 C   0  0  0  0  0  0  0  0  0  0  0  0
    1.1335   -2.6228    0.5319 C   0  0  0  0  0  0  0  0  0  0  0  0
    2.6173   -2.7572    0.8918 C   0  0  0  0  0  0  0  0  0  0  0  0
   -0.2263   -0.7032    1.0065 O   0  0  0  0  0  0  0  0  0  0  0  0
   -1.6309   -0.6511    1.0315 C   0  0  0  0  0  0  0  0  0  0  0  0
   -2.0807    0.5783    0.2116 C   0  0  1  0  0  0  0  0  0  0  0  0
   -3.6217    0.6060   -0.0178 C   0  0  1  0  0  0  0  0  0  0  0  0
   -4.0940   -0.6323   -0.6724 N   0  0  0  0  0  0  0  0  0  0  0  0
   -5.5087   -0.3597   -1.6546 S   0  0  0  0  0  6  0  0  0  0  0  0
   -5.1037    0.6334   -3.0785 C   0  0  0  0  0  0  0  0  0  0  0  0
   -6.0252   -1.6869   -2.1340 O   0  0  0  0  0  0  0  0  0  0  0  0
   -6.5882    0.3214   -0.8631 O   0  0  0  0  0  0  0  0  0  0  0  0
   -4.3726    0.8373    1.3147 C   0  0  0  0  0  0  0  0  0  0  0  0
   -3.6774    1.8473    2.2522 C   0  0  0  0  0  0  0  0  0  0  0  0
   -2.6239    2.6936    1.5333 C   0  0  0  0  0  0  0  0  0  0  0  0
   -1.6290    1.8253    0.8761 N   0  0  0  0  0  0  0  0  0  0  0  0
   -0.2338    2.2207    0.9053 C   0  0  0  0  0  0  0  0  0  0  0  0
    0.2083    2.8529    1.9021 O   0  0  0  0  0  0  0  0  0  0  0  0
    0.7355    1.9158   -0.2065 C   0  0  0  0  0  0  0  0  0  0  0  0
    1.5934    0.8472    0.1954 O   0  0  0  0  0  0  0  0  0  0  0  0
    6.8944   -1.5226   -2.0525 H   0  0  0  0  0  0  0  0  0  0  0  0
    7.3839    0.1967   -1.7665 H   0  0  0  0  0  0  0  0  0  0  0  0
    6.5890   -0.2860   -3.3217 H   0  0  0  0  0  0  0  0  0  0  0  0
    4.7869    1.3903   -3.0389 H   0  0  0  0  0  0  0  0  0  0  0  0
    2.6475    1.9306   -2.0320 H   0  0  0  0  0  0  0  0  0  0  0  0
    5.4894   -1.6143   -0.0626 H   0  0  0  0  0  0  0  0  0  0  0  0
    4.2004   -1.7137    1.8404 H   0  0  0  0  0  0  0  0  0  0  0  0
    2.2459    0.3273    2.3425 H   0  0  0  0  0  0  0  0  0  0  0  0
    3.0453   -0.7646    3.4346 H   0  0  0  0  0  0  0  0  0  0  0  0
    0.4879   -0.8278    3.5043 H   0  0  0  0  0  0  0  0  0  0  0  0
    1.3475   -2.3938    3.4320 H   0  0  0  0  0  0  0  0  0  0  0  0
   -0.5066   -2.5768    1.9543 H   0  0  0  0  0  0  0  0  0  0  0  0
    0.7178   -3.6429    0.3778 H   0  0  0  0  0  0  0  0  0  0  0  0
    1.0580   -2.1033   -0.4491 H   0  0  0  0  0  0  0  0  0  0  0  0
    3.1726   -3.1629    0.0162 H   0  0  0  0  0  0  0  0  0  0  0  0
    2.7196   -3.5093    1.7076 H   0  0  0  0  0  0  0  0  0  0  0  0
   -1.9803   -0.5580    2.0850 H   0  0  0  0  0  0  0  0  0  0  0  0
   -2.0576   -1.5768    0.5821 H   0  0  0  0  0  0  0  0  0  0  0  0
   -1.6200    0.5089   -0.7961 H   0  0  0  0  0  0  0  0  0  0  0  0
   -3.8194    1.4791   -0.6769 H   0  0  0  0  0  0  0  0  0  0  0  0
   -3.3648   -0.9711   -1.3412 H   0  0  0  0  0  0  0  0  0  0  0  0
   -5.9711    0.6594   -3.7702 H   0  0  0  0  0  0  0  0  0  0  0  0
   -4.2281    0.1960   -3.6004 H   0  0  0  0  0  0  0  0  0  0  0  0
   -4.8639    1.6699   -2.7642 H   0  0  0  0  0  0  0  0  0  0  0  0
   -5.3914    1.2144    1.0959 H   0  0  0  0  0  0  0  0  0  0  0  0
   -4.4882   -0.1283    1.8548 H   0  0  0  0  0  0  0  0  0  0  0  0
   -4.4354    2.5205    2.7113 H   0  0  0  0  0  0  0  0  0  0  0  0
   -3.1845    1.2949    3.0827 H   0  0  0  0  0  0  0  0  0  0  0  0
   -2.1528    3.3656    2.2828 H   0  0  0  0  0  0  0  0  0  0  0  0
   -3.1143    3.3384    0.7705 H   0  0  0  0  0  0  0  0  0  0  0  0
    1.3400    2.8342   -0.3768 H   0  0  0  0  0  0  0  0  0  0  0  0
    0.2217    1.6690   -1.1556 H   0  0  0  0  0  0  0  0  0  0  0  0
  1  2  1  0
  2  3  2  0
  3  4  1  0
  4  5  2  0
  5  6  1  0
  6  7  2  0
  6  8  1  0
  8  9  1  0
  9 10  1  0
 10 11  1  0
 11 12  1  0
 12 13  1  0
 11 14  1  0
 14 15  1  0
 15 16  1  0
 16 17  1  0
 17 18  1  0
 18 19  1  0
 19 20  1  0
 19 21  2  0
 19 22  2  0
 17 23  1  0
 23 24  1  0
 24 25  1  0
 25 26  1  0
 26 27  1  0
 27 28  2  0
 27 29  1  0
 29 30  1  0
  7  2  1  0
 13  8  1  0
 26 16  1  0
 30  5  1  0
  1 31  1  0
  1 32  1  0
  1 33  1  0
  3 34  1  0
  4 35  1  0
  7 36  1  0
  8 37  1  0
  9 38  1  0
  9 39  1  0
 10 40  1  0
 10 41  1  0
 11 42  1  0
 12 43  1  0
 12 44  1  0
 13 45  1  0
 13 46  1  0
 15 47  1  0
 15 48  1  0
 16 49  1  6
 17 50  1  6
 18 51  1  0
 20 52  1  0
 20 53  1  0
 20 54  1  0
 23 55  1  0
 23 56  1  0
 24 57  1  0
 24 58  1  0
 25 59  1  0
 25 60  1  0
 29 61  1  0
 29 62  1  0
M  END
$$$$
