
     RDKit          3D

 84 87  0  0  0  0  0  0  0  0999 V2000
   -5.3275   -1.6171    1.5695 C   0  0  0  0  0  0  0  0  0  0  0  0
   -4.0898   -1.1841    0.9199 N   0  0  0  0  0  0  0  0  0  0  0  0
   -3.1127   -2.2865    0.7913 C   0  0  1  0  0  0  0  0  0  0  0  0
   -3.0365   -2.8246   -0.6616 C   0  0  0  0  0  0  0  0  0  0  0  0
   -1.9841   -3.8974   -0.8254 C   0  0  0  0  0  0  0  0  0  0  0  0
   -2.1092   -5.1233   -0.1599 C   0  0  0  0  0  0  0  0  0  0  0  0
   -1.0973   -6.0825   -0.2507 C   0  0  0  0  0  0  0  0  0  0  0  0
    0.0374   -5.8336   -1.0275 C   0  0  0  0  0  0  0  0  0  0  0  0
    0.1706   -4.6284   -1.7227 C   0  0  0  0  0  0  0  0  0  0  0  0
   -0.8456   -3.6579   -1.6144 C   0  0  0  0  0  0  0  0  0  0  0  0
    1.3214   -4.4380   -2.5046 O   0  0  0  0  0  0  0  0  0  0  0  0
    1.6576   -3.2366   -3.1976 C   0  0  0  0  0  0  0  0  0  0  0  0
    2.1667   -2.1722   -2.2199 C   0  0  0  0  0  0  0  0  0  0  0  0
    2.3880   -0.8334   -2.9360 C   0  0  0  0  0  0  0  0  0  0  0  0
    2.9578    0.2554   -2.0084 C   0  0  0  0  0  0  0  0  0  0  0  0
    1.9964    0.7036   -0.8848 C   0  0  1  0  0  0  0  0  0  0  0  0
    2.6695    1.7643   -0.0547 C   0  0  0  0  0  0  0  0  0  0  0  0
    2.3040    2.9708   -0.1383 O   0  0  0  0  0  0  0  0  0  0  0  0
    3.7706    1.3993    0.7907 N   0  0  0  0  0  0  0  0  0  0  0  0
    4.7014    2.3928    1.3411 C   0  0  0  0  0  0  0  0  0  0  0  0
    5.5666    2.9783    0.2302 C   0  0  0  0  0  0  0  0  0  0  0  0
    6.7256    2.0044    0.0629 C   0  0  0  0  0  0  0  0  0  0  0  0
    6.8586    1.2577    1.3906 C   0  0  0  0  0  0  0  0  0  0  0  0
    5.7094    1.7300    2.2777 C   0  0  0  0  0  0  0  0  0  0  0  0
    0.7365    1.2033   -1.4478 N   0  0  0  0  0  0  0  0  0  0  0  0
   -0.4975    0.4720   -1.3708 C   0  0  0  0  0  0  0  0  0  0  0  0
   -1.0276    0.0622   -2.4370 O   0  0  0  0  0  0  0  0  0  0  0  0
   -1.2291    0.2437   -0.0652 C   0  0  2  0  0  0  0  0  0  0  0  0
   -0.9926    1.3668    0.9677 C   0  0  0  0  0  0  0  0  0  0  0  0
   -1.6164    2.7122    0.5497 C   0  0  0  0  0  0  0  0  0  0  0  0
   -3.0785    2.6022    0.3403 N   0  0  0  0  0  0  0  0  0  0  0  0
   -3.8032    2.3765    1.6125 C   0  0  0  0  0  0  0  0  0  0  0  0
   -5.2997    2.6878    1.4456 C   0  0  0  0  0  0  0  0  0  0  0  0
   -5.5839    4.0231    1.0460 O   0  0  0  0  0  0  0  0  0  0  0  0
   -4.4777    4.6865    0.4523 C   0  0  0  0  0  0  0  0  0  0  0  0
   -3.6186    3.7567   -0.4219 C   0  0  0  0  0  0  0  0  0  0  0  0
   -0.8590   -1.0503    0.5122 N   0  0  0  0  0  0  0  0  0  0  0  0
   -1.7676   -1.8268    1.3084 C   0  0  0  0  0  0  0  0  0  0  0  0
   -1.4092   -2.1825    2.4630 O   0  0  0  0  0  0  0  0  0  0  0  0
   -5.8130   -2.4236    0.9841 H   0  0  0  0  0  0  0  0  0  0  0  0
   -5.1169   -1.9786    2.5990 H   0  0  0  0  0  0  0  0  0  0  0  0
   -6.0263   -0.7595    1.6420 H   0  0  0  0  0  0  0  0  0  0  0  0
   -4.3501   -0.8006   -0.0184 H   0  0  0  0  0  0  0  0  0  0  0  0
   -3.4168   -3.1481    1.4317 H   0  0  0  0  0  0  0  0  0  0  0  0
   -4.0225   -3.2517   -0.9401 H   0  0  0  0  0  0  0  0  0  0  0  0
   -2.8421   -1.9882   -1.3687 H   0  0  0  0  0  0  0  0  0  0  0  0
   -2.9854   -5.3330    0.4406 H   0  0  0  0  0  0  0  0  0  0  0  0
   -1.1968   -7.0228    0.2755 H   0  0  0  0  0  0  0  0  0  0  0  0
    0.8156   -6.5846   -1.0921 H   0  0  0  0  0  0  0  0  0  0  0  0
   -0.7612   -2.7158   -2.1390 H   0  0  0  0  0  0  0  0  0  0  0  0
    0.7843   -2.8704   -3.7804 H   0  0  0  0  0  0  0  0  0  0  0  0
    2.4634   -3.4649   -3.9258 H   0  0  0  0  0  0  0  0  0  0  0  0
    1.4274   -2.0442   -1.4024 H   0  0  0  0  0  0  0  0  0  0  0  0
    3.1240   -2.5190   -1.7732 H   0  0  0  0  0  0  0  0  0  0  0  0
    1.4418   -0.4838   -3.3968 H   0  0  0  0  0  0  0  0  0  0  0  0
    3.1182   -0.9916   -3.7609 H   0  0  0  0  0  0  0  0  0  0  0  0
    3.2233    1.1385   -2.6320 H   0  0  0  0  0  0  0  0  0  0  0  0
    3.9030   -0.1213   -1.5596 H   0  0  0  0  0  0  0  0  0  0  0  0
    1.8049   -0.1515   -0.2130 H   0  0  0  0  0  0  0  0  0  0  0  0
    3.9405    0.3820    0.9645 H   0  0  0  0  0  0  0  0  0  0  0  0
    4.1318    3.1855    1.8763 H   0  0  0  0  0  0  0  0  0  0  0  0
    5.0104    3.1148   -0.7221 H   0  0  0  0  0  0  0  0  0  0  0  0
    5.9548    3.9691    0.5554 H   0  0  0  0  0  0  0  0  0  0  0  0
    6.4953    1.2825   -0.7524 H   0  0  0  0  0  0  0  0  0  0  0  0
    7.6616    2.5438   -0.1908 H   0  0  0  0  0  0  0  0  0  0  0  0
    7.8365    1.4784    1.8704 H   0  0  0  0  0  0  0  0  0  0  0  0
    6.7790    0.1613    1.2208 H   0  0  0  0  0  0  0  0  0  0  0  0
    6.0908    2.4852    2.9981 H   0  0  0  0  0  0  0  0  0  0  0  0
    5.2619    0.8917    2.8557 H   0  0  0  0  0  0  0  0  0  0  0  0
    0.7973    1.9544   -2.1705 H   0  0  0  0  0  0  0  0  0  0  0  0
   -2.3085    0.2306   -0.3077 H   0  0  0  0  0  0  0  0  0  0  0  0
   -1.4098    1.0596    1.9494 H   0  0  0  0  0  0  0  0  0  0  0  0
    0.0959    1.5058    1.1343 H   0  0  0  0  0  0  0  0  0  0  0  0
   -1.1133    3.0332   -0.3898 H   0  0  0  0  0  0  0  0  0  0  0  0
   -1.3888    3.4824    1.3208 H   0  0  0  0  0  0  0  0  0  0  0  0
   -3.3948    3.0098    2.4322 H   0  0  0  0  0  0  0  0  0  0  0  0
   -3.7066    1.3143    1.9138 H   0  0  0  0  0  0  0  0  0  0  0  0
   -5.8126    2.4951    2.4104 H   0  0  0  0  0  0  0  0  0  0  0  0
   -5.7337    1.9901    0.6967 H   0  0  0  0  0  0  0  0  0  0  0  0
   -4.8656    5.5129   -0.1807 H   0  0  0  0  0  0  0  0  0  0  0  0
   -3.8493    5.1471    1.2476 H   0  0  0  0  0  0  0  0  0  0  0  0
   -4.2527    3.3654   -1.2477 H   0  0  0  0  0  0  0  0  0  0  0  0
   -2.8185    4.3660   -0.8991 H   0  0  0  0  0  0  0  0  0  0  0  0
    0.1493   -1.2207    0.7030 H   0  0  0  0  0  0  0  0  0  0  0  0
  1  2  1  0
  2  3  1  0
  3  4  1  0
  4  5  1  0
  5  6  1  0
  6  7  2  0
  7  8  1  0
  8  9  2  0
  9 10  1  0
  9 11  1  0
 11 12  1  0
 12 13  1  0
 13 14  1  0
 14 15  1  0
 15 16  1  0
 16 17  1  0
 17 18  2  0
 17 19  1  0
 19 20  1  0
 20 21  1  0
 21 22  1  0
 22 23  1  0
 23 24  1  0
 16 25  1  0
 25 26  1  0
 26 27  2  0
 26 28  1  0
 28 29  1  0
 29 30  1  0
 30 31  1  0
 31 32  1  0
 32 33  1  0
 33 34  1  0
 34 35  1  0
 35 36  1  0
 28 37  1  0
 37 38  1  0
 38 39  2  0
 38  3  1  0
 10  5  2  0
 24 20  1  0
 36 31  1  0
  1 40  1  0
  1 41  1  0
  1 42  1  0
  2 43  1  0
  3 44  1  1
  4 45  1  0
  4 46  1  0
  6 47  1  0
  7 48  1  0
  8 49  1  0
 10 50  1  0
 12 51  1  0
 12 52  1  0
 13 53  1  0
 13 54  1  0
 14 55  1  0
 14 56  1  0
 15 57  1  0
 15 58  1  0
 16 59  1  1
 19 60  1  0
 20 61  1  0
 21 62  1  0
 21 63  1  0
 22 64  1  0
 22 65  1  0
 23 66  1  0
 23 67  1  0
 24 68  1  0
 24 69  1  0
 25 70  1  0
 28 71  1  6
 29 72  1  0
 29 73  1  0
 30 74  1  0
 30 75  1  0
 32 76  1  0
 32 77  1  0
 33 78  1  0
 33 79  1  0
 35 80  1  0
 35 81  1  0
 36 82  1  0
 36 83  1  0
 37 84  1  0
M  END
$$$$
