
     RDKit          3D

 81 82  0  0  0  0  0  0  0  0999 V2000
    0.7890   -6.2631   -0.2967 C   0  0  0  0  0  0  0  0  0  0  0  0
    0.4425   -5.2079    0.7665 C   0  0  0  0  0  0  0  0  0  0  0  0
    1.6458   -4.9739    1.6849 C   0  0  0  0  0  0  0  0  0  0  0  0
   -0.1105   -3.8736    0.1761 C   0  0  2  0  0  0  0  0  0  0  0  0
   -1.4442   -4.0864   -0.4092 N   0  0  0  0  0  0  0  0  0  0  0  0
   -2.3339   -3.0250   -0.8118 C   0  0  0  0  0  0  0  0  0  0  0  0
   -3.4847   -3.3276   -1.2276 O   0  0  0  0  0  0  0  0  0  0  0  0
   -1.9220   -1.5722   -0.7497 C   0  0  0  0  0  0  0  0  0  0  0  0
   -3.0534   -0.5981   -1.1504 C   0  0  2  0  0  0  0  0  0  0  0  0
   -3.4177   -0.8261   -2.4916 O   0  0  0  0  0  0  0  0  0  0  0  0
   -2.6065    0.8753   -0.9665 C   0  0  2  0  0  0  0  0  0  0  0  0
   -3.7501    1.8765   -1.2274 C   0  0  0  0  0  0  0  0  0  0  0  0
   -4.8860    1.7144   -0.2495 C   0  0  0  0  0  0  0  0  0  0  0  0
   -6.1143    1.1758   -0.6708 C   0  0  0  0  0  0  0  0  0  0  0  0
   -7.1744    1.0641    0.2358 C   0  0  0  0  0  0  0  0  0  0  0  0
   -7.0119    1.4704    1.5659 C   0  0  0  0  0  0  0  0  0  0  0  0
   -5.7900    1.9956    1.9946 C   0  0  0  0  0  0  0  0  0  0  0  0
   -4.7306    2.1190    1.0886 C   0  0  0  0  0  0  0  0  0  0  0  0
   -1.4943    1.1849   -1.8692 N   0  0  0  0  0  0  0  0  0  0  0  0
   -0.1409    1.2693   -1.4103 C   0  0  0  0  0  0  0  0  0  0  0  0
    0.7542    0.6246   -2.0162 O   0  0  0  0  0  0  0  0  0  0  0  0
    0.2284    2.0960   -0.3448 O   0  0  0  0  0  0  0  0  0  0  0  0
   -0.4844    3.2839   -0.0082 C   0  0  0  0  0  0  0  0  0  0  0  0
    0.3614    4.2029    0.8767 C   0  0  0  0  0  0  0  0  0  0  0  0
    1.7872    4.4148    0.3213 C   0  0  0  0  0  0  0  0  0  0  0  0
    2.8340    3.6114    1.1147 C   0  0  0  0  0  0  0  0  0  0  0  0
    4.2068    3.6096    0.4161 C   0  0  0  0  0  0  0  0  0  0  0  0
    4.2685    2.6089   -0.7586 C   0  0  0  0  0  0  0  0  0  0  0  0
    5.3936    1.5641   -0.6133 C   0  0  0  0  0  0  0  0  0  0  0  0
    5.2298    0.5877    0.5802 C   0  0  0  0  0  0  0  0  0  0  0  0
    4.2887   -0.6134    0.3142 C   0  0  0  0  0  0  0  0  0  0  0  0
    2.8192   -0.3336    0.7028 C   0  0  0  0  0  0  0  0  0  0  0  0
    1.9515   -1.6079    0.7714 C   0  0  0  0  0  0  0  0  0  0  0  0
    1.8106   -2.2575   -0.5398 N   0  0  0  0  0  0  0  0  0  0  0  0
    0.8262   -3.2742   -0.8607 C   0  0  0  0  0  0  0  0  0  0  0  0
    0.7616   -3.7028   -2.0476 O   0  0  0  0  0  0  0  0  0  0  0  0
    1.0538   -7.2199    0.1978 H   0  0  0  0  0  0  0  0  0  0  0  0
   -0.0697   -6.4599   -0.9693 H   0  0  0  0  0  0  0  0  0  0  0  0
    1.6560   -5.9435   -0.9098 H   0  0  0  0  0  0  0  0  0  0  0  0
   -0.3546   -5.6458    1.4044 H   0  0  0  0  0  0  0  0  0  0  0  0
    1.3912   -4.2260    2.4644 H   0  0  0  0  0  0  0  0  0  0  0  0
    1.9277   -5.9174    2.2002 H   0  0  0  0  0  0  0  0  0  0  0  0
    2.5231   -4.6258    1.0987 H   0  0  0  0  0  0  0  0  0  0  0  0
   -0.2352   -3.1767    1.0264 H   0  0  0  0  0  0  0  0  0  0  0  0
   -1.8278   -5.0609   -0.4681 H   0  0  0  0  0  0  0  0  0  0  0  0
   -1.6060   -1.3470    0.2916 H   0  0  0  0  0  0  0  0  0  0  0  0
   -1.0529   -1.4280   -1.4243 H   0  0  0  0  0  0  0  0  0  0  0  0
   -3.9102   -0.7987   -0.4634 H   0  0  0  0  0  0  0  0  0  0  0  0
   -4.4105   -0.7833   -2.5477 H   0  0  0  0  0  0  0  0  0  0  0  0
   -2.2743    0.9884    0.0861 H   0  0  0  0  0  0  0  0  0  0  0  0
   -4.1196    1.7680   -2.2682 H   0  0  0  0  0  0  0  0  0  0  0  0
   -3.3578    2.9153   -1.1465 H   0  0  0  0  0  0  0  0  0  0  0  0
   -6.2555    0.8557   -1.7018 H   0  0  0  0  0  0  0  0  0  0  0  0
   -8.1285    0.6717   -0.0898 H   0  0  0  0  0  0  0  0  0  0  0  0
   -7.8387    1.3714    2.2591 H   0  0  0  0  0  0  0  0  0  0  0  0
   -5.6616    2.3154    3.0257 H   0  0  0  0  0  0  0  0  0  0  0  0
   -3.7920    2.5377    1.4263 H   0  0  0  0  0  0  0  0  0  0  0  0
   -1.6488    1.0598   -2.8940 H   0  0  0  0  0  0  0  0  0  0  0  0
   -1.4142    3.0342    0.5286 H   0  0  0  0  0  0  0  0  0  0  0  0
   -0.7537    3.8304   -0.9314 H   0  0  0  0  0  0  0  0  0  0  0  0
   -0.1490    5.1958    0.9259 H   0  0  0  0  0  0  0  0  0  0  0  0
    0.3833    3.8004    1.9170 H   0  0  0  0  0  0  0  0  0  0  0  0
    2.0482    5.4968    0.3949 H   0  0  0  0  0  0  0  0  0  0  0  0
    1.8298    4.1472   -0.7553 H   0  0  0  0  0  0  0  0  0  0  0  0
    2.9473    4.0894    2.1127 H   0  0  0  0  0  0  0  0  0  0  0  0
    2.4852    2.5660    1.2770 H   0  0  0  0  0  0  0  0  0  0  0  0
    4.4443    4.6342    0.0526 H   0  0  0  0  0  0  0  0  0  0  0  0
    4.9818    3.3747    1.1727 H   0  0  0  0  0  0  0  0  0  0  0  0
    3.2885    2.1068   -0.9306 H   0  0  0  0  0  0  0  0  0  0  0  0
    4.4520    3.1850   -1.7003 H   0  0  0  0  0  0  0  0  0  0  0  0
    6.3595    2.1093   -0.4971 H   0  0  0  0  0  0  0  0  0  0  0  0
    5.4610    0.9868   -1.5555 H   0  0  0  0  0  0  0  0  0  0  0  0
    4.9271    1.1253    1.4992 H   0  0  0  0  0  0  0  0  0  0  0  0
    6.2409    0.1658    0.7839 H   0  0  0  0  0  0  0  0  0  0  0  0
    4.6515   -1.4704    0.9308 H   0  0  0  0  0  0  0  0  0  0  0  0
    4.3691   -0.9148   -0.7508 H   0  0  0  0  0  0  0  0  0  0  0  0
    2.3503    0.3670   -0.0117 H   0  0  0  0  0  0  0  0  0  0  0  0
    2.8006    0.1362    1.7093 H   0  0  0  0  0  0  0  0  0  0  0  0
    0.9471   -1.2974    1.1426 H   0  0  0  0  0  0  0  0  0  0  0  0
    2.4048   -2.3110    1.5054 H   0  0  0  0  0  0  0  0  0  0  0  0
    2.4876   -2.0139   -1.3079 H   0  0  0  0  0  0  0  0  0  0  0  0
  1  2  1  0
  2  3  1  0
  2  4  1  0
  4  5  1  0
  5  6  1  0
  6  7  2  0
  6  8  1  0
  8  9  1  0
  9 10  1  0
  9 11  1  0
 11 12  1  0
 12 13  1  0
 13 14  2  0
 14 15  1  0
 15 16  2  0
 16 17  1  0
 17 18  2  0
 11 19  1  0
 19 20  1  0
 20 21  2  0
 20 22  1  0
 22 23  1  0
 23 24  1  0
 24 25  1  0
 25 26  1  0
 26 27  1  0
 27 28  1  0
 28 29  1  0
 29 30  1  0
 30 31  1  0
 31 32  1  0
 32 33  1  0
 33 34  1  0
 34 35  1  0
 35 36  2  0
 35  4  1  0
 18 13  1  0
  1 37  1  0
  1 38  1  0
  1 39  1  0
  2 40  1  0
  3 41  1  0
  3 42  1  0
  3 43  1  0
  4 44  1  1
  5 45  1  0
  8 46  1  0
  8 47  1  0
  9 48  1  1
 10 49  1  0
 11 50  1  1
 12 51  1  0
 12 52  1  0
 14 53  1  0
 15 54  1  0
 16 55  1  0
 17 56  1  0
 18 57  1  0
 19 58  1  0
 23 59  1  0
 23 60  1  0
 24 61  1  0
 24 62  1  0
 25 63  1  0
 25 64  1  0
 26 65  1  0
 26 66  1  0
 27 67  1  0
 27 68  1  0
 28 69  1  0
 28 70  1  0
 29 71  1  0
 29 72  1  0
 30 73  1  0
 30 74  1  0
 31 75  1  0
 31 76  1  0
 32 77  1  0
 32 78  1  0
 33 79  1  0
 33 80  1  0
 34 81  1  0
M  END
$$$$
