
     RDKit          3D

 70 74  0  0  0  0  0  0  0  0999 V2000
    4.3371    2.5445   -0.6199 O   0  0  0  0  0  0  0  0  0  0  0  0
    3.6939    1.7516   -1.7243 S   0  0  0  0  0  6  0  0  0  0  0  0
    3.6048    2.6188   -2.9476 O   0  0  0  0  0  0  0  0  0  0  0  0
    4.7194    0.3358   -2.1130 C   0  0  0  0  0  0  0  0  0  0  0  0
    4.7754   -0.6679   -0.9489 C   0  0  0  0  0  0  0  0  0  0  0  0
    5.7066   -1.8488   -1.2171 C   0  0  0  0  0  0  0  0  0  0  0  0
    6.5826   -1.4248   -0.0466 C   0  0  0  0  0  0  0  0  0  0  0  0
    5.6663   -0.2383    0.2166 C   0  0  0  0  0  0  0  0  0  0  0  0
    2.0814    1.2362   -1.2929 N   0  0  0  0  0  0  0  0  0  0  0  0
    1.8825    1.1986    0.1700 C   0  0  1  0  0  0  0  0  0  0  0  0
    1.4944    2.5868    0.7026 C   0  0  0  0  0  0  0  0  0  0  0  0
    1.5162    2.5971    2.2421 C   0  0  0  0  0  0  0  0  0  0  0  0
    1.2170    1.2065    2.8399 C   0  0  0  0  0  0  0  0  0  0  0  0
    0.2519    0.4602    2.0054 N   0  0  0  0  0  0  0  0  0  0  0  0
   -1.1346    0.9864    2.1638 C   0  0  0  0  0  0  0  0  0  0  0  0
   -2.0784   -0.1463    2.6228 C   0  0  0  0  0  0  0  0  0  0  0  0
   -2.9385   -0.5850    1.5673 O   0  0  0  0  0  0  0  0  0  0  0  0
   -4.1402    0.0102    1.1566 C   0  0  0  0  0  0  0  0  0  0  0  0
   -4.7693    1.0030    1.9371 C   0  0  0  0  0  0  0  0  0  0  0  0
   -5.9956    1.5416    1.5503 C   0  0  0  0  0  0  0  0  0  0  0  0
   -6.6079    1.1122    0.3778 C   0  0  0  0  0  0  0  0  0  0  0  0
   -5.9876    0.1557   -0.4244 C   0  0  0  0  0  0  0  0  0  0  0  0
   -4.7509   -0.4135   -0.0555 C   0  0  0  0  0  0  0  0  0  0  0  0
   -4.0528   -1.3134   -1.0803 C   0  0  1  0  0  0  0  0  0  0  0  0
   -3.1321   -0.4673   -1.9845 C   0  0  0  0  0  0  0  0  0  0  0  0
   -2.0085   -1.2804   -2.6291 C   0  0  0  0  0  0  0  0  0  0  0  0
   -1.1202   -2.0318   -1.6112 C   0  0  2  0  0  0  0  0  0  0  0  0
   -1.8851   -2.6842   -0.4230 C   0  0  0  0  0  0  0  0  0  0  0  0
   -3.4256   -2.6233   -0.5148 C   0  0  0  0  0  0  0  0  0  0  0  0
    0.0252   -1.2855   -1.1974 O   0  0  0  0  0  0  0  0  0  0  0  0
   -0.2961   -0.1174   -0.4557 C   0  0  0  0  0  0  0  0  0  0  0  0
    0.7912    0.1588    0.6281 C   0  0  0  0  0  0  0  0  0  0  0  0
    4.2890   -0.1704   -3.0029 H   0  0  0  0  0  0  0  0  0  0  0  0
    5.7392    0.6903   -2.3776 H   0  0  0  0  0  0  0  0  0  0  0  0
    3.7721   -1.0133   -0.6166 H   0  0  0  0  0  0  0  0  0  0  0  0
    6.2463   -1.7936   -2.1886 H   0  0  0  0  0  0  0  0  0  0  0  0
    5.2108   -2.8284   -1.0402 H   0  0  0  0  0  0  0  0  0  0  0  0
    7.6013   -1.1146   -0.3670 H   0  0  0  0  0  0  0  0  0  0  0  0
    6.5731   -2.1641    0.7840 H   0  0  0  0  0  0  0  0  0  0  0  0
    6.1878    0.7316    0.0623 H   0  0  0  0  0  0  0  0  0  0  0  0
    5.1459   -0.3136    1.1963 H   0  0  0  0  0  0  0  0  0  0  0  0
    1.9988    0.2692   -1.6783 H   0  0  0  0  0  0  0  0  0  0  0  0
    2.8387    0.8989    0.6570 H   0  0  0  0  0  0  0  0  0  0  0  0
    2.1795    3.3733    0.3251 H   0  0  0  0  0  0  0  0  0  0  0  0
    0.4750    2.8454    0.3406 H   0  0  0  0  0  0  0  0  0  0  0  0
    0.7698    3.3338    2.6103 H   0  0  0  0  0  0  0  0  0  0  0  0
    2.5163    2.9285    2.5970 H   0  0  0  0  0  0  0  0  0  0  0  0
    2.1604    0.6219    2.9159 H   0  0  0  0  0  0  0  0  0  0  0  0
    0.8448    1.3090    3.8833 H   0  0  0  0  0  0  0  0  0  0  0  0
   -1.1821    1.7736    2.9496 H   0  0  0  0  0  0  0  0  0  0  0  0
   -1.5002    1.5095    1.2553 H   0  0  0  0  0  0  0  0  0  0  0  0
   -2.6612    0.1476    3.5193 H   0  0  0  0  0  0  0  0  0  0  0  0
   -1.4737   -1.0194    2.9486 H   0  0  0  0  0  0  0  0  0  0  0  0
   -4.3285    1.3690    2.8514 H   0  0  0  0  0  0  0  0  0  0  0  0
   -6.4719    2.2967    2.1624 H   0  0  0  0  0  0  0  0  0  0  0  0
   -7.5565    1.5379    0.0766 H   0  0  0  0  0  0  0  0  0  0  0  0
   -6.4673   -0.1231   -1.3546 H   0  0  0  0  0  0  0  0  0  0  0  0
   -4.8520   -1.6893   -1.7613 H   0  0  0  0  0  0  0  0  0  0  0  0
   -3.7463   -0.0274   -2.8015 H   0  0  0  0  0  0  0  0  0  0  0  0
   -2.7277    0.4098   -1.4449 H   0  0  0  0  0  0  0  0  0  0  0  0
   -2.4743   -2.0215   -3.3166 H   0  0  0  0  0  0  0  0  0  0  0  0
   -1.3775   -0.6104   -3.2525 H   0  0  0  0  0  0  0  0  0  0  0  0
   -0.7031   -2.8825   -2.1951 H   0  0  0  0  0  0  0  0  0  0  0  0
   -1.5414   -2.2935    0.5524 H   0  0  0  0  0  0  0  0  0  0  0  0
   -1.5989   -3.7585   -0.3722 H   0  0  0  0  0  0  0  0  0  0  0  0
   -3.8622   -2.8615    0.4793 H   0  0  0  0  0  0  0  0  0  0  0  0
   -3.7325   -3.4628   -1.1793 H   0  0  0  0  0  0  0  0  0  0  0  0
   -1.2660   -0.2189    0.0124 H   0  0  0  0  0  0  0  0  0  0  0  0
   -0.3892    0.7473   -1.1462 H   0  0  0  0  0  0  0  0  0  0  0  0
    1.3413   -0.8027    0.7408 H   0  0  0  0  0  0  0  0  0  0  0  0
  1  2  2  0
  2  3  2  0
  2  4  1  0
  4  5  1  0
  5  6  1  0
  6  7  1  0
  7  8  1  0
  2  9  1  0
  9 10  1  0
 10 11  1  0
 11 12  1  0
 12 13  1  0
 13 14  1  0
 14 15  1  0
 15 16  1  0
 16 17  1  0
 17 18  1  0
 18 19  2  0
 19 20  1  0
 20 21  2  0
 21 22  1  0
 22 23  2  0
 23 24  1  0
 24 25  1  0
 25 26  1  0
 26 27  1  0
 27 28  1  0
 28 29  1  0
 27 30  1  0
 30 31  1  0
 31 32  1  0
  8  5  1  0
 32 10  1  0
 32 14  1  0
 23 18  1  0
 29 24  1  0
  4 33  1  0
  4 34  1  0
  5 35  1  0
  6 36  1  0
  6 37  1  0
  7 38  1  0
  7 39  1  0
  8 40  1  0
  8 41  1  0
  9 42  1  0
 10 43  1  1
 11 44  1  0
 11 45  1  0
 12 46  1  0
 12 47  1  0
 13 48  1  0
 13 49  1  0
 15 50  1  0
 15 51  1  0
 16 52  1  0
 16 53  1  0
 19 54  1  0
 20 55  1  0
 21 56  1  0
 22 57  1  0
 24 58  1  6
 25 59  1  0
 25 60  1  0
 26 61  1  0
 26 62  1  0
 27 63  1  6
 28 64  1  0
 28 65  1  0
 29 66  1  0
 29 67  1  0
 31 68  1  0
 31 69  1  0
 32 70  1  0
M  END
$$$$
