
     RDKit          3D

 57 60  0  0  0  0  0  0  0  0999 V2000
    3.5603   -0.5335   -3.1467 C   0  0  0  0  0  0  0  0  0  0  0  0
    3.8064    0.7999   -2.4528 C   0  0  0  0  0  0  0  0  0  0  0  0
    4.7935    0.5884   -0.9769 S   0  0  0  0  0  6  0  0  0  0  0  0
    4.7169    1.8234   -0.1243 O   0  0  0  0  0  0  0  0  0  0  0  0
    6.2233    0.3770   -1.3884 O   0  0  0  0  0  0  0  0  0  0  0  0
    4.2700   -0.7902   -0.0595 N   0  0  0  0  0  0  0  0  0  0  0  0
    2.9378   -0.9701    0.4531 C   0  0  0  0  0  0  0  0  0  0  0  0
    2.5708   -2.2094    0.9862 C   0  0  0  0  0  0  0  0  0  0  0  0
    1.3196   -2.4053    1.4737 N   0  0  0  0  0  0  0  0  0  0  0  0
    0.3649   -1.4381    1.4557 C   0  0  0  0  0  0  0  0  0  0  0  0
    0.6873   -0.1615    0.9298 C   0  0  0  0  0  0  0  0  0  0  0  0
    1.9891    0.0629    0.4567 C   0  0  0  0  0  0  0  0  0  0  0  0
   -0.2291    0.9914    1.0122 C   0  0  0  0  0  0  0  0  0  0  0  0
   -0.1407    1.8269    2.1353 C   0  0  0  0  0  0  0  0  0  0  0  0
   -0.9950    2.8813    2.2993 N   0  0  0  0  0  0  0  0  0  0  0  0
   -0.8739    3.7339    3.4884 C   0  0  0  0  0  0  0  0  0  0  0  0
   -1.9463    3.1557    1.3531 C   0  0  0  0  0  0  0  0  0  0  0  0
   -2.7322    4.1323    1.4963 O   0  0  0  0  0  0  0  0  0  0  0  0
   -2.0612    2.3543    0.2160 C   0  0  0  0  0  0  0  0  0  0  0  0
   -1.1999    1.2737    0.0267 C   0  0  0  0  0  0  0  0  0  0  0  0
   -1.4056    0.4751   -1.1066 O   0  0  0  0  0  0  0  0  0  0  0  0
   -0.3980    0.0755   -2.0303 C   0  0  0  0  0  0  0  0  0  0  0  0
   -0.1924   -1.4466   -2.0377 C   0  0  0  0  0  0  0  0  0  0  0  0
   -1.5036   -2.2582   -2.0076 C   0  0  0  0  0  0  0  0  0  0  0  0
   -1.8931   -2.7721   -0.6023 C   0  0  0  0  0  0  0  0  0  0  0  0
   -2.6169   -1.7502    0.2502 C   0  0  0  0  0  0  0  0  0  0  0  0
   -3.8804   -1.2932   -0.1700 C   0  0  0  0  0  0  0  0  0  0  0  0
   -4.6265   -0.4229    0.6275 C   0  0  0  0  0  0  0  0  0  0  0  0
   -5.8358    0.0172    0.2015 F   0  0  0  0  0  0  0  0  0  0  0  0
   -4.1396   -0.0234    1.8714 C   0  0  0  0  0  0  0  0  0  0  0  0
   -2.9006   -0.4841    2.3181 C   0  0  0  0  0  0  0  0  0  0  0  0
   -2.4406   -0.0928    3.5326 F   0  0  0  0  0  0  0  0  0  0  0  0
   -2.1208   -1.3245    1.5101 C   0  0  0  0  0  0  0  0  0  0  0  0
   -0.8859   -1.7555    2.0058 O   0  0  0  0  0  0  0  0  0  0  0  0
    4.5262   -1.0158   -3.4070 H   0  0  0  0  0  0  0  0  0  0  0  0
    2.9820   -0.3648   -4.0791 H   0  0  0  0  0  0  0  0  0  0  0  0
    2.9759   -1.2103   -2.4892 H   0  0  0  0  0  0  0  0  0  0  0  0
    4.3404    1.4832   -3.1464 H   0  0  0  0  0  0  0  0  0  0  0  0
    2.8364    1.2670   -2.1901 H   0  0  0  0  0  0  0  0  0  0  0  0
    4.9613   -1.5653    0.0549 H   0  0  0  0  0  0  0  0  0  0  0  0
    3.2823   -3.0241    1.0161 H   0  0  0  0  0  0  0  0  0  0  0  0
    2.2513    1.0504    0.1062 H   0  0  0  0  0  0  0  0  0  0  0  0
    0.6107    1.6133    2.8881 H   0  0  0  0  0  0  0  0  0  0  0  0
   -0.5092    4.7402    3.1909 H   0  0  0  0  0  0  0  0  0  0  0  0
   -0.1649    3.3080    4.2315 H   0  0  0  0  0  0  0  0  0  0  0  0
   -1.8620    3.8344    3.9869 H   0  0  0  0  0  0  0  0  0  0  0  0
   -2.8251    2.5674   -0.5223 H   0  0  0  0  0  0  0  0  0  0  0  0
    0.5594    0.5972   -1.8309 H   0  0  0  0  0  0  0  0  0  0  0  0
   -0.7275    0.3883   -3.0439 H   0  0  0  0  0  0  0  0  0  0  0  0
    0.3516   -1.6960   -2.9750 H   0  0  0  0  0  0  0  0  0  0  0  0
    0.4825   -1.7586   -1.2211 H   0  0  0  0  0  0  0  0  0  0  0  0
   -2.3337   -1.6892   -2.4782 H   0  0  0  0  0  0  0  0  0  0  0  0
   -1.3511   -3.1561   -2.6460 H   0  0  0  0  0  0  0  0  0  0  0  0
   -1.0037   -3.1893   -0.0879 H   0  0  0  0  0  0  0  0  0  0  0  0
   -2.5825   -3.6346   -0.7342 H   0  0  0  0  0  0  0  0  0  0  0  0
   -4.2966   -1.6244   -1.1131 H   0  0  0  0  0  0  0  0  0  0  0  0
   -4.7252    0.6415    2.4933 H   0  0  0  0  0  0  0  0  0  0  0  0
  1  2  1  0
  2  3  1  0
  3  4  2  0
  3  5  2  0
  3  6  1  0
  6  7  1  0
  7  8  2  0
  8  9  1  0
  9 10  2  0
 10 11  1  0
 11 12  2  0
 11 13  1  0
 13 14  2  0
 14 15  1  0
 15 16  1  0
 15 17  1  0
 17 18  2  0
 17 19  1  0
 19 20  2  0
 20 21  1  0
 21 22  1  0
 22 23  1  0
 23 24  1  0
 24 25  1  0
 25 26  1  0
 26 27  2  0
 27 28  1  0
 28 29  1  0
 28 30  2  0
 30 31  1  0
 31 32  1  0
 31 33  2  0
 33 34  1  0
 12  7  1  0
 20 13  1  0
 33 26  1  0
 34 10  1  0
  1 35  1  0
  1 36  1  0
  1 37  1  0
  2 38  1  0
  2 39  1  0
  6 40  1  0
  8 41  1  0
 12 42  1  0
 14 43  1  0
 16 44  1  0
 16 45  1  0
 16 46  1  0
 19 47  1  0
 22 48  1  0
 22 49  1  0
 23 50  1  0
 23 51  1  0
 24 52  1  0
 24 53  1  0
 25 54  1  0
 25 55  1  0
 27 56  1  0
 30 57  1  0
M  END
$$$$
