
     RDKit          3D

 59 62  0  0  0  0  0  0  0  0999 V2000
    7.1472    0.7482    0.7814 N   0  0  0  0  0  0  0  0  0  0  0  0
    6.1929    0.8966    1.4182 C   0  0  0  0  0  0  0  0  0  0  0  0
    4.9808    1.0851    2.2264 C   0  0  0  0  0  0  0  0  0  0  0  0
    3.8518    0.1897    1.9915 N   0  0  0  0  0  0  0  0  0  0  0  0
    3.0095    0.3214    0.8383 C   0  0  0  0  0  0  0  0  0  0  0  0
    3.2657    1.1945   -0.0363 O   0  0  0  0  0  0  0  0  0  0  0  0
    1.8441   -0.6107    0.6434 C   0  0  2  0  0  0  0  0  0  0  0  0
    2.2553   -1.7774   -0.2789 C   0  0  0  0  0  0  0  0  0  0  0  0
    1.0976   -2.6879   -0.6100 C   0  0  0  0  0  0  0  0  0  0  0  0
    0.3305   -3.2717    0.4112 C   0  0  0  0  0  0  0  0  0  0  0  0
   -0.8147   -4.0038    0.0978 C   0  0  0  0  0  0  0  0  0  0  0  0
   -1.2007   -4.1726   -1.2347 C   0  0  0  0  0  0  0  0  0  0  0  0
   -0.3535   -3.7274   -2.2647 C   0  0  0  0  0  0  0  0  0  0  0  0
   -0.7183   -4.0547   -3.9520 Cl  0  0  0  0  0  0  0  0  0  0  0  0
    0.7775   -2.9661   -1.9493 C   0  0  0  0  0  0  0  0  0  0  0  0
   -2.4561   -4.7270   -1.5019 O   0  0  0  0  0  0  0  0  0  0  0  0
   -3.5429   -3.9630   -2.0386 C   0  0  0  0  0  0  0  0  0  0  0  0
   -3.7885   -2.6704   -1.2316 C   0  0  0  0  0  0  0  0  0  0  0  0
   -3.0217   -1.4660   -1.8141 C   0  0  0  0  0  0  0  0  0  0  0  0
   -2.7034   -0.4126   -0.7554 C   0  0  0  0  0  0  0  0  0  0  0  0
   -1.9322    0.6252   -1.3537 O   0  0  0  0  0  0  0  0  0  0  0  0
   -1.7652    1.8689   -0.7427 C   0  0  0  0  0  0  0  0  0  0  0  0
   -2.4504    2.9656   -1.2812 C   0  0  0  0  0  0  0  0  0  0  0  0
   -2.3702    4.2321   -0.6799 C   0  0  0  0  0  0  0  0  0  0  0  0
   -3.1647    5.3919   -1.2254 C   0  0  0  0  0  0  0  0  0  0  0  0
   -3.3448    5.2642   -2.5922 F   0  0  0  0  0  0  0  0  0  0  0  0
   -4.4020    5.4252   -0.6083 F   0  0  0  0  0  0  0  0  0  0  0  0
   -2.5076    6.5867   -0.9845 F   0  0  0  0  0  0  0  0  0  0  0  0
   -1.6248    4.3772    0.5001 C   0  0  0  0  0  0  0  0  0  0  0  0
   -0.9178    3.2948    1.0284 C   0  0  0  0  0  0  0  0  0  0  0  0
   -0.9562    2.0381    0.4024 C   0  0  0  0  0  0  0  0  0  0  0  0
   -0.1232    0.9492    0.9559 C   0  0  0  0  0  0  0  0  0  0  0  0
   -0.0692    0.7989    2.2071 O   0  0  0  0  0  0  0  0  0  0  0  0
    0.6972    0.1329    0.1022 N   0  0  0  0  0  0  0  0  0  0  0  0
    5.1654    1.5366    3.6642 C   0  0  0  0  0  0  0  0  0  0  0  0
    4.6141    2.5052    2.6202 C   0  0  0  0  0  0  0  0  0  0  0  0
    3.6949   -0.6025    2.6550 H   0  0  0  0  0  0  0  0  0  0  0  0
    1.5684   -1.0343    1.6332 H   0  0  0  0  0  0  0  0  0  0  0  0
    3.0440   -2.3795    0.2221 H   0  0  0  0  0  0  0  0  0  0  0  0
    2.6991   -1.3649   -1.2123 H   0  0  0  0  0  0  0  0  0  0  0  0
    0.5880   -3.1236    1.4512 H   0  0  0  0  0  0  0  0  0  0  0  0
   -1.4413   -4.3837    0.8944 H   0  0  0  0  0  0  0  0  0  0  0  0
    1.3899   -2.5705   -2.7499 H   0  0  0  0  0  0  0  0  0  0  0  0
   -4.4558   -4.5929   -1.9869 H   0  0  0  0  0  0  0  0  0  0  0  0
   -3.3691   -3.7369   -3.1116 H   0  0  0  0  0  0  0  0  0  0  0  0
   -3.5129   -2.8458   -0.1688 H   0  0  0  0  0  0  0  0  0  0  0  0
   -4.8745   -2.4322   -1.2465 H   0  0  0  0  0  0  0  0  0  0  0  0
   -3.6305   -1.0028   -2.6213 H   0  0  0  0  0  0  0  0  0  0  0  0
   -2.0676   -1.7800   -2.2752 H   0  0  0  0  0  0  0  0  0  0  0  0
   -2.1253   -0.8700    0.0763 H   0  0  0  0  0  0  0  0  0  0  0  0
   -3.6542    0.0041   -0.3558 H   0  0  0  0  0  0  0  0  0  0  0  0
   -3.0695    2.8157   -2.1571 H   0  0  0  0  0  0  0  0  0  0  0  0
   -1.5803    5.3318    1.0096 H   0  0  0  0  0  0  0  0  0  0  0  0
   -0.3204    3.4457    1.9202 H   0  0  0  0  0  0  0  0  0  0  0  0
    0.6407    0.2745   -0.9321 H   0  0  0  0  0  0  0  0  0  0  0  0
    4.4001    1.1724    4.3831 H   0  0  0  0  0  0  0  0  0  0  0  0
    6.2104    1.7590    3.9711 H   0  0  0  0  0  0  0  0  0  0  0  0
    5.3376    3.2927    2.3197 H   0  0  0  0  0  0  0  0  0  0  0  0
    3.5267    2.7068    2.7329 H   0  0  0  0  0  0  0  0  0  0  0  0
  1  2  3  0
  2  3  1  0
  3  4  1  0
  4  5  1  0
  5  6  2  0
  5  7  1  0
  7  8  1  0
  8  9  1  0
  9 10  2  0
 10 11  1  0
 11 12  2  0
 12 13  1  0
 13 14  1  0
 13 15  2  0
 12 16  1  0
 16 17  1  0
 17 18  1  0
 18 19  1  0
 19 20  1  0
 20 21  1  0
 21 22  1  0
 22 23  2  0
 23 24  1  0
 24 25  1  0
 25 26  1  0
 25 27  1  0
 25 28  1  0
 24 29  2  0
 29 30  1  0
 30 31  2  0
 31 32  1  0
 32 33  2  0
 32 34  1  0
  3 35  1  0
 35 36  1  0
 36  3  1  0
 34  7  1  0
 15  9  1  0
 31 22  1  0
  4 37  1  0
  7 38  1  1
  8 39  1  0
  8 40  1  0
 10 41  1  0
 11 42  1  0
 15 43  1  0
 17 44  1  0
 17 45  1  0
 18 46  1  0
 18 47  1  0
 19 48  1  0
 19 49  1  0
 20 50  1  0
 20 51  1  0
 23 52  1  0
 29 53  1  0
 30 54  1  0
 34 55  1  0
 35 56  1  0
 35 57  1  0
 36 58  1  0
 36 59  1  0
M  END
$$$$
