
     RDKit          3D

 77 81  0  0  0  0  0  0  0  0999 V2000
   -6.4839   -2.2537   -0.1714 C   0  0  0  0  0  0  0  0  0  0  0  0
   -5.4339   -3.3346    0.0623 C   0  0  0  0  0  0  0  0  0  0  0  0
   -4.3776   -2.8393    0.8782 O   0  0  0  0  0  0  0  0  0  0  0  0
   -3.3557   -2.0097    0.3995 C   0  0  0  0  0  0  0  0  0  0  0  0
   -3.2792   -1.7279   -0.8304 O   0  0  0  0  0  0  0  0  0  0  0  0
   -2.3199   -1.5017    1.3687 C   0  0  1  0  0  0  0  0  0  0  0  0
   -1.3494   -2.6518    1.7934 C   0  0  0  0  0  0  0  0  0  0  0  0
   -0.6071   -3.4049    0.6536 C   0  0  0  0  0  0  0  0  0  0  0  0
    0.1269   -2.4104   -0.2289 C   0  0  0  0  0  0  0  0  0  0  0  0
    1.0468   -2.9310   -1.3384 C   0  0  0  0  0  0  0  0  0  0  0  0
    1.8071   -1.7448   -2.0216 C   0  0  2  0  0  0  0  0  0  0  0  0
    2.9301   -1.2980   -1.1868 N   0  0  0  0  0  0  0  0  0  0  0  0
    3.8980   -0.3452   -1.6624 C   0  0  0  0  0  0  0  0  0  0  0  0
    3.9027   -0.0174   -2.8815 O   0  0  0  0  0  0  0  0  0  0  0  0
    4.9232    0.2432   -0.7750 C   0  0  0  0  0  0  0  0  0  0  0  0
    4.9049    0.1274    0.5589 C   0  0  0  0  0  0  0  0  0  0  0  0
    5.9338    0.7571    1.4150 C   0  0  0  0  0  0  0  0  0  0  0  0
    5.4940    1.4581    2.5519 C   0  0  0  0  0  0  0  0  0  0  0  0
    6.4047    2.1414    3.3623 C   0  0  0  0  0  0  0  0  0  0  0  0
    5.8385    3.0317    4.7619 Cl  0  0  0  0  0  0  0  0  0  0  0  0
    7.7644    2.1287    3.0509 C   0  0  0  0  0  0  0  0  0  0  0  0
    8.2219    1.4123    1.9435 C   0  0  0  0  0  0  0  0  0  0  0  0
    7.3248    0.7001    1.1268 C   0  0  0  0  0  0  0  0  0  0  0  0
    7.8475   -0.1255    0.0692 N   0  0  0  0  0  0  0  0  0  0  0  0
    8.8987    0.1203   -0.7310 C   0  0  0  0  0  0  0  0  0  0  0  0
    9.1074   -0.9321   -1.5442 N   0  0  0  0  0  0  0  0  0  0  0  0
    8.1764   -1.8184   -1.2143 N   0  0  0  0  0  0  0  0  0  0  0  0
    7.4216   -1.3397   -0.2357 N   0  0  0  0  0  0  0  0  0  0  0  0
    0.8704   -0.5795   -2.2998 C   0  0  0  0  0  0  0  0  0  0  0  0
    0.3927    0.2061   -1.3020 N   0  0  0  0  0  0  0  0  0  0  0  0
   -0.7417    0.7352   -1.7999 C   0  0  0  0  0  0  0  0  0  0  0  0
   -0.9094    0.3059   -3.1001 C   0  0  0  0  0  0  0  0  0  0  0  0
    0.1005   -0.5252   -3.4034 N   0  0  0  0  0  0  0  0  0  0  0  0
   -1.8050    1.3698   -0.9830 C   0  0  0  0  0  0  0  0  0  0  0  0
   -2.4843    2.4698   -1.5273 C   0  0  0  0  0  0  0  0  0  0  0  0
   -3.5743    3.0348   -0.8670 C   0  0  0  0  0  0  0  0  0  0  0  0
   -4.0338    2.4927    0.3416 C   0  0  0  0  0  0  0  0  0  0  0  0
   -5.1425    3.0734    1.0510 N   0  0  0  0  0  0  0  0  0  0  0  0
   -6.2760    3.6839    0.4208 C   0  0  0  0  0  0  0  0  0  0  0  0
   -6.4870    3.5227   -0.8128 O   0  0  0  0  0  0  0  0  0  0  0  0
   -7.1681    4.4287    1.1993 O   0  0  0  0  0  0  0  0  0  0  0  0
   -8.3178    5.0634    0.6517 C   0  0  0  0  0  0  0  0  0  0  0  0
   -3.3581    1.4025    0.9008 C   0  0  0  0  0  0  0  0  0  0  0  0
   -2.2544    0.8241    0.2536 C   0  0  0  0  0  0  0  0  0  0  0  0
   -1.6027   -0.3096    0.8596 N   0  0  0  0  0  0  0  0  0  0  0  0
   -6.9185   -1.9295    0.7995 H   0  0  0  0  0  0  0  0  0  0  0  0
   -6.0299   -1.3712   -0.6709 H   0  0  0  0  0  0  0  0  0  0  0  0
   -7.2960   -2.6563   -0.8155 H   0  0  0  0  0  0  0  0  0  0  0  0
   -5.9122   -4.1898    0.5872 H   0  0  0  0  0  0  0  0  0  0  0  0
   -5.0379   -3.7059   -0.9068 H   0  0  0  0  0  0  0  0  0  0  0  0
   -2.8612   -1.1941    2.2899 H   0  0  0  0  0  0  0  0  0  0  0  0
   -0.5971   -2.2394    2.5000 H   0  0  0  0  0  0  0  0  0  0  0  0
   -1.9307   -3.4038    2.3710 H   0  0  0  0  0  0  0  0  0  0  0  0
    0.1237   -4.1128    1.1018 H   0  0  0  0  0  0  0  0  0  0  0  0
   -1.3345   -3.9887    0.0463 H   0  0  0  0  0  0  0  0  0  0  0  0
    0.7252   -1.7402    0.4252 H   0  0  0  0  0  0  0  0  0  0  0  0
   -0.6841   -1.8755   -0.7522 H   0  0  0  0  0  0  0  0  0  0  0  0
    0.4301   -3.4573   -2.1000 H   0  0  0  0  0  0  0  0  0  0  0  0
    1.7710   -3.6633   -0.9205 H   0  0  0  0  0  0  0  0  0  0  0  0
    2.2148   -2.1186   -2.9882 H   0  0  0  0  0  0  0  0  0  0  0  0
    3.0811   -1.7576   -0.2617 H   0  0  0  0  0  0  0  0  0  0  0  0
    5.7115    0.8221   -1.2419 H   0  0  0  0  0  0  0  0  0  0  0  0
    4.0627   -0.3311    1.0583 H   0  0  0  0  0  0  0  0  0  0  0  0
    4.4366    1.4984    2.7954 H   0  0  0  0  0  0  0  0  0  0  0  0
    8.4721    2.6585    3.6790 H   0  0  0  0  0  0  0  0  0  0  0  0
    9.2853    1.3817    1.7449 H   0  0  0  0  0  0  0  0  0  0  0  0
    9.4902    1.0250   -0.7298 H   0  0  0  0  0  0  0  0  0  0  0  0
   -1.7715    0.4745   -3.7321 H   0  0  0  0  0  0  0  0  0  0  0  0
    0.1787   -1.1182   -4.2584 H   0  0  0  0  0  0  0  0  0  0  0  0
   -2.1693    2.8924   -2.4743 H   0  0  0  0  0  0  0  0  0  0  0  0
   -4.0458    3.9083   -1.2957 H   0  0  0  0  0  0  0  0  0  0  0  0
   -5.1645    2.9868    2.0918 H   0  0  0  0  0  0  0  0  0  0  0  0
   -8.8510    5.6141    1.4570 H   0  0  0  0  0  0  0  0  0  0  0  0
   -9.0029    4.3028    0.2222 H   0  0  0  0  0  0  0  0  0  0  0  0
   -8.0164    5.7824   -0.1384 H   0  0  0  0  0  0  0  0  0  0  0  0
   -3.6984    1.0005    1.8460 H   0  0  0  0  0  0  0  0  0  0  0  0
   -0.6360   -0.1269    1.2148 H   0  0  0  0  0  0  0  0  0  0  0  0
  1  2  1  0
  2  3  1  0
  3  4  1  0
  4  5  2  0
  4  6  1  0
  6  7  1  0
  7  8  1  0
  8  9  1  0
  9 10  1  0
 10 11  1  0
 11 12  1  0
 12 13  1  0
 13 14  2  0
 13 15  1  0
 15 16  2  0
 16 17  1  0
 17 18  2  0
 18 19  1  0
 19 20  1  0
 19 21  2  0
 21 22  1  0
 22 23  2  0
 23 24  1  0
 24 25  1  0
 25 26  2  0
 26 27  1  0
 27 28  2  0
 11 29  1  0
 29 30  2  0
 30 31  1  0
 31 32  2  0
 32 33  1  0
 31 34  1  0
 34 35  2  0
 35 36  1  0
 36 37  2  0
 37 38  1  0
 38 39  1  0
 39 40  2  0
 39 41  1  0
 41 42  1  0
 37 43  1  0
 43 44  2  0
 44 45  1  0
 45  6  1  0
 23 17  1  0
 28 24  1  0
 33 29  1  0
 44 34  1  0
  1 46  1  0
  1 47  1  0
  1 48  1  0
  2 49  1  0
  2 50  1  0
  6 51  1  1
  7 52  1  0
  7 53  1  0
  8 54  1  0
  8 55  1  0
  9 56  1  0
  9 57  1  0
 10 58  1  0
 10 59  1  0
 11 60  1  6
 12 61  1  0
 15 62  1  0
 16 63  1  0
 18 64  1  0
 21 65  1  0
 22 66  1  0
 25 67  1  0
 32 68  1  0
 33 69  1  0
 35 70  1  0
 36 71  1  0
 38 72  1  0
 42 73  1  0
 42 74  1  0
 42 75  1  0
 43 76  1  0
 45 77  1  0
M  END
$$$$
