
     RDKit          3D

 76 79  0  0  0  0  0  0  0  0999 V2000
    6.4502    1.6232    0.8267 C   0  0  0  0  0  0  0  0  0  0  0  0
    6.2435    0.9865   -0.4789 N   0  0  0  0  0  0  0  0  0  0  0  0
    7.4861    1.0127   -1.2605 C   0  0  0  0  0  0  0  0  0  0  0  0
    5.7381   -0.6683   -0.2431 S   0  0  0  0  0  6  0  0  0  0  0  0
    6.7534   -1.4177    0.5763 O   0  0  0  0  0  0  0  0  0  0  0  0
    5.6065   -1.3532   -1.5752 O   0  0  0  0  0  0  0  0  0  0  0  0
    4.1975   -0.6938    0.5557 N   0  0  0  0  0  0  0  0  0  0  0  0
    4.0894   -0.8616    2.0008 C   0  0  0  0  0  0  0  0  0  0  0  0
    3.0212   -0.4355   -0.2112 C   0  0  0  0  0  0  0  0  0  0  0  0
    2.3516   -1.4914   -0.8368 C   0  0  0  0  0  0  0  0  0  0  0  0
    1.1966   -1.2433   -1.5900 C   0  0  0  0  0  0  0  0  0  0  0  0
    0.7263    0.0721   -1.7285 C   0  0  0  0  0  0  0  0  0  0  0  0
    1.3651    1.1336   -1.0690 C   0  0  0  0  0  0  0  0  0  0  0  0
    2.5259    0.8713   -0.3207 C   0  0  0  0  0  0  0  0  0  0  0  0
    0.8451    2.5162   -1.1803 C   0  0  0  0  0  0  0  0  0  0  0  0
    1.6314    3.4880   -1.0191 O   0  0  0  0  0  0  0  0  0  0  0  0
   -0.5244    2.7866   -1.5117 N   0  0  0  0  0  0  0  0  0  0  0  0
   -1.6484    2.1932   -0.7758 C   0  0  1  0  0  0  0  0  0  0  0  0
   -1.8425    2.9397    0.5305 C   0  0  0  0  0  0  0  0  0  0  0  0
   -1.7089    2.2631    1.7581 C   0  0  0  0  0  0  0  0  0  0  0  0
   -1.9149    2.9396    2.9652 C   0  0  0  0  0  0  0  0  0  0  0  0
   -2.2488    4.2968    2.9596 C   0  0  0  0  0  0  0  0  0  0  0  0
   -2.3702    4.9827    1.7479 C   0  0  0  0  0  0  0  0  0  0  0  0
   -2.1667    4.3108    0.5377 C   0  0  0  0  0  0  0  0  0  0  0  0
   -2.9178    2.2253   -1.6615 C   0  0  0  0  0  0  0  0  0  0  0  0
   -4.1855    1.6683   -0.9839 C   0  0  0  0  0  0  0  0  0  0  0  0
   -4.2847    0.1662   -1.0748 C   0  0  0  0  0  0  0  0  0  0  0  0
   -4.9360   -0.4313   -2.1648 C   0  0  0  0  0  0  0  0  0  0  0  0
   -5.1031   -1.8166   -2.2115 C   0  0  0  0  0  0  0  0  0  0  0  0
   -4.6019   -2.6210   -1.1850 C   0  0  0  0  0  0  0  0  0  0  0  0
   -3.8961   -2.0465   -0.1157 C   0  0  0  0  0  0  0  0  0  0  0  0
   -3.7566   -0.6470   -0.0605 C   0  0  0  0  0  0  0  0  0  0  0  0
   -3.2988   -2.9136    0.9744 C   0  0  0  0  0  0  0  0  0  0  0  0
   -1.9795   -3.6488    0.5646 C   0  0  1  0  0  0  0  0  0  0  0  0
   -1.2997   -4.2017    1.8275 C   0  0  0  0  0  0  0  0  0  0  0  0
   -2.2656   -4.7806   -0.3299 N   0  0  0  0  0  0  0  0  0  0  0  0
   -1.0036   -2.7116   -0.1154 C   0  0  0  0  0  0  0  0  0  0  0  0
   -0.9042   -1.5170    0.2717 O   0  0  0  0  0  0  0  0  0  0  0  0
   -0.1586   -3.2019   -1.1236 O   0  0  0  0  0  0  0  0  0  0  0  0
    0.4057   -2.3901   -2.1567 C   0  0  0  0  0  0  0  0  0  0  0  0
    6.7586    2.6817    0.6903 H   0  0  0  0  0  0  0  0  0  0  0  0
    5.5016    1.6312    1.4046 H   0  0  0  0  0  0  0  0  0  0  0  0
    7.2300    1.0924    1.4168 H   0  0  0  0  0  0  0  0  0  0  0  0
    7.3114    0.5743   -2.2676 H   0  0  0  0  0  0  0  0  0  0  0  0
    8.2973    0.4434   -0.7538 H   0  0  0  0  0  0  0  0  0  0  0  0
    7.8221    2.0609   -1.4144 H   0  0  0  0  0  0  0  0  0  0  0  0
    3.5059   -1.7783    2.2260 H   0  0  0  0  0  0  0  0  0  0  0  0
    5.0919   -0.9510    2.4680 H   0  0  0  0  0  0  0  0  0  0  0  0
    3.5740    0.0158    2.4426 H   0  0  0  0  0  0  0  0  0  0  0  0
    2.7188   -2.5048   -0.7222 H   0  0  0  0  0  0  0  0  0  0  0  0
   -0.1530    0.2596   -2.3325 H   0  0  0  0  0  0  0  0  0  0  0  0
    3.0428    1.6762    0.1889 H   0  0  0  0  0  0  0  0  0  0  0  0
   -0.7065    3.6867   -2.0107 H   0  0  0  0  0  0  0  0  0  0  0  0
   -1.4291    1.1294   -0.5572 H   0  0  0  0  0  0  0  0  0  0  0  0
   -1.4428    1.2119    1.7866 H   0  0  0  0  0  0  0  0  0  0  0  0
   -1.8153    2.4095    3.9033 H   0  0  0  0  0  0  0  0  0  0  0  0
   -2.4098    4.8171    3.8951 H   0  0  0  0  0  0  0  0  0  0  0  0
   -2.6214    6.0357    1.7468 H   0  0  0  0  0  0  0  0  0  0  0  0
   -2.2627    4.8602   -0.3898 H   0  0  0  0  0  0  0  0  0  0  0  0
   -2.7188    1.6609   -2.5994 H   0  0  0  0  0  0  0  0  0  0  0  0
   -3.1234    3.2760   -1.9641 H   0  0  0  0  0  0  0  0  0  0  0  0
   -5.0720    2.1146   -1.4872 H   0  0  0  0  0  0  0  0  0  0  0  0
   -4.2546    1.9925    0.0758 H   0  0  0  0  0  0  0  0  0  0  0  0
   -5.3385    0.1778   -2.9654 H   0  0  0  0  0  0  0  0  0  0  0  0
   -5.6320   -2.2665   -3.0404 H   0  0  0  0  0  0  0  0  0  0  0  0
   -4.7630   -3.6910   -1.2272 H   0  0  0  0  0  0  0  0  0  0  0  0
   -3.2485   -0.1890    0.7779 H   0  0  0  0  0  0  0  0  0  0  0  0
   -4.0610   -3.6527    1.3048 H   0  0  0  0  0  0  0  0  0  0  0  0
   -3.1007   -2.2813    1.8681 H   0  0  0  0  0  0  0  0  0  0  0  0
   -1.9864   -4.8839    2.3715 H   0  0  0  0  0  0  0  0  0  0  0  0
   -0.3865   -4.7736    1.5571 H   0  0  0  0  0  0  0  0  0  0  0  0
   -1.0037   -3.3771    2.5112 H   0  0  0  0  0  0  0  0  0  0  0  0
   -3.0477   -5.3589    0.0568 H   0  0  0  0  0  0  0  0  0  0  0  0
   -2.5597   -4.4360   -1.2717 H   0  0  0  0  0  0  0  0  0  0  0  0
   -0.4113   -2.0275   -2.8179 H   0  0  0  0  0  0  0  0  0  0  0  0
    1.0770   -3.0197   -2.7784 H   0  0  0  0  0  0  0  0  0  0  0  0
  1  2  1  0
  2  3  1  0
  2  4  1  0
  4  5  2  0
  4  6  2  0
  4  7  1  0
  7  8  1  0
  7  9  1  0
  9 10  2  0
 10 11  1  0
 11 12  2  0
 12 13  1  0
 13 14  2  0
 13 15  1  0
 15 16  2  0
 15 17  1  0
 17 18  1  0
 18 19  1  0
 19 20  2  0
 20 21  1  0
 21 22  2  0
 22 23  1  0
 23 24  2  0
 18 25  1  0
 25 26  1  0
 26 27  1  0
 27 28  2  0
 28 29  1  0
 29 30  2  0
 30 31  1  0
 31 32  2  0
 31 33  1  0
 33 34  1  0
 34 35  1  0
 34 36  1  6
 34 37  1  0
 37 38  2  0
 37 39  1  0
 39 40  1  0
 14  9  1  0
 24 19  1  0
 32 27  1  0
 40 11  1  0
  1 41  1  0
  1 42  1  0
  1 43  1  0
  3 44  1  0
  3 45  1  0
  3 46  1  0
  8 47  1  0
  8 48  1  0
  8 49  1  0
 10 50  1  0
 12 51  1  0
 14 52  1  0
 17 53  1  0
 18 54  1  1
 20 55  1  0
 21 56  1  0
 22 57  1  0
 23 58  1  0
 24 59  1  0
 25 60  1  0
 25 61  1  0
 26 62  1  0
 26 63  1  0
 28 64  1  0
 29 65  1  0
 30 66  1  0
 32 67  1  0
 33 68  1  0
 33 69  1  0
 35 70  1  0
 35 71  1  0
 35 72  1  0
 36 73  1  0
 36 74  1  0
 40 75  1  0
 40 76  1  0
M  END
$$$$
