
     RDKit          3D

 65 68  0  0  0  0  0  0  0  0999 V2000
    0.2042    3.7955    0.1353 C   0  0  0  0  0  0  0  0  0  0  0  0
   -1.1291    3.0812    0.3739 C   0  0  0  0  0  0  0  0  0  0  0  0
   -0.9924    1.5466    0.4795 C   0  0  2  0  0  0  0  0  0  0  0  0
   -2.2103    0.8936    0.8877 O   0  0  0  0  0  0  0  0  0  0  0  0
   -3.4497    0.8806    0.2217 C   0  0  0  0  0  0  0  0  0  0  0  0
   -4.1192    2.0932   -0.0362 C   0  0  0  0  0  0  0  0  0  0  0  0
   -5.3372    2.1155   -0.7119 C   0  0  0  0  0  0  0  0  0  0  0  0
   -5.9290    0.9269   -1.1174 C   0  0  0  0  0  0  0  0  0  0  0  0
   -5.3278   -0.2905   -0.8077 C   0  0  0  0  0  0  0  0  0  0  0  0
   -4.1074   -0.3487   -0.0988 C   0  0  0  0  0  0  0  0  0  0  0  0
   -3.5692   -1.7529    0.2096 C   0  0  1  0  0  0  0  0  0  0  0  0
   -2.6972   -2.3064   -0.9440 C   0  0  0  0  0  0  0  0  0  0  0  0
   -1.2070   -2.0839   -0.7028 C   0  0  0  0  0  0  0  0  0  0  0  0
   -0.7009   -2.6385    0.6572 C   0  0  2  0  0  0  0  0  0  0  0  0
   -1.8506   -3.0145    1.6149 C   0  0  0  0  0  0  0  0  0  0  0  0
   -2.9510   -1.9489    1.6233 C   0  0  0  0  0  0  0  0  0  0  0  0
    0.1184   -1.6762    1.2995 O   0  0  0  0  0  0  0  0  0  0  0  0
    1.4230   -1.6175    0.7438 C   0  0  0  0  0  0  0  0  0  0  0  0
    1.6945   -0.2256    0.1309 C   0  0  0  0  0  0  0  0  0  0  0  0
    3.1659   -0.1377   -0.3870 C   0  0  1  0  0  0  0  0  0  0  0  0
    3.3211   -0.7753   -1.7127 N   0  0  0  0  0  0  0  0  0  0  0  0
    4.7127   -1.8206   -1.7605 S   0  0  0  0  0  6  0  0  0  0  0  0
    6.2093   -0.8912   -1.5052 C   0  0  0  0  0  0  0  0  0  0  0  0
    4.5933   -2.8796   -0.7002 O   0  0  0  0  0  0  0  0  0  0  0  0
    4.7793   -2.4828   -3.1076 O   0  0  0  0  0  0  0  0  0  0  0  0
    3.5750    1.3393   -0.4973 C   0  0  0  0  0  0  0  0  0  0  0  0
    3.5645    2.0383    0.8749 C   0  0  0  0  0  0  0  0  0  0  0  0
    2.5382    1.4383    1.8518 C   0  0  0  0  0  0  0  0  0  0  0  0
    1.4150    0.8380    1.1206 N   0  0  0  0  0  0  0  0  0  0  0  0
    0.0669    1.1881    1.4995 C   0  0  0  0  0  0  0  0  0  0  0  0
   -0.2206    1.2861    2.7239 O   0  0  0  0  0  0  0  0  0  0  0  0
    0.8271    3.7754    1.0527 H   0  0  0  0  0  0  0  0  0  0  0  0
    0.7566    3.3186   -0.7023 H   0  0  0  0  0  0  0  0  0  0  0  0
    0.0146    4.8584   -0.1261 H   0  0  0  0  0  0  0  0  0  0  0  0
   -1.6019    3.4888    1.2939 H   0  0  0  0  0  0  0  0  0  0  0  0
   -1.7606    3.3218   -0.5056 H   0  0  0  0  0  0  0  0  0  0  0  0
   -0.7125    1.1813   -0.5252 H   0  0  0  0  0  0  0  0  0  0  0  0
   -3.7459    3.0298    0.3418 H   0  0  0  0  0  0  0  0  0  0  0  0
   -5.8313    3.0588   -0.9067 H   0  0  0  0  0  0  0  0  0  0  0  0
   -6.8720    0.9458   -1.6484 H   0  0  0  0  0  0  0  0  0  0  0  0
   -5.8292   -1.1994   -1.1177 H   0  0  0  0  0  0  0  0  0  0  0  0
   -4.4546   -2.4308    0.2230 H   0  0  0  0  0  0  0  0  0  0  0  0
   -2.8705   -3.4009   -1.0475 H   0  0  0  0  0  0  0  0  0  0  0  0
   -2.9885   -1.8468   -1.9144 H   0  0  0  0  0  0  0  0  0  0  0  0
   -1.0329   -0.9982   -0.7652 H   0  0  0  0  0  0  0  0  0  0  0  0
   -0.6298   -2.5518   -1.5302 H   0  0  0  0  0  0  0  0  0  0  0  0
   -0.1420   -3.5886    0.4835 H   0  0  0  0  0  0  0  0  0  0  0  0
   -2.2901   -3.9897    1.3081 H   0  0  0  0  0  0  0  0  0  0  0  0
   -1.4526   -3.1461    2.6449 H   0  0  0  0  0  0  0  0  0  0  0  0
   -2.5321   -1.0300    2.0619 H   0  0  0  0  0  0  0  0  0  0  0  0
   -3.7488   -2.2705    2.3288 H   0  0  0  0  0  0  0  0  0  0  0  0
    2.1446   -1.7943    1.5697 H   0  0  0  0  0  0  0  0  0  0  0  0
    1.6284   -2.3996   -0.0236 H   0  0  0  0  0  0  0  0  0  0  0  0
    1.0386   -0.0794   -0.7476 H   0  0  0  0  0  0  0  0  0  0  0  0
    3.8349   -0.6094    0.3698 H   0  0  0  0  0  0  0  0  0  0  0  0
    2.4987   -1.3770   -1.9456 H   0  0  0  0  0  0  0  0  0  0  0  0
    6.2576   -0.0575   -2.2350 H   0  0  0  0  0  0  0  0  0  0  0  0
    7.0859   -1.5561   -1.6487 H   0  0  0  0  0  0  0  0  0  0  0  0
    6.2287   -0.4833   -0.4739 H   0  0  0  0  0  0  0  0  0  0  0  0
    2.8701    1.8613   -1.1823 H   0  0  0  0  0  0  0  0  0  0  0  0
    4.5901    1.4276   -0.9398 H   0  0  0  0  0  0  0  0  0  0  0  0
    4.5755    1.9677    1.3327 H   0  0  0  0  0  0  0  0  0  0  0  0
    3.3448    3.1173    0.7224 H   0  0  0  0  0  0  0  0  0  0  0  0
    2.1904    2.2355    2.5451 H   0  0  0  0  0  0  0  0  0  0  0  0
    3.0256    0.6513    2.4677 H   0  0  0  0  0  0  0  0  0  0  0  0
  1  2  1  0
  2  3  1  0
  3  4  1  0
  4  5  1  0
  5  6  2  0
  6  7  1  0
  7  8  2  0
  8  9  1  0
  9 10  2  0
 10 11  1  0
 11 12  1  0
 12 13  1  0
 13 14  1  0
 14 15  1  0
 15 16  1  0
 14 17  1  0
 17 18  1  0
 18 19  1  0
 19 20  1  0
 20 21  1  0
 21 22  1  0
 22 23  1  0
 22 24  2  0
 22 25  2  0
 20 26  1  0
 26 27  1  0
 27 28  1  0
 28 29  1  0
 29 30  1  0
 30 31  2  0
 30  3  1  0
 10  5  1  0
 16 11  1  0
 29 19  1  0
  1 32  1  0
  1 33  1  0
  1 34  1  0
  2 35  1  0
  2 36  1  0
  3 37  1  6
  6 38  1  0
  7 39  1  0
  8 40  1  0
  9 41  1  0
 11 42  1  1
 12 43  1  0
 12 44  1  0
 13 45  1  0
 13 46  1  0
 14 47  1  6
 15 48  1  0
 15 49  1  0
 16 50  1  0
 16 51  1  0
 18 52  1  0
 18 53  1  0
 19 54  1  0
 20 55  1  1
 21 56  1  0
 23 57  1  0
 23 58  1  0
 23 59  1  0
 26 60  1  0
 26 61  1  0
 27 62  1  0
 27 63  1  0
 28 64  1  0
 28 65  1  0
M  END
$$$$
