
     RDKit          3D

 78 81  0  0  0  0  0  0  0  0999 V2000
    8.3843    0.0960    2.6695 F   0  0  0  0  0  0  0  0  0  0  0  0
    7.3506    0.1704    1.7960 C   0  0  0  0  0  0  0  0  0  0  0  0
    6.5965    1.3438    1.7037 C   0  0  0  0  0  0  0  0  0  0  0  0
    5.5292    1.4217    0.8032 C   0  0  0  0  0  0  0  0  0  0  0  0
    5.2046    0.3213   -0.0088 C   0  0  0  0  0  0  0  0  0  0  0  0
    5.9707   -0.8526    0.0874 C   0  0  0  0  0  0  0  0  0  0  0  0
    7.0383   -0.9263    0.9873 C   0  0  0  0  0  0  0  0  0  0  0  0
    4.0412    0.3982   -0.9695 C   0  0  0  0  0  0  0  0  0  0  0  0
    2.6979   -0.0699   -0.3690 C   0  0  1  0  0  0  0  0  0  0  0  0
    2.7617   -1.4838    0.0264 N   0  0  0  0  0  0  0  0  0  0  0  0
    1.8401   -2.5094   -0.3928 C   0  0  0  0  0  0  0  0  0  0  0  0
    1.7835   -3.5711    0.2852 O   0  0  0  0  0  0  0  0  0  0  0  0
    0.9744   -2.3757   -1.6343 C   0  0  2  0  0  0  0  0  0  0  0  0
   -0.0016   -3.4814   -1.7342 N   0  0  0  0  0  0  0  0  0  0  0  0
    0.4140   -4.8563   -2.0342 C   0  0  0  0  0  0  0  0  0  0  0  0
   -1.4092   -3.2267   -1.5813 C   0  0  0  0  0  0  0  0  0  0  0  0
   -2.2240   -3.7506   -2.3906 O   0  0  0  0  0  0  0  0  0  0  0  0
   -1.9382   -2.4296   -0.4149 C   0  0  1  0  0  0  0  0  0  0  0  0
   -2.7387   -1.2987   -0.9216 N   0  0  0  0  0  0  0  0  0  0  0  0
   -3.1827   -0.4101    0.1644 C   0  0  0  0  0  0  0  0  0  0  0  0
   -3.5954    0.9675   -0.3736 C   0  0  2  0  0  0  0  0  0  0  0  0
   -3.9359    1.7966    0.7387 O   0  0  0  0  0  0  0  0  0  0  0  0
   -3.8693    3.1925    0.6948 C   0  0  0  0  0  0  0  0  0  0  0  0
   -2.6366    3.8734    0.8197 C   0  0  0  0  0  0  0  0  0  0  0  0
   -1.3331    3.1293    0.9817 C   0  0  0  0  0  0  0  0  0  0  0  0
   -0.4687    3.2439   -0.2877 C   0  0  0  0  0  0  0  0  0  0  0  0
    0.4825    2.0535   -0.4650 C   0  0  0  0  0  0  0  0  0  0  0  0
    1.4047    1.9116    0.6633 N   0  0  0  0  0  0  0  0  0  0  0  0
    2.2857    0.7871    0.8107 C   0  0  0  0  0  0  0  0  0  0  0  0
    2.7768    0.5478    1.9476 O   0  0  0  0  0  0  0  0  0  0  0  0
   -2.6245    5.2789    0.7945 C   0  0  0  0  0  0  0  0  0  0  0  0
   -3.8153    5.9957    0.6544 C   0  0  0  0  0  0  0  0  0  0  0  0
   -5.0309    5.3185    0.5436 C   0  0  0  0  0  0  0  0  0  0  0  0
   -5.0580    3.9225    0.5691 C   0  0  0  0  0  0  0  0  0  0  0  0
   -4.7923    0.8772   -1.3256 C   0  0  0  0  0  0  0  0  0  0  0  0
   -2.7857   -3.3669    0.4767 C   0  0  0  0  0  0  0  0  0  0  0  0
   -1.9811   -4.3534    1.3129 C   0  0  0  0  0  0  0  0  0  0  0  0
   -2.6560   -3.1677    1.9815 C   0  0  0  0  0  0  0  0  0  0  0  0
    1.8319   -2.3081   -2.9074 C   0  0  0  0  0  0  0  0  0  0  0  0
    6.8378    2.1938    2.3292 H   0  0  0  0  0  0  0  0  0  0  0  0
    4.9522    2.3366    0.7423 H   0  0  0  0  0  0  0  0  0  0  0  0
    5.7375   -1.7107   -0.5308 H   0  0  0  0  0  0  0  0  0  0  0  0
    7.6222   -1.8349    1.0582 H   0  0  0  0  0  0  0  0  0  0  0  0
    4.2688   -0.2167   -1.8674 H   0  0  0  0  0  0  0  0  0  0  0  0
    3.9288    1.4437   -1.3337 H   0  0  0  0  0  0  0  0  0  0  0  0
    1.9571    0.0554   -1.1732 H   0  0  0  0  0  0  0  0  0  0  0  0
    3.4285   -1.7425    0.7879 H   0  0  0  0  0  0  0  0  0  0  0  0
    0.4125   -1.4209   -1.5713 H   0  0  0  0  0  0  0  0  0  0  0  0
   -0.0195   -5.5499   -1.2828 H   0  0  0  0  0  0  0  0  0  0  0  0
    0.0594   -5.1454   -3.0457 H   0  0  0  0  0  0  0  0  0  0  0  0
    1.5169   -4.9660   -1.9990 H   0  0  0  0  0  0  0  0  0  0  0  0
   -1.0709   -2.0328    0.1587 H   0  0  0  0  0  0  0  0  0  0  0  0
   -3.5902   -1.6803   -1.3972 H   0  0  0  0  0  0  0  0  0  0  0  0
   -2.3556   -0.2491    0.8915 H   0  0  0  0  0  0  0  0  0  0  0  0
   -4.0371   -0.8670    0.7124 H   0  0  0  0  0  0  0  0  0  0  0  0
   -2.7332    1.4038   -0.9233 H   0  0  0  0  0  0  0  0  0  0  0  0
   -0.7813    3.5596    1.8453 H   0  0  0  0  0  0  0  0  0  0  0  0
   -1.5171    2.0646    1.2342 H   0  0  0  0  0  0  0  0  0  0  0  0
    0.1186    4.1875   -0.2544 H   0  0  0  0  0  0  0  0  0  0  0  0
   -1.1193    3.2886   -1.1887 H   0  0  0  0  0  0  0  0  0  0  0  0
    1.0660    2.2079   -1.3977 H   0  0  0  0  0  0  0  0  0  0  0  0
   -0.1171    1.1230   -0.5736 H   0  0  0  0  0  0  0  0  0  0  0  0
    1.3689    2.5978    1.4498 H   0  0  0  0  0  0  0  0  0  0  0  0
   -1.6897    5.8190    0.8865 H   0  0  0  0  0  0  0  0  0  0  0  0
   -3.7957    7.0779    0.6369 H   0  0  0  0  0  0  0  0  0  0  0  0
   -5.9535    5.8752    0.4412 H   0  0  0  0  0  0  0  0  0  0  0  0
   -6.0055    3.4046    0.4898 H   0  0  0  0  0  0  0  0  0  0  0  0
   -4.5192    0.3196   -2.2463 H   0  0  0  0  0  0  0  0  0  0  0  0
   -5.1095    1.8957   -1.6322 H   0  0  0  0  0  0  0  0  0  0  0  0
   -5.6478    0.3717   -0.8288 H   0  0  0  0  0  0  0  0  0  0  0  0
   -3.7641   -3.7527    0.1161 H   0  0  0  0  0  0  0  0  0  0  0  0
   -0.8744   -4.2642    1.2495 H   0  0  0  0  0  0  0  0  0  0  0  0
   -2.4917   -5.3241    1.4918 H   0  0  0  0  0  0  0  0  0  0  0  0
   -1.9472   -2.3814    2.3192 H   0  0  0  0  0  0  0  0  0  0  0  0
   -3.5637   -3.4363    2.5608 H   0  0  0  0  0  0  0  0  0  0  0  0
    2.4027   -1.3604   -2.9539 H   0  0  0  0  0  0  0  0  0  0  0  0
    2.5565   -3.1472   -2.9517 H   0  0  0  0  0  0  0  0  0  0  0  0
    1.1774   -2.3524   -3.8038 H   0  0  0  0  0  0  0  0  0  0  0  0
  1  2  1  0
  2  3  2  0
  3  4  1  0
  4  5  2  0
  5  6  1  0
  6  7  2  0
  5  8  1  0
  8  9  1  0
  9 10  1  0
 10 11  1  0
 11 12  2  0
 11 13  1  0
 13 14  1  0
 14 15  1  0
 14 16  1  0
 16 17  2  0
 16 18  1  0
 18 19  1  0
 19 20  1  0
 20 21  1  0
 21 22  1  0
 22 23  1  0
 23 24  2  0
 24 25  1  0
 25 26  1  0
 26 27  1  0
 27 28  1  0
 28 29  1  0
 29 30  2  0
 24 31  1  0
 31 32  2  0
 32 33  1  0
 33 34  2  0
 21 35  1  0
 18 36  1  0
 36 37  1  0
 37 38  1  0
 13 39  1  0
  7  2  1  0
 29  9  1  0
 38 36  1  0
 34 23  1  0
  3 40  1  0
  4 41  1  0
  6 42  1  0
  7 43  1  0
  8 44  1  0
  8 45  1  0
  9 46  1  6
 10 47  1  0
 13 48  1  1
 15 49  1  0
 15 50  1  0
 15 51  1  0
 18 52  1  1
 19 53  1  0
 20 54  1  0
 20 55  1  0
 21 56  1  6
 25 57  1  0
 25 58  1  0
 26 59  1  0
 26 60  1  0
 27 61  1  0
 27 62  1  0
 28 63  1  0
 31 64  1  0
 32 65  1  0
 33 66  1  0
 34 67  1  0
 35 68  1  0
 35 69  1  0
 35 70  1  0
 36 71  1  0
 37 72  1  0
 37 73  1  0
 38 74  1  0
 38 75  1  0
 39 76  1  0
 39 77  1  0
 39 78  1  0
M  END
$$$$
