
     RDKit          3D

137140  0  0  0  0  0  0  0  0999 V2000
   -9.0458   -2.3338    2.4704 C   0  0  0  0  0  0  0  0  0  0  0  0
   -8.5651   -1.0336    1.8189 C   0  0  0  0  0  0  0  0  0  0  0  0
   -7.3840   -1.1006    0.8049 C   0  0  1  0  0  0  0  0  0  0  0  0
   -6.0831   -1.6306    1.3397 C   0  0  0  0  0  0  0  0  0  0  0  0
   -5.8999   -2.7611    2.0517 N   0  0  0  0  0  0  0  0  0  0  0  0
   -4.6002   -2.8240    2.3227 N   0  0  0  0  0  0  0  0  0  0  0  0
   -4.0466   -1.7373    1.7537 C   0  0  0  0  0  0  0  0  0  0  0  0
   -4.9475   -1.0228    1.1313 O   0  0  0  0  0  0  0  0  0  0  0  0
   -2.5898   -1.3622    1.7992 C   0  0  2  0  0  0  0  0  0  0  0  0
   -2.4407    0.1704    2.0003 C   0  0  0  0  0  0  0  0  0  0  0  0
   -3.2068    0.6868    3.1971 C   0  0  0  0  0  0  0  0  0  0  0  0
   -2.6899    0.5353    4.4929 C   0  0  0  0  0  0  0  0  0  0  0  0
   -3.4165    0.9981    5.5954 C   0  0  0  0  0  0  0  0  0  0  0  0
   -4.6623    1.6052    5.4133 C   0  0  0  0  0  0  0  0  0  0  0  0
   -5.1851    1.7530    4.1295 C   0  0  0  0  0  0  0  0  0  0  0  0
   -4.4600    1.3033    3.0226 C   0  0  0  0  0  0  0  0  0  0  0  0
   -1.9543   -1.7817    0.5396 N   0  0  0  0  0  0  0  0  0  0  0  0
   -0.6704   -1.3058    0.1143 C   0  0  0  0  0  0  0  0  0  0  0  0
    0.2575   -1.1770    0.9604 O   0  0  0  0  0  0  0  0  0  0  0  0
   -0.4205   -0.8715   -1.3135 C   0  0  2  0  0  0  0  0  0  0  0  0
   -0.5813    0.6647   -1.4515 C   0  0  0  0  0  0  0  0  0  0  0  0
   -0.0931    1.2265   -2.8025 C   0  0  0  0  0  0  0  0  0  0  0  0
    1.4453    1.2793   -2.9412 C   0  0  0  0  0  0  0  0  0  0  0  0
    2.0355    2.6544   -2.6219 C   0  0  0  0  0  0  0  0  0  0  0  0
    1.8114    3.0187   -1.2282 N   0  0  0  0  0  0  0  0  0  0  0  0
    2.4810    2.3599   -0.1470 C   0  0  0  0  0  0  0  0  0  0  0  0
    3.3980    1.5245   -0.3875 O   0  0  0  0  0  0  0  0  0  0  0  0
    2.0441    2.6301    1.2658 C   0  0  0  0  0  0  0  0  0  0  0  0
    2.9634    2.0146    2.3297 C   0  0  0  0  0  0  0  0  0  0  0  0
    4.3002    2.6967    2.3902 C   0  0  0  0  0  0  0  0  0  0  0  0
    4.3639    3.8871    2.8028 O   0  0  0  0  0  0  0  0  0  0  0  0
    5.4943    1.9987    1.9985 N   0  0  0  0  0  0  0  0  0  0  0  0
    6.7946    2.3498    2.5658 C   0  0  0  0  0  0  0  0  0  0  0  0
    7.9353    2.0842    1.5741 C   0  0  0  0  0  0  0  0  0  0  0  0
    7.8606    0.7902    0.9979 O   0  0  0  0  0  0  0  0  0  0  0  0
    8.4498   -0.1871    1.8346 C   0  0  0  0  0  0  0  0  0  0  0  0
    9.9664   -0.2885    1.6251 C   0  0  0  0  0  0  0  0  0  0  0  0
   10.3009   -0.2085    0.2516 O   0  0  0  0  0  0  0  0  0  0  0  0
   10.4111   -1.4929   -0.3332 C   0  0  0  0  0  0  0  0  0  0  0  0
   11.8162   -2.0874   -0.1505 C   0  0  0  0  0  0  0  0  0  0  0  0
   12.9157   -1.1355   -0.6486 C   0  0  0  0  0  0  0  0  0  0  0  0
   14.3030   -1.7971   -0.5685 C   0  0  0  0  0  0  0  0  0  0  0  0
   15.4554   -0.7861   -0.7328 C   0  0  0  0  0  0  0  0  0  0  0  0
   15.4995   -0.1030   -2.1096 C   0  0  0  0  0  0  0  0  0  0  0  0
   15.7827   -1.2727   -3.4216 Cl  0  0  0  0  0  0  0  0  0  0  0  0
   -1.2293   -1.6402   -2.2755 N   0  0  0  0  0  0  0  0  0  0  0  0
   -2.3866   -1.1572   -2.9793 C   0  0  0  0  0  0  0  0  0  0  0  0
   -2.3826   -1.1922   -4.2404 O   0  0  0  0  0  0  0  0  0  0  0  0
   -3.6608   -0.7629   -2.2692 C   0  0  2  0  0  0  0  0  0  0  0  0
   -4.7484   -1.8242   -2.5202 C   0  0  0  0  0  0  0  0  0  0  0  0
   -4.3545   -3.1941   -2.0566 C   0  0  0  0  0  0  0  0  0  0  0  0
   -4.6450   -3.5743   -0.8873 O   0  0  0  0  0  0  0  0  0  0  0  0
   -3.6324   -4.0326   -2.9017 O   0  0  0  0  0  0  0  0  0  0  0  0
   -4.1352    0.5441   -2.7383 N   0  0  0  0  0  0  0  0  0  0  0  0
   -5.1297    1.2856   -2.0266 C   0  0  0  0  0  0  0  0  0  0  0  0
   -4.7836    2.0068   -1.0453 O   0  0  0  0  0  0  0  0  0  0  0  0
   -6.5622    1.2912   -2.5134 C   0  0  2  0  0  0  0  0  0  0  0  0
   -6.8142    2.4039   -3.5575 C   0  0  0  0  0  0  0  0  0  0  0  0
   -6.3847    3.7789   -3.1194 C   0  0  0  0  0  0  0  0  0  0  0  0
   -6.8664    4.2992   -2.0727 O   0  0  0  0  0  0  0  0  0  0  0  0
   -5.4702    4.4950   -3.8905 O   0  0  0  0  0  0  0  0  0  0  0  0
   -7.5076    1.4083   -1.3890 N   0  0  0  0  0  0  0  0  0  0  0  0
   -8.6640    0.5702   -1.2206 C   0  0  0  0  0  0  0  0  0  0  0  0
   -9.7247    1.0905   -0.7769 O   0  0  0  0  0  0  0  0  0  0  0  0
   -8.5952   -0.9322   -1.4437 C   0  0  2  0  0  0  0  0  0  0  0  0
   -9.9248   -1.6711   -1.3589 C   0  0  0  0  0  0  0  0  0  0  0  0
   -9.5135   -3.1188   -1.1299 C   0  0  0  0  0  0  0  0  0  0  0  0
   -8.0774   -3.0708   -0.5921 C   0  0  0  0  0  0  0  0  0  0  0  0
   -7.6631   -1.6605   -0.5504 N   0  0  0  0  0  0  0  0  0  0  0  0
   -9.5720   -2.9845    1.7500 H   0  0  0  0  0  0  0  0  0  0  0  0
   -8.2233   -2.8785    2.9690 H   0  0  0  0  0  0  0  0  0  0  0  0
   -9.7957   -2.0748    3.2483 H   0  0  0  0  0  0  0  0  0  0  0  0
   -8.2447   -0.3611    2.6463 H   0  0  0  0  0  0  0  0  0  0  0  0
   -9.4358   -0.5317    1.3487 H   0  0  0  0  0  0  0  0  0  0  0  0
   -7.1262   -0.0325    0.6613 H   0  0  0  0  0  0  0  0  0  0  0  0
   -2.1034   -1.8905    2.6473 H   0  0  0  0  0  0  0  0  0  0  0  0
   -1.3676    0.4304    2.1334 H   0  0  0  0  0  0  0  0  0  0  0  0
   -2.7776    0.6924    1.0760 H   0  0  0  0  0  0  0  0  0  0  0  0
   -1.7276    0.0665    4.6436 H   0  0  0  0  0  0  0  0  0  0  0  0
   -3.0090    0.8947    6.5908 H   0  0  0  0  0  0  0  0  0  0  0  0
   -5.2206    1.9632    6.2684 H   0  0  0  0  0  0  0  0  0  0  0  0
   -6.1513    2.2207    3.9903 H   0  0  0  0  0  0  0  0  0  0  0  0
   -4.8775    1.4406    2.0290 H   0  0  0  0  0  0  0  0  0  0  0  0
   -2.4684   -2.4190   -0.1110 H   0  0  0  0  0  0  0  0  0  0  0  0
    0.6412   -1.1253   -1.5131 H   0  0  0  0  0  0  0  0  0  0  0  0
   -1.6429    0.9418   -1.3061 H   0  0  0  0  0  0  0  0  0  0  0  0
   -0.0226    1.1599   -0.6316 H   0  0  0  0  0  0  0  0  0  0  0  0
   -0.5151    2.2432   -2.9305 H   0  0  0  0  0  0  0  0  0  0  0  0
   -0.5053    0.6202   -3.6328 H   0  0  0  0  0  0  0  0  0  0  0  0
    1.7017    1.0432   -3.9955 H   0  0  0  0  0  0  0  0  0  0  0  0
    1.9410    0.5018   -2.3195 H   0  0  0  0  0  0  0  0  0  0  0  0
    3.1263    2.6553   -2.8284 H   0  0  0  0  0  0  0  0  0  0  0  0
    1.5753    3.4218   -3.2808 H   0  0  0  0  0  0  0  0  0  0  0  0
    1.1191    3.7648   -1.0095 H   0  0  0  0  0  0  0  0  0  0  0  0
    1.0307    2.2011    1.3914 H   0  0  0  0  0  0  0  0  0  0  0  0
    1.9677    3.7280    1.4184 H   0  0  0  0  0  0  0  0  0  0  0  0
    2.4782    2.1251    3.3269 H   0  0  0  0  0  0  0  0  0  0  0  0
    3.0801    0.9257    2.1509 H   0  0  0  0  0  0  0  0  0  0  0  0
    5.3815    1.0314    1.6033 H   0  0  0  0  0  0  0  0  0  0  0  0
    6.9423    1.7700    3.4981 H   0  0  0  0  0  0  0  0  0  0  0  0
    6.8228    3.4284    2.8393 H   0  0  0  0  0  0  0  0  0  0  0  0
    7.8474    2.8215    0.7506 H   0  0  0  0  0  0  0  0  0  0  0  0
    8.9123    2.2844    2.0683 H   0  0  0  0  0  0  0  0  0  0  0  0
    8.2232   -0.0333    2.9145 H   0  0  0  0  0  0  0  0  0  0  0  0
    8.0024   -1.1641    1.5639 H   0  0  0  0  0  0  0  0  0  0  0  0
   10.3513   -1.2032    2.1280 H   0  0  0  0  0  0  0  0  0  0  0  0
   10.4545    0.5667    2.1418 H   0  0  0  0  0  0  0  0  0  0  0  0
    9.6335   -2.2002    0.0429 H   0  0  0  0  0  0  0  0  0  0  0  0
   10.2231   -1.3839   -1.4238 H   0  0  0  0  0  0  0  0  0  0  0  0
   11.8663   -3.0428   -0.7195 H   0  0  0  0  0  0  0  0  0  0  0  0
   11.9862   -2.3264    0.9215 H   0  0  0  0  0  0  0  0  0  0  0  0
   12.7048   -0.8592   -1.7032 H   0  0  0  0  0  0  0  0  0  0  0  0
   12.9052   -0.2164   -0.0300 H   0  0  0  0  0  0  0  0  0  0  0  0
   14.3828   -2.6020   -1.3304 H   0  0  0  0  0  0  0  0  0  0  0  0
   14.4251   -2.2747    0.4292 H   0  0  0  0  0  0  0  0  0  0  0  0
   15.3634    0.0036    0.0504 H   0  0  0  0  0  0  0  0  0  0  0  0
   16.4216   -1.3113   -0.5604 H   0  0  0  0  0  0  0  0  0  0  0  0
   16.3358    0.6314   -2.1164 H   0  0  0  0  0  0  0  0  0  0  0  0
   14.5599    0.4555   -2.3003 H   0  0  0  0  0  0  0  0  0  0  0  0
   -0.7387   -2.4425   -2.7245 H   0  0  0  0  0  0  0  0  0  0  0  0
   -3.4713   -0.6846   -1.1796 H   0  0  0  0  0  0  0  0  0  0  0  0
   -4.9844   -1.8759   -3.6064 H   0  0  0  0  0  0  0  0  0  0  0  0
   -5.6671   -1.5185   -1.9918 H   0  0  0  0  0  0  0  0  0  0  0  0
   -3.4003   -4.9779   -2.6173 H   0  0  0  0  0  0  0  0  0  0  0  0
   -3.7355    0.9652   -3.6197 H   0  0  0  0  0  0  0  0  0  0  0  0
   -6.7249    0.3399   -3.0436 H   0  0  0  0  0  0  0  0  0  0  0  0
   -7.8977    2.4302   -3.8056 H   0  0  0  0  0  0  0  0  0  0  0  0
   -6.2717    2.1508   -4.4950 H   0  0  0  0  0  0  0  0  0  0  0  0
   -5.1743    5.4258   -3.6174 H   0  0  0  0  0  0  0  0  0  0  0  0
   -7.4466    2.2611   -0.7831 H   0  0  0  0  0  0  0  0  0  0  0  0
   -8.2450   -1.0907   -2.4801 H   0  0  0  0  0  0  0  0  0  0  0  0
  -10.5340   -1.3267   -0.4972 H   0  0  0  0  0  0  0  0  0  0  0  0
  -10.5105   -1.5597   -2.2968 H   0  0  0  0  0  0  0  0  0  0  0  0
   -9.5225   -3.6695   -2.0924 H   0  0  0  0  0  0  0  0  0  0  0  0
  -10.2023   -3.6273   -0.4237 H   0  0  0  0  0  0  0  0  0  0  0  0
   -7.4079   -3.6059   -1.2980 H   0  0  0  0  0  0  0  0  0  0  0  0
   -7.9726   -3.5850    0.3803 H   0  0  0  0  0  0  0  0  0  0  0  0
  1  2  1  0
  2  3  1  0
  3  4  1  0
  4  5  2  0
  5  6  1  0
  6  7  2  0
  7  8  1  0
  7  9  1  0
  9 10  1  0
 10 11  1  0
 11 12  2  0
 12 13  1  0
 13 14  2  0
 14 15  1  0
 15 16  2  0
  9 17  1  0
 17 18  1  0
 18 19  2  0
 18 20  1  0
 20 21  1  0
 21 22  1  0
 22 23  1  0
 23 24  1  0
 24 25  1  0
 25 26  1  0
 26 27  2  0
 26 28  1  0
 28 29  1  0
 29 30  1  0
 30 31  2  0
 30 32  1  0
 32 33  1  0
 33 34  1  0
 34 35  1  0
 35 36  1  0
 36 37  1  0
 37 38  1  0
 38 39  1  0
 39 40  1  0
 40 41  1  0
 41 42  1  0
 42 43  1  0
 43 44  1  0
 44 45  1  0
 20 46  1  0
 46 47  1  0
 47 48  2  0
 47 49  1  0
 49 50  1  0
 50 51  1  0
 51 52  2  0
 51 53  1  0
 49 54  1  0
 54 55  1  0
 55 56  2  0
 55 57  1  0
 57 58  1  0
 58 59  1  0
 59 60  2  0
 59 61  1  0
 57 62  1  0
 62 63  1  0
 63 64  2  0
 63 65  1  0
 65 66  1  0
 66 67  1  0
 67 68  1  0
 68 69  1  0
 69  3  1  0
  8  4  1  0
 16 11  1  0
 69 65  1  0
  1 70  1  0
  1 71  1  0
  1 72  1  0
  2 73  1  0
  2 74  1  0
  3 75  1  6
  9 76  1  1
 10 77  1  0
 10 78  1  0
 12 79  1  0
 13 80  1  0
 14 81  1  0
 15 82  1  0
 16 83  1  0
 17 84  1  0
 20 85  1  6
 21 86  1  0
 21 87  1  0
 22 88  1  0
 22 89  1  0
 23 90  1  0
 23 91  1  0
 24 92  1  0
 24 93  1  0
 25 94  1  0
 28 95  1  0
 28 96  1  0
 29 97  1  0
 29 98  1  0
 32 99  1  0
 33100  1  0
 33101  1  0
 34102  1  0
 34103  1  0
 36104  1  0
 36105  1  0
 37106  1  0
 37107  1  0
 39108  1  0
 39109  1  0
 40110  1  0
 40111  1  0
 41112  1  0
 41113  1  0
 42114  1  0
 42115  1  0
 43116  1  0
 43117  1  0
 44118  1  0
 44119  1  0
 46120  1  0
 49121  1  1
 50122  1  0
 50123  1  0
 53124  1  0
 54125  1  0
 57126  1  6
 58127  1  0
 58128  1  0
 61129  1  0
 62130  1  0
 65131  1  6
 66132  1  0
 66133  1  0
 67134  1  0
 67135  1  0
 68136  1  0
 68137  1  0
M  END
$$$$
