
     RDKit          3D

 93 95  0  0  0  0  0  0  0  0999 V2000
   -7.9141   -0.2193    4.7375 C   0  0  0  0  0  0  0  0  0  0  0  0
   -7.3317   -0.0328    3.3684 C   0  0  0  0  0  0  0  0  0  0  0  0
   -6.3299    0.9259    3.1509 C   0  0  0  0  0  0  0  0  0  0  0  0
   -5.7511    1.0663    1.8862 C   0  0  0  0  0  0  0  0  0  0  0  0
   -6.1538    0.2349    0.8298 C   0  0  0  0  0  0  0  0  0  0  0  0
   -5.4011    0.3837   -0.7610 S   0  0  0  0  0  6  0  0  0  0  0  0
   -4.9604    1.8047   -0.9660 O   0  0  0  0  0  0  0  0  0  0  0  0
   -6.4236    0.0655   -1.8154 O   0  0  0  0  0  0  0  0  0  0  0  0
   -4.0407   -0.7062   -0.9343 N   0  0  0  0  0  0  0  0  0  0  0  0
   -4.4975   -2.0832   -0.6999 C   0  0  0  0  0  0  0  0  0  0  0  0
   -2.9411   -0.3484   -0.0140 C   0  0  0  0  0  0  0  0  0  0  0  0
   -1.9507    0.6216   -0.6906 C   0  0  2  0  0  0  0  0  0  0  0  0
   -1.2891   -0.0186   -1.7751 O   0  0  0  0  0  0  0  0  0  0  0  0
   -1.9045    0.2366   -3.0306 C   0  0  0  0  0  0  0  0  0  0  0  0
   -0.9084    0.9379   -3.9637 C   0  0  0  0  0  0  0  0  0  0  0  0
    0.0647   -0.0549   -4.6244 C   0  0  0  0  0  0  0  0  0  0  0  0
    1.3493    0.6243   -5.1410 C   0  0  0  0  0  0  0  0  0  0  0  0
    2.5158    0.5742   -4.1305 C   0  0  1  0  0  0  0  0  0  0  0  0
    3.7579    1.2352   -4.7351 C   0  0  0  0  0  0  0  0  0  0  0  0
    2.1316    1.2244   -2.9148 O   0  0  0  0  0  0  0  0  0  0  0  0
    2.8933    1.2064   -1.7359 C   0  0  0  0  0  0  0  0  0  0  0  0
    3.9287    2.1352   -1.5690 C   0  0  0  0  0  0  0  0  0  0  0  0
    4.6515    2.1840   -0.3755 C   0  0  0  0  0  0  0  0  0  0  0  0
    4.3549    1.3039    0.6733 C   0  0  0  0  0  0  0  0  0  0  0  0
    5.1128    1.3854    1.8944 N   0  0  0  0  0  0  0  0  0  0  0  0
    5.4067    0.2663    2.7484 C   0  0  0  0  0  0  0  0  0  0  0  0
    5.1067   -0.9066    2.3946 O   0  0  0  0  0  0  0  0  0  0  0  0
    6.0513    0.4996    4.0895 C   0  0  0  0  0  0  0  0  0  0  0  0
    7.0190   -0.6232    4.5044 C   0  0  0  0  0  0  0  0  0  0  0  0
    8.3023   -0.6658    3.6656 C   0  0  0  0  0  0  0  0  0  0  0  0
    8.0149   -0.9321    2.3404 F   0  0  0  0  0  0  0  0  0  0  0  0
    8.9742    0.5408    3.7527 F   0  0  0  0  0  0  0  0  0  0  0  0
    9.1254   -1.6662    4.1487 F   0  0  0  0  0  0  0  0  0  0  0  0
    3.2872    0.4009    0.5265 C   0  0  0  0  0  0  0  0  0  0  0  0
    2.5568    0.3406   -0.6715 C   0  0  0  0  0  0  0  0  0  0  0  0
    1.5023   -0.6830   -0.8331 C   0  0  0  0  0  0  0  0  0  0  0  0
    1.5147   -1.3757   -1.8820 O   0  0  0  0  0  0  0  0  0  0  0  0
    0.5277   -0.9721    0.1985 N   0  0  0  0  0  0  0  0  0  0  0  0
    0.3257   -2.3775    0.6369 C   0  0  2  0  0  0  0  0  0  0  0  0
    1.5682   -2.8805    1.3756 C   0  0  0  0  0  0  0  0  0  0  0  0
   -0.0435   -3.3398   -0.5106 C   0  0  0  0  0  0  0  0  0  0  0  0
   -1.0383   -2.7848   -1.3228 O   0  0  0  0  0  0  0  0  0  0  0  0
   -0.0193    0.1100    1.0508 C   0  0  0  0  0  0  0  0  0  0  0  0
   -0.9094    1.1647    0.3264 C   0  0  1  0  0  0  0  0  0  0  0  0
   -0.0902    2.3086   -0.2846 C   0  0  0  0  0  0  0  0  0  0  0  0
   -7.1499   -0.7263    1.0483 C   0  0  0  0  0  0  0  0  0  0  0  0
   -7.7325   -0.8642    2.3114 C   0  0  0  0  0  0  0  0  0  0  0  0
   -7.3311   -0.9900    5.2825 H   0  0  0  0  0  0  0  0  0  0  0  0
   -8.9732   -0.5454    4.6689 H   0  0  0  0  0  0  0  0  0  0  0  0
   -7.8832    0.7312    5.3114 H   0  0  0  0  0  0  0  0  0  0  0  0
   -5.9952    1.5619    3.9620 H   0  0  0  0  0  0  0  0  0  0  0  0
   -4.9785    1.8104    1.7367 H   0  0  0  0  0  0  0  0  0  0  0  0
   -3.6874   -2.7993   -0.9471 H   0  0  0  0  0  0  0  0  0  0  0  0
   -4.7979   -2.2347    0.3603 H   0  0  0  0  0  0  0  0  0  0  0  0
   -5.3545   -2.3261   -1.3637 H   0  0  0  0  0  0  0  0  0  0  0  0
   -2.3750   -1.2521    0.2925 H   0  0  0  0  0  0  0  0  0  0  0  0
   -3.3307    0.0991    0.9241 H   0  0  0  0  0  0  0  0  0  0  0  0
   -2.5156    1.5261   -1.0107 H   0  0  0  0  0  0  0  0  0  0  0  0
   -2.8354    0.8467   -2.9800 H   0  0  0  0  0  0  0  0  0  0  0  0
   -2.2130   -0.7329   -3.4771 H   0  0  0  0  0  0  0  0  0  0  0  0
   -1.4703    1.4627   -4.7654 H   0  0  0  0  0  0  0  0  0  0  0  0
   -0.3618    1.7148   -3.3932 H   0  0  0  0  0  0  0  0  0  0  0  0
    0.3153   -0.8883   -3.9378 H   0  0  0  0  0  0  0  0  0  0  0  0
   -0.4609   -0.5203   -5.4856 H   0  0  0  0  0  0  0  0  0  0  0  0
    1.6691    0.0889   -6.0631 H   0  0  0  0  0  0  0  0  0  0  0  0
    1.1365    1.6779   -5.4308 H   0  0  0  0  0  0  0  0  0  0  0  0
    2.7607   -0.4897   -3.9202 H   0  0  0  0  0  0  0  0  0  0  0  0
    4.0005    0.7794   -5.7180 H   0  0  0  0  0  0  0  0  0  0  0  0
    3.5890    2.3237   -4.8745 H   0  0  0  0  0  0  0  0  0  0  0  0
    4.6347    1.0822   -4.0723 H   0  0  0  0  0  0  0  0  0  0  0  0
    4.1613    2.8370   -2.3587 H   0  0  0  0  0  0  0  0  0  0  0  0
    5.4480    2.9098   -0.2685 H   0  0  0  0  0  0  0  0  0  0  0  0
    5.5551    2.3040    2.1314 H   0  0  0  0  0  0  0  0  0  0  0  0
    5.2435    0.5744    4.8502 H   0  0  0  0  0  0  0  0  0  0  0  0
    6.5936    1.4714    4.0902 H   0  0  0  0  0  0  0  0  0  0  0  0
    6.5074   -1.6084    4.4566 H   0  0  0  0  0  0  0  0  0  0  0  0
    7.3016   -0.4593    5.5669 H   0  0  0  0  0  0  0  0  0  0  0  0
    3.0160   -0.2551    1.3419 H   0  0  0  0  0  0  0  0  0  0  0  0
   -0.5141   -2.4305    1.3620 H   0  0  0  0  0  0  0  0  0  0  0  0
    2.4509   -2.8863    0.6999 H   0  0  0  0  0  0  0  0  0  0  0  0
    1.4003   -3.9129    1.7530 H   0  0  0  0  0  0  0  0  0  0  0  0
    1.7844   -2.2209    2.2447 H   0  0  0  0  0  0  0  0  0  0  0  0
   -0.4201   -4.2919   -0.0713 H   0  0  0  0  0  0  0  0  0  0  0  0
    0.8504   -3.5915   -1.1230 H   0  0  0  0  0  0  0  0  0  0  0  0
   -1.2236   -3.4527   -2.0326 H   0  0  0  0  0  0  0  0  0  0  0  0
   -0.6319   -0.3217    1.8699 H   0  0  0  0  0  0  0  0  0  0  0  0
    0.8080    0.6227    1.5811 H   0  0  0  0  0  0  0  0  0  0  0  0
   -1.4953    1.6547    1.1388 H   0  0  0  0  0  0  0  0  0  0  0  0
    0.3946    1.9865   -1.2170 H   0  0  0  0  0  0  0  0  0  0  0  0
   -0.7571    3.1613   -0.5299 H   0  0  0  0  0  0  0  0  0  0  0  0
    0.6803    2.6740    0.4272 H   0  0  0  0  0  0  0  0  0  0  0  0
   -7.4659   -1.3792    0.2441 H   0  0  0  0  0  0  0  0  0  0  0  0
   -8.4921   -1.6214    2.4666 H   0  0  0  0  0  0  0  0  0  0  0  0
  1  2  1  0
  2  3  2  0
  3  4  1  0
  4  5  2  0
  5  6  1  0
  6  7  2  0
  6  8  2  0
  6  9  1  0
  9 10  1  0
  9 11  1  0
 11 12  1  0
 12 13  1  0
 13 14  1  0
 14 15  1  0
 15 16  1  0
 16 17  1  0
 17 18  1  0
 18 19  1  0
 18 20  1  0
 20 21  1  0
 21 22  2  0
 22 23  1  0
 23 24  2  0
 24 25  1  0
 25 26  1  0
 26 27  2  0
 26 28  1  0
 28 29  1  0
 29 30  1  0
 30 31  1  0
 30 32  1  0
 30 33  1  0
 24 34  1  0
 34 35  2  0
 35 36  1  0
 36 37  2  0
 36 38  1  0
 38 39  1  0
 39 40  1  0
 39 41  1  0
 41 42  1  0
 38 43  1  0
 43 44  1  0
 44 45  1  0
  5 46  1  0
 46 47  2  0
 47  2  1  0
 44 12  1  0
 35 21  1  0
  1 48  1  0
  1 49  1  0
  1 50  1  0
  3 51  1  0
  4 52  1  0
 10 53  1  0
 10 54  1  0
 10 55  1  0
 11 56  1  0
 11 57  1  0
 12 58  1  6
 14 59  1  0
 14 60  1  0
 15 61  1  0
 15 62  1  0
 16 63  1  0
 16 64  1  0
 17 65  1  0
 17 66  1  0
 18 67  1  1
 19 68  1  0
 19 69  1  0
 19 70  1  0
 22 71  1  0
 23 72  1  0
 25 73  1  0
 28 74  1  0
 28 75  1  0
 29 76  1  0
 29 77  1  0
 34 78  1  0
 39 79  1  1
 40 80  1  0
 40 81  1  0
 40 82  1  0
 41 83  1  0
 41 84  1  0
 42 85  1  0
 43 86  1  0
 43 87  1  0
 44 88  1  1
 45 89  1  0
 45 90  1  0
 45 91  1  0
 46 92  1  0
 47 93  1  0
M  END
$$$$
