
     RDKit          3D

 80 83  0  0  0  0  0  0  0  0999 V2000
    3.8464    1.2195   -1.7700 O   0  0  0  0  0  0  0  0  0  0  0  0
    4.1124    0.7432   -0.6338 C   0  0  0  0  0  0  0  0  0  0  0  0
    5.4365    0.8681   -0.1020 N   0  0  0  0  0  0  0  0  0  0  0  0
    6.4839    1.5780   -0.8364 C   0  0  0  0  0  0  0  0  0  0  0  0
    7.7981    1.5899   -0.0596 C   0  0  0  0  0  0  0  0  0  0  0  0
    7.6120    2.1669    1.1879 F   0  0  0  0  0  0  0  0  0  0  0  0
    8.2708    0.2976    0.0920 F   0  0  0  0  0  0  0  0  0  0  0  0
    3.0507   -0.0022    0.1371 C   0  0  2  0  0  0  0  0  0  0  0  0
    2.7916   -1.4011   -0.4608 C   0  0  0  0  0  0  0  0  0  0  0  0
    3.9117   -2.3935   -0.1126 C   0  0  0  0  0  0  0  0  0  0  0  0
    3.6639   -3.8035   -0.6769 C   0  0  0  0  0  0  0  0  0  0  0  0
    2.4195   -4.4810   -0.0854 C   0  0  0  0  0  0  0  0  0  0  0  0
    1.2926   -4.2478   -0.9365 O   0  0  0  0  0  0  0  0  0  0  0  0
   -0.0367   -4.1087   -0.5125 C   0  0  0  0  0  0  0  0  0  0  0  0
   -1.0536   -4.5447   -1.3660 C   0  0  0  0  0  0  0  0  0  0  0  0
   -2.3924   -4.4079   -0.9960 C   0  0  0  0  0  0  0  0  0  0  0  0
   -2.7289   -3.7834    0.2054 C   0  0  0  0  0  0  0  0  0  0  0  0
   -1.7278   -3.2522    1.0341 C   0  0  0  0  0  0  0  0  0  0  0  0
   -0.3805   -3.4873    0.7037 C   0  0  0  0  0  0  0  0  0  0  0  0
   -2.0767   -2.4754    2.2919 C   0  0  0  0  0  0  0  0  0  0  0  0
   -2.7501   -1.0856    2.0778 C   0  0  2  0  0  0  0  0  0  0  0  0
   -3.9269   -1.1591    1.1966 N   0  0  0  0  0  0  0  0  0  0  0  0
   -4.0316   -0.6281   -0.1564 C   0  0  0  0  0  0  0  0  0  0  0  0
   -5.4491   -0.9843   -0.6483 C   0  0  0  0  0  0  0  0  0  0  0  0
   -6.2072   -1.6005    0.5379 C   0  0  0  0  0  0  0  0  0  0  0  0
   -5.1813   -1.6832    1.5906 C   0  0  0  0  0  0  0  0  0  0  0  0
   -5.3971   -2.1688    2.7324 O   0  0  0  0  0  0  0  0  0  0  0  0
   -1.8097    0.0380    1.6668 C   0  0  0  0  0  0  0  0  0  0  0  0
   -1.8112    1.0975    2.3439 O   0  0  0  0  0  0  0  0  0  0  0  0
   -0.9495   -0.0759    0.5207 N   0  0  0  0  0  0  0  0  0  0  0  0
   -0.6371    0.9621   -0.4762 C   0  0  1  0  0  0  0  0  0  0  0  0
   -1.0105    2.3961   -0.0380 C   0  0  0  0  0  0  0  0  0  0  0  0
   -0.8057    3.4197   -1.1638 C   0  0  0  0  0  0  0  0  0  0  0  0
   -1.3111    4.7746   -0.7463 C   0  0  0  0  0  0  0  0  0  0  0  0
   -2.6605    5.1124   -0.9338 C   0  0  0  0  0  0  0  0  0  0  0  0
   -3.1360    6.3618   -0.5280 C   0  0  0  0  0  0  0  0  0  0  0  0
   -2.2636    7.2777    0.0717 C   0  0  0  0  0  0  0  0  0  0  0  0
   -0.9246    6.9418    0.2777 C   0  0  0  0  0  0  0  0  0  0  0  0
   -0.4464    5.6928   -0.1245 C   0  0  0  0  0  0  0  0  0  0  0  0
    0.8265    0.8600   -0.8245 C   0  0  0  0  0  0  0  0  0  0  0  0
    1.1736    0.7964   -2.0359 O   0  0  0  0  0  0  0  0  0  0  0  0
    1.8089    0.7843    0.2207 N   0  0  0  0  0  0  0  0  0  0  0  0
    5.6499    0.4491    0.8277 H   0  0  0  0  0  0  0  0  0  0  0  0
    6.1619    2.6236   -1.0162 H   0  0  0  0  0  0  0  0  0  0  0  0
    6.6465    1.0909   -1.8218 H   0  0  0  0  0  0  0  0  0  0  0  0
    8.5496    2.1826   -0.6224 H   0  0  0  0  0  0  0  0  0  0  0  0
    3.4131   -0.1408    1.1790 H   0  0  0  0  0  0  0  0  0  0  0  0
    2.6890   -1.3341   -1.5670 H   0  0  0  0  0  0  0  0  0  0  0  0
    1.8369   -1.7820   -0.0429 H   0  0  0  0  0  0  0  0  0  0  0  0
    4.0257   -2.4584    0.9929 H   0  0  0  0  0  0  0  0  0  0  0  0
    4.8717   -2.0181   -0.5317 H   0  0  0  0  0  0  0  0  0  0  0  0
    3.5869   -3.7663   -1.7851 H   0  0  0  0  0  0  0  0  0  0  0  0
    4.5519   -4.4273   -0.4321 H   0  0  0  0  0  0  0  0  0  0  0  0
    2.5895   -5.5800   -0.0371 H   0  0  0  0  0  0  0  0  0  0  0  0
    2.2511   -4.1425    0.9560 H   0  0  0  0  0  0  0  0  0  0  0  0
   -0.8059   -5.0042   -2.3127 H   0  0  0  0  0  0  0  0  0  0  0  0
   -3.1711   -4.7742   -1.6480 H   0  0  0  0  0  0  0  0  0  0  0  0
   -3.7714   -3.7085    0.4805 H   0  0  0  0  0  0  0  0  0  0  0  0
    0.3865   -3.0932    1.3510 H   0  0  0  0  0  0  0  0  0  0  0  0
   -1.1647   -2.3224    2.9052 H   0  0  0  0  0  0  0  0  0  0  0  0
   -2.7498   -3.1104    2.9011 H   0  0  0  0  0  0  0  0  0  0  0  0
   -3.1277   -0.7921    3.0852 H   0  0  0  0  0  0  0  0  0  0  0  0
   -3.9003    0.4755   -0.1380 H   0  0  0  0  0  0  0  0  0  0  0  0
   -3.2653   -1.0870   -0.8123 H   0  0  0  0  0  0  0  0  0  0  0  0
   -5.3897   -1.7178   -1.4794 H   0  0  0  0  0  0  0  0  0  0  0  0
   -5.9739   -0.0785   -1.0120 H   0  0  0  0  0  0  0  0  0  0  0  0
   -7.0352   -0.9400    0.8726 H   0  0  0  0  0  0  0  0  0  0  0  0
   -6.5943   -2.6142    0.2896 H   0  0  0  0  0  0  0  0  0  0  0  0
   -0.5735   -1.0189    0.2953 H   0  0  0  0  0  0  0  0  0  0  0  0
   -1.2319    0.7254   -1.3865 H   0  0  0  0  0  0  0  0  0  0  0  0
   -0.4062    2.6926    0.8461 H   0  0  0  0  0  0  0  0  0  0  0  0
   -2.0871    2.4141    0.2358 H   0  0  0  0  0  0  0  0  0  0  0  0
    0.2709    3.4862   -1.4262 H   0  0  0  0  0  0  0  0  0  0  0  0
   -1.3442    3.0868   -2.0801 H   0  0  0  0  0  0  0  0  0  0  0  0
   -3.3388    4.4064   -1.3921 H   0  0  0  0  0  0  0  0  0  0  0  0
   -4.1760    6.6250   -0.6834 H   0  0  0  0  0  0  0  0  0  0  0  0
   -2.6288    8.2475    0.3817 H   0  0  0  0  0  0  0  0  0  0  0  0
   -0.2545    7.6515    0.7449 H   0  0  0  0  0  0  0  0  0  0  0  0
    0.5951    5.4382    0.0472 H   0  0  0  0  0  0  0  0  0  0  0  0
    1.5207    1.1109    1.1707 H   0  0  0  0  0  0  0  0  0  0  0  0
  1  2  2  0
  2  3  1  0
  3  4  1  0
  4  5  1  0
  5  6  1  0
  5  7  1  0
  2  8  1  0
  8  9  1  0
  9 10  1  0
 10 11  1  0
 11 12  1  0
 12 13  1  0
 13 14  1  0
 14 15  1  0
 15 16  2  0
 16 17  1  0
 17 18  2  0
 18 19  1  0
 18 20  1  0
 20 21  1  0
 21 22  1  0
 22 23  1  0
 23 24  1  0
 24 25  1  0
 25 26  1  0
 26 27  2  0
 21 28  1  0
 28 29  2  0
 28 30  1  0
 30 31  1  0
 31 32  1  0
 32 33  1  0
 33 34  1  0
 34 35  2  0
 35 36  1  0
 36 37  2  0
 37 38  1  0
 38 39  2  0
 31 40  1  0
 40 41  2  0
 40 42  1  0
 42  8  1  0
 19 14  2  0
 26 22  1  0
 39 34  1  0
  3 43  1  0
  4 44  1  0
  4 45  1  0
  5 46  1  0
  8 47  1  1
  9 48  1  0
  9 49  1  0
 10 50  1  0
 10 51  1  0
 11 52  1  0
 11 53  1  0
 12 54  1  0
 12 55  1  0
 15 56  1  0
 16 57  1  0
 17 58  1  0
 19 59  1  0
 20 60  1  0
 20 61  1  0
 21 62  1  1
 23 63  1  0
 23 64  1  0
 24 65  1  0
 24 66  1  0
 25 67  1  0
 25 68  1  0
 30 69  1  0
 31 70  1  6
 32 71  1  0
 32 72  1  0
 33 73  1  0
 33 74  1  0
 35 75  1  0
 36 76  1  0
 37 77  1  0
 38 78  1  0
 39 79  1  0
 42 80  1  0
M  END
$$$$
