
     RDKit          3D

 73 76  0  0  0  0  0  0  0  0999 V2000
   -5.6119   -3.5003   -2.4686 C   0  0  0  0  0  0  0  0  0  0  0  0
   -5.0822   -2.5263   -1.4200 C   0  0  0  0  0  0  0  0  0  0  0  0
   -3.8033   -1.8239   -1.9120 C   0  0  0  0  0  0  0  0  0  0  0  0
   -3.2672   -0.7297   -0.9591 C   0  0  1  0  0  0  0  0  0  0  0  0
   -4.1504    0.4455   -0.9446 N   0  0  0  0  0  0  0  0  0  0  0  0
   -3.6244    1.7728   -0.7936 C   0  0  0  0  0  0  0  0  0  0  0  0
   -4.1068    2.7064   -1.4873 O   0  0  0  0  0  0  0  0  0  0  0  0
   -2.5362    2.0754    0.1581 C   0  0  0  0  0  0  0  0  0  0  0  0
   -2.6757    1.7476    1.5134 C   0  0  0  0  0  0  0  0  0  0  0  0
   -1.6832    2.1036    2.4264 C   0  0  0  0  0  0  0  0  0  0  0  0
   -0.5639    2.8013    1.9812 C   0  0  0  0  0  0  0  0  0  0  0  0
   -0.4346    3.1061    0.6643 N   0  0  0  0  0  0  0  0  0  0  0  0
   -1.3782    2.7597   -0.2568 C   0  0  0  0  0  0  0  0  0  0  0  0
   -1.2008    3.0780   -1.6122 O   0  0  0  0  0  0  0  0  0  0  0  0
   -0.0314    3.7097   -2.1355 C   0  0  0  0  0  0  0  0  0  0  0  0
    1.0277    2.6760   -2.5135 C   0  0  0  0  0  0  0  0  0  0  0  0
    1.5104    2.0230   -1.3535 O   0  0  0  0  0  0  0  0  0  0  0  0
    2.5997    1.1761   -1.6789 C   0  0  0  0  0  0  0  0  0  0  0  0
    2.4585   -0.1486   -0.9311 C   0  0  0  0  0  0  0  0  0  0  0  0
    2.5471    0.0825    0.5273 N   0  0  0  0  0  0  0  0  0  0  0  0
    3.7201   -0.5369    1.1743 C   0  0  0  0  0  0  0  0  0  0  0  0
    4.9859    0.1546    0.7413 C   0  0  0  0  0  0  0  0  0  0  0  0
    5.2329    1.4813    1.1285 C   0  0  0  0  0  0  0  0  0  0  0  0
    6.3875    2.1330    0.6922 C   0  0  0  0  0  0  0  0  0  0  0  0
    7.2901    1.4477   -0.1272 C   0  0  0  0  0  0  0  0  0  0  0  0
    7.0332    0.1661   -0.5013 N   0  0  0  0  0  0  0  0  0  0  0  0
    5.9143   -0.4900   -0.0914 C   0  0  0  0  0  0  0  0  0  0  0  0
    1.2730   -0.0635    1.2722 C   0  0  0  0  0  0  0  0  0  0  0  0
    0.9288   -1.5026    1.7824 C   0  0  0  0  0  0  0  0  0  0  0  0
   -0.2293   -1.4484    2.8236 C   0  0  0  0  0  0  0  0  0  0  0  0
   -1.5599   -2.0410    2.3301 C   0  0  0  0  0  0  0  0  0  0  0  0
   -1.7697   -1.7583    0.9017 N   0  0  0  0  0  0  0  0  0  0  0  0
   -0.7163   -2.1473   -0.0560 C   0  0  0  0  0  0  0  0  0  0  0  0
    0.6015   -2.5014    0.6519 C   0  0  0  0  0  0  0  0  0  0  0  0
   -3.0537   -1.2629    0.4435 C   0  0  0  0  0  0  0  0  0  0  0  0
   -4.0451   -1.2894    1.2251 O   0  0  0  0  0  0  0  0  0  0  0  0
   -6.5320   -3.9877   -2.0845 H   0  0  0  0  0  0  0  0  0  0  0  0
   -4.8563   -4.2893   -2.6797 H   0  0  0  0  0  0  0  0  0  0  0  0
   -5.8634   -2.9625   -3.4087 H   0  0  0  0  0  0  0  0  0  0  0  0
   -5.8749   -1.7835   -1.1955 H   0  0  0  0  0  0  0  0  0  0  0  0
   -4.8662   -3.1027   -0.4956 H   0  0  0  0  0  0  0  0  0  0  0  0
   -3.9994   -1.3597   -2.9038 H   0  0  0  0  0  0  0  0  0  0  0  0
   -3.0131   -2.5902   -2.0632 H   0  0  0  0  0  0  0  0  0  0  0  0
   -2.3048   -0.3935   -1.3905 H   0  0  0  0  0  0  0  0  0  0  0  0
   -5.1078    0.3680   -1.3566 H   0  0  0  0  0  0  0  0  0  0  0  0
   -3.5672    1.2469    1.8702 H   0  0  0  0  0  0  0  0  0  0  0  0
   -1.7925    1.8590    3.4742 H   0  0  0  0  0  0  0  0  0  0  0  0
    0.2108    3.0909    2.6784 H   0  0  0  0  0  0  0  0  0  0  0  0
   -0.3224    4.2622   -3.0540 H   0  0  0  0  0  0  0  0  0  0  0  0
    0.3801    4.4523   -1.4180 H   0  0  0  0  0  0  0  0  0  0  0  0
    0.5668    1.9339   -3.2091 H   0  0  0  0  0  0  0  0  0  0  0  0
    1.8558    3.2141   -3.0356 H   0  0  0  0  0  0  0  0  0  0  0  0
    3.5459    1.6758   -1.3713 H   0  0  0  0  0  0  0  0  0  0  0  0
    2.6835    0.9392   -2.7693 H   0  0  0  0  0  0  0  0  0  0  0  0
    3.2459   -0.8493   -1.2837 H   0  0  0  0  0  0  0  0  0  0  0  0
    1.4927   -0.5915   -1.2252 H   0  0  0  0  0  0  0  0  0  0  0  0
    3.7597   -1.6258    0.9464 H   0  0  0  0  0  0  0  0  0  0  0  0
    3.6492   -0.4310    2.2794 H   0  0  0  0  0  0  0  0  0  0  0  0
    4.5225    2.0101    1.7545 H   0  0  0  0  0  0  0  0  0  0  0  0
    6.5825    3.1572    0.9817 H   0  0  0  0  0  0  0  0  0  0  0  0
    8.1890    1.9422   -0.4722 H   0  0  0  0  0  0  0  0  0  0  0  0
    5.7464   -1.5087   -0.4217 H   0  0  0  0  0  0  0  0  0  0  0  0
    0.4279    0.3413    0.6754 H   0  0  0  0  0  0  0  0  0  0  0  0
    1.3537    0.6045    2.1562 H   0  0  0  0  0  0  0  0  0  0  0  0
    1.8111   -1.9041    2.3237 H   0  0  0  0  0  0  0  0  0  0  0  0
    0.0749   -2.0063    3.7363 H   0  0  0  0  0  0  0  0  0  0  0  0
   -0.4164   -0.4048    3.1567 H   0  0  0  0  0  0  0  0  0  0  0  0
   -1.5583   -3.1432    2.4793 H   0  0  0  0  0  0  0  0  0  0  0  0
   -2.3794   -1.6247    2.9560 H   0  0  0  0  0  0  0  0  0  0  0  0
   -1.0578   -3.0193   -0.6551 H   0  0  0  0  0  0  0  0  0  0  0  0
   -0.5112   -1.3124   -0.7477 H   0  0  0  0  0  0  0  0  0  0  0  0
    0.5054   -3.5188    1.0918 H   0  0  0  0  0  0  0  0  0  0  0  0
    1.4326   -2.5641   -0.0787 H   0  0  0  0  0  0  0  0  0  0  0  0
  1  2  1  0
  2  3  1  0
  3  4  1  0
  4  5  1  0
  5  6  1  0
  6  7  2  0
  6  8  1  0
  8  9  2  0
  9 10  1  0
 10 11  2  0
 11 12  1  0
 12 13  2  0
 13 14  1  0
 14 15  1  0
 15 16  1  0
 16 17  1  0
 17 18  1  0
 18 19  1  0
 19 20  1  0
 20 21  1  0
 21 22  1  0
 22 23  2  0
 23 24  1  0
 24 25  2  0
 25 26  1  0
 26 27  2  0
 20 28  1  0
 28 29  1  0
 29 30  1  0
 30 31  1  0
 31 32  1  0
 32 33  1  0
 33 34  1  0
 32 35  1  0
 35 36  2  0
 35  4  1  0
 13  8  1  0
 27 22  1  0
 34 29  1  0
  1 37  1  0
  1 38  1  0
  1 39  1  0
  2 40  1  0
  2 41  1  0
  3 42  1  0
  3 43  1  0
  4 44  1  6
  5 45  1  0
  9 46  1  0
 10 47  1  0
 11 48  1  0
 15 49  1  0
 15 50  1  0
 16 51  1  0
 16 52  1  0
 18 53  1  0
 18 54  1  0
 19 55  1  0
 19 56  1  0
 21 57  1  0
 21 58  1  0
 23 59  1  0
 24 60  1  0
 25 61  1  0
 27 62  1  0
 28 63  1  0
 28 64  1  0
 29 65  1  0
 30 66  1  0
 30 67  1  0
 31 68  1  0
 31 69  1  0
 33 70  1  0
 33 71  1  0
 34 72  1  0
 34 73  1  0
M  END
$$$$
