
     RDKit          3D

131132  0  0  0  0  0  0  0  0999 V2000
    7.9422    0.8212    3.2212 C   0  0  0  0  0  0  0  0  0  0  0  0
    7.7284   -0.1724    2.0817 C   0  0  0  0  0  0  0  0  0  0  0  0
    6.3728    0.0562    1.3919 C   0  0  0  0  0  0  0  0  0  0  0  0
    6.1059   -0.9548    0.2482 C   0  0  2  0  0  0  0  0  0  0  0  0
    7.0127   -0.6632   -0.9639 C   0  0  0  0  0  0  0  0  0  0  0  0
    4.5758   -1.0175   -0.0929 C   0  0  1  0  0  0  0  0  0  0  0  0
    4.0394    0.2815   -0.4038 O   0  0  0  0  0  0  0  0  0  0  0  0
    4.2464    1.0224   -1.5826 C   0  0  0  0  0  0  0  0  0  0  0  0
    4.8161    0.5060   -2.5843 O   0  0  0  0  0  0  0  0  0  0  0  0
    3.7425    2.4424   -1.6963 C   0  0  2  0  0  0  0  0  0  0  0  0
    4.8732    3.3949   -2.1053 C   0  0  0  0  0  0  0  0  0  0  0  0
    3.0946    2.9054   -0.4495 N   0  0  0  0  0  0  0  0  0  0  0  0
    3.8471    3.0014    0.8062 C   0  0  0  0  0  0  0  0  0  0  0  0
    1.7350    3.3803   -0.4492 C   0  0  0  0  0  0  0  0  0  0  0  0
    1.0026    3.1279    0.5431 O   0  0  0  0  0  0  0  0  0  0  0  0
    1.2010    4.2571   -1.5718 C   0  0  2  0  0  0  0  0  0  0  0  0
    0.6764    5.6202   -1.0192 C   0  0  1  0  0  0  0  0  0  0  0  0
    0.7691    6.7120   -2.1010 C   0  0  0  0  0  0  0  0  0  0  0  0
   -0.7722    5.5226   -0.4639 C   0  0  0  0  0  0  0  0  0  0  0  0
   -1.1181    6.6638    0.4918 C   0  0  0  0  0  0  0  0  0  0  0  0
    0.1637    3.5798   -2.3656 N   0  0  0  0  0  0  0  0  0  0  0  0
   -0.1017    2.1757   -2.2985 C   0  0  0  0  0  0  0  0  0  0  0  0
    0.6806    1.3579   -2.8587 O   0  0  0  0  0  0  0  0  0  0  0  0
   -1.3321    1.6937   -1.6087 C   0  0  0  0  0  0  0  0  0  0  0  0
   -2.5104    1.9057   -2.4508 N   0  0  0  0  0  0  0  0  0  0  0  0
   -3.8704    1.8114   -1.9859 C   0  0  0  0  0  0  0  0  0  0  0  0
   -4.7999    2.0480   -2.8098 O   0  0  0  0  0  0  0  0  0  0  0  0
   -4.2383    1.4781   -0.5470 C   0  0  1  0  0  0  0  0  0  0  0  0
   -5.2500    2.5184   -0.0115 C   0  0  0  0  0  0  0  0  0  0  0  0
   -5.5522    2.3179    1.4504 C   0  0  0  0  0  0  0  0  0  0  0  0
   -6.7889    1.7853    1.8561 C   0  0  0  0  0  0  0  0  0  0  0  0
   -7.0492    1.5683    3.2130 C   0  0  0  0  0  0  0  0  0  0  0  0
   -6.0788    1.8744    4.1707 C   0  0  0  0  0  0  0  0  0  0  0  0
   -4.8505    2.4118    3.7763 C   0  0  0  0  0  0  0  0  0  0  0  0
   -4.5864    2.6355    2.4215 C   0  0  0  0  0  0  0  0  0  0  0  0
   -4.7605    0.0985   -0.4258 N   0  0  0  0  0  0  0  0  0  0  0  0
   -5.8756   -0.3697   -1.2566 C   0  0  0  0  0  0  0  0  0  0  0  0
   -4.4133   -0.6985    0.7242 C   0  0  0  0  0  0  0  0  0  0  0  0
   -5.2384   -0.8051    1.6713 O   0  0  0  0  0  0  0  0  0  0  0  0
   -3.1216   -1.4751    0.7889 C   0  0  2  0  0  0  0  0  0  0  0  0
   -1.9939   -0.6673    1.4319 C   0  0  0  0  0  0  0  0  0  0  0  0
   -2.7371   -1.9284   -0.5524 N   0  0  0  0  0  0  0  0  0  0  0  0
   -2.8962   -3.2797   -1.0169 C   0  0  0  0  0  0  0  0  0  0  0  0
   -3.2209   -3.4754   -2.2209 O   0  0  0  0  0  0  0  0  0  0  0  0
   -2.6189   -4.4720   -0.1333 C   0  0  1  0  0  0  0  0  0  0  0  0
   -3.9132   -5.3049    0.1199 C   0  0  1  0  0  0  0  0  0  0  0  0
   -3.6037   -6.5226    1.0101 C   0  0  0  0  0  0  0  0  0  0  0  0
   -5.0425   -4.4481    0.7502 C   0  0  0  0  0  0  0  0  0  0  0  0
   -6.3919   -5.1674    0.8143 C   0  0  0  0  0  0  0  0  0  0  0  0
   -1.6413   -5.2692   -0.8061 O   0  0  0  0  0  0  0  0  0  0  0  0
   -0.5012   -5.7873   -0.1799 C   0  0  0  0  0  0  0  0  0  0  0  0
   -0.4768   -7.0215    0.0852 O   0  0  0  0  0  0  0  0  0  0  0  0
    0.7028   -4.9467    0.0978 C   0  0  0  0  0  0  0  0  0  0  0  0
    1.9290   -5.6170    0.6889 C   0  0  0  0  0  0  0  0  0  0  0  0
    0.7096   -3.6295   -0.1952 C   0  0  0  0  0  0  0  0  0  0  0  0
    1.8856   -2.6984    0.0447 C   0  0  0  0  0  0  0  0  0  0  0  0
    2.5992   -2.2516   -1.2650 C   0  0  2  0  0  0  0  0  0  0  0  0
    2.2978   -3.1387   -2.3174 O   0  0  0  0  0  0  0  0  0  0  0  0
    4.1523   -2.1166   -1.1287 C   0  0  2  0  0  0  0  0  0  0  0  0
    4.8139   -3.4833   -0.8369 C   0  0  0  0  0  0  0  0  0  0  0  0
    7.1439    0.7112    3.9879 H   0  0  0  0  0  0  0  0  0  0  0  0
    8.9241    0.6277    3.7006 H   0  0  0  0  0  0  0  0  0  0  0  0
    7.9426    1.8624    2.8336 H   0  0  0  0  0  0  0  0  0  0  0  0
    7.7694   -1.2038    2.4931 H   0  0  0  0  0  0  0  0  0  0  0  0
    8.5615   -0.0471    1.3580 H   0  0  0  0  0  0  0  0  0  0  0  0
    6.3442    1.0881    0.9907 H   0  0  0  0  0  0  0  0  0  0  0  0
    5.5733   -0.0321    2.1624 H   0  0  0  0  0  0  0  0  0  0  0  0
    6.3962   -1.9534    0.6398 H   0  0  0  0  0  0  0  0  0  0  0  0
    8.0682   -0.9138   -0.7168 H   0  0  0  0  0  0  0  0  0  0  0  0
    6.9755    0.4102   -1.2453 H   0  0  0  0  0  0  0  0  0  0  0  0
    6.7370   -1.2851   -1.8378 H   0  0  0  0  0  0  0  0  0  0  0  0
    4.0935   -1.3125    0.8637 H   0  0  0  0  0  0  0  0  0  0  0  0
    3.0038    2.4394   -2.5237 H   0  0  0  0  0  0  0  0  0  0  0  0
    4.5399    4.4516   -2.0155 H   0  0  0  0  0  0  0  0  0  0  0  0
    5.7759    3.2533   -1.4718 H   0  0  0  0  0  0  0  0  0  0  0  0
    5.1598    3.2122   -3.1628 H   0  0  0  0  0  0  0  0  0  0  0  0
    4.9186    2.7824    0.6507 H   0  0  0  0  0  0  0  0  0  0  0  0
    3.4347    2.2838    1.5462 H   0  0  0  0  0  0  0  0  0  0  0  0
    3.7683    4.0343    1.2140 H   0  0  0  0  0  0  0  0  0  0  0  0
    2.0473    4.4820   -2.2553 H   0  0  0  0  0  0  0  0  0  0  0  0
    1.3564    5.9360   -0.1952 H   0  0  0  0  0  0  0  0  0  0  0  0
    1.8093    6.7957   -2.4836 H   0  0  0  0  0  0  0  0  0  0  0  0
    0.4977    7.7059   -1.6803 H   0  0  0  0  0  0  0  0  0  0  0  0
    0.0907    6.4941   -2.9544 H   0  0  0  0  0  0  0  0  0  0  0  0
   -0.9138    4.5753    0.0917 H   0  0  0  0  0  0  0  0  0  0  0  0
   -1.5065    5.5145   -1.2976 H   0  0  0  0  0  0  0  0  0  0  0  0
   -0.3876    6.7054    1.3279 H   0  0  0  0  0  0  0  0  0  0  0  0
   -2.1292    6.4926    0.9185 H   0  0  0  0  0  0  0  0  0  0  0  0
   -1.1278    7.6371   -0.0388 H   0  0  0  0  0  0  0  0  0  0  0  0
   -0.3868    4.1320   -3.0596 H   0  0  0  0  0  0  0  0  0  0  0  0
   -1.2257    0.6131   -1.3819 H   0  0  0  0  0  0  0  0  0  0  0  0
   -1.4261    2.2679   -0.6669 H   0  0  0  0  0  0  0  0  0  0  0  0
   -2.3742    2.1629   -3.4546 H   0  0  0  0  0  0  0  0  0  0  0  0
   -3.3443    1.5713    0.0851 H   0  0  0  0  0  0  0  0  0  0  0  0
   -6.1910    2.4911   -0.6053 H   0  0  0  0  0  0  0  0  0  0  0  0
   -4.8258    3.5397   -0.1423 H   0  0  0  0  0  0  0  0  0  0  0  0
   -7.5412    1.5227    1.1243 H   0  0  0  0  0  0  0  0  0  0  0  0
   -7.9983    1.1491    3.5205 H   0  0  0  0  0  0  0  0  0  0  0  0
   -6.2798    1.7031    5.2221 H   0  0  0  0  0  0  0  0  0  0  0  0
   -4.1021    2.6542    4.5191 H   0  0  0  0  0  0  0  0  0  0  0  0
   -3.6329    3.0582    2.1276 H   0  0  0  0  0  0  0  0  0  0  0  0
   -5.6008   -0.3294   -2.3320 H   0  0  0  0  0  0  0  0  0  0  0  0
   -6.7777    0.2495   -1.0771 H   0  0  0  0  0  0  0  0  0  0  0  0
   -6.1292   -1.4297   -1.0254 H   0  0  0  0  0  0  0  0  0  0  0  0
   -3.2934   -2.3414    1.4521 H   0  0  0  0  0  0  0  0  0  0  0  0
   -2.3032   -0.3179    2.4389 H   0  0  0  0  0  0  0  0  0  0  0  0
   -1.0954   -1.3126    1.5446 H   0  0  0  0  0  0  0  0  0  0  0  0
   -1.7141    0.2078    0.8171 H   0  0  0  0  0  0  0  0  0  0  0  0
   -2.5752   -1.2018   -1.2865 H   0  0  0  0  0  0  0  0  0  0  0  0
   -2.2014   -4.1353    0.8390 H   0  0  0  0  0  0  0  0  0  0  0  0
   -4.2726   -5.6869   -0.8637 H   0  0  0  0  0  0  0  0  0  0  0  0
   -3.1226   -6.2043    1.9578 H   0  0  0  0  0  0  0  0  0  0  0  0
   -4.5231   -7.0984    1.2469 H   0  0  0  0  0  0  0  0  0  0  0  0
   -2.9351   -7.2289    0.4774 H   0  0  0  0  0  0  0  0  0  0  0  0
   -5.2057   -3.5348    0.1420 H   0  0  0  0  0  0  0  0  0  0  0  0
   -4.7573   -4.1305    1.7777 H   0  0  0  0  0  0  0  0  0  0  0  0
   -6.4154   -5.8936    1.6580 H   0  0  0  0  0  0  0  0  0  0  0  0
   -7.2001   -4.4224    0.9967 H   0  0  0  0  0  0  0  0  0  0  0  0
   -6.6109   -5.6954   -0.1421 H   0  0  0  0  0  0  0  0  0  0  0  0
    1.8396   -6.7234    0.7156 H   0  0  0  0  0  0  0  0  0  0  0  0
    2.8245   -5.3893    0.0801 H   0  0  0  0  0  0  0  0  0  0  0  0
    2.0841   -5.2659    1.7320 H   0  0  0  0  0  0  0  0  0  0  0  0
   -0.1515   -3.1871   -0.6709 H   0  0  0  0  0  0  0  0  0  0  0  0
    2.5985   -3.1344    0.7705 H   0  0  0  0  0  0  0  0  0  0  0  0
    1.4946   -1.7917    0.5588 H   0  0  0  0  0  0  0  0  0  0  0  0
    2.1845   -1.2454   -1.5241 H   0  0  0  0  0  0  0  0  0  0  0  0
    2.4469   -2.6423   -3.1661 H   0  0  0  0  0  0  0  0  0  0  0  0
    4.5228   -1.8204   -2.1297 H   0  0  0  0  0  0  0  0  0  0  0  0
    4.3812   -4.2837   -1.4740 H   0  0  0  0  0  0  0  0  0  0  0  0
    5.8975   -3.4471   -1.0761 H   0  0  0  0  0  0  0  0  0  0  0  0
    4.7024   -3.7695    0.2302 H   0  0  0  0  0  0  0  0  0  0  0  0
  1  2  1  0
  2  3  1  0
  3  4  1  0
  4  5  1  0
  4  6  1  0
  6  7  1  0
  7  8  1  0
  8  9  2  0
  8 10  1  0
 10 11  1  0
 10 12  1  0
 12 13  1  0
 12 14  1  0
 14 15  2  0
 14 16  1  0
 16 17  1  0
 17 18  1  0
 17 19  1  0
 19 20  1  0
 16 21  1  0
 21 22  1  0
 22 23  2  0
 22 24  1  0
 24 25  1  0
 25 26  1  0
 26 27  2  0
 26 28  1  0
 28 29  1  0
 29 30  1  0
 30 31  2  0
 31 32  1  0
 32 33  2  0
 33 34  1  0
 34 35  2  0
 28 36  1  0
 36 37  1  0
 36 38  1  0
 38 39  2  0
 38 40  1  0
 40 41  1  0
 40 42  1  0
 42 43  1  0
 43 44  2  0
 43 45  1  0
 45 46  1  0
 46 47  1  0
 46 48  1  0
 48 49  1  0
 45 50  1  0
 50 51  1  0
 51 52  2  0
 51 53  1  0
 53 54  1  0
 53 55  2  0
 55 56  1  0
 56 57  1  0
 57 58  1  0
 57 59  1  0
 59 60  1  0
 59  6  1  0
 35 30  1  0
  1 61  1  0
  1 62  1  0
  1 63  1  0
  2 64  1  0
  2 65  1  0
  3 66  1  0
  3 67  1  0
  4 68  1  1
  5 69  1  0
  5 70  1  0
  5 71  1  0
  6 72  1  1
 10 73  1  6
 11 74  1  0
 11 75  1  0
 11 76  1  0
 13 77  1  0
 13 78  1  0
 13 79  1  0
 16 80  1  6
 17 81  1  1
 18 82  1  0
 18 83  1  0
 18 84  1  0
 19 85  1  0
 19 86  1  0
 20 87  1  0
 20 88  1  0
 20 89  1  0
 21 90  1  0
 24 91  1  0
 24 92  1  0
 25 93  1  0
 28 94  1  1
 29 95  1  0
 29 96  1  0
 31 97  1  0
 32 98  1  0
 33 99  1  0
 34100  1  0
 35101  1  0
 37102  1  0
 37103  1  0
 37104  1  0
 40105  1  1
 41106  1  0
 41107  1  0
 41108  1  0
 42109  1  0
 45110  1  1
 46111  1  6
 47112  1  0
 47113  1  0
 47114  1  0
 48115  1  0
 48116  1  0
 49117  1  0
 49118  1  0
 49119  1  0
 54120  1  0
 54121  1  0
 54122  1  0
 55123  1  0
 56124  1  0
 56125  1  0
 57126  1  6
 58127  1  0
 59128  1  6
 60129  1  0
 60130  1  0
 60131  1  0
M  END
$$$$
