
     RDKit          3D

 48 51  0  0  0  0  0  0  0  0999 V2000
    5.4354    2.7083    0.0206 C   0  0  0  0  0  0  0  0  0  0  0  0
    5.0889    1.2927    0.0021 N   0  0  0  0  0  0  0  0  0  0  0  0
    3.7462    0.8501   -0.2398 C   0  0  0  0  0  0  0  0  0  0  0  0
    2.7393    1.7498   -0.4610 N   0  0  0  0  0  0  0  0  0  0  0  0
    1.4485    1.3495   -0.6959 C   0  0  0  0  0  0  0  0  0  0  0  0
    1.1373    0.0168   -0.7250 N   0  0  0  0  0  0  0  0  0  0  0  0
    2.1281   -0.8796   -0.5028 C   0  0  0  0  0  0  0  0  0  0  0  0
    3.4094   -0.5012   -0.2600 C   0  0  0  0  0  0  0  0  0  0  0  0
    4.1793   -1.5928   -0.0980 N   0  0  0  0  0  0  0  0  0  0  0  0
    3.3096   -2.6219   -0.2568 C   0  0  0  0  0  0  0  0  0  0  0  0
    3.6623   -3.8306   -0.2077 O   0  0  0  0  0  0  0  0  0  0  0  0
    2.0315   -2.2227   -0.4896 N   0  0  0  0  0  0  0  0  0  0  0  0
    0.8810   -3.0631   -0.8343 C   0  0  0  0  0  0  0  0  0  0  0  0
   -0.3759   -2.5551   -0.1795 C   0  0  0  0  0  0  0  0  0  0  0  0
   -0.5387   -2.6647    1.2084 C   0  0  0  0  0  0  0  0  0  0  0  0
   -1.6823   -2.1511    1.8230 C   0  0  0  0  0  0  0  0  0  0  0  0
   -2.6651   -1.5139    1.0609 C   0  0  0  0  0  0  0  0  0  0  0  0
   -2.5051   -1.3775   -0.3316 C   0  0  0  0  0  0  0  0  0  0  0  0
   -1.3660   -1.9149   -0.9419 C   0  0  0  0  0  0  0  0  0  0  0  0
   -3.4446   -0.7315   -1.1509 O   0  0  0  0  0  0  0  0  0  0  0  0
   -4.4662    0.1674   -0.7163 C   0  0  0  0  0  0  0  0  0  0  0  0
   -3.9294    1.5981   -0.6049 C   0  0  0  0  0  0  0  0  0  0  0  0
   -2.9901    1.7420    0.5197 N   0  0  0  0  0  0  0  0  0  0  0  0
   -3.5280    1.8655    1.8788 C   0  0  0  0  0  0  0  0  0  0  0  0
   -1.5556    1.7743    0.3368 C   0  0  0  0  0  0  0  0  0  0  0  0
   -0.8016    1.5967    1.3331 O   0  0  0  0  0  0  0  0  0  0  0  0
   -0.9318    2.0236   -1.0136 C   0  0  0  0  0  0  0  0  0  0  0  0
    0.4610    2.3193   -0.8985 O   0  0  0  0  0  0  0  0  0  0  0  0
    6.5202    2.8291    0.2246 H   0  0  0  0  0  0  0  0  0  0  0  0
    4.8608    3.2263    0.8171 H   0  0  0  0  0  0  0  0  0  0  0  0
    5.2024    3.1660   -0.9639 H   0  0  0  0  0  0  0  0  0  0  0  0
    5.8473    0.5953    0.1720 H   0  0  0  0  0  0  0  0  0  0  0  0
    5.2060   -1.6473    0.0826 H   0  0  0  0  0  0  0  0  0  0  0  0
    0.7713   -3.0896   -1.9400 H   0  0  0  0  0  0  0  0  0  0  0  0
    1.0594   -4.1072   -0.4970 H   0  0  0  0  0  0  0  0  0  0  0  0
    0.2219   -3.1438    1.8126 H   0  0  0  0  0  0  0  0  0  0  0  0
   -1.8070   -2.2455    2.8940 H   0  0  0  0  0  0  0  0  0  0  0  0
   -3.5419   -1.1447    1.5686 H   0  0  0  0  0  0  0  0  0  0  0  0
   -1.2416   -1.8069   -2.0126 H   0  0  0  0  0  0  0  0  0  0  0  0
   -4.9492   -0.1656    0.2234 H   0  0  0  0  0  0  0  0  0  0  0  0
   -5.2621    0.1680   -1.4906 H   0  0  0  0  0  0  0  0  0  0  0  0
   -3.4681    1.8855   -1.5703 H   0  0  0  0  0  0  0  0  0  0  0  0
   -4.7860    2.2915   -0.4576 H   0  0  0  0  0  0  0  0  0  0  0  0
   -3.2399    2.8495    2.3049 H   0  0  0  0  0  0  0  0  0  0  0  0
   -3.1232    1.0593    2.5252 H   0  0  0  0  0  0  0  0  0  0  0  0
   -4.6365    1.7920    1.8839 H   0  0  0  0  0  0  0  0  0  0  0  0
   -1.4219    2.9067   -1.4728 H   0  0  0  0  0  0  0  0  0  0  0  0
   -1.0894    1.1481   -1.6793 H   0  0  0  0  0  0  0  0  0  0  0  0
  1  2  1  0
  2  3  1  0
  3  4  2  0
  4  5  1  0
  5  6  2  0
  6  7  1  0
  7  8  2  0
  8  9  1  0
  9 10  1  0
 10 11  2  0
 10 12  1  0
 12 13  1  0
 13 14  1  0
 14 15  1  0
 15 16  2  0
 16 17  1  0
 17 18  2  0
 18 19  1  0
 18 20  1  0
 20 21  1  0
 21 22  1  0
 22 23  1  0
 23 24  1  0
 23 25  1  0
 25 26  2  0
 25 27  1  0
 27 28  1  0
  8  3  1  0
 19 14  2  0
 28  5  1  0
 12  7  1  0
  1 29  1  0
  1 30  1  0
  1 31  1  0
  2 32  1  0
  9 33  1  0
 13 34  1  0
 13 35  1  0
 15 36  1  0
 16 37  1  0
 17 38  1  0
 19 39  1  0
 21 40  1  0
 21 41  1  0
 22 42  1  0
 22 43  1  0
 24 44  1  0
 24 45  1  0
 24 46  1  0
 27 47  1  0
 27 48  1  0
M  END
$$$$
