
     RDKit          3D

 45 48  0  0  0  0  0  0  0  0999 V2000
   -1.4517    1.7951   -1.3879 C   0  0  0  0  0  0  0  0  0  0  0  0
   -1.5076    0.8779   -0.1569 C   0  0  1  0  0  0  0  0  0  0  0  0
   -1.8974    1.6497    1.1266 C   0  0  0  0  0  0  0  0  0  0  0  0
   -0.7961    2.5797    1.6685 C   0  0  0  0  0  0  0  0  0  0  0  0
    0.3765    1.8206    2.3209 C   0  0  0  0  0  0  0  0  0  0  0  0
    1.6146    2.1736    1.7034 O   0  0  0  0  0  0  0  0  0  0  0  0
    2.0095    1.6493    0.4689 C   0  0  0  0  0  0  0  0  0  0  0  0
    2.0692    2.5091   -0.6344 C   0  0  0  0  0  0  0  0  0  0  0  0
    2.3773    2.0123   -1.9021 C   0  0  0  0  0  0  0  0  0  0  0  0
    2.4028    2.8475   -2.9697 F   0  0  0  0  0  0  0  0  0  0  0  0
    2.6518    0.6549   -2.0712 C   0  0  0  0  0  0  0  0  0  0  0  0
    2.6418   -0.2046   -0.9702 C   0  0  0  0  0  0  0  0  0  0  0  0
    2.3320    0.2807    0.3137 C   0  0  0  0  0  0  0  0  0  0  0  0
    2.4462   -0.6226    1.4848 C   0  0  0  0  0  0  0  0  0  0  0  0
    2.8604   -0.1651    2.5837 O   0  0  0  0  0  0  0  0  0  0  0  0
    2.1825   -2.0271    1.3771 N   0  0  0  0  0  0  0  0  0  0  0  0
    1.1113   -2.5688    0.5933 C   0  0  0  0  0  0  0  0  0  0  0  0
    1.2000   -3.8779    0.1094 C   0  0  0  0  0  0  0  0  0  0  0  0
    0.1487   -4.4031   -0.6383 C   0  0  0  0  0  0  0  0  0  0  0  0
   -0.9869   -3.6304   -0.8783 C   0  0  0  0  0  0  0  0  0  0  0  0
   -1.0618   -2.3231   -0.3677 C   0  0  0  0  0  0  0  0  0  0  0  0
   -0.0138   -1.8354    0.3542 N   0  0  0  0  0  0  0  0  0  0  0  0
   -2.3137   -1.5421   -0.5389 C   0  0  0  0  0  0  0  0  0  0  0  0
   -3.4858   -2.1375   -0.8416 N   0  0  0  0  0  0  0  0  0  0  0  0
   -4.4112   -1.1941   -0.8967 N   0  0  0  0  0  0  0  0  0  0  0  0
   -3.7990   -0.0290   -0.6271 C   0  0  0  0  0  0  0  0  0  0  0  0
   -2.4799   -0.2016   -0.3965 N   0  0  0  0  0  0  0  0  0  0  0  0
   -2.4194    2.3186   -1.5379 H   0  0  0  0  0  0  0  0  0  0  0  0
   -1.2299    1.1908   -2.2932 H   0  0  0  0  0  0  0  0  0  0  0  0
   -0.6526    2.5545   -1.2855 H   0  0  0  0  0  0  0  0  0  0  0  0
   -0.4979    0.4599   -0.0279 H   0  0  0  0  0  0  0  0  0  0  0  0
   -2.1722    0.9230    1.9230 H   0  0  0  0  0  0  0  0  0  0  0  0
   -2.8052    2.2597    0.9260 H   0  0  0  0  0  0  0  0  0  0  0  0
   -1.2579    3.2349    2.4394 H   0  0  0  0  0  0  0  0  0  0  0  0
   -0.4354    3.2614    0.8713 H   0  0  0  0  0  0  0  0  0  0  0  0
    0.4364    2.1025    3.3937 H   0  0  0  0  0  0  0  0  0  0  0  0
    0.2247    0.7207    2.2916 H   0  0  0  0  0  0  0  0  0  0  0  0
    1.8394    3.5600   -0.5123 H   0  0  0  0  0  0  0  0  0  0  0  0
    2.8944    0.2702   -3.0534 H   0  0  0  0  0  0  0  0  0  0  0  0
    2.9089   -1.2431   -1.1194 H   0  0  0  0  0  0  0  0  0  0  0  0
    2.7655   -2.6812    1.9469 H   0  0  0  0  0  0  0  0  0  0  0  0
    2.0800   -4.4790    0.3013 H   0  0  0  0  0  0  0  0  0  0  0  0
    0.2097   -5.4123   -1.0247 H   0  0  0  0  0  0  0  0  0  0  0  0
   -1.8024   -4.0554   -1.4501 H   0  0  0  0  0  0  0  0  0  0  0  0
   -4.3059    0.9270   -0.6158 H   0  0  0  0  0  0  0  0  0  0  0  0
  1  2  1  0
  2  3  1  0
  3  4  1  0
  4  5  1  0
  5  6  1  0
  6  7  1  0
  7  8  2  0
  8  9  1  0
  9 10  1  0
  9 11  2  0
 11 12  1  0
 12 13  2  0
 13 14  1  0
 14 15  2  0
 14 16  1  0
 16 17  1  0
 17 18  1  0
 18 19  2  0
 19 20  1  0
 20 21  2  0
 21 22  1  0
 21 23  1  0
 23 24  2  0
 24 25  1  0
 25 26  2  0
 26 27  1  0
 27  2  1  0
 13  7  1  0
 22 17  2  0
 27 23  1  0
  1 28  1  0
  1 29  1  0
  1 30  1  0
  2 31  1  1
  3 32  1  0
  3 33  1  0
  4 34  1  0
  4 35  1  0
  5 36  1  0
  5 37  1  0
  8 38  1  0
 11 39  1  0
 12 40  1  0
 16 41  1  0
 18 42  1  0
 19 43  1  0
 20 44  1  0
 26 45  1  0
M  END
$$$$
