
     RDKit          3D

 45 48  0  0  0  0  0  0  0  0999 V2000
   -3.3425    0.0994   -0.5538 C   0  0  0  0  0  0  0  0  0  0  0  0
   -2.3427   -0.5022    0.4396 C   0  0  1  0  0  0  0  0  0  0  0  0
   -1.0711   -1.0066   -0.2615 C   0  0  0  0  0  0  0  0  0  0  0  0
   -1.1255   -2.4649   -0.7281 C   0  0  0  0  0  0  0  0  0  0  0  0
    0.0699   -2.7951   -1.6449 C   0  0  0  0  0  0  0  0  0  0  0  0
    1.2726   -3.0718   -0.9154 O   0  0  0  0  0  0  0  0  0  0  0  0
    1.9007   -2.2041   -0.0063 C   0  0  0  0  0  0  0  0  0  0  0  0
    2.0964   -2.6810    1.2967 C   0  0  0  0  0  0  0  0  0  0  0  0
    2.6551   -1.8646    2.2800 C   0  0  0  0  0  0  0  0  0  0  0  0
    3.0469   -0.5648    1.9673 C   0  0  0  0  0  0  0  0  0  0  0  0
    2.8961   -0.0825    0.6666 C   0  0  0  0  0  0  0  0  0  0  0  0
    2.3250   -0.8864   -0.3382 C   0  0  0  0  0  0  0  0  0  0  0  0
    2.2936   -0.3675   -1.7250 C   0  0  0  0  0  0  0  0  0  0  0  0
    2.5703   -1.1505   -2.6730 O   0  0  0  0  0  0  0  0  0  0  0  0
    2.0824    1.0264   -2.0207 N   0  0  0  0  0  0  0  0  0  0  0  0
    1.1734    1.8982   -1.3196 C   0  0  0  0  0  0  0  0  0  0  0  0
    1.0142    3.2250   -1.7415 C   0  0  0  0  0  0  0  0  0  0  0  0
    0.0811    4.0428   -1.1014 C   0  0  0  0  0  0  0  0  0  0  0  0
   -0.6981    3.5318   -0.0620 C   0  0  0  0  0  0  0  0  0  0  0  0
   -0.5369    2.1954    0.3252 C   0  0  0  0  0  0  0  0  0  0  0  0
    0.4112    1.4365   -0.2898 N   0  0  0  0  0  0  0  0  0  0  0  0
   -1.3228    1.6533    1.4550 C   0  0  0  0  0  0  0  0  0  0  0  0
   -1.4508    2.3252    2.6156 N   0  0  0  0  0  0  0  0  0  0  0  0
   -2.2254    1.6002    3.4063 N   0  0  0  0  0  0  0  0  0  0  0  0
   -2.5685    0.4958    2.7198 C   0  0  0  0  0  0  0  0  0  0  0  0
   -2.0195    0.4845    1.4888 N   0  0  0  0  0  0  0  0  0  0  0  0
   -4.2633    0.4122   -0.0173 H   0  0  0  0  0  0  0  0  0  0  0  0
   -3.6224   -0.6518   -1.3222 H   0  0  0  0  0  0  0  0  0  0  0  0
   -2.9070    0.9878   -1.0590 H   0  0  0  0  0  0  0  0  0  0  0  0
   -2.8370   -1.3762    0.9220 H   0  0  0  0  0  0  0  0  0  0  0  0
   -0.8762   -0.3789   -1.1551 H   0  0  0  0  0  0  0  0  0  0  0  0
   -0.2419   -0.9138    0.4633 H   0  0  0  0  0  0  0  0  0  0  0  0
   -1.1340   -3.1497    0.1476 H   0  0  0  0  0  0  0  0  0  0  0  0
   -2.0630   -2.6250   -1.3034 H   0  0  0  0  0  0  0  0  0  0  0  0
    0.2284   -1.9941   -2.3936 H   0  0  0  0  0  0  0  0  0  0  0  0
   -0.1848   -3.7095   -2.2210 H   0  0  0  0  0  0  0  0  0  0  0  0
    1.7845   -3.6853    1.5547 H   0  0  0  0  0  0  0  0  0  0  0  0
    2.7838   -2.2408    3.2867 H   0  0  0  0  0  0  0  0  0  0  0  0
    3.4868    0.0650    2.7297 H   0  0  0  0  0  0  0  0  0  0  0  0
    3.2509    0.9152    0.4393 H   0  0  0  0  0  0  0  0  0  0  0  0
    2.5072    1.3844   -2.9063 H   0  0  0  0  0  0  0  0  0  0  0  0
    1.6023    3.6192   -2.5606 H   0  0  0  0  0  0  0  0  0  0  0  0
   -0.0440    5.0707   -1.4165 H   0  0  0  0  0  0  0  0  0  0  0  0
   -1.4243    4.1681    0.4288 H   0  0  0  0  0  0  0  0  0  0  0  0
   -3.2309   -0.2696    3.1033 H   0  0  0  0  0  0  0  0  0  0  0  0
  1  2  1  0
  2  3  1  0
  3  4  1  0
  4  5  1  0
  5  6  1  0
  6  7  1  0
  7  8  2  0
  8  9  1  0
  9 10  2  0
 10 11  1  0
 11 12  2  0
 12 13  1  0
 13 14  2  0
 13 15  1  0
 15 16  1  0
 16 17  1  0
 17 18  2  0
 18 19  1  0
 19 20  2  0
 20 21  1  0
 20 22  1  0
 22 23  2  0
 23 24  1  0
 24 25  2  0
 25 26  1  0
 26  2  1  0
 12  7  1  0
 21 16  2  0
 26 22  1  0
  1 27  1  0
  1 28  1  0
  1 29  1  0
  2 30  1  1
  3 31  1  0
  3 32  1  0
  4 33  1  0
  4 34  1  0
  5 35  1  0
  5 36  1  0
  8 37  1  0
  9 38  1  0
 10 39  1  0
 11 40  1  0
 15 41  1  0
 17 42  1  0
 18 43  1  0
 19 44  1  0
 25 45  1  0
M  END
$$$$
