
     RDKit          3D

 59 62  0  0  0  0  0  0  0  0999 V2000
   -0.3380   -2.7836    1.0975 O   0  0  0  0  0  0  0  0  0  0  0  0
   -0.0371   -1.5586    1.0696 C   0  0  0  0  0  0  0  0  0  0  0  0
   -0.7377   -0.6550    2.0445 C   0  0  0  0  0  0  0  0  0  0  0  0
   -1.8194    0.0004    1.3936 O   0  0  0  0  0  0  0  0  0  0  0  0
   -3.1052   -0.5132    1.1434 C   0  0  0  0  0  0  0  0  0  0  0  0
   -3.6393   -1.5832    1.8865 C   0  0  0  0  0  0  0  0  0  0  0  0
   -4.9382   -2.0330    1.6420 C   0  0  0  0  0  0  0  0  0  0  0  0
   -5.7159   -1.4302    0.6542 C   0  0  0  0  0  0  0  0  0  0  0  0
   -5.1952   -0.3815   -0.1054 C   0  0  0  0  0  0  0  0  0  0  0  0
   -3.8905    0.0893    0.1251 C   0  0  0  0  0  0  0  0  0  0  0  0
   -3.2985    1.1386   -0.8082 C   0  0  1  0  0  0  0  0  0  0  0  0
   -2.8607    2.4108   -0.0174 C   0  0  0  0  0  0  0  0  0  0  0  0
   -1.7979    3.2609   -0.7252 C   0  0  0  0  0  0  0  0  0  0  0  0
   -0.6565    2.4017   -1.2790 C   0  0  2  0  0  0  0  0  0  0  0  0
   -1.2482    1.4597   -2.3352 C   0  0  0  0  0  0  0  0  0  0  0  0
   -2.2025    0.4649   -1.6801 C   0  0  0  0  0  0  0  0  0  0  0  0
   -0.0624    1.6569   -0.2207 O   0  0  0  0  0  0  0  0  0  0  0  0
    1.2925    1.3614   -0.4983 C   0  0  0  0  0  0  0  0  0  0  0  0
    1.7530    0.1054    0.2826 C   0  0  0  0  0  0  0  0  0  0  0  0
    3.2187   -0.2607   -0.0428 C   0  0  1  0  0  0  0  0  0  0  0  0
    3.6935   -1.2284    0.9655 N   0  0  0  0  0  0  0  0  0  0  0  0
    5.3936   -1.0437    1.2927 S   0  0  0  0  0  6  0  0  0  0  0  0
    6.1619   -0.8332    0.0176 O   0  0  0  0  0  0  0  0  0  0  0  0
    5.9011   -2.2837    1.9731 O   0  0  0  0  0  0  0  0  0  0  0  0
    5.6427    0.3498    2.3722 C   0  0  0  0  0  0  0  0  0  0  0  0
    6.9802    0.4446    2.7066 F   0  0  0  0  0  0  0  0  0  0  0  0
    3.3894   -0.8130   -1.4881 C   0  0  0  0  0  0  0  0  0  0  0  0
    2.1094   -1.3970   -2.1142 C   0  0  0  0  0  0  0  0  0  0  0  0
    1.1383   -1.9767   -1.0834 C   0  0  0  0  0  0  0  0  0  0  0  0
    0.8786   -1.0705    0.0523 N   0  0  0  0  0  0  0  0  0  0  0  0
   -1.0795   -1.2198    2.9347 H   0  0  0  0  0  0  0  0  0  0  0  0
   -0.0552    0.1171    2.4411 H   0  0  0  0  0  0  0  0  0  0  0  0
   -3.0727   -2.0670    2.6671 H   0  0  0  0  0  0  0  0  0  0  0  0
   -5.3445   -2.8509    2.2231 H   0  0  0  0  0  0  0  0  0  0  0  0
   -6.7210   -1.7855    0.4673 H   0  0  0  0  0  0  0  0  0  0  0  0
   -5.8068    0.0512   -0.8873 H   0  0  0  0  0  0  0  0  0  0  0  0
   -4.0810    1.4854   -1.5208 H   0  0  0  0  0  0  0  0  0  0  0  0
   -3.7581    3.0452    0.1526 H   0  0  0  0  0  0  0  0  0  0  0  0
   -2.4830    2.1804    0.9953 H   0  0  0  0  0  0  0  0  0  0  0  0
   -1.3845    4.0023   -0.0071 H   0  0  0  0  0  0  0  0  0  0  0  0
   -2.2741    3.8335   -1.5519 H   0  0  0  0  0  0  0  0  0  0  0  0
    0.0693    3.0966   -1.7662 H   0  0  0  0  0  0  0  0  0  0  0  0
   -1.7897    2.0428   -3.1127 H   0  0  0  0  0  0  0  0  0  0  0  0
   -0.4382    0.9022   -2.8505 H   0  0  0  0  0  0  0  0  0  0  0  0
   -1.5956   -0.2517   -1.0907 H   0  0  0  0  0  0  0  0  0  0  0  0
   -2.6937   -0.1344   -2.4775 H   0  0  0  0  0  0  0  0  0  0  0  0
    1.4876    1.2317   -1.5811 H   0  0  0  0  0  0  0  0  0  0  0  0
    1.9101    2.2256   -0.1685 H   0  0  0  0  0  0  0  0  0  0  0  0
    1.7523    0.3807    1.3560 H   0  0  0  0  0  0  0  0  0  0  0  0
    3.8136    0.6775    0.0390 H   0  0  0  0  0  0  0  0  0  0  0  0
    3.5224   -2.2108    0.6504 H   0  0  0  0  0  0  0  0  0  0  0  0
    5.0413    0.2140    3.2944 H   0  0  0  0  0  0  0  0  0  0  0  0
    5.3257    1.2826    1.8629 H   0  0  0  0  0  0  0  0  0  0  0  0
    3.7493    0.0076   -2.1466 H   0  0  0  0  0  0  0  0  0  0  0  0
    4.1826   -1.5910   -1.5104 H   0  0  0  0  0  0  0  0  0  0  0  0
    2.3906   -2.1986   -2.8316 H   0  0  0  0  0  0  0  0  0  0  0  0
    1.5854   -0.6272   -2.7160 H   0  0  0  0  0  0  0  0  0  0  0  0
    0.1788   -2.2052   -1.5967 H   0  0  0  0  0  0  0  0  0  0  0  0
    1.5589   -2.9332   -0.7027 H   0  0  0  0  0  0  0  0  0  0  0  0
  1  2  2  0
  2  3  1  0
  3  4  1  0
  4  5  1  0
  5  6  2  0
  6  7  1  0
  7  8  2  0
  8  9  1  0
  9 10  2  0
 10 11  1  0
 11 12  1  0
 12 13  1  0
 13 14  1  0
 14 15  1  0
 15 16  1  0
 14 17  1  0
 17 18  1  0
 18 19  1  0
 19 20  1  0
 20 21  1  0
 21 22  1  0
 22 23  2  0
 22 24  2  0
 22 25  1  0
 25 26  1  0
 20 27  1  0
 27 28  1  0
 28 29  1  0
 29 30  1  0
 30  2  1  0
 10  5  1  0
 16 11  1  0
 30 19  1  0
  3 31  1  0
  3 32  1  0
  6 33  1  0
  7 34  1  0
  8 35  1  0
  9 36  1  0
 11 37  1  6
 12 38  1  0
 12 39  1  0
 13 40  1  0
 13 41  1  0
 14 42  1  6
 15 43  1  0
 15 44  1  0
 16 45  1  0
 16 46  1  0
 18 47  1  0
 18 48  1  0
 19 49  1  0
 20 50  1  6
 21 51  1  0
 25 52  1  0
 25 53  1  0
 27 54  1  0
 27 55  1  0
 28 56  1  0
 28 57  1  0
 29 58  1  0
 29 59  1  0
M  END
$$$$
