
     RDKit          3D

 75 77  0  0  0  0  0  0  0  0999 V2000
   -0.6725   -2.4259    1.5940 O   0  0  0  0  0  0  0  0  0  0  0  0
   -0.6380   -1.0122    1.6984 C   0  0  0  0  0  0  0  0  0  0  0  0
   -1.8217   -0.3365    0.9437 C   0  0  2  0  0  0  0  0  0  0  0  0
   -3.1059   -0.8198    1.5343 N   0  0  0  0  0  0  0  0  0  0  0  0
   -4.3461   -0.5888    0.7603 C   0  0  0  0  0  0  0  0  0  0  0  0
   -4.7708    0.8852    0.7307 C   0  0  0  0  0  0  0  0  0  0  0  0
   -6.1137    1.0346    0.0648 C   0  0  0  0  0  0  0  0  0  0  0  0
   -7.2934    1.0152    0.8262 C   0  0  0  0  0  0  0  0  0  0  0  0
   -8.5370    1.1311    0.1975 C   0  0  0  0  0  0  0  0  0  0  0  0
   -8.6106    1.2557   -1.1935 C   0  0  0  0  0  0  0  0  0  0  0  0
   -7.4414    1.2589   -1.9585 C   0  0  0  0  0  0  0  0  0  0  0  0
   -6.1970    1.1438   -1.3342 C   0  0  0  0  0  0  0  0  0  0  0  0
   -1.7322   -0.6649   -0.5721 C   0  0  0  0  0  0  0  0  0  0  0  0
   -1.6960    1.1603    1.1951 C   0  0  0  0  0  0  0  0  0  0  0  0
   -2.0791    1.6282    2.3023 O   0  0  0  0  0  0  0  0  0  0  0  0
   -1.1809    2.0657    0.2102 N   0  0  0  0  0  0  0  0  0  0  0  0
    0.2259    2.0603   -0.1889 C   0  0  0  0  0  0  0  0  0  0  0  0
    1.0571    2.9431    0.7045 C   0  0  0  0  0  0  0  0  0  0  0  0
    0.5102    3.5742    1.6490 O   0  0  0  0  0  0  0  0  0  0  0  0
    2.4671    3.1092    0.4676 N   0  0  0  0  0  0  0  0  0  0  0  0
    3.2570    2.2831   -0.4381 C   0  0  1  0  0  0  0  0  0  0  0  0
    4.6400    2.9413   -0.4970 C   0  0  0  0  0  0  0  0  0  0  0  0
    4.4849    4.3164    0.1485 C   0  0  0  0  0  0  0  0  0  0  0  0
    3.2045    4.2560    0.9699 C   0  0  0  0  0  0  0  0  0  0  0  0
    3.3706    0.8659    0.0639 C   0  0  0  0  0  0  0  0  0  0  0  0
    3.4140    0.6407    1.3045 O   0  0  0  0  0  0  0  0  0  0  0  0
    3.5452   -0.2100   -0.8683 N   0  0  0  0  0  0  0  0  0  0  0  0
    4.4169   -1.3452   -0.5592 C   0  0  1  0  0  0  0  0  0  0  0  0
    4.0987   -2.5459   -1.4685 C   0  0  0  0  0  0  0  0  0  0  0  0
    2.8686   -3.1374   -1.0873 O   0  0  0  0  0  0  0  0  0  0  0  0
    3.1032   -4.2986   -0.3142 C   0  0  0  0  0  0  0  0  0  0  0  0
    1.7823   -4.9027    0.1707 C   0  0  0  0  0  0  0  0  0  0  0  0
    1.0622   -4.0405    1.2233 C   0  0  0  0  0  0  0  0  0  0  0  0
    0.2064   -2.9331    0.6033 C   0  0  0  0  0  0  0  0  0  0  0  0
    5.8513   -0.9307   -0.7282 C   0  0  0  0  0  0  0  0  0  0  0  0
    6.7447   -1.0813    0.3275 O   0  0  0  0  0  0  0  0  0  0  0  0
    6.2550   -0.4714   -1.8294 O   0  0  0  0  0  0  0  0  0  0  0  0
   -0.7435   -0.7720    2.7794 H   0  0  0  0  0  0  0  0  0  0  0  0
    0.3444   -0.5688    1.4220 H   0  0  0  0  0  0  0  0  0  0  0  0
   -3.0511   -1.8541    1.6814 H   0  0  0  0  0  0  0  0  0  0  0  0
   -4.2747   -0.9982   -0.2690 H   0  0  0  0  0  0  0  0  0  0  0  0
   -5.1645   -1.1592    1.2564 H   0  0  0  0  0  0  0  0  0  0  0  0
   -4.0337    1.4907    0.1643 H   0  0  0  0  0  0  0  0  0  0  0  0
   -4.8118    1.2813    1.7691 H   0  0  0  0  0  0  0  0  0  0  0  0
   -7.2487    0.9130    1.9042 H   0  0  0  0  0  0  0  0  0  0  0  0
   -9.4439    1.1259    0.7880 H   0  0  0  0  0  0  0  0  0  0  0  0
   -9.5734    1.3479   -1.6785 H   0  0  0  0  0  0  0  0  0  0  0  0
   -7.5000    1.3498   -3.0359 H   0  0  0  0  0  0  0  0  0  0  0  0
   -5.2970    1.1396   -1.9379 H   0  0  0  0  0  0  0  0  0  0  0  0
   -2.3741    0.0189   -1.1691 H   0  0  0  0  0  0  0  0  0  0  0  0
   -0.6983   -0.5728   -0.9571 H   0  0  0  0  0  0  0  0  0  0  0  0
   -2.0614   -1.7082   -0.7634 H   0  0  0  0  0  0  0  0  0  0  0  0
   -1.6996    2.9636    0.0786 H   0  0  0  0  0  0  0  0  0  0  0  0
    0.2995    2.4352   -1.2292 H   0  0  0  0  0  0  0  0  0  0  0  0
    0.6365    1.0361   -0.1687 H   0  0  0  0  0  0  0  0  0  0  0  0
    2.7918    2.2995   -1.4483 H   0  0  0  0  0  0  0  0  0  0  0  0
    5.4002    2.3605    0.0749 H   0  0  0  0  0  0  0  0  0  0  0  0
    4.9880    3.0343   -1.5490 H   0  0  0  0  0  0  0  0  0  0  0  0
    5.3619    4.5676    0.7852 H   0  0  0  0  0  0  0  0  0  0  0  0
    4.3806    5.0880   -0.6471 H   0  0  0  0  0  0  0  0  0  0  0  0
    3.4345    4.1066    2.0478 H   0  0  0  0  0  0  0  0  0  0  0  0
    2.6165    5.1913    0.8354 H   0  0  0  0  0  0  0  0  0  0  0  0
    3.3166   -0.0190   -1.8705 H   0  0  0  0  0  0  0  0  0  0  0  0
    4.2611   -1.6572    0.4958 H   0  0  0  0  0  0  0  0  0  0  0  0
    4.0064   -2.2017   -2.5205 H   0  0  0  0  0  0  0  0  0  0  0  0
    4.9556   -3.2643   -1.4690 H   0  0  0  0  0  0  0  0  0  0  0  0
    3.7460   -4.0751    0.5688 H   0  0  0  0  0  0  0  0  0  0  0  0
    3.6102   -5.0692   -0.9398 H   0  0  0  0  0  0  0  0  0  0  0  0
    2.0182   -5.8831    0.6391 H   0  0  0  0  0  0  0  0  0  0  0  0
    1.1170   -5.1122   -0.6936 H   0  0  0  0  0  0  0  0  0  0  0  0
    0.3937   -4.7074    1.8127 H   0  0  0  0  0  0  0  0  0  0  0  0
    1.7923   -3.5940    1.9347 H   0  0  0  0  0  0  0  0  0  0  0  0
    0.8752   -2.1762    0.1345 H   0  0  0  0  0  0  0  0  0  0  0  0
   -0.4150   -3.3698   -0.2080 H   0  0  0  0  0  0  0  0  0  0  0  0
    7.7151   -0.8114    0.2271 H   0  0  0  0  0  0  0  0  0  0  0  0
  1  2  1  0
  2  3  1  0
  3  4  1  1
  4  5  1  0
  5  6  1  0
  6  7  1  0
  7  8  2  0
  8  9  1  0
  9 10  2  0
 10 11  1  0
 11 12  2  0
  3 13  1  0
  3 14  1  0
 14 15  2  0
 14 16  1  0
 16 17  1  0
 17 18  1  0
 18 19  2  0
 18 20  1  0
 20 21  1  0
 21 22  1  0
 22 23  1  0
 23 24  1  0
 21 25  1  0
 25 26  2  0
 25 27  1  0
 27 28  1  0
 28 29  1  0
 29 30  1  0
 30 31  1  0
 31 32  1  0
 32 33  1  0
 33 34  1  0
 28 35  1  0
 35 36  1  0
 35 37  2  0
 34  1  1  0
 12  7  1  0
 24 20  1  0
  2 38  1  0
  2 39  1  0
  4 40  1  0
  5 41  1  0
  5 42  1  0
  6 43  1  0
  6 44  1  0
  8 45  1  0
  9 46  1  0
 10 47  1  0
 11 48  1  0
 12 49  1  0
 13 50  1  0
 13 51  1  0
 13 52  1  0
 16 53  1  0
 17 54  1  0
 17 55  1  0
 21 56  1  6
 22 57  1  0
 22 58  1  0
 23 59  1  0
 23 60  1  0
 24 61  1  0
 24 62  1  0
 27 63  1  0
 28 64  1  1
 29 65  1  0
 29 66  1  0
 31 67  1  0
 31 68  1  0
 32 69  1  0
 32 70  1  0
 33 71  1  0
 33 72  1  0
 34 73  1  0
 34 74  1  0
 36 75  1  0
M  END
$$$$
