
     RDKit          3D

 86 91  0  0  0  0  0  0  0  0999 V2000
    1.3074    2.3230    1.9537 C   0  0  0  0  0  0  0  0  0  0  0  0
    1.1177    1.9835    0.4692 C   0  0  0  0  0  0  0  0  0  0  0  0
    1.0276    0.6048    0.1179 C   0  0  0  0  0  0  0  0  0  0  0  0
    1.3534    0.1905   -1.1450 C   0  0  0  0  0  0  0  0  0  0  0  0
    1.4555    1.1259   -2.1607 C   0  0  0  0  0  0  0  0  0  0  0  0
    1.1006    2.4636   -1.9311 C   0  0  0  0  0  0  0  0  0  0  0  0
    1.0564    2.9421   -0.5992 C   0  0  0  0  0  0  0  0  0  0  0  0
    1.0885    4.4759   -0.4189 C   0  0  1  0  0  0  0  0  0  0  0  0
    2.0424    5.1436   -1.4555 C   0  0  0  0  0  0  0  0  0  0  0  0
   -0.3153    5.1172   -0.5199 C   0  0  0  0  0  0  0  0  0  0  0  0
   -1.0238    4.9783    0.7019 O   0  0  0  0  0  0  0  0  0  0  0  0
   -2.0439    4.0357    0.8812 C   0  0  0  0  0  0  0  0  0  0  0  0
   -2.6772    4.0245    1.9812 O   0  0  0  0  0  0  0  0  0  0  0  0
   -2.4405    3.1263   -0.1695 N   0  0  0  0  0  0  0  0  0  0  0  0
   -2.7531    1.7747    0.1363 C   0  0  0  0  0  0  0  0  0  0  0  0
   -3.9670    1.5013    0.7667 C   0  0  0  0  0  0  0  0  0  0  0  0
   -4.6063    0.2802    0.6235 C   0  0  0  0  0  0  0  0  0  0  0  0
   -4.0059   -0.7967   -0.0979 C   0  0  0  0  0  0  0  0  0  0  0  0
   -4.9271   -1.9727   -0.5776 C   0  0  0  0  0  0  0  0  0  0  0  0
   -4.7586   -2.1071   -2.0970 C   0  0  0  0  0  0  0  0  0  0  0  0
   -4.3688   -1.1333   -2.8116 O   0  0  0  0  0  0  0  0  0  0  0  0
   -5.1667   -3.2799   -2.7053 O   0  0  0  0  0  0  0  0  0  0  0  0
   -6.4764   -1.6605   -0.4160 C   0  0  0  0  0  0  0  0  0  0  0  0
   -7.0184   -2.1250    0.9267 C   0  0  0  0  0  0  0  0  0  0  0  0
   -6.7538   -3.5397    1.0752 O   0  0  0  0  0  0  0  0  0  0  0  0
   -5.3872   -3.6982    1.3286 C   0  0  0  0  0  0  0  0  0  0  0  0
   -4.5211   -3.2873    0.1293 C   0  0  0  0  0  0  0  0  0  0  0  0
   -2.6537   -0.5929   -0.5796 C   0  0  0  0  0  0  0  0  0  0  0  0
   -2.1522    0.7384   -0.5704 C   0  0  0  0  0  0  0  0  0  0  0  0
   -1.7791   -1.7124   -1.1400 C   0  0  0  0  0  0  0  0  0  0  0  0
   -0.6279   -1.9664   -0.2616 N   0  0  0  0  0  0  0  0  0  0  0  0
   -0.8520   -2.3708    1.1378 C   0  0  0  0  0  0  0  0  0  0  0  0
    0.6508   -2.3197   -0.8684 C   0  0  0  0  0  0  0  0  0  0  0  0
    0.8747   -3.5509   -1.0869 O   0  0  0  0  0  0  0  0  0  0  0  0
    1.6477   -1.2741   -1.3837 C   0  0  2  0  0  0  0  0  0  0  0  0
    3.0014   -1.7237   -1.0261 N   0  0  0  0  0  0  0  0  0  0  0  0
    3.9072   -1.1721   -0.0622 C   0  0  0  0  0  0  0  0  0  0  0  0
    4.4502    0.0962   -0.2823 C   0  0  0  0  0  0  0  0  0  0  0  0
    5.7220    0.3999    0.1855 C   0  0  0  0  0  0  0  0  0  0  0  0
    6.4300   -0.5330    0.9758 C   0  0  0  0  0  0  0  0  0  0  0  0
    7.7605   -0.3105    1.3606 C   0  0  0  0  0  0  0  0  0  0  0  0
    8.5063    0.7618    0.7989 N   0  0  0  0  0  0  0  0  0  0  0  0
    8.4090   -1.2398    2.1066 N   0  0  0  0  0  0  0  0  0  0  0  0
    7.8016   -2.3793    2.5180 C   0  0  0  0  0  0  0  0  0  0  0  0
    6.5121   -2.6834    2.0990 C   0  0  0  0  0  0  0  0  0  0  0  0
    5.9739   -3.8841    2.4115 F   0  0  0  0  0  0  0  0  0  0  0  0
    5.8072   -1.7478    1.3338 C   0  0  0  0  0  0  0  0  0  0  0  0
    4.5529   -2.0620    0.7913 C   0  0  0  0  0  0  0  0  0  0  0  0
    0.5496    1.7562    2.5911 H   0  0  0  0  0  0  0  0  0  0  0  0
    1.2447    3.4185    2.1395 H   0  0  0  0  0  0  0  0  0  0  0  0
    2.3559    2.0826    2.3096 H   0  0  0  0  0  0  0  0  0  0  0  0
    0.6719   -0.2373    0.7044 H   0  0  0  0  0  0  0  0  0  0  0  0
    1.6855    0.8054   -3.1668 H   0  0  0  0  0  0  0  0  0  0  0  0
    1.0070    3.1044   -2.7943 H   0  0  0  0  0  0  0  0  0  0  0  0
    1.6097    4.7848    0.5462 H   0  0  0  0  0  0  0  0  0  0  0  0
    1.4927    5.2956   -2.4201 H   0  0  0  0  0  0  0  0  0  0  0  0
    2.3817    6.1246   -1.0847 H   0  0  0  0  0  0  0  0  0  0  0  0
    2.9353    4.4946   -1.6880 H   0  0  0  0  0  0  0  0  0  0  0  0
   -0.9034    4.7474   -1.4158 H   0  0  0  0  0  0  0  0  0  0  0  0
   -0.1520    6.2237   -0.7095 H   0  0  0  0  0  0  0  0  0  0  0  0
   -3.1331    3.5403   -0.8330 H   0  0  0  0  0  0  0  0  0  0  0  0
   -4.5254    2.2777    1.2656 H   0  0  0  0  0  0  0  0  0  0  0  0
   -5.5217    0.1851    1.1527 H   0  0  0  0  0  0  0  0  0  0  0  0
   -5.0847   -3.3948   -3.7179 H   0  0  0  0  0  0  0  0  0  0  0  0
   -6.6994   -0.5899   -0.5916 H   0  0  0  0  0  0  0  0  0  0  0  0
   -7.0280   -2.2557   -1.1848 H   0  0  0  0  0  0  0  0  0  0  0  0
   -6.6659   -1.5374    1.8219 H   0  0  0  0  0  0  0  0  0  0  0  0
   -8.1147   -2.0010    0.8961 H   0  0  0  0  0  0  0  0  0  0  0  0
   -5.2047   -4.7667    1.5041 H   0  0  0  0  0  0  0  0  0  0  0  0
   -5.0511   -3.1393    2.2425 H   0  0  0  0  0  0  0  0  0  0  0  0
   -3.4796   -3.2197    0.5486 H   0  0  0  0  0  0  0  0  0  0  0  0
   -4.4730   -4.1630   -0.5798 H   0  0  0  0  0  0  0  0  0  0  0  0
   -1.2016    0.9565   -1.0841 H   0  0  0  0  0  0  0  0  0  0  0  0
   -1.4445   -1.3983   -2.1850 H   0  0  0  0  0  0  0  0  0  0  0  0
   -2.3177   -2.6558   -1.2712 H   0  0  0  0  0  0  0  0  0  0  0  0
   -1.4629   -1.5758    1.6483 H   0  0  0  0  0  0  0  0  0  0  0  0
    0.1470   -2.4644    1.6463 H   0  0  0  0  0  0  0  0  0  0  0  0
   -1.3582   -3.3859    1.1779 H   0  0  0  0  0  0  0  0  0  0  0  0
    1.5515   -1.3858   -2.4979 H   0  0  0  0  0  0  0  0  0  0  0  0
    3.3702   -2.5430   -1.5837 H   0  0  0  0  0  0  0  0  0  0  0  0
    3.9930    0.7446   -1.0113 H   0  0  0  0  0  0  0  0  0  0  0  0
    6.1556    1.3500   -0.0830 H   0  0  0  0  0  0  0  0  0  0  0  0
    9.2905    1.1533    1.3985 H   0  0  0  0  0  0  0  0  0  0  0  0
    8.6228    0.8041   -0.2652 H   0  0  0  0  0  0  0  0  0  0  0  0
    8.3619   -3.0577    3.1563 H   0  0  0  0  0  0  0  0  0  0  0  0
    4.1138   -3.0421    0.9740 H   0  0  0  0  0  0  0  0  0  0  0  0
  1  2  1  0
  2  3  2  0
  3  4  1  0
  4  5  2  0
  5  6  1  0
  6  7  2  0
  7  8  1  0
  8  9  1  0
  8 10  1  0
 10 11  1  0
 11 12  1  0
 12 13  2  0
 12 14  1  0
 14 15  1  0
 15 16  2  0
 16 17  1  0
 17 18  2  0
 18 19  1  0
 19 20  1  0
 20 21  2  0
 20 22  1  0
 19 23  1  0
 23 24  1  0
 24 25  1  0
 25 26  1  0
 26 27  1  0
 18 28  1  0
 28 29  2  0
 28 30  1  0
 30 31  1  0
 31 32  1  0
 31 33  1  0
 33 34  2  0
 33 35  1  0
 35 36  1  0
 36 37  1  0
 37 38  1  0
 38 39  2  0
 39 40  1  0
 40 41  2  0
 41 42  1  0
 41 43  1  0
 43 44  2  0
 44 45  1  0
 45 46  1  0
 45 47  2  0
 47 48  1  0
  7  2  1  0
 29 15  1  0
 48 37  2  0
 35  4  1  0
 47 40  1  0
 27 19  1  0
  1 49  1  0
  1 50  1  0
  1 51  1  0
  3 52  1  0
  5 53  1  0
  6 54  1  0
  8 55  1  1
  9 56  1  0
  9 57  1  0
  9 58  1  0
 10 59  1  0
 10 60  1  0
 14 61  1  0
 16 62  1  0
 17 63  1  0
 22 64  1  0
 23 65  1  0
 23 66  1  0
 24 67  1  0
 24 68  1  0
 26 69  1  0
 26 70  1  0
 27 71  1  0
 27 72  1  0
 29 73  1  0
 30 74  1  0
 30 75  1  0
 32 76  1  0
 32 77  1  0
 32 78  1  0
 35 79  1  6
 36 80  1  0
 38 81  1  0
 39 82  1  0
 42 83  1  0
 42 84  1  0
 44 85  1  0
 48 86  1  0
M  END
$$$$
