
     RDKit          3D

 51 54  0  0  0  0  0  0  0  0999 V2000
   -4.6341   -0.7098    1.3979 C   0  0  0  0  0  0  0  0  0  0  0  0
   -3.8022    0.2878    0.6570 C   0  0  0  0  0  0  0  0  0  0  0  0
   -4.1896    1.5628    0.4669 N   0  0  0  0  0  0  0  0  0  0  0  0
   -3.2370    2.1812   -0.2117 N   0  0  0  0  0  0  0  0  0  0  0  0
   -3.3644    3.5603   -0.6742 C   0  0  0  0  0  0  0  0  0  0  0  0
   -2.2298    1.3191   -0.4854 C   0  0  0  0  0  0  0  0  0  0  0  0
   -2.5674    0.0745    0.0517 C   0  0  0  0  0  0  0  0  0  0  0  0
   -1.8374   -1.2112   -0.0838 C   0  0  0  0  0  0  0  0  0  0  0  0
   -2.5089   -2.4056   -0.3882 C   0  0  0  0  0  0  0  0  0  0  0  0
   -1.8100   -3.5583   -0.5697 N   0  0  0  0  0  0  0  0  0  0  0  0
   -0.4511   -3.5987   -0.5073 C   0  0  0  0  0  0  0  0  0  0  0  0
    0.2276   -4.8316   -0.7554 N   0  0  0  0  0  0  0  0  0  0  0  0
    0.2653   -2.4189   -0.2595 C   0  0  0  0  0  0  0  0  0  0  0  0
   -0.4473   -1.2521    0.0337 C   0  0  0  0  0  0  0  0  0  0  0  0
    1.6632   -2.4024   -0.3652 O   0  0  0  0  0  0  0  0  0  0  0  0
    2.3774   -1.2987   -0.9320 C   0  0  2  0  0  0  0  0  0  0  0  0
    3.5651   -1.8296   -1.7363 C   0  0  0  0  0  0  0  0  0  0  0  0
    2.8451   -0.3351    0.1490 C   0  0  0  0  0  0  0  0  0  0  0  0
    3.6860   -0.8233    1.1680 C   0  0  0  0  0  0  0  0  0  0  0  0
    4.2189    0.0366    2.1291 C   0  0  0  0  0  0  0  0  0  0  0  0
    5.0376   -0.4501    3.0941 F   0  0  0  0  0  0  0  0  0  0  0  0
    3.9257    1.3979    2.0871 C   0  0  0  0  0  0  0  0  0  0  0  0
    3.0715    1.8997    1.1051 C   0  0  0  0  0  0  0  0  0  0  0  0
    2.4939    1.0453    0.1507 C   0  0  0  0  0  0  0  0  0  0  0  0
    1.5032    1.6057   -0.7999 C   0  0  0  0  0  0  0  0  0  0  0  0
    1.8116    1.7067   -2.0182 O   0  0  0  0  0  0  0  0  0  0  0  0
    0.1734    1.9660   -0.3637 N   0  0  0  0  0  0  0  0  0  0  0  0
    0.0099    2.7056    0.8945 C   0  0  0  0  0  0  0  0  0  0  0  0
   -0.9726    1.6875   -1.2517 C   0  0  0  0  0  0  0  0  0  0  0  0
   -5.3107   -1.2315    0.6902 H   0  0  0  0  0  0  0  0  0  0  0  0
   -3.9860   -1.4491    1.9133 H   0  0  0  0  0  0  0  0  0  0  0  0
   -5.2489   -0.1911    2.1629 H   0  0  0  0  0  0  0  0  0  0  0  0
   -2.4270    4.1228   -0.4854 H   0  0  0  0  0  0  0  0  0  0  0  0
   -4.1916    4.0691   -0.1352 H   0  0  0  0  0  0  0  0  0  0  0  0
   -3.5861    3.5686   -1.7618 H   0  0  0  0  0  0  0  0  0  0  0  0
   -3.5825   -2.4225   -0.5085 H   0  0  0  0  0  0  0  0  0  0  0  0
    1.2695   -4.8951   -0.7276 H   0  0  0  0  0  0  0  0  0  0  0  0
   -0.3186   -5.6968   -0.9637 H   0  0  0  0  0  0  0  0  0  0  0  0
    0.0855   -0.3811    0.3572 H   0  0  0  0  0  0  0  0  0  0  0  0
    1.7195   -0.7936   -1.6694 H   0  0  0  0  0  0  0  0  0  0  0  0
    4.1445   -0.9852   -2.1676 H   0  0  0  0  0  0  0  0  0  0  0  0
    4.2356   -2.4452   -1.1008 H   0  0  0  0  0  0  0  0  0  0  0  0
    3.1968   -2.4652   -2.5696 H   0  0  0  0  0  0  0  0  0  0  0  0
    3.9414   -1.8748    1.2105 H   0  0  0  0  0  0  0  0  0  0  0  0
    4.3540    2.0668    2.8225 H   0  0  0  0  0  0  0  0  0  0  0  0
    2.8590    2.9606    1.0943 H   0  0  0  0  0  0  0  0  0  0  0  0
   -1.0392    3.0056    1.0732 H   0  0  0  0  0  0  0  0  0  0  0  0
    0.6155    3.6348    0.8652 H   0  0  0  0  0  0  0  0  0  0  0  0
    0.3293    2.0725    1.7485 H   0  0  0  0  0  0  0  0  0  0  0  0
   -1.1545    2.5731   -1.8945 H   0  0  0  0  0  0  0  0  0  0  0  0
   -0.7289    0.8460   -1.9363 H   0  0  0  0  0  0  0  0  0  0  0  0
  1  2  1  0
  2  3  2  0
  3  4  1  0
  4  5  1  0
  4  6  1  0
  6  7  2  0
  7  8  1  0
  8  9  2  0
  9 10  1  0
 10 11  2  0
 11 12  1  0
 11 13  1  0
 13 14  2  0
 13 15  1  0
 15 16  1  0
 16 17  1  0
 16 18  1  0
 18 19  2  0
 19 20  1  0
 20 21  1  0
 20 22  2  0
 22 23  1  0
 23 24  2  0
 24 25  1  0
 25 26  2  0
 25 27  1  0
 27 28  1  0
 27 29  1  0
  7  2  1  0
 14  8  1  0
 24 18  1  0
 29  6  1  0
  1 30  1  0
  1 31  1  0
  1 32  1  0
  5 33  1  0
  5 34  1  0
  5 35  1  0
  9 36  1  0
 12 37  1  0
 12 38  1  0
 14 39  1  0
 16 40  1  6
 17 41  1  0
 17 42  1  0
 17 43  1  0
 19 44  1  0
 22 45  1  0
 23 46  1  0
 28 47  1  0
 28 48  1  0
 28 49  1  0
 29 50  1  0
 29 51  1  0
M  END
$$$$
