
     RDKit          3D

 63 67  0  0  0  0  0  0  0  0999 V2000
    4.5906    0.5807    2.4568 O   0  0  0  0  0  0  0  0  0  0  0  0
    4.8412   -0.6720    1.6614 S   0  0  0  0  0  6  0  0  0  0  0  0
    5.4678   -1.6941    2.5669 O   0  0  0  0  0  0  0  0  0  0  0  0
    3.3240   -1.3068    1.0814 N   0  0  0  0  0  0  0  0  0  0  0  0
    2.6104   -0.3317    0.2290 C   0  0  1  0  0  0  0  0  0  0  0  0
    2.9189   -0.5891   -1.2493 C   0  0  0  0  0  0  0  0  0  0  0  0
    2.2342    0.4735   -2.1026 C   0  0  0  0  0  0  0  0  0  0  0  0
    0.7229    0.4107   -1.8978 C   0  0  0  0  0  0  0  0  0  0  0  0
    0.3329    0.5318   -0.4733 N   0  0  0  0  0  0  0  0  0  0  0  0
    0.1154    1.9122   -0.0013 C   0  0  0  0  0  0  0  0  0  0  0  0
   -1.0160    1.9392    1.0357 C   0  0  0  0  0  0  0  0  0  0  0  0
   -2.1188    1.1290    0.6128 O   0  0  0  0  0  0  0  0  0  0  0  0
   -3.2511    1.6220   -0.0468 C   0  0  0  0  0  0  0  0  0  0  0  0
   -3.2929    2.9381   -0.4010 N   0  0  0  0  0  0  0  0  0  0  0  0
   -4.3604    3.4941   -1.0253 C   0  0  0  0  0  0  0  0  0  0  0  0
   -5.4691    2.7138   -1.3296 C   0  0  0  0  0  0  0  0  0  0  0  0
   -5.4660    1.3625   -0.9915 C   0  0  0  0  0  0  0  0  0  0  0  0
   -4.3637    0.7814   -0.3335 C   0  0  0  0  0  0  0  0  0  0  0  0
   -4.4050   -0.7326   -0.0870 C   0  0  1  0  0  0  0  0  0  0  0  0
   -3.7469   -1.5111   -1.2495 C   0  0  0  0  0  0  0  0  0  0  0  0
   -2.2456   -1.7079   -1.0363 C   0  0  0  0  0  0  0  0  0  0  0  0
   -1.8770   -2.3514    0.3329 C   0  0  2  0  0  0  0  0  0  0  0  0
   -3.1002   -2.4908    1.2618 C   0  0  0  0  0  0  0  0  0  0  0  0
   -3.9247   -1.1940    1.3197 C   0  0  0  0  0  0  0  0  0  0  0  0
   -0.9084   -1.5693    1.0064 O   0  0  0  0  0  0  0  0  0  0  0  0
    0.3950   -1.7317    0.4702 C   0  0  0  0  0  0  0  0  0  0  0  0
    1.0689   -0.3455    0.4757 C   0  0  0  0  0  0  0  0  0  0  0  0
    5.9808   -0.3613    0.3124 C   0  0  0  0  0  0  0  0  0  0  0  0
    6.0087    1.0668   -0.2088 C   0  0  0  0  0  0  0  0  0  0  0  0
    7.1374    0.5564    0.6729 C   0  0  0  0  0  0  0  0  0  0  0  0
    2.7750   -1.4753    1.9548 H   0  0  0  0  0  0  0  0  0  0  0  0
    2.9493    0.7021    0.4683 H   0  0  0  0  0  0  0  0  0  0  0  0
    4.0077   -0.5399   -1.4386 H   0  0  0  0  0  0  0  0  0  0  0  0
    2.5751   -1.6036   -1.5472 H   0  0  0  0  0  0  0  0  0  0  0  0
    2.6104    1.4852   -1.8342 H   0  0  0  0  0  0  0  0  0  0  0  0
    2.4677    0.2918   -3.1737 H   0  0  0  0  0  0  0  0  0  0  0  0
    0.3526   -0.5580   -2.2949 H   0  0  0  0  0  0  0  0  0  0  0  0
    0.2335    1.1925   -2.5179 H   0  0  0  0  0  0  0  0  0  0  0  0
   -0.1893    2.5777   -0.8378 H   0  0  0  0  0  0  0  0  0  0  0  0
    1.0477    2.3307    0.4367 H   0  0  0  0  0  0  0  0  0  0  0  0
   -0.6456    1.5415    2.0021 H   0  0  0  0  0  0  0  0  0  0  0  0
   -1.3335    2.9860    1.2319 H   0  0  0  0  0  0  0  0  0  0  0  0
   -4.3457    4.5440   -1.2854 H   0  0  0  0  0  0  0  0  0  0  0  0
   -6.3222    3.1502   -1.8328 H   0  0  0  0  0  0  0  0  0  0  0  0
   -6.3281    0.7635   -1.2582 H   0  0  0  0  0  0  0  0  0  0  0  0
   -5.4769   -1.0353   -0.1253 H   0  0  0  0  0  0  0  0  0  0  0  0
   -4.2233   -2.5124   -1.3415 H   0  0  0  0  0  0  0  0  0  0  0  0
   -3.9202   -0.9893   -2.2166 H   0  0  0  0  0  0  0  0  0  0  0  0
   -1.8472   -2.3409   -1.8587 H   0  0  0  0  0  0  0  0  0  0  0  0
   -1.7718   -0.7162   -1.1416 H   0  0  0  0  0  0  0  0  0  0  0  0
   -1.4917   -3.3850    0.1638 H   0  0  0  0  0  0  0  0  0  0  0  0
   -2.7619   -2.7594    2.2865 H   0  0  0  0  0  0  0  0  0  0  0  0
   -3.7475   -3.3221    0.9053 H   0  0  0  0  0  0  0  0  0  0  0  0
   -3.3428   -0.4216    1.8541 H   0  0  0  0  0  0  0  0  0  0  0  0
   -4.8130   -1.3788    1.9634 H   0  0  0  0  0  0  0  0  0  0  0  0
    0.9417   -2.4463    1.1173 H   0  0  0  0  0  0  0  0  0  0  0  0
    0.4078   -2.1489   -0.5621 H   0  0  0  0  0  0  0  0  0  0  0  0
    0.9434    0.0337    1.5139 H   0  0  0  0  0  0  0  0  0  0  0  0
    6.2264   -1.1644   -0.4138 H   0  0  0  0  0  0  0  0  0  0  0  0
    6.2778    1.1546   -1.2823 H   0  0  0  0  0  0  0  0  0  0  0  0
    5.3302    1.7886    0.2916 H   0  0  0  0  0  0  0  0  0  0  0  0
    7.1320    0.9803    1.6992 H   0  0  0  0  0  0  0  0  0  0  0  0
    8.0787    0.3519    0.1206 H   0  0  0  0  0  0  0  0  0  0  0  0
  1  2  2  0
  2  3  2  0
  2  4  1  0
  4  5  1  0
  5  6  1  0
  6  7  1  0
  7  8  1  0
  8  9  1  0
  9 10  1  0
 10 11  1  0
 11 12  1  0
 12 13  1  0
 13 14  2  0
 14 15  1  0
 15 16  2  0
 16 17  1  0
 17 18  2  0
 18 19  1  0
 19 20  1  0
 20 21  1  0
 21 22  1  0
 22 23  1  0
 23 24  1  0
 22 25  1  0
 25 26  1  0
 26 27  1  0
  2 28  1  0
 28 29  1  0
 29 30  1  0
 27  5  1  0
 30 28  1  0
 27  9  1  0
 18 13  1  0
 24 19  1  0
  4 31  1  0
  5 32  1  1
  6 33  1  0
  6 34  1  0
  7 35  1  0
  7 36  1  0
  8 37  1  0
  8 38  1  0
 10 39  1  0
 10 40  1  0
 11 41  1  0
 11 42  1  0
 15 43  1  0
 16 44  1  0
 17 45  1  0
 19 46  1  1
 20 47  1  0
 20 48  1  0
 21 49  1  0
 21 50  1  0
 22 51  1  6
 23 52  1  0
 23 53  1  0
 24 54  1  0
 24 55  1  0
 26 56  1  0
 26 57  1  0
 27 58  1  0
 28 59  1  0
 29 60  1  0
 29 61  1  0
 30 62  1  0
 30 63  1  0
M  END
$$$$
