
     RDKit          3D

 65 67  0  0  0  0  0  0  0  0999 V2000
    0.0853    4.2609   -1.0631 C   0  0  0  0  0  0  0  0  0  0  0  0
    0.0830    2.9716   -0.2273 C   0  0  0  0  0  0  0  0  0  0  0  0
   -1.3309    2.7057    0.3512 C   0  0  0  0  0  0  0  0  0  0  0  0
   -2.3393    2.2578   -0.7263 C   0  0  0  0  0  0  0  0  0  0  0  0
   -3.4175    1.3960   -0.1187 C   0  0  0  0  0  0  0  0  0  0  0  0
   -4.5597    1.9798    0.4442 C   0  0  0  0  0  0  0  0  0  0  0  0
   -5.5012    1.1850    1.0980 C   0  0  0  0  0  0  0  0  0  0  0  0
   -5.3006   -0.1931    1.2130 C   0  0  0  0  0  0  0  0  0  0  0  0
   -4.1614   -0.8040    0.6605 C   0  0  0  0  0  0  0  0  0  0  0  0
   -3.2239    0.0083   -0.0085 C   0  0  0  0  0  0  0  0  0  0  0  0
   -3.9651   -2.2946    0.9077 C   0  0  0  0  0  0  0  0  0  0  0  0
   -2.9047   -3.0528    0.0463 C   0  0  1  0  0  0  0  0  0  0  0  0
   -3.0663   -4.5684    0.2886 C   0  0  0  0  0  0  0  0  0  0  0  0
   -3.1277   -2.7572   -1.3769 N   0  0  0  0  0  0  0  0  0  0  0  0
   -1.4816   -2.6805    0.4314 C   0  0  0  0  0  0  0  0  0  0  0  0
   -1.2344   -2.1428    1.5445 O   0  0  0  0  0  0  0  0  0  0  0  0
   -0.4196   -3.0397   -0.4037 O   0  0  0  0  0  0  0  0  0  0  0  0
    0.2215   -2.1092   -1.2727 C   0  0  0  0  0  0  0  0  0  0  0  0
    1.2494   -1.2855   -0.5411 C   0  0  0  0  0  0  0  0  0  0  0  0
    0.8481   -0.2117    0.2585 C   0  0  0  0  0  0  0  0  0  0  0  0
    1.8085    0.6043    0.8655 C   0  0  0  0  0  0  0  0  0  0  0  0
    3.1284    0.3297    0.6881 N   0  0  0  0  0  0  0  0  0  0  0  0
    3.5665   -0.7234   -0.0577 C   0  0  0  0  0  0  0  0  0  0  0  0
    4.9856   -0.9537   -0.1999 N   0  0  0  0  0  0  0  0  0  0  0  0
    5.5152   -1.7816   -1.2859 C   0  0  0  0  0  0  0  0  0  0  0  0
    6.1035   -0.1252    0.8485 S   0  0  0  0  0  6  0  0  0  0  0  0
    6.3920    1.5151    0.2256 C   0  0  0  0  0  0  0  0  0  0  0  0
    7.4057   -0.8737    0.9077 O   0  0  0  0  0  0  0  0  0  0  0  0
    5.5371   -0.0473    2.2390 O   0  0  0  0  0  0  0  0  0  0  0  0
    2.6181   -1.5557   -0.6844 C   0  0  0  0  0  0  0  0  0  0  0  0
    1.3991    1.7842    1.7054 C   0  0  0  0  0  0  0  0  0  0  0  0
    1.1659    3.0687    0.8805 C   0  0  0  0  0  0  0  0  0  0  0  0
    1.0920    4.4350   -1.4996 H   0  0  0  0  0  0  0  0  0  0  0  0
   -0.6359    4.1826   -1.9034 H   0  0  0  0  0  0  0  0  0  0  0  0
   -0.1879    5.1359   -0.4348 H   0  0  0  0  0  0  0  0  0  0  0  0
    0.3650    2.1454   -0.9134 H   0  0  0  0  0  0  0  0  0  0  0  0
   -1.7148    3.6165    0.8613 H   0  0  0  0  0  0  0  0  0  0  0  0
   -1.2759    1.9182    1.1264 H   0  0  0  0  0  0  0  0  0  0  0  0
   -2.7913    3.1514   -1.2092 H   0  0  0  0  0  0  0  0  0  0  0  0
   -1.8287    1.6812   -1.5293 H   0  0  0  0  0  0  0  0  0  0  0  0
   -4.7094    3.0510    0.3925 H   0  0  0  0  0  0  0  0  0  0  0  0
   -6.3798    1.6399    1.5368 H   0  0  0  0  0  0  0  0  0  0  0  0
   -6.0315   -0.7856    1.7500 H   0  0  0  0  0  0  0  0  0  0  0  0
   -2.3340   -0.4151   -0.4404 H   0  0  0  0  0  0  0  0  0  0  0  0
   -3.7374   -2.4387    1.9863 H   0  0  0  0  0  0  0  0  0  0  0  0
   -4.9513   -2.7816    0.7390 H   0  0  0  0  0  0  0  0  0  0  0  0
   -2.3235   -5.1441   -0.3051 H   0  0  0  0  0  0  0  0  0  0  0  0
   -4.0807   -4.9079   -0.0107 H   0  0  0  0  0  0  0  0  0  0  0  0
   -2.9183   -4.8107    1.3633 H   0  0  0  0  0  0  0  0  0  0  0  0
   -2.5019   -3.3537   -1.9670 H   0  0  0  0  0  0  0  0  0  0  0  0
   -4.1102   -3.0090   -1.6345 H   0  0  0  0  0  0  0  0  0  0  0  0
    0.7059   -2.6787   -2.0942 H   0  0  0  0  0  0  0  0  0  0  0  0
   -0.5318   -1.4455   -1.7502 H   0  0  0  0  0  0  0  0  0  0  0  0
   -0.2002    0.0023    0.3872 H   0  0  0  0  0  0  0  0  0  0  0  0
    6.6181   -1.6832   -1.3666 H   0  0  0  0  0  0  0  0  0  0  0  0
    5.2709   -2.8482   -1.0970 H   0  0  0  0  0  0  0  0  0  0  0  0
    5.0761   -1.4591   -2.2537 H   0  0  0  0  0  0  0  0  0  0  0  0
    5.4395    2.0835    0.2199 H   0  0  0  0  0  0  0  0  0  0  0  0
    7.1279    2.0348    0.8730 H   0  0  0  0  0  0  0  0  0  0  0  0
    6.7869    1.4545   -0.8089 H   0  0  0  0  0  0  0  0  0  0  0  0
    2.9319   -2.3977   -1.2868 H   0  0  0  0  0  0  0  0  0  0  0  0
    2.2103    1.9923    2.4369 H   0  0  0  0  0  0  0  0  0  0  0  0
    0.5100    1.5303    2.3179 H   0  0  0  0  0  0  0  0  0  0  0  0
    2.1360    3.3486    0.4134 H   0  0  0  0  0  0  0  0  0  0  0  0
    0.8948    3.8882    1.5819 H   0  0  0  0  0  0  0  0  0  0  0  0
  1  2  1  0
  2  3  1  0
  3  4  1  0
  4  5  1  0
  5  6  1  0
  6  7  2  0
  7  8  1  0
  8  9  2  0
  9 10  1  0
  9 11  1  0
 11 12  1  0
 12 13  1  0
 12 14  1  6
 12 15  1  0
 15 16  2  0
 15 17  1  0
 17 18  1  0
 18 19  1  0
 19 20  1  0
 20 21  2  0
 21 22  1  0
 22 23  2  0
 23 24  1  0
 24 25  1  0
 24 26  1  0
 26 27  1  0
 26 28  2  0
 26 29  2  0
 23 30  1  0
 21 31  1  0
 31 32  1  0
 32  2  1  0
 10  5  2  0
 30 19  2  0
  1 33  1  0
  1 34  1  0
  1 35  1  0
  2 36  1  0
  3 37  1  0
  3 38  1  0
  4 39  1  0
  4 40  1  0
  6 41  1  0
  7 42  1  0
  8 43  1  0
 10 44  1  0
 11 45  1  0
 11 46  1  0
 13 47  1  0
 13 48  1  0
 13 49  1  0
 14 50  1  0
 14 51  1  0
 18 52  1  0
 18 53  1  0
 20 54  1  0
 25 55  1  0
 25 56  1  0
 25 57  1  0
 27 58  1  0
 27 59  1  0
 27 60  1  0
 30 61  1  0
 31 62  1  0
 31 63  1  0
 32 64  1  0
 32 65  1  0
M  END
$$$$
