
     RDKit          3D

 60 63  0  0  0  0  0  0  0  0999 V2000
    6.3057    0.0692    0.2042 C   0  0  0  0  0  0  0  0  0  0  0  0
    5.1411    1.3601    0.5880 S   0  0  0  0  0  6  0  0  0  0  0  0
    5.1684    2.3974   -0.4991 O   0  0  0  0  0  0  0  0  0  0  0  0
    5.5459    2.0027    1.8841 O   0  0  0  0  0  0  0  0  0  0  0  0
    3.5280    0.7301    0.7557 N   0  0  0  0  0  0  0  0  0  0  0  0
    3.0643    0.0442   -0.4689 C   0  0  1  0  0  0  0  0  0  0  0  0
    3.3156   -1.4908   -0.3985 C   0  0  0  0  0  0  0  0  0  0  0  0
    2.2244   -2.2874   -1.1180 C   0  0  0  0  0  0  0  0  0  0  0  0
    0.8213   -1.9851   -0.5418 C   0  0  0  0  0  0  0  0  0  0  0  0
    0.6529   -0.5915   -0.0401 N   0  0  0  0  0  0  0  0  0  0  0  0
    0.6806   -0.5220    1.4449 C   0  0  0  0  0  0  0  0  0  0  0  0
   -0.7123   -0.7950    2.0686 C   0  0  0  0  0  0  0  0  0  0  0  0
   -1.4741   -1.7232    1.2854 O   0  0  0  0  0  0  0  0  0  0  0  0
   -2.8672   -1.6527    1.0938 C   0  0  0  0  0  0  0  0  0  0  0  0
   -3.6582   -2.6822    1.6208 C   0  0  0  0  0  0  0  0  0  0  0  0
   -3.0835   -3.6766    2.3428 F   0  0  0  0  0  0  0  0  0  0  0  0
   -5.0378   -2.6988    1.4037 C   0  0  0  0  0  0  0  0  0  0  0  0
   -5.6405   -1.6964    0.6436 C   0  0  0  0  0  0  0  0  0  0  0  0
   -4.8691   -0.6673    0.1009 C   0  0  0  0  0  0  0  0  0  0  0  0
   -3.4813   -0.6233    0.3214 C   0  0  0  0  0  0  0  0  0  0  0  0
   -2.6611    0.4987   -0.2752 C   0  0  0  0  0  0  0  0  0  0  0  0
   -3.0413    1.9003    0.2593 C   0  0  0  0  0  0  0  0  0  0  0  0
   -2.3053    3.0405   -0.4948 C   0  0  0  0  0  0  0  0  0  0  0  0
   -1.0333    2.5426   -1.2068 C   0  0  0  0  0  0  0  0  0  0  0  0
   -1.4481    1.4785   -2.2728 C   0  0  0  0  0  0  0  0  0  0  0  0
   -2.5695    0.5059   -1.8038 C   0  0  0  0  0  0  0  0  0  0  0  0
   -0.1757    2.0067   -0.2050 O   0  0  0  0  0  0  0  0  0  0  0  0
    1.1717    1.8584   -0.6037 C   0  0  0  0  0  0  0  0  0  0  0  0
    1.5616    0.3559   -0.7455 C   0  0  0  0  0  0  0  0  0  0  0  0
    7.3385    0.4496    0.3451 H   0  0  0  0  0  0  0  0  0  0  0  0
    6.1381   -0.7960    0.8787 H   0  0  0  0  0  0  0  0  0  0  0  0
    6.1811   -0.2463   -0.8513 H   0  0  0  0  0  0  0  0  0  0  0  0
    3.5105    0.1053    1.5931 H   0  0  0  0  0  0  0  0  0  0  0  0
    3.6182    0.4331   -1.3539 H   0  0  0  0  0  0  0  0  0  0  0  0
    3.3671   -1.8564    0.6487 H   0  0  0  0  0  0  0  0  0  0  0  0
    4.2928   -1.7292   -0.8683 H   0  0  0  0  0  0  0  0  0  0  0  0
    2.4370   -3.3748   -1.0275 H   0  0  0  0  0  0  0  0  0  0  0  0
    2.2473   -2.0381   -2.2018 H   0  0  0  0  0  0  0  0  0  0  0  0
    0.0690   -2.1607   -1.3405 H   0  0  0  0  0  0  0  0  0  0  0  0
    0.6035   -2.7350    0.2511 H   0  0  0  0  0  0  0  0  0  0  0  0
    1.0053    0.4836    1.7883 H   0  0  0  0  0  0  0  0  0  0  0  0
    1.4121   -1.2484    1.8619 H   0  0  0  0  0  0  0  0  0  0  0  0
   -0.5807   -1.2139    3.0886 H   0  0  0  0  0  0  0  0  0  0  0  0
   -1.2608    0.1625    2.1956 H   0  0  0  0  0  0  0  0  0  0  0  0
   -5.6409   -3.4970    1.8168 H   0  0  0  0  0  0  0  0  0  0  0  0
   -6.7088   -1.7193    0.4704 H   0  0  0  0  0  0  0  0  0  0  0  0
   -5.3554    0.0935   -0.4963 H   0  0  0  0  0  0  0  0  0  0  0  0
   -1.6442    0.3013    0.0322 H   0  0  0  0  0  0  0  0  0  0  0  0
   -2.7853    1.9517    1.3400 H   0  0  0  0  0  0  0  0  0  0  0  0
   -4.1363    2.0658    0.1706 H   0  0  0  0  0  0  0  0  0  0  0  0
   -2.0385    3.8470    0.2229 H   0  0  0  0  0  0  0  0  0  0  0  0
   -2.9904    3.4857   -1.2502 H   0  0  0  0  0  0  0  0  0  0  0  0
   -0.5628    3.4182   -1.7106 H   0  0  0  0  0  0  0  0  0  0  0  0
   -0.5642    0.8956   -2.5939 H   0  0  0  0  0  0  0  0  0  0  0  0
   -1.8085    2.0108   -3.1798 H   0  0  0  0  0  0  0  0  0  0  0  0
   -3.5465    0.8220   -2.2316 H   0  0  0  0  0  0  0  0  0  0  0  0
   -2.3489   -0.5188   -2.1763 H   0  0  0  0  0  0  0  0  0  0  0  0
    1.4199    2.3980   -1.5477 H   0  0  0  0  0  0  0  0  0  0  0  0
    1.7848    2.3460    0.1795 H   0  0  0  0  0  0  0  0  0  0  0  0
    1.4236    0.1652   -1.8340 H   0  0  0  0  0  0  0  0  0  0  0  0
  1  2  1  0
  2  3  2  0
  2  4  2  0
  2  5  1  0
  5  6  1  0
  6  7  1  0
  7  8  1  0
  8  9  1  0
  9 10  1  0
 10 11  1  0
 11 12  1  0
 12 13  1  0
 13 14  1  0
 14 15  2  0
 15 16  1  0
 15 17  1  0
 17 18  2  0
 18 19  1  0
 19 20  2  0
 20 21  1  0
 21 22  1  0
 22 23  1  0
 23 24  1  0
 24 25  1  0
 25 26  1  0
 24 27  1  0
 27 28  1  0
 28 29  1  0
 29  6  1  0
 29 10  1  0
 20 14  1  0
 26 21  1  0
  1 30  1  0
  1 31  1  0
  1 32  1  0
  5 33  1  0
  6 34  1  6
  7 35  1  0
  7 36  1  0
  8 37  1  0
  8 38  1  0
  9 39  1  0
  9 40  1  0
 11 41  1  0
 11 42  1  0
 12 43  1  0
 12 44  1  0
 17 45  1  0
 18 46  1  0
 19 47  1  0
 21 48  1  0
 22 49  1  0
 22 50  1  0
 23 51  1  0
 23 52  1  0
 24 53  1  0
 25 54  1  0
 25 55  1  0
 26 56  1  0
 26 57  1  0
 28 58  1  0
 28 59  1  0
 29 60  1  0
M  END
$$$$
