
     RDKit          3D

 68 70  0  0  0  0  0  0  0  0999 V2000
    4.6372    2.4689   -1.4712 C   0  0  0  0  0  0  0  0  0  0  0  0
    5.1788    1.7102   -0.2500 C   0  0  0  0  0  0  0  0  0  0  0  0
    4.8214    2.4404    1.0489 C   0  0  0  0  0  0  0  0  0  0  0  0
    4.7620    0.2169   -0.2473 C   0  0  0  0  0  0  0  0  0  0  0  0
    3.2505   -0.0615   -0.0350 C   0  0  2  0  0  0  0  0  0  0  0  0
    2.9063    0.0014    1.3887 N   0  0  0  0  0  0  0  0  0  0  0  0
    1.7799    0.7430    1.8754 C   0  0  0  0  0  0  0  0  0  0  0  0
    1.9419    1.5716    2.8105 O   0  0  0  0  0  0  0  0  0  0  0  0
    0.3952    0.4680    1.3715 C   0  0  0  0  0  0  0  0  0  0  0  0
    0.0891    1.1587    0.1169 N   0  0  0  0  0  0  0  0  0  0  0  0
    0.2786    2.6053    0.0010 C   0  0  0  0  0  0  0  0  0  0  0  0
   -0.6265    0.4511   -0.9109 C   0  0  0  0  0  0  0  0  0  0  0  0
    0.0331   -0.1004   -1.8319 O   0  0  0  0  0  0  0  0  0  0  0  0
   -2.1419    0.5227   -1.0216 C   0  0  2  0  0  0  0  0  0  0  0  0
   -2.8387    0.9535    0.2920 C   0  0  0  0  0  0  0  0  0  0  0  0
   -4.3332    1.0954    0.1253 C   0  0  0  0  0  0  0  0  0  0  0  0
   -4.8608    2.1225   -0.6772 C   0  0  0  0  0  0  0  0  0  0  0  0
   -6.2436    2.2564   -0.8345 C   0  0  0  0  0  0  0  0  0  0  0  0
   -7.1104    1.3703   -0.1905 C   0  0  0  0  0  0  0  0  0  0  0  0
   -6.5961    0.3530    0.6177 C   0  0  0  0  0  0  0  0  0  0  0  0
   -5.2139    0.2167    0.7801 C   0  0  0  0  0  0  0  0  0  0  0  0
   -2.7465   -0.6946   -1.6215 N   0  0  0  0  0  0  0  0  0  0  0  0
   -2.7624   -1.9309   -0.8102 C   0  0  0  0  0  0  0  0  0  0  0  0
   -1.4158   -2.6032   -0.7444 C   0  0  0  0  0  0  0  0  0  0  0  0
   -0.6996   -3.0331   -1.8458 C   0  0  0  0  0  0  0  0  0  0  0  0
    0.5429   -3.4070   -1.3815 C   0  0  0  0  0  0  0  0  0  0  0  0
    0.5472   -3.1671   -0.0171 C   0  0  0  0  0  0  0  0  0  0  0  0
   -0.6836   -2.7642    0.3814 N   0  0  0  0  0  0  0  0  0  0  0  0
   -1.1989   -2.7018    1.7541 C   0  0  0  0  0  0  0  0  0  0  0  0
    1.7869   -3.1615    0.8506 C   0  0  0  0  0  0  0  0  0  0  0  0
    2.9497   -2.6186    0.1385 N   0  0  0  0  0  0  0  0  0  0  0  0
    2.9030   -1.4041   -0.6262 C   0  0  0  0  0  0  0  0  0  0  0  0
    2.7255   -1.4763   -1.8719 O   0  0  0  0  0  0  0  0  0  0  0  0
    5.1107    3.4727   -1.5313 H   0  0  0  0  0  0  0  0  0  0  0  0
    4.8760    1.9184   -2.4068 H   0  0  0  0  0  0  0  0  0  0  0  0
    3.5380    2.6115   -1.4068 H   0  0  0  0  0  0  0  0  0  0  0  0
    6.2887    1.7248   -0.3325 H   0  0  0  0  0  0  0  0  0  0  0  0
    5.3447    3.4197    1.0848 H   0  0  0  0  0  0  0  0  0  0  0  0
    5.1402    1.8451    1.9297 H   0  0  0  0  0  0  0  0  0  0  0  0
    3.7316    2.6319    1.1065 H   0  0  0  0  0  0  0  0  0  0  0  0
    5.0859   -0.2141   -1.2215 H   0  0  0  0  0  0  0  0  0  0  0  0
    5.3523   -0.3239    0.5260 H   0  0  0  0  0  0  0  0  0  0  0  0
    2.6606    0.6967   -0.5890 H   0  0  0  0  0  0  0  0  0  0  0  0
    3.5960   -0.3464    2.0931 H   0  0  0  0  0  0  0  0  0  0  0  0
    0.3288   -0.6163    1.2209 H   0  0  0  0  0  0  0  0  0  0  0  0
   -0.3528    0.7543    2.1422 H   0  0  0  0  0  0  0  0  0  0  0  0
   -0.2043    3.1201    0.8560 H   0  0  0  0  0  0  0  0  0  0  0  0
    1.3608    2.8424    0.0001 H   0  0  0  0  0  0  0  0  0  0  0  0
   -0.1638    2.9904   -0.9427 H   0  0  0  0  0  0  0  0  0  0  0  0
   -2.3236    1.3488   -1.7432 H   0  0  0  0  0  0  0  0  0  0  0  0
   -2.4439    1.9411    0.6112 H   0  0  0  0  0  0  0  0  0  0  0  0
   -2.5973    0.2480    1.1115 H   0  0  0  0  0  0  0  0  0  0  0  0
   -4.2017    2.8208   -1.1778 H   0  0  0  0  0  0  0  0  0  0  0  0
   -6.6428    3.0482   -1.4553 H   0  0  0  0  0  0  0  0  0  0  0  0
   -8.1807    1.4747   -0.3138 H   0  0  0  0  0  0  0  0  0  0  0  0
   -7.2691   -0.3284    1.1218 H   0  0  0  0  0  0  0  0  0  0  0  0
   -4.8350   -0.5683    1.4216 H   0  0  0  0  0  0  0  0  0  0  0  0
   -2.3328   -0.8811   -2.5650 H   0  0  0  0  0  0  0  0  0  0  0  0
   -3.4692   -2.6439   -1.2846 H   0  0  0  0  0  0  0  0  0  0  0  0
   -3.1667   -1.7414    0.1991 H   0  0  0  0  0  0  0  0  0  0  0  0
   -1.0196   -3.0141   -2.8793 H   0  0  0  0  0  0  0  0  0  0  0  0
    1.3772   -3.7351   -1.9868 H   0  0  0  0  0  0  0  0  0  0  0  0
   -2.0355   -3.4228    1.8649 H   0  0  0  0  0  0  0  0  0  0  0  0
   -0.4241   -2.9742    2.4969 H   0  0  0  0  0  0  0  0  0  0  0  0
   -1.5736   -1.6863    1.9854 H   0  0  0  0  0  0  0  0  0  0  0  0
    1.6300   -2.5532    1.7622 H   0  0  0  0  0  0  0  0  0  0  0  0
    2.0002   -4.2034    1.1698 H   0  0  0  0  0  0  0  0  0  0  0  0
    3.7576   -3.2582   -0.0314 H   0  0  0  0  0  0  0  0  0  0  0  0
  1  2  1  0
  2  3  1  0
  2  4  1  0
  4  5  1  0
  5  6  1  0
  6  7  1  0
  7  8  2  0
  7  9  1  0
  9 10  1  0
 10 11  1  0
 10 12  1  0
 12 13  2  0
 12 14  1  0
 14 15  1  0
 15 16  1  0
 16 17  2  0
 17 18  1  0
 18 19  2  0
 19 20  1  0
 20 21  2  0
 14 22  1  0
 22 23  1  0
 23 24  1  0
 24 25  2  0
 25 26  1  0
 26 27  2  0
 27 28  1  0
 28 29  1  0
 27 30  1  0
 30 31  1  0
 31 32  1  0
 32 33  2  0
 32  5  1  0
 21 16  1  0
 28 24  1  0
  1 34  1  0
  1 35  1  0
  1 36  1  0
  2 37  1  0
  3 38  1  0
  3 39  1  0
  3 40  1  0
  4 41  1  0
  4 42  1  0
  5 43  1  6
  6 44  1  0
  9 45  1  0
  9 46  1  0
 11 47  1  0
 11 48  1  0
 11 49  1  0
 14 50  1  6
 15 51  1  0
 15 52  1  0
 17 53  1  0
 18 54  1  0
 19 55  1  0
 20 56  1  0
 21 57  1  0
 22 58  1  0
 23 59  1  0
 23 60  1  0
 25 61  1  0
 26 62  1  0
 29 63  1  0
 29 64  1  0
 29 65  1  0
 30 66  1  0
 30 67  1  0
 31 68  1  0
M  END
$$$$
