
     RDKit          3D

 66 68  0  0  0  0  0  0  0  0999 V2000
   -0.6275   -4.2045    0.8076 C   0  0  0  0  0  0  0  0  0  0  0  0
   -1.0879   -2.9283    1.5253 C   0  0  0  0  0  0  0  0  0  0  0  0
   -2.6231   -2.7023    1.3787 C   0  0  0  0  0  0  0  0  0  0  0  0
   -3.1670   -2.5104   -0.0700 C   0  0  0  0  0  0  0  0  0  0  0  0
   -3.9485   -1.2164   -0.2143 C   0  0  0  0  0  0  0  0  0  0  0  0
   -5.1258   -1.0041    0.5195 C   0  0  0  0  0  0  0  0  0  0  0  0
   -5.6770    0.2798    0.6065 C   0  0  0  0  0  0  0  0  0  0  0  0
   -5.0041    1.3730    0.0457 C   0  0  0  0  0  0  0  0  0  0  0  0
   -3.8240    1.1755   -0.6914 C   0  0  0  0  0  0  0  0  0  0  0  0
   -3.4050   -0.1488   -0.9436 C   0  0  0  0  0  0  0  0  0  0  0  0
   -2.8418    2.3346   -0.8779 C   0  0  0  0  0  0  0  0  0  0  0  0
   -1.5260    2.0951   -0.0646 C   0  0  1  0  0  0  0  0  0  0  0  0
   -1.8955    1.7179    1.3974 C   0  0  0  0  0  0  0  0  0  0  0  0
   -0.8008    1.0030   -0.7194 N   0  0  0  0  0  0  0  0  0  0  0  0
   -0.5935    3.2968   -0.0130 C   0  0  0  0  0  0  0  0  0  0  0  0
   -0.4344    4.0297   -1.0270 O   0  0  0  0  0  0  0  0  0  0  0  0
    0.2138    3.4837    1.1242 O   0  0  0  0  0  0  0  0  0  0  0  0
    1.6438    3.4127    1.1161 C   0  0  0  0  0  0  0  0  0  0  0  0
    2.1232    2.0036    0.8313 C   0  0  0  0  0  0  0  0  0  0  0  0
    1.7159    0.9195    1.6405 C   0  0  0  0  0  0  0  0  0  0  0  0
    1.8934   -0.4089    1.1934 C   0  0  0  0  0  0  0  0  0  0  0  0
    2.6296   -0.6397    0.0219 C   0  0  0  0  0  0  0  0  0  0  0  0
    3.1451    0.4308   -0.7200 C   0  0  0  0  0  0  0  0  0  0  0  0
    3.8807    0.1836   -1.9245 N   0  0  0  0  0  0  0  0  0  0  0  0
    3.2167   -0.4514   -3.0609 C   0  0  0  0  0  0  0  0  0  0  0  0
    5.5552    0.6549   -2.0031 S   0  0  0  0  0  6  0  0  0  0  0  0
    6.3930    0.1167   -0.5258 C   0  0  0  0  0  0  0  0  0  0  0  0
    6.2230    0.0116   -3.1872 O   0  0  0  0  0  0  0  0  0  0  0  0
    5.6586    2.1516   -2.1256 O   0  0  0  0  0  0  0  0  0  0  0  0
    2.8737    1.7463   -0.3252 C   0  0  0  0  0  0  0  0  0  0  0  0
    1.1003   -1.5511    1.7982 C   0  0  0  0  0  0  0  0  0  0  0  0
   -0.2665   -1.6913    1.0866 C   0  0  0  0  0  0  0  0  0  0  0  0
    0.4361   -4.4154    1.0459 H   0  0  0  0  0  0  0  0  0  0  0  0
   -0.7268   -4.1092   -0.2940 H   0  0  0  0  0  0  0  0  0  0  0  0
   -1.2314   -5.0712    1.1484 H   0  0  0  0  0  0  0  0  0  0  0  0
   -0.9023   -3.0897    2.6118 H   0  0  0  0  0  0  0  0  0  0  0  0
   -3.1485   -3.5729    1.8308 H   0  0  0  0  0  0  0  0  0  0  0  0
   -2.8965   -1.8341    2.0178 H   0  0  0  0  0  0  0  0  0  0  0  0
   -2.3395   -2.5383   -0.8099 H   0  0  0  0  0  0  0  0  0  0  0  0
   -3.8368   -3.3608   -0.3242 H   0  0  0  0  0  0  0  0  0  0  0  0
   -5.5819   -1.8201    1.0676 H   0  0  0  0  0  0  0  0  0  0  0  0
   -6.5721    0.4398    1.1950 H   0  0  0  0  0  0  0  0  0  0  0  0
   -5.3590    2.3752    0.2507 H   0  0  0  0  0  0  0  0  0  0  0  0
   -2.5550   -0.3398   -1.5793 H   0  0  0  0  0  0  0  0  0  0  0  0
   -3.3055    3.2902   -0.5498 H   0  0  0  0  0  0  0  0  0  0  0  0
   -2.6075    2.4427   -1.9595 H   0  0  0  0  0  0  0  0  0  0  0  0
   -1.0009    1.5451    2.0216 H   0  0  0  0  0  0  0  0  0  0  0  0
   -2.4860    2.5365    1.8635 H   0  0  0  0  0  0  0  0  0  0  0  0
   -2.4985    0.7920    1.4622 H   0  0  0  0  0  0  0  0  0  0  0  0
   -0.5168    1.2956   -1.6826 H   0  0  0  0  0  0  0  0  0  0  0  0
    0.0702    0.7872   -0.2189 H   0  0  0  0  0  0  0  0  0  0  0  0
    2.0173    3.7138    2.1162 H   0  0  0  0  0  0  0  0  0  0  0  0
    2.0482    4.1389    0.3782 H   0  0  0  0  0  0  0  0  0  0  0  0
    1.1463    1.1083    2.5394 H   0  0  0  0  0  0  0  0  0  0  0  0
    2.7716   -1.6531   -0.3342 H   0  0  0  0  0  0  0  0  0  0  0  0
    3.8986   -0.5277   -3.9317 H   0  0  0  0  0  0  0  0  0  0  0  0
    2.8852   -1.4744   -2.7849 H   0  0  0  0  0  0  0  0  0  0  0  0
    2.3287    0.1521   -3.3568 H   0  0  0  0  0  0  0  0  0  0  0  0
    7.4779    0.3325   -0.6110 H   0  0  0  0  0  0  0  0  0  0  0  0
    5.9777    0.6588    0.3498 H   0  0  0  0  0  0  0  0  0  0  0  0
    6.2450   -0.9764   -0.3918 H   0  0  0  0  0  0  0  0  0  0  0  0
    3.2033    2.5658   -0.9517 H   0  0  0  0  0  0  0  0  0  0  0  0
    0.9370   -1.3665    2.8819 H   0  0  0  0  0  0  0  0  0  0  0  0
    1.6773   -2.4964    1.7074 H   0  0  0  0  0  0  0  0  0  0  0  0
   -0.1294   -1.7062   -0.0165 H   0  0  0  0  0  0  0  0  0  0  0  0
   -0.8440   -0.7857    1.3377 H   0  0  0  0  0  0  0  0  0  0  0  0
  1  2  1  0
  2  3  1  0
  3  4  1  0
  4  5  1  0
  5  6  1  0
  6  7  2  0
  7  8  1  0
  8  9  2  0
  9 10  1  0
  9 11  1  0
 11 12  1  0
 12 13  1  0
 12 14  1  6
 12 15  1  0
 15 16  2  0
 15 17  1  0
 17 18  1  0
 18 19  1  0
 19 20  1  0
 20 21  2  0
 21 22  1  0
 22 23  2  0
 23 24  1  0
 24 25  1  0
 24 26  1  0
 26 27  1  0
 26 28  2  0
 26 29  2  0
 23 30  1  0
 21 31  1  0
 31 32  1  0
 32  2  1  0
 10  5  2  0
 30 19  2  0
  1 33  1  0
  1 34  1  0
  1 35  1  0
  2 36  1  0
  3 37  1  0
  3 38  1  0
  4 39  1  0
  4 40  1  0
  6 41  1  0
  7 42  1  0
  8 43  1  0
 10 44  1  0
 11 45  1  0
 11 46  1  0
 13 47  1  0
 13 48  1  0
 13 49  1  0
 14 50  1  0
 14 51  1  0
 18 52  1  0
 18 53  1  0
 20 54  1  0
 22 55  1  0
 25 56  1  0
 25 57  1  0
 25 58  1  0
 27 59  1  0
 27 60  1  0
 27 61  1  0
 30 62  1  0
 31 63  1  0
 31 64  1  0
 32 65  1  0
 32 66  1  0
M  END
$$$$
