
     RDKit          3D

 57 60  0  0  0  0  0  0  0  0999 V2000
    7.9721    1.1248   -0.6628 C   0  0  0  0  0  0  0  0  0  0  0  0
    7.3524    1.5417    0.5364 C   0  0  0  0  0  0  0  0  0  0  0  0
    6.2268    0.8588    1.0321 C   0  0  0  0  0  0  0  0  0  0  0  0
    5.7568   -0.2343    0.3037 C   0  0  0  0  0  0  0  0  0  0  0  0
    4.6896   -1.0839    0.5188 C   0  0  0  0  0  0  0  0  0  0  0  0
    3.6728   -1.0134    1.6182 C   0  0  0  0  0  0  0  0  0  0  0  0
    2.5827    0.0054    1.2756 C   0  0  0  0  0  0  0  0  0  0  0  0
    1.5327    0.0829    2.3882 C   0  0  0  0  0  0  0  0  0  0  0  0
    0.5219    1.0364    2.0602 O   0  0  0  0  0  0  0  0  0  0  0  0
   -0.5041    0.8472    1.1195 C   0  0  0  0  0  0  0  0  0  0  0  0
   -1.3508    1.9272    0.8410 C   0  0  0  0  0  0  0  0  0  0  0  0
   -2.3917    1.7725   -0.0819 C   0  0  0  0  0  0  0  0  0  0  0  0
   -2.5450    0.5866   -0.7226 N   0  0  0  0  0  0  0  0  0  0  0  0
   -1.7551   -0.4858   -0.4780 C   0  0  0  0  0  0  0  0  0  0  0  0
   -0.7217   -0.3812    0.4633 C   0  0  0  0  0  0  0  0  0  0  0  0
   -2.0837   -1.7897   -1.1507 C   0  0  0  0  0  0  0  0  0  0  0  0
   -3.2458   -2.4419   -0.5160 N   0  0  0  0  0  0  0  0  0  0  0  0
   -4.4569   -2.4632   -1.3557 C   0  0  0  0  0  0  0  0  0  0  0  0
   -5.1784   -1.1027   -1.4432 C   0  0  0  0  0  0  0  0  0  0  0  0
   -5.5323   -0.5971   -0.1084 N   0  0  0  0  0  0  0  0  0  0  0  0
   -6.3090    0.6559   -0.1761 C   0  0  0  0  0  0  0  0  0  0  0  0
   -5.4558    1.8442    0.2793 C   0  0  0  0  0  0  0  0  0  0  0  0
   -4.6362    2.3406   -0.8383 N   0  0  0  0  0  0  0  0  0  0  0  0
   -3.3520    2.8889   -0.3759 C   0  0  0  0  0  0  0  0  0  0  0  0
    4.6851   -1.9641   -0.5593 C   0  0  0  0  0  0  0  0  0  0  0  0
    5.7120   -1.6901   -1.3962 N   0  0  0  0  0  0  0  0  0  0  0  0
    6.3554   -0.6369   -0.8628 C   0  0  0  0  0  0  0  0  0  0  0  0
    7.4706    0.0221   -1.3787 C   0  0  0  0  0  0  0  0  0  0  0  0
    8.8363    1.6590   -1.0355 H   0  0  0  0  0  0  0  0  0  0  0  0
    7.7449    2.3934    1.0765 H   0  0  0  0  0  0  0  0  0  0  0  0
    5.7443    1.1755    1.9475 H   0  0  0  0  0  0  0  0  0  0  0  0
    3.2172   -2.0177    1.7597 H   0  0  0  0  0  0  0  0  0  0  0  0
    4.1761   -0.7275    2.5670 H   0  0  0  0  0  0  0  0  0  0  0  0
    2.0985   -0.2843    0.3187 H   0  0  0  0  0  0  0  0  0  0  0  0
    3.0400    1.0105    1.1420 H   0  0  0  0  0  0  0  0  0  0  0  0
    2.0287    0.4169    3.3243 H   0  0  0  0  0  0  0  0  0  0  0  0
    1.0804   -0.9115    2.5905 H   0  0  0  0  0  0  0  0  0  0  0  0
   -1.2059    2.8724    1.3498 H   0  0  0  0  0  0  0  0  0  0  0  0
   -0.1103   -1.2467    0.6764 H   0  0  0  0  0  0  0  0  0  0  0  0
   -1.2153   -2.4791   -1.0824 H   0  0  0  0  0  0  0  0  0  0  0  0
   -2.2492   -1.6034   -2.2352 H   0  0  0  0  0  0  0  0  0  0  0  0
   -3.4571   -2.0507    0.4323 H   0  0  0  0  0  0  0  0  0  0  0  0
   -5.1621   -3.2088   -0.9293 H   0  0  0  0  0  0  0  0  0  0  0  0
   -4.2102   -2.8207   -2.3796 H   0  0  0  0  0  0  0  0  0  0  0  0
   -4.5400   -0.3706   -1.9784 H   0  0  0  0  0  0  0  0  0  0  0  0
   -6.1006   -1.2481   -2.0500 H   0  0  0  0  0  0  0  0  0  0  0  0
   -6.1290   -1.3213    0.3576 H   0  0  0  0  0  0  0  0  0  0  0  0
   -7.1795    0.5837    0.5149 H   0  0  0  0  0  0  0  0  0  0  0  0
   -6.7295    0.8491   -1.1896 H   0  0  0  0  0  0  0  0  0  0  0  0
   -6.1244    2.6582    0.6407 H   0  0  0  0  0  0  0  0  0  0  0  0
   -4.8332    1.5233    1.1459 H   0  0  0  0  0  0  0  0  0  0  0  0
   -5.1650    3.1064   -1.3186 H   0  0  0  0  0  0  0  0  0  0  0  0
   -3.4984    3.5367    0.5184 H   0  0  0  0  0  0  0  0  0  0  0  0
   -2.9105    3.5162   -1.1803 H   0  0  0  0  0  0  0  0  0  0  0  0
    3.9628   -2.7523   -0.7273 H   0  0  0  0  0  0  0  0  0  0  0  0
    5.9444   -2.1880   -2.2842 H   0  0  0  0  0  0  0  0  0  0  0  0
    7.9345   -0.3007   -2.3017 H   0  0  0  0  0  0  0  0  0  0  0  0
  1  2  2  0
  2  3  1  0
  3  4  2  0
  4  5  1  0
  5  6  1  0
  6  7  1  0
  7  8  1  0
  8  9  1  0
  9 10  1  0
 10 11  2  0
 11 12  1  0
 12 13  2  0
 13 14  1  0
 14 15  2  0
 14 16  1  0
 16 17  1  0
 17 18  1  0
 18 19  1  0
 19 20  1  0
 20 21  1  0
 21 22  1  0
 22 23  1  0
 23 24  1  0
  5 25  2  0
 25 26  1  0
 26 27  1  0
 27 28  2  0
 28  1  1  0
 27  4  1  0
 15 10  1  0
 24 12  1  0
  1 29  1  0
  2 30  1  0
  3 31  1  0
  6 32  1  0
  6 33  1  0
  7 34  1  0
  7 35  1  0
  8 36  1  0
  8 37  1  0
 11 38  1  0
 15 39  1  0
 16 40  1  0
 16 41  1  0
 17 42  1  0
 18 43  1  0
 18 44  1  0
 19 45  1  0
 19 46  1  0
 20 47  1  0
 21 48  1  0
 21 49  1  0
 22 50  1  0
 22 51  1  0
 23 52  1  0
 24 53  1  0
 24 54  1  0
 25 55  1  0
 26 56  1  0
 28 57  1  0
M  END
$$$$
