
     RDKit          3D

 76 81  0  0  0  0  0  0  0  0999 V2000
    2.7522    6.4640    0.8810 C   0  0  0  0  0  0  0  0  0  0  0  0
    2.8084    5.1229    0.4054 O   0  0  0  0  0  0  0  0  0  0  0  0
    1.7179    4.4312   -0.1497 C   0  0  0  0  0  0  0  0  0  0  0  0
    0.4436    5.0112   -0.2774 C   0  0  0  0  0  0  0  0  0  0  0  0
   -0.6197    4.2761   -0.8252 C   0  0  0  0  0  0  0  0  0  0  0  0
   -0.3852    2.9778   -1.2983 C   0  0  0  0  0  0  0  0  0  0  0  0
    0.8750    2.3635   -1.1435 C   0  0  0  0  0  0  0  0  0  0  0  0
    1.9154    3.1151   -0.5699 C   0  0  0  0  0  0  0  0  0  0  0  0
    1.1445    0.8961   -1.4517 C   0  0  1  0  0  0  0  0  0  0  0  0
    1.3166    0.1480   -0.2029 N   0  0  0  0  0  0  0  0  0  0  0  0
    2.2102   -0.9738   -0.0573 C   0  0  0  0  0  0  0  0  0  0  0  0
    2.6618   -1.7071   -1.1631 C   0  0  0  0  0  0  0  0  0  0  0  0
    3.5576   -2.7715   -1.0007 C   0  0  0  0  0  0  0  0  0  0  0  0
    4.0393   -3.1197    0.2773 C   0  0  0  0  0  0  0  0  0  0  0  0
    4.9892   -4.1576    0.4891 C   0  0  0  0  0  0  0  0  0  0  0  0
    5.5654   -4.9182   -0.5793 N   0  0  0  0  0  0  0  0  0  0  0  0
    5.3942   -4.4359    1.7536 N   0  0  0  0  0  0  0  0  0  0  0  0
    4.9393   -3.7564    2.8357 C   0  0  0  0  0  0  0  0  0  0  0  0
    4.0168   -2.7254    2.6851 C   0  0  0  0  0  0  0  0  0  0  0  0
    3.5949   -2.0446    3.7778 F   0  0  0  0  0  0  0  0  0  0  0  0
    3.5570   -2.3984    1.4000 C   0  0  0  0  0  0  0  0  0  0  0  0
    2.6456   -1.3426    1.2226 C   0  0  0  0  0  0  0  0  0  0  0  0
    0.1324    0.2278   -2.3714 C   0  0  0  0  0  0  0  0  0  0  0  0
    0.4586    0.0255   -3.5778 O   0  0  0  0  0  0  0  0  0  0  0  0
   -1.2007   -0.1155   -1.9501 N   0  0  0  0  0  0  0  0  0  0  0  0
   -2.3084    0.2321   -2.8428 C   0  0  0  0  0  0  0  0  0  0  0  0
   -1.4295   -1.1546   -0.9319 C   0  0  0  0  0  0  0  0  0  0  0  0
   -2.4659   -0.7261    0.0967 C   0  0  0  0  0  0  0  0  0  0  0  0
   -2.4700    0.6045    0.5485 C   0  0  0  0  0  0  0  0  0  0  0  0
   -3.4931    1.0903    1.3771 C   0  0  0  0  0  0  0  0  0  0  0  0
   -4.4761    0.2055    1.8417 C   0  0  0  0  0  0  0  0  0  0  0  0
   -4.4252   -1.1458    1.4887 C   0  0  0  0  0  0  0  0  0  0  0  0
   -3.4247   -1.6283    0.6270 C   0  0  0  0  0  0  0  0  0  0  0  0
   -3.3654   -3.3692    0.2996 S   0  0  0  0  0  6  0  0  0  0  0  0
   -3.6570   -3.6322   -1.1584 O   0  0  0  0  0  0  0  0  0  0  0  0
   -4.3970   -4.0777    1.1317 O   0  0  0  0  0  0  0  0  0  0  0  0
   -1.7547   -3.9766    0.7948 C   0  0  0  0  0  0  0  0  0  0  0  0
   -1.5533   -5.4644    0.6016 C   0  0  0  0  0  0  0  0  0  0  0  0
   -0.8604   -4.4893   -0.3303 C   0  0  0  0  0  0  0  0  0  0  0  0
   -3.5644    2.4859    1.7479 N   0  0  0  0  0  0  0  0  0  0  0  0
   -2.7189    3.4869    1.1631 C   0  0  0  0  0  0  0  0  0  0  0  0
   -1.7244    3.9121    1.8251 O   0  0  0  0  0  0  0  0  0  0  0  0
   -3.1099    4.0905   -0.1720 C   0  0  0  0  0  0  0  0  0  0  0  0
   -1.9990    4.8939   -0.8910 C   0  0  0  0  0  0  0  0  0  0  0  0
    2.5219    7.1542    0.0415 H   0  0  0  0  0  0  0  0  0  0  0  0
    1.9772    6.5613    1.6740 H   0  0  0  0  0  0  0  0  0  0  0  0
    3.7381    6.7335    1.3216 H   0  0  0  0  0  0  0  0  0  0  0  0
    0.2719    6.0234    0.0595 H   0  0  0  0  0  0  0  0  0  0  0  0
   -1.2038    2.4447   -1.7452 H   0  0  0  0  0  0  0  0  0  0  0  0
    2.8934    2.6699   -0.4369 H   0  0  0  0  0  0  0  0  0  0  0  0
    2.1199    0.8809   -1.9868 H   0  0  0  0  0  0  0  0  0  0  0  0
    0.8445    0.5176    0.6621 H   0  0  0  0  0  0  0  0  0  0  0  0
    2.3170   -1.4737   -2.1612 H   0  0  0  0  0  0  0  0  0  0  0  0
    3.8556   -3.3048   -1.8919 H   0  0  0  0  0  0  0  0  0  0  0  0
    6.2170   -5.7076   -0.3603 H   0  0  0  0  0  0  0  0  0  0  0  0
    5.4420   -4.6768   -1.5826 H   0  0  0  0  0  0  0  0  0  0  0  0
    5.3106   -3.9995    3.8219 H   0  0  0  0  0  0  0  0  0  0  0  0
    2.2902   -0.7746    2.0797 H   0  0  0  0  0  0  0  0  0  0  0  0
   -3.2078    0.5215   -2.2546 H   0  0  0  0  0  0  0  0  0  0  0  0
   -2.0346    1.0898   -3.4905 H   0  0  0  0  0  0  0  0  0  0  0  0
   -2.5637   -0.6334   -3.4944 H   0  0  0  0  0  0  0  0  0  0  0  0
   -0.5016   -1.4298   -0.3990 H   0  0  0  0  0  0  0  0  0  0  0  0
   -1.7514   -2.0592   -1.4764 H   0  0  0  0  0  0  0  0  0  0  0  0
   -1.6901    1.2729    0.2295 H   0  0  0  0  0  0  0  0  0  0  0  0
   -5.2826    0.5615    2.4781 H   0  0  0  0  0  0  0  0  0  0  0  0
   -5.1847   -1.8080    1.8854 H   0  0  0  0  0  0  0  0  0  0  0  0
   -1.2426   -3.5257    1.6721 H   0  0  0  0  0  0  0  0  0  0  0  0
   -0.8938   -5.9168    1.3676 H   0  0  0  0  0  0  0  0  0  0  0  0
   -2.4078   -6.0084    0.1476 H   0  0  0  0  0  0  0  0  0  0  0  0
   -1.2636   -4.4919   -1.3607 H   0  0  0  0  0  0  0  0  0  0  0  0
    0.2303   -4.3956   -0.1312 H   0  0  0  0  0  0  0  0  0  0  0  0
   -4.4120    2.8314    2.2418 H   0  0  0  0  0  0  0  0  0  0  0  0
   -3.9566    4.7972    0.0297 H   0  0  0  0  0  0  0  0  0  0  0  0
   -3.5056    3.2858   -0.8447 H   0  0  0  0  0  0  0  0  0  0  0  0
   -2.2818    5.0072   -1.9606 H   0  0  0  0  0  0  0  0  0  0  0  0
   -1.9784    5.9231   -0.4615 H   0  0  0  0  0  0  0  0  0  0  0  0
  1  2  1  0
  2  3  1  0
  3  4  2  0
  4  5  1  0
  5  6  2  0
  6  7  1  0
  7  8  2  0
  7  9  1  0
  9 10  1  0
 10 11  1  0
 11 12  2  0
 12 13  1  0
 13 14  2  0
 14 15  1  0
 15 16  1  0
 15 17  2  0
 17 18  1  0
 18 19  2  0
 19 20  1  0
 19 21  1  0
 21 22  2  0
  9 23  1  0
 23 24  2  0
 23 25  1  0
 25 26  1  0
 25 27  1  0
 27 28  1  0
 28 29  2  0
 29 30  1  0
 30 31  2  0
 31 32  1  0
 32 33  2  0
 33 34  1  0
 34 35  2  0
 34 36  2  0
 34 37  1  0
 37 38  1  0
 38 39  1  0
 30 40  1  0
 40 41  1  0
 41 42  2  0
 41 43  1  0
 43 44  1  0
  8  3  1  0
 22 11  1  0
 33 28  1  0
 39 37  1  0
 44  5  1  0
 21 14  1  0
  1 45  1  0
  1 46  1  0
  1 47  1  0
  4 48  1  0
  6 49  1  0
  8 50  1  0
  9 51  1  6
 10 52  1  0
 12 53  1  0
 13 54  1  0
 16 55  1  0
 16 56  1  0
 18 57  1  0
 22 58  1  0
 26 59  1  0
 26 60  1  0
 26 61  1  0
 27 62  1  0
 27 63  1  0
 29 64  1  0
 31 65  1  0
 32 66  1  0
 37 67  1  0
 38 68  1  0
 38 69  1  0
 39 70  1  0
 39 71  1  0
 40 72  1  0
 43 73  1  0
 43 74  1  0
 44 75  1  0
 44 76  1  0
M  END
$$$$
