
     RDKit          3D

 57 60  0  0  0  0  0  0  0  0999 V2000
    2.6382   -0.0446   -2.9807 C   0  0  0  0  0  0  0  0  0  0  0  0
    4.0558    0.2878   -1.9640 S   0  0  0  0  0  6  0  0  0  0  0  0
    5.0634   -0.8185   -2.1260 O   0  0  0  0  0  0  0  0  0  0  0  0
    4.6779    1.5761   -2.4229 O   0  0  0  0  0  0  0  0  0  0  0  0
    3.6097    0.4565   -0.2910 N   0  0  0  0  0  0  0  0  0  0  0  0
    3.1777   -0.8126    0.3265 C   0  0  1  0  0  0  0  0  0  0  0  0
    3.7448   -0.8364    1.7661 C   0  0  0  0  0  0  0  0  0  0  0  0
    2.9671   -1.7712    2.6875 C   0  0  0  0  0  0  0  0  0  0  0  0
    1.4947   -1.3417    2.7931 C   0  0  0  0  0  0  0  0  0  0  0  0
    1.0666   -0.5680    1.6109 N   0  0  0  0  0  0  0  0  0  0  0  0
    0.1778    0.5798    1.8168 C   0  0  0  0  0  0  0  0  0  0  0  0
   -0.4585    0.6648    2.9002 O   0  0  0  0  0  0  0  0  0  0  0  0
   -0.0023    1.7229    0.8237 C   0  0  0  0  0  0  0  0  0  0  0  0
   -1.1501    2.5400    1.1583 O   0  0  0  0  0  0  0  0  0  0  0  0
   -2.3870    2.7183    0.4701 C   0  0  0  0  0  0  0  0  0  0  0  0
   -2.9465    4.0007    0.5313 C   0  0  0  0  0  0  0  0  0  0  0  0
   -4.1607    4.2923   -0.0912 C   0  0  0  0  0  0  0  0  0  0  0  0
   -4.8475    3.3017   -0.7823 C   0  0  0  0  0  0  0  0  0  0  0  0
   -4.3319    2.0087   -0.8443 C   0  0  0  0  0  0  0  0  0  0  0  0
   -3.1241    1.6907   -0.2066 C   0  0  0  0  0  0  0  0  0  0  0  0
   -2.5592    0.3166   -0.3295 C   0  0  0  0  0  0  0  0  0  0  0  0
   -3.4560   -0.9546   -0.2572 C   0  0  0  0  0  0  0  0  0  0  0  0
   -2.5435   -2.2404   -0.1515 C   0  0  0  0  0  0  0  0  0  0  0  0
   -1.0646   -1.8456   -0.3819 C   0  0  2  0  0  0  0  0  0  0  0  0
   -1.0664   -0.9744   -1.6582 C   0  0  0  0  0  0  0  0  0  0  0  0
   -1.6981    0.2825   -1.4639 O   0  0  0  0  0  0  0  0  0  0  0  0
   -0.1349   -2.8948   -0.4476 O   0  0  0  0  0  0  0  0  0  0  0  0
    1.2219   -2.4853   -0.1268 C   0  0  0  0  0  0  0  0  0  0  0  0
    1.6134   -0.9826    0.2918 C   0  0  0  0  0  0  0  0  0  0  0  0
    2.9161    0.0607   -4.0442 H   0  0  0  0  0  0  0  0  0  0  0  0
    2.2883   -1.0761   -2.8004 H   0  0  0  0  0  0  0  0  0  0  0  0
    1.8312    0.6787   -2.7454 H   0  0  0  0  0  0  0  0  0  0  0  0
    2.8753    1.1962   -0.2057 H   0  0  0  0  0  0  0  0  0  0  0  0
    3.6554   -1.6678   -0.2011 H   0  0  0  0  0  0  0  0  0  0  0  0
    3.7048    0.1868    2.2089 H   0  0  0  0  0  0  0  0  0  0  0  0
    4.8113   -1.1408    1.7394 H   0  0  0  0  0  0  0  0  0  0  0  0
    3.0477   -2.8093    2.3100 H   0  0  0  0  0  0  0  0  0  0  0  0
    3.4302   -1.7576    3.6992 H   0  0  0  0  0  0  0  0  0  0  0  0
    1.3912   -0.7302    3.7191 H   0  0  0  0  0  0  0  0  0  0  0  0
    0.8436   -2.2392    2.9025 H   0  0  0  0  0  0  0  0  0  0  0  0
   -0.0381    1.4064   -0.2254 H   0  0  0  0  0  0  0  0  0  0  0  0
    0.8987    2.3624    0.9094 H   0  0  0  0  0  0  0  0  0  0  0  0
   -2.4267    4.7852    1.0619 H   0  0  0  0  0  0  0  0  0  0  0  0
   -4.5654    5.2937   -0.0399 H   0  0  0  0  0  0  0  0  0  0  0  0
   -5.7825    3.5350   -1.2736 H   0  0  0  0  0  0  0  0  0  0  0  0
   -4.8776    1.2577   -1.3919 H   0  0  0  0  0  0  0  0  0  0  0  0
   -2.0239    0.2682    0.6181 H   0  0  0  0  0  0  0  0  0  0  0  0
   -4.1327   -0.8922    0.6217 H   0  0  0  0  0  0  0  0  0  0  0  0
   -4.0779   -1.0182   -1.1747 H   0  0  0  0  0  0  0  0  0  0  0  0
   -2.8615   -2.9944   -0.9056 H   0  0  0  0  0  0  0  0  0  0  0  0
   -2.6539   -2.7025    0.8558 H   0  0  0  0  0  0  0  0  0  0  0  0
   -0.8369   -1.3170    0.5315 H   0  0  0  0  0  0  0  0  0  0  0  0
   -0.0558   -0.8122   -2.0620 H   0  0  0  0  0  0  0  0  0  0  0  0
   -1.5981   -1.5129   -2.4735 H   0  0  0  0  0  0  0  0  0  0  0  0
    1.8257   -2.7334   -1.0290 H   0  0  0  0  0  0  0  0  0  0  0  0
    1.5884   -3.1831    0.6539 H   0  0  0  0  0  0  0  0  0  0  0  0
    1.2452   -0.3129   -0.4893 H   0  0  0  0  0  0  0  0  0  0  0  0
  1  2  1  0
  2  3  2  0
  2  4  2  0
  2  5  1  0
  5  6  1  0
  6  7  1  0
  7  8  1  0
  8  9  1  0
  9 10  1  0
 10 11  1  0
 11 12  2  0
 11 13  1  0
 13 14  1  0
 14 15  1  0
 15 16  2  0
 16 17  1  0
 17 18  2  0
 18 19  1  0
 19 20  2  0
 20 21  1  0
 21 22  1  0
 22 23  1  0
 23 24  1  0
 24 25  1  0
 25 26  1  0
 24 27  1  0
 27 28  1  0
 28 29  1  0
 29  6  1  0
 29 10  1  0
 20 15  1  0
 26 21  1  0
  1 30  1  0
  1 31  1  0
  1 32  1  0
  5 33  1  0
  6 34  1  6
  7 35  1  0
  7 36  1  0
  8 37  1  0
  8 38  1  0
  9 39  1  0
  9 40  1  0
 13 41  1  0
 13 42  1  0
 16 43  1  0
 17 44  1  0
 18 45  1  0
 19 46  1  0
 21 47  1  0
 22 48  1  0
 22 49  1  0
 23 50  1  0
 23 51  1  0
 24 52  1  1
 25 53  1  0
 25 54  1  0
 28 55  1  0
 28 56  1  0
 29 57  1  0
M  END
$$$$
