
     RDKit          3D

117123  0  0  0  0  0  0  0  0999 V2000
   -5.2659    4.8516   -0.9433 C   0  0  0  0  0  0  0  0  0  0  0  0
   -5.6339    4.1442    0.3594 C   0  0  0  0  0  0  0  0  0  0  0  0
   -4.9044    2.8761    0.4906 N   0  0  0  0  0  0  0  0  0  0  0  0
   -5.3864    1.6209    0.2744 C   0  0  0  0  0  0  0  0  0  0  0  0
   -6.7757    1.3223   -0.1290 C   0  0  0  0  0  0  0  0  0  0  0  0
   -7.1724    1.6134   -1.4423 C   0  0  0  0  0  0  0  0  0  0  0  0
   -8.4766    1.3507   -1.8581 C   0  0  0  0  0  0  0  0  0  0  0  0
   -9.3865    0.8096   -0.9502 C   0  0  0  0  0  0  0  0  0  0  0  0
   -8.9994    0.5499    0.3253 N   0  0  0  0  0  0  0  0  0  0  0  0
   -7.7254    0.7709    0.7654 C   0  0  0  0  0  0  0  0  0  0  0  0
   -7.4101    0.5637    2.2330 C   0  0  2  0  0  0  0  0  0  0  0  0
   -8.2589   -0.5668    2.8332 C   0  0  0  0  0  0  0  0  0  0  0  0
   -7.6839    1.7786    2.9092 O   0  0  0  0  0  0  0  0  0  0  0  0
   -6.7383    2.0070    3.9342 C   0  0  0  0  0  0  0  0  0  0  0  0
   -4.3738    0.6682    0.4330 C   0  0  0  0  0  0  0  0  0  0  0  0
   -3.2459    1.3981    0.7717 C   0  0  0  0  0  0  0  0  0  0  0  0
   -1.9335    0.9924    0.9955 C   0  0  0  0  0  0  0  0  0  0  0  0
   -0.9359    1.9775    1.1210 C   0  0  0  0  0  0  0  0  0  0  0  0
   -1.3046    3.3432    1.1943 C   0  0  0  0  0  0  0  0  0  0  0  0
   -2.6492    3.7256    1.0489 C   0  0  0  0  0  0  0  0  0  0  0  0
   -3.5973    2.7264    0.7943 C   0  0  0  0  0  0  0  0  0  0  0  0
    0.4755    1.5789    0.9594 C   0  0  0  0  0  0  0  0  0  0  0  0
    1.5582    2.2373    1.5452 C   0  0  0  0  0  0  0  0  0  0  0  0
    2.9676    1.5134    0.9721 S   0  0  0  0  0  0  0  0  0  0  0  0
    2.1470    0.4042    0.0066 C   0  0  0  0  0  0  0  0  0  0  0  0
    0.8118    0.5655    0.1144 N   0  0  0  0  0  0  0  0  0  0  0  0
    2.7733   -0.6073   -0.9072 C   0  0  0  0  0  0  0  0  0  0  0  0
    3.3182   -1.8203   -0.1211 C   0  0  2  0  0  0  0  0  0  0  0  0
    4.6614   -1.5107    0.4038 N   0  0  0  0  0  0  0  0  0  0  0  0
    5.8359   -1.3900   -0.4321 C   0  0  0  0  0  0  0  0  0  0  0  0
    5.7145   -1.4444   -1.6867 O   0  0  0  0  0  0  0  0  0  0  0  0
    7.2360   -1.1984    0.1270 C   0  0  2  0  0  0  0  0  0  0  0  0
    7.4258   -1.5191    1.6429 C   0  0  0  0  0  0  0  0  0  0  0  0
    7.1660   -3.0091    1.9368 C   0  0  0  0  0  0  0  0  0  0  0  0
    8.8508   -1.1645    2.1025 C   0  0  0  0  0  0  0  0  0  0  0  0
    7.7230    0.1595   -0.2161 N   0  0  0  0  0  0  0  0  0  0  0  0
    8.8078    0.3032   -1.1949 C   0  0  0  0  0  0  0  0  0  0  0  0
    7.0893    1.3385    0.3397 C   0  0  0  0  0  0  0  0  0  0  0  0
    6.0640    1.2182    1.0599 O   0  0  0  0  0  0  0  0  0  0  0  0
    7.5948    2.6572    0.1049 N   0  0  0  0  0  0  0  0  0  0  0  0
    7.1276    4.0209    0.4137 C   0  0  0  0  0  0  0  0  0  0  0  0
    8.3242    4.7318   -0.1247 C   0  0  0  0  0  0  0  0  0  0  0  0
    8.7809    3.3479   -0.4424 C   0  0  0  0  0  0  0  0  0  0  0  0
    3.3086   -3.1270   -0.9053 C   0  0  0  0  0  0  0  0  0  0  0  0
    4.3639   -3.8124   -0.9925 O   0  0  0  0  0  0  0  0  0  0  0  0
    2.0812   -3.6945   -1.3932 N   0  0  0  0  0  0  0  0  0  0  0  0
    1.7953   -5.0973   -1.0654 C   0  0  0  0  0  0  0  0  0  0  0  0
    0.2813   -5.3675   -1.0694 C   0  0  0  0  0  0  0  0  0  0  0  0
   -0.5182   -4.0858   -1.2947 C   0  0  0  0  0  0  0  0  0  0  0  0
   -0.0028   -3.3544   -2.5550 C   0  0  2  0  0  0  0  0  0  0  0  0
    1.4605   -3.1074   -2.5202 N   0  0  0  0  0  0  0  0  0  0  0  0
   -0.7438   -2.0533   -2.7381 C   0  0  0  0  0  0  0  0  0  0  0  0
   -0.1487   -1.0261   -3.1707 O   0  0  0  0  0  0  0  0  0  0  0  0
   -2.1085   -1.9818   -2.4517 O   0  0  0  0  0  0  0  0  0  0  0  0
   -2.5679   -1.2306   -1.3323 C   0  0  0  0  0  0  0  0  0  0  0  0
   -4.0779   -1.4444   -1.0756 C   0  0  0  0  0  0  0  0  0  0  0  0
   -4.8987   -0.8232   -2.2199 C   0  0  0  0  0  0  0  0  0  0  0  0
   -4.3713   -2.9599   -1.0251 C   0  0  0  0  0  0  0  0  0  0  0  0
   -4.4974   -0.8371    0.3024 C   0  0  0  0  0  0  0  0  0  0  0  0
   -5.4962    4.2062   -1.8103 H   0  0  0  0  0  0  0  0  0  0  0  0
   -5.8521    5.7881   -1.0350 H   0  0  0  0  0  0  0  0  0  0  0  0
   -4.1891    5.1089   -0.9570 H   0  0  0  0  0  0  0  0  0  0  0  0
   -6.7326    3.9670    0.3795 H   0  0  0  0  0  0  0  0  0  0  0  0
   -5.3971    4.8022    1.2229 H   0  0  0  0  0  0  0  0  0  0  0  0
   -6.4662    2.0329   -2.1482 H   0  0  0  0  0  0  0  0  0  0  0  0
   -8.7815    1.5720   -2.8748 H   0  0  0  0  0  0  0  0  0  0  0  0
  -10.4035    0.6117   -1.2563 H   0  0  0  0  0  0  0  0  0  0  0  0
   -6.3489    0.2429    2.3245 H   0  0  0  0  0  0  0  0  0  0  0  0
   -7.9519   -0.7617    3.8804 H   0  0  0  0  0  0  0  0  0  0  0  0
   -8.1203   -1.5008    2.2501 H   0  0  0  0  0  0  0  0  0  0  0  0
   -9.3374   -0.2928    2.8329 H   0  0  0  0  0  0  0  0  0  0  0  0
   -7.0080    2.9468    4.4564 H   0  0  0  0  0  0  0  0  0  0  0  0
   -6.7486    1.1847    4.6812 H   0  0  0  0  0  0  0  0  0  0  0  0
   -5.7161    2.1362    3.5110 H   0  0  0  0  0  0  0  0  0  0  0  0
   -1.6718   -0.0500    1.0251 H   0  0  0  0  0  0  0  0  0  0  0  0
   -0.5515    4.1130    1.2937 H   0  0  0  0  0  0  0  0  0  0  0  0
   -2.9249    4.7691    1.0771 H   0  0  0  0  0  0  0  0  0  0  0  0
    1.5075    3.0734    2.2320 H   0  0  0  0  0  0  0  0  0  0  0  0
    3.5719   -0.1176   -1.5016 H   0  0  0  0  0  0  0  0  0  0  0  0
    1.9972   -0.9135   -1.6281 H   0  0  0  0  0  0  0  0  0  0  0  0
    2.6420   -1.9970    0.7449 H   0  0  0  0  0  0  0  0  0  0  0  0
    4.7324   -1.3530    1.4313 H   0  0  0  0  0  0  0  0  0  0  0  0
    7.8562   -1.9537   -0.4059 H   0  0  0  0  0  0  0  0  0  0  0  0
    6.7308   -0.9118    2.2590 H   0  0  0  0  0  0  0  0  0  0  0  0
    7.9184   -3.6484    1.4260 H   0  0  0  0  0  0  0  0  0  0  0  0
    7.2221   -3.1964    3.0308 H   0  0  0  0  0  0  0  0  0  0  0  0
    6.1593   -3.3182    1.5919 H   0  0  0  0  0  0  0  0  0  0  0  0
    9.0114   -1.4787    3.1541 H   0  0  0  0  0  0  0  0  0  0  0  0
    9.0155   -0.0678    2.0581 H   0  0  0  0  0  0  0  0  0  0  0  0
    9.6074   -1.6658    1.4601 H   0  0  0  0  0  0  0  0  0  0  0  0
    9.1297   -0.6760   -1.6078 H   0  0  0  0  0  0  0  0  0  0  0  0
    9.6917    0.7639   -0.7054 H   0  0  0  0  0  0  0  0  0  0  0  0
    8.4665    0.9243   -2.0469 H   0  0  0  0  0  0  0  0  0  0  0  0
    6.1980    4.2564   -0.1538 H   0  0  0  0  0  0  0  0  0  0  0  0
    7.0031    4.1566    1.5118 H   0  0  0  0  0  0  0  0  0  0  0  0
    8.1027    5.3448   -1.0275 H   0  0  0  0  0  0  0  0  0  0  0  0
    8.9286    5.2254    0.6660 H   0  0  0  0  0  0  0  0  0  0  0  0
    9.7004    3.0745    0.1217 H   0  0  0  0  0  0  0  0  0  0  0  0
    8.8779    3.1855   -1.5391 H   0  0  0  0  0  0  0  0  0  0  0  0
    2.2034   -5.3385   -0.0577 H   0  0  0  0  0  0  0  0  0  0  0  0
    2.2969   -5.7581   -1.8097 H   0  0  0  0  0  0  0  0  0  0  0  0
   -0.0268   -5.8209   -0.1020 H   0  0  0  0  0  0  0  0  0  0  0  0
    0.0309   -6.0981   -1.8712 H   0  0  0  0  0  0  0  0  0  0  0  0
   -0.4131   -3.4283   -0.4013 H   0  0  0  0  0  0  0  0  0  0  0  0
   -1.5929   -4.3480   -1.4144 H   0  0  0  0  0  0  0  0  0  0  0  0
   -0.2472   -3.9902   -3.4387 H   0  0  0  0  0  0  0  0  0  0  0  0
    1.8978   -3.5237   -3.3752 H   0  0  0  0  0  0  0  0  0  0  0  0
   -2.0043   -1.5860   -0.4455 H   0  0  0  0  0  0  0  0  0  0  0  0
   -2.3494   -0.1538   -1.5023 H   0  0  0  0  0  0  0  0  0  0  0  0
   -5.9864   -0.9456   -2.0298 H   0  0  0  0  0  0  0  0  0  0  0  0
   -4.6746    0.2593   -2.3260 H   0  0  0  0  0  0  0  0  0  0  0  0
   -4.6618   -1.3143   -3.1859 H   0  0  0  0  0  0  0  0  0  0  0  0
   -3.7811   -3.4508   -0.2222 H   0  0  0  0  0  0  0  0  0  0  0  0
   -4.1168   -3.4512   -1.9882 H   0  0  0  0  0  0  0  0  0  0  0  0
   -5.4506   -3.1456   -0.8300 H   0  0  0  0  0  0  0  0  0  0  0  0
   -3.8970   -1.3040    1.1133 H   0  0  0  0  0  0  0  0  0  0  0  0
   -5.5509   -1.1187    0.5115 H   0  0  0  0  0  0  0  0  0  0  0  0
  1  2  1  0
  2  3  1  0
  3  4  1  0
  4  5  1  0
  5  6  2  0
  6  7  1  0
  7  8  2  0
  8  9  1  0
  9 10  2  0
 10 11  1  0
 11 12  1  0
 11 13  1  0
 13 14  1  0
  4 15  2  0
 15 16  1  0
 16 17  2  0
 17 18  1  0
 18 19  2  0
 19 20  1  0
 20 21  2  0
 18 22  1  0
 22 23  2  0
 23 24  1  0
 24 25  1  0
 25 26  2  0
 25 27  1  0
 27 28  1  0
 28 29  1  0
 29 30  1  0
 30 31  2  0
 30 32  1  0
 32 33  1  0
 33 34  1  0
 33 35  1  0
 32 36  1  0
 36 37  1  0
 36 38  1  0
 38 39  2  0
 38 40  1  0
 40 41  1  0
 41 42  1  0
 42 43  1  0
 28 44  1  0
 44 45  2  0
 44 46  1  0
 46 47  1  0
 47 48  1  0
 48 49  1  0
 49 50  1  0
 50 51  1  0
 50 52  1  0
 52 53  2  0
 52 54  1  0
 54 55  1  0
 55 56  1  0
 56 57  1  0
 56 58  1  0
 56 59  1  0
 21  3  1  0
 26 22  1  0
 43 40  1  0
 51 46  1  0
 10  5  1  0
 59 15  1  0
 21 16  1  0
  1 60  1  0
  1 61  1  0
  1 62  1  0
  2 63  1  0
  2 64  1  0
  6 65  1  0
  7 66  1  0
  8 67  1  0
 11 68  1  6
 12 69  1  0
 12 70  1  0
 12 71  1  0
 14 72  1  0
 14 73  1  0
 14 74  1  0
 17 75  1  0
 19 76  1  0
 20 77  1  0
 23 78  1  0
 27 79  1  0
 27 80  1  0
 28 81  1  1
 29 82  1  0
 32 83  1  6
 33 84  1  0
 34 85  1  0
 34 86  1  0
 34 87  1  0
 35 88  1  0
 35 89  1  0
 35 90  1  0
 37 91  1  0
 37 92  1  0
 37 93  1  0
 41 94  1  0
 41 95  1  0
 42 96  1  0
 42 97  1  0
 43 98  1  0
 43 99  1  0
 47100  1  0
 47101  1  0
 48102  1  0
 48103  1  0
 49104  1  0
 49105  1  0
 50106  1  6
 51107  1  0
 55108  1  0
 55109  1  0
 57110  1  0
 57111  1  0
 57112  1  0
 58113  1  0
 58114  1  0
 58115  1  0
 59116  1  0
 59117  1  0
M  END
$$$$
