
     RDKit          3D

 59 62  0  0  0  0  0  0  0  0999 V2000
    6.4774    0.4897    0.0710 C   0  0  0  0  0  0  0  0  0  0  0  0
    5.3482    1.3295   -1.0183 S   0  0  0  0  0  6  0  0  0  0  0  0
    5.3292    0.6320   -2.3491 O   0  0  0  0  0  0  0  0  0  0  0  0
    5.8259    2.7405   -1.2146 O   0  0  0  0  0  0  0  0  0  0  0  0
    3.7385    1.3682   -0.3560 N   0  0  0  0  0  0  0  0  0  0  0  0
    3.1968    0.0115   -0.1310 C   0  0  1  0  0  0  0  0  0  0  0  0
    3.3973   -0.4486    1.3417 C   0  0  0  0  0  0  0  0  0  0  0  0
    2.1692   -0.2553    2.2508 C   0  0  0  0  0  0  0  0  0  0  0  0
    1.2634    0.8967    1.8104 C   0  0  0  0  0  0  0  0  0  0  0  0
    0.9207    0.8556    0.3747 N   0  0  0  0  0  0  0  0  0  0  0  0
    0.0015    1.8769   -0.0976 C   0  0  0  0  0  0  0  0  0  0  0  0
   -0.3042    2.8339    0.6662 O   0  0  0  0  0  0  0  0  0  0  0  0
   -0.7141    1.8023   -1.4173 C   0  0  0  0  0  0  0  0  0  0  0  0
   -1.8595    0.9683   -1.2915 O   0  0  0  0  0  0  0  0  0  0  0  0
   -3.1028    1.3124   -0.7316 C   0  0  0  0  0  0  0  0  0  0  0  0
   -3.5579    2.6435   -0.6966 C   0  0  0  0  0  0  0  0  0  0  0  0
   -4.8155    2.9467   -0.1718 C   0  0  0  0  0  0  0  0  0  0  0  0
   -5.6319    1.9320    0.3287 C   0  0  0  0  0  0  0  0  0  0  0  0
   -7.3450    2.3587    1.0579 Br  0  0  0  0  0  0  0  0  0  0  0  0
   -5.1890    0.6075    0.3144 C   0  0  0  0  0  0  0  0  0  0  0  0
   -3.9275    0.2795   -0.2131 C   0  0  0  0  0  0  0  0  0  0  0  0
   -3.4137   -1.1497   -0.0858 C   0  0  0  0  0  0  0  0  0  0  0  0
   -2.2740   -1.1754    0.9678 C   0  0  0  0  0  0  0  0  0  0  0  0
   -1.3961   -2.4210    0.8870 C   0  0  0  0  0  0  0  0  0  0  0  0
   -0.8724   -2.6081   -0.5416 C   0  0  0  0  0  0  0  0  0  0  0  0
   -2.0711   -2.9143   -1.4440 C   0  0  0  0  0  0  0  0  0  0  0  0
   -3.0693   -1.7506   -1.4832 C   0  0  0  0  0  0  0  0  0  0  0  0
   -0.2212   -1.4245   -0.9930 O   0  0  0  0  0  0  0  0  0  0  0  0
    1.1539   -1.4368   -0.6600 C   0  0  0  0  0  0  0  0  0  0  0  0
    1.7089    0.0056   -0.5512 C   0  0  0  0  0  0  0  0  0  0  0  0
    6.4628    0.9764    1.0666 H   0  0  0  0  0  0  0  0  0  0  0  0
    6.1831   -0.5749    0.1700 H   0  0  0  0  0  0  0  0  0  0  0  0
    7.5035    0.5436   -0.3454 H   0  0  0  0  0  0  0  0  0  0  0  0
    3.7607    1.9265    0.5293 H   0  0  0  0  0  0  0  0  0  0  0  0
    3.7237   -0.7186   -0.7873 H   0  0  0  0  0  0  0  0  0  0  0  0
    4.2651    0.0767    1.7957 H   0  0  0  0  0  0  0  0  0  0  0  0
    3.6620   -1.5297    1.3469 H   0  0  0  0  0  0  0  0  0  0  0  0
    1.5723   -1.1889    2.2969 H   0  0  0  0  0  0  0  0  0  0  0  0
    2.5129   -0.0648    3.2909 H   0  0  0  0  0  0  0  0  0  0  0  0
    0.3295    0.8526    2.4137 H   0  0  0  0  0  0  0  0  0  0  0  0
    1.7726    1.8585    2.0385 H   0  0  0  0  0  0  0  0  0  0  0  0
   -0.0714    1.3865   -2.2101 H   0  0  0  0  0  0  0  0  0  0  0  0
   -0.9876    2.8150   -1.7727 H   0  0  0  0  0  0  0  0  0  0  0  0
   -2.9604    3.4534   -1.0864 H   0  0  0  0  0  0  0  0  0  0  0  0
   -5.1561    3.9740   -0.1561 H   0  0  0  0  0  0  0  0  0  0  0  0
   -5.8241   -0.1631    0.7331 H   0  0  0  0  0  0  0  0  0  0  0  0
   -4.2192   -1.7981    0.3257 H   0  0  0  0  0  0  0  0  0  0  0  0
   -1.6179   -0.2874    0.8775 H   0  0  0  0  0  0  0  0  0  0  0  0
   -2.7206   -1.1208    1.9837 H   0  0  0  0  0  0  0  0  0  0  0  0
   -1.9797   -3.3129    1.2051 H   0  0  0  0  0  0  0  0  0  0  0  0
   -0.5488   -2.3153    1.5953 H   0  0  0  0  0  0  0  0  0  0  0  0
   -0.2019   -3.5006   -0.5780 H   0  0  0  0  0  0  0  0  0  0  0  0
   -1.7105   -3.1232   -2.4742 H   0  0  0  0  0  0  0  0  0  0  0  0
   -2.5881   -3.8319   -1.0852 H   0  0  0  0  0  0  0  0  0  0  0  0
   -2.6776   -0.9987   -2.1916 H   0  0  0  0  0  0  0  0  0  0  0  0
   -4.0113   -2.1154   -1.9476 H   0  0  0  0  0  0  0  0  0  0  0  0
    1.7021   -1.9626   -1.4734 H   0  0  0  0  0  0  0  0  0  0  0  0
    1.3627   -1.9970    0.2746 H   0  0  0  0  0  0  0  0  0  0  0  0
    1.6966    0.4339   -1.5723 H   0  0  0  0  0  0  0  0  0  0  0  0
  1  2  1  0
  2  3  2  0
  2  4  2  0
  2  5  1  0
  5  6  1  0
  6  7  1  0
  7  8  1  0
  8  9  1  0
  9 10  1  0
 10 11  1  0
 11 12  2  0
 11 13  1  0
 13 14  1  0
 14 15  1  0
 15 16  2  0
 16 17  1  0
 17 18  2  0
 18 19  1  0
 18 20  1  0
 20 21  2  0
 21 22  1  0
 22 23  1  0
 23 24  1  0
 24 25  1  0
 25 26  1  0
 26 27  1  0
 25 28  1  0
 28 29  1  0
 29 30  1  0
 30  6  1  0
 30 10  1  0
 21 15  1  0
 27 22  1  0
  1 31  1  0
  1 32  1  0
  1 33  1  0
  5 34  1  0
  6 35  1  6
  7 36  1  0
  7 37  1  0
  8 38  1  0
  8 39  1  0
  9 40  1  0
  9 41  1  0
 13 42  1  0
 13 43  1  0
 16 44  1  0
 17 45  1  0
 20 46  1  0
 22 47  1  0
 23 48  1  0
 23 49  1  0
 24 50  1  0
 24 51  1  0
 25 52  1  0
 26 53  1  0
 26 54  1  0
 27 55  1  0
 27 56  1  0
 29 57  1  0
 29 58  1  0
 30 59  1  0
M  END
$$$$
