
     RDKit          3D

 75 78  0  0  0  0  0  0  0  0999 V2000
    0.6405   -3.7407    2.3546 O   0  0  0  0  0  0  0  0  0  0  0  0
    1.2234   -3.1739    1.3914 C   0  0  0  0  0  0  0  0  0  0  0  0
    1.3491   -3.9234    0.0874 C   0  0  0  0  0  0  0  0  0  0  0  0
    0.0332   -4.5859   -0.3520 C   0  0  0  0  0  0  0  0  0  0  0  0
   -1.0243   -3.4464   -1.3177 S   0  0  0  0  0  0  0  0  0  0  0  0
   -1.7323   -2.5376    0.0986 C   0  0  0  0  0  0  0  0  0  0  0  0
   -2.8874   -1.6935   -0.3587 C   0  0  0  0  0  0  0  0  0  0  0  0
   -2.6734   -0.6436   -1.2644 C   0  0  0  0  0  0  0  0  0  0  0  0
   -3.7349    0.1678   -1.6714 C   0  0  0  0  0  0  0  0  0  0  0  0
   -5.0263   -0.0507   -1.1661 C   0  0  0  0  0  0  0  0  0  0  0  0
   -5.2448   -1.1140   -0.2759 C   0  0  0  0  0  0  0  0  0  0  0  0
   -4.1828   -1.9279    0.1272 C   0  0  0  0  0  0  0  0  0  0  0  0
   -6.1624    0.8560   -1.5545 C   0  0  0  0  0  0  0  0  0  0  0  0
   -6.8291    1.7339   -0.0922 S   0  0  0  0  0  0  0  0  0  0  0  0
   -5.5737    3.0671   -0.0190 C   0  0  0  0  0  0  0  0  0  0  0  0
   -4.2372    2.5638    0.4485 C   0  0  0  0  0  0  0  0  0  0  0  0
   -4.0869    1.9467    1.6286 C   0  0  0  0  0  0  0  0  0  0  0  0
   -2.7476    1.4460    2.0831 C   0  0  0  0  0  0  0  0  0  0  0  0
   -1.9015    2.5744    2.4710 N   0  0  0  0  0  0  0  0  0  0  0  0
   -0.5986    2.8600    1.9331 C   0  0  0  0  0  0  0  0  0  0  0  0
    0.1849    3.5806    2.6114 O   0  0  0  0  0  0  0  0  0  0  0  0
   -0.1296    2.3137    0.5996 C   0  0  1  0  0  0  0  0  0  0  0  0
    0.6715    3.3705   -0.1860 C   0  0  0  0  0  0  0  0  0  0  0  0
    1.2435    2.8317   -1.5149 C   0  0  0  0  0  0  0  0  0  0  0  0
    1.0667    1.3169   -1.6955 C   0  0  0  0  0  0  0  0  0  0  0  0
    1.3663    0.6041   -0.4437 N   0  0  0  0  0  0  0  0  0  0  0  0
    0.7347    1.0573    0.8099 C   0  0  0  0  0  0  0  0  0  0  0  0
    2.1993   -0.5803   -0.4673 C   0  0  0  0  0  0  0  0  0  0  0  0
    2.4622   -1.1278   -1.5731 O   0  0  0  0  0  0  0  0  0  0  0  0
    2.7861   -1.1617    0.8084 C   0  0  2  0  0  0  0  0  0  0  0  0
    4.0376   -2.0481    0.5969 C   0  0  0  0  0  0  0  0  0  0  0  0
    5.2469   -1.2259    0.2227 C   0  0  0  0  0  0  0  0  0  0  0  0
    5.9479   -0.5153    1.2113 C   0  0  0  0  0  0  0  0  0  0  0  0
    7.0566    0.2638    0.8683 C   0  0  0  0  0  0  0  0  0  0  0  0
    7.4747    0.3414   -0.4639 C   0  0  0  0  0  0  0  0  0  0  0  0
    8.8701    1.3151   -0.8924 Cl  0  0  0  0  0  0  0  0  0  0  0  0
    6.7809   -0.3609   -1.4540 C   0  0  0  0  0  0  0  0  0  0  0  0
    5.6699   -1.1392   -1.1143 C   0  0  0  0  0  0  0  0  0  0  0  0
    1.7613   -1.8542    1.6036 N   0  0  0  0  0  0  0  0  0  0  0  0
    2.1164   -4.7149    0.2281 H   0  0  0  0  0  0  0  0  0  0  0  0
    1.6966   -3.2728   -0.7303 H   0  0  0  0  0  0  0  0  0  0  0  0
    0.2869   -5.4306   -1.0275 H   0  0  0  0  0  0  0  0  0  0  0  0
   -0.5201   -5.0242    0.5059 H   0  0  0  0  0  0  0  0  0  0  0  0
   -0.9605   -1.8699    0.5292 H   0  0  0  0  0  0  0  0  0  0  0  0
   -2.0539   -3.2537    0.8852 H   0  0  0  0  0  0  0  0  0  0  0  0
   -1.6819   -0.4533   -1.6507 H   0  0  0  0  0  0  0  0  0  0  0  0
   -3.5444    0.9801   -2.3612 H   0  0  0  0  0  0  0  0  0  0  0  0
   -6.2364   -1.3028    0.1167 H   0  0  0  0  0  0  0  0  0  0  0  0
   -4.3719   -2.7336    0.8238 H   0  0  0  0  0  0  0  0  0  0  0  0
   -5.8580    1.5859   -2.3349 H   0  0  0  0  0  0  0  0  0  0  0  0
   -6.9774    0.2378   -1.9863 H   0  0  0  0  0  0  0  0  0  0  0  0
   -5.9316    3.8442    0.6891 H   0  0  0  0  0  0  0  0  0  0  0  0
   -5.4686    3.5426   -1.0169 H   0  0  0  0  0  0  0  0  0  0  0  0
   -3.3757    2.7142   -0.1944 H   0  0  0  0  0  0  0  0  0  0  0  0
   -4.9472    1.7941    2.2728 H   0  0  0  0  0  0  0  0  0  0  0  0
   -2.2869    0.8182    1.2962 H   0  0  0  0  0  0  0  0  0  0  0  0
   -2.8905    0.7922    2.9692 H   0  0  0  0  0  0  0  0  0  0  0  0
   -2.2190    3.1449    3.2877 H   0  0  0  0  0  0  0  0  0  0  0  0
   -1.0119    2.0532   -0.0201 H   0  0  0  0  0  0  0  0  0  0  0  0
    0.0167    4.2452   -0.3947 H   0  0  0  0  0  0  0  0  0  0  0  0
    1.5190    3.7335    0.4364 H   0  0  0  0  0  0  0  0  0  0  0  0
    2.3302    3.0682   -1.5622 H   0  0  0  0  0  0  0  0  0  0  0  0
    0.7613    3.3532   -2.3712 H   0  0  0  0  0  0  0  0  0  0  0  0
    1.7271    0.9858   -2.5245 H   0  0  0  0  0  0  0  0  0  0  0  0
    0.0232    1.1011   -1.9993 H   0  0  0  0  0  0  0  0  0  0  0  0
    0.0953    0.2462    1.2152 H   0  0  0  0  0  0  0  0  0  0  0  0
    1.5250    1.2946    1.5537 H   0  0  0  0  0  0  0  0  0  0  0  0
    3.1320   -0.2956    1.4136 H   0  0  0  0  0  0  0  0  0  0  0  0
    4.2607   -2.5916    1.5418 H   0  0  0  0  0  0  0  0  0  0  0  0
    3.8608   -2.8253   -0.1736 H   0  0  0  0  0  0  0  0  0  0  0  0
    5.6333   -0.5643    2.2464 H   0  0  0  0  0  0  0  0  0  0  0  0
    7.5889    0.8061    1.6388 H   0  0  0  0  0  0  0  0  0  0  0  0
    7.1021   -0.3051   -2.4865 H   0  0  0  0  0  0  0  0  0  0  0  0
    5.1448   -1.6762   -1.8935 H   0  0  0  0  0  0  0  0  0  0  0  0
    1.4812   -1.3873    2.4966 H   0  0  0  0  0  0  0  0  0  0  0  0
  1  2  2  0
  2  3  1  0
  3  4  1  0
  4  5  1  0
  5  6  1  0
  6  7  1  0
  7  8  2  0
  8  9  1  0
  9 10  2  0
 10 11  1  0
 11 12  2  0
 10 13  1  0
 13 14  1  0
 14 15  1  0
 15 16  1  0
 16 17  2  0
 17 18  1  0
 18 19  1  0
 19 20  1  0
 20 21  2  0
 20 22  1  0
 22 23  1  0
 23 24  1  0
 24 25  1  0
 25 26  1  0
 26 27  1  0
 26 28  1  0
 28 29  2  0
 28 30  1  0
 30 31  1  0
 31 32  1  0
 32 33  2  0
 33 34  1  0
 34 35  2  0
 35 36  1  0
 35 37  1  0
 37 38  2  0
 30 39  1  0
 39  2  1  0
 12  7  1  0
 27 22  1  0
 38 32  1  0
  3 40  1  0
  3 41  1  0
  4 42  1  0
  4 43  1  0
  6 44  1  0
  6 45  1  0
  8 46  1  0
  9 47  1  0
 11 48  1  0
 12 49  1  0
 13 50  1  0
 13 51  1  0
 15 52  1  0
 15 53  1  0
 16 54  1  0
 17 55  1  0
 18 56  1  0
 18 57  1  0
 19 58  1  0
 22 59  1  6
 23 60  1  0
 23 61  1  0
 24 62  1  0
 24 63  1  0
 25 64  1  0
 25 65  1  0
 27 66  1  0
 27 67  1  0
 30 68  1  1
 31 69  1  0
 31 70  1  0
 33 71  1  0
 34 72  1  0
 37 73  1  0
 38 74  1  0
 39 75  1  0
M  END
$$$$
