
     RDKit          3D

 68 71  0  0  0  0  0  0  0  0999 V2000
   -6.3309    1.3988   -0.6424 C   0  0  0  0  0  0  0  0  0  0  0  0
   -5.4785    0.2303   -1.0697 C   0  0  0  0  0  0  0  0  0  0  0  0
   -5.9614   -0.6039   -2.0912 C   0  0  0  0  0  0  0  0  0  0  0  0
   -5.2131   -1.6860   -2.5406 C   0  0  0  0  0  0  0  0  0  0  0  0
   -3.9747   -1.9665   -1.9740 C   0  0  0  0  0  0  0  0  0  0  0  0
   -3.4638   -1.1657   -0.9377 C   0  0  0  0  0  0  0  0  0  0  0  0
   -4.2099   -0.0399   -0.4806 C   0  0  0  0  0  0  0  0  0  0  0  0
   -3.6101    0.8881    0.5838 C   0  0  0  0  0  0  0  0  0  0  0  0
   -2.3447    1.5841    0.0115 C   0  0  0  0  0  0  0  0  0  0  0  0
   -1.4631    2.2191    1.0874 C   0  0  0  0  0  0  0  0  0  0  0  0
   -1.1409    1.2033    2.1960 C   0  0  0  0  0  0  0  0  0  0  0  0
   -2.4553    0.8444    2.8971 C   0  0  0  0  0  0  0  0  0  0  0  0
   -3.4157    0.1345    1.9322 C   0  0  0  0  0  0  0  0  0  0  0  0
   -0.5847    0.0150    1.6545 O   0  0  0  0  0  0  0  0  0  0  0  0
    0.7978    0.1345    1.3850 C   0  0  0  0  0  0  0  0  0  0  0  0
    1.1162   -0.5868    0.0563 C   0  0  1  0  0  0  0  0  0  0  0  0
    2.4861   -0.1771   -0.5746 C   0  0  1  0  0  0  0  0  0  0  0  0
    3.6200   -0.1665    0.3778 N   0  0  0  0  0  0  0  0  0  0  0  0
    4.4104    1.3833    0.4401 S   0  0  0  0  0  6  0  0  0  0  0  0
    3.3908    2.4774    0.5994 O   0  0  0  0  0  0  0  0  0  0  0  0
    5.3399    1.4112    1.6217 O   0  0  0  0  0  0  0  0  0  0  0  0
    5.3525    1.6416   -1.0644 C   0  0  0  0  0  0  0  0  0  0  0  0
    5.9729    3.0403   -1.0721 C   0  0  0  0  0  0  0  0  0  0  0  0
    6.4364    0.5683   -1.1981 C   0  0  0  0  0  0  0  0  0  0  0  0
    2.8076   -1.1621   -1.7092 C   0  0  0  0  0  0  0  0  0  0  0  0
    2.9660   -2.6122   -1.2040 C   0  0  0  0  0  0  0  0  0  0  0  0
    2.1907   -2.9034    0.0952 C   0  0  0  0  0  0  0  0  0  0  0  0
    1.0001   -2.0521    0.1973 N   0  0  0  0  0  0  0  0  0  0  0  0
   -0.2851   -2.6778    0.3467 C   0  0  0  0  0  0  0  0  0  0  0  0
   -0.5153   -3.3836    1.3648 O   0  0  0  0  0  0  0  0  0  0  0  0
   -1.3511   -2.5265   -0.6982 C   0  0  0  0  0  0  0  0  0  0  0  0
   -2.2229   -1.4586   -0.3398 O   0  0  0  0  0  0  0  0  0  0  0  0
   -6.5663    1.3192    0.4397 H   0  0  0  0  0  0  0  0  0  0  0  0
   -7.2947    1.4317   -1.1927 H   0  0  0  0  0  0  0  0  0  0  0  0
   -5.7950    2.3498   -0.8459 H   0  0  0  0  0  0  0  0  0  0  0  0
   -6.9228   -0.4125   -2.5523 H   0  0  0  0  0  0  0  0  0  0  0  0
   -5.5965   -2.3120   -3.3358 H   0  0  0  0  0  0  0  0  0  0  0  0
   -3.4198   -2.8121   -2.3548 H   0  0  0  0  0  0  0  0  0  0  0  0
   -4.3011    1.7192    0.8279 H   0  0  0  0  0  0  0  0  0  0  0  0
   -1.7191    0.8879   -0.5790 H   0  0  0  0  0  0  0  0  0  0  0  0
   -2.6649    2.3789   -0.6981 H   0  0  0  0  0  0  0  0  0  0  0  0
   -0.5298    2.5933    0.6172 H   0  0  0  0  0  0  0  0  0  0  0  0
   -1.9825    3.1024    1.5200 H   0  0  0  0  0  0  0  0  0  0  0  0
   -0.4649    1.6668    2.9529 H   0  0  0  0  0  0  0  0  0  0  0  0
   -2.9382    1.7607    3.3047 H   0  0  0  0  0  0  0  0  0  0  0  0
   -2.2395    0.1702    3.7555 H   0  0  0  0  0  0  0  0  0  0  0  0
   -4.4052    0.0331    2.4287 H   0  0  0  0  0  0  0  0  0  0  0  0
   -3.0499   -0.9000    1.7896 H   0  0  0  0  0  0  0  0  0  0  0  0
    1.1429    1.1902    1.3062 H   0  0  0  0  0  0  0  0  0  0  0  0
    1.3448   -0.3417    2.2251 H   0  0  0  0  0  0  0  0  0  0  0  0
    0.3498   -0.2581   -0.6787 H   0  0  0  0  0  0  0  0  0  0  0  0
    2.3462    0.8228   -1.0442 H   0  0  0  0  0  0  0  0  0  0  0  0
    3.3426   -0.4194    1.3491 H   0  0  0  0  0  0  0  0  0  0  0  0
    4.6611    1.5578   -1.9307 H   0  0  0  0  0  0  0  0  0  0  0  0
    6.6741    3.1642   -0.2189 H   0  0  0  0  0  0  0  0  0  0  0  0
    5.1773    3.8116   -0.9996 H   0  0  0  0  0  0  0  0  0  0  0  0
    6.5292    3.2058   -2.0199 H   0  0  0  0  0  0  0  0  0  0  0  0
    5.9780   -0.4430   -1.2022 H   0  0  0  0  0  0  0  0  0  0  0  0
    6.9932    0.7013   -2.1507 H   0  0  0  0  0  0  0  0  0  0  0  0
    7.1538    0.6317   -0.3513 H   0  0  0  0  0  0  0  0  0  0  0  0
    1.9852   -1.1280   -2.4585 H   0  0  0  0  0  0  0  0  0  0  0  0
    3.7345   -0.8478   -2.2352 H   0  0  0  0  0  0  0  0  0  0  0  0
    2.6193   -3.3059   -2.0011 H   0  0  0  0  0  0  0  0  0  0  0  0
    4.0430   -2.8244   -1.0292 H   0  0  0  0  0  0  0  0  0  0  0  0
    2.8435   -2.7169    0.9739 H   0  0  0  0  0  0  0  0  0  0  0  0
    1.9154   -3.9816    0.1213 H   0  0  0  0  0  0  0  0  0  0  0  0
   -1.9186   -3.4802   -0.7525 H   0  0  0  0  0  0  0  0  0  0  0  0
   -0.8913   -2.3206   -1.6880 H   0  0  0  0  0  0  0  0  0  0  0  0
  1  2  1  0
  2  3  2  0
  3  4  1  0
  4  5  2  0
  5  6  1  0
  6  7  2  0
  7  8  1  0
  8  9  1  0
  9 10  1  0
 10 11  1  0
 11 12  1  0
 12 13  1  0
 11 14  1  0
 14 15  1  0
 15 16  1  0
 16 17  1  0
 17 18  1  0
 18 19  1  0
 19 20  2  0
 19 21  2  0
 19 22  1  0
 22 23  1  0
 22 24  1  0
 17 25  1  0
 25 26  1  0
 26 27  1  0
 27 28  1  0
 28 29  1  0
 29 30  2  0
 29 31  1  0
 31 32  1  0
  7  2  1  0
 13  8  1  0
 28 16  1  0
 32  6  1  0
  1 33  1  0
  1 34  1  0
  1 35  1  0
  3 36  1  0
  4 37  1  0
  5 38  1  0
  8 39  1  0
  9 40  1  0
  9 41  1  0
 10 42  1  0
 10 43  1  0
 11 44  1  0
 12 45  1  0
 12 46  1  0
 13 47  1  0
 13 48  1  0
 15 49  1  0
 15 50  1  0
 16 51  1  6
 17 52  1  6
 18 53  1  0
 22 54  1  0
 23 55  1  0
 23 56  1  0
 23 57  1  0
 24 58  1  0
 24 59  1  0
 24 60  1  0
 25 61  1  0
 25 62  1  0
 26 63  1  0
 26 64  1  0
 27 65  1  0
 27 66  1  0
 31 67  1  0
 31 68  1  0
M  END
$$$$
