
     RDKit          3D

 67 72  0  0  0  0  0  0  0  0999 V2000
   -3.2648    2.9382    1.2594 C   0  0  0  0  0  0  0  0  0  0  0  0
   -2.4943    2.1961    0.2555 N   0  0  0  0  0  0  0  0  0  0  0  0
   -1.5540    2.9171   -0.6116 C   0  0  0  0  0  0  0  0  0  0  0  0
   -0.3694    3.4427    0.2024 C   0  0  0  0  0  0  0  0  0  0  0  0
    0.7653    3.7398   -0.6725 N   0  0  0  0  0  0  0  0  0  0  0  0
    2.1306    3.7097   -0.2282 C   0  0  0  0  0  0  0  0  0  0  0  0
    3.0138    4.2708   -0.9309 O   0  0  0  0  0  0  0  0  0  0  0  0
    2.5187    3.0630    1.0749 C   0  0  0  0  0  0  0  0  0  0  0  0
    3.9246    2.8254    1.1483 O   0  0  0  0  0  0  0  0  0  0  0  0
    4.5989    1.9077    0.3314 C   0  0  0  0  0  0  0  0  0  0  0  0
    5.6409    2.3946   -0.4689 C   0  0  0  0  0  0  0  0  0  0  0  0
    6.3318    1.5443   -1.3325 C   0  0  0  0  0  0  0  0  0  0  0  0
    6.0061    0.1899   -1.3850 C   0  0  0  0  0  0  0  0  0  0  0  0
    6.6911   -0.6406   -2.2088 F   0  0  0  0  0  0  0  0  0  0  0  0
    4.9945   -0.3175   -0.5675 C   0  0  0  0  0  0  0  0  0  0  0  0
    4.2725    0.5273    0.2945 C   0  0  0  0  0  0  0  0  0  0  0  0
    3.2882   -0.0789    1.2237 C   0  0  0  0  0  0  0  0  0  0  0  0
    3.2586    0.3073    2.4240 O   0  0  0  0  0  0  0  0  0  0  0  0
    2.4288   -1.1612    0.8097 N   0  0  0  0  0  0  0  0  0  0  0  0
    2.2917   -2.3206    1.7036 C   0  0  0  0  0  0  0  0  0  0  0  0
    2.0233   -3.6191    0.9271 C   0  0  0  0  0  0  0  0  0  0  0  0
    2.6639   -3.5891   -0.4658 C   0  0  0  0  0  0  0  0  0  0  0  0
    2.1872   -2.4001   -1.3292 C   0  0  0  0  0  0  0  0  0  0  0  0
    1.7627   -1.1535   -0.5068 C   0  0  1  0  0  0  0  0  0  0  0  0
    0.2555   -1.0270   -0.3479 C   0  0  0  0  0  0  0  0  0  0  0  0
   -0.6881   -2.0517   -0.4688 C   0  0  0  0  0  0  0  0  0  0  0  0
   -1.8802   -1.4059   -0.2884 C   0  0  0  0  0  0  0  0  0  0  0  0
   -3.1209   -1.9464   -0.3128 N   0  0  0  0  0  0  0  0  0  0  0  0
   -4.1980   -1.1350   -0.1210 C   0  0  0  0  0  0  0  0  0  0  0  0
   -5.5119   -1.6898   -0.1472 N   0  0  0  0  0  0  0  0  0  0  0  0
   -6.9014   -1.2217    0.0024 C   0  0  0  0  0  0  0  0  0  0  0  0
   -7.5396   -2.5558   -0.2007 C   0  0  0  0  0  0  0  0  0  0  0  0
   -6.1258   -3.0134   -0.3482 C   0  0  0  0  0  0  0  0  0  0  0  0
   -4.0160    0.2459    0.0875 C   0  0  0  0  0  0  0  0  0  0  0  0
   -2.7097    0.7769    0.0943 C   0  0  0  0  0  0  0  0  0  0  0  0
   -1.6765   -0.0989   -0.0875 N   0  0  0  0  0  0  0  0  0  0  0  0
   -0.3753    0.1540   -0.1085 N   0  0  0  0  0  0  0  0  0  0  0  0
   -4.3389    2.9562    0.9857 H   0  0  0  0  0  0  0  0  0  0  0  0
   -3.1402    2.4611    2.2545 H   0  0  0  0  0  0  0  0  0  0  0  0
   -2.9245    3.9924    1.3325 H   0  0  0  0  0  0  0  0  0  0  0  0
   -1.1930    2.2533   -1.4277 H   0  0  0  0  0  0  0  0  0  0  0  0
   -2.0765    3.7686   -1.0993 H   0  0  0  0  0  0  0  0  0  0  0  0
   -0.1036    2.6797    0.9579 H   0  0  0  0  0  0  0  0  0  0  0  0
   -0.6587    4.3692    0.7417 H   0  0  0  0  0  0  0  0  0  0  0  0
    0.5676    4.1986   -1.5911 H   0  0  0  0  0  0  0  0  0  0  0  0
    2.2297    3.7401    1.9051 H   0  0  0  0  0  0  0  0  0  0  0  0
    1.9698    2.1141    1.1981 H   0  0  0  0  0  0  0  0  0  0  0  0
    5.9001    3.4453   -0.4361 H   0  0  0  0  0  0  0  0  0  0  0  0
    7.1252    1.9358   -1.9563 H   0  0  0  0  0  0  0  0  0  0  0  0
    4.8072   -1.3813   -0.5754 H   0  0  0  0  0  0  0  0  0  0  0  0
    1.4713   -2.1353    2.4296 H   0  0  0  0  0  0  0  0  0  0  0  0
    3.2344   -2.4560    2.2797 H   0  0  0  0  0  0  0  0  0  0  0  0
    2.4370   -4.4782    1.4979 H   0  0  0  0  0  0  0  0  0  0  0  0
    0.9345   -3.7947    0.8446 H   0  0  0  0  0  0  0  0  0  0  0  0
    3.7673   -3.5367   -0.3424 H   0  0  0  0  0  0  0  0  0  0  0  0
    2.4383   -4.5405   -0.9942 H   0  0  0  0  0  0  0  0  0  0  0  0
    1.3727   -2.7286   -2.0090 H   0  0  0  0  0  0  0  0  0  0  0  0
    3.0217   -2.1157   -2.0059 H   0  0  0  0  0  0  0  0  0  0  0  0
    2.0793   -0.2559   -1.0833 H   0  0  0  0  0  0  0  0  0  0  0  0
   -0.5441   -3.0979   -0.6971 H   0  0  0  0  0  0  0  0  0  0  0  0
   -7.0752   -0.8142    1.0230 H   0  0  0  0  0  0  0  0  0  0  0  0
   -7.1639   -0.4938   -0.7973 H   0  0  0  0  0  0  0  0  0  0  0  0
   -8.1226   -2.6236   -1.1446 H   0  0  0  0  0  0  0  0  0  0  0  0
   -8.0348   -2.9493    0.7132 H   0  0  0  0  0  0  0  0  0  0  0  0
   -5.9053   -3.4025   -1.3672 H   0  0  0  0  0  0  0  0  0  0  0  0
   -5.8182   -3.7199    0.4546 H   0  0  0  0  0  0  0  0  0  0  0  0
   -4.8793    0.8851    0.2088 H   0  0  0  0  0  0  0  0  0  0  0  0
  1  2  1  0
  2  3  1  0
  3  4  1  0
  4  5  1  0
  5  6  1  0
  6  7  2  0
  6  8  1  0
  8  9  1  0
  9 10  1  0
 10 11  2  0
 11 12  1  0
 12 13  2  0
 13 14  1  0
 13 15  1  0
 15 16  2  0
 16 17  1  0
 17 18  2  0
 17 19  1  0
 19 20  1  0
 20 21  1  0
 21 22  1  0
 22 23  1  0
 23 24  1  0
 24 25  1  0
 25 26  1  0
 26 27  2  0
 27 28  1  0
 28 29  2  0
 29 30  1  0
 30 31  1  0
 31 32  1  0
 32 33  1  0
 29 34  1  0
 34 35  2  0
 35 36  1  0
 36 37  1  0
 35  2  1  0
 16 10  1  0
 24 19  1  0
 37 25  2  0
 36 27  1  0
 33 30  1  0
  1 38  1  0
  1 39  1  0
  1 40  1  0
  3 41  1  0
  3 42  1  0
  4 43  1  0
  4 44  1  0
  5 45  1  0
  8 46  1  0
  8 47  1  0
 11 48  1  0
 12 49  1  0
 15 50  1  0
 20 51  1  0
 20 52  1  0
 21 53  1  0
 21 54  1  0
 22 55  1  0
 22 56  1  0
 23 57  1  0
 23 58  1  0
 24 59  1  6
 26 60  1  0
 31 61  1  0
 31 62  1  0
 32 63  1  0
 32 64  1  0
 33 65  1  0
 33 66  1  0
 34 67  1  0
M  END
$$$$
