
     RDKit          3D

 85 89  0  0  0  0  0  0  0  0999 V2000
   -7.2660   -1.7512   -0.6727 C   0  0  0  0  0  0  0  0  0  0  0  0
   -5.9531   -1.0348   -1.0640 C   0  0  0  0  0  0  0  0  0  0  0  0
   -5.8879    0.3134   -0.3223 C   0  0  0  0  0  0  0  0  0  0  0  0
   -5.9660   -0.7904   -2.5868 C   0  0  0  0  0  0  0  0  0  0  0  0
   -4.7420   -1.8806   -0.6890 C   0  0  0  0  0  0  0  0  0  0  0  0
   -4.8987   -2.9404   -0.0179 O   0  0  0  0  0  0  0  0  0  0  0  0
   -3.4146   -1.4756   -1.0763 N   0  0  0  0  0  0  0  0  0  0  0  0
   -2.2348   -2.3120   -0.8297 C   0  0  1  0  0  0  0  0  0  0  0  0
   -1.2322   -2.2107   -2.0129 C   0  0  0  0  0  0  0  0  0  0  0  0
    0.1794   -2.5915   -1.6406 C   0  0  0  0  0  0  0  0  0  0  0  0
    0.4659   -3.8452   -1.0661 C   0  0  0  0  0  0  0  0  0  0  0  0
    1.6977   -4.0599   -0.4367 C   0  0  0  0  0  0  0  0  0  0  0  0
    2.6310   -3.0188   -0.3710 C   0  0  0  0  0  0  0  0  0  0  0  0
    2.4234   -1.8514   -1.1203 C   0  0  0  0  0  0  0  0  0  0  0  0
    1.1989   -1.6345   -1.7431 C   0  0  0  0  0  0  0  0  0  0  0  0
    3.6496   -3.0494    0.5840 O   0  0  0  0  0  0  0  0  0  0  0  0
    3.5465   -2.1226    1.6236 C   0  0  0  0  0  0  0  0  0  0  0  0
    2.5266   -2.2936    2.5655 C   0  0  0  0  0  0  0  0  0  0  0  0
    2.0696   -1.2058    3.3008 C   0  0  0  0  0  0  0  0  0  0  0  0
    2.6471    0.0538    3.1137 C   0  0  0  0  0  0  0  0  0  0  0  0
    3.8075    0.1752    2.3332 C   0  0  0  0  0  0  0  0  0  0  0  0
    4.2863   -0.9248    1.5925 C   0  0  0  0  0  0  0  0  0  0  0  0
    5.3603   -0.7750    0.6422 N   0  0  0  0  0  0  0  0  0  0  0  0
    6.3242    0.2898    0.6625 C   0  0  0  0  0  0  0  0  0  0  0  0
    6.6665    0.8098    1.7601 O   0  0  0  0  0  0  0  0  0  0  0  0
    6.9403    0.7514   -0.6001 C   0  0  0  0  0  0  0  0  0  0  0  0
    7.8953    1.7830   -0.6119 C   0  0  0  0  0  0  0  0  0  0  0  0
    8.4330    2.2092   -1.8285 C   0  0  0  0  0  0  0  0  0  0  0  0
    8.0266    1.6046   -3.0183 C   0  0  0  0  0  0  0  0  0  0  0  0
    7.0790    0.5804   -2.9734 C   0  0  0  0  0  0  0  0  0  0  0  0
    6.5605    0.1844   -1.7791 N   0  0  0  0  0  0  0  0  0  0  0  0
    1.9451    1.2583    3.5808 C   0  0  0  0  0  0  0  0  0  0  0  0
    2.5726    2.1339    4.2373 O   0  0  0  0  0  0  0  0  0  0  0  0
    0.5187    1.5122    3.1683 C   0  0  0  0  0  0  0  0  0  0  0  0
    0.4830    2.0631    1.8131 N   0  0  0  0  0  0  0  0  0  0  0  0
    0.2856    1.2640    0.6332 C   0  0  0  0  0  0  0  0  0  0  0  0
    1.1710    1.2841   -0.2634 O   0  0  0  0  0  0  0  0  0  0  0  0
   -0.9734    0.4449    0.3924 C   0  0  2  0  0  0  0  0  0  0  0  0
   -2.2202    1.0540    1.0699 C   0  0  0  0  0  0  0  0  0  0  0  0
   -2.4893    2.4726    0.6256 C   0  0  0  0  0  0  0  0  0  0  0  0
   -2.8070    2.7551   -0.7150 C   0  0  0  0  0  0  0  0  0  0  0  0
   -3.0750    4.0671   -1.1145 C   0  0  0  0  0  0  0  0  0  0  0  0
   -3.0328    5.1054   -0.1808 C   0  0  0  0  0  0  0  0  0  0  0  0
   -2.7172    4.8337    1.1519 C   0  0  0  0  0  0  0  0  0  0  0  0
   -2.4483    3.5238    1.5558 C   0  0  0  0  0  0  0  0  0  0  0  0
   -0.7738   -0.9347    0.8439 N   0  0  0  0  0  0  0  0  0  0  0  0
   -1.6631   -2.0280    0.5516 C   0  0  0  0  0  0  0  0  0  0  0  0
   -1.9397   -2.8357    1.4808 O   0  0  0  0  0  0  0  0  0  0  0  0
   -7.3096   -1.9167    0.4275 H   0  0  0  0  0  0  0  0  0  0  0  0
   -8.1512   -1.1431   -0.9634 H   0  0  0  0  0  0  0  0  0  0  0  0
   -7.3426   -2.7373   -1.1815 H   0  0  0  0  0  0  0  0  0  0  0  0
   -5.8177    0.1535    0.7758 H   0  0  0  0  0  0  0  0  0  0  0  0
   -5.0109    0.9092   -0.6553 H   0  0  0  0  0  0  0  0  0  0  0  0
   -6.7985    0.9164   -0.5277 H   0  0  0  0  0  0  0  0  0  0  0  0
   -6.8734   -0.2222   -2.8837 H   0  0  0  0  0  0  0  0  0  0  0  0
   -5.0820   -0.2021   -2.9123 H   0  0  0  0  0  0  0  0  0  0  0  0
   -5.9641   -1.7562   -3.1357 H   0  0  0  0  0  0  0  0  0  0  0  0
   -3.2752   -0.5229   -1.4788 H   0  0  0  0  0  0  0  0  0  0  0  0
   -2.5563   -3.3775   -0.8245 H   0  0  0  0  0  0  0  0  0  0  0  0
   -1.5707   -2.8830   -2.8321 H   0  0  0  0  0  0  0  0  0  0  0  0
   -1.2497   -1.1829   -2.4363 H   0  0  0  0  0  0  0  0  0  0  0  0
   -0.2989   -4.6098   -1.0077 H   0  0  0  0  0  0  0  0  0  0  0  0
    1.8647   -4.9754    0.1162 H   0  0  0  0  0  0  0  0  0  0  0  0
    3.1571   -1.0559   -1.1127 H   0  0  0  0  0  0  0  0  0  0  0  0
    1.0157   -0.6790   -2.2187 H   0  0  0  0  0  0  0  0  0  0  0  0
    1.9848   -3.2291    2.6146 H   0  0  0  0  0  0  0  0  0  0  0  0
    1.1982   -1.3268    3.9319 H   0  0  0  0  0  0  0  0  0  0  0  0
    4.2452    1.1551    2.1976 H   0  0  0  0  0  0  0  0  0  0  0  0
    5.4591   -1.4894   -0.1143 H   0  0  0  0  0  0  0  0  0  0  0  0
    8.2183    2.2574    0.3051 H   0  0  0  0  0  0  0  0  0  0  0  0
    9.1658    3.0065   -1.8498 H   0  0  0  0  0  0  0  0  0  0  0  0
    8.4409    1.9248   -3.9664 H   0  0  0  0  0  0  0  0  0  0  0  0
    6.7517    0.1028   -3.8874 H   0  0  0  0  0  0  0  0  0  0  0  0
    0.0600    2.2441    3.8658 H   0  0  0  0  0  0  0  0  0  0  0  0
   -0.0796    0.5822    3.2341 H   0  0  0  0  0  0  0  0  0  0  0  0
    0.9388    2.9937    1.6793 H   0  0  0  0  0  0  0  0  0  0  0  0
   -1.1468    0.4305   -0.7036 H   0  0  0  0  0  0  0  0  0  0  0  0
   -3.1096    0.4395    0.8263 H   0  0  0  0  0  0  0  0  0  0  0  0
   -2.1159    1.0013    2.1740 H   0  0  0  0  0  0  0  0  0  0  0  0
   -2.8524    1.9619   -1.4490 H   0  0  0  0  0  0  0  0  0  0  0  0
   -3.3189    4.2792   -2.1470 H   0  0  0  0  0  0  0  0  0  0  0  0
   -3.2468    6.1198   -0.4890 H   0  0  0  0  0  0  0  0  0  0  0  0
   -2.6850    5.6387    1.8735 H   0  0  0  0  0  0  0  0  0  0  0  0
   -2.2093    3.3303    2.5933 H   0  0  0  0  0  0  0  0  0  0  0  0
   -0.0916   -1.0978    1.6136 H   0  0  0  0  0  0  0  0  0  0  0  0
  1  2  1  0
  2  3  1  0
  2  4  1  0
  2  5  1  0
  5  6  2  0
  5  7  1  0
  7  8  1  0
  8  9  1  0
  9 10  1  0
 10 11  2  0
 11 12  1  0
 12 13  2  0
 13 14  1  0
 14 15  2  0
 13 16  1  0
 16 17  1  0
 17 18  2  0
 18 19  1  0
 19 20  2  0
 20 21  1  0
 21 22  2  0
 22 23  1  0
 23 24  1  0
 24 25  2  0
 24 26  1  0
 26 27  2  0
 27 28  1  0
 28 29  2  0
 29 30  1  0
 30 31  2  0
 20 32  1  0
 32 33  2  0
 32 34  1  0
 34 35  1  0
 35 36  1  0
 36 37  2  0
 36 38  1  0
 38 39  1  0
 39 40  1  0
 40 41  2  0
 41 42  1  0
 42 43  2  0
 43 44  1  0
 44 45  2  0
 38 46  1  0
 46 47  1  0
 47 48  2  0
 47  8  1  0
 15 10  1  0
 22 17  1  0
 31 26  1  0
 45 40  1  0
  1 49  1  0
  1 50  1  0
  1 51  1  0
  3 52  1  0
  3 53  1  0
  3 54  1  0
  4 55  1  0
  4 56  1  0
  4 57  1  0
  7 58  1  0
  8 59  1  1
  9 60  1  0
  9 61  1  0
 11 62  1  0
 12 63  1  0
 14 64  1  0
 15 65  1  0
 18 66  1  0
 19 67  1  0
 21 68  1  0
 23 69  1  0
 27 70  1  0
 28 71  1  0
 29 72  1  0
 30 73  1  0
 34 74  1  0
 34 75  1  0
 35 76  1  0
 38 77  1  6
 39 78  1  0
 39 79  1  0
 41 80  1  0
 42 81  1  0
 43 82  1  0
 44 83  1  0
 45 84  1  0
 46 85  1  0
M  END
$$$$
