
     RDKit          3D

 71 74  0  0  0  0  0  0  0  0999 V2000
   -3.9954    3.0575   -1.2293 C   0  0  0  0  0  0  0  0  0  0  0  0
   -4.6091    1.7514   -0.7288 C   0  0  2  0  0  0  0  0  0  0  0  0
   -4.2259    0.4394   -1.3611 C   0  0  0  0  0  0  0  0  0  0  0  0
   -4.8629    0.0540   -2.3318 O   0  0  0  0  0  0  0  0  0  0  0  0
   -3.0747   -0.4115   -0.8591 C   0  0  2  0  0  0  0  0  0  0  0  0
   -3.4315   -1.2262    0.4002 C   0  0  0  0  0  0  0  0  0  0  0  0
   -4.7143   -2.0107    0.2849 C   0  0  0  0  0  0  0  0  0  0  0  0
   -5.0017   -2.8433   -0.7075 C   0  0  0  0  0  0  0  0  0  0  0  0
   -6.3478   -3.4503   -0.5543 C   0  0  0  0  0  0  0  0  0  0  0  0
   -6.8243   -2.9834    0.8259 C   0  0  0  0  0  0  0  0  0  0  0  0
   -5.7934   -1.9593    1.3071 C   0  0  0  0  0  0  0  0  0  0  0  0
   -1.9034    0.4220   -0.5747 N   0  0  0  0  0  0  0  0  0  0  0  0
   -0.5700    0.0280   -0.9312 C   0  0  0  0  0  0  0  0  0  0  0  0
   -0.3857   -0.8414   -1.8269 O   0  0  0  0  0  0  0  0  0  0  0  0
    0.6054    0.6878   -0.2464 C   0  0  2  0  0  0  0  0  0  0  0  0
    0.9853    2.0410   -0.8998 C   0  0  0  0  0  0  0  0  0  0  0  0
    1.3211    3.0407    0.0485 O   0  0  0  0  0  0  0  0  0  0  0  0
    2.5523    2.7900    0.7094 C   0  0  0  0  0  0  0  0  0  0  0  0
    3.7721    3.0086   -0.2051 C   0  0  0  0  0  0  0  0  0  0  0  0
    5.0949    3.1028    0.5771 C   0  0  0  0  0  0  0  0  0  0  0  0
    5.5495    1.7807    1.2355 C   0  0  0  0  0  0  0  0  0  0  0  0
    6.3494    0.8553    0.3025 C   0  0  0  0  0  0  0  0  0  0  0  0
    5.4719    0.0844   -0.6458 C   0  0  0  0  0  0  0  0  0  0  0  0
    5.4321    0.4390   -1.8546 O   0  0  0  0  0  0  0  0  0  0  0  0
    4.6802   -1.0405   -0.2098 N   0  0  0  0  0  0  0  0  0  0  0  0
    4.8864   -1.7598    1.0357 C   0  0  0  0  0  0  0  0  0  0  0  0
    4.2301   -3.1180    0.8335 C   0  0  2  0  0  0  0  0  0  0  0  0
    5.1843   -4.0515    0.4598 F   0  0  0  0  0  0  0  0  0  0  0  0
    3.2258   -2.9315   -0.3019 C   0  0  0  0  0  0  0  0  0  0  0  0
    3.6694   -1.6682   -1.0503 C   0  0  1  0  0  0  0  0  0  0  0  0
    2.5191   -0.7200   -1.2772 C   0  0  0  0  0  0  0  0  0  0  0  0
    2.2626   -0.3397   -2.4508 O   0  0  0  0  0  0  0  0  0  0  0  0
    1.7582   -0.2233   -0.1573 N   0  0  0  0  0  0  0  0  0  0  0  0
   -5.9514    1.8202   -0.1058 C   0  0  0  0  0  0  0  0  0  0  0  0
   -4.7747    1.6890    0.6654 O   0  0  0  0  0  0  0  0  0  0  0  0
   -2.8927    3.0402   -1.0995 H   0  0  0  0  0  0  0  0  0  0  0  0
   -4.2225    3.1779   -2.3093 H   0  0  0  0  0  0  0  0  0  0  0  0
   -4.4008    3.9368   -0.6821 H   0  0  0  0  0  0  0  0  0  0  0  0
   -2.8239   -1.1310   -1.6705 H   0  0  0  0  0  0  0  0  0  0  0  0
   -2.6080   -1.9447    0.6007 H   0  0  0  0  0  0  0  0  0  0  0  0
   -3.4911   -0.5470    1.2780 H   0  0  0  0  0  0  0  0  0  0  0  0
   -4.3485   -3.0331   -1.5515 H   0  0  0  0  0  0  0  0  0  0  0  0
   -7.0210   -3.0683   -1.3527 H   0  0  0  0  0  0  0  0  0  0  0  0
   -6.2826   -4.5585   -0.6037 H   0  0  0  0  0  0  0  0  0  0  0  0
   -6.8572   -3.8478    1.5271 H   0  0  0  0  0  0  0  0  0  0  0  0
   -7.8427   -2.5315    0.7655 H   0  0  0  0  0  0  0  0  0  0  0  0
   -5.3929   -2.2350    2.3054 H   0  0  0  0  0  0  0  0  0  0  0  0
   -6.2334   -0.9410    1.3434 H   0  0  0  0  0  0  0  0  0  0  0  0
   -2.0094    1.1984    0.1130 H   0  0  0  0  0  0  0  0  0  0  0  0
    0.2713    0.9064    0.7917 H   0  0  0  0  0  0  0  0  0  0  0  0
    1.7636    1.9390   -1.6801 H   0  0  0  0  0  0  0  0  0  0  0  0
    0.0992    2.4279   -1.4490 H   0  0  0  0  0  0  0  0  0  0  0  0
    2.6158    3.5068    1.5540 H   0  0  0  0  0  0  0  0  0  0  0  0
    2.5713    1.7883    1.1785 H   0  0  0  0  0  0  0  0  0  0  0  0
    3.8409    2.1944   -0.9478 H   0  0  0  0  0  0  0  0  0  0  0  0
    3.6308    3.9595   -0.7637 H   0  0  0  0  0  0  0  0  0  0  0  0
    5.8905    3.4761   -0.1028 H   0  0  0  0  0  0  0  0  0  0  0  0
    4.9779    3.8729    1.3704 H   0  0  0  0  0  0  0  0  0  0  0  0
    4.6988    1.2333    1.6915 H   0  0  0  0  0  0  0  0  0  0  0  0
    6.2228    2.0537    2.0771 H   0  0  0  0  0  0  0  0  0  0  0  0
    7.0999    1.4474   -0.2649 H   0  0  0  0  0  0  0  0  0  0  0  0
    6.9280    0.1409    0.9217 H   0  0  0  0  0  0  0  0  0  0  0  0
    4.3887   -1.2124    1.8632 H   0  0  0  0  0  0  0  0  0  0  0  0
    5.9660   -1.8895    1.2598 H   0  0  0  0  0  0  0  0  0  0  0  0
    3.7293   -3.4630    1.7639 H   0  0  0  0  0  0  0  0  0  0  0  0
    3.2224   -3.8117   -0.9833 H   0  0  0  0  0  0  0  0  0  0  0  0
    2.2048   -2.8307    0.1313 H   0  0  0  0  0  0  0  0  0  0  0  0
    4.1281   -1.9602   -2.0222 H   0  0  0  0  0  0  0  0  0  0  0  0
    2.0519   -0.5224    0.8019 H   0  0  0  0  0  0  0  0  0  0  0  0
   -6.5545    0.8893   -0.0941 H   0  0  0  0  0  0  0  0  0  0  0  0
   -6.4050    2.8256    0.0291 H   0  0  0  0  0  0  0  0  0  0  0  0
  2  1  1  1
  2  3  1  0
  3  4  2  0
  3  5  1  0
  5  6  1  0
  6  7  1  0
  7  8  2  0
  8  9  1  0
  9 10  1  0
 10 11  1  0
  5 12  1  0
 12 13  1  0
 13 14  2  0
 13 15  1  0
 15 16  1  0
 16 17  1  0
 17 18  1  0
 18 19  1  0
 19 20  1  0
 20 21  1  0
 21 22  1  0
 22 23  1  0
 23 24  2  0
 23 25  1  0
 25 26  1  0
 26 27  1  0
 27 28  1  0
 27 29  1  0
 29 30  1  0
 30 31  1  0
 31 32  2  0
 31 33  1  0
  2 34  1  0
 34 35  1  0
 35  2  1  0
 11  7  1  0
 33 15  1  0
 30 25  1  0
  1 36  1  0
  1 37  1  0
  1 38  1  0
  5 39  1  6
  6 40  1  0
  6 41  1  0
  8 42  1  0
  9 43  1  0
  9 44  1  0
 10 45  1  0
 10 46  1  0
 11 47  1  0
 11 48  1  0
 12 49  1  0
 15 50  1  1
 16 51  1  0
 16 52  1  0
 18 53  1  0
 18 54  1  0
 19 55  1  0
 19 56  1  0
 20 57  1  0
 20 58  1  0
 21 59  1  0
 21 60  1  0
 22 61  1  0
 22 62  1  0
 26 63  1  0
 26 64  1  0
 27 65  1  1
 29 66  1  0
 29 67  1  0
 30 68  1  6
 33 69  1  0
 34 70  1  0
 34 71  1  0
M  END
$$$$
