
     RDKit          3D

124130  0  0  0  0  0  0  0  0999 V2000
    8.3870   -1.7517    1.5270 C   0  0  0  0  0  0  0  0  0  0  0  0
    7.2421   -0.9832    0.9525 C   0  0  0  0  0  0  0  0  0  0  0  0
    6.6536   -1.4244   -0.0732 O   0  0  0  0  0  0  0  0  0  0  0  0
    6.7847    0.2169    1.5892 N   0  0  0  0  0  0  0  0  0  0  0  0
    5.6828    1.0232    1.0473 C   0  0  1  0  0  0  0  0  0  0  0  0
    4.2820    0.5363    1.5230 C   0  0  0  0  0  0  0  0  0  0  0  0
    4.3082   -0.6160    2.4989 C   0  0  0  0  0  0  0  0  0  0  0  0
    4.7630   -0.4171    3.6566 O   0  0  0  0  0  0  0  0  0  0  0  0
    3.8597   -1.9012    2.1717 O   0  0  0  0  0  0  0  0  0  0  0  0
    3.2618   -2.2488    0.9252 C   0  0  0  0  0  0  0  0  0  0  0  0
    2.9475   -3.7396    0.9070 C   0  0  0  0  0  0  0  0  0  0  0  0
    2.4206   -4.2188   -0.7774 S   0  0  0  0  0  0  0  0  0  0  0  0
    0.8880   -5.0097   -0.2612 C   0  0  0  0  0  0  0  0  0  0  0  0
   -0.2400   -4.3609   -0.0227 C   0  0  0  0  0  0  0  0  0  0  0  0
   -0.4081   -2.9535   -0.2447 N   0  0  0  0  0  0  0  0  0  0  0  0
   -1.0765   -2.1023    0.5528 C   0  0  0  0  0  0  0  0  0  0  0  0
   -1.3444   -0.9313   -0.0509 N   0  0  0  0  0  0  0  0  0  0  0  0
   -0.7986   -1.0548   -1.2759 C   0  0  0  0  0  0  0  0  0  0  0  0
   -0.2436   -2.3045   -1.4113 C   0  0  0  0  0  0  0  0  0  0  0  0
   -0.9815   -0.0569   -2.3855 C   0  0  0  0  0  0  0  0  0  0  0  0
   -0.6949    1.3932   -1.9428 C   0  0  2  0  0  0  0  0  0  0  0  0
    0.7093    1.5122   -1.5143 N   0  0  0  0  0  0  0  0  0  0  0  0
    1.1543    2.1334   -0.3069 C   0  0  0  0  0  0  0  0  0  0  0  0
    1.2111    1.4472    0.7468 O   0  0  0  0  0  0  0  0  0  0  0  0
    1.6585    3.5519   -0.2818 C   0  0  2  0  0  0  0  0  0  0  0  0
    1.1830    4.4337   -1.4651 C   0  0  0  0  0  0  0  0  0  0  0  0
    1.6491    4.0134   -2.8422 C   0  0  0  0  0  0  0  0  0  0  0  0
    0.8092    4.2337   -3.9747 N   0  0  0  0  0  0  0  0  0  0  0  0
    2.7925    3.5121   -3.0141 O   0  0  0  0  0  0  0  0  0  0  0  0
    3.1211    3.5628   -0.1699 N   0  0  0  0  0  0  0  0  0  0  0  0
    3.8263    4.5401    0.6111 C   0  0  0  0  0  0  0  0  0  0  0  0
    3.2168    5.2181    1.4858 O   0  0  0  0  0  0  0  0  0  0  0  0
    5.3095    4.7444    0.4242 C   0  0  2  0  0  0  0  0  0  0  0  0
    5.6190    5.4296   -0.9079 C   0  0  0  0  0  0  0  0  0  0  0  0
    6.8434    4.7083   -1.4673 C   0  0  0  0  0  0  0  0  0  0  0  0
    6.9146    3.3624   -0.7508 C   0  0  0  0  0  0  0  0  0  0  0  0
    5.9960    3.4674    0.3701 N   0  0  0  0  0  0  0  0  0  0  0  0
    5.8875    2.4739    1.4034 C   0  0  0  0  0  0  0  0  0  0  0  0
    5.8175    2.8394    2.6047 O   0  0  0  0  0  0  0  0  0  0  0  0
   -1.7313    1.8490   -0.9324 C   0  0  0  0  0  0  0  0  0  0  0  0
   -1.5047    1.8181    0.3039 O   0  0  0  0  0  0  0  0  0  0  0  0
   -3.0523    2.1384   -1.3883 N   0  0  0  0  0  0  0  0  0  0  0  0
   -4.2028    1.3704   -0.8999 C   0  0  1  0  0  0  0  0  0  0  0  0
   -5.1281    2.2819   -0.0803 C   0  0  0  0  0  0  0  0  0  0  0  0
   -4.5320    2.6017    1.2639 C   0  0  0  0  0  0  0  0  0  0  0  0
   -4.6270    1.6685    2.3094 C   0  0  0  0  0  0  0  0  0  0  0  0
   -4.0568    1.9455    3.5559 C   0  0  0  0  0  0  0  0  0  0  0  0
   -3.3886    3.1574    3.7654 C   0  0  0  0  0  0  0  0  0  0  0  0
   -3.2741    4.0818    2.7240 C   0  0  0  0  0  0  0  0  0  0  0  0
   -3.8389    3.8061    1.4749 C   0  0  0  0  0  0  0  0  0  0  0  0
   -4.9438    0.7664   -2.0713 C   0  0  0  0  0  0  0  0  0  0  0  0
   -5.2149    1.4924   -3.0708 O   0  0  0  0  0  0  0  0  0  0  0  0
   -5.3193   -0.6220   -2.1040 N   0  0  0  0  0  0  0  0  0  0  0  0
   -5.8549   -1.3544   -0.9508 C   0  0  1  0  0  0  0  0  0  0  0  0
   -7.4052   -1.4015   -1.0241 C   0  0  1  0  0  0  0  0  0  0  0  0
   -8.0216   -2.0204    0.2400 C   0  0  0  0  0  0  0  0  0  0  0  0
   -7.9319   -0.1193   -1.2498 O   0  0  0  0  0  0  0  0  0  0  0  0
   -5.2862   -2.7556   -0.9446 C   0  0  0  0  0  0  0  0  0  0  0  0
   -5.5680   -3.5407   -1.8914 O   0  0  0  0  0  0  0  0  0  0  0  0
   -4.4077   -3.1800    0.1091 N   0  0  0  0  0  0  0  0  0  0  0  0
   -4.3958   -4.5491    0.6566 C   0  0  1  0  0  0  0  0  0  0  0  0
   -4.0382   -5.6124   -0.3829 C   0  0  0  0  0  0  0  0  0  0  0  0
   -2.4912   -5.1710   -1.2157 S   0  0  0  0  0  0  0  0  0  0  0  0
   -1.3844   -5.2734    0.2610 C   0  0  2  0  0  0  0  0  0  0  0  0
   -2.0111   -4.8806    1.5402 N   0  0  0  0  0  0  0  0  0  0  0  0
   -3.4066   -4.6357    1.7785 C   0  0  0  0  0  0  0  0  0  0  0  0
   -3.8005   -4.4216    2.9585 O   0  0  0  0  0  0  0  0  0  0  0  0
   -0.7036   -6.6720    0.3715 C   0  0  0  0  0  0  0  0  0  0  0  0
   -1.3725   -7.6353   -0.3719 F   0  0  0  0  0  0  0  0  0  0  0  0
   -0.6587   -7.0992    1.6920 F   0  0  0  0  0  0  0  0  0  0  0  0
    0.7307   -6.4777   -0.1557 C   0  0  0  0  0  0  0  0  0  0  0  0
    1.6708   -6.9967    0.7188 F   0  0  0  0  0  0  0  0  0  0  0  0
    0.8816   -7.0489   -1.4113 F   0  0  0  0  0  0  0  0  0  0  0  0
    8.8556   -2.3893    0.7417 H   0  0  0  0  0  0  0  0  0  0  0  0
    8.0203   -2.4003    2.3529 H   0  0  0  0  0  0  0  0  0  0  0  0
    9.1537   -1.0533    1.9150 H   0  0  0  0  0  0  0  0  0  0  0  0
    7.2379    0.5005    2.4877 H   0  0  0  0  0  0  0  0  0  0  0  0
    5.7054    0.9372   -0.0581 H   0  0  0  0  0  0  0  0  0  0  0  0
    3.6808    0.2822    0.6292 H   0  0  0  0  0  0  0  0  0  0  0  0
    3.7221    1.3624    2.0049 H   0  0  0  0  0  0  0  0  0  0  0  0
    3.9636   -2.0123    0.0983 H   0  0  0  0  0  0  0  0  0  0  0  0
    2.3172   -1.6757    0.7896 H   0  0  0  0  0  0  0  0  0  0  0  0
    2.1705   -3.9555    1.6735 H   0  0  0  0  0  0  0  0  0  0  0  0
    3.8618   -4.3169    1.1611 H   0  0  0  0  0  0  0  0  0  0  0  0
   -1.4106   -2.3386    1.5572 H   0  0  0  0  0  0  0  0  0  0  0  0
    0.1656   -2.7393   -2.3144 H   0  0  0  0  0  0  0  0  0  0  0  0
   -0.3002   -0.3091   -3.2268 H   0  0  0  0  0  0  0  0  0  0  0  0
   -2.0223   -0.1361   -2.7670 H   0  0  0  0  0  0  0  0  0  0  0  0
   -0.8178    2.0405   -2.8394 H   0  0  0  0  0  0  0  0  0  0  0  0
    1.4425    1.2786   -2.2176 H   0  0  0  0  0  0  0  0  0  0  0  0
    1.2224    4.0067    0.6331 H   0  0  0  0  0  0  0  0  0  0  0  0
    0.0692    4.4622   -1.4547 H   0  0  0  0  0  0  0  0  0  0  0  0
    1.5300    5.4728   -1.2954 H   0  0  0  0  0  0  0  0  0  0  0  0
    1.1148    3.9398   -4.9278 H   0  0  0  0  0  0  0  0  0  0  0  0
   -0.1039    4.7363   -3.8735 H   0  0  0  0  0  0  0  0  0  0  0  0
    3.6774    2.9886   -0.8400 H   0  0  0  0  0  0  0  0  0  0  0  0
    5.7276    5.3501    1.2640 H   0  0  0  0  0  0  0  0  0  0  0  0
    5.8216    6.5159   -0.7713 H   0  0  0  0  0  0  0  0  0  0  0  0
    4.7784    5.3113   -1.6310 H   0  0  0  0  0  0  0  0  0  0  0  0
    6.7666    4.5734   -2.5704 H   0  0  0  0  0  0  0  0  0  0  0  0
    7.7554    5.3057   -1.2411 H   0  0  0  0  0  0  0  0  0  0  0  0
    7.9494    3.1747   -0.3808 H   0  0  0  0  0  0  0  0  0  0  0  0
    6.6011    2.5475   -1.4397 H   0  0  0  0  0  0  0  0  0  0  0  0
   -3.1537    2.7488   -2.2282 H   0  0  0  0  0  0  0  0  0  0  0  0
   -3.8367    0.5392   -0.2584 H   0  0  0  0  0  0  0  0  0  0  0  0
   -6.1012    1.7746    0.0849 H   0  0  0  0  0  0  0  0  0  0  0  0
   -5.3398    3.2133   -0.6478 H   0  0  0  0  0  0  0  0  0  0  0  0
   -5.1344    0.7220    2.1568 H   0  0  0  0  0  0  0  0  0  0  0  0
   -4.1290    1.2192    4.3582 H   0  0  0  0  0  0  0  0  0  0  0  0
   -2.9508    3.3700    4.7330 H   0  0  0  0  0  0  0  0  0  0  0  0
   -2.7399    5.0103    2.8840 H   0  0  0  0  0  0  0  0  0  0  0  0
   -3.7348    4.5265    0.6760 H   0  0  0  0  0  0  0  0  0  0  0  0
   -5.5387   -1.0173   -3.0534 H   0  0  0  0  0  0  0  0  0  0  0  0
   -5.5749   -0.8427   -0.0069 H   0  0  0  0  0  0  0  0  0  0  0  0
   -7.7015   -2.0317   -1.8908 H   0  0  0  0  0  0  0  0  0  0  0  0
   -7.7106   -3.0830    0.3488 H   0  0  0  0  0  0  0  0  0  0  0  0
   -9.1286   -1.9927    0.1721 H   0  0  0  0  0  0  0  0  0  0  0  0
   -7.7038   -1.4566    1.1482 H   0  0  0  0  0  0  0  0  0  0  0  0
   -7.8303    0.4058   -0.4158 H   0  0  0  0  0  0  0  0  0  0  0  0
   -3.9338   -2.4265    0.6575 H   0  0  0  0  0  0  0  0  0  0  0  0
   -5.4082   -4.7840    1.0482 H   0  0  0  0  0  0  0  0  0  0  0  0
   -4.8401   -5.7246   -1.1350 H   0  0  0  0  0  0  0  0  0  0  0  0
   -3.9264   -6.6081    0.1020 H   0  0  0  0  0  0  0  0  0  0  0  0
   -1.3811   -4.8115    2.3727 H   0  0  0  0  0  0  0  0  0  0  0  0
  1  2  1  0
  2  3  2  0
  2  4  1  0
  4  5  1  0
  5  6  1  0
  6  7  1  0
  7  8  2  0
  7  9  1  0
  9 10  1  0
 10 11  1  0
 11 12  1  0
 12 13  1  0
 13 14  2  0
 14 15  1  0
 15 16  1  0
 16 17  2  0
 17 18  1  0
 18 19  2  0
 18 20  1  0
 20 21  1  0
 21 22  1  0
 22 23  1  0
 23 24  2  0
 23 25  1  0
 25 26  1  0
 26 27  1  0
 27 28  1  0
 27 29  2  0
 25 30  1  0
 30 31  1  0
 31 32  2  0
 31 33  1  0
 33 34  1  0
 34 35  1  0
 35 36  1  0
 36 37  1  0
 37 38  1  0
 38 39  2  0
 21 40  1  0
 40 41  2  0
 40 42  1  0
 42 43  1  0
 43 44  1  0
 44 45  1  0
 45 46  2  0
 46 47  1  0
 47 48  2  0
 48 49  1  0
 49 50  2  0
 43 51  1  0
 51 52  2  0
 51 53  1  0
 53 54  1  0
 54 55  1  0
 55 56  1  0
 55 57  1  0
 54 58  1  0
 58 59  2  0
 58 60  1  0
 60 61  1  0
 61 62  1  0
 62 63  1  0
 63 64  1  0
 64 65  1  0
 65 66  1  0
 66 67  2  0
 64 68  1  1
 68 69  1  0
 68 70  1  0
 68 71  1  0
 71 72  1  0
 71 73  1  0
 38  5  1  0
 50 45  1  0
 66 61  1  0
 71 13  1  0
 64 14  1  0
 19 15  1  0
 37 33  1  0
  1 74  1  0
  1 75  1  0
  1 76  1  0
  4 77  1  0
  5 78  1  6
  6 79  1  0
  6 80  1  0
 10 81  1  0
 10 82  1  0
 11 83  1  0
 11 84  1  0
 16 85  1  0
 19 86  1  0
 20 87  1  0
 20 88  1  0
 21 89  1  6
 22 90  1  0
 25 91  1  1
 26 92  1  0
 26 93  1  0
 28 94  1  0
 28 95  1  0
 30 96  1  0
 33 97  1  1
 34 98  1  0
 34 99  1  0
 35100  1  0
 35101  1  0
 36102  1  0
 36103  1  0
 42104  1  0
 43105  1  1
 44106  1  0
 44107  1  0
 46108  1  0
 47109  1  0
 48110  1  0
 49111  1  0
 50112  1  0
 53113  1  0
 54114  1  1
 55115  1  6
 56116  1  0
 56117  1  0
 56118  1  0
 57119  1  0
 60120  1  0
 61121  1  1
 62122  1  0
 62123  1  0
 65124  1  0
M  END
$$$$
