
     RDKit          3D

 78 83  0  0  0  0  0  0  0  0999 V2000
   -0.5499   -4.6811   -2.0750 C   0  0  0  0  0  0  0  0  0  0  0  0
   -0.3816   -3.7663   -0.8895 C   0  0  0  0  0  0  0  0  0  0  0  0
   -0.9588   -2.4959   -1.0142 C   0  0  0  0  0  0  0  0  0  0  0  0
   -0.9082   -1.5599    0.0225 C   0  0  0  0  0  0  0  0  0  0  0  0
   -0.3124   -1.9442    1.2323 C   0  0  0  0  0  0  0  0  0  0  0  0
    0.2941   -3.2009    1.3877 C   0  0  0  0  0  0  0  0  0  0  0  0
    0.9029   -3.5215    2.7300 C   0  0  0  0  0  0  0  0  0  0  0  0
    0.2687   -4.1438    0.3181 C   0  0  0  0  0  0  0  0  0  0  0  0
    0.8477   -5.5451    0.5072 C   0  0  0  0  0  0  0  0  0  0  0  0
    2.2277   -5.7306   -0.1415 C   0  0  0  0  0  0  0  0  0  0  0  0
    3.2352   -4.9883    0.5478 O   0  0  0  0  0  0  0  0  0  0  0  0
    3.5651   -3.6484    0.3139 C   0  0  0  0  0  0  0  0  0  0  0  0
    4.1342   -3.0037    1.2345 O   0  0  0  0  0  0  0  0  0  0  0  0
    3.2776   -2.9905   -0.9311 N   0  0  0  0  0  0  0  0  0  0  0  0
    3.4090   -1.5745   -1.0705 C   0  0  0  0  0  0  0  0  0  0  0  0
    4.6603   -0.9677   -1.0032 C   0  0  0  0  0  0  0  0  0  0  0  0
    4.7641    0.4279   -1.0472 C   0  0  0  0  0  0  0  0  0  0  0  0
    3.6188    1.2447   -1.0979 C   0  0  0  0  0  0  0  0  0  0  0  0
    3.8891    3.0146   -1.1313 S   0  0  0  0  0  6  0  0  0  0  0  0
    5.3057    3.2387   -0.6961 O   0  0  0  0  0  0  0  0  0  0  0  0
    3.7418    3.5038   -2.5363 O   0  0  0  0  0  0  0  0  0  0  0  0
    2.8415    4.0226   -0.0464 C   0  0  0  0  0  0  0  0  0  0  0  0
    3.4020    4.3221    1.3409 C   0  0  0  0  0  0  0  0  0  0  0  0
    3.4563    5.3876    0.2488 C   0  0  0  0  0  0  0  0  0  0  0  0
    2.3428    0.6139   -1.1752 C   0  0  0  0  0  0  0  0  0  0  0  0
    2.2693   -0.7906   -1.2010 C   0  0  0  0  0  0  0  0  0  0  0  0
    1.0275    1.3436   -1.0542 C   0  0  0  0  0  0  0  0  0  0  0  0
    0.4924    1.2229    0.3172 N   0  0  0  0  0  0  0  0  0  0  0  0
    1.3325    1.5560    1.4752 C   0  0  0  0  0  0  0  0  0  0  0  0
   -0.8910    0.8912    0.5946 C   0  0  0  0  0  0  0  0  0  0  0  0
   -1.4656    1.4519    1.5649 O   0  0  0  0  0  0  0  0  0  0  0  0
   -1.6231   -0.2254   -0.1316 C   0  0  2  0  0  0  0  0  0  0  0  0
   -3.0029   -0.3682    0.3583 N   0  0  0  0  0  0  0  0  0  0  0  0
   -3.9930    0.6818    0.3323 C   0  0  0  0  0  0  0  0  0  0  0  0
   -5.1226    0.5737    1.1580 C   0  0  0  0  0  0  0  0  0  0  0  0
   -6.0684    1.5962    1.2156 C   0  0  0  0  0  0  0  0  0  0  0  0
   -5.9107    2.7433    0.4308 C   0  0  0  0  0  0  0  0  0  0  0  0
   -6.8483    3.7777    0.4985 C   0  0  0  0  0  0  0  0  0  0  0  0
   -6.6711    4.9115   -0.2977 C   0  0  0  0  0  0  0  0  0  0  0  0
   -5.6108    5.0018   -1.1436 N   0  0  0  0  0  0  0  0  0  0  0  0
   -4.6750    4.0121   -1.2312 C   0  0  0  0  0  0  0  0  0  0  0  0
   -3.6998    4.1493   -2.0203 O   0  0  0  0  0  0  0  0  0  0  0  0
   -4.8020    2.8534   -0.4385 C   0  0  0  0  0  0  0  0  0  0  0  0
   -3.8494    1.8158   -0.4868 C   0  0  0  0  0  0  0  0  0  0  0  0
   -0.0778   -4.2094   -2.9654 H   0  0  0  0  0  0  0  0  0  0  0  0
   -1.6323   -4.7489   -2.3105 H   0  0  0  0  0  0  0  0  0  0  0  0
   -0.1656   -5.7027   -1.9290 H   0  0  0  0  0  0  0  0  0  0  0  0
   -1.4638   -2.2317   -1.9343 H   0  0  0  0  0  0  0  0  0  0  0  0
   -0.3365   -1.2720    2.0786 H   0  0  0  0  0  0  0  0  0  0  0  0
    1.9336   -3.9142    2.6070 H   0  0  0  0  0  0  0  0  0  0  0  0
    0.2695   -4.2580    3.2687 H   0  0  0  0  0  0  0  0  0  0  0  0
    0.9702   -2.6121    3.3657 H   0  0  0  0  0  0  0  0  0  0  0  0
    0.1350   -6.3038    0.1230 H   0  0  0  0  0  0  0  0  0  0  0  0
    0.9364   -5.8120    1.5780 H   0  0  0  0  0  0  0  0  0  0  0  0
    2.4856   -6.8070   -0.0608 H   0  0  0  0  0  0  0  0  0  0  0  0
    2.2117   -5.4976   -1.2190 H   0  0  0  0  0  0  0  0  0  0  0  0
    2.8065   -3.5051   -1.7124 H   0  0  0  0  0  0  0  0  0  0  0  0
    5.5548   -1.5676   -0.9092 H   0  0  0  0  0  0  0  0  0  0  0  0
    5.7552    0.8684   -1.0295 H   0  0  0  0  0  0  0  0  0  0  0  0
    1.7444    4.0700   -0.1576 H   0  0  0  0  0  0  0  0  0  0  0  0
    2.6278    4.5166    2.1143 H   0  0  0  0  0  0  0  0  0  0  0  0
    4.3781    3.8569    1.5962 H   0  0  0  0  0  0  0  0  0  0  0  0
    2.7169    6.2057    0.3885 H   0  0  0  0  0  0  0  0  0  0  0  0
    4.4811    5.5864   -0.1332 H   0  0  0  0  0  0  0  0  0  0  0  0
    1.3240   -1.2772   -1.2940 H   0  0  0  0  0  0  0  0  0  0  0  0
    0.3206    0.9256   -1.7976 H   0  0  0  0  0  0  0  0  0  0  0  0
    1.1396    2.3995   -1.3435 H   0  0  0  0  0  0  0  0  0  0  0  0
    1.2643    0.7488    2.2386 H   0  0  0  0  0  0  0  0  0  0  0  0
    2.4020    1.6531    1.2157 H   0  0  0  0  0  0  0  0  0  0  0  0
    0.9887    2.5066    1.9282 H   0  0  0  0  0  0  0  0  0  0  0  0
   -1.6706    0.0403   -1.2051 H   0  0  0  0  0  0  0  0  0  0  0  0
   -3.2623   -1.2593    0.8423 H   0  0  0  0  0  0  0  0  0  0  0  0
   -5.2631   -0.2997    1.7829 H   0  0  0  0  0  0  0  0  0  0  0  0
   -6.9226    1.4932    1.8815 H   0  0  0  0  0  0  0  0  0  0  0  0
   -7.7030    3.7119    1.1579 H   0  0  0  0  0  0  0  0  0  0  0  0
   -7.3957    5.7136   -0.2519 H   0  0  0  0  0  0  0  0  0  0  0  0
   -5.5168    5.8651   -1.7358 H   0  0  0  0  0  0  0  0  0  0  0  0
   -2.9972    1.9054   -1.1470 H   0  0  0  0  0  0  0  0  0  0  0  0
  1  2  1  0
  2  3  2  0
  3  4  1  0
  4  5  2  0
  5  6  1  0
  6  7  1  0
  6  8  2  0
  8  9  1  0
  9 10  1  0
 10 11  1  0
 11 12  1  0
 12 13  2  0
 12 14  1  0
 14 15  1  0
 15 16  2  0
 16 17  1  0
 17 18  2  0
 18 19  1  0
 19 20  2  0
 19 21  2  0
 19 22  1  0
 22 23  1  0
 23 24  1  0
 18 25  1  0
 25 26  2  0
 25 27  1  0
 27 28  1  0
 28 29  1  0
 28 30  1  0
 30 31  2  0
 30 32  1  0
 32 33  1  0
 33 34  1  0
 34 35  2  0
 35 36  1  0
 36 37  2  0
 37 38  1  0
 38 39  2  0
 39 40  1  0
 40 41  1  0
 41 42  2  0
 41 43  1  0
 43 44  2  0
  8  2  1  0
 26 15  1  0
 44 34  1  0
 32  4  1  0
 43 37  1  0
 24 22  1  0
  1 45  1  0
  1 46  1  0
  1 47  1  0
  3 48  1  0
  5 49  1  0
  7 50  1  0
  7 51  1  0
  7 52  1  0
  9 53  1  0
  9 54  1  0
 10 55  1  0
 10 56  1  0
 14 57  1  0
 16 58  1  0
 17 59  1  0
 22 60  1  0
 23 61  1  0
 23 62  1  0
 24 63  1  0
 24 64  1  0
 26 65  1  0
 27 66  1  0
 27 67  1  0
 29 68  1  0
 29 69  1  0
 29 70  1  0
 32 71  1  6
 33 72  1  0
 35 73  1  0
 36 74  1  0
 38 75  1  0
 39 76  1  0
 40 77  1  0
 44 78  1  0
M  END
$$$$
