
     RDKit          3D

 79 81  0  0  0  0  0  0  0  0999 V2000
    6.4674    1.0884   -0.4911 C   0  0  0  0  0  0  0  0  0  0  0  0
    5.0337    0.7989   -0.9581 C   0  0  0  0  0  0  0  0  0  0  0  0
    4.9391    1.0116   -2.4748 C   0  0  0  0  0  0  0  0  0  0  0  0
    4.5833   -0.6438   -0.5815 C   0  0  0  0  0  0  0  0  0  0  0  0
    3.7637   -0.7533    0.7248 C   0  0  2  0  0  0  0  0  0  0  0  0
    2.4970   -0.0159    0.6215 N   0  0  0  0  0  0  0  0  0  0  0  0
    1.4305   -0.1953    1.5665 C   0  0  0  0  0  0  0  0  0  0  0  0
    1.6585   -0.7281    2.6869 O   0  0  0  0  0  0  0  0  0  0  0  0
    0.0254    0.2276    1.2094 C   0  0  2  0  0  0  0  0  0  0  0  0
   -0.5344    1.1914    2.2738 C   0  0  0  0  0  0  0  0  0  0  0  0
   -1.8266    1.6396    1.9089 O   0  0  0  0  0  0  0  0  0  0  0  0
   -1.7782    2.8334    1.1457 C   0  0  0  0  0  0  0  0  0  0  0  0
   -2.7312    2.7218   -0.0460 C   0  0  0  0  0  0  0  0  0  0  0  0
   -4.1926    2.5166    0.3826 C   0  0  0  0  0  0  0  0  0  0  0  0
   -5.0877    2.2719   -0.8449 C   0  0  0  0  0  0  0  0  0  0  0  0
   -6.5563    2.0064   -0.4688 C   0  0  0  0  0  0  0  0  0  0  0  0
   -6.8221    0.5819    0.0487 C   0  0  0  0  0  0  0  0  0  0  0  0
   -6.6555   -0.4601   -1.0341 C   0  0  0  0  0  0  0  0  0  0  0  0
   -7.5169   -0.5189   -1.9504 O   0  0  0  0  0  0  0  0  0  0  0  0
   -5.5541   -1.3863   -1.0566 N   0  0  0  0  0  0  0  0  0  0  0  0
   -4.5483   -1.4493   -0.0008 C   0  0  0  0  0  0  0  0  0  0  0  0
   -3.4354   -2.3926   -0.3539 C   0  0  0  0  0  0  0  0  0  0  0  0
   -3.4104   -3.5428    0.1585 O   0  0  0  0  0  0  0  0  0  0  0  0
   -2.3463   -1.9578   -1.1870 N   0  0  0  0  0  0  0  0  0  0  0  0
   -2.5100   -1.0398   -2.2974 C   0  0  0  0  0  0  0  0  0  0  0  0
   -1.1633   -1.0007   -3.0099 C   0  0  0  0  0  0  0  0  0  0  0  0
   -0.1562   -1.6893   -2.0871 C   0  0  0  0  0  0  0  0  0  0  0  0
   -0.9755   -2.4209   -1.0212 C   0  0  1  0  0  0  0  0  0  0  0  0
   -0.4508   -2.1241    0.3623 C   0  0  0  0  0  0  0  0  0  0  0  0
    0.3799   -2.9137    0.8893 O   0  0  0  0  0  0  0  0  0  0  0  0
   -0.8526   -0.9405    1.0705 N   0  0  0  0  0  0  0  0  0  0  0  0
    4.5640   -0.3110    1.9338 C   0  0  0  0  0  0  0  0  0  0  0  0
    4.4596    0.8365    2.3400 O   0  0  0  0  0  0  0  0  0  0  0  0
    5.5085   -1.2474    2.6488 C   0  0  1  0  0  0  0  0  0  0  0  0
    6.9668   -0.8464    2.8569 C   0  0  0  0  0  0  0  0  0  0  0  0
    4.9124   -2.2616    3.5511 C   0  0  0  0  0  0  0  0  0  0  0  0
    5.3797   -2.5949    2.2593 O   0  0  0  0  0  0  0  0  0  0  0  0
    7.1785    0.3384   -0.8999 H   0  0  0  0  0  0  0  0  0  0  0  0
    6.5274    1.0798    0.6149 H   0  0  0  0  0  0  0  0  0  0  0  0
    6.7886    2.0986   -0.8265 H   0  0  0  0  0  0  0  0  0  0  0  0
    4.3698    1.5507   -0.4790 H   0  0  0  0  0  0  0  0  0  0  0  0
    5.2532    2.0423   -2.7414 H   0  0  0  0  0  0  0  0  0  0  0  0
    3.8914    0.8784   -2.8136 H   0  0  0  0  0  0  0  0  0  0  0  0
    5.5863    0.2859   -3.0135 H   0  0  0  0  0  0  0  0  0  0  0  0
    3.9466   -1.0661   -1.3921 H   0  0  0  0  0  0  0  0  0  0  0  0
    5.4651   -1.3192   -0.5162 H   0  0  0  0  0  0  0  0  0  0  0  0
    3.5044   -1.8293    0.8449 H   0  0  0  0  0  0  0  0  0  0  0  0
    2.3014    0.5581   -0.2317 H   0  0  0  0  0  0  0  0  0  0  0  0
    0.0405    0.7634    0.2358 H   0  0  0  0  0  0  0  0  0  0  0  0
   -0.6315    0.6414    3.2338 H   0  0  0  0  0  0  0  0  0  0  0  0
    0.1747    2.0298    2.4722 H   0  0  0  0  0  0  0  0  0  0  0  0
   -2.0824    3.6881    1.7880 H   0  0  0  0  0  0  0  0  0  0  0  0
   -0.7684    3.0652    0.7330 H   0  0  0  0  0  0  0  0  0  0  0  0
   -2.3947    1.8713   -0.6745 H   0  0  0  0  0  0  0  0  0  0  0  0
   -2.6580    3.6491   -0.6556 H   0  0  0  0  0  0  0  0  0  0  0  0
   -4.5457    3.4232    0.9244 H   0  0  0  0  0  0  0  0  0  0  0  0
   -4.2605    1.6543    1.0781 H   0  0  0  0  0  0  0  0  0  0  0  0
   -4.6963    1.4274   -1.4520 H   0  0  0  0  0  0  0  0  0  0  0  0
   -5.0550    3.1799   -1.4870 H   0  0  0  0  0  0  0  0  0  0  0  0
   -6.8774    2.7388    0.3018 H   0  0  0  0  0  0  0  0  0  0  0  0
   -7.1922    2.1842   -1.3634 H   0  0  0  0  0  0  0  0  0  0  0  0
   -7.8750    0.5380    0.4024 H   0  0  0  0  0  0  0  0  0  0  0  0
   -6.1952    0.3696    0.9368 H   0  0  0  0  0  0  0  0  0  0  0  0
   -5.5068   -2.0665   -1.8496 H   0  0  0  0  0  0  0  0  0  0  0  0
   -5.0274   -1.7720    0.9502 H   0  0  0  0  0  0  0  0  0  0  0  0
   -4.1031   -0.4479    0.1524 H   0  0  0  0  0  0  0  0  0  0  0  0
   -2.7797   -0.0347   -1.9193 H   0  0  0  0  0  0  0  0  0  0  0  0
   -3.3038   -1.4080   -2.9841 H   0  0  0  0  0  0  0  0  0  0  0  0
   -1.2288   -1.5586   -3.9696 H   0  0  0  0  0  0  0  0  0  0  0  0
   -0.8545    0.0463   -3.2194 H   0  0  0  0  0  0  0  0  0  0  0  0
    0.5164   -0.9232   -1.6390 H   0  0  0  0  0  0  0  0  0  0  0  0
    0.4725   -2.4070   -2.6599 H   0  0  0  0  0  0  0  0  0  0  0  0
   -0.9394   -3.5170   -1.2103 H   0  0  0  0  0  0  0  0  0  0  0  0
   -1.8772   -0.7882    1.1841 H   0  0  0  0  0  0  0  0  0  0  0  0
    7.0156    0.1216    3.3969 H   0  0  0  0  0  0  0  0  0  0  0  0
    7.5168   -1.6063    3.4484 H   0  0  0  0  0  0  0  0  0  0  0  0
    7.4701   -0.7427    1.8730 H   0  0  0  0  0  0  0  0  0  0  0  0
    3.8048   -2.3264    3.5937 H   0  0  0  0  0  0  0  0  0  0  0  0
    5.5642   -2.7021    4.3343 H   0  0  0  0  0  0  0  0  0  0  0  0
  1  2  1  0
  2  3  1  0
  2  4  1  0
  4  5  1  0
  5  6  1  0
  6  7  1  0
  7  8  2  0
  7  9  1  0
  9 10  1  0
 10 11  1  0
 11 12  1  0
 12 13  1  0
 13 14  1  0
 14 15  1  0
 15 16  1  0
 16 17  1  0
 17 18  1  0
 18 19  2  0
 18 20  1  0
 20 21  1  0
 21 22  1  0
 22 23  2  0
 22 24  1  0
 24 25  1  0
 25 26  1  0
 26 27  1  0
 27 28  1  0
 28 29  1  0
 29 30  2  0
 29 31  1  0
  5 32  1  0
 32 33  2  0
 32 34  1  0
 34 35  1  1
 34 36  1  0
 36 37  1  0
 31  9  1  0
 37 34  1  0
 28 24  1  0
  1 38  1  0
  1 39  1  0
  1 40  1  0
  2 41  1  0
  3 42  1  0
  3 43  1  0
  3 44  1  0
  4 45  1  0
  4 46  1  0
  5 47  1  1
  6 48  1  0
  9 49  1  6
 10 50  1  0
 10 51  1  0
 12 52  1  0
 12 53  1  0
 13 54  1  0
 13 55  1  0
 14 56  1  0
 14 57  1  0
 15 58  1  0
 15 59  1  0
 16 60  1  0
 16 61  1  0
 17 62  1  0
 17 63  1  0
 20 64  1  0
 21 65  1  0
 21 66  1  0
 25 67  1  0
 25 68  1  0
 26 69  1  0
 26 70  1  0
 27 71  1  0
 27 72  1  0
 28 73  1  6
 31 74  1  0
 35 75  1  0
 35 76  1  0
 35 77  1  0
 36 78  1  0
 36 79  1  0
M  END
$$$$
