
     RDKit          3D

 74 77  0  0  0  0  0  0  0  0999 V2000
   -5.3086   -0.2092   -2.2173 C   0  0  0  0  0  0  0  0  0  0  0  0
   -4.5430   -0.6774   -0.9834 C   0  0  0  0  0  0  0  0  0  0  0  0
   -3.0363   -0.3942   -1.1277 C   0  0  0  0  0  0  0  0  0  0  0  0
   -2.1965   -0.5649    0.1643 C   0  0  1  0  0  0  0  0  0  0  0  0
   -2.2378    0.5957    1.0633 N   0  0  0  0  0  0  0  0  0  0  0  0
   -3.4120    1.3696    1.3202 C   0  0  0  0  0  0  0  0  0  0  0  0
   -4.1364    1.0677    2.3069 O   0  0  0  0  0  0  0  0  0  0  0  0
   -3.7701    2.5293    0.4662 C   0  0  0  0  0  0  0  0  0  0  0  0
   -5.0949    2.9972    0.4539 C   0  0  0  0  0  0  0  0  0  0  0  0
   -5.4510    4.0851   -0.3409 C   0  0  0  0  0  0  0  0  0  0  0  0
   -4.4790    4.7102   -1.1185 C   0  0  0  0  0  0  0  0  0  0  0  0
   -3.1993    4.2587   -1.0981 N   0  0  0  0  0  0  0  0  0  0  0  0
   -2.8159    3.1955   -0.3358 C   0  0  0  0  0  0  0  0  0  0  0  0
   -1.4813    2.7728   -0.3506 O   0  0  0  0  0  0  0  0  0  0  0  0
   -0.4714    3.4161   -1.1240 C   0  0  0  0  0  0  0  0  0  0  0  0
    0.8263    2.6200   -1.0504 C   0  0  0  0  0  0  0  0  0  0  0  0
    0.5956    1.3203   -1.5515 O   0  0  0  0  0  0  0  0  0  0  0  0
    1.8042    0.5882   -1.6292 C   0  0  0  0  0  0  0  0  0  0  0  0
    2.1822   -0.0235   -0.2685 C   0  0  0  0  0  0  0  0  0  0  0  0
    2.8252   -1.3472   -0.4442 N   0  0  0  0  0  0  0  0  0  0  0  0
    4.1992   -1.2597   -1.0000 C   0  0  0  0  0  0  0  0  0  0  0  0
    5.1844   -0.5401   -0.1003 C   0  0  0  0  0  0  0  0  0  0  0  0
    5.8818   -1.2367    0.9018 C   0  0  0  0  0  0  0  0  0  0  0  0
    6.8015   -0.5688    1.7167 C   0  0  0  0  0  0  0  0  0  0  0  0
    7.0398    0.7952    1.5342 C   0  0  0  0  0  0  0  0  0  0  0  0
    6.3592    1.4948    0.5354 C   0  0  0  0  0  0  0  0  0  0  0  0
    5.4407    0.8309   -0.2834 C   0  0  0  0  0  0  0  0  0  0  0  0
    2.7533   -2.1956    0.7709 C   0  0  0  0  0  0  0  0  0  0  0  0
    1.3693   -2.8905    0.9761 C   0  0  0  0  0  0  0  0  0  0  0  0
    0.5967   -2.2665    2.1661 C   0  0  0  0  0  0  0  0  0  0  0  0
   -0.7667   -2.9302    2.3492 C   0  0  0  0  0  0  0  0  0  0  0  0
   -1.4969   -2.8492    1.0881 N   0  0  0  0  0  0  0  0  0  0  0  0
   -0.9001   -3.5197   -0.0686 C   0  0  0  0  0  0  0  0  0  0  0  0
    0.5184   -2.9871   -0.3233 C   0  0  0  0  0  0  0  0  0  0  0  0
   -2.4967   -1.8307    0.9316 C   0  0  0  0  0  0  0  0  0  0  0  0
   -3.5902   -1.9469    1.5469 O   0  0  0  0  0  0  0  0  0  0  0  0
   -4.9195   -0.7131   -3.1277 H   0  0  0  0  0  0  0  0  0  0  0  0
   -5.2110    0.8915   -2.3344 H   0  0  0  0  0  0  0  0  0  0  0  0
   -6.3846   -0.4586   -2.1050 H   0  0  0  0  0  0  0  0  0  0  0  0
   -4.7049   -1.7699   -0.8631 H   0  0  0  0  0  0  0  0  0  0  0  0
   -4.9671   -0.1671   -0.0970 H   0  0  0  0  0  0  0  0  0  0  0  0
   -2.8769    0.6309   -1.5232 H   0  0  0  0  0  0  0  0  0  0  0  0
   -2.6345   -1.0903   -1.8972 H   0  0  0  0  0  0  0  0  0  0  0  0
   -1.1498   -0.6261   -0.1836 H   0  0  0  0  0  0  0  0  0  0  0  0
   -1.4867    0.6492    1.7879 H   0  0  0  0  0  0  0  0  0  0  0  0
   -5.8580    2.5129    1.0512 H   0  0  0  0  0  0  0  0  0  0  0  0
   -6.4731    4.4406   -0.3540 H   0  0  0  0  0  0  0  0  0  0  0  0
   -4.7412    5.5562   -1.7394 H   0  0  0  0  0  0  0  0  0  0  0  0
   -0.3006    4.4420   -0.7339 H   0  0  0  0  0  0  0  0  0  0  0  0
   -0.7960    3.4821   -2.1853 H   0  0  0  0  0  0  0  0  0  0  0  0
    1.1586    2.5775    0.0111 H   0  0  0  0  0  0  0  0  0  0  0  0
    1.5893    3.1586   -1.6579 H   0  0  0  0  0  0  0  0  0  0  0  0
    2.6454    1.1906   -2.0407 H   0  0  0  0  0  0  0  0  0  0  0  0
    1.6340   -0.2347   -2.3554 H   0  0  0  0  0  0  0  0  0  0  0  0
    1.2478   -0.1272    0.3106 H   0  0  0  0  0  0  0  0  0  0  0  0
    2.8234    0.6719    0.3103 H   0  0  0  0  0  0  0  0  0  0  0  0
    4.1687   -0.7617   -1.9927 H   0  0  0  0  0  0  0  0  0  0  0  0
    4.5777   -2.2828   -1.2167 H   0  0  0  0  0  0  0  0  0  0  0  0
    5.7254   -2.2973    1.0473 H   0  0  0  0  0  0  0  0  0  0  0  0
    7.3343   -1.1108    2.4865 H   0  0  0  0  0  0  0  0  0  0  0  0
    7.7547    1.3094    2.1639 H   0  0  0  0  0  0  0  0  0  0  0  0
    6.5494    2.5502    0.3891 H   0  0  0  0  0  0  0  0  0  0  0  0
    4.9309    1.3864   -1.0607 H   0  0  0  0  0  0  0  0  0  0  0  0
    3.0445   -1.6057    1.6696 H   0  0  0  0  0  0  0  0  0  0  0  0
    3.4992   -3.0173    0.6931 H   0  0  0  0  0  0  0  0  0  0  0  0
    1.5802   -3.9417    1.2806 H   0  0  0  0  0  0  0  0  0  0  0  0
    1.1850   -2.3997    3.1003 H   0  0  0  0  0  0  0  0  0  0  0  0
    0.4405   -1.1796    2.0225 H   0  0  0  0  0  0  0  0  0  0  0  0
   -1.3261   -2.4237    3.1669 H   0  0  0  0  0  0  0  0  0  0  0  0
   -0.6341   -3.9962    2.6360 H   0  0  0  0  0  0  0  0  0  0  0  0
   -1.5288   -3.3730   -0.9745 H   0  0  0  0  0  0  0  0  0  0  0  0
   -0.8486   -4.6120    0.1321 H   0  0  0  0  0  0  0  0  0  0  0  0
    0.4288   -2.0082   -0.8234 H   0  0  0  0  0  0  0  0  0  0  0  0
    1.0302   -3.6627   -1.0421 H   0  0  0  0  0  0  0  0  0  0  0  0
  1  2  1  0
  2  3  1  0
  3  4  1  0
  4  5  1  0
  5  6  1  0
  6  7  2  0
  6  8  1  0
  8  9  2  0
  9 10  1  0
 10 11  2  0
 11 12  1  0
 12 13  2  0
 13 14  1  0
 14 15  1  0
 15 16  1  0
 16 17  1  0
 17 18  1  0
 18 19  1  0
 19 20  1  0
 20 21  1  0
 21 22  1  0
 22 23  2  0
 23 24  1  0
 24 25  2  0
 25 26  1  0
 26 27  2  0
 20 28  1  0
 28 29  1  0
 29 30  1  0
 30 31  1  0
 31 32  1  0
 32 33  1  0
 33 34  1  0
 32 35  1  0
 35 36  2  0
 35  4  1  0
 13  8  1  0
 27 22  1  0
 34 29  1  0
  1 37  1  0
  1 38  1  0
  1 39  1  0
  2 40  1  0
  2 41  1  0
  3 42  1  0
  3 43  1  0
  4 44  1  6
  5 45  1  0
  9 46  1  0
 10 47  1  0
 11 48  1  0
 15 49  1  0
 15 50  1  0
 16 51  1  0
 16 52  1  0
 18 53  1  0
 18 54  1  0
 19 55  1  0
 19 56  1  0
 21 57  1  0
 21 58  1  0
 23 59  1  0
 24 60  1  0
 25 61  1  0
 26 62  1  0
 27 63  1  0
 28 64  1  0
 28 65  1  0
 29 66  1  0
 30 67  1  0
 30 68  1  0
 31 69  1  0
 31 70  1  0
 33 71  1  0
 33 72  1  0
 34 73  1  0
 34 74  1  0
M  END
$$$$
