
     RDKit          3D

 66 70  0  0  0  0  0  0  0  0999 V2000
    5.2085   -0.5480   -1.0396 C   0  0  0  0  0  0  0  0  0  0  0  0
    4.9897   -0.8160    0.4522 C   0  0  0  0  0  0  0  0  0  0  0  0
    4.8284    0.5939    1.5563 S   0  0  0  0  0  6  0  0  0  0  0  0
    4.8594    0.1540    2.9942 O   0  0  0  0  0  0  0  0  0  0  0  0
    5.9896    1.5160    1.3120 O   0  0  0  0  0  0  0  0  0  0  0  0
    3.3508    1.4606    1.2357 N   0  0  0  0  0  0  0  0  0  0  0  0
    2.1712    0.7958    1.8346 C   0  0  1  0  0  0  0  0  0  0  0  0
    1.7348    1.5977    3.0695 C   0  0  0  0  0  0  0  0  0  0  0  0
    1.2073    3.0093    2.7212 C   0  0  0  0  0  0  0  0  0  0  0  0
    0.9052    3.2266    1.2267 C   0  0  0  0  0  0  0  0  0  0  0  0
    0.3544    2.0142    0.6073 N   0  0  0  0  0  0  0  0  0  0  0  0
   -0.7637    2.1685   -0.2838 C   0  0  0  0  0  0  0  0  0  0  0  0
   -0.5771    2.6691   -1.4257 O   0  0  0  0  0  0  0  0  0  0  0  0
   -2.1642    1.8837    0.1676 C   0  0  0  0  0  0  0  0  0  0  0  0
   -2.7789    0.9425   -0.7180 O   0  0  0  0  0  0  0  0  0  0  0  0
   -4.1098    0.5077   -0.6338 C   0  0  0  0  0  0  0  0  0  0  0  0
   -5.1052    1.3533   -0.1030 C   0  0  0  0  0  0  0  0  0  0  0  0
   -6.4370    0.9453   -0.0574 C   0  0  0  0  0  0  0  0  0  0  0  0
   -6.7984   -0.3123   -0.5283 C   0  0  0  0  0  0  0  0  0  0  0  0
   -5.8283   -1.1724   -1.0381 C   0  0  0  0  0  0  0  0  0  0  0  0
   -4.4740   -0.7833   -1.1102 C   0  0  0  0  0  0  0  0  0  0  0  0
   -3.4563   -1.8370   -1.5608 C   0  0  0  0  0  0  0  0  0  0  0  0
   -2.8241   -2.5636   -0.3409 C   0  0  0  0  0  0  0  0  0  0  0  0
   -1.3025   -2.7005   -0.4268 C   0  0  0  0  0  0  0  0  0  0  0  0
   -0.6959   -1.3363   -0.7370 C   0  0  0  0  0  0  0  0  0  0  0  0
   -1.0395   -0.9390   -2.1885 C   0  0  0  0  0  0  0  0  0  0  0  0
   -2.4609   -1.3419   -2.6524 C   0  0  0  0  0  0  0  0  0  0  0  0
    0.7022   -1.3857   -0.5051 O   0  0  0  0  0  0  0  0  0  0  0  0
    1.2859   -0.0918   -0.4463 C   0  0  0  0  0  0  0  0  0  0  0  0
    0.9516    0.6844    0.8710 C   0  0  1  0  0  0  0  0  0  0  0  0
    4.2762   -2.0993    0.8599 C   0  0  0  0  0  0  0  0  0  0  0  0
    5.7895   -1.9897    1.0045 C   0  0  0  0  0  0  0  0  0  0  0  0
    6.2760   -0.2968   -1.2184 H   0  0  0  0  0  0  0  0  0  0  0  0
    4.5871    0.3099   -1.3700 H   0  0  0  0  0  0  0  0  0  0  0  0
    4.9409   -1.4317   -1.6590 H   0  0  0  0  0  0  0  0  0  0  0  0
    3.2616    1.6013    0.2066 H   0  0  0  0  0  0  0  0  0  0  0  0
    2.4144   -0.2355    2.1682 H   0  0  0  0  0  0  0  0  0  0  0  0
    2.5847    1.6813    3.7834 H   0  0  0  0  0  0  0  0  0  0  0  0
    0.9316    1.0336    3.5949 H   0  0  0  0  0  0  0  0  0  0  0  0
    0.2785    3.1969    3.3043 H   0  0  0  0  0  0  0  0  0  0  0  0
    1.9528    3.7694    3.0438 H   0  0  0  0  0  0  0  0  0  0  0  0
    1.8293    3.5241    0.6895 H   0  0  0  0  0  0  0  0  0  0  0  0
    0.1929    4.0764    1.1297 H   0  0  0  0  0  0  0  0  0  0  0  0
   -2.7147    2.8457    0.1732 H   0  0  0  0  0  0  0  0  0  0  0  0
   -2.1535    1.4692    1.1998 H   0  0  0  0  0  0  0  0  0  0  0  0
   -4.8664    2.3436    0.2551 H   0  0  0  0  0  0  0  0  0  0  0  0
   -7.1923    1.6087    0.3422 H   0  0  0  0  0  0  0  0  0  0  0  0
   -7.8330   -0.6289   -0.4846 H   0  0  0  0  0  0  0  0  0  0  0  0
   -6.1366   -2.1577   -1.3649 H   0  0  0  0  0  0  0  0  0  0  0  0
   -4.0376   -2.6259   -2.0915 H   0  0  0  0  0  0  0  0  0  0  0  0
   -3.0705   -2.0230    0.6006 H   0  0  0  0  0  0  0  0  0  0  0  0
   -3.2653   -3.5786   -0.2341 H   0  0  0  0  0  0  0  0  0  0  0  0
   -1.0247   -3.4399   -1.2112 H   0  0  0  0  0  0  0  0  0  0  0  0
   -0.9173   -3.0691    0.5489 H   0  0  0  0  0  0  0  0  0  0  0  0
   -1.1691   -0.6330   -0.0351 H   0  0  0  0  0  0  0  0  0  0  0  0
   -0.9337    0.1564   -2.3161 H   0  0  0  0  0  0  0  0  0  0  0  0
   -0.2934   -1.4022   -2.8728 H   0  0  0  0  0  0  0  0  0  0  0  0
   -2.3340   -2.1653   -3.3918 H   0  0  0  0  0  0  0  0  0  0  0  0
   -2.9173   -0.5050   -3.2256 H   0  0  0  0  0  0  0  0  0  0  0  0
    2.3730   -0.2603   -0.5223 H   0  0  0  0  0  0  0  0  0  0  0  0
    1.0566    0.5076   -1.3505 H   0  0  0  0  0  0  0  0  0  0  0  0
    0.1986    0.0992    1.4416 H   0  0  0  0  0  0  0  0  0  0  0  0
    3.9608   -2.7717    0.0330 H   0  0  0  0  0  0  0  0  0  0  0  0
    3.7588   -2.0979    1.8407 H   0  0  0  0  0  0  0  0  0  0  0  0
    6.1277   -1.9063    2.0586 H   0  0  0  0  0  0  0  0  0  0  0  0
    6.3449   -2.6001    0.2598 H   0  0  0  0  0  0  0  0  0  0  0  0
  1  2  1  0
  2  3  1  0
  3  4  2  0
  3  5  2  0
  3  6  1  0
  6  7  1  0
  7  8  1  0
  8  9  1  0
  9 10  1  0
 10 11  1  0
 11 12  1  0
 12 13  2  0
 12 14  1  0
 14 15  1  0
 15 16  1  0
 16 17  2  0
 17 18  1  0
 18 19  2  0
 19 20  1  0
 20 21  2  0
 21 22  1  0
 22 23  1  0
 23 24  1  0
 24 25  1  0
 25 26  1  0
 26 27  1  0
 25 28  1  0
 28 29  1  0
 29 30  1  0
  2 31  1  0
 31 32  1  0
 32  2  1  0
 30  7  1  0
 30 11  1  0
 21 16  1  0
 27 22  1  0
  1 33  1  0
  1 34  1  0
  1 35  1  0
  6 36  1  0
  7 37  1  1
  8 38  1  0
  8 39  1  0
  9 40  1  0
  9 41  1  0
 10 42  1  0
 10 43  1  0
 14 44  1  0
 14 45  1  0
 17 46  1  0
 18 47  1  0
 19 48  1  0
 20 49  1  0
 22 50  1  0
 23 51  1  0
 23 52  1  0
 24 53  1  0
 24 54  1  0
 25 55  1  0
 26 56  1  0
 26 57  1  0
 27 58  1  0
 27 59  1  0
 29 60  1  0
 29 61  1  0
 30 62  1  1
 31 63  1  0
 31 64  1  0
 32 65  1  0
 32 66  1  0
M  END
$$$$
