
     RDKit          3D

 69 71  0  0  0  0  0  0  0  0999 V2000
    7.9587    0.9772    0.2695 C   0  0  0  0  0  0  0  0  0  0  0  0
    6.5829    0.3909    0.4213 C   0  0  0  0  0  0  0  0  0  0  0  0
    5.7106    0.8958    1.3990 C   0  0  0  0  0  0  0  0  0  0  0  0
    4.4646    0.2988    1.6119 C   0  0  0  0  0  0  0  0  0  0  0  0
    4.0588   -0.8025    0.8361 C   0  0  0  0  0  0  0  0  0  0  0  0
    2.7320   -1.4970    1.0939 C   0  0  0  0  0  0  0  0  0  0  0  0
    1.5438   -0.6515    0.8335 N   0  0  0  0  0  0  0  0  0  0  0  0
    1.1783    0.2242    1.9672 C   0  0  0  0  0  0  0  0  0  0  0  0
    1.6021    0.0671   -0.4591 C   0  0  0  0  0  0  0  0  0  0  0  0
    0.1751    0.3759   -0.9822 C   0  0  1  0  0  0  0  0  0  0  0  0
    0.2099    1.4601   -1.9071 O   0  0  0  0  0  0  0  0  0  0  0  0
    0.1147    2.7172   -1.2601 C   0  0  0  0  0  0  0  0  0  0  0  0
   -1.3136    3.0472   -0.9589 C   0  0  0  0  0  0  0  0  0  0  0  0
   -1.9614    2.8062    0.2284 C   0  0  0  0  0  0  0  0  0  0  0  0
   -3.2601    3.0573    0.0012 N   0  0  0  0  0  0  0  0  0  0  0  0
   -3.4028    3.4411   -1.2576 N   0  0  0  0  0  0  0  0  0  0  0  0
   -2.2265    3.4359   -1.8731 N   0  0  0  0  0  0  0  0  0  0  0  0
   -4.3555    2.8025    0.9324 C   0  0  0  0  0  0  0  0  0  0  0  0
   -5.2597    1.6365    0.4764 C   0  0  0  0  0  0  0  0  0  0  0  0
   -4.5675    0.5169   -0.3353 C   0  0  0  0  0  0  0  0  0  0  0  0
   -3.3941   -0.1437    0.3507 C   0  0  0  0  0  0  0  0  0  0  0  0
   -3.1805    0.0696    1.5765 O   0  0  0  0  0  0  0  0  0  0  0  0
   -2.5898   -1.1138   -0.3535 N   0  0  0  0  0  0  0  0  0  0  0  0
   -2.5234   -2.5136    0.1184 C   0  0  1  0  0  0  0  0  0  0  0  0
   -1.7461   -2.6327    1.4370 C   0  0  0  0  0  0  0  0  0  0  0  0
   -3.9221   -3.1495    0.2172 C   0  0  0  0  0  0  0  0  0  0  0  0
   -4.6734   -2.5778    1.2536 O   0  0  0  0  0  0  0  0  0  0  0  0
   -2.0128   -0.7787   -1.6676 C   0  0  0  0  0  0  0  0  0  0  0  0
   -0.4640   -0.8720   -1.6656 C   0  0  1  0  0  0  0  0  0  0  0  0
    0.0398   -1.0655   -3.1093 C   0  0  0  0  0  0  0  0  0  0  0  0
    4.9393   -1.3082   -0.1394 C   0  0  0  0  0  0  0  0  0  0  0  0
    6.1952   -0.7226   -0.3394 C   0  0  0  0  0  0  0  0  0  0  0  0
    7.9075    2.0842    0.2648 H   0  0  0  0  0  0  0  0  0  0  0  0
    8.4383    0.6505   -0.6785 H   0  0  0  0  0  0  0  0  0  0  0  0
    8.5924    0.6475    1.1201 H   0  0  0  0  0  0  0  0  0  0  0  0
    6.0082    1.7399    2.0128 H   0  0  0  0  0  0  0  0  0  0  0  0
    3.8360    0.6887    2.3985 H   0  0  0  0  0  0  0  0  0  0  0  0
    2.6460   -2.4075    0.4620 H   0  0  0  0  0  0  0  0  0  0  0  0
    2.7264   -1.8767    2.1354 H   0  0  0  0  0  0  0  0  0  0  0  0
    1.4615    1.2885    1.7929 H   0  0  0  0  0  0  0  0  0  0  0  0
    0.0774    0.1789    2.1242 H   0  0  0  0  0  0  0  0  0  0  0  0
    1.6410   -0.1078    2.9221 H   0  0  0  0  0  0  0  0  0  0  0  0
    2.1959    1.0025   -0.3514 H   0  0  0  0  0  0  0  0  0  0  0  0
    2.1446   -0.5405   -1.2141 H   0  0  0  0  0  0  0  0  0  0  0  0
   -0.4680    0.6139   -0.1063 H   0  0  0  0  0  0  0  0  0  0  0  0
    0.5155    3.4932   -1.9493 H   0  0  0  0  0  0  0  0  0  0  0  0
    0.7288    2.7710   -0.3343 H   0  0  0  0  0  0  0  0  0  0  0  0
   -1.5399    2.4142    1.1462 H   0  0  0  0  0  0  0  0  0  0  0  0
   -3.9391    2.5819    1.9402 H   0  0  0  0  0  0  0  0  0  0  0  0
   -4.9713    3.7233    1.0411 H   0  0  0  0  0  0  0  0  0  0  0  0
   -6.0726    2.0560   -0.1612 H   0  0  0  0  0  0  0  0  0  0  0  0
   -5.7511    1.1929    1.3723 H   0  0  0  0  0  0  0  0  0  0  0  0
   -5.3224   -0.2734   -0.5433 H   0  0  0  0  0  0  0  0  0  0  0  0
   -4.2679    0.9271   -1.3196 H   0  0  0  0  0  0  0  0  0  0  0  0
   -1.9706   -3.1280   -0.6288 H   0  0  0  0  0  0  0  0  0  0  0  0
   -1.5978   -3.7045    1.6832 H   0  0  0  0  0  0  0  0  0  0  0  0
   -0.7467   -2.1568    1.3368 H   0  0  0  0  0  0  0  0  0  0  0  0
   -2.2944   -2.1582    2.2806 H   0  0  0  0  0  0  0  0  0  0  0  0
   -4.4580   -3.0121   -0.7501 H   0  0  0  0  0  0  0  0  0  0  0  0
   -3.8066   -4.2432    0.3972 H   0  0  0  0  0  0  0  0  0  0  0  0
   -5.4765   -3.1429    1.3626 H   0  0  0  0  0  0  0  0  0  0  0  0
   -2.4501   -1.4697   -2.4216 H   0  0  0  0  0  0  0  0  0  0  0  0
   -2.2940    0.2468   -1.9875 H   0  0  0  0  0  0  0  0  0  0  0  0
   -0.1610   -1.7806   -1.1013 H   0  0  0  0  0  0  0  0  0  0  0  0
    1.1483   -1.1357   -3.1470 H   0  0  0  0  0  0  0  0  0  0  0  0
   -0.2907   -0.2252   -3.7540 H   0  0  0  0  0  0  0  0  0  0  0  0
   -0.3749   -2.0106   -3.5275 H   0  0  0  0  0  0  0  0  0  0  0  0
    4.6612   -2.1682   -0.7346 H   0  0  0  0  0  0  0  0  0  0  0  0
    6.8717   -1.1510   -1.0742 H   0  0  0  0  0  0  0  0  0  0  0  0
  1  2  1  0
  2  3  2  0
  3  4  1  0
  4  5  2  0
  5  6  1  0
  6  7  1  0
  7  8  1  0
  7  9  1  0
  9 10  1  0
 10 11  1  0
 11 12  1  0
 12 13  1  0
 13 14  2  0
 14 15  1  0
 15 16  1  0
 16 17  2  0
 15 18  1  0
 18 19  1  0
 19 20  1  0
 20 21  1  0
 21 22  2  0
 21 23  1  0
 23 24  1  0
 24 25  1  0
 24 26  1  0
 26 27  1  0
 23 28  1  0
 28 29  1  0
 29 30  1  0
  5 31  1  0
 31 32  2  0
 32  2  1  0
 29 10  1  0
 17 13  1  0
  1 33  1  0
  1 34  1  0
  1 35  1  0
  3 36  1  0
  4 37  1  0
  6 38  1  0
  6 39  1  0
  8 40  1  0
  8 41  1  0
  8 42  1  0
  9 43  1  0
  9 44  1  0
 10 45  1  1
 12 46  1  0
 12 47  1  0
 14 48  1  0
 18 49  1  0
 18 50  1  0
 19 51  1  0
 19 52  1  0
 20 53  1  0
 20 54  1  0
 24 55  1  6
 25 56  1  0
 25 57  1  0
 25 58  1  0
 26 59  1  0
 26 60  1  0
 27 61  1  0
 28 62  1  0
 28 63  1  0
 29 64  1  1
 30 65  1  0
 30 66  1  0
 30 67  1  0
 31 68  1  0
 32 69  1  0
M  END
$$$$
