
     RDKit          3D

 71 75  0  0  0  0  0  0  0  0999 V2000
    0.5068   -4.9672   -1.6231 C   0  0  0  0  0  0  0  0  0  0  0  0
    0.1987   -3.8643   -2.6606 C   0  0  1  0  0  0  0  0  0  0  0  0
    0.4336   -4.4356   -3.9965 N   0  0  0  0  0  0  0  0  0  0  0  0
   -1.2953   -3.4061   -2.5819 C   0  0  0  0  0  0  0  0  0  0  0  0
   -1.9538   -3.4302   -1.2104 C   0  0  0  0  0  0  0  0  0  0  0  0
   -3.0401   -4.3003   -0.9740 C   0  0  0  0  0  0  0  0  0  0  0  0
   -3.7450   -4.2496    0.2317 C   0  0  0  0  0  0  0  0  0  0  0  0
   -3.3804   -3.3383    1.2225 C   0  0  0  0  0  0  0  0  0  0  0  0
   -2.2869   -2.4786    1.0221 C   0  0  0  0  0  0  0  0  0  0  0  0
   -1.5780   -2.5263   -0.1970 C   0  0  0  0  0  0  0  0  0  0  0  0
   -0.5368   -1.6816   -0.3919 F   0  0  0  0  0  0  0  0  0  0  0  0
   -1.9300   -1.4515    2.0680 C   0  0  0  0  0  0  0  0  0  0  0  0
   -2.7622   -0.1637    1.8855 C   0  0  0  0  0  0  0  0  0  0  0  0
   -2.0160    1.0940    2.4080 C   0  0  2  0  0  0  0  0  0  0  0  0
   -2.8881    2.3522    2.4514 C   0  0  0  0  0  0  0  0  0  0  0  0
   -4.1397    2.3212    3.1048 C   0  0  0  0  0  0  0  0  0  0  0  0
   -4.9102    3.4819    3.2295 C   0  0  0  0  0  0  0  0  0  0  0  0
   -4.4405    4.6994    2.7284 C   0  0  0  0  0  0  0  0  0  0  0  0
   -5.1823    5.8269    2.8631 F   0  0  0  0  0  0  0  0  0  0  0  0
   -3.1902    4.7595    2.1119 C   0  0  0  0  0  0  0  0  0  0  0  0
   -2.4131    3.6024    1.9854 C   0  0  0  0  0  0  0  0  0  0  0  0
   -0.7719    1.3097    1.6477 N   0  0  0  0  0  0  0  0  0  0  0  0
   -0.7084    1.4315    0.2122 C   0  0  0  0  0  0  0  0  0  0  0  0
   -1.7646    1.5792   -0.4610 O   0  0  0  0  0  0  0  0  0  0  0  0
    0.5824    1.3369   -0.4930 C   0  0  0  0  0  0  0  0  0  0  0  0
    0.6724    0.5847   -1.6750 C   0  0  0  0  0  0  0  0  0  0  0  0
    1.9191    0.3420   -2.2702 C   0  0  0  0  0  0  0  0  0  0  0  0
    3.0614    0.9819   -1.7596 C   0  0  0  0  0  0  0  0  0  0  0  0
    2.9741    1.7921   -0.6187 C   0  0  0  0  0  0  0  0  0  0  0  0
    4.1801    2.4865   -0.1025 C   0  0  0  0  0  0  0  0  0  0  0  0
    4.8853    3.3510   -0.9611 C   0  0  0  0  0  0  0  0  0  0  0  0
    6.0222    4.0273   -0.5074 C   0  0  0  0  0  0  0  0  0  0  0  0
    6.4708    3.8447    0.8027 C   0  0  0  0  0  0  0  0  0  0  0  0
    5.7830    2.9845    1.6678 C   0  0  0  0  0  0  0  0  0  0  0  0
    4.6410    2.3026    1.2241 C   0  0  0  0  0  0  0  0  0  0  0  0
    3.9892    1.3866    2.1336 C   0  0  0  0  0  0  0  0  0  0  0  0
    3.4679    0.6581    2.8659 N   0  0  0  0  0  0  0  0  0  0  0  0
    1.7337    1.9541    0.0201 C   0  0  0  0  0  0  0  0  0  0  0  0
    2.0357   -0.5611   -3.4712 C   0  0  0  0  0  0  0  0  0  0  0  0
    1.0894   -1.6337   -3.4290 O   0  0  0  0  0  0  0  0  0  0  0  0
    1.1248   -2.6686   -2.4815 C   0  0  0  0  0  0  0  0  0  0  0  0
    1.8913   -2.5856   -1.4850 O   0  0  0  0  0  0  0  0  0  0  0  0
    1.5542   -5.3240   -1.7365 H   0  0  0  0  0  0  0  0  0  0  0  0
   -0.1785   -5.8311   -1.7670 H   0  0  0  0  0  0  0  0  0  0  0  0
    0.3895   -4.5938   -0.5832 H   0  0  0  0  0  0  0  0  0  0  0  0
    0.2170   -3.7210   -4.7346 H   0  0  0  0  0  0  0  0  0  0  0  0
    1.4458   -4.6735   -4.1053 H   0  0  0  0  0  0  0  0  0  0  0  0
   -1.8903   -4.0491   -3.2699 H   0  0  0  0  0  0  0  0  0  0  0  0
   -1.4024   -2.3819   -3.0012 H   0  0  0  0  0  0  0  0  0  0  0  0
   -3.3570   -5.0098   -1.7304 H   0  0  0  0  0  0  0  0  0  0  0  0
   -4.5932   -4.9061    0.3900 H   0  0  0  0  0  0  0  0  0  0  0  0
   -3.9517   -3.2988    2.1446 H   0  0  0  0  0  0  0  0  0  0  0  0
   -2.1090   -1.8691    3.0841 H   0  0  0  0  0  0  0  0  0  0  0  0
   -0.8388   -1.2398    2.0137 H   0  0  0  0  0  0  0  0  0  0  0  0
   -3.0340   -0.0231    0.8173 H   0  0  0  0  0  0  0  0  0  0  0  0
   -3.7202   -0.3065    2.4263 H   0  0  0  0  0  0  0  0  0  0  0  0
   -1.7330    0.8863    3.4636 H   0  0  0  0  0  0  0  0  0  0  0  0
   -4.5178    1.4080    3.5412 H   0  0  0  0  0  0  0  0  0  0  0  0
   -5.8677    3.4376    3.7269 H   0  0  0  0  0  0  0  0  0  0  0  0
   -2.8102    5.7043    1.7442 H   0  0  0  0  0  0  0  0  0  0  0  0
   -1.4310    3.7030    1.5420 H   0  0  0  0  0  0  0  0  0  0  0  0
    0.1173    1.3178    2.1910 H   0  0  0  0  0  0  0  0  0  0  0  0
   -0.2207    0.1340   -2.0992 H   0  0  0  0  0  0  0  0  0  0  0  0
    4.0195    0.8428   -2.2437 H   0  0  0  0  0  0  0  0  0  0  0  0
    4.5388    3.5095   -1.9771 H   0  0  0  0  0  0  0  0  0  0  0  0
    6.5563    4.6912   -1.1762 H   0  0  0  0  0  0  0  0  0  0  0  0
    7.3523    4.3675    1.1502 H   0  0  0  0  0  0  0  0  0  0  0  0
    6.1479    2.8391    2.6798 H   0  0  0  0  0  0  0  0  0  0  0  0
    1.6674    2.5846    0.9002 H   0  0  0  0  0  0  0  0  0  0  0  0
    1.8567    0.0432   -4.3882 H   0  0  0  0  0  0  0  0  0  0  0  0
    3.0634   -0.9899   -3.5384 H   0  0  0  0  0  0  0  0  0  0  0  0
  1  2  1  0
  2  3  1  6
  2  4  1  0
  4  5  1  0
  5  6  1  0
  6  7  2  0
  7  8  1  0
  8  9  2  0
  9 10  1  0
 10 11  1  0
  9 12  1  0
 12 13  1  0
 13 14  1  0
 14 15  1  0
 15 16  2  0
 16 17  1  0
 17 18  2  0
 18 19  1  0
 18 20  1  0
 20 21  2  0
 14 22  1  0
 22 23  1  0
 23 24  2  0
 23 25  1  0
 25 26  1  0
 26 27  2  0
 27 28  1  0
 28 29  2  0
 29 30  1  0
 30 31  2  0
 31 32  1  0
 32 33  2  0
 33 34  1  0
 34 35  2  0
 35 36  1  0
 36 37  3  0
 29 38  1  0
 27 39  1  0
 39 40  1  0
 40 41  1  0
 41 42  2  0
 41  2  1  0
 10  5  2  0
 21 15  1  0
 38 25  2  0
 35 30  1  0
  1 43  1  0
  1 44  1  0
  1 45  1  0
  3 46  1  0
  3 47  1  0
  4 48  1  0
  4 49  1  0
  6 50  1  0
  7 51  1  0
  8 52  1  0
 12 53  1  0
 12 54  1  0
 13 55  1  0
 13 56  1  0
 14 57  1  1
 16 58  1  0
 17 59  1  0
 20 60  1  0
 21 61  1  0
 22 62  1  0
 26 63  1  0
 28 64  1  0
 31 65  1  0
 32 66  1  0
 33 67  1  0
 34 68  1  0
 38 69  1  0
 39 70  1  0
 39 71  1  0
M  END
$$$$
