
     RDKit          3D

 55 58  0  0  0  0  0  0  0  0999 V2000
    3.8602   -1.1455    2.9917 C   0  0  0  0  0  0  0  0  0  0  0  0
    4.2102   -2.4404    2.2687 C   0  0  0  0  0  0  0  0  0  0  0  0
    4.2243   -2.2060    0.4986 S   0  0  0  0  0  6  0  0  0  0  0  0
    5.2689   -1.1889    0.1314 O   0  0  0  0  0  0  0  0  0  0  0  0
    4.5662   -3.5063   -0.1730 O   0  0  0  0  0  0  0  0  0  0  0  0
    2.6406   -1.6659   -0.0496 C   0  0  0  0  0  0  0  0  0  0  0  0
    1.6090   -2.5884   -0.2404 C   0  0  0  0  0  0  0  0  0  0  0  0
    0.3826   -2.1651   -0.6410 N   0  0  0  0  0  0  0  0  0  0  0  0
    0.1047   -0.8489   -0.8610 C   0  0  0  0  0  0  0  0  0  0  0  0
    1.1083    0.1169   -0.6633 C   0  0  0  0  0  0  0  0  0  0  0  0
    2.3835   -0.3080   -0.2627 C   0  0  0  0  0  0  0  0  0  0  0  0
    0.8507    1.5596   -0.8724 C   0  0  0  0  0  0  0  0  0  0  0  0
    1.6340    2.2700   -1.7945 C   0  0  0  0  0  0  0  0  0  0  0  0
    1.4487    3.6097   -1.9920 N   0  0  0  0  0  0  0  0  0  0  0  0
    2.2736    4.3183   -2.9789 C   0  0  0  0  0  0  0  0  0  0  0  0
    0.4880    4.2872   -1.2895 C   0  0  0  0  0  0  0  0  0  0  0  0
    0.3083    5.5223   -1.4760 O   0  0  0  0  0  0  0  0  0  0  0  0
   -0.3060    3.6204   -0.3533 C   0  0  0  0  0  0  0  0  0  0  0  0
   -0.1305    2.2443   -0.1334 C   0  0  0  0  0  0  0  0  0  0  0  0
   -0.8991    1.5409    0.8111 O   0  0  0  0  0  0  0  0  0  0  0  0
   -1.9130    2.1276    1.6262 C   0  0  0  0  0  0  0  0  0  0  0  0
   -2.6569    1.0526    2.4258 C   0  0  0  0  0  0  0  0  0  0  0  0
   -3.3851    0.0470    1.5140 C   0  0  0  0  0  0  0  0  0  0  0  0
   -2.5281   -1.1930    1.2041 C   0  0  0  0  0  0  0  0  0  0  0  0
   -2.8963   -1.7754   -0.1390 C   0  0  0  0  0  0  0  0  0  0  0  0
   -3.9767   -2.6695   -0.2282 C   0  0  0  0  0  0  0  0  0  0  0  0
   -4.4005   -3.1474   -1.4724 C   0  0  0  0  0  0  0  0  0  0  0  0
   -5.7479   -4.2663   -1.5695 Cl  0  0  0  0  0  0  0  0  0  0  0  0
   -3.7609   -2.7216   -2.6394 C   0  0  0  0  0  0  0  0  0  0  0  0
   -2.6944   -1.8232   -2.5650 C   0  0  0  0  0  0  0  0  0  0  0  0
   -2.2502   -1.3531   -1.3238 C   0  0  0  0  0  0  0  0  0  0  0  0
   -1.1726   -0.4627   -1.2861 O   0  0  0  0  0  0  0  0  0  0  0  0
    3.8893   -1.3141    4.0886 H   0  0  0  0  0  0  0  0  0  0  0  0
    4.5908   -0.3498    2.7346 H   0  0  0  0  0  0  0  0  0  0  0  0
    2.8385   -0.8111    2.7133 H   0  0  0  0  0  0  0  0  0  0  0  0
    5.2133   -2.7869    2.5954 H   0  0  0  0  0  0  0  0  0  0  0  0
    3.4633   -3.2211    2.5251 H   0  0  0  0  0  0  0  0  0  0  0  0
    1.7774   -3.6435   -0.0697 H   0  0  0  0  0  0  0  0  0  0  0  0
    3.1674    0.4211   -0.0971 H   0  0  0  0  0  0  0  0  0  0  0  0
    2.3915    1.7367   -2.3587 H   0  0  0  0  0  0  0  0  0  0  0  0
    1.6356    4.6665   -3.8187 H   0  0  0  0  0  0  0  0  0  0  0  0
    3.0732    3.6673   -3.3941 H   0  0  0  0  0  0  0  0  0  0  0  0
    2.7638    5.1951   -2.5041 H   0  0  0  0  0  0  0  0  0  0  0  0
   -1.0466    4.1838    0.1984 H   0  0  0  0  0  0  0  0  0  0  0  0
   -2.6446    2.6725    0.9902 H   0  0  0  0  0  0  0  0  0  0  0  0
   -1.4464    2.8482    2.3318 H   0  0  0  0  0  0  0  0  0  0  0  0
   -1.9536    0.5330    3.1131 H   0  0  0  0  0  0  0  0  0  0  0  0
   -3.4126    1.5658    3.0595 H   0  0  0  0  0  0  0  0  0  0  0  0
   -4.3148   -0.2930    2.0209 H   0  0  0  0  0  0  0  0  0  0  0  0
   -3.7052    0.5548    0.5762 H   0  0  0  0  0  0  0  0  0  0  0  0
   -1.4492   -0.9480    1.2364 H   0  0  0  0  0  0  0  0  0  0  0  0
   -2.6832   -1.9529    2.0014 H   0  0  0  0  0  0  0  0  0  0  0  0
   -4.4967   -2.9845    0.6684 H   0  0  0  0  0  0  0  0  0  0  0  0
   -4.0910   -3.0838   -3.6046 H   0  0  0  0  0  0  0  0  0  0  0  0
   -2.2038   -1.4973   -3.4734 H   0  0  0  0  0  0  0  0  0  0  0  0
  1  2  1  0
  2  3  1  0
  3  4  2  0
  3  5  2  0
  3  6  1  0
  6  7  2  0
  7  8  1  0
  8  9  2  0
  9 10  1  0
 10 11  2  0
 10 12  1  0
 12 13  2  0
 13 14  1  0
 14 15  1  0
 14 16  1  0
 16 17  2  0
 16 18  1  0
 18 19  2  0
 19 20  1  0
 20 21  1  0
 21 22  1  0
 22 23  1  0
 23 24  1  0
 24 25  1  0
 25 26  2  0
 26 27  1  0
 27 28  1  0
 27 29  2  0
 29 30  1  0
 30 31  2  0
 31 32  1  0
 11  6  1  0
 19 12  1  0
 31 25  1  0
 32  9  1  0
  1 33  1  0
  1 34  1  0
  1 35  1  0
  2 36  1  0
  2 37  1  0
  7 38  1  0
 11 39  1  0
 13 40  1  0
 15 41  1  0
 15 42  1  0
 15 43  1  0
 18 44  1  0
 21 45  1  0
 21 46  1  0
 22 47  1  0
 22 48  1  0
 23 49  1  0
 23 50  1  0
 24 51  1  0
 24 52  1  0
 26 53  1  0
 29 54  1  0
 30 55  1  0
M  END
$$$$
