
     RDKit          3D

127127  0  0  0  0  0  0  0  0999 V2000
   -1.4505   -8.3603   -2.9928 C   0  0  0  0  0  0  0  0  0  0  0  0
   -0.4966   -8.0705   -1.8360 C   0  0  0  0  0  0  0  0  0  0  0  0
   -1.0068   -6.8990   -0.9859 C   0  0  0  0  0  0  0  0  0  0  0  0
   -0.0737   -6.6307    0.2061 C   0  0  0  0  0  0  0  0  0  0  0  0
   -0.6090   -5.5151    1.1183 C   0  0  0  0  0  0  0  0  0  0  0  0
   -0.2983   -4.1086    0.5794 C   0  0  2  0  0  0  0  0  0  0  0  0
    1.0950   -3.8425    0.7344 O   0  0  0  0  0  0  0  0  0  0  0  0
    1.7395   -2.7540    0.1342 C   0  0  0  0  0  0  0  0  0  0  0  0
    1.2321   -2.1852   -0.8719 O   0  0  0  0  0  0  0  0  0  0  0  0
    3.0523   -2.2556    0.6786 C   0  0  1  0  0  0  0  0  0  0  0  0
    3.3330   -2.7916    2.0960 C   0  0  0  0  0  0  0  0  0  0  0  0
    4.1525   -2.5766   -0.2545 N   0  0  0  0  0  0  0  0  0  0  0  0
    4.4868   -3.9822   -0.5445 C   0  0  0  0  0  0  0  0  0  0  0  0
    4.7235   -1.5721   -1.1282 C   0  0  0  0  0  0  0  0  0  0  0  0
    5.0472   -1.8952   -2.3052 O   0  0  0  0  0  0  0  0  0  0  0  0
    4.9852   -0.1406   -0.6929 C   0  0  2  0  0  0  0  0  0  0  0  0
    5.6456   -0.0343    0.6946 C   0  0  0  0  0  0  0  0  0  0  0  0
    7.0043   -0.7543    0.7515 C   0  0  0  0  0  0  0  0  0  0  0  0
    7.7054   -0.5727    2.1094 C   0  0  0  0  0  0  0  0  0  0  0  0
    7.0704   -1.4246    3.2185 C   0  0  0  0  0  0  0  0  0  0  0  0
    7.9026   -1.3747    4.4955 C   0  0  0  0  0  0  0  0  0  0  0  0
    3.7977    0.6569   -0.7239 O   0  0  0  0  0  0  0  0  0  0  0  0
    3.1005    0.9349   -1.9026 C   0  0  0  0  0  0  0  0  0  0  0  0
    2.8928    0.0237   -2.7516 O   0  0  0  0  0  0  0  0  0  0  0  0
    2.6526    2.3418   -2.1830 C   0  0  1  0  0  0  0  0  0  0  0  0
    3.4583    2.9060   -3.3599 C   0  0  0  0  0  0  0  0  0  0  0  0
    1.2091    2.3820   -2.4543 N   0  0  0  0  0  0  0  0  0  0  0  0
    0.5504    3.5890   -2.8571 C   0  0  0  0  0  0  0  0  0  0  0  0
    0.6266    3.9502   -4.0599 O   0  0  0  0  0  0  0  0  0  0  0  0
   -0.1739    4.4674   -1.8678 C   0  0  2  0  0  0  0  0  0  0  0  0
    0.7937    5.0852   -0.8334 C   0  0  0  0  0  0  0  0  0  0  0  0
    0.1164    6.0413    0.1669 C   0  0  0  0  0  0  0  0  0  0  0  0
   -0.5798    7.2629   -0.4596 C   0  0  0  0  0  0  0  0  0  0  0  0
    0.3779    8.1410   -1.2840 C   0  0  0  0  0  0  0  0  0  0  0  0
   -0.2916    9.4477   -1.6964 C   0  0  0  0  0  0  0  0  0  0  0  0
   -1.2900    3.8025   -1.2605 O   0  0  0  0  0  0  0  0  0  0  0  0
   -1.2418    2.7852   -0.2940 C   0  0  0  0  0  0  0  0  0  0  0  0
   -0.1424    2.3080    0.0948 O   0  0  0  0  0  0  0  0  0  0  0  0
   -2.5143    2.3015    0.3424 C   0  0  1  0  0  0  0  0  0  0  0  0
   -2.6657    2.9035    1.7351 C   0  0  0  0  0  0  0  0  0  0  0  0
   -3.6736    2.6670   -0.4759 N   0  0  0  0  0  0  0  0  0  0  0  0
   -4.1331    1.8301   -1.5422 C   0  0  0  0  0  0  0  0  0  0  0  0
   -3.8837    2.1686   -2.7346 O   0  0  0  0  0  0  0  0  0  0  0  0
   -4.9459    0.5774   -1.2934 C   0  0  2  0  0  0  0  0  0  0  0  0
   -5.4876    0.4205    0.1430 C   0  0  0  0  0  0  0  0  0  0  0  0
   -6.6690    1.3607    0.4380 C   0  0  0  0  0  0  0  0  0  0  0  0
   -7.2763    1.0602    1.8180 C   0  0  0  0  0  0  0  0  0  0  0  0
   -8.6058    1.7960    2.0046 C   0  0  0  0  0  0  0  0  0  0  0  0
   -9.2303    1.4605    3.3566 C   0  0  0  0  0  0  0  0  0  0  0  0
   -4.2176   -0.5878   -1.6911 O   0  0  0  0  0  0  0  0  0  0  0  0
   -2.9956   -0.9793   -1.1417 C   0  0  0  0  0  0  0  0  0  0  0  0
   -1.9279   -0.6728   -1.7499 O   0  0  0  0  0  0  0  0  0  0  0  0
   -2.9597   -1.9319    0.0225 C   0  0  1  0  0  0  0  0  0  0  0  0
   -3.4090   -3.3214   -0.4482 C   0  0  0  0  0  0  0  0  0  0  0  0
   -1.6192   -1.9389    0.6268 N   0  0  0  0  0  0  0  0  0  0  0  0
   -1.0761   -3.0614    1.3298 C   0  0  0  0  0  0  0  0  0  0  0  0
   -1.1399   -3.0958    2.5892 O   0  0  0  0  0  0  0  0  0  0  0  0
   -2.4695   -8.5804   -2.6100 H   0  0  0  0  0  0  0  0  0  0  0  0
   -1.4956   -7.4907   -3.6855 H   0  0  0  0  0  0  0  0  0  0  0  0
   -1.0922   -9.2508   -3.5608 H   0  0  0  0  0  0  0  0  0  0  0  0
    0.5106   -7.8294   -2.2460 H   0  0  0  0  0  0  0  0  0  0  0  0
   -0.4096   -8.9854   -1.2069 H   0  0  0  0  0  0  0  0  0  0  0  0
   -2.0238   -7.1477   -0.6063 H   0  0  0  0  0  0  0  0  0  0  0  0
   -1.0838   -5.9937   -1.6270 H   0  0  0  0  0  0  0  0  0  0  0  0
    0.9448   -6.3730   -0.1544 H   0  0  0  0  0  0  0  0  0  0  0  0
    0.0076   -7.5640    0.8094 H   0  0  0  0  0  0  0  0  0  0  0  0
   -1.7041   -5.6440    1.2607 H   0  0  0  0  0  0  0  0  0  0  0  0
   -0.1400   -5.6232    2.1211 H   0  0  0  0  0  0  0  0  0  0  0  0
   -0.5629   -4.0578   -0.4973 H   0  0  0  0  0  0  0  0  0  0  0  0
    2.9400   -1.1552    0.7763 H   0  0  0  0  0  0  0  0  0  0  0  0
    2.6474   -2.2991    2.8152 H   0  0  0  0  0  0  0  0  0  0  0  0
    4.3704   -2.5566    2.3938 H   0  0  0  0  0  0  0  0  0  0  0  0
    3.1861   -3.8886    2.1622 H   0  0  0  0  0  0  0  0  0  0  0  0
    3.8765   -4.3329   -1.4044 H   0  0  0  0  0  0  0  0  0  0  0  0
    5.5677   -4.0695   -0.7998 H   0  0  0  0  0  0  0  0  0  0  0  0
    4.2901   -4.6357    0.3296 H   0  0  0  0  0  0  0  0  0  0  0  0
    5.7042    0.3104   -1.4175 H   0  0  0  0  0  0  0  0  0  0  0  0
    5.8047    1.0435    0.9215 H   0  0  0  0  0  0  0  0  0  0  0  0
    4.9725   -0.4315    1.4784 H   0  0  0  0  0  0  0  0  0  0  0  0
    6.8741   -1.8381    0.5475 H   0  0  0  0  0  0  0  0  0  0  0  0
    7.6683   -0.3398   -0.0364 H   0  0  0  0  0  0  0  0  0  0  0  0
    8.7707   -0.8798    1.9833 H   0  0  0  0  0  0  0  0  0  0  0  0
    7.6996    0.4996    2.4003 H   0  0  0  0  0  0  0  0  0  0  0  0
    6.0526   -1.0495    3.4544 H   0  0  0  0  0  0  0  0  0  0  0  0
    6.9893   -2.4835    2.8881 H   0  0  0  0  0  0  0  0  0  0  0  0
    8.9449   -1.7113    4.2957 H   0  0  0  0  0  0  0  0  0  0  0  0
    7.9258   -0.3383    4.9008 H   0  0  0  0  0  0  0  0  0  0  0  0
    7.4533   -2.0439    5.2621 H   0  0  0  0  0  0  0  0  0  0  0  0
    2.8726    2.9632   -1.2882 H   0  0  0  0  0  0  0  0  0  0  0  0
    3.2577    3.9896   -3.4797 H   0  0  0  0  0  0  0  0  0  0  0  0
    3.1982    2.3767   -4.3024 H   0  0  0  0  0  0  0  0  0  0  0  0
    4.5502    2.7846   -3.1700 H   0  0  0  0  0  0  0  0  0  0  0  0
    0.6122    1.5558   -2.2293 H   0  0  0  0  0  0  0  0  0  0  0  0
   -0.5920    5.3096   -2.4566 H   0  0  0  0  0  0  0  0  0  0  0  0
    1.2826    4.2824   -0.2462 H   0  0  0  0  0  0  0  0  0  0  0  0
    1.6107    5.6208   -1.3606 H   0  0  0  0  0  0  0  0  0  0  0  0
   -0.6322    5.4770    0.7694 H   0  0  0  0  0  0  0  0  0  0  0  0
    0.8914    6.4037    0.8784 H   0  0  0  0  0  0  0  0  0  0  0  0
   -1.0020    7.8729    0.3714 H   0  0  0  0  0  0  0  0  0  0  0  0
   -1.4306    6.9419   -1.0942 H   0  0  0  0  0  0  0  0  0  0  0  0
    0.6821    7.6014   -2.2075 H   0  0  0  0  0  0  0  0  0  0  0  0
    1.2869    8.3755   -0.6908 H   0  0  0  0  0  0  0  0  0  0  0  0
   -0.5514   10.0498   -0.7982 H   0  0  0  0  0  0  0  0  0  0  0  0
   -1.2197    9.2407   -2.2781 H   0  0  0  0  0  0  0  0  0  0  0  0
    0.4004   10.0406   -2.3287 H   0  0  0  0  0  0  0  0  0  0  0  0
   -2.4573    1.1970    0.4472 H   0  0  0  0  0  0  0  0  0  0  0  0
   -2.7487    4.0146    1.6791 H   0  0  0  0  0  0  0  0  0  0  0  0
   -1.7890    2.6457    2.3732 H   0  0  0  0  0  0  0  0  0  0  0  0
   -3.5837    2.5024    2.2207 H   0  0  0  0  0  0  0  0  0  0  0  0
   -3.8960    3.6880   -0.5615 H   0  0  0  0  0  0  0  0  0  0  0  0
   -5.8261    0.6370   -1.9720 H   0  0  0  0  0  0  0  0  0  0  0  0
   -5.8494   -0.6246    0.2522 H   0  0  0  0  0  0  0  0  0  0  0  0
   -4.6859    0.5768    0.8953 H   0  0  0  0  0  0  0  0  0  0  0  0
   -7.4487    1.2117   -0.3427 H   0  0  0  0  0  0  0  0  0  0  0  0
   -6.3292    2.4196    0.4035 H   0  0  0  0  0  0  0  0  0  0  0  0
   -6.5595    1.3679    2.6115 H   0  0  0  0  0  0  0  0  0  0  0  0
   -7.4555   -0.0328    1.9121 H   0  0  0  0  0  0  0  0  0  0  0  0
   -8.4436    2.8904    1.9423 H   0  0  0  0  0  0  0  0  0  0  0  0
   -9.3147    1.4980    1.2020 H   0  0  0  0  0  0  0  0  0  0  0  0
   -9.3893    0.3624    3.4494 H   0  0  0  0  0  0  0  0  0  0  0  0
  -10.2137    1.9665    3.4482 H   0  0  0  0  0  0  0  0  0  0  0  0
   -8.5701    1.8067    4.1801 H   0  0  0  0  0  0  0  0  0  0  0  0
   -3.6796   -1.5912    0.7955 H   0  0  0  0  0  0  0  0  0  0  0  0
   -4.4458   -3.2666   -0.8516 H   0  0  0  0  0  0  0  0  0  0  0  0
   -3.4271   -4.0372    0.4012 H   0  0  0  0  0  0  0  0  0  0  0  0
   -2.7437   -3.7117   -1.2500 H   0  0  0  0  0  0  0  0  0  0  0  0
   -1.2469   -1.0086    0.9201 H   0  0  0  0  0  0  0  0  0  0  0  0
  1  2  1  0
  2  3  1  0
  3  4  1  0
  4  5  1  0
  5  6  1  0
  6  7  1  0
  7  8  1  0
  8  9  2  0
  8 10  1  0
 10 11  1  0
 10 12  1  0
 12 13  1  0
 12 14  1  0
 14 15  2  0
 14 16  1  0
 16 17  1  0
 17 18  1  0
 18 19  1  0
 19 20  1  0
 20 21  1  0
 16 22  1  0
 22 23  1  0
 23 24  2  0
 23 25  1  0
 25 26  1  0
 25 27  1  0
 27 28  1  0
 28 29  2  0
 28 30  1  0
 30 31  1  0
 31 32  1  0
 32 33  1  0
 33 34  1  0
 34 35  1  0
 30 36  1  0
 36 37  1  0
 37 38  2  0
 37 39  1  0
 39 40  1  0
 39 41  1  0
 41 42  1  0
 42 43  2  0
 42 44  1  0
 44 45  1  0
 45 46  1  0
 46 47  1  0
 47 48  1  0
 48 49  1  0
 44 50  1  0
 50 51  1  0
 51 52  2  0
 51 53  1  0
 53 54  1  0
 53 55  1  0
 55 56  1  0
 56 57  2  0
 56  6  1  0
  1 58  1  0
  1 59  1  0
  1 60  1  0
  2 61  1  0
  2 62  1  0
  3 63  1  0
  3 64  1  0
  4 65  1  0
  4 66  1  0
  5 67  1  0
  5 68  1  0
  6 69  1  6
 10 70  1  1
 11 71  1  0
 11 72  1  0
 11 73  1  0
 13 74  1  0
 13 75  1  0
 13 76  1  0
 16 77  1  6
 17 78  1  0
 17 79  1  0
 18 80  1  0
 18 81  1  0
 19 82  1  0
 19 83  1  0
 20 84  1  0
 20 85  1  0
 21 86  1  0
 21 87  1  0
 21 88  1  0
 25 89  1  1
 26 90  1  0
 26 91  1  0
 26 92  1  0
 27 93  1  0
 30 94  1  6
 31 95  1  0
 31 96  1  0
 32 97  1  0
 32 98  1  0
 33 99  1  0
 33100  1  0
 34101  1  0
 34102  1  0
 35103  1  0
 35104  1  0
 35105  1  0
 39106  1  1
 40107  1  0
 40108  1  0
 40109  1  0
 41110  1  0
 44111  1  6
 45112  1  0
 45113  1  0
 46114  1  0
 46115  1  0
 47116  1  0
 47117  1  0
 48118  1  0
 48119  1  0
 49120  1  0
 49121  1  0
 49122  1  0
 53123  1  1
 54124  1  0
 54125  1  0
 54126  1  0
 55127  1  0
M  END
$$$$
