
     RDKit          3D

 62 65  0  0  0  0  0  0  0  0999 V2000
   -5.6807   -0.4915    1.4813 C   0  0  0  0  0  0  0  0  0  0  0  0
   -4.7877    0.5891    0.9262 C   0  0  0  0  0  0  0  0  0  0  0  0
   -5.2146    1.9223    1.0351 C   0  0  0  0  0  0  0  0  0  0  0  0
   -4.4277    2.9641    0.5559 C   0  0  0  0  0  0  0  0  0  0  0  0
   -3.2079    2.6977   -0.0562 C   0  0  0  0  0  0  0  0  0  0  0  0
   -2.7542    1.3750   -0.2011 C   0  0  0  0  0  0  0  0  0  0  0  0
   -3.5340    0.2991    0.3151 C   0  0  0  0  0  0  0  0  0  0  0  0
   -2.9819   -1.1316    0.2643 C   0  0  0  0  0  0  0  0  0  0  0  0
   -2.8257   -1.6199   -1.2064 C   0  0  0  0  0  0  0  0  0  0  0  0
   -1.9117   -2.8464   -1.3504 C   0  0  0  0  0  0  0  0  0  0  0  0
   -0.5783   -2.6224   -0.6286 C   0  0  0  0  0  0  0  0  0  0  0  0
   -0.8827   -2.4850    0.8745 C   0  0  0  0  0  0  0  0  0  0  0  0
   -1.7038   -1.2248    1.1427 C   0  0  0  0  0  0  0  0  0  0  0  0
    0.0133   -1.4410   -1.1485 O   0  0  0  0  0  0  0  0  0  0  0  0
    1.3945   -1.3523   -0.8630 C   0  0  0  0  0  0  0  0  0  0  0  0
    1.7627    0.1332   -0.6431 C   0  0  1  0  0  0  0  0  0  0  0  0
    3.1962    0.3206   -0.0921 C   0  0  1  0  0  0  0  0  0  0  0  0
    3.3400   -0.3816    1.2004 N   0  0  0  0  0  0  0  0  0  0  0  0
    4.1034    0.6146    2.4059 S   0  0  0  0  0  6  0  0  0  0  0  0
    5.7354    1.1054    1.8894 C   0  0  0  0  0  0  0  0  0  0  0  0
    4.2147   -0.1680    3.6836 O   0  0  0  0  0  0  0  0  0  0  0  0
    3.2673    1.8390    2.6547 O   0  0  0  0  0  0  0  0  0  0  0  0
    4.2622   -0.1205   -1.1282 C   0  0  0  0  0  0  0  0  0  0  0  0
    3.9026    0.2584   -2.5812 C   0  0  0  0  0  0  0  0  0  0  0  0
    2.7849    1.3032   -2.6783 C   0  0  0  0  0  0  0  0  0  0  0  0
    1.6042    0.8902   -1.9024 N   0  0  0  0  0  0  0  0  0  0  0  0
    0.3085    1.3380   -2.3440 C   0  0  0  0  0  0  0  0  0  0  0  0
   -0.0376    1.1444   -3.5405 O   0  0  0  0  0  0  0  0  0  0  0  0
   -0.6453    2.0414   -1.4226 C   0  0  0  0  0  0  0  0  0  0  0  0
   -1.5400    1.0901   -0.8546 O   0  0  0  0  0  0  0  0  0  0  0  0
   -5.9281   -1.2245    0.6847 H   0  0  0  0  0  0  0  0  0  0  0  0
   -5.1724   -1.0043    2.3248 H   0  0  0  0  0  0  0  0  0  0  0  0
   -6.6393   -0.0806    1.8638 H   0  0  0  0  0  0  0  0  0  0  0  0
   -6.1616    2.1622    1.5031 H   0  0  0  0  0  0  0  0  0  0  0  0
   -4.7679    3.9869    0.6575 H   0  0  0  0  0  0  0  0  0  0  0  0
   -2.6227    3.5339   -0.4110 H   0  0  0  0  0  0  0  0  0  0  0  0
   -3.6891   -1.8510    0.7229 H   0  0  0  0  0  0  0  0  0  0  0  0
   -3.8314   -1.8813   -1.6024 H   0  0  0  0  0  0  0  0  0  0  0  0
   -2.4413   -0.8274   -1.8763 H   0  0  0  0  0  0  0  0  0  0  0  0
   -2.4238   -3.7460   -0.9426 H   0  0  0  0  0  0  0  0  0  0  0  0
   -1.7195   -3.0334   -2.4295 H   0  0  0  0  0  0  0  0  0  0  0  0
    0.0664   -3.5149   -0.8066 H   0  0  0  0  0  0  0  0  0  0  0  0
   -1.4433   -3.3768    1.2324 H   0  0  0  0  0  0  0  0  0  0  0  0
    0.0547   -2.4418    1.4669 H   0  0  0  0  0  0  0  0  0  0  0  0
   -1.0396   -0.3489    1.0101 H   0  0  0  0  0  0  0  0  0  0  0  0
   -2.0041   -1.2186    2.2135 H   0  0  0  0  0  0  0  0  0  0  0  0
    1.6920   -1.9402    0.0321 H   0  0  0  0  0  0  0  0  0  0  0  0
    1.9591   -1.7621   -1.7260 H   0  0  0  0  0  0  0  0  0  0  0  0
    1.0758    0.5488    0.1259 H   0  0  0  0  0  0  0  0  0  0  0  0
    3.3197    1.4186    0.0530 H   0  0  0  0  0  0  0  0  0  0  0  0
    3.9081   -1.2542    1.1039 H   0  0  0  0  0  0  0  0  0  0  0  0
    6.3036    0.2127    1.5558 H   0  0  0  0  0  0  0  0  0  0  0  0
    6.2653    1.5810    2.7404 H   0  0  0  0  0  0  0  0  0  0  0  0
    5.6631    1.8342    1.0565 H   0  0  0  0  0  0  0  0  0  0  0  0
    5.2344    0.3456   -0.8627 H   0  0  0  0  0  0  0  0  0  0  0  0
    4.4101   -1.2217   -1.0873 H   0  0  0  0  0  0  0  0  0  0  0  0
    3.5770   -0.6527   -3.1289 H   0  0  0  0  0  0  0  0  0  0  0  0
    4.8072    0.6424   -3.1009 H   0  0  0  0  0  0  0  0  0  0  0  0
    3.1501    2.2807   -2.2959 H   0  0  0  0  0  0  0  0  0  0  0  0
    2.5226    1.4347   -3.7508 H   0  0  0  0  0  0  0  0  0  0  0  0
   -1.2090    2.7884   -2.0213 H   0  0  0  0  0  0  0  0  0  0  0  0
   -0.0922    2.5694   -0.6172 H   0  0  0  0  0  0  0  0  0  0  0  0
  1  2  1  0
  2  3  2  0
  3  4  1  0
  4  5  2  0
  5  6  1  0
  6  7  2  0
  7  8  1  0
  8  9  1  0
  9 10  1  0
 10 11  1  0
 11 12  1  0
 12 13  1  0
 11 14  1  0
 14 15  1  0
 15 16  1  0
 16 17  1  0
 17 18  1  0
 18 19  1  0
 19 20  1  0
 19 21  2  0
 19 22  2  0
 17 23  1  0
 23 24  1  0
 24 25  1  0
 25 26  1  0
 26 27  1  0
 27 28  2  0
 27 29  1  0
 29 30  1  0
  7  2  1  0
 13  8  1  0
 26 16  1  0
 30  6  1  0
  1 31  1  0
  1 32  1  0
  1 33  1  0
  3 34  1  0
  4 35  1  0
  5 36  1  0
  8 37  1  0
  9 38  1  0
  9 39  1  0
 10 40  1  0
 10 41  1  0
 11 42  1  0
 12 43  1  0
 12 44  1  0
 13 45  1  0
 13 46  1  0
 15 47  1  0
 15 48  1  0
 16 49  1  1
 17 50  1  1
 18 51  1  0
 20 52  1  0
 20 53  1  0
 20 54  1  0
 23 55  1  0
 23 56  1  0
 24 57  1  0
 24 58  1  0
 25 59  1  0
 25 60  1  0
 29 61  1  0
 29 62  1  0
M  END
$$$$
