
     RDKit          3D

 65 68  0  0  0  0  0  0  0  0999 V2000
    3.9221    2.4282   -0.7661 C   0  0  0  0  0  0  0  0  0  0  0  0
    3.5957    1.7413    0.5667 C   0  0  2  0  0  0  0  0  0  0  0  0
    4.0799    2.5914    1.7552 C   0  0  0  0  0  0  0  0  0  0  0  0
    3.6534    2.0280    2.9449 F   0  0  0  0  0  0  0  0  0  0  0  0
    3.5545    3.8693    1.6724 F   0  0  0  0  0  0  0  0  0  0  0  0
    5.4617    2.6747    1.7620 F   0  0  0  0  0  0  0  0  0  0  0  0
    4.2832    0.0691    0.6128 S   0  0  0  0  0  6  0  0  0  0  0  0
    5.3802   -0.0781   -0.4064 O   0  0  0  0  0  0  0  0  0  0  0  0
    4.8646   -0.2123    1.9702 O   0  0  0  0  0  0  0  0  0  0  0  0
    3.0343   -1.1083    0.3150 N   0  0  0  0  0  0  0  0  0  0  0  0
    2.7283   -1.2760   -1.1233 C   0  0  1  0  0  0  0  0  0  0  0  0
    3.2824   -2.6323   -1.5715 C   0  0  0  0  0  0  0  0  0  0  0  0
    2.5692   -3.7672   -0.8332 C   0  0  0  0  0  0  0  0  0  0  0  0
    1.0594   -3.7141   -1.0758 C   0  0  0  0  0  0  0  0  0  0  0  0
    0.4987   -2.3730   -0.8378 N   0  0  0  0  0  0  0  0  0  0  0  0
   -0.9342   -2.3653   -0.7573 C   0  0  0  0  0  0  0  0  0  0  0  0
   -1.6165   -2.4096   -1.8166 O   0  0  0  0  0  0  0  0  0  0  0  0
   -1.6364   -2.2928    0.5598 C   0  0  0  0  0  0  0  0  0  0  0  0
   -2.2252   -1.0052    0.6565 O   0  0  0  0  0  0  0  0  0  0  0  0
   -3.2863   -0.6172    1.4875 C   0  0  0  0  0  0  0  0  0  0  0  0
   -3.8237   -1.4796    2.4592 C   0  0  0  0  0  0  0  0  0  0  0  0
   -4.8927   -1.0622    3.2545 C   0  0  0  0  0  0  0  0  0  0  0  0
   -5.4313    0.2150    3.0926 C   0  0  0  0  0  0  0  0  0  0  0  0
   -4.9001    1.0863    2.1390 C   0  0  0  0  0  0  0  0  0  0  0  0
   -3.8240    0.6858    1.3282 C   0  0  0  0  0  0  0  0  0  0  0  0
   -3.2321    1.6618    0.3154 C   0  0  0  0  0  0  0  0  0  0  0  0
   -1.7658    1.9935    0.7133 C   0  0  0  0  0  0  0  0  0  0  0  0
   -0.9250    2.5638   -0.4296 C   0  0  0  0  0  0  0  0  0  0  0  0
   -1.0456    1.7105   -1.7122 C   0  0  0  0  0  0  0  0  0  0  0  0
   -2.5058    1.7805   -2.1694 C   0  0  0  0  0  0  0  0  0  0  0  0
   -3.4336    1.1293   -1.1349 C   0  0  0  0  0  0  0  0  0  0  0  0
   -0.6933    0.3389   -1.5446 O   0  0  0  0  0  0  0  0  0  0  0  0
    0.6194    0.1705   -1.0447 C   0  0  0  0  0  0  0  0  0  0  0  0
    1.2025   -1.2130   -1.4419 C   0  0  1  0  0  0  0  0  0  0  0  0
    3.5797    1.8096   -1.6194 H   0  0  0  0  0  0  0  0  0  0  0  0
    5.0158    2.5947   -0.8649 H   0  0  0  0  0  0  0  0  0  0  0  0
    3.4027    3.4075   -0.8327 H   0  0  0  0  0  0  0  0  0  0  0  0
    2.4924    1.6574    0.6474 H   0  0  0  0  0  0  0  0  0  0  0  0
    2.2036   -0.8795    0.9013 H   0  0  0  0  0  0  0  0  0  0  0  0
    3.2288   -0.4975   -1.7382 H   0  0  0  0  0  0  0  0  0  0  0  0
    3.1490   -2.7546   -2.6693 H   0  0  0  0  0  0  0  0  0  0  0  0
    4.3720   -2.6822   -1.3565 H   0  0  0  0  0  0  0  0  0  0  0  0
    2.9634   -4.7423   -1.1923 H   0  0  0  0  0  0  0  0  0  0  0  0
    2.7735   -3.7050    0.2578 H   0  0  0  0  0  0  0  0  0  0  0  0
    0.8520   -4.0143   -2.1271 H   0  0  0  0  0  0  0  0  0  0  0  0
    0.5715   -4.4567   -0.4057 H   0  0  0  0  0  0  0  0  0  0  0  0
   -0.9221   -2.4441    1.3968 H   0  0  0  0  0  0  0  0  0  0  0  0
   -2.4178   -3.0821    0.5845 H   0  0  0  0  0  0  0  0  0  0  0  0
   -3.4172   -2.4702    2.6106 H   0  0  0  0  0  0  0  0  0  0  0  0
   -5.3040   -1.7302    4.0001 H   0  0  0  0  0  0  0  0  0  0  0  0
   -6.2594    0.5334    3.7126 H   0  0  0  0  0  0  0  0  0  0  0  0
   -5.3271    2.0762    2.0376 H   0  0  0  0  0  0  0  0  0  0  0  0
   -3.7864    2.6267    0.3631 H   0  0  0  0  0  0  0  0  0  0  0  0
   -1.7835    2.7376    1.5396 H   0  0  0  0  0  0  0  0  0  0  0  0
   -1.2366    1.1154    1.1266 H   0  0  0  0  0  0  0  0  0  0  0  0
   -1.2629    3.6022   -0.6430 H   0  0  0  0  0  0  0  0  0  0  0  0
    0.1352    2.6457   -0.1083 H   0  0  0  0  0  0  0  0  0  0  0  0
   -0.4160    2.1641   -2.5109 H   0  0  0  0  0  0  0  0  0  0  0  0
   -2.8099    2.8384   -2.3312 H   0  0  0  0  0  0  0  0  0  0  0  0
   -2.6136    1.2510   -3.1413 H   0  0  0  0  0  0  0  0  0  0  0  0
   -3.2973    0.0321   -1.1997 H   0  0  0  0  0  0  0  0  0  0  0  0
   -4.4864    1.3173   -1.4392 H   0  0  0  0  0  0  0  0  0  0  0  0
    1.3023    0.9528   -1.4473 H   0  0  0  0  0  0  0  0  0  0  0  0
    0.5865    0.2553    0.0570 H   0  0  0  0  0  0  0  0  0  0  0  0
    1.0939   -1.2906   -2.5479 H   0  0  0  0  0  0  0  0  0  0  0  0
  1  2  1  0
  2  3  1  0
  3  4  1  0
  3  5  1  0
  3  6  1  0
  2  7  1  0
  7  8  2  0
  7  9  2  0
  7 10  1  0
 10 11  1  0
 11 12  1  0
 12 13  1  0
 13 14  1  0
 14 15  1  0
 15 16  1  0
 16 17  2  0
 16 18  1  0
 18 19  1  0
 19 20  1  0
 20 21  2  0
 21 22  1  0
 22 23  2  0
 23 24  1  0
 24 25  2  0
 25 26  1  0
 26 27  1  0
 27 28  1  0
 28 29  1  0
 29 30  1  0
 30 31  1  0
 29 32  1  0
 32 33  1  0
 33 34  1  0
 34 11  1  0
 34 15  1  0
 25 20  1  0
 31 26  1  0
  1 35  1  0
  1 36  1  0
  1 37  1  0
  2 38  1  1
 10 39  1  0
 11 40  1  6
 12 41  1  0
 12 42  1  0
 13 43  1  0
 13 44  1  0
 14 45  1  0
 14 46  1  0
 18 47  1  0
 18 48  1  0
 21 49  1  0
 22 50  1  0
 23 51  1  0
 24 52  1  0
 26 53  1  0
 27 54  1  0
 27 55  1  0
 28 56  1  0
 28 57  1  0
 29 58  1  0
 30 59  1  0
 30 60  1  0
 31 61  1  0
 31 62  1  0
 33 63  1  0
 33 64  1  0
 34 65  1  6
M  END
$$$$
