
     RDKit          3D

 73 77  0  0  0  0  0  0  0  0999 V2000
  -11.4193   -1.5174   -1.1735 Cl  0  0  0  0  0  0  0  0  0  0  0  0
   -9.8749   -1.8358   -0.3992 C   0  0  0  0  0  0  0  0  0  0  0  0
   -9.5502   -3.1397   -0.0105 C   0  0  0  0  0  0  0  0  0  0  0  0
   -8.3235   -3.4031    0.6045 C   0  0  0  0  0  0  0  0  0  0  0  0
   -7.4137   -2.3664    0.8260 C   0  0  0  0  0  0  0  0  0  0  0  0
   -7.7235   -1.0546    0.4290 C   0  0  0  0  0  0  0  0  0  0  0  0
   -6.7970    0.0171    0.6715 N   0  0  0  0  0  0  0  0  0  0  0  0
   -7.1566    1.1678    1.2194 N   0  0  0  0  0  0  0  0  0  0  0  0
   -6.0633    1.9492    1.3039 C   0  0  0  0  0  0  0  0  0  0  0  0
   -4.9703    1.2703    0.7965 C   0  0  0  0  0  0  0  0  0  0  0  0
   -3.6044    1.8112    0.6648 C   0  0  0  0  0  0  0  0  0  0  0  0
   -3.4378    3.0612    0.6659 O   0  0  0  0  0  0  0  0  0  0  0  0
   -2.4693    0.9393    0.5683 N   0  0  0  0  0  0  0  0  0  0  0  0
   -1.1583    1.4154    0.1124 C   0  0  1  0  0  0  0  0  0  0  0  0
   -0.2658    1.7636    1.3301 C   0  0  0  0  0  0  0  0  0  0  0  0
    0.1962    0.5338    2.1535 C   0  0  0  0  0  0  0  0  0  0  0  0
    1.6335    0.6853    2.6930 C   0  0  0  0  0  0  0  0  0  0  0  0
    2.7423    0.3666    1.6485 C   0  0  1  0  0  0  0  0  0  0  0  0
    4.1086    0.7673    2.2168 C   0  0  0  0  0  0  0  0  0  0  0  0
    2.7823   -1.1011    1.2510 C   0  0  0  0  0  0  0  0  0  0  0  0
    2.2851   -1.9661    2.0227 O   0  0  0  0  0  0  0  0  0  0  0  0
    3.4810   -1.5577    0.0774 N   0  0  0  0  0  0  0  0  0  0  0  0
    3.9362   -0.7086   -0.9871 C   0  0  0  0  0  0  0  0  0  0  0  0
    5.3118   -0.4967   -1.1512 C   0  0  0  0  0  0  0  0  0  0  0  0
    5.7920    0.3304   -2.1825 C   0  0  0  0  0  0  0  0  0  0  0  0
    7.1981    0.5797   -2.3519 N   0  0  0  0  0  0  0  0  0  0  0  0
    8.1367    0.6878   -1.2731 C   0  0  0  0  0  0  0  0  0  0  0  0
    9.5031    0.7377   -1.5635 O   0  0  0  0  0  0  0  0  0  0  0  0
   10.4988    0.8374   -0.5534 C   0  0  0  0  0  0  0  0  0  0  0  0
    7.7371    0.7743   -0.0798 O   0  0  0  0  0  0  0  0  0  0  0  0
    4.8814    0.8906   -3.0888 C   0  0  0  0  0  0  0  0  0  0  0  0
    3.5115    0.6564   -2.9542 C   0  0  0  0  0  0  0  0  0  0  0  0
    3.0312   -0.1521   -1.9154 C   0  0  0  0  0  0  0  0  0  0  0  0
    1.5827   -0.3650   -1.7685 C   0  0  0  0  0  0  0  0  0  0  0  0
    0.7930    0.6803   -1.2896 C   0  0  0  0  0  0  0  0  0  0  0  0
   -0.4837    0.4024   -0.7867 C   0  0  0  0  0  0  0  0  0  0  0  0
   -1.0015   -0.8505   -0.9350 N   0  0  0  0  0  0  0  0  0  0  0  0
   -0.2981   -1.8541   -1.5228 C   0  0  0  0  0  0  0  0  0  0  0  0
    1.0264   -1.6415   -1.9104 C   0  0  0  0  0  0  0  0  0  0  0  0
   -5.4746    0.0453    0.3818 C   0  0  0  0  0  0  0  0  0  0  0  0
   -4.7315   -1.0254   -0.3668 C   0  0  0  0  0  0  0  0  0  0  0  0
   -8.9673   -0.7919   -0.1737 C   0  0  0  0  0  0  0  0  0  0  0  0
   -9.2844    0.4712   -0.5597 F   0  0  0  0  0  0  0  0  0  0  0  0
  -10.2486   -3.9489   -0.1810 H   0  0  0  0  0  0  0  0  0  0  0  0
   -8.0792   -4.4117    0.9129 H   0  0  0  0  0  0  0  0  0  0  0  0
   -6.4749   -2.5817    1.3198 H   0  0  0  0  0  0  0  0  0  0  0  0
   -6.0649    2.9528    1.7078 H   0  0  0  0  0  0  0  0  0  0  0  0
   -2.5430   -0.0149    0.9892 H   0  0  0  0  0  0  0  0  0  0  0  0
   -1.2952    2.3420   -0.4892 H   0  0  0  0  0  0  0  0  0  0  0  0
    0.6125    2.3436    0.9732 H   0  0  0  0  0  0  0  0  0  0  0  0
   -0.8243    2.4546    1.9987 H   0  0  0  0  0  0  0  0  0  0  0  0
    0.1188   -0.4120    1.5818 H   0  0  0  0  0  0  0  0  0  0  0  0
   -0.4941    0.4230    3.0181 H   0  0  0  0  0  0  0  0  0  0  0  0
    1.7578    0.0160    3.5721 H   0  0  0  0  0  0  0  0  0  0  0  0
    1.7600    1.7234    3.0730 H   0  0  0  0  0  0  0  0  0  0  0  0
    2.5696    0.9854    0.7478 H   0  0  0  0  0  0  0  0  0  0  0  0
    4.3356    0.1846    3.1347 H   0  0  0  0  0  0  0  0  0  0  0  0
    4.1180    1.8486    2.4688 H   0  0  0  0  0  0  0  0  0  0  0  0
    4.9125    0.5864    1.4727 H   0  0  0  0  0  0  0  0  0  0  0  0
    3.7584   -2.5652    0.0368 H   0  0  0  0  0  0  0  0  0  0  0  0
    6.0004   -0.9833   -0.4726 H   0  0  0  0  0  0  0  0  0  0  0  0
    7.5521    0.7898   -3.3119 H   0  0  0  0  0  0  0  0  0  0  0  0
   10.3631    1.7768    0.0236 H   0  0  0  0  0  0  0  0  0  0  0  0
   11.4999    0.8486   -1.0307 H   0  0  0  0  0  0  0  0  0  0  0  0
   10.4352   -0.0359    0.1296 H   0  0  0  0  0  0  0  0  0  0  0  0
    5.2341    1.5204   -3.8958 H   0  0  0  0  0  0  0  0  0  0  0  0
    2.8228    1.1038   -3.6604 H   0  0  0  0  0  0  0  0  0  0  0  0
    1.2253    1.6670   -1.1690 H   0  0  0  0  0  0  0  0  0  0  0  0
   -0.7431   -2.8356   -1.6204 H   0  0  0  0  0  0  0  0  0  0  0  0
    1.6235   -2.4673   -2.2787 H   0  0  0  0  0  0  0  0  0  0  0  0
   -5.4272   -1.6120   -1.0022 H   0  0  0  0  0  0  0  0  0  0  0  0
   -4.2285   -1.7055    0.3518 H   0  0  0  0  0  0  0  0  0  0  0  0
   -3.9763   -0.5709   -1.0405 H   0  0  0  0  0  0  0  0  0  0  0  0
  1  2  1  0
  2  3  2  0
  3  4  1  0
  4  5  2  0
  5  6  1  0
  6  7  1  0
  7  8  1  0
  8  9  2  0
  9 10  1  0
 10 11  1  0
 11 12  2  0
 11 13  1  0
 13 14  1  0
 14 15  1  0
 15 16  1  0
 16 17  1  0
 17 18  1  0
 18 19  1  0
 18 20  1  0
 20 21  2  0
 20 22  1  0
 22 23  1  0
 23 24  2  0
 24 25  1  0
 25 26  1  0
 26 27  1  0
 27 28  1  0
 28 29  1  0
 27 30  2  0
 25 31  2  0
 31 32  1  0
 32 33  2  0
 33 34  1  0
 34 35  2  0
 35 36  1  0
 36 37  2  0
 37 38  1  0
 38 39  2  0
 10 40  2  0
 40 41  1  0
  6 42  2  0
 42 43  1  0
 42  2  1  0
 40  7  1  0
 36 14  1  0
 33 23  1  0
 39 34  1  0
  3 44  1  0
  4 45  1  0
  5 46  1  0
  9 47  1  0
 13 48  1  0
 14 49  1  6
 15 50  1  0
 15 51  1  0
 16 52  1  0
 16 53  1  0
 17 54  1  0
 17 55  1  0
 18 56  1  6
 19 57  1  0
 19 58  1  0
 19 59  1  0
 22 60  1  0
 24 61  1  0
 26 62  1  0
 29 63  1  0
 29 64  1  0
 29 65  1  0
 31 66  1  0
 32 67  1  0
 35 68  1  0
 38 69  1  0
 39 70  1  0
 41 71  1  0
 41 72  1  0
 41 73  1  0
M  END
$$$$
