
     RDKit          3D

 47 49  0  0  0  0  0  0  0  0999 V2000
    5.3430   -0.4302    2.2211 C   0  0  0  0  0  0  0  0  0  0  0  0
    4.4794   -1.5289    1.6123 C   0  0  0  0  0  0  0  0  0  0  0  0
    3.2709   -0.9836    1.0863 O   0  0  0  0  0  0  0  0  0  0  0  0
    3.2063   -0.2790   -0.1215 C   0  0  0  0  0  0  0  0  0  0  0  0
    4.2298   -0.1593   -0.8508 O   0  0  0  0  0  0  0  0  0  0  0  0
    1.8936    0.3120   -0.5629 C   0  0  2  0  0  0  0  0  0  0  0  0
    1.3885   -0.3937   -1.8491 C   0  0  0  0  0  0  0  0  0  0  0  0
   -0.0490   -0.8144   -1.7440 C   0  0  0  0  0  0  0  0  0  0  0  0
   -0.5748   -1.6766   -0.8045 C   0  0  0  0  0  0  0  0  0  0  0  0
   -1.8835   -1.8172   -1.0702 N   0  0  0  0  0  0  0  0  0  0  0  0
   -2.1258   -1.0435   -2.1474 C   0  0  0  0  0  0  0  0  0  0  0  0
   -1.0159   -0.4208   -2.5987 N   0  0  0  0  0  0  0  0  0  0  0  0
   -2.8744   -2.5112   -0.2503 C   0  0  0  0  0  0  0  0  0  0  0  0
   -3.4276   -1.5611    0.7709 C   0  0  0  0  0  0  0  0  0  0  0  0
   -2.7369   -1.2614    1.8808 C   0  0  0  0  0  0  0  0  0  0  0  0
   -3.0804   -0.0613    2.7190 C   0  0  0  0  0  0  0  0  0  0  0  0
   -2.1489    0.9866    2.4460 O   0  0  0  0  0  0  0  0  0  0  0  0
   -1.9667    1.5534    1.1757 C   0  0  0  0  0  0  0  0  0  0  0  0
   -3.0347    1.7304    0.2819 C   0  0  0  0  0  0  0  0  0  0  0  0
   -2.8022    2.2295   -1.0001 C   0  0  0  0  0  0  0  0  0  0  0  0
   -1.5036    2.5445   -1.4122 C   0  0  0  0  0  0  0  0  0  0  0  0
   -1.2653    3.0973   -3.0672 Cl  0  0  0  0  0  0  0  0  0  0  0  0
   -0.4226    2.3708   -0.5222 C   0  0  0  0  0  0  0  0  0  0  0  0
   -0.6759    1.9219    0.7844 C   0  0  0  0  0  0  0  0  0  0  0  0
    0.9616    2.6899   -0.9323 C   0  0  0  0  0  0  0  0  0  0  0  0
    1.2014    3.8267   -1.4204 O   0  0  0  0  0  0  0  0  0  0  0  0
    2.0486    1.7600   -0.7780 N   0  0  0  0  0  0  0  0  0  0  0  0
    5.6460    0.3005    1.4422 H   0  0  0  0  0  0  0  0  0  0  0  0
    6.2569   -0.8773    2.6663 H   0  0  0  0  0  0  0  0  0  0  0  0
    4.7767    0.0989    3.0168 H   0  0  0  0  0  0  0  0  0  0  0  0
    4.2214   -2.2624    2.4057 H   0  0  0  0  0  0  0  0  0  0  0  0
    5.0417   -2.0655    0.8171 H   0  0  0  0  0  0  0  0  0  0  0  0
    1.1892    0.1412    0.2748 H   0  0  0  0  0  0  0  0  0  0  0  0
    1.9800   -1.3115   -2.0629 H   0  0  0  0  0  0  0  0  0  0  0  0
    1.5148    0.2740   -2.7292 H   0  0  0  0  0  0  0  0  0  0  0  0
   -0.0514   -2.1416    0.0213 H   0  0  0  0  0  0  0  0  0  0  0  0
   -3.1049   -0.9131   -2.5900 H   0  0  0  0  0  0  0  0  0  0  0  0
   -3.7019   -2.8756   -0.8962 H   0  0  0  0  0  0  0  0  0  0  0  0
   -2.4155   -3.3952    0.2447 H   0  0  0  0  0  0  0  0  0  0  0  0
   -4.3317   -1.0116    0.5247 H   0  0  0  0  0  0  0  0  0  0  0  0
   -1.8034   -1.7772    2.0898 H   0  0  0  0  0  0  0  0  0  0  0  0
   -2.9941   -0.3417    3.7891 H   0  0  0  0  0  0  0  0  0  0  0  0
   -4.1223    0.2852    2.5481 H   0  0  0  0  0  0  0  0  0  0  0  0
   -4.0467    1.4851    0.5710 H   0  0  0  0  0  0  0  0  0  0  0  0
   -3.6339    2.3533   -1.6824 H   0  0  0  0  0  0  0  0  0  0  0  0
    0.1377    1.8195    1.4926 H   0  0  0  0  0  0  0  0  0  0  0  0
    3.0062    2.1343   -0.9674 H   0  0  0  0  0  0  0  0  0  0  0  0
  1  2  1  0
  2  3  1  0
  3  4  1  0
  4  5  2  0
  4  6  1  0
  6  7  1  0
  7  8  1  0
  8  9  2  0
  9 10  1  0
 10 11  1  0
 11 12  2  0
 10 13  1  0
 13 14  1  0
 14 15  2  0
 15 16  1  0
 16 17  1  0
 17 18  1  0
 18 19  2  0
 19 20  1  0
 20 21  2  0
 21 22  1  0
 21 23  1  0
 23 24  2  0
 23 25  1  0
 25 26  2  0
 25 27  1  0
 27  6  1  0
 12  8  1  0
 24 18  1  0
  1 28  1  0
  1 29  1  0
  1 30  1  0
  2 31  1  0
  2 32  1  0
  6 33  1  1
  7 34  1  0
  7 35  1  0
  9 36  1  0
 11 37  1  0
 13 38  1  0
 13 39  1  0
 14 40  1  0
 15 41  1  0
 16 42  1  0
 16 43  1  0
 19 44  1  0
 20 45  1  0
 24 46  1  0
 27 47  1  0
M  END
$$$$
