
     RDKit          3D

 98101  0  0  0  0  0  0  0  0999 V2000
   -6.8609   -1.5128    0.2954 C   0  0  0  0  0  0  0  0  0  0  0  0
   -5.6767   -1.8857    1.1991 C   0  0  0  0  0  0  0  0  0  0  0  0
   -5.6484   -3.3905    1.4903 C   0  0  0  0  0  0  0  0  0  0  0  0
   -4.3157   -1.3466    0.6794 C   0  0  0  0  0  0  0  0  0  0  0  0
   -3.9720   -1.5839   -0.8166 C   0  0  1  0  0  0  0  0  0  0  0  0
   -2.7100   -0.9238   -1.1540 N   0  0  0  0  0  0  0  0  0  0  0  0
   -2.6576    0.4886   -1.3474 C   0  0  0  0  0  0  0  0  0  0  0  0
   -3.2695    1.0072   -2.3219 O   0  0  0  0  0  0  0  0  0  0  0  0
   -1.8083    1.3338   -0.4372 C   0  0  2  0  0  0  0  0  0  0  0  0
   -2.4550    2.7041   -0.1275 C   0  0  0  0  0  0  0  0  0  0  0  0
   -3.7659    2.5515    0.6057 C   0  0  0  0  0  0  0  0  0  0  0  0
   -3.7842    2.3234    1.9947 C   0  0  0  0  0  0  0  0  0  0  0  0
   -5.0006    2.1258    2.6584 C   0  0  0  0  0  0  0  0  0  0  0  0
   -6.2019    2.1504    1.9423 C   0  0  0  0  0  0  0  0  0  0  0  0
   -6.1905    2.3840    0.5622 C   0  0  0  0  0  0  0  0  0  0  0  0
   -4.9791    2.5783   -0.1032 C   0  0  0  0  0  0  0  0  0  0  0  0
   -0.4622    1.4617   -1.0098 N   0  0  0  0  0  0  0  0  0  0  0  0
   -0.1518    2.3438   -2.0915 C   0  0  0  0  0  0  0  0  0  0  0  0
   -0.1094    1.8955   -3.2674 O   0  0  0  0  0  0  0  0  0  0  0  0
    0.1374    3.7935   -1.8337 C   0  0  0  0  0  0  0  0  0  0  0  0
    1.2753    4.2560   -2.6276 N   0  0  0  0  0  0  0  0  0  0  0  0
    2.6404    3.8627   -2.4184 C   0  0  0  0  0  0  0  0  0  0  0  0
    3.5244    4.3358   -3.1882 O   0  0  0  0  0  0  0  0  0  0  0  0
    3.0580    2.8700   -1.3485 C   0  0  2  0  0  0  0  0  0  0  0  0
    4.2367    3.4367   -0.5502 C   0  0  0  0  0  0  0  0  0  0  0  0
    3.4385    1.6003   -1.9791 N   0  0  0  0  0  0  0  0  0  0  0  0
    3.2422    0.2910   -1.4101 C   0  0  0  0  0  0  0  0  0  0  0  0
    3.2347   -0.6999   -2.1901 O   0  0  0  0  0  0  0  0  0  0  0  0
    3.1526    0.0375    0.0830 C   0  0  2  0  0  0  0  0  0  0  0  0
    4.4343   -0.6727    0.5811 C   0  0  0  0  0  0  0  0  0  0  0  0
    5.5976    0.2782    0.6806 C   0  0  0  0  0  0  0  0  0  0  0  0
    5.8468    0.9593    1.8799 C   0  0  0  0  0  0  0  0  0  0  0  0
    6.8845    1.8907    1.9598 C   0  0  0  0  0  0  0  0  0  0  0  0
    7.6810    2.1564    0.8405 C   0  0  0  0  0  0  0  0  0  0  0  0
    8.7080    3.0899    0.9410 O   0  0  0  0  0  0  0  0  0  0  0  0
    7.4347    1.4855   -0.3651 C   0  0  0  0  0  0  0  0  0  0  0  0
    6.4012    0.5470   -0.4396 C   0  0  0  0  0  0  0  0  0  0  0  0
    1.9850   -0.7978    0.3930 N   0  0  0  0  0  0  0  0  0  0  0  0
    1.5213   -0.9811    1.7382 C   0  0  0  0  0  0  0  0  0  0  0  0
    1.7461   -0.0805    2.5934 O   0  0  0  0  0  0  0  0  0  0  0  0
    0.7446   -2.1676    2.1675 C   0  0  0  0  0  0  0  0  0  0  0  0
    0.6055   -3.3340    1.5111 C   0  0  0  0  0  0  0  0  0  0  0  0
    1.2272   -3.6662    0.2156 C   0  0  0  0  0  0  0  0  0  0  0  0
    2.6253   -3.7892    0.1793 C   0  0  0  0  0  0  0  0  0  0  0  0
    3.2848   -4.0851   -1.0136 C   0  0  0  0  0  0  0  0  0  0  0  0
    2.5546   -4.2770   -2.1844 C   0  0  0  0  0  0  0  0  0  0  0  0
    1.1669   -4.1720   -2.1641 C   0  0  0  0  0  0  0  0  0  0  0  0
    0.4776   -3.8862   -0.9766 C   0  0  0  0  0  0  0  0  0  0  0  0
   -0.9270   -3.8337   -1.0792 O   0  0  0  0  0  0  0  0  0  0  0  0
   -1.8743   -3.8412   -0.0158 C   0  0  0  0  0  0  0  0  0  0  0  0
   -3.1849   -4.0151   -0.5447 O   0  0  0  0  0  0  0  0  0  0  0  0
   -3.9395   -3.0432   -1.2101 C   0  0  0  0  0  0  0  0  0  0  0  0
   -4.7004   -3.4231   -2.1414 O   0  0  0  0  0  0  0  0  0  0  0  0
   -7.8151   -1.7533    0.8131 H   0  0  0  0  0  0  0  0  0  0  0  0
   -6.8311   -2.0759   -0.6580 H   0  0  0  0  0  0  0  0  0  0  0  0
   -6.8493   -0.4248    0.0760 H   0  0  0  0  0  0  0  0  0  0  0  0
   -5.8508   -1.3848    2.1791 H   0  0  0  0  0  0  0  0  0  0  0  0
   -5.7139   -3.9861    0.5545 H   0  0  0  0  0  0  0  0  0  0  0  0
   -6.5137   -3.6718    2.1298 H   0  0  0  0  0  0  0  0  0  0  0  0
   -4.7166   -3.6628    2.0354 H   0  0  0  0  0  0  0  0  0  0  0  0
   -4.3249   -0.2500    0.8392 H   0  0  0  0  0  0  0  0  0  0  0  0
   -3.5035   -1.7236    1.3329 H   0  0  0  0  0  0  0  0  0  0  0  0
   -4.7691   -1.0956   -1.4195 H   0  0  0  0  0  0  0  0  0  0  0  0
   -1.8495   -1.4700   -1.3779 H   0  0  0  0  0  0  0  0  0  0  0  0
   -1.7028    0.7964    0.5326 H   0  0  0  0  0  0  0  0  0  0  0  0
   -2.6129    3.2841   -1.0652 H   0  0  0  0  0  0  0  0  0  0  0  0
   -1.7574    3.3007    0.4978 H   0  0  0  0  0  0  0  0  0  0  0  0
   -2.8571    2.2827    2.5583 H   0  0  0  0  0  0  0  0  0  0  0  0
   -5.0161    1.9456    3.7268 H   0  0  0  0  0  0  0  0  0  0  0  0
   -7.1440    1.9929    2.4519 H   0  0  0  0  0  0  0  0  0  0  0  0
   -7.1185    2.3939    0.0058 H   0  0  0  0  0  0  0  0  0  0  0  0
   -4.9863    2.7436   -1.1737 H   0  0  0  0  0  0  0  0  0  0  0  0
    0.1255    0.6022   -0.9536 H   0  0  0  0  0  0  0  0  0  0  0  0
    0.3371    3.9717   -0.7579 H   0  0  0  0  0  0  0  0  0  0  0  0
   -0.7586    4.3835   -2.1087 H   0  0  0  0  0  0  0  0  0  0  0  0
    1.0795    4.9380   -3.3925 H   0  0  0  0  0  0  0  0  0  0  0  0
    2.2226    2.7077   -0.6376 H   0  0  0  0  0  0  0  0  0  0  0  0
    4.4523    2.8014    0.3285 H   0  0  0  0  0  0  0  0  0  0  0  0
    5.1503    3.4931   -1.1839 H   0  0  0  0  0  0  0  0  0  0  0  0
    3.9872    4.4536   -0.1781 H   0  0  0  0  0  0  0  0  0  0  0  0
    3.8106    1.6344   -2.9522 H   0  0  0  0  0  0  0  0  0  0  0  0
    3.0458    0.9990    0.6251 H   0  0  0  0  0  0  0  0  0  0  0  0
    4.2533   -1.1082    1.5888 H   0  0  0  0  0  0  0  0  0  0  0  0
    4.6951   -1.5266   -0.0810 H   0  0  0  0  0  0  0  0  0  0  0  0
    5.2263    0.7761    2.7506 H   0  0  0  0  0  0  0  0  0  0  0  0
    7.0551    2.4215    2.8907 H   0  0  0  0  0  0  0  0  0  0  0  0
    9.2954    3.3250    0.1506 H   0  0  0  0  0  0  0  0  0  0  0  0
    8.0414    1.6884   -1.2398 H   0  0  0  0  0  0  0  0  0  0  0  0
    6.2161    0.0398   -1.3736 H   0  0  0  0  0  0  0  0  0  0  0  0
    1.4358   -1.2147   -0.3848 H   0  0  0  0  0  0  0  0  0  0  0  0
    0.2497   -2.0937    3.1264 H   0  0  0  0  0  0  0  0  0  0  0  0
    0.0205   -4.1076    1.9939 H   0  0  0  0  0  0  0  0  0  0  0  0
    3.2099   -3.6456    1.0780 H   0  0  0  0  0  0  0  0  0  0  0  0
    4.3614   -4.1682   -1.0301 H   0  0  0  0  0  0  0  0  0  0  0  0
    3.0659   -4.5087   -3.1104 H   0  0  0  0  0  0  0  0  0  0  0  0
    0.6129   -4.3178   -3.0791 H   0  0  0  0  0  0  0  0  0  0  0  0
   -1.6752   -4.7088    0.6425 H   0  0  0  0  0  0  0  0  0  0  0  0
   -1.8045   -2.9064    0.5706 H   0  0  0  0  0  0  0  0  0  0  0  0
  1  2  1  0
  2  3  1  0
  2  4  1  0
  4  5  1  0
  5  6  1  0
  6  7  1  0
  7  8  2  0
  7  9  1  0
  9 10  1  0
 10 11  1  0
 11 12  2  0
 12 13  1  0
 13 14  2  0
 14 15  1  0
 15 16  2  0
  9 17  1  0
 17 18  1  0
 18 19  2  0
 18 20  1  0
 20 21  1  0
 21 22  1  0
 22 23  2  0
 22 24  1  0
 24 25  1  0
 24 26  1  0
 26 27  1  0
 27 28  2  0
 27 29  1  0
 29 30  1  0
 30 31  1  0
 31 32  2  0
 32 33  1  0
 33 34  2  0
 34 35  1  0
 34 36  1  0
 36 37  2  0
 29 38  1  0
 38 39  1  0
 39 40  2  0
 39 41  1  0
 41 42  2  0
 42 43  1  0
 43 44  2  0
 44 45  1  0
 45 46  2  0
 46 47  1  0
 47 48  2  0
 48 49  1  0
 49 50  1  0
 50 51  1  0
 51 52  1  0
 52 53  2  0
 52  5  1  0
 16 11  1  0
 37 31  1  0
 48 43  1  0
  1 54  1  0
  1 55  1  0
  1 56  1  0
  2 57  1  0
  3 58  1  0
  3 59  1  0
  3 60  1  0
  4 61  1  0
  4 62  1  0
  5 63  1  6
  6 64  1  0
  9 65  1  1
 10 66  1  0
 10 67  1  0
 12 68  1  0
 13 69  1  0
 14 70  1  0
 15 71  1  0
 16 72  1  0
 17 73  1  0
 20 74  1  0
 20 75  1  0
 21 76  1  0
 24 77  1  1
 25 78  1  0
 25 79  1  0
 25 80  1  0
 26 81  1  0
 29 82  1  1
 30 83  1  0
 30 84  1  0
 32 85  1  0
 33 86  1  0
 35 87  1  0
 36 88  1  0
 37 89  1  0
 38 90  1  0
 41 91  1  0
 42 92  1  0
 44 93  1  0
 45 94  1  0
 46 95  1  0
 47 96  1  0
 50 97  1  0
 50 98  1  0
M  END
$$$$
