
     RDKit          3D

 66 69  0  0  0  0  0  0  0  0999 V2000
    5.1064    0.8562   -1.3430 C   0  0  0  0  0  0  0  0  0  0  0  0
    5.6659    1.3212    0.0033 C   0  0  0  0  0  0  0  0  0  0  0  0
    5.4826    2.8316    0.1784 C   0  0  0  0  0  0  0  0  0  0  0  0
    4.9113    0.4153    1.3611 S   0  0  0  0  0  6  0  0  0  0  0  0
    5.3510   -1.0215    1.2842 O   0  0  0  0  0  0  0  0  0  0  0  0
    5.4000    0.9911    2.6600 O   0  0  0  0  0  0  0  0  0  0  0  0
    3.1687    0.5383    1.3217 N   0  0  0  0  0  0  0  0  0  0  0  0
    2.5455   -0.6297    0.6664 C   0  0  1  0  0  0  0  0  0  0  0  0
    2.3611   -1.7734    1.6977 C   0  0  0  0  0  0  0  0  0  0  0  0
    0.9825   -1.7733    2.3771 C   0  0  0  0  0  0  0  0  0  0  0  0
    0.3592   -0.3806    2.3704 C   0  0  0  0  0  0  0  0  0  0  0  0
    0.1210    0.1180    0.9952 N   0  0  0  0  0  0  0  0  0  0  0  0
   -0.1832    1.5709    1.0450 C   0  0  0  0  0  0  0  0  0  0  0  0
   -0.9656    2.0397   -0.1839 C   0  0  0  0  0  0  0  0  0  0  0  0
   -2.0726    1.1778   -0.4260 O   0  0  0  0  0  0  0  0  0  0  0  0
   -3.3878    1.2990    0.0562 C   0  0  0  0  0  0  0  0  0  0  0  0
   -3.8130    2.4090    0.8109 C   0  0  0  0  0  0  0  0  0  0  0  0
   -5.1398    2.5068    1.2343 C   0  0  0  0  0  0  0  0  0  0  0  0
   -6.0532    1.5006    0.9210 C   0  0  0  0  0  0  0  0  0  0  0  0
   -5.6426    0.3818    0.1946 C   0  0  0  0  0  0  0  0  0  0  0  0
   -4.3120    0.2632   -0.2437 C   0  0  0  0  0  0  0  0  0  0  0  0
   -3.8597   -1.0216   -0.9302 C   0  0  1  0  0  0  0  0  0  0  0  0
   -3.3083   -0.7297   -2.3618 C   0  0  0  0  0  0  0  0  0  0  0  0
   -2.3502   -1.8001   -2.9054 C   0  0  0  0  0  0  0  0  0  0  0  0
   -1.2973   -2.1972   -1.8653 C   0  0  2  0  0  0  0  0  0  0  0  0
   -2.0396   -2.8300   -0.6776 C   0  0  0  0  0  0  0  0  0  0  0  0
   -2.9047   -1.7883    0.0269 C   0  0  0  0  0  0  0  0  0  0  0  0
   -0.5782   -1.0362   -1.4644 O   0  0  0  0  0  0  0  0  0  0  0  0
    0.6930   -1.3638   -0.9366 C   0  0  0  0  0  0  0  0  0  0  0  0
    1.1872   -0.2364    0.0033 C   0  0  0  0  0  0  0  0  0  0  0  0
    5.6400    1.3664   -2.1729 H   0  0  0  0  0  0  0  0  0  0  0  0
    5.2540   -0.2382   -1.4609 H   0  0  0  0  0  0  0  0  0  0  0  0
    4.0234    1.0877   -1.4238 H   0  0  0  0  0  0  0  0  0  0  0  0
    6.7561    1.1036    0.0193 H   0  0  0  0  0  0  0  0  0  0  0  0
    6.0036    3.3741   -0.6390 H   0  0  0  0  0  0  0  0  0  0  0  0
    5.9235    3.1620    1.1419 H   0  0  0  0  0  0  0  0  0  0  0  0
    4.4088    3.1106    0.1583 H   0  0  0  0  0  0  0  0  0  0  0  0
    2.9499    1.4093    0.7905 H   0  0  0  0  0  0  0  0  0  0  0  0
    3.2104   -0.9975   -0.1472 H   0  0  0  0  0  0  0  0  0  0  0  0
    2.5081   -2.7530    1.1927 H   0  0  0  0  0  0  0  0  0  0  0  0
    3.1442   -1.7074    2.4835 H   0  0  0  0  0  0  0  0  0  0  0  0
    1.0870   -2.1240    3.4268 H   0  0  0  0  0  0  0  0  0  0  0  0
    0.2970   -2.4810    1.8650 H   0  0  0  0  0  0  0  0  0  0  0  0
    1.0206    0.3121    2.9402 H   0  0  0  0  0  0  0  0  0  0  0  0
   -0.6134   -0.4341    2.9065 H   0  0  0  0  0  0  0  0  0  0  0  0
   -0.8176    1.8023    1.9307 H   0  0  0  0  0  0  0  0  0  0  0  0
    0.7487    2.1681    1.1441 H   0  0  0  0  0  0  0  0  0  0  0  0
   -0.3084    2.0091   -1.0759 H   0  0  0  0  0  0  0  0  0  0  0  0
   -1.2790    3.0978   -0.0794 H   0  0  0  0  0  0  0  0  0  0  0  0
   -3.1331    3.2028    1.0812 H   0  0  0  0  0  0  0  0  0  0  0  0
   -5.4608    3.3654    1.8099 H   0  0  0  0  0  0  0  0  0  0  0  0
   -7.0796    1.5804    1.2557 H   0  0  0  0  0  0  0  0  0  0  0  0
   -6.3621   -0.4008   -0.0118 H   0  0  0  0  0  0  0  0  0  0  0  0
   -4.7378   -1.6902   -1.0799 H   0  0  0  0  0  0  0  0  0  0  0  0
   -2.7936    0.2467   -2.4306 H   0  0  0  0  0  0  0  0  0  0  0  0
   -4.1695   -0.6462   -3.0600 H   0  0  0  0  0  0  0  0  0  0  0  0
   -2.9329   -2.6955   -3.2162 H   0  0  0  0  0  0  0  0  0  0  0  0
   -1.8408   -1.4082   -3.8127 H   0  0  0  0  0  0  0  0  0  0  0  0
   -0.6291   -2.9570   -2.3361 H   0  0  0  0  0  0  0  0  0  0  0  0
   -1.3211   -3.2611    0.0498 H   0  0  0  0  0  0  0  0  0  0  0  0
   -2.6799   -3.6696   -1.0287 H   0  0  0  0  0  0  0  0  0  0  0  0
   -2.2308   -1.0979    0.5723 H   0  0  0  0  0  0  0  0  0  0  0  0
   -3.5109   -2.2993    0.8068 H   0  0  0  0  0  0  0  0  0  0  0  0
    1.4102   -1.4694   -1.7803 H   0  0  0  0  0  0  0  0  0  0  0  0
    0.6877   -2.3297   -0.3916 H   0  0  0  0  0  0  0  0  0  0  0  0
    1.3994    0.6234   -0.6693 H   0  0  0  0  0  0  0  0  0  0  0  0
  1  2  1  0
  2  3  1  0
  2  4  1  0
  4  5  2  0
  4  6  2  0
  4  7  1  0
  7  8  1  0
  8  9  1  0
  9 10  1  0
 10 11  1  0
 11 12  1  0
 12 13  1  0
 13 14  1  0
 14 15  1  0
 15 16  1  0
 16 17  2  0
 17 18  1  0
 18 19  2  0
 19 20  1  0
 20 21  2  0
 21 22  1  0
 22 23  1  0
 23 24  1  0
 24 25  1  0
 25 26  1  0
 26 27  1  0
 25 28  1  0
 28 29  1  0
 29 30  1  0
 30  8  1  0
 30 12  1  0
 21 16  1  0
 27 22  1  0
  1 31  1  0
  1 32  1  0
  1 33  1  0
  2 34  1  0
  3 35  1  0
  3 36  1  0
  3 37  1  0
  7 38  1  0
  8 39  1  6
  9 40  1  0
  9 41  1  0
 10 42  1  0
 10 43  1  0
 11 44  1  0
 11 45  1  0
 13 46  1  0
 13 47  1  0
 14 48  1  0
 14 49  1  0
 17 50  1  0
 18 51  1  0
 19 52  1  0
 20 53  1  0
 22 54  1  6
 23 55  1  0
 23 56  1  0
 24 57  1  0
 24 58  1  0
 25 59  1  6
 26 60  1  0
 26 61  1  0
 27 62  1  0
 27 63  1  0
 29 64  1  0
 29 65  1  0
 30 66  1  0
M  END
$$$$
