
     RDKit          3D

 70 72  0  0  0  0  0  0  0  0999 V2000
    4.3439    2.2624    2.6200 C   0  0  0  0  0  0  0  0  0  0  0  0
    3.7213    1.7517    1.3144 C   0  0  0  0  0  0  0  0  0  0  0  0
    4.3587    2.4776    0.1181 C   0  0  0  0  0  0  0  0  0  0  0  0
    3.8858    0.2140    1.2099 C   0  0  0  0  0  0  0  0  0  0  0  0
    2.9570   -0.4416    0.1595 C   0  0  2  0  0  0  0  0  0  0  0  0
    1.5605   -0.4031    0.6085 N   0  0  0  0  0  0  0  0  0  0  0  0
    0.5837    0.5272    0.1124 C   0  0  0  0  0  0  0  0  0  0  0  0
    0.0114    1.2804    0.9466 O   0  0  0  0  0  0  0  0  0  0  0  0
    0.1478    0.5380   -1.3517 C   0  0  2  0  0  0  0  0  0  0  0  0
    1.1152    1.3299   -2.2511 C   0  0  0  0  0  0  0  0  0  0  0  0
   -1.2244    1.0729   -1.5104 N   0  0  0  0  0  0  0  0  0  0  0  0
   -1.5258    2.4583   -1.1070 C   0  0  0  0  0  0  0  0  0  0  0  0
   -2.0797    0.4973   -2.5186 C   0  0  0  0  0  0  0  0  0  0  0  0
   -2.1822    1.0844   -3.6303 O   0  0  0  0  0  0  0  0  0  0  0  0
   -2.9092   -0.7555   -2.2922 C   0  0  2  0  0  0  0  0  0  0  0  0
   -4.3815   -0.5050   -1.8330 C   0  0  0  0  0  0  0  0  0  0  0  0
   -4.6153    0.7611   -1.0362 C   0  0  0  0  0  0  0  0  0  0  0  0
   -4.8321    1.9795   -1.7055 C   0  0  0  0  0  0  0  0  0  0  0  0
   -5.0914    3.1491   -0.9825 C   0  0  0  0  0  0  0  0  0  0  0  0
   -5.1411    3.1121    0.4144 C   0  0  0  0  0  0  0  0  0  0  0  0
   -4.9363    1.9059    1.0881 C   0  0  0  0  0  0  0  0  0  0  0  0
   -4.6826    0.7331    0.3679 C   0  0  0  0  0  0  0  0  0  0  0  0
   -2.1936   -1.7880   -1.5147 N   0  0  0  0  0  0  0  0  0  0  0  0
   -2.2432   -1.6327   -0.0578 C   0  0  0  0  0  0  0  0  0  0  0  0
   -1.1498   -2.4504    0.5497 C   0  0  0  0  0  0  0  0  0  0  0  0
   -1.1035   -2.9101    1.8536 C   0  0  0  0  0  0  0  0  0  0  0  0
    0.0981   -3.5803    1.9709 C   0  0  0  0  0  0  0  0  0  0  0  0
    0.7059   -3.4751    0.7324 C   0  0  0  0  0  0  0  0  0  0  0  0
   -0.0586   -2.7996   -0.0924 O   0  0  0  0  0  0  0  0  0  0  0  0
    2.0753   -3.9555    0.3812 C   0  0  0  0  0  0  0  0  0  0  0  0
    3.0633   -2.9477    0.7780 N   0  0  0  0  0  0  0  0  0  0  0  0
    3.6076   -2.9600    2.1357 C   0  0  0  0  0  0  0  0  0  0  0  0
    3.3700   -1.8686   -0.1234 C   0  0  0  0  0  0  0  0  0  0  0  0
    3.9997   -2.1209   -1.1861 O   0  0  0  0  0  0  0  0  0  0  0  0
    5.4334    2.0435    2.6496 H   0  0  0  0  0  0  0  0  0  0  0  0
    3.8524    1.7795    3.4901 H   0  0  0  0  0  0  0  0  0  0  0  0
    4.1979    3.3588    2.7162 H   0  0  0  0  0  0  0  0  0  0  0  0
    2.6421    2.0055    1.3492 H   0  0  0  0  0  0  0  0  0  0  0  0
    3.8240    2.2386   -0.8205 H   0  0  0  0  0  0  0  0  0  0  0  0
    5.4241    2.1901    0.0075 H   0  0  0  0  0  0  0  0  0  0  0  0
    4.2942    3.5747    0.2548 H   0  0  0  0  0  0  0  0  0  0  0  0
    3.6614   -0.2302    2.2040 H   0  0  0  0  0  0  0  0  0  0  0  0
    4.9507   -0.0265    0.9792 H   0  0  0  0  0  0  0  0  0  0  0  0
    3.0644    0.1158   -0.7825 H   0  0  0  0  0  0  0  0  0  0  0  0
    1.3640   -0.8218    1.5464 H   0  0  0  0  0  0  0  0  0  0  0  0
    0.1637   -0.5219   -1.6995 H   0  0  0  0  0  0  0  0  0  0  0  0
    1.9707    0.7000   -2.5616 H   0  0  0  0  0  0  0  0  0  0  0  0
    1.4950    2.2355   -1.7320 H   0  0  0  0  0  0  0  0  0  0  0  0
    0.6009    1.6476   -3.1855 H   0  0  0  0  0  0  0  0  0  0  0  0
   -1.9351    3.0470   -1.9593 H   0  0  0  0  0  0  0  0  0  0  0  0
   -0.6170    2.9911   -0.7524 H   0  0  0  0  0  0  0  0  0  0  0  0
   -2.2704    2.4504   -0.2846 H   0  0  0  0  0  0  0  0  0  0  0  0
   -3.0131   -1.1930   -3.3137 H   0  0  0  0  0  0  0  0  0  0  0  0
   -5.0285   -0.4494   -2.7412 H   0  0  0  0  0  0  0  0  0  0  0  0
   -4.7723   -1.3842   -1.2761 H   0  0  0  0  0  0  0  0  0  0  0  0
   -4.8014    2.0228   -2.7880 H   0  0  0  0  0  0  0  0  0  0  0  0
   -5.2523    4.0849   -1.5051 H   0  0  0  0  0  0  0  0  0  0  0  0
   -5.3448    4.0158    0.9741 H   0  0  0  0  0  0  0  0  0  0  0  0
   -4.9872    1.8774    2.1691 H   0  0  0  0  0  0  0  0  0  0  0  0
   -4.5636   -0.1943    0.9076 H   0  0  0  0  0  0  0  0  0  0  0  0
   -2.6131   -2.7179   -1.7425 H   0  0  0  0  0  0  0  0  0  0  0  0
   -2.1024   -0.5771    0.2412 H   0  0  0  0  0  0  0  0  0  0  0  0
   -3.2121   -2.0013    0.3404 H   0  0  0  0  0  0  0  0  0  0  0  0
   -1.8430   -2.7606    2.6289 H   0  0  0  0  0  0  0  0  0  0  0  0
    0.4963   -4.0576    2.8578 H   0  0  0  0  0  0  0  0  0  0  0  0
    2.2738   -4.9223    0.8939 H   0  0  0  0  0  0  0  0  0  0  0  0
    2.1370   -4.1477   -0.7124 H   0  0  0  0  0  0  0  0  0  0  0  0
    3.7075   -4.0038    2.5092 H   0  0  0  0  0  0  0  0  0  0  0  0
    2.9275   -2.4087    2.8178 H   0  0  0  0  0  0  0  0  0  0  0  0
    4.6207   -2.5018    2.1517 H   0  0  0  0  0  0  0  0  0  0  0  0
  1  2  1  0
  2  3  1  0
  2  4  1  0
  4  5  1  0
  5  6  1  0
  6  7  1  0
  7  8  2  0
  7  9  1  0
  9 10  1  0
  9 11  1  0
 11 12  1  0
 11 13  1  0
 13 14  2  0
 13 15  1  0
 15 16  1  0
 16 17  1  0
 17 18  2  0
 18 19  1  0
 19 20  2  0
 20 21  1  0
 21 22  2  0
 15 23  1  0
 23 24  1  0
 24 25  1  0
 25 26  2  0
 26 27  1  0
 27 28  2  0
 28 29  1  0
 28 30  1  0
 30 31  1  0
 31 32  1  0
 31 33  1  0
 33 34  2  0
 33  5  1  0
 22 17  1  0
 29 25  1  0
  1 35  1  0
  1 36  1  0
  1 37  1  0
  2 38  1  0
  3 39  1  0
  3 40  1  0
  3 41  1  0
  4 42  1  0
  4 43  1  0
  5 44  1  6
  6 45  1  0
  9 46  1  6
 10 47  1  0
 10 48  1  0
 10 49  1  0
 12 50  1  0
 12 51  1  0
 12 52  1  0
 15 53  1  6
 16 54  1  0
 16 55  1  0
 18 56  1  0
 19 57  1  0
 20 58  1  0
 21 59  1  0
 22 60  1  0
 23 61  1  0
 24 62  1  0
 24 63  1  0
 26 64  1  0
 27 65  1  0
 30 66  1  0
 30 67  1  0
 32 68  1  0
 32 69  1  0
 32 70  1  0
M  END
$$$$
