
     RDKit          3D

 85 92  0  0  0  0  0  0  0  0999 V2000
   -0.5826    1.3097   -3.0420 O   0  0  0  0  0  0  0  0  0  0  0  0
   -0.5925    0.1142   -2.2908 C   0  0  1  0  0  0  0  0  0  0  0  0
   -1.1672    0.4549   -0.8336 C   0  0  2  0  0  0  0  0  0  0  0  0
   -1.9912    1.6908   -0.7550 N   0  0  0  0  0  0  0  0  0  0  0  0
   -1.0583    2.8123   -0.5506 C   0  0  1  0  0  0  0  0  0  0  0  0
   -1.5777    3.9114    0.3630 C   0  0  0  0  0  0  0  0  0  0  0  0
   -2.7356    3.9895    1.0525 C   0  0  0  0  0  0  0  0  0  0  0  0
   -3.8723    2.9998    1.0682 C   0  0  0  0  0  0  0  0  0  0  0  0
   -4.7079    3.0434   -0.2202 C   0  0  0  0  0  0  0  0  0  0  0  0
   -4.4242    1.8549   -1.1424 C   0  0  0  0  0  0  0  0  0  0  0  0
   -3.0374    1.9208   -1.7763 C   0  0  0  0  0  0  0  0  0  0  0  0
    0.2369    2.2047    0.0204 C   0  0  0  0  0  0  0  0  0  0  0  0
   -0.0780    0.7147    0.2359 C   0  0  2  0  0  0  0  0  0  0  0  0
    1.1821   -0.1920    0.1227 C   0  0  1  0  0  0  0  0  0  0  0  0
    0.8870   -1.6486    0.5726 C   0  0  0  0  0  0  0  0  0  0  0  0
    0.2143   -1.6969    1.9415 C   0  0  0  0  0  0  0  0  0  0  0  0
   -1.0112   -0.8894    1.8853 N   0  0  0  0  0  0  0  0  0  0  0  0
   -1.9053   -1.1024    3.0391 C   0  0  0  0  0  0  0  0  0  0  0  0
   -3.3537   -1.2813    2.5467 C   0  0  0  0  0  0  0  0  0  0  0  0
   -3.6406   -2.6782    1.9477 C   0  0  0  0  0  0  0  0  0  0  0  0
   -3.1231   -2.8715    0.5099 C   0  0  0  0  0  0  0  0  0  0  0  0
   -3.8910   -2.0432   -0.4953 C   0  0  0  0  0  0  0  0  0  0  0  0
   -3.4560   -1.7383   -1.7353 C   0  0  0  0  0  0  0  0  0  0  0  0
   -2.1079   -2.1207   -2.3162 C   0  0  0  0  0  0  0  0  0  0  0  0
   -1.4553   -0.9520   -3.0901 C   0  0  0  0  0  0  0  0  0  0  0  0
   -0.6703    0.5280    1.6681 C   0  0  0  0  0  0  0  0  0  0  0  0
    1.7283   -0.2358   -1.2751 C   0  0  0  0  0  0  0  0  0  0  0  0
    0.8602   -0.3607   -2.2955 C   0  0  0  0  0  0  0  0  0  0  0  0
    3.1991   -0.1440   -1.5900 C   0  0  0  0  0  0  0  0  0  0  0  0
    3.5369    0.2996   -2.8442 N   0  0  0  0  0  0  0  0  0  0  0  0
    4.8210    0.4713   -3.2762 C   0  0  0  0  0  0  0  0  0  0  0  0
    5.8931    0.1985   -2.4256 C   0  0  0  0  0  0  0  0  0  0  0  0
    5.5854   -0.2464   -1.1484 C   0  0  0  0  0  0  0  0  0  0  0  0
    4.2809   -0.4211   -0.7092 C   0  0  0  0  0  0  0  0  0  0  0  0
    4.2824   -0.8791    0.5713 N   0  0  0  0  0  0  0  0  0  0  0  0
    5.5829   -0.9807    0.9182 C   0  0  0  0  0  0  0  0  0  0  0  0
    6.4113   -0.6012   -0.1095 C   0  0  0  0  0  0  0  0  0  0  0  0
    7.8001   -0.6286    0.0093 C   0  0  0  0  0  0  0  0  0  0  0  0
    8.3422   -1.0604    1.2332 C   0  0  0  0  0  0  0  0  0  0  0  0
    7.4943   -1.4509    2.2939 C   0  0  0  0  0  0  0  0  0  0  0  0
    6.0958   -1.4134    2.1411 C   0  0  0  0  0  0  0  0  0  0  0  0
   -0.3243    1.1050   -3.9804 H   0  0  0  0  0  0  0  0  0  0  0  0
   -1.7740   -0.3794   -0.4688 H   0  0  0  0  0  0  0  0  0  0  0  0
   -0.8111    3.2945   -1.5225 H   0  0  0  0  0  0  0  0  0  0  0  0
   -0.8964    4.7487    0.4894 H   0  0  0  0  0  0  0  0  0  0  0  0
   -2.8697    4.8696    1.6762 H   0  0  0  0  0  0  0  0  0  0  0  0
   -4.5382    3.2868    1.9114 H   0  0  0  0  0  0  0  0  0  0  0  0
   -3.5289    1.9776    1.3090 H   0  0  0  0  0  0  0  0  0  0  0  0
   -5.7841    2.9974    0.0574 H   0  0  0  0  0  0  0  0  0  0  0  0
   -4.5636    4.0014   -0.7680 H   0  0  0  0  0  0  0  0  0  0  0  0
   -5.1813    1.8602   -1.9569 H   0  0  0  0  0  0  0  0  0  0  0  0
   -4.5449    0.8995   -0.5869 H   0  0  0  0  0  0  0  0  0  0  0  0
   -3.0258    1.1556   -2.5607 H   0  0  0  0  0  0  0  0  0  0  0  0
   -2.9145    2.9017   -2.2873 H   0  0  0  0  0  0  0  0  0  0  0  0
    0.5787    2.6972    0.9585 H   0  0  0  0  0  0  0  0  0  0  0  0
    1.0519    2.3304   -0.7263 H   0  0  0  0  0  0  0  0  0  0  0  0
    1.9335    0.2628    0.7983 H   0  0  0  0  0  0  0  0  0  0  0  0
    1.8016   -2.2729    0.5880 H   0  0  0  0  0  0  0  0  0  0  0  0
    0.2165   -2.1346   -0.1587 H   0  0  0  0  0  0  0  0  0  0  0  0
    0.9065   -1.3267    2.7317 H   0  0  0  0  0  0  0  0  0  0  0  0
   -0.0326   -2.7595    2.1607 H   0  0  0  0  0  0  0  0  0  0  0  0
   -1.6135   -1.9949    3.6367 H   0  0  0  0  0  0  0  0  0  0  0  0
   -1.8632   -0.2395    3.7423 H   0  0  0  0  0  0  0  0  0  0  0  0
   -4.0252   -1.1461    3.4225 H   0  0  0  0  0  0  0  0  0  0  0  0
   -3.6124   -0.4842    1.8174 H   0  0  0  0  0  0  0  0  0  0  0  0
   -4.7391   -2.8522    1.9578 H   0  0  0  0  0  0  0  0  0  0  0  0
   -3.1927   -3.4590    2.5997 H   0  0  0  0  0  0  0  0  0  0  0  0
   -2.0469   -2.6451    0.4863 H   0  0  0  0  0  0  0  0  0  0  0  0
   -3.2358   -3.9405    0.2293 H   0  0  0  0  0  0  0  0  0  0  0  0
   -4.8786   -1.6885   -0.2134 H   0  0  0  0  0  0  0  0  0  0  0  0
   -4.1371   -1.1900   -2.3806 H   0  0  0  0  0  0  0  0  0  0  0  0
   -2.2992   -2.9457   -3.0356 H   0  0  0  0  0  0  0  0  0  0  0  0
   -1.3997   -2.5258   -1.5782 H   0  0  0  0  0  0  0  0  0  0  0  0
   -2.2350   -0.4550   -3.7022 H   0  0  0  0  0  0  0  0  0  0  0  0
   -0.8110   -1.4145   -3.8711 H   0  0  0  0  0  0  0  0  0  0  0  0
    0.0595    0.8716    2.4375 H   0  0  0  0  0  0  0  0  0  0  0  0
   -1.5691    1.1577    1.7957 H   0  0  0  0  0  0  0  0  0  0  0  0
    1.2642   -0.5540   -3.2832 H   0  0  0  0  0  0  0  0  0  0  0  0
    5.0058    0.8238   -4.2820 H   0  0  0  0  0  0  0  0  0  0  0  0
    6.9163    0.3287   -2.7532 H   0  0  0  0  0  0  0  0  0  0  0  0
    3.4969   -1.1232    1.2020 H   0  0  0  0  0  0  0  0  0  0  0  0
    8.4423   -0.3294   -0.8088 H   0  0  0  0  0  0  0  0  0  0  0  0
    9.4160   -1.0945    1.3628 H   0  0  0  0  0  0  0  0  0  0  0  0
    7.9235   -1.7830    3.2300 H   0  0  0  0  0  0  0  0  0  0  0  0
    5.4399   -1.7139    2.9480 H   0  0  0  0  0  0  0  0  0  0  0  0
  2  1  1  6
  2  3  1  0
  3  4  1  0
  4  5  1  0
  5  6  1  0
  6  7  2  3
  7  8  1  0
  8  9  1  0
  9 10  1  0
 10 11  1  0
  5 12  1  0
 13 12  1  1
 13 14  1  0
 14 15  1  0
 15 16  1  0
 16 17  1  0
 17 18  1  0
 18 19  1  0
 19 20  1  0
 20 21  1  0
 21 22  1  0
 22 23  2  0
 23 24  1  0
 24 25  1  0
 17 26  1  0
 14 27  1  0
 27 28  2  0
 27 29  1  0
 29 30  2  0
 30 31  1  0
 31 32  2  0
 32 33  1  0
 33 34  2  0
 34 35  1  0
 35 36  1  0
 36 37  2  0
 37 38  1  0
 38 39  2  0
 39 40  1  0
 40 41  2  0
 25  2  1  0
 34 29  1  0
 41 36  1  0
 28  2  1  0
 37 33  1  0
 13  3  1  0
 11  4  1  0
 26 13  1  0
  1 42  1  0
  3 43  1  1
  5 44  1  6
  6 45  1  0
  7 46  1  0
  8 47  1  0
  8 48  1  0
  9 49  1  0
  9 50  1  0
 10 51  1  0
 10 52  1  0
 11 53  1  0
 11 54  1  0
 12 55  1  0
 12 56  1  0
 14 57  1  1
 15 58  1  0
 15 59  1  0
 16 60  1  0
 16 61  1  0
 18 62  1  0
 18 63  1  0
 19 64  1  0
 19 65  1  0
 20 66  1  0
 20 67  1  0
 21 68  1  0
 21 69  1  0
 22 70  1  0
 23 71  1  0
 24 72  1  0
 24 73  1  0
 25 74  1  0
 25 75  1  0
 26 76  1  0
 26 77  1  0
 28 78  1  0
 31 79  1  0
 32 80  1  0
 35 81  1  0
 38 82  1  0
 39 83  1  0
 40 84  1  0
 41 85  1  0
M  END
$$$$
