
     RDKit          3D

124130  0  0  0  0  0  0  0  0999 V2000
    7.0924    3.2527   -3.5456 C   0  0  0  0  0  0  0  0  0  0  0  0
    6.8710    3.8317   -2.1502 C   0  0  0  0  0  0  0  0  0  0  0  0
    5.7570    3.2066   -1.5123 O   0  0  0  0  0  0  0  0  0  0  0  0
    5.7204    1.8954   -1.0091 C   0  0  0  0  0  0  0  0  0  0  0  0
    6.8675    1.0864   -0.9236 C   0  0  0  0  0  0  0  0  0  0  0  0
    6.7717   -0.2229   -0.4421 C   0  0  0  0  0  0  0  0  0  0  0  0
    7.8913   -1.0546   -0.4137 O   0  0  0  0  0  0  0  0  0  0  0  0
    8.8415   -0.9661    0.6026 C   0  0  0  0  0  0  0  0  0  0  0  0
    8.7901   -1.8642    1.6684 C   0  0  0  0  0  0  0  0  0  0  0  0
    9.7526   -1.8177    2.6882 C   0  0  0  0  0  0  0  0  0  0  0  0
    9.6853   -2.8128    3.8137 C   0  0  0  0  0  0  0  0  0  0  0  0
   10.7931   -0.8644    2.6217 C   0  0  0  0  0  0  0  0  0  0  0  0
   12.0430   -0.8307    3.8708 Cl  0  0  0  0  0  0  0  0  0  0  0  0
   10.8345    0.0563    1.5511 C   0  0  0  0  0  0  0  0  0  0  0  0
   11.9421    1.0703    1.4425 C   0  0  0  0  0  0  0  0  0  0  0  0
    9.8607   -0.0111    0.5422 C   0  0  0  0  0  0  0  0  0  0  0  0
    5.5407   -0.7170   -0.0049 C   0  0  0  0  0  0  0  0  0  0  0  0
    4.3932    0.0885   -0.0422 C   0  0  0  0  0  0  0  0  0  0  0  0
    4.4816    1.3889   -0.5864 C   0  0  0  0  0  0  0  0  0  0  0  0
    3.3562    2.2046   -0.7242 O   0  0  0  0  0  0  0  0  0  0  0  0
    2.3062    1.9151   -1.6429 C   0  0  0  0  0  0  0  0  0  0  0  0
    1.8798    3.1875   -2.2981 C   0  0  0  0  0  0  0  0  0  0  0  0
    1.9924    3.3058   -3.5471 O   0  0  0  0  0  0  0  0  0  0  0  0
    1.4661    4.3196   -1.5207 N   0  0  0  0  0  0  0  0  0  0  0  0
    0.2021    4.3891   -0.7757 C   0  0  1  0  0  0  0  0  0  0  0  0
   -0.9931    4.0254   -1.6725 C   0  0  0  0  0  0  0  0  0  0  0  0
   -2.2746    4.0352   -0.8426 C   0  0  0  0  0  0  0  0  0  0  0  0
   -2.2556    2.9700    0.2954 C   0  0  2  0  0  0  0  0  0  0  0  0
   -0.8213    2.4735    0.6316 C   0  0  0  0  0  0  0  0  0  0  0  0
    0.2414    3.5838    0.5516 C   0  0  0  0  0  0  0  0  0  0  0  0
   -3.1839    1.7667   -0.0334 C   0  0  0  0  0  0  0  0  0  0  0  0
   -3.8650    1.2113    1.1944 C   0  0  0  0  0  0  0  0  0  0  0  0
   -3.1564    0.8958    2.1883 O   0  0  0  0  0  0  0  0  0  0  0  0
   -5.2916    1.0078    1.2742 N   0  0  0  0  0  0  0  0  0  0  0  0
   -6.2240    0.8657    0.1430 C   0  0  1  0  0  0  0  0  0  0  0  0
   -6.4736    2.1746   -0.5922 C   0  0  0  0  0  0  0  0  0  0  0  0
   -7.0632    2.1669   -1.8734 C   0  0  0  0  0  0  0  0  0  0  0  0
   -7.3268    3.3635   -2.5443 C   0  0  0  0  0  0  0  0  0  0  0  0
   -7.0385    4.5861   -1.9342 C   0  0  0  0  0  0  0  0  0  0  0  0
   -6.4937    4.6120   -0.6484 C   0  0  0  0  0  0  0  0  0  0  0  0
   -6.2312    3.4187    0.0278 C   0  0  0  0  0  0  0  0  0  0  0  0
   -5.7745   -0.2681   -0.7498 C   0  0  0  0  0  0  0  0  0  0  0  0
   -4.8877   -0.0902   -1.6261 O   0  0  0  0  0  0  0  0  0  0  0  0
   -6.3422   -1.5711   -0.5823 N   0  0  0  0  0  0  0  0  0  0  0  0
   -5.6109   -2.7040    0.0034 C   0  0  2  0  0  0  0  0  0  0  0  0
   -5.8463   -2.7755    1.5238 C   0  0  0  0  0  0  0  0  0  0  0  0
   -7.2986   -3.0167    1.8472 C   0  0  0  0  0  0  0  0  0  0  0  0
   -7.8719   -4.2821    1.6488 C   0  0  0  0  0  0  0  0  0  0  0  0
   -9.2289   -4.4810    1.9051 C   0  0  0  0  0  0  0  0  0  0  0  0
  -10.0037   -3.4105    2.3567 C   0  0  0  0  0  0  0  0  0  0  0  0
   -9.4347   -2.1898    2.5472 N   0  0  0  0  0  0  0  0  0  0  0  0
   -8.1145   -1.9717    2.3072 C   0  0  0  0  0  0  0  0  0  0  0  0
   -4.1317   -2.6527   -0.2908 C   0  0  0  0  0  0  0  0  0  0  0  0
   -3.3888   -1.8485    0.3327 O   0  0  0  0  0  0  0  0  0  0  0  0
   -3.5611   -3.5240   -1.2727 N   0  0  0  0  0  0  0  0  0  0  0  0
   -3.0179   -4.8388   -0.9095 C   0  0  2  0  0  0  0  0  0  0  0  0
   -4.1524   -5.7772   -0.5861 C   0  0  0  0  0  0  0  0  0  0  0  0
   -4.9657   -6.1058   -1.4949 O   0  0  0  0  0  0  0  0  0  0  0  0
   -4.3557   -6.2355    0.7155 O   0  0  0  0  0  0  0  0  0  0  0  0
   -1.9973   -4.7550    0.2512 C   0  0  0  0  0  0  0  0  0  0  0  0
   -0.8645   -3.7819    0.0046 C   0  0  0  0  0  0  0  0  0  0  0  0
   -0.5009   -2.8653    1.0106 C   0  0  0  0  0  0  0  0  0  0  0  0
    0.5932   -2.0164    0.8353 C   0  0  0  0  0  0  0  0  0  0  0  0
    1.3767   -2.0979   -0.3299 C   0  0  0  0  0  0  0  0  0  0  0  0
    1.0279   -3.0198   -1.3223 C   0  0  0  0  0  0  0  0  0  0  0  0
   -0.0717   -3.8676   -1.1520 C   0  0  0  0  0  0  0  0  0  0  0  0
    2.5111   -1.2999   -0.5292 O   0  0  0  0  0  0  0  0  0  0  0  0
    3.0966   -0.4713    0.4724 C   0  0  0  0  0  0  0  0  0  0  0  0
    6.1210    3.1445   -4.0699 H   0  0  0  0  0  0  0  0  0  0  0  0
    7.7438    3.9372   -4.1301 H   0  0  0  0  0  0  0  0  0  0  0  0
    7.5903    2.2664   -3.4805 H   0  0  0  0  0  0  0  0  0  0  0  0
    6.6410    4.9141   -2.2527 H   0  0  0  0  0  0  0  0  0  0  0  0
    7.7869    3.7413   -1.5294 H   0  0  0  0  0  0  0  0  0  0  0  0
    7.8311    1.4508   -1.2471 H   0  0  0  0  0  0  0  0  0  0  0  0
    7.9975   -2.6025    1.6956 H   0  0  0  0  0  0  0  0  0  0  0  0
    8.7467   -3.4068    3.7807 H   0  0  0  0  0  0  0  0  0  0  0  0
    9.7188   -2.2806    4.7891 H   0  0  0  0  0  0  0  0  0  0  0  0
   10.5469   -3.5121    3.7457 H   0  0  0  0  0  0  0  0  0  0  0  0
   12.0658    1.6085    2.4048 H   0  0  0  0  0  0  0  0  0  0  0  0
   11.7256    1.8288    0.6586 H   0  0  0  0  0  0  0  0  0  0  0  0
   12.8923    0.5561    1.1845 H   0  0  0  0  0  0  0  0  0  0  0  0
    9.9031    0.6656   -0.3021 H   0  0  0  0  0  0  0  0  0  0  0  0
    5.4825   -1.7306    0.3747 H   0  0  0  0  0  0  0  0  0  0  0  0
    1.4547    1.4519   -1.1126 H   0  0  0  0  0  0  0  0  0  0  0  0
    2.6553    1.1942   -2.4169 H   0  0  0  0  0  0  0  0  0  0  0  0
    1.9389    5.2254   -1.7271 H   0  0  0  0  0  0  0  0  0  0  0  0
    0.0562    5.4570   -0.4908 H   0  0  0  0  0  0  0  0  0  0  0  0
   -0.8597    3.0234   -2.1309 H   0  0  0  0  0  0  0  0  0  0  0  0
   -1.0792    4.7678   -2.4928 H   0  0  0  0  0  0  0  0  0  0  0  0
   -3.1441    3.9241   -1.5236 H   0  0  0  0  0  0  0  0  0  0  0  0
   -2.3865    5.0438   -0.3888 H   0  0  0  0  0  0  0  0  0  0  0  0
   -2.6532    3.4787    1.2022 H   0  0  0  0  0  0  0  0  0  0  0  0
   -0.5272    1.6636   -0.0663 H   0  0  0  0  0  0  0  0  0  0  0  0
   -0.8085    2.0387    1.6521 H   0  0  0  0  0  0  0  0  0  0  0  0
    0.0720    4.2785    1.4009 H   0  0  0  0  0  0  0  0  0  0  0  0
    1.2449    3.1398    0.7109 H   0  0  0  0  0  0  0  0  0  0  0  0
   -2.6180    0.9474   -0.5265 H   0  0  0  0  0  0  0  0  0  0  0  0
   -3.9452    2.0721   -0.7651 H   0  0  0  0  0  0  0  0  0  0  0  0
   -5.6808    0.8025    2.2219 H   0  0  0  0  0  0  0  0  0  0  0  0
   -7.2147    0.5790    0.5590 H   0  0  0  0  0  0  0  0  0  0  0  0
   -7.3138    1.2335   -2.3612 H   0  0  0  0  0  0  0  0  0  0  0  0
   -7.7622    3.3439   -3.5347 H   0  0  0  0  0  0  0  0  0  0  0  0
   -7.2427    5.5139   -2.4553 H   0  0  0  0  0  0  0  0  0  0  0  0
   -6.2826    5.5609   -0.1712 H   0  0  0  0  0  0  0  0  0  0  0  0
   -5.8259    3.4715    1.0295 H   0  0  0  0  0  0  0  0  0  0  0  0
   -7.3845   -1.6307   -0.5781 H   0  0  0  0  0  0  0  0  0  0  0  0
   -6.0121   -3.6358   -0.4506 H   0  0  0  0  0  0  0  0  0  0  0  0
   -5.4945   -1.8362    2.0059 H   0  0  0  0  0  0  0  0  0  0  0  0
   -5.2446   -3.6089    1.9511 H   0  0  0  0  0  0  0  0  0  0  0  0
   -7.2701   -5.1074    1.2878 H   0  0  0  0  0  0  0  0  0  0  0  0
   -9.6778   -5.4526    1.7491 H   0  0  0  0  0  0  0  0  0  0  0  0
  -11.0583   -3.5495    2.5555 H   0  0  0  0  0  0  0  0  0  0  0  0
   -7.7056   -0.9831    2.4634 H   0  0  0  0  0  0  0  0  0  0  0  0
   -3.9230   -3.4194   -2.2465 H   0  0  0  0  0  0  0  0  0  0  0  0
   -2.5009   -5.2548   -1.7992 H   0  0  0  0  0  0  0  0  0  0  0  0
   -5.1500   -6.8197    0.9381 H   0  0  0  0  0  0  0  0  0  0  0  0
   -1.5581   -5.7624    0.4171 H   0  0  0  0  0  0  0  0  0  0  0  0
   -2.5332   -4.4758    1.1860 H   0  0  0  0  0  0  0  0  0  0  0  0
   -1.0736   -2.7982    1.9268 H   0  0  0  0  0  0  0  0  0  0  0  0
    0.8329   -1.3139    1.6225 H   0  0  0  0  0  0  0  0  0  0  0  0
    1.6241   -3.0970   -2.2213 H   0  0  0  0  0  0  0  0  0  0  0  0
   -0.3003   -4.5883   -1.9285 H   0  0  0  0  0  0  0  0  0  0  0  0
    3.2980   -1.0755    1.3833 H   0  0  0  0  0  0  0  0  0  0  0  0
    2.3951    0.3410    0.7592 H   0  0  0  0  0  0  0  0  0  0  0  0
  1  2  1  0
  2  3  1  0
  3  4  1  0
  4  5  2  0
  5  6  1  0
  6  7  1  0
  7  8  1  0
  8  9  2  0
  9 10  1  0
 10 11  1  0
 10 12  2  0
 12 13  1  0
 12 14  1  0
 14 15  1  0
 14 16  2  0
  6 17  2  0
 17 18  1  0
 18 19  2  0
 19 20  1  0
 20 21  1  0
 21 22  1  0
 22 23  2  0
 22 24  1  0
 24 25  1  0
 25 26  1  0
 26 27  1  0
 27 28  1  0
 28 29  1  0
 29 30  1  0
 28 31  1  0
 31 32  1  0
 32 33  2  0
 32 34  1  0
 34 35  1  0
 35 36  1  0
 36 37  2  0
 37 38  1  0
 38 39  2  0
 39 40  1  0
 40 41  2  0
 35 42  1  0
 42 43  2  0
 42 44  1  0
 44 45  1  0
 45 46  1  0
 46 47  1  0
 47 48  2  0
 48 49  1  0
 49 50  2  0
 50 51  1  0
 51 52  2  0
 45 53  1  0
 53 54  2  0
 53 55  1  0
 55 56  1  0
 56 57  1  0
 57 58  2  0
 57 59  1  0
 56 60  1  0
 60 61  1  0
 61 62  2  0
 62 63  1  0
 63 64  2  0
 64 65  1  0
 65 66  2  0
 64 67  1  0
 67 68  1  0
 19  4  1  0
 30 25  1  0
 41 36  1  0
 52 47  1  0
 66 61  1  0
 16  8  1  0
 68 18  1  0
  1 69  1  0
  1 70  1  0
  1 71  1  0
  2 72  1  0
  2 73  1  0
  5 74  1  0
  9 75  1  0
 11 76  1  0
 11 77  1  0
 11 78  1  0
 15 79  1  0
 15 80  1  0
 15 81  1  0
 16 82  1  0
 17 83  1  0
 21 84  1  0
 21 85  1  0
 24 86  1  0
 25 87  1  1
 26 88  1  0
 26 89  1  0
 27 90  1  0
 27 91  1  0
 28 92  1  1
 29 93  1  0
 29 94  1  0
 30 95  1  0
 30 96  1  0
 31 97  1  0
 31 98  1  0
 34 99  1  0
 35100  1  1
 37101  1  0
 38102  1  0
 39103  1  0
 40104  1  0
 41105  1  0
 44106  1  0
 45107  1  6
 46108  1  0
 46109  1  0
 48110  1  0
 49111  1  0
 50112  1  0
 52113  1  0
 55114  1  0
 56115  1  6
 59116  1  0
 60117  1  0
 60118  1  0
 62119  1  0
 63120  1  0
 65121  1  0
 66122  1  0
 68123  1  0
 68124  1  0
M  END
$$$$
