
     RDKit          3D

125131  0  0  0  0  0  0  0  0999 V2000
    8.4875    1.4257    1.7195 C   0  0  0  0  0  0  0  0  0  0  0  0
    7.2053    0.7555    1.3464 C   0  0  0  0  0  0  0  0  0  0  0  0
    6.7686   -0.1912    2.0562 O   0  0  0  0  0  0  0  0  0  0  0  0
    6.4621    1.2111    0.2092 N   0  0  0  0  0  0  0  0  0  0  0  0
    5.3458    0.4476   -0.3734 C   0  0  1  0  0  0  0  0  0  0  0  0
    4.1016    1.3392   -0.5345 C   0  0  0  0  0  0  0  0  0  0  0  0
    3.6104    1.7888    0.8187 C   0  0  0  0  0  0  0  0  0  0  0  0
    2.7945    1.0622    1.4401 O   0  0  0  0  0  0  0  0  0  0  0  0
    4.1249    2.9629    1.4587 N   0  0  0  0  0  0  0  0  0  0  0  0
    4.4905    4.1741    0.7280 C   0  0  0  0  0  0  0  0  0  0  0  0
    3.2627    4.7925    0.0703 C   0  0  0  0  0  0  0  0  0  0  0  0
    2.0268    5.2411    1.3308 S   0  0  0  0  0  0  0  0  0  0  0  0
    0.6740    5.4709    0.1746 C   0  0  0  0  0  0  0  0  0  0  0  0
   -0.2688    4.5750   -0.0700 C   0  0  0  0  0  0  0  0  0  0  0  0
   -0.1392    3.1839    0.2640 N   0  0  0  0  0  0  0  0  0  0  0  0
    0.1529    2.1904   -0.6009 C   0  0  0  0  0  0  0  0  0  0  0  0
    0.0240    0.9666   -0.0476 N   0  0  0  0  0  0  0  0  0  0  0  0
   -0.3444    1.2222    1.2281 C   0  0  0  0  0  0  0  0  0  0  0  0
   -0.4323    2.5845    1.4306 C   0  0  0  0  0  0  0  0  0  0  0  0
   -0.7524    0.1731    2.2370 C   0  0  0  0  0  0  0  0  0  0  0  0
   -0.4569   -1.2964    1.8538 C   0  0  2  0  0  0  0  0  0  0  0  0
    0.9960   -1.5409    1.7974 N   0  0  0  0  0  0  0  0  0  0  0  0
    1.7133   -1.9855    0.6401 C   0  0  0  0  0  0  0  0  0  0  0  0
    1.6029   -1.3415   -0.4391 O   0  0  0  0  0  0  0  0  0  0  0  0
    2.6037   -3.2105    0.6698 C   0  0  2  0  0  0  0  0  0  0  0  0
    2.0903   -4.3580    1.5728 C   0  0  0  0  0  0  0  0  0  0  0  0
    2.1826   -4.1152    3.0584 C   0  0  0  0  0  0  0  0  0  0  0  0
    1.0000   -3.9509    3.8421 N   0  0  0  0  0  0  0  0  0  0  0  0
    3.3058   -4.1361    3.6325 O   0  0  0  0  0  0  0  0  0  0  0  0
    3.9881   -2.8524    0.9756 N   0  0  0  0  0  0  0  0  0  0  0  0
    5.0243   -2.8403   -0.0139 C   0  0  0  0  0  0  0  0  0  0  0  0
    6.2028   -3.1110    0.3301 O   0  0  0  0  0  0  0  0  0  0  0  0
    4.7377   -2.4581   -1.4474 C   0  0  2  0  0  0  0  0  0  0  0  0
    4.8022   -3.6866   -2.3666 C   0  0  0  0  0  0  0  0  0  0  0  0
    6.1691   -3.6155   -3.0440 C   0  0  0  0  0  0  0  0  0  0  0  0
    6.5494   -2.1440   -3.0275 C   0  0  0  0  0  0  0  0  0  0  0  0
    5.7452   -1.5407   -1.9728 N   0  0  0  0  0  0  0  0  0  0  0  0
    5.7786   -0.1276   -1.7061 C   0  0  0  0  0  0  0  0  0  0  0  0
    6.2403    0.6567   -2.5823 O   0  0  0  0  0  0  0  0  0  0  0  0
   -1.2302   -1.8101    0.6503 C   0  0  0  0  0  0  0  0  0  0  0  0
   -0.8265   -2.8387    0.0331 O   0  0  0  0  0  0  0  0  0  0  0  0
   -2.4900   -1.2281    0.2882 N   0  0  0  0  0  0  0  0  0  0  0  0
   -3.7632   -1.9662    0.2079 C   0  0  1  0  0  0  0  0  0  0  0  0
   -3.6879   -3.3968    0.7983 C   0  0  0  0  0  0  0  0  0  0  0  0
   -5.0157   -4.1140    0.7117 C   0  0  0  0  0  0  0  0  0  0  0  0
   -5.4881   -4.5734   -0.5309 C   0  0  0  0  0  0  0  0  0  0  0  0
   -6.7266   -5.2175   -0.6173 C   0  0  0  0  0  0  0  0  0  0  0  0
   -7.5020   -5.4086    0.5289 C   0  0  0  0  0  0  0  0  0  0  0  0
   -7.0406   -4.9505    1.7643 C   0  0  0  0  0  0  0  0  0  0  0  0
   -5.8009   -4.3088    1.8609 C   0  0  0  0  0  0  0  0  0  0  0  0
   -4.8156   -1.1407    0.9221 C   0  0  0  0  0  0  0  0  0  0  0  0
   -4.8492   -1.1674    2.1800 O   0  0  0  0  0  0  0  0  0  0  0  0
   -5.7331   -0.2712    0.2309 N   0  0  0  0  0  0  0  0  0  0  0  0
   -5.6658    0.0920   -1.1934 C   0  0  1  0  0  0  0  0  0  0  0  0
   -6.8758   -0.5016   -1.9563 C   0  0  1  0  0  0  0  0  0  0  0  0
   -8.2228    0.1190   -1.5420 C   0  0  0  0  0  0  0  0  0  0  0  0
   -6.6838   -0.3478   -3.3418 O   0  0  0  0  0  0  0  0  0  0  0  0
   -5.5052    1.5859   -1.3619 C   0  0  0  0  0  0  0  0  0  0  0  0
   -5.8306    2.1404   -2.4537 O   0  0  0  0  0  0  0  0  0  0  0  0
   -4.8023    2.3435   -0.3650 N   0  0  0  0  0  0  0  0  0  0  0  0
   -4.0251    3.5446   -0.6998 C   0  0  1  0  0  0  0  0  0  0  0  0
   -3.5297    4.2163    0.5700 C   0  0  0  0  0  0  0  0  0  0  0  0
   -2.7259    5.7930    0.1872 S   0  0  0  0  0  0  0  0  0  0  0  0
   -1.3776    5.1584   -0.9031 C   0  0  2  0  0  0  0  0  0  0  0  0
   -1.8688    4.1946   -1.8977 N   0  0  0  0  0  0  0  0  0  0  0  0
   -2.8649    3.2142   -1.6049 C   0  0  0  0  0  0  0  0  0  0  0  0
   -2.7913    2.0847   -2.1571 O   0  0  0  0  0  0  0  0  0  0  0  0
   -0.6704    6.3681   -1.5545 C   0  0  0  0  0  0  0  0  0  0  0  0
   -1.5404    7.4119   -1.8117 F   0  0  0  0  0  0  0  0  0  0  0  0
   -0.0491    5.9977   -2.7389 F   0  0  0  0  0  0  0  0  0  0  0  0
    0.4054    6.7609   -0.5263 C   0  0  0  0  0  0  0  0  0  0  0  0
    1.5384    7.2410   -1.1496 F   0  0  0  0  0  0  0  0  0  0  0  0
   -0.0783    7.7031    0.3642 F   0  0  0  0  0  0  0  0  0  0  0  0
    9.1633    1.4631    0.8349 H   0  0  0  0  0  0  0  0  0  0  0  0
    8.2794    2.4648    2.0645 H   0  0  0  0  0  0  0  0  0  0  0  0
    8.9945    0.8691    2.5300 H   0  0  0  0  0  0  0  0  0  0  0  0
    6.8132    2.0489   -0.3107 H   0  0  0  0  0  0  0  0  0  0  0  0
    5.0693   -0.3648    0.3167 H   0  0  0  0  0  0  0  0  0  0  0  0
    3.3027    0.7517   -1.0331 H   0  0  0  0  0  0  0  0  0  0  0  0
    4.3310    2.2042   -1.1912 H   0  0  0  0  0  0  0  0  0  0  0  0
    4.0985    3.0073    2.5021 H   0  0  0  0  0  0  0  0  0  0  0  0
    5.2702    3.9536   -0.0301 H   0  0  0  0  0  0  0  0  0  0  0  0
    4.9286    4.9121    1.4380 H   0  0  0  0  0  0  0  0  0  0  0  0
    2.8267    4.0929   -0.6665 H   0  0  0  0  0  0  0  0  0  0  0  0
    3.5693    5.7103   -0.4652 H   0  0  0  0  0  0  0  0  0  0  0  0
    0.4229    2.3412   -1.6391 H   0  0  0  0  0  0  0  0  0  0  0  0
   -0.7637    3.0928    2.3191 H   0  0  0  0  0  0  0  0  0  0  0  0
   -1.8398    0.2857    2.4346 H   0  0  0  0  0  0  0  0  0  0  0  0
   -0.2361    0.4040    3.1972 H   0  0  0  0  0  0  0  0  0  0  0  0
   -0.8460   -1.8945    2.7050 H   0  0  0  0  0  0  0  0  0  0  0  0
    1.5370   -1.4218    2.6838 H   0  0  0  0  0  0  0  0  0  0  0  0
    2.5668   -3.6487   -0.3526 H   0  0  0  0  0  0  0  0  0  0  0  0
    2.6768   -5.2762    1.3459 H   0  0  0  0  0  0  0  0  0  0  0  0
    1.0384   -4.5881    1.3058 H   0  0  0  0  0  0  0  0  0  0  0  0
    0.0544   -4.0295    3.4030 H   0  0  0  0  0  0  0  0  0  0  0  0
    1.0640   -3.8559    4.8755 H   0  0  0  0  0  0  0  0  0  0  0  0
    4.2447   -2.5584    1.9487 H   0  0  0  0  0  0  0  0  0  0  0  0
    3.7360   -1.9844   -1.5474 H   0  0  0  0  0  0  0  0  0  0  0  0
    4.0122   -3.6078   -3.1395 H   0  0  0  0  0  0  0  0  0  0  0  0
    4.6733   -4.6523   -1.8235 H   0  0  0  0  0  0  0  0  0  0  0  0
    6.1290   -4.0140   -4.0832 H   0  0  0  0  0  0  0  0  0  0  0  0
    6.9049   -4.1984   -2.4514 H   0  0  0  0  0  0  0  0  0  0  0  0
    7.6373   -2.0177   -2.8044 H   0  0  0  0  0  0  0  0  0  0  0  0
    6.2962   -1.6744   -4.0001 H   0  0  0  0  0  0  0  0  0  0  0  0
   -2.5214   -0.2011    0.1054 H   0  0  0  0  0  0  0  0  0  0  0  0
   -4.0243   -2.1041   -0.8622 H   0  0  0  0  0  0  0  0  0  0  0  0
   -3.3275   -3.3650    1.8513 H   0  0  0  0  0  0  0  0  0  0  0  0
   -2.9593   -4.0038    0.2274 H   0  0  0  0  0  0  0  0  0  0  0  0
   -4.8985   -4.4366   -1.4363 H   0  0  0  0  0  0  0  0  0  0  0  0
   -7.0812   -5.5696   -1.5789 H   0  0  0  0  0  0  0  0  0  0  0  0
   -8.4508   -5.9094    0.4572 H   0  0  0  0  0  0  0  0  0  0  0  0
   -7.6338   -5.1046    2.6553 H   0  0  0  0  0  0  0  0  0  0  0  0
   -5.4538   -3.9604    2.8234 H   0  0  0  0  0  0  0  0  0  0  0  0
   -6.5104    0.1420    0.7903 H   0  0  0  0  0  0  0  0  0  0  0  0
   -4.7492   -0.3134   -1.6521 H   0  0  0  0  0  0  0  0  0  0  0  0
   -6.9044   -1.5926   -1.7139 H   0  0  0  0  0  0  0  0  0  0  0  0
   -9.0453   -0.3848   -2.0892 H   0  0  0  0  0  0  0  0  0  0  0  0
   -8.3983   -0.0145   -0.4487 H   0  0  0  0  0  0  0  0  0  0  0  0
   -8.2474    1.2040   -1.7937 H   0  0  0  0  0  0  0  0  0  0  0  0
   -7.2536   -1.0276   -3.7859 H   0  0  0  0  0  0  0  0  0  0  0  0
   -5.0099    2.1325    0.6464 H   0  0  0  0  0  0  0  0  0  0  0  0
   -4.6962    4.2520   -1.2387 H   0  0  0  0  0  0  0  0  0  0  0  0
   -2.8479    3.5571    1.1282 H   0  0  0  0  0  0  0  0  0  0  0  0
   -4.3988    4.4333    1.2276 H   0  0  0  0  0  0  0  0  0  0  0  0
   -1.2796    4.0026   -2.7373 H   0  0  0  0  0  0  0  0  0  0  0  0
  1  2  1  0
  2  3  2  0
  2  4  1  0
  4  5  1  0
  5  6  1  0
  6  7  1  0
  7  8  2  0
  7  9  1  0
  9 10  1  0
 10 11  1  0
 11 12  1  0
 12 13  1  0
 13 14  2  0
 14 15  1  0
 15 16  1  0
 16 17  2  0
 17 18  1  0
 18 19  2  0
 18 20  1  0
 20 21  1  0
 21 22  1  0
 22 23  1  0
 23 24  2  0
 23 25  1  0
 25 26  1  0
 26 27  1  0
 27 28  1  0
 27 29  2  0
 25 30  1  0
 30 31  1  0
 31 32  2  0
 31 33  1  0
 33 34  1  0
 34 35  1  0
 35 36  1  0
 36 37  1  0
 37 38  1  0
 38 39  2  0
 21 40  1  0
 40 41  2  0
 40 42  1  0
 42 43  1  0
 43 44  1  0
 44 45  1  0
 45 46  2  0
 46 47  1  0
 47 48  2  0
 48 49  1  0
 49 50  2  0
 43 51  1  0
 51 52  2  0
 51 53  1  0
 53 54  1  0
 54 55  1  0
 55 56  1  0
 55 57  1  0
 54 58  1  0
 58 59  2  0
 58 60  1  0
 60 61  1  0
 61 62  1  0
 62 63  1  0
 63 64  1  0
 64 65  1  0
 65 66  1  0
 66 67  2  0
 64 68  1  6
 68 69  1  0
 68 70  1  0
 68 71  1  0
 71 72  1  0
 71 73  1  0
 38  5  1  0
 50 45  1  0
 66 61  1  0
 71 13  1  0
 64 14  1  0
 19 15  1  0
 37 33  1  0
  1 74  1  0
  1 75  1  0
  1 76  1  0
  4 77  1  0
  5 78  1  1
  6 79  1  0
  6 80  1  0
  9 81  1  0
 10 82  1  0
 10 83  1  0
 11 84  1  0
 11 85  1  0
 16 86  1  0
 19 87  1  0
 20 88  1  0
 20 89  1  0
 21 90  1  1
 22 91  1  0
 25 92  1  6
 26 93  1  0
 26 94  1  0
 28 95  1  0
 28 96  1  0
 30 97  1  0
 33 98  1  1
 34 99  1  0
 34100  1  0
 35101  1  0
 35102  1  0
 36103  1  0
 36104  1  0
 42105  1  0
 43106  1  6
 44107  1  0
 44108  1  0
 46109  1  0
 47110  1  0
 48111  1  0
 49112  1  0
 50113  1  0
 53114  1  0
 54115  1  6
 55116  1  6
 56117  1  0
 56118  1  0
 56119  1  0
 57120  1  0
 60121  1  0
 61122  1  6
 62123  1  0
 62124  1  0
 65125  1  0
M  END
$$$$
