
     RDKit          3D

 57 60  0  0  0  0  0  0  0  0999 V2000
   -0.1072   -3.2187    0.7894 O   0  0  0  0  0  0  0  0  0  0  0  0
   -0.0488   -1.9666    0.9300 C   0  0  0  0  0  0  0  0  0  0  0  0
   -1.0213   -1.3179    1.8714 C   0  0  0  0  0  0  0  0  0  0  0  0
   -2.0391   -0.6516    1.1325 O   0  0  0  0  0  0  0  0  0  0  0  0
   -3.1966   -1.2683    0.6489 C   0  0  0  0  0  0  0  0  0  0  0  0
   -3.4043   -2.5964    0.8692 N   0  0  0  0  0  0  0  0  0  0  0  0
   -4.5231   -3.2265    0.4322 C   0  0  0  0  0  0  0  0  0  0  0  0
   -5.4873   -2.5015   -0.2609 C   0  0  0  0  0  0  0  0  0  0  0  0
   -5.2872   -1.1792   -0.4925 N   0  0  0  0  0  0  0  0  0  0  0  0
   -4.1752   -0.5249   -0.0536 C   0  0  0  0  0  0  0  0  0  0  0  0
   -4.0207    0.9404   -0.4430 C   0  0  1  0  0  0  0  0  0  0  0  0
   -3.5212    1.8718    0.7001 C   0  0  0  0  0  0  0  0  0  0  0  0
   -2.3831    2.8106    0.2668 C   0  0  0  0  0  0  0  0  0  0  0  0
   -1.2236    2.0810   -0.4437 C   0  0  2  0  0  0  0  0  0  0  0  0
   -1.7071    1.0728   -1.5230 C   0  0  0  0  0  0  0  0  0  0  0  0
   -3.2202    1.0912   -1.7545 C   0  0  0  0  0  0  0  0  0  0  0  0
   -0.4298    1.4115    0.5231 O   0  0  0  0  0  0  0  0  0  0  0  0
    0.9089    1.2822    0.0802 C   0  0  0  0  0  0  0  0  0  0  0  0
    1.5523    0.0168    0.6776 C   0  0  0  0  0  0  0  0  0  0  0  0
    3.0876   -0.0034    0.3628 C   0  0  1  0  0  0  0  0  0  0  0  0
    3.8640    0.7825    1.3467 N   0  0  0  0  0  0  0  0  0  0  0  0
    4.9731    1.8805    0.5715 S   0  0  0  0  0  6  0  0  0  0  0  0
    5.6026    2.7507    1.6229 O   0  0  0  0  0  0  0  0  0  0  0  0
    4.2332    2.7556   -0.4024 O   0  0  0  0  0  0  0  0  0  0  0  0
    6.2669    0.9982   -0.2826 C   0  0  0  0  0  0  0  0  0  0  0  0
    5.7496    0.3535   -1.3901 F   0  0  0  0  0  0  0  0  0  0  0  0
    6.8348    0.0702    0.5693 F   0  0  0  0  0  0  0  0  0  0  0  0
    7.2376    1.8921   -0.6934 F   0  0  0  0  0  0  0  0  0  0  0  0
    3.5947   -1.4572    0.3686 C   0  0  0  0  0  0  0  0  0  0  0  0
    2.9135   -2.3036   -0.7273 C   0  0  0  0  0  0  0  0  0  0  0  0
    1.4913   -1.8160   -1.0492 C   0  0  0  0  0  0  0  0  0  0  0  0
    0.8931   -1.1985    0.1421 N   0  0  0  0  0  0  0  0  0  0  0  0
   -1.4680   -2.0719    2.5561 H   0  0  0  0  0  0  0  0  0  0  0  0
   -0.5125   -0.5800    2.5194 H   0  0  0  0  0  0  0  0  0  0  0  0
   -4.6609   -4.2824    0.6229 H   0  0  0  0  0  0  0  0  0  0  0  0
   -6.3851   -2.9857   -0.6209 H   0  0  0  0  0  0  0  0  0  0  0  0
   -5.0467    1.2971   -0.6926 H   0  0  0  0  0  0  0  0  0  0  0  0
   -4.3690    2.5077    1.0388 H   0  0  0  0  0  0  0  0  0  0  0  0
   -3.2158    1.3175    1.6075 H   0  0  0  0  0  0  0  0  0  0  0  0
   -1.9928    3.3513    1.1564 H   0  0  0  0  0  0  0  0  0  0  0  0
   -2.8007    3.5802   -0.4198 H   0  0  0  0  0  0  0  0  0  0  0  0
   -0.6391    2.8900   -0.9475 H   0  0  0  0  0  0  0  0  0  0  0  0
   -1.2022    1.3027   -2.4866 H   0  0  0  0  0  0  0  0  0  0  0  0
   -1.4020    0.0386   -1.2573 H   0  0  0  0  0  0  0  0  0  0  0  0
   -3.4917    2.0556   -2.2387 H   0  0  0  0  0  0  0  0  0  0  0  0
   -3.4957    0.2865   -2.4715 H   0  0  0  0  0  0  0  0  0  0  0  0
    1.4736    2.1789    0.4154 H   0  0  0  0  0  0  0  0  0  0  0  0
    0.9966    1.2198   -1.0306 H   0  0  0  0  0  0  0  0  0  0  0  0
    1.4429    0.0377    1.7817 H   0  0  0  0  0  0  0  0  0  0  0  0
    3.2381    0.3857   -0.6703 H   0  0  0  0  0  0  0  0  0  0  0  0
    3.2371    1.3803    1.9320 H   0  0  0  0  0  0  0  0  0  0  0  0
    3.3861   -1.9087    1.3641 H   0  0  0  0  0  0  0  0  0  0  0  0
    4.6938   -1.4855    0.2172 H   0  0  0  0  0  0  0  0  0  0  0  0
    2.8742   -3.3621   -0.3901 H   0  0  0  0  0  0  0  0  0  0  0  0
    3.5233   -2.2694   -1.6565 H   0  0  0  0  0  0  0  0  0  0  0  0
    1.5373   -1.0600   -1.8631 H   0  0  0  0  0  0  0  0  0  0  0  0
    0.8720   -2.6551   -1.4342 H   0  0  0  0  0  0  0  0  0  0  0  0
  1  2  2  0
  2  3  1  0
  3  4  1  0
  4  5  1  0
  5  6  2  0
  6  7  1  0
  7  8  2  0
  8  9  1  0
  9 10  2  0
 10 11  1  0
 11 12  1  0
 12 13  1  0
 13 14  1  0
 14 15  1  0
 15 16  1  0
 14 17  1  0
 17 18  1  0
 18 19  1  0
 19 20  1  0
 20 21  1  0
 21 22  1  0
 22 23  2  0
 22 24  2  0
 22 25  1  0
 25 26  1  0
 25 27  1  0
 25 28  1  0
 20 29  1  0
 29 30  1  0
 30 31  1  0
 31 32  1  0
 32  2  1  0
 10  5  1  0
 16 11  1  0
 32 19  1  0
  3 33  1  0
  3 34  1  0
  7 35  1  0
  8 36  1  0
 11 37  1  6
 12 38  1  0
 12 39  1  0
 13 40  1  0
 13 41  1  0
 14 42  1  6
 15 43  1  0
 15 44  1  0
 16 45  1  0
 16 46  1  0
 18 47  1  0
 18 48  1  0
 19 49  1  0
 20 50  1  6
 21 51  1  0
 29 52  1  0
 29 53  1  0
 30 54  1  0
 30 55  1  0
 31 56  1  0
 31 57  1  0
M  END
$$$$
