
     RDKit          3D

 69 71  0  0  0  0  0  0  0  0999 V2000
    2.9908    0.0402   -2.1737 C   0  0  0  0  0  0  0  0  0  0  0  0
    4.0796   -0.7084   -1.3991 C   0  0  0  0  0  0  0  0  0  0  0  0
    5.4446   -0.0244   -1.5562 C   0  0  0  0  0  0  0  0  0  0  0  0
    3.7100   -1.0211    0.0785 C   0  0  0  0  0  0  0  0  0  0  0  0
    3.1563    0.1143    0.9835 C   0  0  2  0  0  0  0  0  0  0  0  0
    1.8185    0.5443    0.5533 N   0  0  0  0  0  0  0  0  0  0  0  0
    0.6692   -0.3084    0.6581 C   0  0  0  0  0  0  0  0  0  0  0  0
    0.6860   -1.3034    1.4334 O   0  0  0  0  0  0  0  0  0  0  0  0
   -0.5709    0.0104   -0.1328 C   0  0  2  0  0  0  0  0  0  0  0  0
   -1.5224    0.9050    0.6727 C   0  0  0  0  0  0  0  0  0  0  0  0
   -2.1198    0.1657    1.7172 O   0  0  0  0  0  0  0  0  0  0  0  0
   -2.9617    1.0047    2.4836 C   0  0  0  0  0  0  0  0  0  0  0  0
   -3.8510    0.1482    3.3950 C   0  0  0  0  0  0  0  0  0  0  0  0
   -5.0967   -0.4295    2.6936 C   0  0  0  0  0  0  0  0  0  0  0  0
   -4.7722   -1.4004    1.5381 C   0  0  0  0  0  0  0  0  0  0  0  0
   -4.9758   -0.7464    0.1584 C   0  0  0  0  0  0  0  0  0  0  0  0
   -4.2670   -1.5022   -0.9318 C   0  0  0  0  0  0  0  0  0  0  0  0
   -4.2830   -2.7632   -0.9311 O   0  0  0  0  0  0  0  0  0  0  0  0
   -3.5897   -0.7998   -1.9877 N   0  0  0  0  0  0  0  0  0  0  0  0
   -4.0798    0.4491   -2.5483 C   0  0  0  0  0  0  0  0  0  0  0  0
   -3.3998    0.5840   -3.9036 C   0  0  2  0  0  0  0  0  0  0  0  0
   -4.2586    0.1557   -4.9030 F   0  0  0  0  0  0  0  0  0  0  0  0
   -2.1821   -0.3347   -3.8452 C   0  0  0  0  0  0  0  0  0  0  0  0
   -2.4959   -1.3719   -2.7629 C   0  0  1  0  0  0  0  0  0  0  0  0
   -1.2853   -1.6428   -1.9049 C   0  0  0  0  0  0  0  0  0  0  0  0
   -0.2884   -2.2303   -2.4026 O   0  0  0  0  0  0  0  0  0  0  0  0
   -1.2445   -1.2247   -0.5391 N   0  0  0  0  0  0  0  0  0  0  0  0
    4.1034    1.2900    1.1287 C   0  0  0  0  0  0  0  0  0  0  0  0
    4.0005    2.2610    0.3929 O   0  0  0  0  0  0  0  0  0  0  0  0
    5.1940    1.2838    2.1663 C   0  0  1  0  0  0  0  0  0  0  0  0
    6.5432    0.6345    1.8667 C   0  0  0  0  0  0  0  0  0  0  0  0
    5.1380    2.3362    3.2094 C   0  0  0  0  0  0  0  0  0  0  0  0
    4.7242    1.0107    3.4645 O   0  0  0  0  0  0  0  0  0  0  0  0
    2.0081   -0.4585   -2.0386 H   0  0  0  0  0  0  0  0  0  0  0  0
    3.2293    0.0332   -3.2587 H   0  0  0  0  0  0  0  0  0  0  0  0
    2.9231    1.0972   -1.8469 H   0  0  0  0  0  0  0  0  0  0  0  0
    4.1851   -1.6993   -1.8961 H   0  0  0  0  0  0  0  0  0  0  0  0
    5.7551   -0.0510   -2.6212 H   0  0  0  0  0  0  0  0  0  0  0  0
    5.4126    1.0353   -1.2437 H   0  0  0  0  0  0  0  0  0  0  0  0
    6.2190   -0.5578   -0.9662 H   0  0  0  0  0  0  0  0  0  0  0  0
    2.9553   -1.8368    0.0665 H   0  0  0  0  0  0  0  0  0  0  0  0
    4.5951   -1.4688    0.5772 H   0  0  0  0  0  0  0  0  0  0  0  0
    3.0473   -0.3234    1.9996 H   0  0  0  0  0  0  0  0  0  0  0  0
    1.6819    1.4862    0.1217 H   0  0  0  0  0  0  0  0  0  0  0  0
   -0.2673    0.5778   -1.0419 H   0  0  0  0  0  0  0  0  0  0  0  0
   -2.3010    1.2874   -0.0227 H   0  0  0  0  0  0  0  0  0  0  0  0
   -0.9538    1.7749    1.0753 H   0  0  0  0  0  0  0  0  0  0  0  0
   -2.3304    1.6593    3.1265 H   0  0  0  0  0  0  0  0  0  0  0  0
   -3.6088    1.6584    1.8524 H   0  0  0  0  0  0  0  0  0  0  0  0
   -4.2044    0.7869    4.2328 H   0  0  0  0  0  0  0  0  0  0  0  0
   -3.2526   -0.6739    3.8431 H   0  0  0  0  0  0  0  0  0  0  0  0
   -5.7521    0.4010    2.3486 H   0  0  0  0  0  0  0  0  0  0  0  0
   -5.6779   -0.9872    3.4612 H   0  0  0  0  0  0  0  0  0  0  0  0
   -3.7386   -1.7940    1.6434 H   0  0  0  0  0  0  0  0  0  0  0  0
   -5.4504   -2.2790    1.6043 H   0  0  0  0  0  0  0  0  0  0  0  0
   -4.5995    0.2956    0.1785 H   0  0  0  0  0  0  0  0  0  0  0  0
   -6.0607   -0.7101   -0.0771 H   0  0  0  0  0  0  0  0  0  0  0  0
   -5.1851    0.4268   -2.6573 H   0  0  0  0  0  0  0  0  0  0  0  0
   -3.7878    1.2931   -1.8898 H   0  0  0  0  0  0  0  0  0  0  0  0
   -3.1016    1.6356   -4.1042 H   0  0  0  0  0  0  0  0  0  0  0  0
   -1.2907    0.2746   -3.5735 H   0  0  0  0  0  0  0  0  0  0  0  0
   -1.9941   -0.8215   -4.8265 H   0  0  0  0  0  0  0  0  0  0  0  0
   -2.8381   -2.3181   -3.2352 H   0  0  0  0  0  0  0  0  0  0  0  0
   -1.6181   -1.8775    0.1866 H   0  0  0  0  0  0  0  0  0  0  0  0
    6.9946    1.1144    0.9745 H   0  0  0  0  0  0  0  0  0  0  0  0
    6.4041   -0.4469    1.6668 H   0  0  0  0  0  0  0  0  0  0  0  0
    7.2444    0.7413    2.7217 H   0  0  0  0  0  0  0  0  0  0  0  0
    6.0767    2.5728    3.7532 H   0  0  0  0  0  0  0  0  0  0  0  0
    4.2682    3.0263    3.1941 H   0  0  0  0  0  0  0  0  0  0  0  0
  1  2  1  0
  2  3  1  0
  2  4  1  0
  4  5  1  0
  5  6  1  0
  6  7  1  0
  7  8  2  0
  7  9  1  0
  9 10  1  0
 10 11  1  0
 11 12  1  0
 12 13  1  0
 13 14  1  0
 14 15  1  0
 15 16  1  0
 16 17  1  0
 17 18  2  0
 17 19  1  0
 19 20  1  0
 20 21  1  0
 21 22  1  0
 21 23  1  0
 23 24  1  0
 24 25  1  0
 25 26  2  0
 25 27  1  0
  5 28  1  0
 28 29  2  0
 28 30  1  0
 30 31  1  6
 30 32  1  0
 32 33  1  0
 27  9  1  0
 33 30  1  0
 24 19  1  0
  1 34  1  0
  1 35  1  0
  1 36  1  0
  2 37  1  0
  3 38  1  0
  3 39  1  0
  3 40  1  0
  4 41  1  0
  4 42  1  0
  5 43  1  1
  6 44  1  0
  9 45  1  6
 10 46  1  0
 10 47  1  0
 12 48  1  0
 12 49  1  0
 13 50  1  0
 13 51  1  0
 14 52  1  0
 14 53  1  0
 15 54  1  0
 15 55  1  0
 16 56  1  0
 16 57  1  0
 20 58  1  0
 20 59  1  0
 21 60  1  6
 23 61  1  0
 23 62  1  0
 24 63  1  6
 27 64  1  0
 31 65  1  0
 31 66  1  0
 31 67  1  0
 32 68  1  0
 32 69  1  0
M  END
$$$$
