
     RDKit          3D

 79 83  0  0  0  0  0  0  0  0999 V2000
   -6.3963   -3.8917    2.4577 C   0  0  0  0  0  0  0  0  0  0  0  0
   -5.0270   -3.7943    3.1200 C   0  0  0  0  0  0  0  0  0  0  0  0
   -4.4321   -2.5245    2.8607 O   0  0  0  0  0  0  0  0  0  0  0  0
   -3.8587   -2.1776    1.6316 C   0  0  0  0  0  0  0  0  0  0  0  0
   -3.7963   -3.0218    0.6950 O   0  0  0  0  0  0  0  0  0  0  0  0
   -3.3078   -0.7864    1.4515 C   0  0  1  0  0  0  0  0  0  0  0  0
   -2.1444   -0.5111    2.4229 C   0  0  0  0  0  0  0  0  0  0  0  0
   -0.9313   -1.4494    2.2371 C   0  0  0  0  0  0  0  0  0  0  0  0
    0.3217   -0.8867    2.9447 C   0  0  0  0  0  0  0  0  0  0  0  0
    1.6500   -1.1420    2.1973 C   0  0  0  0  0  0  0  0  0  0  0  0
    1.7409   -0.5923    0.7437 C   0  0  2  0  0  0  0  0  0  0  0  0
    3.1446   -0.3760    0.3791 N   0  0  0  0  0  0  0  0  0  0  0  0
    3.7136   -0.8519   -0.8551 C   0  0  0  0  0  0  0  0  0  0  0  0
    2.9959   -1.4822   -1.6767 O   0  0  0  0  0  0  0  0  0  0  0  0
    5.1429   -0.6720   -1.1757 C   0  0  0  0  0  0  0  0  0  0  0  0
    5.9167    0.2690   -0.6190 C   0  0  0  0  0  0  0  0  0  0  0  0
    7.3441    0.4143   -0.9778 C   0  0  0  0  0  0  0  0  0  0  0  0
    7.8100    1.6973   -1.3067 C   0  0  0  0  0  0  0  0  0  0  0  0
    9.1271    1.8893   -1.7312 C   0  0  0  0  0  0  0  0  0  0  0  0
    9.6862    3.4959   -2.1586 Cl  0  0  0  0  0  0  0  0  0  0  0  0
    9.9953    0.8017   -1.8246 C   0  0  0  0  0  0  0  0  0  0  0  0
    9.5571   -0.4758   -1.4739 C   0  0  0  0  0  0  0  0  0  0  0  0
    8.2405   -0.6857   -1.0276 C   0  0  0  0  0  0  0  0  0  0  0  0
    7.8573   -1.9928   -0.5637 N   0  0  0  0  0  0  0  0  0  0  0  0
    8.2438   -3.1870   -1.0440 C   0  0  0  0  0  0  0  0  0  0  0  0
    7.7140   -4.1699   -0.2930 N   0  0  0  0  0  0  0  0  0  0  0  0
    7.0138   -3.5523    0.6494 N   0  0  0  0  0  0  0  0  0  0  0  0
    7.1037   -2.2406    0.4928 N   0  0  0  0  0  0  0  0  0  0  0  0
    0.9680    0.6909    0.5498 C   0  0  0  0  0  0  0  0  0  0  0  0
   -0.2029    0.6981   -0.2235 C   0  0  0  0  0  0  0  0  0  0  0  0
   -1.0719    1.7968   -0.1686 C   0  0  0  0  0  0  0  0  0  0  0  0
   -0.6657    2.9367    0.5460 C   0  0  0  0  0  0  0  0  0  0  0  0
    0.5554    2.9313    1.2247 C   0  0  0  0  0  0  0  0  0  0  0  0
    1.3240    1.8107    1.2379 N   0  0  0  0  0  0  0  0  0  0  0  0
   -2.4182    1.7460   -0.8047 C   0  0  0  0  0  0  0  0  0  0  0  0
   -2.8678    2.8570   -1.5405 C   0  0  0  0  0  0  0  0  0  0  0  0
   -4.1453    2.8742   -2.1048 C   0  0  0  0  0  0  0  0  0  0  0  0
   -5.0122    1.7839   -1.9332 C   0  0  0  0  0  0  0  0  0  0  0  0
   -6.3227    1.7665   -2.5240 N   0  0  0  0  0  0  0  0  0  0  0  0
   -7.1694    2.9163   -2.6459 C   0  0  0  0  0  0  0  0  0  0  0  0
   -6.8729    3.9968   -2.0648 O   0  0  0  0  0  0  0  0  0  0  0  0
   -8.3524    2.8136   -3.3838 O   0  0  0  0  0  0  0  0  0  0  0  0
   -9.2537    3.9014   -3.5423 C   0  0  0  0  0  0  0  0  0  0  0  0
   -4.5649    0.6623   -1.2260 C   0  0  0  0  0  0  0  0  0  0  0  0
   -3.2870    0.6332   -0.6527 C   0  0  0  0  0  0  0  0  0  0  0  0
   -2.8916   -0.5433    0.0650 N   0  0  0  0  0  0  0  0  0  0  0  0
   -6.2970   -3.8295    1.3537 H   0  0  0  0  0  0  0  0  0  0  0  0
   -6.8696   -4.8611    2.7190 H   0  0  0  0  0  0  0  0  0  0  0  0
   -7.0481   -3.0652    2.8115 H   0  0  0  0  0  0  0  0  0  0  0  0
   -5.1521   -3.9088    4.2178 H   0  0  0  0  0  0  0  0  0  0  0  0
   -4.3645   -4.6132    2.7620 H   0  0  0  0  0  0  0  0  0  0  0  0
   -4.1286   -0.0803    1.7090 H   0  0  0  0  0  0  0  0  0  0  0  0
   -1.8348    0.5456    2.2742 H   0  0  0  0  0  0  0  0  0  0  0  0
   -2.5061   -0.5940    3.4720 H   0  0  0  0  0  0  0  0  0  0  0  0
   -0.7370   -1.6086    1.1617 H   0  0  0  0  0  0  0  0  0  0  0  0
   -1.1713   -2.4498    2.6583 H   0  0  0  0  0  0  0  0  0  0  0  0
    0.2302    0.2045    3.1271 H   0  0  0  0  0  0  0  0  0  0  0  0
    0.3915   -1.3499    3.9527 H   0  0  0  0  0  0  0  0  0  0  0  0
    1.8476   -2.2356    2.1785 H   0  0  0  0  0  0  0  0  0  0  0  0
    2.4558   -0.6853    2.8127 H   0  0  0  0  0  0  0  0  0  0  0  0
    1.3100   -1.3779    0.0849 H   0  0  0  0  0  0  0  0  0  0  0  0
    3.7335    0.1794    1.0394 H   0  0  0  0  0  0  0  0  0  0  0  0
    5.5681   -1.3269   -1.9272 H   0  0  0  0  0  0  0  0  0  0  0  0
    5.4839    1.0249    0.0215 H   0  0  0  0  0  0  0  0  0  0  0  0
    7.1403    2.5476   -1.2597 H   0  0  0  0  0  0  0  0  0  0  0  0
   11.0167    0.9463   -2.1529 H   0  0  0  0  0  0  0  0  0  0  0  0
   10.2592   -1.2986   -1.5151 H   0  0  0  0  0  0  0  0  0  0  0  0
    8.8807   -3.3425   -1.9050 H   0  0  0  0  0  0  0  0  0  0  0  0
   -0.4579   -0.1682   -0.8169 H   0  0  0  0  0  0  0  0  0  0  0  0
   -1.2997    3.8124    0.6057 H   0  0  0  0  0  0  0  0  0  0  0  0
    0.8693    3.8042    1.7817 H   0  0  0  0  0  0  0  0  0  0  0  0
   -2.2195    3.7113   -1.6937 H   0  0  0  0  0  0  0  0  0  0  0  0
   -4.4440    3.7313   -2.6938 H   0  0  0  0  0  0  0  0  0  0  0  0
   -6.7298    0.8447   -2.8023 H   0  0  0  0  0  0  0  0  0  0  0  0
   -9.6397    4.2206   -2.5518 H   0  0  0  0  0  0  0  0  0  0  0  0
  -10.1069    3.5815   -4.1744 H   0  0  0  0  0  0  0  0  0  0  0  0
   -8.7386    4.7516   -4.0371 H   0  0  0  0  0  0  0  0  0  0  0  0
   -5.2196   -0.1936   -1.1096 H   0  0  0  0  0  0  0  0  0  0  0  0
   -2.3957   -1.2929   -0.4685 H   0  0  0  0  0  0  0  0  0  0  0  0
  1  2  1  0
  2  3  1  0
  3  4  1  0
  4  5  2  0
  4  6  1  0
  6  7  1  0
  7  8  1  0
  8  9  1  0
  9 10  1  0
 10 11  1  0
 11 12  1  0
 12 13  1  0
 13 14  2  0
 13 15  1  0
 15 16  2  0
 16 17  1  0
 17 18  2  0
 18 19  1  0
 19 20  1  0
 19 21  2  0
 21 22  1  0
 22 23  2  0
 23 24  1  0
 24 25  1  0
 25 26  2  0
 26 27  1  0
 27 28  2  0
 11 29  1  0
 29 30  1  0
 30 31  2  0
 31 32  1  0
 32 33  2  0
 33 34  1  0
 31 35  1  0
 35 36  2  0
 36 37  1  0
 37 38  2  0
 38 39  1  0
 39 40  1  0
 40 41  2  0
 40 42  1  0
 42 43  1  0
 38 44  1  0
 44 45  2  0
 45 46  1  0
 46  6  1  0
 23 17  1  0
 28 24  1  0
 34 29  2  0
 45 35  1  0
  1 47  1  0
  1 48  1  0
  1 49  1  0
  2 50  1  0
  2 51  1  0
  6 52  1  1
  7 53  1  0
  7 54  1  0
  8 55  1  0
  8 56  1  0
  9 57  1  0
  9 58  1  0
 10 59  1  0
 10 60  1  0
 11 61  1  6
 12 62  1  0
 15 63  1  0
 16 64  1  0
 18 65  1  0
 21 66  1  0
 22 67  1  0
 25 68  1  0
 30 69  1  0
 32 70  1  0
 33 71  1  0
 36 72  1  0
 37 73  1  0
 39 74  1  0
 43 75  1  0
 43 76  1  0
 43 77  1  0
 44 78  1  0
 46 79  1  0
M  END
$$$$
