
     RDKit          3D

108114  0  0  0  0  0  0  0  0999 V2000
    5.9314   -0.9049    5.9414 C   0  0  0  0  0  0  0  0  0  0  0  0
    6.2493   -1.3745    4.6370 O   0  0  0  0  0  0  0  0  0  0  0  0
    5.7204   -0.8310    3.4514 C   0  0  0  0  0  0  0  0  0  0  0  0
    4.9717    0.3585    3.4562 C   0  0  0  0  0  0  0  0  0  0  0  0
    4.4628    0.8844    2.2707 C   0  0  0  0  0  0  0  0  0  0  0  0
    4.6239    0.2004    1.0540 C   0  0  0  0  0  0  0  0  0  0  0  0
    4.0634    0.6622   -0.1645 C   0  0  0  0  0  0  0  0  0  0  0  0
    3.1861    1.7550   -0.2755 O   0  0  0  0  0  0  0  0  0  0  0  0
    2.0278    2.0578    0.5256 C   0  0  2  0  0  0  0  0  0  0  0  0
    1.2607    0.8002    0.9771 C   0  0  0  0  0  0  0  0  0  0  0  0
    0.2983    0.4944   -0.1610 C   0  0  1  0  0  0  0  0  0  0  0  0
   -1.0133   -0.0565    0.3302 C   0  0  0  0  0  0  0  0  0  0  0  0
   -1.9546    0.7287    0.6230 O   0  0  0  0  0  0  0  0  0  0  0  0
   -1.1694   -1.4638    0.5293 N   0  0  0  0  0  0  0  0  0  0  0  0
   -2.3870   -2.1741    0.1398 C   0  0  2  0  0  0  0  0  0  0  0  0
   -3.5651   -2.1098    1.0757 C   0  0  0  0  0  0  0  0  0  0  0  0
   -4.1125   -0.9962    1.2957 O   0  0  0  0  0  0  0  0  0  0  0  0
   -4.0370   -3.2833    1.7480 N   0  0  0  0  0  0  0  0  0  0  0  0
   -5.5985   -3.3538    2.4984 S   0  0  0  0  0  6  0  0  0  0  0  0
   -5.4267   -3.3656    3.9922 O   0  0  0  0  0  0  0  0  0  0  0  0
   -6.4288   -2.1640    2.1016 O   0  0  0  0  0  0  0  0  0  0  0  0
   -6.4351   -4.8281    1.9187 C   0  0  0  0  0  0  0  0  0  0  0  0
   -6.2645   -6.0617    2.7851 C   0  0  0  0  0  0  0  0  0  0  0  0
   -7.5754   -5.2846    2.8144 C   0  0  0  0  0  0  0  0  0  0  0  0
   -2.1151   -3.4852   -0.5902 C   0  0  0  0  0  0  0  0  0  0  0  0
   -2.6180   -2.2703   -1.3707 C   0  0  1  0  0  0  0  0  0  0  0  0
   -4.0311   -2.4714   -1.8742 C   0  0  0  0  0  0  0  0  0  0  0  0
   -4.9134   -1.4694   -2.0512 C   0  0  0  0  0  0  0  0  0  0  0  0
   -4.6656   -0.0435   -1.6293 C   0  0  0  0  0  0  0  0  0  0  0  0
   -5.1049    0.9692   -2.6962 C   0  0  0  0  0  0  0  0  0  0  0  0
   -4.3992    0.8195   -4.0599 C   0  0  0  0  0  0  0  0  0  0  0  0
   -2.8786    1.0493   -4.0304 C   0  0  0  0  0  0  0  0  0  0  0  0
   -2.4669    2.4902   -3.6490 C   0  0  0  0  0  0  0  0  0  0  0  0
   -1.8508    2.5700   -2.2377 C   0  0  2  0  0  0  0  0  0  0  0  0
   -1.7061    3.9686   -1.8211 N   0  0  0  0  0  0  0  0  0  0  0  0
   -2.5757    4.5474   -0.8343 C   0  0  0  0  0  0  0  0  0  0  0  0
   -3.7478    4.0970   -0.6923 O   0  0  0  0  0  0  0  0  0  0  0  0
   -2.1126    5.6198    0.0621 C   0  0  0  0  0  0  0  0  0  0  0  0
   -0.8348    6.1632    0.1232 C   0  0  0  0  0  0  0  0  0  0  0  0
   -0.6771    7.1035    1.1504 C   0  0  0  0  0  0  0  0  0  0  0  0
   -1.8273    7.2863    1.9055 C   0  0  0  0  0  0  0  0  0  0  0  0
   -1.9808    8.2289    3.0556 C   0  0  0  0  0  0  0  0  0  0  0  0
   -3.0428    6.3068    1.2867 S   0  0  0  0  0  0  0  0  0  0  0  0
   -0.5162    1.8697   -2.1204 C   0  0  0  0  0  0  0  0  0  0  0  0
    0.0364    1.3425   -3.1227 O   0  0  0  0  0  0  0  0  0  0  0  0
    0.1160    1.7688   -0.8388 N   0  0  0  0  0  0  0  0  0  0  0  0
    1.0282    2.7932   -0.3598 C   0  0  0  0  0  0  0  0  0  0  0  0
    4.4030    0.0202   -1.3543 C   0  0  0  0  0  0  0  0  0  0  0  0
    5.2279   -1.0977   -1.3381 C   0  0  0  0  0  0  0  0  0  0  0  0
    5.5714   -1.7048   -2.5510 O   0  0  0  0  0  0  0  0  0  0  0  0
    6.5171   -2.7669   -2.6788 C   0  0  0  0  0  0  0  0  0  0  0  0
    7.9427   -2.2273   -2.5006 C   0  0  0  0  0  0  0  0  0  0  0  0
    6.3684   -3.3943   -4.0593 C   0  0  0  0  0  0  0  0  0  0  0  0
    5.6837   -1.5823   -0.1572 N   0  0  0  0  0  0  0  0  0  0  0  0
    5.4179   -0.9742    1.0345 C   0  0  0  0  0  0  0  0  0  0  0  0
    5.9749   -1.4845    2.2308 C   0  0  0  0  0  0  0  0  0  0  0  0
    6.8098   -2.7462    2.2298 C   0  0  0  0  0  0  0  0  0  0  0  0
    6.2481    0.1570    6.0603 H   0  0  0  0  0  0  0  0  0  0  0  0
    6.4664   -1.5197    6.6889 H   0  0  0  0  0  0  0  0  0  0  0  0
    4.8409   -0.9943    6.1147 H   0  0  0  0  0  0  0  0  0  0  0  0
    4.8074    0.9100    4.3709 H   0  0  0  0  0  0  0  0  0  0  0  0
    3.9972    1.8512    2.3237 H   0  0  0  0  0  0  0  0  0  0  0  0
    2.2993    2.7168    1.3828 H   0  0  0  0  0  0  0  0  0  0  0  0
    1.9146   -0.0614    1.2032 H   0  0  0  0  0  0  0  0  0  0  0  0
    0.7017    1.0486    1.9101 H   0  0  0  0  0  0  0  0  0  0  0  0
    0.7716   -0.2292   -0.8584 H   0  0  0  0  0  0  0  0  0  0  0  0
   -0.3983   -1.9934    1.0074 H   0  0  0  0  0  0  0  0  0  0  0  0
   -3.4036   -4.0998    1.8676 H   0  0  0  0  0  0  0  0  0  0  0  0
   -6.6075   -4.9861    0.8347 H   0  0  0  0  0  0  0  0  0  0  0  0
   -5.6484   -5.9434    3.6988 H   0  0  0  0  0  0  0  0  0  0  0  0
   -6.3318   -7.0218    2.2340 H   0  0  0  0  0  0  0  0  0  0  0  0
   -8.4088   -5.7955    2.2796 H   0  0  0  0  0  0  0  0  0  0  0  0
   -7.7357   -4.7014    3.7468 H   0  0  0  0  0  0  0  0  0  0  0  0
   -1.0400   -3.7110   -0.7659 H   0  0  0  0  0  0  0  0  0  0  0  0
   -2.8534   -4.2978   -0.4309 H   0  0  0  0  0  0  0  0  0  0  0  0
   -1.8515   -1.8366   -2.0532 H   0  0  0  0  0  0  0  0  0  0  0  0
   -4.3167   -3.4628   -2.2263 H   0  0  0  0  0  0  0  0  0  0  0  0
   -5.8913   -1.7170   -2.4632 H   0  0  0  0  0  0  0  0  0  0  0  0
   -5.2681    0.1494   -0.7104 H   0  0  0  0  0  0  0  0  0  0  0  0
   -3.6053    0.1233   -1.3666 H   0  0  0  0  0  0  0  0  0  0  0  0
   -6.1989    0.8612   -2.8529 H   0  0  0  0  0  0  0  0  0  0  0  0
   -4.9473    1.9941   -2.3017 H   0  0  0  0  0  0  0  0  0  0  0  0
   -4.8517    1.5414   -4.7746 H   0  0  0  0  0  0  0  0  0  0  0  0
   -4.5963   -0.1986   -4.4637 H   0  0  0  0  0  0  0  0  0  0  0  0
   -2.4925    0.8376   -5.0448 H   0  0  0  0  0  0  0  0  0  0  0  0
   -2.4005    0.2945   -3.3744 H   0  0  0  0  0  0  0  0  0  0  0  0
   -1.7312    2.8763   -4.3876 H   0  0  0  0  0  0  0  0  0  0  0  0
   -3.3428    3.1744   -3.7041 H   0  0  0  0  0  0  0  0  0  0  0  0
   -2.5378    2.0604   -1.5365 H   0  0  0  0  0  0  0  0  0  0  0  0
   -0.9132    4.5376   -2.2030 H   0  0  0  0  0  0  0  0  0  0  0  0
   -0.0263    5.8929   -0.5402 H   0  0  0  0  0  0  0  0  0  0  0  0
    0.2517    7.6228    1.3407 H   0  0  0  0  0  0  0  0  0  0  0  0
   -2.8436    7.9237    3.6847 H   0  0  0  0  0  0  0  0  0  0  0  0
   -1.0635    8.2165    3.6750 H   0  0  0  0  0  0  0  0  0  0  0  0
   -2.1548    9.2533    2.6710 H   0  0  0  0  0  0  0  0  0  0  0  0
    1.5428    3.2972   -1.2123 H   0  0  0  0  0  0  0  0  0  0  0  0
    0.4627    3.5448    0.2305 H   0  0  0  0  0  0  0  0  0  0  0  0
    4.0115    0.3814   -2.2980 H   0  0  0  0  0  0  0  0  0  0  0  0
    6.3215   -3.5425   -1.9112 H   0  0  0  0  0  0  0  0  0  0  0  0
    8.1608   -1.4589   -3.2760 H   0  0  0  0  0  0  0  0  0  0  0  0
    8.0651   -1.7675   -1.4982 H   0  0  0  0  0  0  0  0  0  0  0  0
    8.6828   -3.0523   -2.5948 H   0  0  0  0  0  0  0  0  0  0  0  0
    5.3354   -3.7878   -4.1795 H   0  0  0  0  0  0  0  0  0  0  0  0
    6.5550   -2.6364   -4.8443 H   0  0  0  0  0  0  0  0  0  0  0  0
    7.0891   -4.2319   -4.1835 H   0  0  0  0  0  0  0  0  0  0  0  0
    7.6669   -2.6400    2.9295 H   0  0  0  0  0  0  0  0  0  0  0  0
    6.1770   -3.6003    2.5493 H   0  0  0  0  0  0  0  0  0  0  0  0
    7.2303   -2.9649    1.2265 H   0  0  0  0  0  0  0  0  0  0  0  0
  1  2  1  0
  2  3  1  0
  3  4  2  0
  4  5  1  0
  5  6  2  0
  6  7  1  0
  7  8  1  0
  8  9  1  0
  9 10  1  0
 10 11  1  0
 11 12  1  0
 12 13  2  0
 12 14  1  0
 14 15  1  0
 15 16  1  1
 16 17  2  0
 16 18  1  0
 18 19  1  0
 19 20  2  0
 19 21  2  0
 19 22  1  0
 22 23  1  0
 23 24  1  0
 15 25  1  0
 25 26  1  0
 26 27  1  0
 27 28  2  0
 28 29  1  0
 29 30  1  0
 30 31  1  0
 31 32  1  0
 32 33  1  0
 33 34  1  0
 34 35  1  0
 35 36  1  0
 36 37  2  0
 36 38  1  0
 38 39  2  0
 39 40  1  0
 40 41  2  0
 41 42  1  0
 41 43  1  0
 34 44  1  0
 44 45  2  0
 44 46  1  0
 46 47  1  0
  7 48  2  0
 48 49  1  0
 49 50  1  0
 50 51  1  0
 51 52  1  0
 51 53  1  0
 49 54  2  0
 54 55  1  0
 55 56  2  0
 56 57  1  0
 56  3  1  0
 55  6  1  0
 47  9  1  0
 46 11  1  0
 26 15  1  0
 43 38  1  0
 24 22  1  0
  1 58  1  0
  1 59  1  0
  1 60  1  0
  4 61  1  0
  5 62  1  0
  9 63  1  1
 10 64  1  0
 10 65  1  0
 11 66  1  6
 14 67  1  0
 18 68  1  0
 22 69  1  0
 23 70  1  0
 23 71  1  0
 24 72  1  0
 24 73  1  0
 25 74  1  0
 25 75  1  0
 26 76  1  6
 27 77  1  0
 28 78  1  0
 29 79  1  0
 29 80  1  0
 30 81  1  0
 30 82  1  0
 31 83  1  0
 31 84  1  0
 32 85  1  0
 32 86  1  0
 33 87  1  0
 33 88  1  0
 34 89  1  1
 35 90  1  0
 39 91  1  0
 40 92  1  0
 42 93  1  0
 42 94  1  0
 42 95  1  0
 47 96  1  0
 47 97  1  0
 48 98  1  0
 51 99  1  0
 52100  1  0
 52101  1  0
 52102  1  0
 53103  1  0
 53104  1  0
 53105  1  0
 57106  1  0
 57107  1  0
 57108  1  0
M  END
$$$$
