
     RDKit          3D

 71 74  0  0  0  0  0  0  0  0999 V2000
    3.7316   -3.9384   -0.1873 C   0  0  0  0  0  0  0  0  0  0  0  0
    3.0976   -2.8257    0.5238 N   0  0  0  0  0  0  0  0  0  0  0  0
    2.2808   -1.8832   -0.1873 C   0  0  0  0  0  0  0  0  0  0  0  0
    1.3176   -2.3146   -1.1060 C   0  0  0  0  0  0  0  0  0  0  0  0
    0.5385   -1.3689   -1.7845 C   0  0  0  0  0  0  0  0  0  0  0  0
    0.7388   -0.0049   -1.5342 C   0  0  0  0  0  0  0  0  0  0  0  0
    1.7079    0.3960   -0.6042 C   0  0  0  0  0  0  0  0  0  0  0  0
    2.4433   -0.5519    0.0363 N   0  0  0  0  0  0  0  0  0  0  0  0
    1.9532    1.7927   -0.3288 N   0  0  0  0  0  0  0  0  0  0  0  0
    3.3342    2.2396   -0.0994 C   0  0  0  0  0  0  0  0  0  0  0  0
    4.1485    2.0952   -1.3936 C   0  0  0  0  0  0  0  0  0  0  0  0
    4.0458    3.2773   -2.3469 C   0  0  0  0  0  0  0  0  0  0  0  0
    5.3202    3.0493   -1.5504 C   0  0  0  0  0  0  0  0  0  0  0  0
    0.8377    2.7486   -0.2087 C   0  0  0  0  0  0  0  0  0  0  0  0
   -0.1644    2.2784    0.8515 C   0  0  0  0  0  0  0  0  0  0  0  0
   -1.1907    3.3678    1.1858 C   0  0  0  0  0  0  0  0  0  0  0  0
   -2.2042    2.8970    2.2403 C   0  0  0  0  0  0  0  0  0  0  0  0
   -3.2881    2.0366    1.6384 C   0  0  0  0  0  0  0  0  0  0  0  0
   -4.4661    2.6253    1.1534 C   0  0  0  0  0  0  0  0  0  0  0  0
   -5.4783    1.8302    0.6151 C   0  0  0  0  0  0  0  0  0  0  0  0
   -5.3158    0.4457    0.5319 C   0  0  0  0  0  0  0  0  0  0  0  0
   -4.1234   -0.1583    0.9627 C   0  0  0  0  0  0  0  0  0  0  0  0
   -3.1216    0.6447    1.5366 C   0  0  0  0  0  0  0  0  0  0  0  0
   -3.9219   -1.6558    0.8405 C   0  0  0  0  0  0  0  0  0  0  0  0
   -3.7553   -2.1880   -0.6172 C   0  0  1  0  0  0  0  0  0  0  0  0
   -3.5593   -3.7219   -0.5435 C   0  0  0  0  0  0  0  0  0  0  0  0
   -4.9610   -1.8949   -1.4030 N   0  0  0  0  0  0  0  0  0  0  0  0
   -2.5623   -1.5512   -1.3119 C   0  0  0  0  0  0  0  0  0  0  0  0
   -2.4462   -0.2949   -1.3411 O   0  0  0  0  0  0  0  0  0  0  0  0
   -1.6447   -2.3515   -2.0096 O   0  0  0  0  0  0  0  0  0  0  0  0
   -0.5355   -1.8231   -2.7331 C   0  0  0  0  0  0  0  0  0  0  0  0
    3.4004   -2.5815    2.2206 S   0  0  0  0  0  6  0  0  0  0  0  0
    4.5544   -1.2460    2.4606 C   0  0  0  0  0  0  0  0  0  0  0  0
    3.9675   -3.8363    2.8236 O   0  0  0  0  0  0  0  0  0  0  0  0
    2.1045   -2.2583    2.9172 O   0  0  0  0  0  0  0  0  0  0  0  0
    4.1733   -3.5745   -1.1420 H   0  0  0  0  0  0  0  0  0  0  0  0
    2.9784   -4.7270   -0.4011 H   0  0  0  0  0  0  0  0  0  0  0  0
    4.5504   -4.3792    0.4146 H   0  0  0  0  0  0  0  0  0  0  0  0
    1.1580   -3.3716   -1.2767 H   0  0  0  0  0  0  0  0  0  0  0  0
    0.1521    0.7304   -2.0669 H   0  0  0  0  0  0  0  0  0  0  0  0
    3.3589    3.2855    0.2772 H   0  0  0  0  0  0  0  0  0  0  0  0
    3.8030    1.6156    0.6901 H   0  0  0  0  0  0  0  0  0  0  0  0
    4.2551    1.1035   -1.8892 H   0  0  0  0  0  0  0  0  0  0  0  0
    3.4436    4.1423   -1.9927 H   0  0  0  0  0  0  0  0  0  0  0  0
    4.1403    3.0187   -3.4242 H   0  0  0  0  0  0  0  0  0  0  0  0
    6.1617    2.6475   -2.1543 H   0  0  0  0  0  0  0  0  0  0  0  0
    5.4783    3.7685   -0.7152 H   0  0  0  0  0  0  0  0  0  0  0  0
    1.2116    3.7577    0.0671 H   0  0  0  0  0  0  0  0  0  0  0  0
    0.3296    2.8594   -1.1887 H   0  0  0  0  0  0  0  0  0  0  0  0
    0.3878    1.9904    1.7732 H   0  0  0  0  0  0  0  0  0  0  0  0
   -0.6937    1.3844    0.4640 H   0  0  0  0  0  0  0  0  0  0  0  0
   -1.7211    3.6876    0.2611 H   0  0  0  0  0  0  0  0  0  0  0  0
   -0.6511    4.2522    1.5929 H   0  0  0  0  0  0  0  0  0  0  0  0
   -2.6659    3.7937    2.7090 H   0  0  0  0  0  0  0  0  0  0  0  0
   -1.6888    2.3512    3.0612 H   0  0  0  0  0  0  0  0  0  0  0  0
   -4.6090    3.6977    1.2093 H   0  0  0  0  0  0  0  0  0  0  0  0
   -6.3944    2.2871    0.2657 H   0  0  0  0  0  0  0  0  0  0  0  0
   -6.1239   -0.1503    0.1319 H   0  0  0  0  0  0  0  0  0  0  0  0
   -2.2104    0.1870    1.8999 H   0  0  0  0  0  0  0  0  0  0  0  0
   -4.7920   -2.1547    1.3171 H   0  0  0  0  0  0  0  0  0  0  0  0
   -3.0321   -1.9597    1.4354 H   0  0  0  0  0  0  0  0  0  0  0  0
   -2.6230   -3.9675    0.0021 H   0  0  0  0  0  0  0  0  0  0  0  0
   -3.4960   -4.1655   -1.5611 H   0  0  0  0  0  0  0  0  0  0  0  0
   -4.4099   -4.2008   -0.0151 H   0  0  0  0  0  0  0  0  0  0  0  0
   -4.8593   -2.3035   -2.3627 H   0  0  0  0  0  0  0  0  0  0  0  0
   -5.7866   -2.3651   -0.9632 H   0  0  0  0  0  0  0  0  0  0  0  0
   -0.8737   -0.9985   -3.3992 H   0  0  0  0  0  0  0  0  0  0  0  0
   -0.1265   -2.6192   -3.3895 H   0  0  0  0  0  0  0  0  0  0  0  0
    5.3886   -1.3341    1.7348 H   0  0  0  0  0  0  0  0  0  0  0  0
    4.0429   -0.2754    2.3090 H   0  0  0  0  0  0  0  0  0  0  0  0
    4.9601   -1.2886    3.4904 H   0  0  0  0  0  0  0  0  0  0  0  0
  1  2  1  0
  2  3  1  0
  3  4  2  0
  4  5  1  0
  5  6  2  0
  6  7  1  0
  7  8  2  0
  7  9  1  0
  9 10  1  0
 10 11  1  0
 11 12  1  0
 12 13  1  0
  9 14  1  0
 14 15  1  0
 15 16  1  0
 16 17  1  0
 17 18  1  0
 18 19  2  0
 19 20  1  0
 20 21  2  0
 21 22  1  0
 22 23  2  0
 22 24  1  0
 24 25  1  0
 25 26  1  0
 25 27  1  6
 25 28  1  0
 28 29  2  0
 28 30  1  0
 30 31  1  0
  2 32  1  0
 32 33  1  0
 32 34  2  0
 32 35  2  0
  8  3  1  0
 13 11  1  0
 23 18  1  0
 31  5  1  0
  1 36  1  0
  1 37  1  0
  1 38  1  0
  4 39  1  0
  6 40  1  0
 10 41  1  0
 10 42  1  0
 11 43  1  0
 12 44  1  0
 12 45  1  0
 13 46  1  0
 13 47  1  0
 14 48  1  0
 14 49  1  0
 15 50  1  0
 15 51  1  0
 16 52  1  0
 16 53  1  0
 17 54  1  0
 17 55  1  0
 19 56  1  0
 20 57  1  0
 21 58  1  0
 23 59  1  0
 24 60  1  0
 24 61  1  0
 26 62  1  0
 26 63  1  0
 26 64  1  0
 27 65  1  0
 27 66  1  0
 31 67  1  0
 31 68  1  0
 33 69  1  0
 33 70  1  0
 33 71  1  0
M  END
$$$$
