
     RDKit          3D

 53 56  0  0  0  0  0  0  0  0999 V2000
   -2.0560    1.2756    2.3707 C   0  0  0  0  0  0  0  0  0  0  0  0
   -3.0452    1.2669    1.1939 C   0  0  1  0  0  0  0  0  0  0  0  0
   -2.6059    2.0662    0.0857 O   0  0  0  0  0  0  0  0  0  0  0  0
   -1.2902    2.1992   -0.3837 C   0  0  0  0  0  0  0  0  0  0  0  0
   -0.3320    1.3084   -0.0222 N   0  0  0  0  0  0  0  0  0  0  0  0
    0.9007    1.2997   -0.5868 C   0  0  0  0  0  0  0  0  0  0  0  0
    1.2159    2.3001   -1.5198 C   0  0  0  0  0  0  0  0  0  0  0  0
    0.2785    3.2257   -1.8513 N   0  0  0  0  0  0  0  0  0  0  0  0
   -0.9694    3.1991   -1.3125 C   0  0  0  0  0  0  0  0  0  0  0  0
   -1.9368    4.1684   -1.7204 N   0  0  0  0  0  0  0  0  0  0  0  0
    1.8308    0.1766   -0.3106 C   0  0  0  0  0  0  0  0  0  0  0  0
    3.2053    0.4572   -0.1882 C   0  0  0  0  0  0  0  0  0  0  0  0
    4.1334   -0.5648    0.0302 C   0  0  0  0  0  0  0  0  0  0  0  0
    5.8438   -0.1822    0.1978 S   0  0  0  0  0  6  0  0  0  0  0  0
    6.1904    0.2395    1.8899 C   0  0  0  0  0  0  0  0  0  0  0  0
    6.6758   -1.3677   -0.2043 O   0  0  0  0  0  0  0  0  0  0  0  0
    6.1942    0.9769   -0.6927 O   0  0  0  0  0  0  0  0  0  0  0  0
    3.6935   -1.8839    0.1466 C   0  0  0  0  0  0  0  0  0  0  0  0
    2.3369   -2.1849    0.0360 C   0  0  0  0  0  0  0  0  0  0  0  0
    1.3854   -1.1758   -0.2018 C   0  0  0  0  0  0  0  0  0  0  0  0
   -0.0803   -1.5931   -0.2598 C   0  0  0  0  0  0  0  0  0  0  0  0
   -0.7977   -1.0497   -1.4277 N   0  0  0  0  0  0  0  0  0  0  0  0
   -0.2287   -1.1773   -2.7723 C   0  0  0  0  0  0  0  0  0  0  0  0
   -2.1414   -0.5321   -1.2895 C   0  0  0  0  0  0  0  0  0  0  0  0
   -2.6118    0.2399   -2.1687 O   0  0  0  0  0  0  0  0  0  0  0  0
   -3.0254   -0.9871   -0.2019 C   0  0  0  0  0  0  0  0  0  0  0  0
   -3.4416   -2.3278   -0.2794 C   0  0  0  0  0  0  0  0  0  0  0  0
   -4.3344   -2.8570    0.6483 C   0  0  0  0  0  0  0  0  0  0  0  0
   -4.8281   -2.0564    1.6712 C   0  0  0  0  0  0  0  0  0  0  0  0
   -5.6972   -2.5724    2.5751 F   0  0  0  0  0  0  0  0  0  0  0  0
   -4.4174   -0.7281    1.7785 C   0  0  0  0  0  0  0  0  0  0  0  0
   -3.5090   -0.1572    0.8587 C   0  0  0  0  0  0  0  0  0  0  0  0
   -2.5781    0.9891    3.3084 H   0  0  0  0  0  0  0  0  0  0  0  0
   -1.2316    0.5514    2.2115 H   0  0  0  0  0  0  0  0  0  0  0  0
   -1.6335    2.2933    2.5098 H   0  0  0  0  0  0  0  0  0  0  0  0
   -3.9457    1.8033    1.5673 H   0  0  0  0  0  0  0  0  0  0  0  0
    2.1790    2.3240   -2.0122 H   0  0  0  0  0  0  0  0  0  0  0  0
   -1.6828    4.8969   -2.4238 H   0  0  0  0  0  0  0  0  0  0  0  0
   -2.9036    4.1719   -1.3260 H   0  0  0  0  0  0  0  0  0  0  0  0
    3.5571    1.4800   -0.2460 H   0  0  0  0  0  0  0  0  0  0  0  0
    5.5826    1.1198    2.1845 H   0  0  0  0  0  0  0  0  0  0  0  0
    5.9363   -0.6189    2.5454 H   0  0  0  0  0  0  0  0  0  0  0  0
    7.2676    0.4816    1.9998 H   0  0  0  0  0  0  0  0  0  0  0  0
    4.3998   -2.6827    0.3337 H   0  0  0  0  0  0  0  0  0  0  0  0
    2.0290   -3.2179    0.1421 H   0  0  0  0  0  0  0  0  0  0  0  0
   -0.1779   -2.7001   -0.2857 H   0  0  0  0  0  0  0  0  0  0  0  0
   -0.5554   -1.2617    0.6866 H   0  0  0  0  0  0  0  0  0  0  0  0
    0.7313   -1.7350   -2.7542 H   0  0  0  0  0  0  0  0  0  0  0  0
   -0.0466   -0.1682   -3.1980 H   0  0  0  0  0  0  0  0  0  0  0  0
   -0.9341   -1.7302   -3.4282 H   0  0  0  0  0  0  0  0  0  0  0  0
   -3.0821   -2.9672   -1.0776 H   0  0  0  0  0  0  0  0  0  0  0  0
   -4.6478   -3.8901    0.5684 H   0  0  0  0  0  0  0  0  0  0  0  0
   -4.7995   -0.1412    2.6055 H   0  0  0  0  0  0  0  0  0  0  0  0
  1  2  1  0
  2  3  1  0
  3  4  1  0
  4  5  1  0
  5  6  2  0
  6  7  1  0
  7  8  2  0
  8  9  1  0
  9 10  1  0
  6 11  1  0
 11 12  2  0
 12 13  1  0
 13 14  1  0
 14 15  1  0
 14 16  2  0
 14 17  2  0
 13 18  2  0
 18 19  1  0
 19 20  2  0
 20 21  1  0
 21 22  1  0
 22 23  1  0
 22 24  1  0
 24 25  2  0
 24 26  1  0
 26 27  2  0
 27 28  1  0
 28 29  2  0
 29 30  1  0
 29 31  1  0
 31 32  2  0
 32  2  1  0
  9  4  2  0
 20 11  1  0
 32 26  1  0
  1 33  1  0
  1 34  1  0
  1 35  1  0
  2 36  1  1
  7 37  1  0
 10 38  1  0
 10 39  1  0
 12 40  1  0
 15 41  1  0
 15 42  1  0
 15 43  1  0
 18 44  1  0
 19 45  1  0
 21 46  1  0
 21 47  1  0
 23 48  1  0
 23 49  1  0
 23 50  1  0
 27 51  1  0
 28 52  1  0
 31 53  1  0
M  END
$$$$
