
     RDKit          3D

108114  0  0  0  0  0  0  0  0999 V2000
    3.3733    6.1979    1.9193 C   0  0  0  0  0  0  0  0  0  0  0  0
    3.8432    5.0928    1.0287 C   0  0  0  0  0  0  0  0  0  0  0  0
    4.0139    5.3175   -0.2012 O   0  0  0  0  0  0  0  0  0  0  0  0
    4.1089    3.7917    1.5750 N   0  0  0  0  0  0  0  0  0  0  0  0
    4.5046    2.6454    0.7530 C   0  0  1  0  0  0  0  0  0  0  0  0
    5.8070    2.0404    1.3090 C   0  0  0  0  0  0  0  0  0  0  0  0
    6.3082    0.9167    0.4393 C   0  0  0  0  0  0  0  0  0  0  0  0
    7.1315    1.1923   -0.6542 C   0  0  0  0  0  0  0  0  0  0  0  0
    7.5631    0.1621   -1.4809 C   0  0  0  0  0  0  0  0  0  0  0  0
    7.1378   -1.1526   -1.2666 C   0  0  0  0  0  0  0  0  0  0  0  0
    7.6129   -2.1390   -2.1316 O   0  0  0  0  0  0  0  0  0  0  0  0
    6.2629   -1.4507   -0.1892 C   0  0  0  0  0  0  0  0  0  0  0  0
    5.8935   -0.4016    0.6820 C   0  0  0  0  0  0  0  0  0  0  0  0
    5.7773   -2.8764    0.0335 C   0  0  0  0  0  0  0  0  0  0  0  0
    4.6174   -3.0157    0.9781 C   0  0  0  0  0  0  0  0  0  0  0  0
    4.6577   -3.5912    2.2445 C   0  0  0  0  0  0  0  0  0  0  0  0
    3.4719   -3.5835    2.9115 N   0  0  0  0  0  0  0  0  0  0  0  0
    2.4901   -2.9998    2.1923 C   0  0  0  0  0  0  0  0  0  0  0  0
    3.0484   -2.4647    0.6907 S   0  0  0  0  0  0  0  0  0  0  0  0
    0.8190   -2.7762    2.8158 S   0  0  0  0  0  0  0  0  0  0  0  0
    0.0630   -3.9223    1.6450 C   0  0  0  0  0  0  0  0  0  0  0  0
   -0.8950   -3.5762    0.7861 C   0  0  0  0  0  0  0  0  0  0  0  0
   -1.6065   -1.9175    0.7009 S   0  0  0  0  0  0  0  0  0  0  0  0
   -0.3115   -1.2434   -0.3958 C   0  0  0  0  0  0  0  0  0  0  0  0
   -0.6765    0.1394   -0.9796 C   0  0  2  0  0  0  0  0  0  0  0  0
    0.4011    0.5579   -1.8981 N   0  0  0  0  0  0  0  0  0  0  0  0
    1.0119    1.8542   -1.9025 C   0  0  0  0  0  0  0  0  0  0  0  0
    0.3355    2.8613   -2.2497 O   0  0  0  0  0  0  0  0  0  0  0  0
    2.4780    1.9990   -1.6106 C   0  0  2  0  0  0  0  0  0  0  0  0
    3.3063    1.6163   -2.8325 C   0  0  0  0  0  0  0  0  0  0  0  0
    2.8416    1.1391   -0.4828 N   0  0  0  0  0  0  0  0  0  0  0  0
    3.3927    1.6263    0.7442 C   0  0  0  0  0  0  0  0  0  0  0  0
    3.0000    1.1228    1.8318 O   0  0  0  0  0  0  0  0  0  0  0  0
   -0.9042    1.1737    0.1095 C   0  0  0  0  0  0  0  0  0  0  0  0
   -0.2340    1.1097    1.1740 O   0  0  0  0  0  0  0  0  0  0  0  0
   -1.6858    2.3512   -0.1352 N   0  0  0  0  0  0  0  0  0  0  0  0
   -3.1500    2.3488   -0.2312 C   0  0  1  0  0  0  0  0  0  0  0  0
   -3.6720    3.8041   -0.1097 C   0  0  0  0  0  0  0  0  0  0  0  0
   -5.1705    3.8747    0.0436 C   0  0  0  0  0  0  0  0  0  0  0  0
   -5.7491    3.9817    1.3188 C   0  0  0  0  0  0  0  0  0  0  0  0
   -7.1346    4.0862    1.4565 C   0  0  0  0  0  0  0  0  0  0  0  0
   -7.9515    4.0747    0.3222 C   0  0  0  0  0  0  0  0  0  0  0  0
   -7.3868    3.9593   -0.9491 C   0  0  0  0  0  0  0  0  0  0  0  0
   -6.0016    3.8649   -1.0904 C   0  0  0  0  0  0  0  0  0  0  0  0
   -3.5828    1.7318   -1.5451 C   0  0  0  0  0  0  0  0  0  0  0  0
   -3.1313    2.2295   -2.6148 O   0  0  0  0  0  0  0  0  0  0  0  0
   -4.5152    0.6352   -1.6404 N   0  0  0  0  0  0  0  0  0  0  0  0
   -4.9075   -0.2409   -0.5334 C   0  0  1  0  0  0  0  0  0  0  0  0
   -6.1190    0.3466    0.1951 C   0  0  0  0  0  0  0  0  0  0  0  0
   -5.2119   -1.6340   -1.0454 C   0  0  0  0  0  0  0  0  0  0  0  0
   -6.4050   -2.0422   -1.1167 O   0  0  0  0  0  0  0  0  0  0  0  0
   -4.1464   -2.4981   -1.4604 N   0  0  0  0  0  0  0  0  0  0  0  0
   -4.2074   -3.9421   -1.2258 C   0  0  1  0  0  0  0  0  0  0  0  0
   -3.2485   -4.6969   -2.1582 C   0  0  0  0  0  0  0  0  0  0  0  0
   -1.4862   -4.3644   -1.7879 S   0  0  0  0  0  0  0  0  0  0  0  0
   -1.4363   -4.7582    0.0257 C   0  0  2  0  0  0  0  0  0  0  0  0
   -2.8131   -5.1838    0.6043 C   0  0  0  0  0  0  0  0  0  0  0  0
   -3.9082   -4.2316    0.2240 C   0  0  0  0  0  0  0  0  0  0  0  0
   -4.5918   -3.7202    1.0983 O   0  0  0  0  0  0  0  0  0  0  0  0
   -0.3567   -5.8437    0.3282 C   0  0  0  0  0  0  0  0  0  0  0  0
   -0.8873   -7.1180    0.4595 F   0  0  0  0  0  0  0  0  0  0  0  0
    0.6084   -5.8841   -0.6668 F   0  0  0  0  0  0  0  0  0  0  0  0
    0.3085   -5.3914    1.6336 C   0  0  0  0  0  0  0  0  0  0  0  0
    1.6605   -5.6834    1.6386 F   0  0  0  0  0  0  0  0  0  0  0  0
   -0.3004   -5.9781    2.7316 F   0  0  0  0  0  0  0  0  0  0  0  0
    2.9770    7.0408    1.3161 H   0  0  0  0  0  0  0  0  0  0  0  0
    2.5658    5.8382    2.5871 H   0  0  0  0  0  0  0  0  0  0  0  0
    4.2195    6.5589    2.5453 H   0  0  0  0  0  0  0  0  0  0  0  0
    3.9545    3.6373    2.5947 H   0  0  0  0  0  0  0  0  0  0  0  0
    4.7176    2.9752   -0.2840 H   0  0  0  0  0  0  0  0  0  0  0  0
    6.5896    2.8326    1.3670 H   0  0  0  0  0  0  0  0  0  0  0  0
    5.6396    1.6673    2.3412 H   0  0  0  0  0  0  0  0  0  0  0  0
    7.4444    2.2070   -0.8645 H   0  0  0  0  0  0  0  0  0  0  0  0
    8.2226    0.3888   -2.3115 H   0  0  0  0  0  0  0  0  0  0  0  0
    7.4096   -3.1164   -2.0213 H   0  0  0  0  0  0  0  0  0  0  0  0
    5.2490   -0.5847    1.5205 H   0  0  0  0  0  0  0  0  0  0  0  0
    5.4324   -3.2902   -0.9307 H   0  0  0  0  0  0  0  0  0  0  0  0
    6.6296   -3.4982    0.3860 H   0  0  0  0  0  0  0  0  0  0  0  0
    5.5505   -4.0222    2.6824 H   0  0  0  0  0  0  0  0  0  0  0  0
   -0.1296   -1.9487   -1.2319 H   0  0  0  0  0  0  0  0  0  0  0  0
    0.6210   -1.1631    0.1909 H   0  0  0  0  0  0  0  0  0  0  0  0
   -1.6050    0.0054   -1.5712 H   0  0  0  0  0  0  0  0  0  0  0  0
    0.8191   -0.1635   -2.5389 H   0  0  0  0  0  0  0  0  0  0  0  0
    2.6728    3.0581   -1.3601 H   0  0  0  0  0  0  0  0  0  0  0  0
    3.0276    2.2579   -3.6970 H   0  0  0  0  0  0  0  0  0  0  0  0
    3.1362    0.5493   -3.0969 H   0  0  0  0  0  0  0  0  0  0  0  0
    4.3871    1.7482   -2.6073 H   0  0  0  0  0  0  0  0  0  0  0  0
    2.5807    0.1270   -0.5252 H   0  0  0  0  0  0  0  0  0  0  0  0
   -1.2014    3.2620    0.0521 H   0  0  0  0  0  0  0  0  0  0  0  0
   -3.5435    1.7879    0.6370 H   0  0  0  0  0  0  0  0  0  0  0  0
   -3.2030    4.3005    0.7688 H   0  0  0  0  0  0  0  0  0  0  0  0
   -3.3670    4.3965   -1.0008 H   0  0  0  0  0  0  0  0  0  0  0  0
   -5.1227    3.9776    2.2034 H   0  0  0  0  0  0  0  0  0  0  0  0
   -7.5760    4.1692    2.4382 H   0  0  0  0  0  0  0  0  0  0  0  0
   -9.0214    4.1694    0.4285 H   0  0  0  0  0  0  0  0  0  0  0  0
   -8.0203    3.9456   -1.8295 H   0  0  0  0  0  0  0  0  0  0  0  0
   -5.5736    3.7869   -2.0829 H   0  0  0  0  0  0  0  0  0  0  0  0
   -4.9446    0.4585   -2.5856 H   0  0  0  0  0  0  0  0  0  0  0  0
   -4.0687   -0.3397    0.1883 H   0  0  0  0  0  0  0  0  0  0  0  0
   -5.8719    1.3196    0.6464 H   0  0  0  0  0  0  0  0  0  0  0  0
   -6.4412   -0.3332    1.0092 H   0  0  0  0  0  0  0  0  0  0  0  0
   -6.9577    0.4849   -0.5199 H   0  0  0  0  0  0  0  0  0  0  0  0
   -3.2972   -2.0610   -1.8843 H   0  0  0  0  0  0  0  0  0  0  0  0
   -5.2411   -4.3043   -1.4411 H   0  0  0  0  0  0  0  0  0  0  0  0
   -3.4424   -4.4012   -3.2084 H   0  0  0  0  0  0  0  0  0  0  0  0
   -3.4370   -5.7879   -2.0891 H   0  0  0  0  0  0  0  0  0  0  0  0
   -3.0947   -6.1878    0.2151 H   0  0  0  0  0  0  0  0  0  0  0  0
   -2.7524   -5.2717    1.7138 H   0  0  0  0  0  0  0  0  0  0  0  0
  1  2  1  0
  2  3  2  0
  2  4  1  0
  4  5  1  0
  5  6  1  0
  6  7  1  0
  7  8  1  0
  8  9  2  0
  9 10  1  0
 10 11  1  0
 10 12  2  0
 12 13  1  0
 12 14  1  0
 14 15  1  0
 15 16  2  0
 16 17  1  0
 17 18  2  0
 18 19  1  0
 18 20  1  0
 20 21  1  0
 21 22  2  0
 22 23  1  0
 23 24  1  0
 24 25  1  0
 25 26  1  0
 26 27  1  0
 27 28  2  0
 27 29  1  0
 29 30  1  0
 29 31  1  0
 31 32  1  0
 32 33  2  0
 25 34  1  0
 34 35  2  0
 34 36  1  0
 36 37  1  0
 37 38  1  0
 38 39  1  0
 39 40  2  0
 40 41  1  0
 41 42  2  0
 42 43  1  0
 43 44  2  0
 37 45  1  0
 45 46  2  0
 45 47  1  0
 47 48  1  0
 48 49  1  0
 48 50  1  0
 50 51  2  0
 50 52  1  0
 52 53  1  0
 53 54  1  0
 54 55  1  0
 55 56  1  0
 56 57  1  0
 57 58  1  0
 58 59  2  0
 56 60  1  6
 60 61  1  0
 60 62  1  0
 60 63  1  0
 63 64  1  0
 63 65  1  0
 32  5  1  0
 44 39  1  0
 58 53  1  0
 13  7  2  0
 19 15  1  0
 63 21  1  0
 56 22  1  0
  1 66  1  0
  1 67  1  0
  1 68  1  0
  4 69  1  0
  5 70  1  6
  6 71  1  0
  6 72  1  0
  8 73  1  0
  9 74  1  0
 11 75  1  0
 13 76  1  0
 14 77  1  0
 14 78  1  0
 16 79  1  0
 24 80  1  0
 24 81  1  0
 25 82  1  6
 26 83  1  0
 29 84  1  1
 30 85  1  0
 30 86  1  0
 30 87  1  0
 31 88  1  0
 36 89  1  0
 37 90  1  1
 38 91  1  0
 38 92  1  0
 40 93  1  0
 41 94  1  0
 42 95  1  0
 43 96  1  0
 44 97  1  0
 47 98  1  0
 48 99  1  1
 49100  1  0
 49101  1  0
 49102  1  0
 52103  1  0
 53104  1  6
 54105  1  0
 54106  1  0
 57107  1  0
 57108  1  0
M  END
$$$$
