
     RDKit          3D

 73 77  0  0  0  0  0  0  0  0999 V2000
    1.5262   -5.3536    0.9132 C   0  0  0  0  0  0  0  0  0  0  0  0
    1.4398   -3.9294    0.5818 N   0  0  0  0  0  0  0  0  0  0  0  0
    0.7073   -3.0228    1.4816 C   0  0  0  0  0  0  0  0  0  0  0  0
   -0.7988   -3.0158    1.1569 C   0  0  2  0  0  0  0  0  0  0  0  0
   -1.0025   -3.2070   -0.1992 F   0  0  0  0  0  0  0  0  0  0  0  0
   -1.4523   -1.6952    1.5968 C   0  0  0  0  0  0  0  0  0  0  0  0
   -2.9276   -1.6247    1.1884 C   0  0  0  0  0  0  0  0  0  0  0  0
   -3.5158   -0.3444    1.6612 N   0  0  0  0  0  0  0  0  0  0  0  0
   -4.2646   -0.5727    2.9129 C   0  0  0  0  0  0  0  0  0  0  0  0
   -4.3238    0.3067    0.5872 C   0  0  1  0  0  0  0  0  0  0  0  0
   -5.1833    1.4915    1.0596 C   0  0  0  0  0  0  0  0  0  0  0  0
   -4.2529    2.6935    1.1073 C   0  0  0  0  0  0  0  0  0  0  0  0
   -3.0863    2.3639    0.1664 C   0  0  1  0  0  0  0  0  0  0  0  0
   -3.3863    0.9832   -0.4196 C   0  0  0  0  0  0  0  0  0  0  0  0
   -2.9310    3.3643   -0.8969 N   0  0  0  0  0  0  0  0  0  0  0  0
   -1.6815    3.5668   -1.5692 C   0  0  0  0  0  0  0  0  0  0  0  0
   -1.5453    4.5867   -2.4536 N   0  0  0  0  0  0  0  0  0  0  0  0
   -0.3628    4.8210   -3.0786 C   0  0  0  0  0  0  0  0  0  0  0  0
    0.7524    4.0025   -2.8271 C   0  0  0  0  0  0  0  0  0  0  0  0
    2.0714    4.2718   -3.5207 C   0  0  0  0  0  0  0  0  0  0  0  0
    2.9226    4.9285   -2.6522 F   0  0  0  0  0  0  0  0  0  0  0  0
    1.8941    5.0613   -4.6443 F   0  0  0  0  0  0  0  0  0  0  0  0
    2.6573    3.0856   -3.9257 F   0  0  0  0  0  0  0  0  0  0  0  0
    0.5910    2.9603   -1.8865 C   0  0  0  0  0  0  0  0  0  0  0  0
   -0.6179    2.7694   -1.2981 N   0  0  0  0  0  0  0  0  0  0  0  0
    1.6875    2.0656   -1.4853 C   0  0  0  0  0  0  0  0  0  0  0  0
    2.8164    2.4162   -0.7593 C   0  0  0  0  0  0  0  0  0  0  0  0
    3.4629    1.3086   -0.3320 N   0  0  0  0  0  0  0  0  0  0  0  0
    2.7475    0.2511   -0.7687 C   0  0  0  0  0  0  0  0  0  0  0  0
    2.9601   -1.1177   -0.5068 C   0  0  0  0  0  0  0  0  0  0  0  0
    4.3860   -1.6679    0.4790 P   0  0  0  0  0  5  0  0  0  0  0  0
    5.9425   -1.1160   -0.2801 C   0  0  0  0  0  0  0  0  0  0  0  0
    4.2548   -1.0377    2.1778 C   0  0  0  0  0  0  0  0  0  0  0  0
    4.4493   -3.1758    0.5578 O   0  0  0  0  0  0  0  0  0  0  0  0
    1.9871   -2.0290   -1.0206 C   0  0  0  0  0  0  0  0  0  0  0  0
    0.9094   -1.5553   -1.8051 C   0  0  0  0  0  0  0  0  0  0  0  0
    0.7231   -0.1866   -2.0200 C   0  0  0  0  0  0  0  0  0  0  0  0
    1.6554    0.6880   -1.4780 C   0  0  0  0  0  0  0  0  0  0  0  0
    1.9883   -3.4613   -0.6726 C   0  0  0  0  0  0  0  0  0  0  0  0
    2.4648   -4.2828   -1.5021 O   0  0  0  0  0  0  0  0  0  0  0  0
    1.0392   -5.9550    0.1169 H   0  0  0  0  0  0  0  0  0  0  0  0
    2.5918   -5.6528    0.9998 H   0  0  0  0  0  0  0  0  0  0  0  0
    1.0180   -5.5769    1.8755 H   0  0  0  0  0  0  0  0  0  0  0  0
    1.1313   -1.9994    1.4208 H   0  0  0  0  0  0  0  0  0  0  0  0
    0.8516   -3.3360    2.5387 H   0  0  0  0  0  0  0  0  0  0  0  0
   -1.2826   -3.8610    1.6934 H   0  0  0  0  0  0  0  0  0  0  0  0
   -0.9169   -0.8398    1.1279 H   0  0  0  0  0  0  0  0  0  0  0  0
   -1.3674   -1.5964    2.7008 H   0  0  0  0  0  0  0  0  0  0  0  0
   -2.9854   -1.7220    0.0813 H   0  0  0  0  0  0  0  0  0  0  0  0
   -3.4737   -2.5090    1.5919 H   0  0  0  0  0  0  0  0  0  0  0  0
   -5.2670   -1.0085    2.7067 H   0  0  0  0  0  0  0  0  0  0  0  0
   -4.3631    0.3789    3.4747 H   0  0  0  0  0  0  0  0  0  0  0  0
   -3.7103   -1.2580    3.5913 H   0  0  0  0  0  0  0  0  0  0  0  0
   -4.9777   -0.4425    0.0834 H   0  0  0  0  0  0  0  0  0  0  0  0
   -5.9633    1.6833    0.2887 H   0  0  0  0  0  0  0  0  0  0  0  0
   -5.7243    1.3411    2.0138 H   0  0  0  0  0  0  0  0  0  0  0  0
   -3.8734    2.8241    2.1448 H   0  0  0  0  0  0  0  0  0  0  0  0
   -4.7989    3.6180    0.8193 H   0  0  0  0  0  0  0  0  0  0  0  0
   -2.1554    2.3118    0.7762 H   0  0  0  0  0  0  0  0  0  0  0  0
   -2.4457    0.4198   -0.5967 H   0  0  0  0  0  0  0  0  0  0  0  0
   -3.9173    1.0862   -1.3927 H   0  0  0  0  0  0  0  0  0  0  0  0
   -3.7423    3.9629   -1.1744 H   0  0  0  0  0  0  0  0  0  0  0  0
   -0.2977    5.6507   -3.7697 H   0  0  0  0  0  0  0  0  0  0  0  0
    3.1089    3.4228   -0.4923 H   0  0  0  0  0  0  0  0  0  0  0  0
    4.3098    1.3085    0.2723 H   0  0  0  0  0  0  0  0  0  0  0  0
    5.9710   -1.4456   -1.3389 H   0  0  0  0  0  0  0  0  0  0  0  0
    6.0371   -0.0149   -0.2386 H   0  0  0  0  0  0  0  0  0  0  0  0
    6.7955   -1.5695    0.2646 H   0  0  0  0  0  0  0  0  0  0  0  0
    5.0846   -1.4491    2.7888 H   0  0  0  0  0  0  0  0  0  0  0  0
    4.3128    0.0676    2.1893 H   0  0  0  0  0  0  0  0  0  0  0  0
    3.2868   -1.3561    2.6166 H   0  0  0  0  0  0  0  0  0  0  0  0
    0.1862   -2.2487   -2.2156 H   0  0  0  0  0  0  0  0  0  0  0  0
   -0.1269    0.1751   -2.5845 H   0  0  0  0  0  0  0  0  0  0  0  0
  1  2  1  0
  2  3  1  0
  3  4  1  0
  4  5  1  0
  4  6  1  0
  6  7  1  0
  7  8  1  0
  8  9  1  0
  8 10  1  0
 10 11  1  0
 11 12  1  0
 12 13  1  0
 13 14  1  0
 13 15  1  0
 15 16  1  0
 16 17  2  0
 17 18  1  0
 18 19  2  0
 19 20  1  0
 20 21  1  0
 20 22  1  0
 20 23  1  0
 19 24  1  0
 24 25  2  0
 24 26  1  0
 26 27  2  0
 27 28  1  0
 28 29  1  0
 29 30  2  0
 30 31  1  0
 31 32  1  0
 31 33  1  0
 31 34  2  0
 30 35  1  0
 35 36  2  0
 36 37  1  0
 37 38  2  0
 35 39  1  0
 39 40  2  0
 39  2  1  0
 14 10  1  0
 25 16  1  0
 38 26  1  0
 38 29  1  0
  1 41  1  0
  1 42  1  0
  1 43  1  0
  3 44  1  0
  3 45  1  0
  4 46  1  1
  6 47  1  0
  6 48  1  0
  7 49  1  0
  7 50  1  0
  9 51  1  0
  9 52  1  0
  9 53  1  0
 10 54  1  6
 11 55  1  0
 11 56  1  0
 12 57  1  0
 12 58  1  0
 13 59  1  1
 14 60  1  0
 14 61  1  0
 15 62  1  0
 18 63  1  0
 27 64  1  0
 28 65  1  0
 32 66  1  0
 32 67  1  0
 32 68  1  0
 33 69  1  0
 33 70  1  0
 33 71  1  0
 36 72  1  0
 37 73  1  0
M  END
$$$$
