
     RDKit          3D

112117  0  0  0  0  0  0  0  0999 V2000
   -7.5234   -3.3616   -0.3283 C   0  0  0  0  0  0  0  0  0  0  0  0
   -6.8880   -2.7617   -1.5779 C   0  0  0  0  0  0  0  0  0  0  0  0
   -5.7272   -1.9343   -1.2284 N   0  0  0  0  0  0  0  0  0  0  0  0
   -5.7334   -0.6165   -0.8989 C   0  0  0  0  0  0  0  0  0  0  0  0
   -6.9557    0.1917   -0.7577 C   0  0  0  0  0  0  0  0  0  0  0  0
   -7.5645    0.7202   -1.9018 C   0  0  0  0  0  0  0  0  0  0  0  0
   -8.6899    1.5375   -1.7876 C   0  0  0  0  0  0  0  0  0  0  0  0
   -9.2079    1.8091   -0.5258 C   0  0  0  0  0  0  0  0  0  0  0  0
   -8.6184    1.2731    0.5770 N   0  0  0  0  0  0  0  0  0  0  0  0
   -7.5295    0.4567    0.5075 C   0  0  0  0  0  0  0  0  0  0  0  0
   -6.9580   -0.1151    1.7937 C   0  0  2  0  0  0  0  0  0  0  0  0
   -8.0863   -0.4374    2.7816 C   0  0  0  0  0  0  0  0  0  0  0  0
   -6.0841    0.8432    2.3617 O   0  0  0  0  0  0  0  0  0  0  0  0
   -5.0235    0.2099    3.0445 C   0  0  0  0  0  0  0  0  0  0  0  0
   -4.4504   -0.1911   -0.5380 C   0  0  0  0  0  0  0  0  0  0  0  0
   -3.6617   -1.3269   -0.5945 C   0  0  0  0  0  0  0  0  0  0  0  0
   -2.3277   -1.5295   -0.2514 C   0  0  0  0  0  0  0  0  0  0  0  0
   -1.7595   -2.8085   -0.4360 C   0  0  0  0  0  0  0  0  0  0  0  0
   -2.5864   -3.8642   -0.9011 C   0  0  0  0  0  0  0  0  0  0  0  0
   -3.9472   -3.6451   -1.1847 C   0  0  0  0  0  0  0  0  0  0  0  0
   -4.4617   -2.3558   -1.0316 C   0  0  0  0  0  0  0  0  0  0  0  0
   -0.3150   -3.0043   -0.1440 C   0  0  0  0  0  0  0  0  0  0  0  0
    0.4061   -4.1650   -0.4441 C   0  0  0  0  0  0  0  0  0  0  0  0
    2.0008   -3.9145    0.0217 S   0  0  0  0  0  0  0  0  0  0  0  0
    1.7234   -2.3542    0.5801 C   0  0  0  0  0  0  0  0  0  0  0  0
    0.4239   -2.0210    0.4303 N   0  0  0  0  0  0  0  0  0  0  0  0
    2.7393   -1.4551    1.2182 C   0  0  0  0  0  0  0  0  0  0  0  0
    3.8816   -1.0837    0.2564 C   0  0  2  0  0  0  0  0  0  0  0  0
    4.9204   -0.3410    0.9769 N   0  0  0  0  0  0  0  0  0  0  0  0
    6.3182   -0.4905    0.6675 C   0  0  0  0  0  0  0  0  0  0  0  0
    6.6672   -1.0524   -0.4032 O   0  0  0  0  0  0  0  0  0  0  0  0
    7.3668    0.0065    1.6353 C   0  0  2  0  0  0  0  0  0  0  0  0
    8.1462    1.2362    1.0902 C   0  0  0  0  0  0  0  0  0  0  0  0
    9.2872    1.6377    2.0376 C   0  0  0  0  0  0  0  0  0  0  0  0
    7.2076    2.4372    0.8803 C   0  0  0  0  0  0  0  0  0  0  0  0
    8.2522   -1.1104    2.0505 N   0  0  0  0  0  0  0  0  0  0  0  0
    8.1099   -1.6765    3.3992 C   0  0  0  0  0  0  0  0  0  0  0  0
    9.2561   -1.6875    1.1845 C   0  0  0  0  0  0  0  0  0  0  0  0
   10.0347   -2.5779    1.6321 O   0  0  0  0  0  0  0  0  0  0  0  0
    9.3774   -1.2746   -0.1447 O   0  0  0  0  0  0  0  0  0  0  0  0
   10.3835   -1.7737   -1.0165 C   0  0  0  0  0  0  0  0  0  0  0  0
    3.4043   -0.2914   -0.9353 C   0  0  0  0  0  0  0  0  0  0  0  0
    3.1768   -0.8965   -2.0150 O   0  0  0  0  0  0  0  0  0  0  0  0
    3.1833    1.1254   -0.8622 N   0  0  0  0  0  0  0  0  0  0  0  0
    3.6841    2.0068   -1.9252 C   0  0  0  0  0  0  0  0  0  0  0  0
    2.7813    3.2321   -2.0842 C   0  0  0  0  0  0  0  0  0  0  0  0
    1.3563    2.8717   -1.6711 C   0  0  0  0  0  0  0  0  0  0  0  0
    1.3217    2.4746   -0.1756 C   0  0  2  0  0  0  0  0  0  0  0  0
    2.5055    1.6832    0.2480 N   0  0  0  0  0  0  0  0  0  0  0  0
    0.0433    1.7476    0.1713 C   0  0  0  0  0  0  0  0  0  0  0  0
    0.0597    0.8484    1.0505 O   0  0  0  0  0  0  0  0  0  0  0  0
   -1.1867    2.2286   -0.2781 O   0  0  0  0  0  0  0  0  0  0  0  0
   -1.8062    1.7372   -1.4698 C   0  0  0  0  0  0  0  0  0  0  0  0
   -3.3367    1.9930   -1.4391 C   0  0  0  0  0  0  0  0  0  0  0  0
   -3.5751    3.5106   -1.2486 C   0  0  0  0  0  0  0  0  0  0  0  0
   -3.9419    1.5834   -2.8051 C   0  0  0  0  0  0  0  0  0  0  0  0
   -4.0179    1.2317   -0.2420 C   0  0  0  0  0  0  0  0  0  0  0  0
   -8.3710   -4.0154   -0.6254 H   0  0  0  0  0  0  0  0  0  0  0  0
   -6.7778   -3.9673    0.2279 H   0  0  0  0  0  0  0  0  0  0  0  0
   -7.9151   -2.5568    0.3254 H   0  0  0  0  0  0  0  0  0  0  0  0
   -7.6412   -2.1445   -2.1175 H   0  0  0  0  0  0  0  0  0  0  0  0
   -6.5775   -3.5762   -2.2708 H   0  0  0  0  0  0  0  0  0  0  0  0
   -7.1538    0.5139   -2.8805 H   0  0  0  0  0  0  0  0  0  0  0  0
   -9.1577    1.9530   -2.6744 H   0  0  0  0  0  0  0  0  0  0  0  0
  -10.0832    2.4408   -0.4170 H   0  0  0  0  0  0  0  0  0  0  0  0
   -6.4489   -1.0814    1.5508 H   0  0  0  0  0  0  0  0  0  0  0  0
   -8.8677   -1.0509    2.2761 H   0  0  0  0  0  0  0  0  0  0  0  0
   -7.6945   -1.0217    3.6433 H   0  0  0  0  0  0  0  0  0  0  0  0
   -8.5518    0.4998    3.1575 H   0  0  0  0  0  0  0  0  0  0  0  0
   -4.3987    0.9886    3.5334 H   0  0  0  0  0  0  0  0  0  0  0  0
   -4.3561   -0.3512    2.3389 H   0  0  0  0  0  0  0  0  0  0  0  0
   -5.3978   -0.4652    3.8459 H   0  0  0  0  0  0  0  0  0  0  0  0
   -1.7565   -0.7105    0.1601 H   0  0  0  0  0  0  0  0  0  0  0  0
   -2.1950   -4.8641   -1.0201 H   0  0  0  0  0  0  0  0  0  0  0  0
   -4.5632   -4.4691   -1.5082 H   0  0  0  0  0  0  0  0  0  0  0  0
    0.0362   -5.0676   -0.8913 H   0  0  0  0  0  0  0  0  0  0  0  0
    3.1626   -1.9788    2.1018 H   0  0  0  0  0  0  0  0  0  0  0  0
    2.2420   -0.5323    1.5835 H   0  0  0  0  0  0  0  0  0  0  0  0
    4.3241   -2.0332   -0.1138 H   0  0  0  0  0  0  0  0  0  0  0  0
    4.6404    0.3427    1.7147 H   0  0  0  0  0  0  0  0  0  0  0  0
    6.8245    0.3752    2.5349 H   0  0  0  0  0  0  0  0  0  0  0  0
    8.5892    0.9933    0.1030 H   0  0  0  0  0  0  0  0  0  0  0  0
    8.8977    1.8645    3.0549 H   0  0  0  0  0  0  0  0  0  0  0  0
    9.8152    2.5312    1.6485 H   0  0  0  0  0  0  0  0  0  0  0  0
   10.0436    0.8318    2.1112 H   0  0  0  0  0  0  0  0  0  0  0  0
    6.7378    2.7408    1.8416 H   0  0  0  0  0  0  0  0  0  0  0  0
    7.7766    3.3018    0.4696 H   0  0  0  0  0  0  0  0  0  0  0  0
    6.4077    2.1835    0.1518 H   0  0  0  0  0  0  0  0  0  0  0  0
    7.2655   -1.2231    3.9606 H   0  0  0  0  0  0  0  0  0  0  0  0
    7.9136   -2.7697    3.3335 H   0  0  0  0  0  0  0  0  0  0  0  0
    9.0443   -1.5119    3.9760 H   0  0  0  0  0  0  0  0  0  0  0  0
   11.3948   -1.5162   -0.6253 H   0  0  0  0  0  0  0  0  0  0  0  0
   10.2933   -2.8759   -1.1126 H   0  0  0  0  0  0  0  0  0  0  0  0
   10.2547   -1.3218   -2.0246 H   0  0  0  0  0  0  0  0  0  0  0  0
    4.7199    2.3285   -1.6731 H   0  0  0  0  0  0  0  0  0  0  0  0
    3.7190    1.4603   -2.8943 H   0  0  0  0  0  0  0  0  0  0  0  0
    2.7992    3.5783   -3.1419 H   0  0  0  0  0  0  0  0  0  0  0  0
    3.1561    4.0598   -1.4429 H   0  0  0  0  0  0  0  0  0  0  0  0
    1.0130    2.0254   -2.3048 H   0  0  0  0  0  0  0  0  0  0  0  0
    0.6800    3.7392   -1.8484 H   0  0  0  0  0  0  0  0  0  0  0  0
    1.3049    3.4216    0.4131 H   0  0  0  0  0  0  0  0  0  0  0  0
    3.1801    2.3199    0.7426 H   0  0  0  0  0  0  0  0  0  0  0  0
   -1.5813    0.6568   -1.6182 H   0  0  0  0  0  0  0  0  0  0  0  0
   -1.3581    2.2618   -2.3370 H   0  0  0  0  0  0  0  0  0  0  0  0
   -3.0115    4.0944   -2.0080 H   0  0  0  0  0  0  0  0  0  0  0  0
   -3.2433    3.8368   -0.2400 H   0  0  0  0  0  0  0  0  0  0  0  0
   -4.6524    3.7635   -1.3609 H   0  0  0  0  0  0  0  0  0  0  0  0
   -3.7849    0.5005   -2.9982 H   0  0  0  0  0  0  0  0  0  0  0  0
   -3.4500    2.1466   -3.6240 H   0  0  0  0  0  0  0  0  0  0  0  0
   -5.0265    1.8215   -2.8356 H   0  0  0  0  0  0  0  0  0  0  0  0
   -3.3523    1.2245    0.6460 H   0  0  0  0  0  0  0  0  0  0  0  0
   -4.9228    1.7896    0.0855 H   0  0  0  0  0  0  0  0  0  0  0  0
  1  2  1  0
  2  3  1  0
  3  4  1  0
  4  5  1  0
  5  6  2  0
  6  7  1  0
  7  8  2  0
  8  9  1  0
  9 10  2  0
 10 11  1  0
 11 12  1  0
 11 13  1  0
 13 14  1  0
  4 15  2  0
 15 16  1  0
 16 17  2  0
 17 18  1  0
 18 19  2  0
 19 20  1  0
 20 21  2  0
 18 22  1  0
 22 23  2  0
 23 24  1  0
 24 25  1  0
 25 26  2  0
 25 27  1  0
 27 28  1  0
 28 29  1  0
 29 30  1  0
 30 31  2  0
 30 32  1  0
 32 33  1  0
 33 34  1  0
 33 35  1  0
 32 36  1  0
 36 37  1  0
 36 38  1  0
 38 39  2  0
 38 40  1  0
 40 41  1  0
 28 42  1  0
 42 43  2  0
 42 44  1  0
 44 45  1  0
 45 46  1  0
 46 47  1  0
 47 48  1  0
 48 49  1  0
 48 50  1  0
 50 51  2  0
 50 52  1  0
 52 53  1  0
 53 54  1  0
 54 55  1  0
 54 56  1  0
 54 57  1  0
 21  3  1  0
 26 22  1  0
 49 44  1  0
 10  5  1  0
 57 15  1  0
 21 16  1  0
  1 58  1  0
  1 59  1  0
  1 60  1  0
  2 61  1  0
  2 62  1  0
  6 63  1  0
  7 64  1  0
  8 65  1  0
 11 66  1  6
 12 67  1  0
 12 68  1  0
 12 69  1  0
 14 70  1  0
 14 71  1  0
 14 72  1  0
 17 73  1  0
 19 74  1  0
 20 75  1  0
 23 76  1  0
 27 77  1  0
 27 78  1  0
 28 79  1  6
 29 80  1  0
 32 81  1  1
 33 82  1  0
 34 83  1  0
 34 84  1  0
 34 85  1  0
 35 86  1  0
 35 87  1  0
 35 88  1  0
 37 89  1  0
 37 90  1  0
 37 91  1  0
 41 92  1  0
 41 93  1  0
 41 94  1  0
 45 95  1  0
 45 96  1  0
 46 97  1  0
 46 98  1  0
 47 99  1  0
 47100  1  0
 48101  1  1
 49102  1  0
 53103  1  0
 53104  1  0
 55105  1  0
 55106  1  0
 55107  1  0
 56108  1  0
 56109  1  0
 56110  1  0
 57111  1  0
 57112  1  0
M  END
$$$$
