
     RDKit          3D

 83 85  0  0  0  0  0  0  0  0999 V2000
    4.9280   -2.1982    0.9323 C   0  0  0  0  0  0  0  0  0  0  0  0
    4.7366   -0.7077    1.2276 C   0  0  0  0  0  0  0  0  0  0  0  0
    3.9619    0.0767    0.1379 C   0  0  2  0  0  0  0  0  0  0  0  0
    2.6574   -0.5200   -0.2080 N   0  0  0  0  0  0  0  0  0  0  0  0
    1.6799   -0.4592    0.8922 C   0  0  0  0  0  0  0  0  0  0  0  0
    0.2826   -0.0942    0.3584 C   0  0  0  0  0  0  0  0  0  0  0  0
   -0.2601   -1.1320   -0.6557 C   0  0  0  0  0  0  0  0  0  0  0  0
   -0.9315   -2.2642    0.0747 C   0  0  0  0  0  0  0  0  0  0  0  0
   -0.2220   -3.4124    0.4524 C   0  0  0  0  0  0  0  0  0  0  0  0
   -0.7934   -4.3281    1.3422 C   0  0  0  0  0  0  0  0  0  0  0  0
   -2.0662   -4.0976    1.8727 C   0  0  0  0  0  0  0  0  0  0  0  0
   -2.7893   -2.9587    1.4842 C   0  0  0  0  0  0  0  0  0  0  0  0
   -2.2283   -2.0698    0.5623 C   0  0  0  0  0  0  0  0  0  0  0  0
   -4.0856   -2.5800    2.1499 C   0  0  0  0  0  0  0  0  0  0  0  0
   -3.8313   -1.5464    3.2774 C   0  0  0  0  0  0  0  0  0  0  0  0
   -4.9601   -0.4934    3.3939 C   0  0  0  0  0  0  0  0  0  0  0  0
   -4.4995    0.9323    3.0353 C   0  0  0  0  0  0  0  0  0  0  0  0
   -3.9815    1.0646    1.6224 C   0  0  0  0  0  0  0  0  0  0  0  0
   -2.6634    1.5004    1.3856 C   0  0  0  0  0  0  0  0  0  0  0  0
   -2.1989    1.6656    0.0708 C   0  0  0  0  0  0  0  0  0  0  0  0
   -3.0578    1.4199   -1.0054 C   0  0  0  0  0  0  0  0  0  0  0  0
   -4.3666    0.9878   -0.7816 C   0  0  0  0  0  0  0  0  0  0  0  0
   -5.2390    0.7492   -1.8913 N   0  0  0  0  0  0  0  0  0  0  0  0
   -5.6941   -0.6102   -2.1770 C   0  0  0  0  0  0  0  0  0  0  0  0
   -5.8309    2.0896   -2.8257 S   0  0  0  0  0  6  0  0  0  0  0  0
   -7.3937    2.6169   -2.1627 C   0  0  0  0  0  0  0  0  0  0  0  0
   -6.0025    1.6757   -4.2621 O   0  0  0  0  0  0  0  0  0  0  0  0
   -4.8551    3.2316   -2.7664 O   0  0  0  0  0  0  0  0  0  0  0  0
   -4.8281    0.8108    0.5303 C   0  0  0  0  0  0  0  0  0  0  0  0
   -0.8284    2.1415   -0.1984 C   0  0  0  0  0  0  0  0  0  0  0  0
   -0.6502    3.3648   -0.4536 O   0  0  0  0  0  0  0  0  0  0  0  0
    0.2961    1.2451   -0.2339 N   0  0  0  0  0  0  0  0  0  0  0  0
    4.7933    0.2479   -1.1091 C   0  0  0  0  0  0  0  0  0  0  0  0
    4.7950   -0.6486   -1.9970 O   0  0  0  0  0  0  0  0  0  0  0  0
    5.6104    1.4197   -1.2595 N   0  0  0  0  0  0  0  0  0  0  0  0
    6.3051    1.7534   -2.5040 C   0  0  0  0  0  0  0  0  0  0  0  0
    7.8222    1.9208   -2.2863 C   0  0  0  0  0  0  0  0  0  0  0  0
    8.1461    3.1155   -1.3744 C   0  0  0  0  0  0  0  0  0  0  0  0
    8.4576    0.6331   -1.7432 C   0  0  0  0  0  0  0  0  0  0  0  0
    3.9589   -2.7388    1.0030 H   0  0  0  0  0  0  0  0  0  0  0  0
    5.6167   -2.6311    1.6854 H   0  0  0  0  0  0  0  0  0  0  0  0
    5.3697   -2.3556   -0.0706 H   0  0  0  0  0  0  0  0  0  0  0  0
    5.7397   -0.2435    1.3559 H   0  0  0  0  0  0  0  0  0  0  0  0
    4.2099   -0.6052    2.2024 H   0  0  0  0  0  0  0  0  0  0  0  0
    3.7803    1.0997    0.5379 H   0  0  0  0  0  0  0  0  0  0  0  0
    2.7692   -1.5096   -0.5249 H   0  0  0  0  0  0  0  0  0  0  0  0
    1.6322   -1.4370    1.4186 H   0  0  0  0  0  0  0  0  0  0  0  0
    1.9644    0.3027    1.6563 H   0  0  0  0  0  0  0  0  0  0  0  0
   -0.3867   -0.0654    1.2495 H   0  0  0  0  0  0  0  0  0  0  0  0
   -1.0153   -0.6432   -1.3097 H   0  0  0  0  0  0  0  0  0  0  0  0
    0.5349   -1.5147   -1.3310 H   0  0  0  0  0  0  0  0  0  0  0  0
    0.7887   -3.5717    0.0955 H   0  0  0  0  0  0  0  0  0  0  0  0
   -0.2290   -5.1975    1.6478 H   0  0  0  0  0  0  0  0  0  0  0  0
   -2.4735   -4.7835    2.6055 H   0  0  0  0  0  0  0  0  0  0  0  0
   -2.7756   -1.1747    0.2905 H   0  0  0  0  0  0  0  0  0  0  0  0
   -4.5830   -3.4797    2.5767 H   0  0  0  0  0  0  0  0  0  0  0  0
   -4.7720   -2.1739    1.3719 H   0  0  0  0  0  0  0  0  0  0  0  0
   -2.8494   -1.0366    3.1440 H   0  0  0  0  0  0  0  0  0  0  0  0
   -3.7444   -2.0972    4.2395 H   0  0  0  0  0  0  0  0  0  0  0  0
   -5.8491   -0.7658    2.7856 H   0  0  0  0  0  0  0  0  0  0  0  0
   -5.3142   -0.4738    4.4473 H   0  0  0  0  0  0  0  0  0  0  0  0
   -3.7303    1.2569    3.7684 H   0  0  0  0  0  0  0  0  0  0  0  0
   -5.3598    1.6227    3.1594 H   0  0  0  0  0  0  0  0  0  0  0  0
   -2.0024    1.7110    2.2176 H   0  0  0  0  0  0  0  0  0  0  0  0
   -2.6992    1.5486   -2.0200 H   0  0  0  0  0  0  0  0  0  0  0  0
   -6.2026   -1.0373   -1.2875 H   0  0  0  0  0  0  0  0  0  0  0  0
   -4.8221   -1.2457   -2.4367 H   0  0  0  0  0  0  0  0  0  0  0  0
   -6.4112   -0.6238   -3.0260 H   0  0  0  0  0  0  0  0  0  0  0  0
   -7.2516    2.9484   -1.1124 H   0  0  0  0  0  0  0  0  0  0  0  0
   -8.1072    1.7678   -2.1795 H   0  0  0  0  0  0  0  0  0  0  0  0
   -7.7983    3.4591   -2.7649 H   0  0  0  0  0  0  0  0  0  0  0  0
   -5.8530    0.5036    0.6951 H   0  0  0  0  0  0  0  0  0  0  0  0
    1.1440    1.5565   -0.7699 H   0  0  0  0  0  0  0  0  0  0  0  0
    5.6413    2.1107   -0.4779 H   0  0  0  0  0  0  0  0  0  0  0  0
    5.8782    2.6968   -2.9124 H   0  0  0  0  0  0  0  0  0  0  0  0
    6.1392    0.9662   -3.2715 H   0  0  0  0  0  0  0  0  0  0  0  0
    8.2772    2.1296   -3.2803 H   0  0  0  0  0  0  0  0  0  0  0  0
    7.6445    4.0323   -1.7513 H   0  0  0  0  0  0  0  0  0  0  0  0
    9.2431    3.2972   -1.3710 H   0  0  0  0  0  0  0  0  0  0  0  0
    7.8201    2.9268   -0.3291 H   0  0  0  0  0  0  0  0  0  0  0  0
    8.2495   -0.2133   -2.4365 H   0  0  0  0  0  0  0  0  0  0  0  0
    9.5603    0.7553   -1.6603 H   0  0  0  0  0  0  0  0  0  0  0  0
    8.0534    0.3843   -0.7377 H   0  0  0  0  0  0  0  0  0  0  0  0
  1  2  1  0
  2  3  1  0
  3  4  1  0
  4  5  1  0
  5  6  1  0
  6  7  1  0
  7  8  1  0
  8  9  1  0
  9 10  2  0
 10 11  1  0
 11 12  2  0
 12 13  1  0
 12 14  1  0
 14 15  1  0
 15 16  1  0
 16 17  1  0
 17 18  1  0
 18 19  1  0
 19 20  2  0
 20 21  1  0
 21 22  2  0
 22 23  1  0
 23 24  1  0
 23 25  1  0
 25 26  1  0
 25 27  2  0
 25 28  2  0
 22 29  1  0
 20 30  1  0
 30 31  2  0
 30 32  1  0
  3 33  1  0
 33 34  2  0
 33 35  1  0
 35 36  1  0
 36 37  1  0
 37 38  1  0
 37 39  1  0
 32  6  1  0
 13  8  2  0
 29 18  2  0
  1 40  1  0
  1 41  1  0
  1 42  1  0
  2 43  1  0
  2 44  1  0
  3 45  1  1
  4 46  1  0
  5 47  1  0
  5 48  1  0
  6 49  1  0
  7 50  1  0
  7 51  1  0
  9 52  1  0
 10 53  1  0
 11 54  1  0
 13 55  1  0
 14 56  1  0
 14 57  1  0
 15 58  1  0
 15 59  1  0
 16 60  1  0
 16 61  1  0
 17 62  1  0
 17 63  1  0
 19 64  1  0
 21 65  1  0
 24 66  1  0
 24 67  1  0
 24 68  1  0
 26 69  1  0
 26 70  1  0
 26 71  1  0
 29 72  1  0
 32 73  1  0
 35 74  1  0
 36 75  1  0
 36 76  1  0
 37 77  1  0
 38 78  1  0
 38 79  1  0
 38 80  1  0
 39 81  1  0
 39 82  1  0
 39 83  1  0
M  END
$$$$
