
     RDKit          3D

111116  0  0  0  0  0  0  0  0999 V2000
   -5.9619    1.3041    4.5505 C   0  0  0  0  0  0  0  0  0  0  0  0
   -5.9797    1.8098    3.1135 C   0  0  0  0  0  0  0  0  0  0  0  0
   -4.9712    1.1019    2.3111 N   0  0  0  0  0  0  0  0  0  0  0  0
   -5.1481   -0.0554    1.6208 C   0  0  0  0  0  0  0  0  0  0  0  0
   -6.4670   -0.6963    1.4178 C   0  0  0  0  0  0  0  0  0  0  0  0
   -6.7455   -1.8657    2.1407 C   0  0  0  0  0  0  0  0  0  0  0  0
   -7.9721   -2.5057    2.0050 C   0  0  0  0  0  0  0  0  0  0  0  0
   -8.9346   -1.9549    1.1663 C   0  0  0  0  0  0  0  0  0  0  0  0
   -8.6722   -0.8104    0.4885 N   0  0  0  0  0  0  0  0  0  0  0  0
   -7.4735   -0.1619    0.5617 C   0  0  0  0  0  0  0  0  0  0  0  0
   -7.3287    1.1580   -0.1942 C   0  0  2  0  0  0  0  0  0  0  0  0
   -8.2143    1.1677   -1.4512 C   0  0  0  0  0  0  0  0  0  0  0  0
   -5.9865    1.3550   -0.5971 O   0  0  0  0  0  0  0  0  0  0  0  0
   -5.6346    2.7217   -0.5499 C   0  0  0  0  0  0  0  0  0  0  0  0
   -3.9143   -0.5706    1.1854 C   0  0  0  0  0  0  0  0  0  0  0  0
   -2.9711    0.3514    1.6152 C   0  0  0  0  0  0  0  0  0  0  0  0
   -1.5826    0.3798    1.4739 C   0  0  0  0  0  0  0  0  0  0  0  0
   -0.8753    1.4805    1.9995 C   0  0  0  0  0  0  0  0  0  0  0  0
   -1.5679    2.4698    2.7365 C   0  0  0  0  0  0  0  0  0  0  0  0
   -2.9593    2.3984    2.8998 C   0  0  0  0  0  0  0  0  0  0  0  0
   -3.6420    1.3395    2.2965 C   0  0  0  0  0  0  0  0  0  0  0  0
    0.5450    1.6730    1.6468 C   0  0  0  0  0  0  0  0  0  0  0  0
    1.4916    2.2623    2.4865 C   0  0  0  0  0  0  0  0  0  0  0  0
    2.9267    2.4319    1.6178 S   0  0  0  0  0  0  0  0  0  0  0  0
    2.2797    1.7556    0.2180 C   0  0  0  0  0  0  0  0  0  0  0  0
    0.9934    1.3893    0.3969 N   0  0  0  0  0  0  0  0  0  0  0  0
    2.9881    1.6233   -1.0935 C   0  0  0  0  0  0  0  0  0  0  0  0
    3.9838    0.4482   -1.0848 C   0  0  2  0  0  0  0  0  0  0  0  0
    5.3303    0.9260   -0.7509 N   0  0  0  0  0  0  0  0  0  0  0  0
    6.1196    0.3393    0.2912 C   0  0  0  0  0  0  0  0  0  0  0  0
    5.5612   -0.0649    1.3440 O   0  0  0  0  0  0  0  0  0  0  0  0
    7.6244    0.2518    0.1205 C   0  0  2  0  0  0  0  0  0  0  0  0
    8.3812   -0.7038    1.0932 C   0  0  0  0  0  0  0  0  0  0  0  0
    7.8377   -2.1432    1.0332 C   0  0  0  0  0  0  0  0  0  0  0  0
    8.4456   -0.2059    2.5458 C   0  0  0  0  0  0  0  0  0  0  0  0
    8.2637    1.5866    0.0739 N   0  0  0  0  0  0  0  0  0  0  0  0
    9.4161    1.7761   -0.8174 C   0  0  0  0  0  0  0  0  0  0  0  0
    7.8429    2.6834    0.9266 C   0  0  0  0  0  0  0  0  0  0  0  0
    8.3873    4.0660    0.7353 C   0  0  0  0  0  0  0  0  0  0  0  0
    7.0089    2.4945    1.8528 O   0  0  0  0  0  0  0  0  0  0  0  0
    3.9970   -0.2204   -2.4415 C   0  0  0  0  0  0  0  0  0  0  0  0
    4.8212    0.1719   -3.3140 O   0  0  0  0  0  0  0  0  0  0  0  0
    3.0305   -1.2351   -2.7711 N   0  0  0  0  0  0  0  0  0  0  0  0
    2.9851   -1.8082   -4.1277 C   0  0  0  0  0  0  0  0  0  0  0  0
    1.5436   -2.1393   -4.5173 C   0  0  0  0  0  0  0  0  0  0  0  0
    0.8427   -2.9020   -3.3929 C   0  0  0  0  0  0  0  0  0  0  0  0
    0.9550   -2.1126   -2.0762 C   0  0  2  0  0  0  0  0  0  0  0  0
    2.3704   -1.9101   -1.7214 N   0  0  0  0  0  0  0  0  0  0  0  0
    0.2365   -2.8463   -0.9667 C   0  0  0  0  0  0  0  0  0  0  0  0
    0.8653   -3.6959   -0.2851 O   0  0  0  0  0  0  0  0  0  0  0  0
   -1.1281   -2.6735   -0.6998 O   0  0  0  0  0  0  0  0  0  0  0  0
   -2.0001   -1.7690   -1.3791 C   0  0  0  0  0  0  0  0  0  0  0  0
   -3.4707   -2.0310   -0.9645 C   0  0  0  0  0  0  0  0  0  0  0  0
   -3.8558   -3.4586   -1.4273 C   0  0  0  0  0  0  0  0  0  0  0  0
   -4.3815   -1.0306   -1.7024 C   0  0  0  0  0  0  0  0  0  0  0  0
   -3.6583   -1.9449    0.5889 C   0  0  0  0  0  0  0  0  0  0  0  0
   -4.9762    1.5094    5.0175 H   0  0  0  0  0  0  0  0  0  0  0  0
   -6.1566    0.2116    4.5669 H   0  0  0  0  0  0  0  0  0  0  0  0
   -6.7511    1.8166    5.1387 H   0  0  0  0  0  0  0  0  0  0  0  0
   -5.7884    2.9032    3.0966 H   0  0  0  0  0  0  0  0  0  0  0  0
   -6.9952    1.6490    2.7009 H   0  0  0  0  0  0  0  0  0  0  0  0
   -6.0059   -2.2838    2.8112 H   0  0  0  0  0  0  0  0  0  0  0  0
   -8.1819   -3.4137    2.5581 H   0  0  0  0  0  0  0  0  0  0  0  0
   -9.8983   -2.4275    1.0620 H   0  0  0  0  0  0  0  0  0  0  0  0
   -7.6999    1.9592    0.4893 H   0  0  0  0  0  0  0  0  0  0  0  0
   -8.0816    2.1105   -2.0201 H   0  0  0  0  0  0  0  0  0  0  0  0
   -9.2903    1.0922   -1.1796 H   0  0  0  0  0  0  0  0  0  0  0  0
   -7.9460    0.3167   -2.1125 H   0  0  0  0  0  0  0  0  0  0  0  0
   -4.5813    2.8266   -0.8815 H   0  0  0  0  0  0  0  0  0  0  0  0
   -5.6962    3.1184    0.4840 H   0  0  0  0  0  0  0  0  0  0  0  0
   -6.2655    3.3383   -1.2294 H   0  0  0  0  0  0  0  0  0  0  0  0
   -1.0604   -0.4113    0.9560 H   0  0  0  0  0  0  0  0  0  0  0  0
   -1.0391    3.3200    3.1435 H   0  0  0  0  0  0  0  0  0  0  0  0
   -3.4822    3.1731    3.4420 H   0  0  0  0  0  0  0  0  0  0  0  0
    1.3316    2.5848    3.5059 H   0  0  0  0  0  0  0  0  0  0  0  0
    3.5039    2.5761   -1.3348 H   0  0  0  0  0  0  0  0  0  0  0  0
    2.2154    1.4740   -1.8797 H   0  0  0  0  0  0  0  0  0  0  0  0
    3.6623   -0.3041   -0.3313 H   0  0  0  0  0  0  0  0  0  0  0  0
    5.8015    1.5929   -1.4045 H   0  0  0  0  0  0  0  0  0  0  0  0
    7.7387   -0.2116   -0.8843 H   0  0  0  0  0  0  0  0  0  0  0  0
    9.4322   -0.7565    0.7325 H   0  0  0  0  0  0  0  0  0  0  0  0
    7.7581   -2.4904   -0.0192 H   0  0  0  0  0  0  0  0  0  0  0  0
    8.5287   -2.8329    1.5693 H   0  0  0  0  0  0  0  0  0  0  0  0
    6.8391   -2.2197    1.5118 H   0  0  0  0  0  0  0  0  0  0  0  0
    7.4336   -0.0834    2.9776 H   0  0  0  0  0  0  0  0  0  0  0  0
    8.9988   -0.9367    3.1735 H   0  0  0  0  0  0  0  0  0  0  0  0
    8.9905    0.7580    2.6074 H   0  0  0  0  0  0  0  0  0  0  0  0
   10.3051    2.0745   -0.2236 H   0  0  0  0  0  0  0  0  0  0  0  0
    9.1862    2.5619   -1.5685 H   0  0  0  0  0  0  0  0  0  0  0  0
    9.6765    0.8422   -1.3630 H   0  0  0  0  0  0  0  0  0  0  0  0
    9.4763    4.0772    0.9329 H   0  0  0  0  0  0  0  0  0  0  0  0
    7.8992    4.7768    1.4314 H   0  0  0  0  0  0  0  0  0  0  0  0
    8.1947    4.4109   -0.3013 H   0  0  0  0  0  0  0  0  0  0  0  0
    3.3887   -1.0995   -4.8811 H   0  0  0  0  0  0  0  0  0  0  0  0
    3.5984   -2.7340   -4.1538 H   0  0  0  0  0  0  0  0  0  0  0  0
    1.5395   -2.7497   -5.4468 H   0  0  0  0  0  0  0  0  0  0  0  0
    0.9921   -1.1958   -4.7246 H   0  0  0  0  0  0  0  0  0  0  0  0
   -0.2263   -3.0538   -3.6683 H   0  0  0  0  0  0  0  0  0  0  0  0
    1.3145   -3.9033   -3.2753 H   0  0  0  0  0  0  0  0  0  0  0  0
    0.4846   -1.1154   -2.2016 H   0  0  0  0  0  0  0  0  0  0  0  0
    2.8458   -2.8374   -1.6115 H   0  0  0  0  0  0  0  0  0  0  0  0
   -1.8966   -1.9040   -2.4757 H   0  0  0  0  0  0  0  0  0  0  0  0
   -1.7127   -0.7228   -1.1504 H   0  0  0  0  0  0  0  0  0  0  0  0
   -3.2534   -4.2244   -0.8905 H   0  0  0  0  0  0  0  0  0  0  0  0
   -3.6876   -3.5791   -2.5216 H   0  0  0  0  0  0  0  0  0  0  0  0
   -4.9312   -3.6572   -1.2209 H   0  0  0  0  0  0  0  0  0  0  0  0
   -4.3192   -1.1797   -2.8014 H   0  0  0  0  0  0  0  0  0  0  0  0
   -4.0569    0.0091   -1.4918 H   0  0  0  0  0  0  0  0  0  0  0  0
   -5.4413   -1.1621   -1.3923 H   0  0  0  0  0  0  0  0  0  0  0  0
   -2.7875   -2.3956    1.1056 H   0  0  0  0  0  0  0  0  0  0  0  0
   -4.5047   -2.5983    0.8812 H   0  0  0  0  0  0  0  0  0  0  0  0
  1  2  1  0
  2  3  1  0
  3  4  1  0
  4  5  1  0
  5  6  2  0
  6  7  1  0
  7  8  2  0
  8  9  1  0
  9 10  2  0
 10 11  1  0
 11 12  1  0
 11 13  1  0
 13 14  1  0
  4 15  2  0
 15 16  1  0
 16 17  2  0
 17 18  1  0
 18 19  2  0
 19 20  1  0
 20 21  2  0
 18 22  1  0
 22 23  2  0
 23 24  1  0
 24 25  1  0
 25 26  2  0
 25 27  1  0
 27 28  1  0
 28 29  1  0
 29 30  1  0
 30 31  2  0
 30 32  1  0
 32 33  1  0
 33 34  1  0
 33 35  1  0
 32 36  1  0
 36 37  1  0
 36 38  1  0
 38 39  1  0
 38 40  2  0
 28 41  1  0
 41 42  2  0
 41 43  1  0
 43 44  1  0
 44 45  1  0
 45 46  1  0
 46 47  1  0
 47 48  1  0
 47 49  1  0
 49 50  2  0
 49 51  1  0
 51 52  1  0
 52 53  1  0
 53 54  1  0
 53 55  1  0
 53 56  1  0
 21  3  1  0
 26 22  1  0
 48 43  1  0
 10  5  1  0
 56 15  1  0
 21 16  1  0
  1 57  1  0
  1 58  1  0
  1 59  1  0
  2 60  1  0
  2 61  1  0
  6 62  1  0
  7 63  1  0
  8 64  1  0
 11 65  1  1
 12 66  1  0
 12 67  1  0
 12 68  1  0
 14 69  1  0
 14 70  1  0
 14 71  1  0
 17 72  1  0
 19 73  1  0
 20 74  1  0
 23 75  1  0
 27 76  1  0
 27 77  1  0
 28 78  1  1
 29 79  1  0
 32 80  1  6
 33 81  1  0
 34 82  1  0
 34 83  1  0
 34 84  1  0
 35 85  1  0
 35 86  1  0
 35 87  1  0
 37 88  1  0
 37 89  1  0
 37 90  1  0
 39 91  1  0
 39 92  1  0
 39 93  1  0
 44 94  1  0
 44 95  1  0
 45 96  1  0
 45 97  1  0
 46 98  1  0
 46 99  1  0
 47100  1  6
 48101  1  0
 52102  1  0
 52103  1  0
 54104  1  0
 54105  1  0
 54106  1  0
 55107  1  0
 55108  1  0
 55109  1  0
 56110  1  0
 56111  1  0
M  END
$$$$
