
     RDKit          3D

 69 73  0  0  0  0  0  0  0  0999 V2000
   -0.7045    1.3481   -3.5345 O   0  0  0  0  0  0  0  0  0  0  0  0
   -0.4775    0.9483   -2.3586 C   0  0  0  0  0  0  0  0  0  0  0  0
   -1.0498    1.7882   -1.2428 C   0  0  0  0  0  0  0  0  0  0  0  0
   -2.3566    1.3151   -0.9254 O   0  0  0  0  0  0  0  0  0  0  0  0
   -3.3946    2.0610   -0.3353 C   0  0  0  0  0  0  0  0  0  0  0  0
   -3.5603    3.4336   -0.6054 C   0  0  0  0  0  0  0  0  0  0  0  0
   -4.6224    4.1432   -0.0426 C   0  0  0  0  0  0  0  0  0  0  0  0
   -5.5329    3.4983    0.7924 C   0  0  0  0  0  0  0  0  0  0  0  0
   -5.3846    2.1400    1.0740 C   0  0  0  0  0  0  0  0  0  0  0  0
   -4.3229    1.4042    0.5172 C   0  0  0  0  0  0  0  0  0  0  0  0
   -4.1371   -0.0510    0.9234 C   0  0  1  0  0  0  0  0  0  0  0  0
   -4.2277   -0.9924   -0.3142 C   0  0  0  0  0  0  0  0  0  0  0  0
   -3.6273   -2.3840   -0.0730 C   0  0  0  0  0  0  0  0  0  0  0  0
   -2.2270   -2.2801    0.5404 C   0  0  2  0  0  0  0  0  0  0  0  0
   -2.3704   -1.6243    1.9224 C   0  0  0  0  0  0  0  0  0  0  0  0
   -2.8443   -0.1803    1.7739 C   0  0  0  0  0  0  0  0  0  0  0  0
   -1.4154   -1.4852   -0.3148 O   0  0  0  0  0  0  0  0  0  0  0  0
   -0.0467   -1.7867   -0.1561 C   0  0  0  0  0  0  0  0  0  0  0  0
    0.8186   -0.7152   -0.8650 C   0  0  0  0  0  0  0  0  0  0  0  0
    2.2874   -1.1770   -1.0699 C   0  0  1  0  0  0  0  0  0  0  0  0
    2.9092   -1.5693    0.2107 N   0  0  0  0  0  0  0  0  0  0  0  0
    4.6444   -1.3616    0.1986 S   0  0  0  0  0  6  0  0  0  0  0  0
    5.2673   -2.5444    0.8844 O   0  0  0  0  0  0  0  0  0  0  0  0
    5.1766   -1.2916   -1.2061 O   0  0  0  0  0  0  0  0  0  0  0  0
    5.1472    0.1281    1.0679 C   0  0  0  0  0  0  0  0  0  0  0  0
    4.4349    1.3772    0.5739 C   0  0  0  0  0  0  0  0  0  0  0  0
    4.5238    2.3570    1.7324 C   0  0  0  0  0  0  0  0  0  0  0  0
    4.6330    1.5139    3.0028 C   0  0  0  0  0  0  0  0  0  0  0  0
    4.8645    0.0691    2.5643 C   0  0  0  0  0  0  0  0  0  0  0  0
    2.3942   -2.3376   -2.0937 C   0  0  0  0  0  0  0  0  0  0  0  0
    1.2326   -2.4096   -3.0999 C   0  0  0  0  0  0  0  0  0  0  0  0
    0.6102   -1.0429   -3.3911 C   0  0  0  0  0  0  0  0  0  0  0  0
    0.2450   -0.3013   -2.1675 N   0  0  0  0  0  0  0  0  0  0  0  0
   -0.4281    1.7981   -0.3301 H   0  0  0  0  0  0  0  0  0  0  0  0
   -1.0792    2.8366   -1.5991 H   0  0  0  0  0  0  0  0  0  0  0  0
   -2.8993    3.9604   -1.2771 H   0  0  0  0  0  0  0  0  0  0  0  0
   -4.7453    5.1960   -0.2623 H   0  0  0  0  0  0  0  0  0  0  0  0
   -6.3538    4.0540    1.2270 H   0  0  0  0  0  0  0  0  0  0  0  0
   -6.0949    1.6656    1.7396 H   0  0  0  0  0  0  0  0  0  0  0  0
   -4.9716   -0.3588    1.5937 H   0  0  0  0  0  0  0  0  0  0  0  0
   -5.2973   -1.1129   -0.5930 H   0  0  0  0  0  0  0  0  0  0  0  0
   -3.7357   -0.5638   -1.2080 H   0  0  0  0  0  0  0  0  0  0  0  0
   -4.2967   -2.9697    0.5951 H   0  0  0  0  0  0  0  0  0  0  0  0
   -3.5650   -2.9272   -1.0409 H   0  0  0  0  0  0  0  0  0  0  0  0
   -1.8305   -3.3167    0.6580 H   0  0  0  0  0  0  0  0  0  0  0  0
   -3.0959   -2.1939    2.5445 H   0  0  0  0  0  0  0  0  0  0  0  0
   -1.4021   -1.6391    2.4644 H   0  0  0  0  0  0  0  0  0  0  0  0
   -3.0354    0.2379    2.7866 H   0  0  0  0  0  0  0  0  0  0  0  0
   -2.0094    0.4128    1.3472 H   0  0  0  0  0  0  0  0  0  0  0  0
    0.2428   -1.7967    0.9178 H   0  0  0  0  0  0  0  0  0  0  0  0
    0.1559   -2.8007   -0.5546 H   0  0  0  0  0  0  0  0  0  0  0  0
    0.8767    0.1569   -0.1883 H   0  0  0  0  0  0  0  0  0  0  0  0
    2.8215   -0.2961   -1.4952 H   0  0  0  0  0  0  0  0  0  0  0  0
    2.5413   -0.9717    0.9844 H   0  0  0  0  0  0  0  0  0  0  0  0
    6.2424    0.2634    0.9198 H   0  0  0  0  0  0  0  0  0  0  0  0
    4.9178    1.7829   -0.3417 H   0  0  0  0  0  0  0  0  0  0  0  0
    3.3643    1.1719    0.3631 H   0  0  0  0  0  0  0  0  0  0  0  0
    3.6319    3.0202    1.7623 H   0  0  0  0  0  0  0  0  0  0  0  0
    5.4359    2.9841    1.6186 H   0  0  0  0  0  0  0  0  0  0  0  0
    3.6971    1.5892    3.5988 H   0  0  0  0  0  0  0  0  0  0  0  0
    5.4822    1.8696    3.6264 H   0  0  0  0  0  0  0  0  0  0  0  0
    5.7215   -0.3835    3.1087 H   0  0  0  0  0  0  0  0  0  0  0  0
    3.9534   -0.5301    2.7777 H   0  0  0  0  0  0  0  0  0  0  0  0
    3.3405   -2.2293   -2.6650 H   0  0  0  0  0  0  0  0  0  0  0  0
    2.4517   -3.3123   -1.5606 H   0  0  0  0  0  0  0  0  0  0  0  0
    0.4424   -3.0944   -2.7291 H   0  0  0  0  0  0  0  0  0  0  0  0
    1.6012   -2.8497   -4.0523 H   0  0  0  0  0  0  0  0  0  0  0  0
   -0.2982   -1.2061   -4.0114 H   0  0  0  0  0  0  0  0  0  0  0  0
    1.3309   -0.4374   -3.9831 H   0  0  0  0  0  0  0  0  0  0  0  0
  1  2  2  0
  2  3  1  0
  3  4  1  0
  4  5  1  0
  5  6  2  0
  6  7  1  0
  7  8  2  0
  8  9  1  0
  9 10  2  0
 10 11  1  0
 11 12  1  0
 12 13  1  0
 13 14  1  0
 14 15  1  0
 15 16  1  0
 14 17  1  0
 17 18  1  0
 18 19  1  0
 19 20  1  0
 20 21  1  0
 21 22  1  0
 22 23  2  0
 22 24  2  0
 22 25  1  0
 25 26  1  0
 26 27  1  0
 27 28  1  0
 28 29  1  0
 20 30  1  0
 30 31  1  0
 31 32  1  0
 32 33  1  0
 33  2  1  0
 10  5  1  0
 16 11  1  0
 33 19  1  0
 29 25  1  0
  3 34  1  0
  3 35  1  0
  6 36  1  0
  7 37  1  0
  8 38  1  0
  9 39  1  0
 11 40  1  1
 12 41  1  0
 12 42  1  0
 13 43  1  0
 13 44  1  0
 14 45  1  1
 15 46  1  0
 15 47  1  0
 16 48  1  0
 16 49  1  0
 18 50  1  0
 18 51  1  0
 19 52  1  0
 20 53  1  6
 21 54  1  0
 25 55  1  0
 26 56  1  0
 26 57  1  0
 27 58  1  0
 27 59  1  0
 28 60  1  0
 28 61  1  0
 29 62  1  0
 29 63  1  0
 30 64  1  0
 30 65  1  0
 31 66  1  0
 31 67  1  0
 32 68  1  0
 32 69  1  0
M  END
$$$$
