
     RDKit          3D

 71 75  0  0  0  0  0  0  0  0999 V2000
    4.9216   -2.6073   -2.2026 C   0  0  0  0  0  0  0  0  0  0  0  0
    5.3284   -2.7680   -0.7346 C   0  0  0  0  0  0  0  0  0  0  0  0
    4.9266   -4.1477   -0.2028 C   0  0  0  0  0  0  0  0  0  0  0  0
    4.7359   -1.6819    0.1248 C   0  0  0  0  0  0  0  0  0  0  0  0
    5.4074   -0.8742    1.0380 C   0  0  0  0  0  0  0  0  0  0  0  0
    4.5260   -0.0825    1.6943 N   0  0  0  0  0  0  0  0  0  0  0  0
    3.3266   -0.3838    1.2293 N   0  0  0  0  0  0  0  0  0  0  0  0
    2.1394    0.1729    1.5642 C   0  0  0  0  0  0  0  0  0  0  0  0
    1.0178   -0.2956    0.9463 N   0  0  0  0  0  0  0  0  0  0  0  0
    1.1048   -1.2912    0.0094 C   0  0  0  0  0  0  0  0  0  0  0  0
    2.3191   -1.8058   -0.3360 N   0  0  0  0  0  0  0  0  0  0  0  0
    3.4154   -1.3289    0.2968 C   0  0  0  0  0  0  0  0  0  0  0  0
   -0.0709   -1.7648   -0.6513 N   0  0  0  0  0  0  0  0  0  0  0  0
   -1.2014   -2.3138    0.1045 C   0  0  0  0  0  0  0  0  0  0  0  0
   -2.5327   -1.5351   -0.1433 C   0  0  0  0  0  0  0  0  0  0  0  0
   -2.3766   -0.1284    0.5212 C   0  0  0  0  0  0  0  0  0  0  0  0
   -3.5241    0.8792    0.2934 C   0  0  0  0  0  0  0  0  0  0  0  0
   -3.3214    2.1536    1.1422 C   0  0  0  0  0  0  0  0  0  0  0  0
   -2.9909    3.3858    0.2753 C   0  0  0  0  0  0  0  0  0  0  0  0
   -2.3329    4.4863    1.1120 C   0  0  0  0  0  0  0  0  0  0  0  0
   -1.0194    4.0819    1.5103 O   0  0  0  0  0  0  0  0  0  0  0  0
    0.0846    3.9459    0.6509 C   0  0  0  0  0  0  0  0  0  0  0  0
    0.1479    4.6205   -0.5848 C   0  0  0  0  0  0  0  0  0  0  0  0
    1.2858    4.5194   -1.3863 C   0  0  0  0  0  0  0  0  0  0  0  0
    2.3756    3.7616   -0.9648 C   0  0  0  0  0  0  0  0  0  0  0  0
    2.3253    3.0828    0.2518 C   0  0  0  0  0  0  0  0  0  0  0  0
    1.1623    3.1225    1.0500 C   0  0  0  0  0  0  0  0  0  0  0  0
    1.0597    2.3377    2.3466 C   0  0  0  0  0  0  0  0  0  0  0  0
    2.0851    1.2988    2.4553 N   0  0  0  0  0  0  0  0  0  0  0  0
   -3.6820   -2.3390    0.5484 C   0  0  0  0  0  0  0  0  0  0  0  0
   -4.2864   -3.3849   -0.4000 C   0  0  0  0  0  0  0  0  0  0  0  0
   -4.9192   -2.7679   -1.5791 N   0  0  0  0  0  0  0  0  0  0  0  0
   -4.2946   -1.5075   -2.0298 C   0  0  0  0  0  0  0  0  0  0  0  0
   -2.7976   -1.4252   -1.6813 C   0  0  0  0  0  0  0  0  0  0  0  0
    3.8215   -2.7132   -2.3325 H   0  0  0  0  0  0  0  0  0  0  0  0
    5.2318   -1.6066   -2.5782 H   0  0  0  0  0  0  0  0  0  0  0  0
    5.4222   -3.3823   -2.8228 H   0  0  0  0  0  0  0  0  0  0  0  0
    6.4377   -2.6934   -0.6812 H   0  0  0  0  0  0  0  0  0  0  0  0
    3.8275   -4.2940   -0.2707 H   0  0  0  0  0  0  0  0  0  0  0  0
    5.2377   -4.2473    0.8605 H   0  0  0  0  0  0  0  0  0  0  0  0
    5.4319   -4.9493   -0.7880 H   0  0  0  0  0  0  0  0  0  0  0  0
    6.4729   -0.8680    1.2169 H   0  0  0  0  0  0  0  0  0  0  0  0
    0.0120   -2.0180   -1.6623 H   0  0  0  0  0  0  0  0  0  0  0  0
   -1.3203   -3.3789   -0.1889 H   0  0  0  0  0  0  0  0  0  0  0  0
   -0.9639   -2.3213    1.1933 H   0  0  0  0  0  0  0  0  0  0  0  0
   -2.2291   -0.2737    1.6109 H   0  0  0  0  0  0  0  0  0  0  0  0
   -1.4581    0.3569    0.1294 H   0  0  0  0  0  0  0  0  0  0  0  0
   -3.5562    1.1423   -0.7905 H   0  0  0  0  0  0  0  0  0  0  0  0
   -4.5131    0.4415    0.5483 H   0  0  0  0  0  0  0  0  0  0  0  0
   -4.2546    2.3664    1.7138 H   0  0  0  0  0  0  0  0  0  0  0  0
   -2.5198    1.9947    1.9007 H   0  0  0  0  0  0  0  0  0  0  0  0
   -3.9304    3.7783   -0.1773 H   0  0  0  0  0  0  0  0  0  0  0  0
   -2.3022    3.1079   -0.5559 H   0  0  0  0  0  0  0  0  0  0  0  0
   -2.2984    5.4437    0.5500 H   0  0  0  0  0  0  0  0  0  0  0  0
   -2.9428    4.6700    2.0235 H   0  0  0  0  0  0  0  0  0  0  0  0
   -0.6598    5.2509   -0.9272 H   0  0  0  0  0  0  0  0  0  0  0  0
    1.3303    5.0466   -2.3313 H   0  0  0  0  0  0  0  0  0  0  0  0
    3.2629    3.7007   -1.5817 H   0  0  0  0  0  0  0  0  0  0  0  0
    3.1955    2.5161    0.5525 H   0  0  0  0  0  0  0  0  0  0  0  0
    1.1730    3.0473    3.1942 H   0  0  0  0  0  0  0  0  0  0  0  0
    0.0571    1.8702    2.4357 H   0  0  0  0  0  0  0  0  0  0  0  0
    2.8799    1.4642    3.1081 H   0  0  0  0  0  0  0  0  0  0  0  0
   -4.5102   -1.6851    0.8790 H   0  0  0  0  0  0  0  0  0  0  0  0
   -3.3153   -2.8455    1.4682 H   0  0  0  0  0  0  0  0  0  0  0  0
   -5.0563   -3.9650    0.1506 H   0  0  0  0  0  0  0  0  0  0  0  0
   -3.4993   -4.1017   -0.7207 H   0  0  0  0  0  0  0  0  0  0  0  0
   -4.8862   -3.4576   -2.3638 H   0  0  0  0  0  0  0  0  0  0  0  0
   -4.4067   -1.4053   -3.1322 H   0  0  0  0  0  0  0  0  0  0  0  0
   -4.8482   -0.6597   -1.5792 H   0  0  0  0  0  0  0  0  0  0  0  0
   -2.3013   -2.2606   -2.2249 H   0  0  0  0  0  0  0  0  0  0  0  0
   -2.3665   -0.4865   -2.0942 H   0  0  0  0  0  0  0  0  0  0  0  0
  1  2  1  0
  2  3  1  0
  2  4  1  0
  4  5  1  0
  5  6  2  0
  6  7  1  0
  7  8  1  0
  8  9  2  0
  9 10  1  0
 10 11  2  0
 11 12  1  0
 10 13  1  0
 13 14  1  0
 14 15  1  0
 15 16  1  0
 16 17  1  0
 17 18  1  0
 18 19  1  0
 19 20  1  0
 20 21  1  0
 21 22  1  0
 22 23  2  0
 23 24  1  0
 24 25  2  0
 25 26  1  0
 26 27  2  0
 27 28  1  0
 28 29  1  0
 15 30  1  0
 30 31  1  0
 31 32  1  0
 32 33  1  0
 33 34  1  0
 12  4  2  0
 34 15  1  0
 12  7  1  0
 27 22  1  0
 29  8  1  0
  1 35  1  0
  1 36  1  0
  1 37  1  0
  2 38  1  0
  3 39  1  0
  3 40  1  0
  3 41  1  0
  5 42  1  0
 13 43  1  0
 14 44  1  0
 14 45  1  0
 16 46  1  0
 16 47  1  0
 17 48  1  0
 17 49  1  0
 18 50  1  0
 18 51  1  0
 19 52  1  0
 19 53  1  0
 20 54  1  0
 20 55  1  0
 23 56  1  0
 24 57  1  0
 25 58  1  0
 26 59  1  0
 28 60  1  0
 28 61  1  0
 29 62  1  0
 30 63  1  0
 30 64  1  0
 31 65  1  0
 31 66  1  0
 32 67  1  0
 33 68  1  0
 33 69  1  0
 34 70  1  0
 34 71  1  0
M  END
$$$$
