
     RDKit          3D

 73 77  0  0  0  0  0  0  0  0999 V2000
    1.6243   -5.1284   -1.6538 C   0  0  0  0  0  0  0  0  0  0  0  0
    1.2277   -3.7208   -1.5659 N   0  0  0  0  0  0  0  0  0  0  0  0
   -0.1509   -3.3919   -1.1668 C   0  0  0  0  0  0  0  0  0  0  0  0
   -0.2534   -3.0868    0.3379 C   0  0  1  0  0  0  0  0  0  0  0  0
    0.4648   -1.9531    0.6629 F   0  0  0  0  0  0  0  0  0  0  0  0
   -1.7101   -2.9008    0.7993 C   0  0  0  0  0  0  0  0  0  0  0  0
   -2.4629   -1.7877    0.0344 C   0  0  0  0  0  0  0  0  0  0  0  0
   -3.5025   -1.1550    0.8864 N   0  0  0  0  0  0  0  0  0  0  0  0
   -4.6578   -2.0716    1.0062 C   0  0  0  0  0  0  0  0  0  0  0  0
   -3.9334    0.1586    0.3255 C   0  0  1  0  0  0  0  0  0  0  0  0
   -5.0336    0.8255    1.1633 C   0  0  0  0  0  0  0  0  0  0  0  0
   -4.8472    2.3153    0.9667 C   0  0  0  0  0  0  0  0  0  0  0  0
   -3.3391    2.5035    0.8940 C   0  0  1  0  0  0  0  0  0  0  0  0
   -2.7922    1.1974    0.3015 C   0  0  0  0  0  0  0  0  0  0  0  0
   -2.9717    3.6859    0.1021 N   0  0  0  0  0  0  0  0  0  0  0  0
   -1.6084    4.0965   -0.0696 C   0  0  0  0  0  0  0  0  0  0  0  0
   -1.3220    5.3809   -0.4006 N   0  0  0  0  0  0  0  0  0  0  0  0
   -0.0392    5.7904   -0.5796 C   0  0  0  0  0  0  0  0  0  0  0  0
    1.0258    4.8803   -0.4514 C   0  0  0  0  0  0  0  0  0  0  0  0
    2.4548    5.3312   -0.6726 C   0  0  0  0  0  0  0  0  0  0  0  0
    3.1041    5.4180    0.5447 F   0  0  0  0  0  0  0  0  0  0  0  0
    2.5031    6.5720   -1.2848 F   0  0  0  0  0  0  0  0  0  0  0  0
    3.1237    4.4304   -1.4834 F   0  0  0  0  0  0  0  0  0  0  0  0
    0.7009    3.5502   -0.1028 C   0  0  0  0  0  0  0  0  0  0  0  0
   -0.5989    3.2033    0.0758 N   0  0  0  0  0  0  0  0  0  0  0  0
    1.7082    2.4866    0.0290 C   0  0  0  0  0  0  0  0  0  0  0  0
    2.6892    2.3797    1.0033 C   0  0  0  0  0  0  0  0  0  0  0  0
    3.2896    1.1705    0.9326 N   0  0  0  0  0  0  0  0  0  0  0  0
    2.6888    0.4976   -0.0716 C   0  0  0  0  0  0  0  0  0  0  0  0
    2.9119   -0.8297   -0.4947 C   0  0  0  0  0  0  0  0  0  0  0  0
    4.1534   -1.8685    0.3376 P   0  0  0  0  0  5  0  0  0  0  0  0
    5.8052   -1.1221    0.1967 C   0  0  0  0  0  0  0  0  0  0  0  0
    3.7128   -2.1032    2.0854 C   0  0  0  0  0  0  0  0  0  0  0  0
    4.2406   -3.2427   -0.2843 O   0  0  0  0  0  0  0  0  0  0  0  0
    2.0805   -1.3173   -1.5529 C   0  0  0  0  0  0  0  0  0  0  0  0
    1.1266   -0.4650   -2.1587 C   0  0  0  0  0  0  0  0  0  0  0  0
    0.9226    0.8361   -1.6901 C   0  0  0  0  0  0  0  0  0  0  0  0
    1.7156    1.2814   -0.6408 C   0  0  0  0  0  0  0  0  0  0  0  0
    2.1520   -2.7098   -2.0299 C   0  0  0  0  0  0  0  0  0  0  0  0
    3.0670   -3.0197   -2.8403 O   0  0  0  0  0  0  0  0  0  0  0  0
    1.6831   -5.4357   -2.7196 H   0  0  0  0  0  0  0  0  0  0  0  0
    2.6173   -5.2725   -1.1757 H   0  0  0  0  0  0  0  0  0  0  0  0
    0.8968   -5.7850   -1.1282 H   0  0  0  0  0  0  0  0  0  0  0  0
   -0.8211   -4.2483   -1.4009 H   0  0  0  0  0  0  0  0  0  0  0  0
   -0.5300   -2.5464   -1.7721 H   0  0  0  0  0  0  0  0  0  0  0  0
    0.1832   -3.9384    0.9024 H   0  0  0  0  0  0  0  0  0  0  0  0
   -1.6943   -2.6570    1.8842 H   0  0  0  0  0  0  0  0  0  0  0  0
   -2.2497   -3.8651    0.6810 H   0  0  0  0  0  0  0  0  0  0  0  0
   -2.9123   -2.2075   -0.8949 H   0  0  0  0  0  0  0  0  0  0  0  0
   -1.7166   -1.0372   -0.2963 H   0  0  0  0  0  0  0  0  0  0  0  0
   -5.1995   -2.1686    0.0398 H   0  0  0  0  0  0  0  0  0  0  0  0
   -5.3616   -1.7129    1.7833 H   0  0  0  0  0  0  0  0  0  0  0  0
   -4.3386   -3.0800    1.3400 H   0  0  0  0  0  0  0  0  0  0  0  0
   -4.3162    0.0242   -0.7139 H   0  0  0  0  0  0  0  0  0  0  0  0
   -6.0475    0.5068    0.8373 H   0  0  0  0  0  0  0  0  0  0  0  0
   -4.8966    0.5879    2.2421 H   0  0  0  0  0  0  0  0  0  0  0  0
   -5.2915    2.8947    1.8048 H   0  0  0  0  0  0  0  0  0  0  0  0
   -5.3296    2.6156    0.0096 H   0  0  0  0  0  0  0  0  0  0  0  0
   -2.9487    2.6262    1.9300 H   0  0  0  0  0  0  0  0  0  0  0  0
   -2.4477    1.3429   -0.7465 H   0  0  0  0  0  0  0  0  0  0  0  0
   -1.9280    0.8664    0.9190 H   0  0  0  0  0  0  0  0  0  0  0  0
   -3.7203    4.3380   -0.2269 H   0  0  0  0  0  0  0  0  0  0  0  0
    0.1423    6.8267   -0.8323 H   0  0  0  0  0  0  0  0  0  0  0  0
    2.9121    3.1183    1.7618 H   0  0  0  0  0  0  0  0  0  0  0  0
    4.0381    0.8399    1.5754 H   0  0  0  0  0  0  0  0  0  0  0  0
    6.0285   -0.9330   -0.8740 H   0  0  0  0  0  0  0  0  0  0  0  0
    5.8599   -0.1677    0.7538 H   0  0  0  0  0  0  0  0  0  0  0  0
    6.5600   -1.8241    0.6058 H   0  0  0  0  0  0  0  0  0  0  0  0
    4.4577   -2.7721    2.5645 H   0  0  0  0  0  0  0  0  0  0  0  0
    3.7041   -1.1365    2.6234 H   0  0  0  0  0  0  0  0  0  0  0  0
    2.7072   -2.5680    2.1506 H   0  0  0  0  0  0  0  0  0  0  0  0
    0.5209   -0.8215   -2.9822 H   0  0  0  0  0  0  0  0  0  0  0  0
    0.1687    1.4725   -2.1360 H   0  0  0  0  0  0  0  0  0  0  0  0
  1  2  1  0
  2  3  1  0
  3  4  1  0
  4  5  1  0
  4  6  1  0
  6  7  1  0
  7  8  1  0
  8  9  1  0
  8 10  1  0
 10 11  1  0
 11 12  1  0
 12 13  1  0
 13 14  1  0
 13 15  1  0
 15 16  1  0
 16 17  2  0
 17 18  1  0
 18 19  2  0
 19 20  1  0
 20 21  1  0
 20 22  1  0
 20 23  1  0
 19 24  1  0
 24 25  2  0
 24 26  1  0
 26 27  2  0
 27 28  1  0
 28 29  1  0
 29 30  2  0
 30 31  1  0
 31 32  1  0
 31 33  1  0
 31 34  2  0
 30 35  1  0
 35 36  2  0
 36 37  1  0
 37 38  2  0
 35 39  1  0
 39 40  2  0
 39  2  1  0
 14 10  1  0
 25 16  1  0
 38 26  1  0
 38 29  1  0
  1 41  1  0
  1 42  1  0
  1 43  1  0
  3 44  1  0
  3 45  1  0
  4 46  1  1
  6 47  1  0
  6 48  1  0
  7 49  1  0
  7 50  1  0
  9 51  1  0
  9 52  1  0
  9 53  1  0
 10 54  1  6
 11 55  1  0
 11 56  1  0
 12 57  1  0
 12 58  1  0
 13 59  1  1
 14 60  1  0
 14 61  1  0
 15 62  1  0
 18 63  1  0
 27 64  1  0
 28 65  1  0
 32 66  1  0
 32 67  1  0
 32 68  1  0
 33 69  1  0
 33 70  1  0
 33 71  1  0
 36 72  1  0
 37 73  1  0
M  END
$$$$
