
     RDKit          3D

 65 66  0  0  0  0  0  0  0  0999 V2000
   -2.4128   -3.4985    0.9401 C   0  0  0  0  0  0  0  0  0  0  0  0
   -2.3401   -2.3411    0.2711 C   0  0  0  0  0  0  0  0  0  0  0  0
   -1.2304   -2.0943   -0.6072 N   0  0  0  0  0  0  0  0  0  0  0  0
    0.1462   -2.4122   -0.3174 C   0  0  0  0  0  0  0  0  0  0  0  0
    0.9193   -2.6475   -1.2855 O   0  0  0  0  0  0  0  0  0  0  0  0
    0.6957   -2.5098    1.1006 C   0  0  2  0  0  0  0  0  0  0  0  0
    0.1329   -1.4602    2.0711 C   0  0  0  0  0  0  0  0  0  0  0  0
    2.1724   -2.5044    1.1119 N   0  0  0  0  0  0  0  0  0  0  0  0
    2.7882   -3.6409    1.5288 O   0  0  0  0  0  0  0  0  0  0  0  0
    3.0220   -1.3989    0.7158 C   0  0  0  0  0  0  0  0  0  0  0  0
    4.2695   -1.5836    0.7232 O   0  0  0  0  0  0  0  0  0  0  0  0
    2.4819   -0.0182    0.3348 C   0  0  2  0  0  0  0  0  0  0  0  0
    3.3101    0.7224   -0.7555 C   0  0  1  0  0  0  0  0  0  0  0  0
    4.4647    1.3326   -0.2320 O   0  0  0  0  0  0  0  0  0  0  0  0
    3.6360   -0.1556   -1.9374 C   0  0  0  0  0  0  0  0  0  0  0  0
    2.7373   -0.4118   -2.7864 O   0  0  0  0  0  0  0  0  0  0  0  0
    4.9117   -0.7173   -2.0669 O   0  0  0  0  0  0  0  0  0  0  0  0
    5.2397   -1.6459   -3.0924 C   0  0  0  0  0  0  0  0  0  0  0  0
    2.2826    0.8769    1.5071 N   0  0  0  0  0  0  0  0  0  0  0  0
    3.1460    0.7795    2.6976 C   0  0  0  0  0  0  0  0  0  0  0  0
    1.3995    2.0326    1.4501 C   0  0  0  0  0  0  0  0  0  0  0  0
    1.5855    2.9846    2.2584 O   0  0  0  0  0  0  0  0  0  0  0  0
    0.1955    2.1259    0.5334 C   0  0  2  0  0  0  0  0  0  0  0  0
    0.1542    3.4973   -0.1487 C   0  0  0  0  0  0  0  0  0  0  0  0
   -0.9774    1.9394    1.3361 O   0  0  0  0  0  0  0  0  0  0  0  0
   -2.1911    1.3471    0.9458 C   0  0  0  0  0  0  0  0  0  0  0  0
   -3.0998    1.2532    1.8118 O   0  0  0  0  0  0  0  0  0  0  0  0
   -2.4664    0.8501   -0.4607 C   0  0  2  0  0  0  0  0  0  0  0  0
   -3.0104    1.9809   -1.3409 C   0  0  0  0  0  0  0  0  0  0  0  0
   -4.5121    1.7173   -1.5157 C   0  0  2  0  0  0  0  0  0  0  0  0
   -5.3485    2.6234   -0.6007 C   0  0  0  0  0  0  0  0  0  0  0  0
   -4.7110    0.2394   -1.1701 C   0  0  0  0  0  0  0  0  0  0  0  0
   -3.5066   -0.1789   -0.4706 N   0  0  0  0  0  0  0  0  0  0  0  0
   -3.4843   -1.3886    0.3137 C   0  0  0  0  0  0  0  0  0  0  0  0
   -4.4933   -1.6671    1.0217 O   0  0  0  0  0  0  0  0  0  0  0  0
   -3.2536   -3.7356    1.5768 H   0  0  0  0  0  0  0  0  0  0  0  0
   -1.6559   -4.2605    0.8188 H   0  0  0  0  0  0  0  0  0  0  0  0
   -1.4541   -1.7604   -1.5713 H   0  0  0  0  0  0  0  0  0  0  0  0
    0.3747   -3.4966    1.4942 H   0  0  0  0  0  0  0  0  0  0  0  0
    0.8307   -1.3081    2.9224 H   0  0  0  0  0  0  0  0  0  0  0  0
   -0.8339   -1.7960    2.4990 H   0  0  0  0  0  0  0  0  0  0  0  0
   -0.0427   -0.4962    1.5636 H   0  0  0  0  0  0  0  0  0  0  0  0
    2.9047   -4.1868    0.7089 H   0  0  0  0  0  0  0  0  0  0  0  0
    1.5150   -0.2350   -0.1340 H   0  0  0  0  0  0  0  0  0  0  0  0
    2.6724    1.5480   -1.1433 H   0  0  0  0  0  0  0  0  0  0  0  0
    5.0447    0.6297    0.1529 H   0  0  0  0  0  0  0  0  0  0  0  0
    4.6006   -2.5508   -3.0036 H   0  0  0  0  0  0  0  0  0  0  0  0
    6.3026   -1.9470   -2.9892 H   0  0  0  0  0  0  0  0  0  0  0  0
    5.0923   -1.1786   -4.0897 H   0  0  0  0  0  0  0  0  0  0  0  0
    3.7464    1.7077    2.8096 H   0  0  0  0  0  0  0  0  0  0  0  0
    2.5147    0.6449    3.6010 H   0  0  0  0  0  0  0  0  0  0  0  0
    3.8649   -0.0594    2.6527 H   0  0  0  0  0  0  0  0  0  0  0  0
    0.2505    1.3800   -0.2685 H   0  0  0  0  0  0  0  0  0  0  0  0
    1.1445    3.7342   -0.5915 H   0  0  0  0  0  0  0  0  0  0  0  0
   -0.1175    4.2899    0.5812 H   0  0  0  0  0  0  0  0  0  0  0  0
   -0.5867    3.4988   -0.9708 H   0  0  0  0  0  0  0  0  0  0  0  0
   -1.5502    0.4395   -0.9193 H   0  0  0  0  0  0  0  0  0  0  0  0
   -2.5190    1.9355   -2.3385 H   0  0  0  0  0  0  0  0  0  0  0  0
   -2.8140    2.9908   -0.9185 H   0  0  0  0  0  0  0  0  0  0  0  0
   -4.8116    1.9079   -2.5686 H   0  0  0  0  0  0  0  0  0  0  0  0
   -5.1795    3.6901   -0.8598 H   0  0  0  0  0  0  0  0  0  0  0  0
   -6.4307    2.4060   -0.7324 H   0  0  0  0  0  0  0  0  0  0  0  0
   -5.0843    2.4647    0.4658 H   0  0  0  0  0  0  0  0  0  0  0  0
   -5.6125    0.0810   -0.5350 H   0  0  0  0  0  0  0  0  0  0  0  0
   -4.8198   -0.3657   -2.0980 H   0  0  0  0  0  0  0  0  0  0  0  0
  1  2  2  3
  2  3  1  0
  3  4  1  0
  4  5  2  0
  4  6  1  0
  6  7  1  0
  6  8  1  0
  8  9  1  0
  8 10  1  0
 10 11  2  0
 10 12  1  0
 12 13  1  0
 13 14  1  0
 13 15  1  0
 15 16  2  0
 15 17  1  0
 17 18  1  0
 12 19  1  0
 19 20  1  0
 19 21  1  0
 21 22  2  0
 21 23  1  0
 23 24  1  0
 23 25  1  0
 25 26  1  0
 26 27  2  0
 26 28  1  0
 28 29  1  0
 29 30  1  0
 30 31  1  0
 30 32  1  0
 32 33  1  0
 33 34  1  0
 34 35  2  0
 34  2  1  0
 33 28  1  0
  1 36  1  0
  1 37  1  0
  3 38  1  0
  6 39  1  1
  7 40  1  0
  7 41  1  0
  7 42  1  0
  9 43  1  0
 12 44  1  6
 13 45  1  6
 14 46  1  0
 18 47  1  0
 18 48  1  0
 18 49  1  0
 20 50  1  0
 20 51  1  0
 20 52  1  0
 23 53  1  6
 24 54  1  0
 24 55  1  0
 24 56  1  0
 28 57  1  6
 29 58  1  0
 29 59  1  0
 30 60  1  6
 31 61  1  0
 31 62  1  0
 31 63  1  0
 32 64  1  0
 32 65  1  0
M  END
$$$$
