
     RDKit          3D

 76 81  0  0  0  0  0  0  0  0999 V2000
   -7.3850    3.4634    0.3438 C   0  0  0  0  0  0  0  0  0  0  0  0
   -6.6489    2.1342    0.2046 C   0  0  0  0  0  0  0  0  0  0  0  0
   -5.1854    2.3611   -0.2072 C   0  0  0  0  0  0  0  0  0  0  0  0
   -4.3616    1.1394   -0.3449 N   0  0  0  0  0  0  0  0  0  0  0  0
   -4.7967    0.1275   -1.3033 C   0  0  2  0  0  0  0  0  0  0  0  0
   -5.6229   -0.8987   -0.5085 C   0  0  0  0  0  0  0  0  0  0  0  0
   -5.1421   -0.7442    0.9318 C   0  0  0  0  0  0  0  0  0  0  0  0
   -4.0839    0.3696    0.8657 C   0  0  1  0  0  0  0  0  0  0  0  0
   -2.6794   -0.2361    0.6514 C   0  0  0  0  0  0  0  0  0  0  0  0
   -2.6054   -1.0736   -0.6710 C   0  0  0  0  0  0  0  0  0  0  0  0
   -1.2088   -1.2565   -1.1121 N   0  0  0  0  0  0  0  0  0  0  0  0
   -0.3663   -0.0879   -1.4293 C   0  0  0  0  0  0  0  0  0  0  0  0
    0.7655    0.0919   -0.4060 C   0  0  0  0  0  0  0  0  0  0  0  0
    1.2546    1.5510   -0.3325 C   0  0  0  0  0  0  0  0  0  0  0  0
    2.7183    1.6361    0.1350 C   0  0  0  0  0  0  0  0  0  0  0  0
    3.7026    1.4771   -1.0400 C   0  0  0  0  0  0  0  0  0  0  0  0
    4.9737    0.8958   -0.5878 N   0  0  0  0  0  0  0  0  0  0  0  0
    5.2056   -0.5159   -0.5662 C   0  0  0  0  0  0  0  0  0  0  0  0
    4.2656   -1.3494   -0.9025 N   0  0  0  0  0  0  0  0  0  0  0  0
    4.3178   -3.0820   -0.8293 S   0  0  0  0  0  6  0  0  0  0  0  0
    5.2208   -3.5385    0.2826 O   0  0  0  0  0  0  0  0  0  0  0  0
    4.7983   -3.6440   -2.1376 O   0  0  0  0  0  0  0  0  0  0  0  0
    2.6732   -3.6210   -0.5057 C   0  0  0  0  0  0  0  0  0  0  0  0
    2.3976   -4.4749    0.5691 C   0  0  0  0  0  0  0  0  0  0  0  0
    1.0750   -4.7563    0.9184 C   0  0  0  0  0  0  0  0  0  0  0  0
    0.0152   -4.1633    0.2235 C   0  0  0  0  0  0  0  0  0  0  0  0
   -1.2887   -4.4647    0.6227 O   0  0  0  0  0  0  0  0  0  0  0  0
    0.2867   -3.2879   -0.8514 C   0  0  0  0  0  0  0  0  0  0  0  0
    1.6157   -3.0741   -1.2442 C   0  0  0  0  0  0  0  0  0  0  0  0
   -0.7967   -2.5684   -1.5443 C   0  0  0  0  0  0  0  0  0  0  0  0
   -1.4143   -3.1410   -2.4807 O   0  0  0  0  0  0  0  0  0  0  0  0
    6.7980   -1.0104    0.1092 S   0  0  0  0  0  0  0  0  0  0  0  0
    7.0197    0.7083    0.5766 C   0  0  0  0  0  0  0  0  0  0  0  0
    8.0863    1.1864    1.3470 C   0  0  0  0  0  0  0  0  0  0  0  0
    9.3413    0.1085    1.9363 Cl  0  0  0  0  0  0  0  0  0  0  0  0
    8.1481    2.5507    1.6514 C   0  0  0  0  0  0  0  0  0  0  0  0
    7.1554    3.4235    1.1896 C   0  0  0  0  0  0  0  0  0  0  0  0
    6.0805    2.9428    0.4228 C   0  0  0  0  0  0  0  0  0  0  0  0
    5.1059    3.8298   -0.0260 O   0  0  0  0  0  0  0  0  0  0  0  0
    6.0203    1.5650    0.1248 C   0  0  0  0  0  0  0  0  0  0  0  0
   -3.4981   -0.5227   -1.8346 C   0  0  0  0  0  0  0  0  0  0  0  0
   -8.4366    3.2752    0.6463 H   0  0  0  0  0  0  0  0  0  0  0  0
   -7.3852    4.0074   -0.6246 H   0  0  0  0  0  0  0  0  0  0  0  0
   -6.9022    4.0936    1.1205 H   0  0  0  0  0  0  0  0  0  0  0  0
   -7.1733    1.5359   -0.5658 H   0  0  0  0  0  0  0  0  0  0  0  0
   -6.6985    1.6167    1.1810 H   0  0  0  0  0  0  0  0  0  0  0  0
   -5.1670    2.9042   -1.1771 H   0  0  0  0  0  0  0  0  0  0  0  0
   -4.6990    3.0320    0.5339 H   0  0  0  0  0  0  0  0  0  0  0  0
   -5.3799    0.5667   -2.1442 H   0  0  0  0  0  0  0  0  0  0  0  0
   -5.4701   -1.9376   -0.8760 H   0  0  0  0  0  0  0  0  0  0  0  0
   -6.7067   -0.6734   -0.5791 H   0  0  0  0  0  0  0  0  0  0  0  0
   -5.9811   -0.4544    1.5960 H   0  0  0  0  0  0  0  0  0  0  0  0
   -4.7270   -1.6987    1.3242 H   0  0  0  0  0  0  0  0  0  0  0  0
   -4.0946    1.0025    1.7812 H   0  0  0  0  0  0  0  0  0  0  0  0
   -2.4022   -0.8755    1.5183 H   0  0  0  0  0  0  0  0  0  0  0  0
   -1.9572    0.6050    0.6305 H   0  0  0  0  0  0  0  0  0  0  0  0
   -3.0240   -2.0702   -0.4112 H   0  0  0  0  0  0  0  0  0  0  0  0
    0.0649   -0.1995   -2.4490 H   0  0  0  0  0  0  0  0  0  0  0  0
   -0.9842    0.8357   -1.4473 H   0  0  0  0  0  0  0  0  0  0  0  0
    0.4293   -0.2298    0.6032 H   0  0  0  0  0  0  0  0  0  0  0  0
    1.6107   -0.5568   -0.6949 H   0  0  0  0  0  0  0  0  0  0  0  0
    1.1531    2.0561   -1.3197 H   0  0  0  0  0  0  0  0  0  0  0  0
    0.6081    2.1017    0.3858 H   0  0  0  0  0  0  0  0  0  0  0  0
    2.8873    2.6237    0.6156 H   0  0  0  0  0  0  0  0  0  0  0  0
    2.9074    0.8589    0.9105 H   0  0  0  0  0  0  0  0  0  0  0  0
    3.2656    0.8216   -1.8238 H   0  0  0  0  0  0  0  0  0  0  0  0
    3.8726    2.4490   -1.5452 H   0  0  0  0  0  0  0  0  0  0  0  0
    3.2002   -4.9072    1.1531 H   0  0  0  0  0  0  0  0  0  0  0  0
    0.8715   -5.4194    1.7506 H   0  0  0  0  0  0  0  0  0  0  0  0
   -2.1046   -4.1200    0.1343 H   0  0  0  0  0  0  0  0  0  0  0  0
    1.8308   -2.4221   -2.0841 H   0  0  0  0  0  0  0  0  0  0  0  0
    8.9657    2.9383    2.2461 H   0  0  0  0  0  0  0  0  0  0  0  0
    7.2200    4.4758    1.4324 H   0  0  0  0  0  0  0  0  0  0  0  0
    5.1460    4.8192    0.1910 H   0  0  0  0  0  0  0  0  0  0  0  0
   -2.9498    0.2431   -2.4226 H   0  0  0  0  0  0  0  0  0  0  0  0
   -3.7476   -1.3478   -2.5372 H   0  0  0  0  0  0  0  0  0  0  0  0
  1  2  1  0
  2  3  1  0
  3  4  1  0
  4  5  1  0
  5  6  1  0
  6  7  1  0
  7  8  1  0
  8  9  1  0
  9 10  1  0
 10 11  1  0
 11 12  1  0
 12 13  1  0
 13 14  1  0
 14 15  1  0
 15 16  1  0
 16 17  1  0
 17 18  1  0
 18 19  2  0
 19 20  1  0
 20 21  2  0
 20 22  2  0
 20 23  1  0
 23 24  2  0
 24 25  1  0
 25 26  2  0
 26 27  1  0
 26 28  1  0
 28 29  2  0
 28 30  1  0
 30 31  2  0
 18 32  1  0
 32 33  1  0
 33 34  2  0
 34 35  1  0
 34 36  1  0
 36 37  2  0
 37 38  1  0
 38 39  1  0
 38 40  2  0
 10 41  1  0
  8  4  1  0
 30 11  1  0
 40 33  1  0
 41  5  1  0
 40 17  1  0
 29 23  1  0
  1 42  1  0
  1 43  1  0
  1 44  1  0
  2 45  1  0
  2 46  1  0
  3 47  1  0
  3 48  1  0
  5 49  1  6
  6 50  1  0
  6 51  1  0
  7 52  1  0
  7 53  1  0
  8 54  1  1
  9 55  1  0
  9 56  1  0
 10 57  1  0
 12 58  1  0
 12 59  1  0
 13 60  1  0
 13 61  1  0
 14 62  1  0
 14 63  1  0
 15 64  1  0
 15 65  1  0
 16 66  1  0
 16 67  1  0
 24 68  1  0
 25 69  1  0
 27 70  1  0
 29 71  1  0
 36 72  1  0
 37 73  1  0
 39 74  1  0
 41 75  1  0
 41 76  1  0
M  END
$$$$
