
     RDKit          3D

 98104  0  0  0  0  0  0  0  0999 V2000
   -5.6159   -6.8721    0.5840 C   0  0  0  0  0  0  0  0  0  0  0  0
   -6.3333   -5.6784    0.2914 O   0  0  0  0  0  0  0  0  0  0  0  0
   -5.7745   -4.3910    0.3105 C   0  0  0  0  0  0  0  0  0  0  0  0
   -4.4316   -4.1632    0.6493 C   0  0  0  0  0  0  0  0  0  0  0  0
   -3.8940   -2.8754    0.6158 C   0  0  0  0  0  0  0  0  0  0  0  0
   -4.6704   -1.7641    0.2319 C   0  0  0  0  0  0  0  0  0  0  0  0
   -4.1765   -0.4230    0.0856 C   0  0  0  0  0  0  0  0  0  0  0  0
   -2.8288    0.0077    0.1331 O   0  0  0  0  0  0  0  0  0  0  0  0
   -1.7023   -0.5759    0.7841 C   0  0  2  0  0  0  0  0  0  0  0  0
   -0.6623    0.5111    1.0600 C   0  0  0  0  0  0  0  0  0  0  0  0
    0.3420    0.4460   -0.0996 C   0  0  1  0  0  0  0  0  0  0  0  0
    1.7700    0.6114    0.3565 C   0  0  0  0  0  0  0  0  0  0  0  0
    2.2489   -0.1663    1.2261 O   0  0  0  0  0  0  0  0  0  0  0  0
    2.5887    1.6436   -0.2037 N   0  0  0  0  0  0  0  0  0  0  0  0
    3.9499    1.4050   -0.6973 C   0  0  2  0  0  0  0  0  0  0  0  0
    5.0866    1.9735    0.1278 C   0  0  0  0  0  0  0  0  0  0  0  0
    4.9662    1.9790    1.3812 O   0  0  0  0  0  0  0  0  0  0  0  0
    6.2932    2.4916   -0.4613 N   0  0  0  0  0  0  0  0  0  0  0  0
    7.3226    3.5887    0.3894 S   0  0  0  0  0  6  0  0  0  0  0  0
    6.5003    4.7133    0.9630 O   0  0  0  0  0  0  0  0  0  0  0  0
    8.3207    4.1632   -0.5721 O   0  0  0  0  0  0  0  0  0  0  0  0
    8.2108    2.7131    1.6740 C   0  0  0  0  0  0  0  0  0  0  0  0
    8.7132    1.3033    1.3724 C   0  0  0  0  0  0  0  0  0  0  0  0
    7.8356    3.0279    3.1125 C   0  0  0  0  0  0  0  0  0  0  0  0
    9.1324    3.5775    2.5247 C   0  0  0  0  0  0  0  0  0  0  0  0
    3.9881    1.5096   -2.2219 C   0  0  0  0  0  0  0  0  0  0  0  0
    4.1750    0.1469   -1.5397 C   0  0  1  0  0  0  0  0  0  0  0  0
    5.5689   -0.3886   -1.7532 C   0  0  0  0  0  0  0  0  0  0  0  0
    6.1211   -1.3852   -1.0447 C   0  0  0  0  0  0  0  0  0  0  0  0
    5.5404   -2.0144    0.1985 C   0  0  0  0  0  0  0  0  0  0  0  0
    4.1783   -2.7097    0.0237 C   0  0  0  0  0  0  0  0  0  0  0  0
    4.0370   -3.5598   -1.2499 C   0  0  0  0  0  0  0  0  0  0  0  0
    2.7363   -4.3908   -1.2506 C   0  0  0  0  0  0  0  0  0  0  0  0
    1.4551   -3.5465   -1.0839 C   0  0  0  0  0  0  0  0  0  0  0  0
    1.3223   -2.5525   -2.1504 N   0  0  0  0  0  0  0  0  0  0  0  0
    0.7557   -1.2454   -1.9470 C   0  0  0  0  0  0  0  0  0  0  0  0
    0.8138   -0.4034   -2.8846 O   0  0  0  0  0  0  0  0  0  0  0  0
    0.1546   -0.8655   -0.6974 N   0  0  0  0  0  0  0  0  0  0  0  0
   -0.9829   -1.5699   -0.1382 C   0  0  0  0  0  0  0  0  0  0  0  0
   -5.0926    0.6010   -0.1974 C   0  0  0  0  0  0  0  0  0  0  0  0
   -6.4475    0.3175   -0.3890 C   0  0  0  0  0  0  0  0  0  0  0  0
   -7.4329    1.3847   -0.6450 C   0  0  0  0  0  0  0  0  0  0  0  0
   -7.2483    2.6769   -0.3011 N   0  0  0  0  0  0  0  0  0  0  0  0
   -8.3618    3.4252   -0.5376 C   0  0  0  0  0  0  0  0  0  0  0  0
   -8.4214    4.8791   -0.1469 C   0  0  0  0  0  0  0  0  0  0  0  0
   -8.8522    5.7608   -1.3310 C   0  0  0  0  0  0  0  0  0  0  0  0
   -9.3639    5.0716    1.0485 C   0  0  0  0  0  0  0  0  0  0  0  0
   -9.4503    2.7192   -1.0552 C   0  0  0  0  0  0  0  0  0  0  0  0
   -8.9899    1.1174   -1.2194 S   0  0  0  0  0  0  0  0  0  0  0  0
   -6.8710   -0.9666   -0.3371 N   0  0  0  0  0  0  0  0  0  0  0  0
   -6.0458   -2.0026   -0.0485 C   0  0  0  0  0  0  0  0  0  0  0  0
   -6.5821   -3.3007   -0.0181 C   0  0  0  0  0  0  0  0  0  0  0  0
   -8.2780   -3.5717   -0.3995 Cl  0  0  0  0  0  0  0  0  0  0  0  0
   -4.7302   -6.9638   -0.0807 H   0  0  0  0  0  0  0  0  0  0  0  0
   -5.2969   -6.8696    1.6512 H   0  0  0  0  0  0  0  0  0  0  0  0
   -6.2866   -7.7395    0.4030 H   0  0  0  0  0  0  0  0  0  0  0  0
   -3.7800   -4.9799    0.9394 H   0  0  0  0  0  0  0  0  0  0  0  0
   -2.8773   -2.8034    0.9204 H   0  0  0  0  0  0  0  0  0  0  0  0
   -2.0049   -1.0150    1.7552 H   0  0  0  0  0  0  0  0  0  0  0  0
   -0.1637    0.2934    2.0325 H   0  0  0  0  0  0  0  0  0  0  0  0
   -1.1345    1.5196    1.1321 H   0  0  0  0  0  0  0  0  0  0  0  0
    0.0898    1.2253   -0.8526 H   0  0  0  0  0  0  0  0  0  0  0  0
    2.1668    2.5884   -0.3668 H   0  0  0  0  0  0  0  0  0  0  0  0
    6.5840    2.2491   -1.4298 H   0  0  0  0  0  0  0  0  0  0  0  0
    9.3417    1.3206    0.4616 H   0  0  0  0  0  0  0  0  0  0  0  0
    7.8530    0.6335    1.1899 H   0  0  0  0  0  0  0  0  0  0  0  0
    9.3153    0.8823    2.2072 H   0  0  0  0  0  0  0  0  0  0  0  0
    7.9850    2.2103    3.8499 H   0  0  0  0  0  0  0  0  0  0  0  0
    7.0722    3.8176    3.2750 H   0  0  0  0  0  0  0  0  0  0  0  0
   10.0471    3.0747    2.9115 H   0  0  0  0  0  0  0  0  0  0  0  0
    9.1002    4.6637    2.3189 H   0  0  0  0  0  0  0  0  0  0  0  0
    4.8758    1.9616   -2.7061 H   0  0  0  0  0  0  0  0  0  0  0  0
    2.9989    1.5993   -2.7249 H   0  0  0  0  0  0  0  0  0  0  0  0
    3.3234   -0.5231   -1.7493 H   0  0  0  0  0  0  0  0  0  0  0  0
    6.1408   -0.0179   -2.5988 H   0  0  0  0  0  0  0  0  0  0  0  0
    7.0975   -1.7402   -1.3580 H   0  0  0  0  0  0  0  0  0  0  0  0
    6.2593   -2.7755    0.5652 H   0  0  0  0  0  0  0  0  0  0  0  0
    5.4544   -1.2371    0.9917 H   0  0  0  0  0  0  0  0  0  0  0  0
    3.3989   -1.9368    0.0320 H   0  0  0  0  0  0  0  0  0  0  0  0
    4.0014   -3.3446    0.9171 H   0  0  0  0  0  0  0  0  0  0  0  0
    4.0548   -2.9050   -2.1442 H   0  0  0  0  0  0  0  0  0  0  0  0
    4.8993   -4.2529   -1.3135 H   0  0  0  0  0  0  0  0  0  0  0  0
    2.7790   -5.1189   -0.4148 H   0  0  0  0  0  0  0  0  0  0  0  0
    2.6746   -4.9765   -2.1961 H   0  0  0  0  0  0  0  0  0  0  0  0
    1.4706   -3.0634   -0.0887 H   0  0  0  0  0  0  0  0  0  0  0  0
    0.5749   -4.2204   -1.1076 H   0  0  0  0  0  0  0  0  0  0  0  0
    1.6076   -2.8255   -3.1188 H   0  0  0  0  0  0  0  0  0  0  0  0
   -1.6489   -1.9302   -0.9532 H   0  0  0  0  0  0  0  0  0  0  0  0
   -0.6231   -2.4337    0.4633 H   0  0  0  0  0  0  0  0  0  0  0  0
   -4.7418    1.6213   -0.2714 H   0  0  0  0  0  0  0  0  0  0  0  0
   -7.4001    5.2031    0.1642 H   0  0  0  0  0  0  0  0  0  0  0  0
   -8.1553    5.6086   -2.1858 H   0  0  0  0  0  0  0  0  0  0  0  0
   -9.8825    5.5138   -1.6671 H   0  0  0  0  0  0  0  0  0  0  0  0
   -8.8340    6.8325   -1.0324 H   0  0  0  0  0  0  0  0  0  0  0  0
   -9.3382    6.1293    1.3927 H   0  0  0  0  0  0  0  0  0  0  0  0
  -10.4092    4.8060    0.7666 H   0  0  0  0  0  0  0  0  0  0  0  0
   -9.0515    4.4134    1.8956 H   0  0  0  0  0  0  0  0  0  0  0  0
  -10.4251    3.1223   -1.2861 H   0  0  0  0  0  0  0  0  0  0  0  0
  1  2  1  0
  2  3  1  0
  3  4  2  0
  4  5  1  0
  5  6  2  0
  6  7  1  0
  7  8  1  0
  8  9  1  0
  9 10  1  0
 10 11  1  0
 11 12  1  0
 12 13  2  0
 12 14  1  0
 14 15  1  0
 15 16  1  1
 16 17  2  0
 16 18  1  0
 18 19  1  0
 19 20  2  0
 19 21  2  0
 19 22  1  0
 22 23  1  0
 22 24  1  0
 24 25  1  0
 15 26  1  0
 26 27  1  0
 27 28  1  0
 28 29  2  0
 29 30  1  0
 30 31  1  0
 31 32  1  0
 32 33  1  0
 33 34  1  0
 34 35  1  0
 35 36  1  0
 36 37  2  0
 36 38  1  0
 38 39  1  0
  7 40  2  0
 40 41  1  0
 41 42  1  0
 42 43  2  0
 43 44  1  0
 44 45  1  0
 45 46  1  0
 45 47  1  0
 44 48  2  0
 48 49  1  0
 41 50  2  0
 50 51  1  0
 51 52  2  0
 52 53  1  0
 52  3  1  0
 51  6  1  0
 39  9  1  0
 49 42  1  0
 38 11  1  0
 27 15  1  0
 25 22  1  0
  1 54  1  0
  1 55  1  0
  1 56  1  0
  4 57  1  0
  5 58  1  0
  9 59  1  1
 10 60  1  0
 10 61  1  0
 11 62  1  6
 14 63  1  0
 18 64  1  0
 23 65  1  0
 23 66  1  0
 23 67  1  0
 24 68  1  0
 24 69  1  0
 25 70  1  0
 25 71  1  0
 26 72  1  0
 26 73  1  0
 27 74  1  6
 28 75  1  0
 29 76  1  0
 30 77  1  0
 30 78  1  0
 31 79  1  0
 31 80  1  0
 32 81  1  0
 32 82  1  0
 33 83  1  0
 33 84  1  0
 34 85  1  0
 34 86  1  0
 35 87  1  0
 39 88  1  0
 39 89  1  0
 40 90  1  0
 45 91  1  0
 46 92  1  0
 46 93  1  0
 46 94  1  0
 47 95  1  0
 47 96  1  0
 47 97  1  0
 48 98  1  0
M  END
$$$$
