
     RDKit          3D

118124  0  0  0  0  0  0  0  0999 V2000
    6.5513   -2.4882   -2.4823 C   0  0  0  0  0  0  0  0  0  0  0  0
    6.7795   -1.0069   -2.4691 C   0  0  0  0  0  0  0  0  0  0  0  0
    7.6230   -0.5248   -3.2735 O   0  0  0  0  0  0  0  0  0  0  0  0
    6.0673   -0.1268   -1.5687 N   0  0  0  0  0  0  0  0  0  0  0  0
    5.9721    1.2918   -1.9491 C   0  0  0  0  0  0  0  0  0  0  0  0
    5.3128   -0.6577   -0.4069 C   0  0  1  0  0  0  0  0  0  0  0  0
    5.6004    0.1204    0.9126 C   0  0  0  0  0  0  0  0  0  0  0  0
    7.0174   -0.0632    1.5504 C   0  0  0  0  0  0  0  0  0  0  0  0
    7.0368    0.7011    2.8910 C   0  0  0  0  0  0  0  0  0  0  0  0
    8.1304    0.5178    0.6551 C   0  0  0  0  0  0  0  0  0  0  0  0
    7.3177   -1.5508    1.8402 C   0  0  0  0  0  0  0  0  0  0  0  0
    3.8311   -0.6937   -0.7105 C   0  0  0  0  0  0  0  0  0  0  0  0
    3.3741   -0.0527   -1.6981 O   0  0  0  0  0  0  0  0  0  0  0  0
    2.9462   -1.4771    0.1092 N   0  0  0  0  0  0  0  0  0  0  0  0
    1.5191   -1.6317   -0.1951 C   0  0  1  0  0  0  0  0  0  0  0  0
    1.1445   -3.1134   -0.4413 C   0  0  0  0  0  0  0  0  0  0  0  0
    1.3459   -4.1124    0.7300 C   0  0  0  0  0  0  0  0  0  0  0  0
    0.0413   -4.5525    1.4234 C   0  0  0  0  0  0  0  0  0  0  0  0
   -0.8763   -5.4403    0.5492 C   0  0  0  0  0  0  0  0  0  0  0  0
   -2.2960   -5.5571    1.1568 C   0  0  0  0  0  0  0  0  0  0  0  0
   -3.4273   -5.5138    0.1459 C   0  0  0  0  0  0  0  0  0  0  0  0
   -3.7686   -4.4394   -0.5986 C   0  0  0  0  0  0  0  0  0  0  0  0
   -2.8876   -3.2271   -0.7660 C   0  0  2  0  0  0  0  0  0  0  0  0
   -2.7292   -2.4212    0.5107 C   0  0  0  0  0  0  0  0  0  0  0  0
   -3.4517   -1.7981   -0.6729 C   0  0  2  0  0  0  0  0  0  0  0  0
   -4.9484   -1.7024   -0.7008 C   0  0  0  0  0  0  0  0  0  0  0  0
   -5.5588   -1.9572   -1.7731 O   0  0  0  0  0  0  0  0  0  0  0  0
   -5.6757   -1.3215    0.4717 N   0  0  0  0  0  0  0  0  0  0  0  0
   -7.3913   -1.5399    0.5769 S   0  0  0  0  0  6  0  0  0  0  0  0
   -7.8621   -1.0745    1.9251 O   0  0  0  0  0  0  0  0  0  0  0  0
   -8.0685   -0.7192   -0.4868 O   0  0  0  0  0  0  0  0  0  0  0  0
   -7.7668   -3.2850    0.4039 C   0  0  0  0  0  0  0  0  0  0  0  0
   -7.0863   -4.2636    1.3608 C   0  0  0  0  0  0  0  0  0  0  0  0
   -8.0536   -3.7803   -1.0058 C   0  0  0  0  0  0  0  0  0  0  0  0
   -9.1935   -3.6191   -0.0024 C   0  0  0  0  0  0  0  0  0  0  0  0
   -2.7183   -0.8902   -1.5617 N   0  0  0  0  0  0  0  0  0  0  0  0
   -1.5862   -0.0654   -1.2264 C   0  0  0  0  0  0  0  0  0  0  0  0
   -0.8005    0.2693   -2.1531 O   0  0  0  0  0  0  0  0  0  0  0  0
   -1.3416    0.4975    0.1608 C   0  0  2  0  0  0  0  0  0  0  0  0
   -1.5492    2.0156    0.1690 C   0  0  0  0  0  0  0  0  0  0  0  0
   -0.1536    2.6197   -0.0175 C   0  0  1  0  0  0  0  0  0  0  0  0
    0.0045    3.8422    0.6941 O   0  0  0  0  0  0  0  0  0  0  0  0
   -0.6969    4.9960    0.3449 C   0  0  0  0  0  0  0  0  0  0  0  0
   -1.9526    5.1680    0.8211 N   0  0  0  0  0  0  0  0  0  0  0  0
   -2.6883    6.2739    0.5521 C   0  0  0  0  0  0  0  0  0  0  0  0
   -3.9711    6.3836    1.1006 C   0  0  0  0  0  0  0  0  0  0  0  0
   -4.7406    7.5259    0.8724 C   0  0  0  0  0  0  0  0  0  0  0  0
   -5.9809    7.6259    1.4117 F   0  0  0  0  0  0  0  0  0  0  0  0
   -4.2364    8.5587    0.0832 C   0  0  0  0  0  0  0  0  0  0  0  0
   -2.9603    8.4585   -0.4818 C   0  0  0  0  0  0  0  0  0  0  0  0
   -2.1580    7.3119   -0.2594 C   0  0  0  0  0  0  0  0  0  0  0  0
   -0.8463    7.1526   -0.7939 C   0  0  0  0  0  0  0  0  0  0  0  0
   -0.2354    8.1135   -1.6357 C   0  0  0  0  0  0  0  0  0  0  0  0
    1.0556    7.9156   -2.1295 C   0  0  0  0  0  0  0  0  0  0  0  0
    1.7646    6.7633   -1.8038 C   0  0  0  0  0  0  0  0  0  0  0  0
    1.1892    5.7992   -0.9804 C   0  0  0  0  0  0  0  0  0  0  0  0
   -0.1118    5.9770   -0.4740 C   0  0  0  0  0  0  0  0  0  0  0  0
    0.8159    1.5646    0.5054 C   0  0  0  0  0  0  0  0  0  0  0  0
    0.0613    0.3247    0.5295 N   0  0  0  0  0  0  0  0  0  0  0  0
    0.6780   -0.9326    0.8424 C   0  0  0  0  0  0  0  0  0  0  0  0
    0.5995   -1.3840    2.0157 O   0  0  0  0  0  0  0  0  0  0  0  0
    7.0841   -2.9579   -1.6329 H   0  0  0  0  0  0  0  0  0  0  0  0
    6.9337   -2.9273   -3.4279 H   0  0  0  0  0  0  0  0  0  0  0  0
    5.4652   -2.7085   -2.4177 H   0  0  0  0  0  0  0  0  0  0  0  0
    5.6214    1.3755   -3.0003 H   0  0  0  0  0  0  0  0  0  0  0  0
    6.9668    1.7740   -1.8639 H   0  0  0  0  0  0  0  0  0  0  0  0
    5.2459    1.8468   -1.3206 H   0  0  0  0  0  0  0  0  0  0  0  0
    5.5940   -1.7112   -0.2237 H   0  0  0  0  0  0  0  0  0  0  0  0
    4.8555   -0.2146    1.6679 H   0  0  0  0  0  0  0  0  0  0  0  0
    5.3972    1.2021    0.7736 H   0  0  0  0  0  0  0  0  0  0  0  0
    6.2726    0.2947    3.5882 H   0  0  0  0  0  0  0  0  0  0  0  0
    6.8269    1.7803    2.7314 H   0  0  0  0  0  0  0  0  0  0  0  0
    8.0285    0.6139    3.3836 H   0  0  0  0  0  0  0  0  0  0  0  0
    9.1044    0.5093    1.1885 H   0  0  0  0  0  0  0  0  0  0  0  0
    8.2629   -0.0827   -0.2654 H   0  0  0  0  0  0  0  0  0  0  0  0
    7.9006    1.5687    0.3786 H   0  0  0  0  0  0  0  0  0  0  0  0
    6.4824   -2.0167    2.4037 H   0  0  0  0  0  0  0  0  0  0  0  0
    8.2434   -1.6520    2.4451 H   0  0  0  0  0  0  0  0  0  0  0  0
    7.4814   -2.1234    0.9027 H   0  0  0  0  0  0  0  0  0  0  0  0
    3.3372   -1.9359    0.9631 H   0  0  0  0  0  0  0  0  0  0  0  0
    1.2970   -1.1256   -1.1601 H   0  0  0  0  0  0  0  0  0  0  0  0
    0.1051   -3.1354   -0.8041 H   0  0  0  0  0  0  0  0  0  0  0  0
    1.7649   -3.4649   -1.2954 H   0  0  0  0  0  0  0  0  0  0  0  0
    1.8568   -5.0216    0.3445 H   0  0  0  0  0  0  0  0  0  0  0  0
    2.0200   -3.6822    1.4980 H   0  0  0  0  0  0  0  0  0  0  0  0
    0.3090   -5.1311    2.3335 H   0  0  0  0  0  0  0  0  0  0  0  0
   -0.4973   -3.6543    1.7766 H   0  0  0  0  0  0  0  0  0  0  0  0
   -0.9224   -5.0691   -0.4884 H   0  0  0  0  0  0  0  0  0  0  0  0
   -0.4276   -6.4561    0.4807 H   0  0  0  0  0  0  0  0  0  0  0  0
   -2.3571   -6.5221    1.7052 H   0  0  0  0  0  0  0  0  0  0  0  0
   -2.4829   -4.7765    1.9229 H   0  0  0  0  0  0  0  0  0  0  0  0
   -4.0820   -6.3797    0.1056 H   0  0  0  0  0  0  0  0  0  0  0  0
   -4.6511   -4.5127   -1.2266 H   0  0  0  0  0  0  0  0  0  0  0  0
   -2.0010   -3.3187   -1.4212 H   0  0  0  0  0  0  0  0  0  0  0  0
   -1.6822   -2.1296    0.6699 H   0  0  0  0  0  0  0  0  0  0  0  0
   -3.3947   -2.7033    1.3543 H   0  0  0  0  0  0  0  0  0  0  0  0
   -5.1613   -0.9927    1.3199 H   0  0  0  0  0  0  0  0  0  0  0  0
   -7.4188   -4.0563    2.3996 H   0  0  0  0  0  0  0  0  0  0  0  0
   -5.9858   -4.1322    1.3084 H   0  0  0  0  0  0  0  0  0  0  0  0
   -7.3282   -5.3209    1.1142 H   0  0  0  0  0  0  0  0  0  0  0  0
   -7.7918   -4.8386   -1.2146 H   0  0  0  0  0  0  0  0  0  0  0  0
   -8.0630   -3.0123   -1.8077 H   0  0  0  0  0  0  0  0  0  0  0  0
   -9.8546   -2.7535   -0.2170 H   0  0  0  0  0  0  0  0  0  0  0  0
   -9.5914   -4.5854    0.3728 H   0  0  0  0  0  0  0  0  0  0  0  0
   -2.9185   -1.0054   -2.5820 H   0  0  0  0  0  0  0  0  0  0  0  0
   -2.0063    0.0524    0.9285 H   0  0  0  0  0  0  0  0  0  0  0  0
   -1.9595    2.3198    1.1579 H   0  0  0  0  0  0  0  0  0  0  0  0
   -2.2519    2.3599   -0.6229 H   0  0  0  0  0  0  0  0  0  0  0  0
    0.0356    2.7841   -1.1024 H   0  0  0  0  0  0  0  0  0  0  0  0
   -4.3705    5.5867    1.7163 H   0  0  0  0  0  0  0  0  0  0  0  0
   -4.8353    9.4435   -0.0905 H   0  0  0  0  0  0  0  0  0  0  0  0
   -2.6314    9.2950   -1.0761 H   0  0  0  0  0  0  0  0  0  0  0  0
   -0.7272    9.0265   -1.9291 H   0  0  0  0  0  0  0  0  0  0  0  0
    1.5094    8.6621   -2.7690 H   0  0  0  0  0  0  0  0  0  0  0  0
    2.7647    6.6163   -2.1910 H   0  0  0  0  0  0  0  0  0  0  0  0
    1.7642    4.9118   -0.7468 H   0  0  0  0  0  0  0  0  0  0  0  0
    1.6918    1.4749   -0.1704 H   0  0  0  0  0  0  0  0  0  0  0  0
    1.1614    1.8077    1.5350 H   0  0  0  0  0  0  0  0  0  0  0  0
  1  2  1  0
  2  3  2  0
  2  4  1  0
  4  5  1  0
  4  6  1  0
  6  7  1  0
  7  8  1  0
  8  9  1  0
  8 10  1  0
  8 11  1  0
  6 12  1  0
 12 13  2  0
 12 14  1  0
 14 15  1  0
 15 16  1  0
 16 17  1  0
 17 18  1  0
 18 19  1  0
 19 20  1  0
 20 21  1  0
 21 22  2  0
 22 23  1  0
 23 24  1  0
 24 25  1  0
 25 26  1  1
 26 27  2  0
 26 28  1  0
 28 29  1  0
 29 30  2  0
 29 31  2  0
 29 32  1  0
 32 33  1  0
 32 34  1  0
 34 35  1  0
 25 36  1  0
 36 37  1  0
 37 38  2  0
 37 39  1  0
 39 40  1  0
 40 41  1  0
 41 42  1  0
 42 43  1  0
 43 44  2  0
 44 45  1  0
 45 46  2  0
 46 47  1  0
 47 48  1  0
 47 49  2  0
 49 50  1  0
 50 51  2  0
 51 52  1  0
 52 53  2  0
 53 54  1  0
 54 55  2  0
 55 56  1  0
 56 57  2  0
 41 58  1  0
 58 59  1  0
 59 60  1  0
 60 61  2  0
 60 15  1  0
 25 23  1  0
 35 32  1  0
 59 39  1  0
 57 43  1  0
 51 45  1  0
 57 52  1  0
  1 62  1  0
  1 63  1  0
  1 64  1  0
  5 65  1  0
  5 66  1  0
  5 67  1  0
  6 68  1  1
  7 69  1  0
  7 70  1  0
  9 71  1  0
  9 72  1  0
  9 73  1  0
 10 74  1  0
 10 75  1  0
 10 76  1  0
 11 77  1  0
 11 78  1  0
 11 79  1  0
 14 80  1  0
 15 81  1  6
 16 82  1  0
 16 83  1  0
 17 84  1  0
 17 85  1  0
 18 86  1  0
 18 87  1  0
 19 88  1  0
 19 89  1  0
 20 90  1  0
 20 91  1  0
 21 92  1  0
 22 93  1  0
 23 94  1  6
 24 95  1  0
 24 96  1  0
 28 97  1  0
 33 98  1  0
 33 99  1  0
 33100  1  0
 34101  1  0
 34102  1  0
 35103  1  0
 35104  1  0
 36105  1  0
 39106  1  1
 40107  1  0
 40108  1  0
 41109  1  6
 46110  1  0
 49111  1  0
 50112  1  0
 53113  1  0
 54114  1  0
 55115  1  0
 56116  1  0
 58117  1  0
 58118  1  0
M  END
$$$$
