
     RDKit          3D

 62 65  0  0  0  0  0  0  0  0999 V2000
   -7.0594    2.6333    4.1070 C   0  0  0  0  0  0  0  0  0  0  0  0
   -6.9359    1.8764    2.9093 O   0  0  0  0  0  0  0  0  0  0  0  0
   -5.7021    1.6124    2.3080 C   0  0  0  0  0  0  0  0  0  0  0  0
   -4.6402    2.0856    2.8010 O   0  0  0  0  0  0  0  0  0  0  0  0
   -5.6563    0.7646    1.1533 N   0  0  0  0  0  0  0  0  0  0  0  0
   -4.4644    0.5064    0.3920 C   0  0  0  0  0  0  0  0  0  0  0  0
   -3.5318    1.5230    0.1249 C   0  0  0  0  0  0  0  0  0  0  0  0
   -2.3853    1.2505   -0.6255 C   0  0  0  0  0  0  0  0  0  0  0  0
   -2.1716   -0.0297   -1.1545 C   0  0  0  0  0  0  0  0  0  0  0  0
   -3.1065   -1.0550   -0.8939 C   0  0  0  0  0  0  0  0  0  0  0  0
   -4.2525   -0.7738   -0.1372 C   0  0  0  0  0  0  0  0  0  0  0  0
   -2.9201   -2.3701   -1.4332 N   0  0  0  0  0  0  0  0  0  0  0  0
   -2.8050   -3.5628   -0.6411 C   0  0  0  0  0  0  0  0  0  0  0  0
   -2.9822   -4.6787   -1.1976 O   0  0  0  0  0  0  0  0  0  0  0  0
   -2.4373   -3.5385    0.8227 C   0  0  0  0  0  0  0  0  0  0  0  0
   -1.0747   -2.8867    1.1239 C   0  0  0  0  0  0  0  0  0  0  0  0
    0.0356   -3.3182    0.1958 C   0  0  0  0  0  0  0  0  0  0  0  0
    1.2781   -2.8333    0.3490 C   0  0  0  0  0  0  0  0  0  0  0  0
    2.2980   -2.9163   -0.7660 C   0  0  0  0  0  0  0  0  0  0  0  0
    2.4631   -1.5683   -1.5146 C   0  0  2  0  0  0  0  0  0  0  0  0
    3.1586   -0.5827   -0.6793 N   0  0  0  0  0  0  0  0  0  0  0  0
    3.6493    0.6579   -1.2133 C   0  0  0  0  0  0  0  0  0  0  0  0
    3.3407    1.0024   -2.3891 O   0  0  0  0  0  0  0  0  0  0  0  0
    4.5003    1.5493   -0.3936 C   0  0  0  0  0  0  0  0  0  0  0  0
    5.5025    1.0184    0.4422 C   0  0  0  0  0  0  0  0  0  0  0  0
    5.7356   -0.3182    0.4909 F   0  0  0  0  0  0  0  0  0  0  0  0
    6.3128    1.8688    1.2012 C   0  0  0  0  0  0  0  0  0  0  0  0
    6.1274    3.2575    1.1512 C   0  0  0  0  0  0  0  0  0  0  0  0
    7.0218    4.1699    1.9377 C   0  0  0  0  0  0  0  0  0  0  0  0
    5.1498    3.7916    0.2989 C   0  0  0  0  0  0  0  0  0  0  0  0
    4.3402    2.9459   -0.4660 C   0  0  0  0  0  0  0  0  0  0  0  0
    3.3925    3.4958   -1.2709 F   0  0  0  0  0  0  0  0  0  0  0  0
    1.1258   -1.0238   -1.9486 C   0  0  0  0  0  0  0  0  0  0  0  0
    0.2478   -0.4821   -1.0785 N   0  0  0  0  0  0  0  0  0  0  0  0
   -0.8815   -0.3346   -1.7924 C   0  0  0  0  0  0  0  0  0  0  0  0
   -0.6666   -0.7788   -3.0808 C   0  0  0  0  0  0  0  0  0  0  0  0
   -1.8136   -0.7746   -4.4097 Cl  0  0  0  0  0  0  0  0  0  0  0  0
    0.5987   -1.2174   -3.1732 N   0  0  0  0  0  0  0  0  0  0  0  0
   -6.5180    2.1252    4.9313 H   0  0  0  0  0  0  0  0  0  0  0  0
   -6.6495    3.6541    3.9595 H   0  0  0  0  0  0  0  0  0  0  0  0
   -8.1329    2.7129    4.3789 H   0  0  0  0  0  0  0  0  0  0  0  0
   -6.5199    0.2259    0.9206 H   0  0  0  0  0  0  0  0  0  0  0  0
   -3.6925    2.5291    0.4874 H   0  0  0  0  0  0  0  0  0  0  0  0
   -1.6591    2.0374   -0.7900 H   0  0  0  0  0  0  0  0  0  0  0  0
   -4.9796   -1.5571    0.0442 H   0  0  0  0  0  0  0  0  0  0  0  0
   -2.9094   -2.4747   -2.4707 H   0  0  0  0  0  0  0  0  0  0  0  0
   -2.4154   -4.5822    1.2079 H   0  0  0  0  0  0  0  0  0  0  0  0
   -3.2288   -3.0045    1.3885 H   0  0  0  0  0  0  0  0  0  0  0  0
   -0.7910   -3.1374    2.1694 H   0  0  0  0  0  0  0  0  0  0  0  0
   -1.1805   -1.7820    1.0676 H   0  0  0  0  0  0  0  0  0  0  0  0
   -0.1916   -3.9281   -0.6738 H   0  0  0  0  0  0  0  0  0  0  0  0
    1.5025   -2.2046    1.2050 H   0  0  0  0  0  0  0  0  0  0  0  0
    3.2760   -3.2182   -0.3345 H   0  0  0  0  0  0  0  0  0  0  0  0
    2.0124   -3.7047   -1.4976 H   0  0  0  0  0  0  0  0  0  0  0  0
    3.0848   -1.7609   -2.4154 H   0  0  0  0  0  0  0  0  0  0  0  0
    3.2862   -0.7711    0.3397 H   0  0  0  0  0  0  0  0  0  0  0  0
    7.0890    1.4440    1.8251 H   0  0  0  0  0  0  0  0  0  0  0  0
    6.4624    5.0696    2.2714 H   0  0  0  0  0  0  0  0  0  0  0  0
    7.4146    3.6555    2.8412 H   0  0  0  0  0  0  0  0  0  0  0  0
    7.8752    4.4878    1.3031 H   0  0  0  0  0  0  0  0  0  0  0  0
    5.0130    4.8651    0.2314 H   0  0  0  0  0  0  0  0  0  0  0  0
    1.0603   -1.6475   -4.0052 H   0  0  0  0  0  0  0  0  0  0  0  0
  1  2  1  0
  2  3  1  0
  3  4  2  0
  3  5  1  0
  5  6  1  0
  6  7  2  0
  7  8  1  0
  8  9  2  0
  9 10  1  0
 10 11  2  0
 10 12  1  0
 12 13  1  0
 13 14  2  0
 13 15  1  0
 15 16  1  0
 16 17  1  0
 17 18  2  0
 18 19  1  0
 19 20  1  0
 20 21  1  0
 21 22  1  0
 22 23  2  0
 22 24  1  0
 24 25  2  0
 25 26  1  0
 25 27  1  0
 27 28  2  0
 28 29  1  0
 28 30  1  0
 30 31  2  0
 31 32  1  0
 20 33  1  0
 33 34  2  0
 34 35  1  0
 35 36  2  0
 36 37  1  0
 36 38  1  0
 11  6  1  0
 31 24  1  0
 38 33  1  0
 35  9  1  0
  1 39  1  0
  1 40  1  0
  1 41  1  0
  5 42  1  0
  7 43  1  0
  8 44  1  0
 11 45  1  0
 12 46  1  0
 15 47  1  0
 15 48  1  0
 16 49  1  0
 16 50  1  0
 17 51  1  0
 18 52  1  0
 19 53  1  0
 19 54  1  0
 20 55  1  6
 21 56  1  0
 27 57  1  0
 29 58  1  0
 29 59  1  0
 29 60  1  0
 30 61  1  0
 38 62  1  0
M  END
$$$$
