
     RDKit          3D

 58 62  0  0  0  0  0  0  0  0999 V2000
   -5.0829    3.0031    0.9015 C   0  0  0  0  0  0  0  0  0  0  0  0
   -3.9996    2.2319    0.2141 C   0  0  0  0  0  0  0  0  0  0  0  0
   -2.7015    2.7539    0.1268 C   0  0  0  0  0  0  0  0  0  0  0  0
   -1.6837    2.0021   -0.4762 C   0  0  0  0  0  0  0  0  0  0  0  0
   -1.9892    0.7175   -0.9687 C   0  0  0  0  0  0  0  0  0  0  0  0
   -3.2990    0.2203   -0.8530 C   0  0  0  0  0  0  0  0  0  0  0  0
   -4.2647    0.9894   -0.2765 N   0  0  0  0  0  0  0  0  0  0  0  0
   -3.6514   -1.0869   -1.4360 C   0  0  0  0  0  0  0  0  0  0  0  0
   -4.7686   -1.3530   -2.2138 C   0  0  0  0  0  0  0  0  0  0  0  0
   -4.6032   -2.5330   -2.8452 N   0  0  0  0  0  0  0  0  0  0  0  0
   -3.4291   -3.0298   -2.4820 N   0  0  0  0  0  0  0  0  0  0  0  0
   -2.9246   -4.3209   -2.9280 C   0  0  0  0  0  0  0  0  0  0  0  0
   -2.8408   -2.1957   -1.6103 C   0  0  0  0  0  0  0  0  0  0  0  0
   -1.6201   -2.4519   -0.9798 O   0  0  0  0  0  0  0  0  0  0  0  0
   -1.5473   -2.6754    0.4255 C   0  0  0  0  0  0  0  0  0  0  0  0
   -0.0873   -2.5756    0.9045 C   0  0  0  0  0  0  0  0  0  0  0  0
    0.2277   -1.1483    1.3984 C   0  0  0  0  0  0  0  0  0  0  0  0
    1.7275   -0.8070    1.5131 C   0  0  1  0  0  0  0  0  0  0  0  0
    2.4609   -1.7186    2.5006 C   0  0  0  0  0  0  0  0  0  0  0  0
    2.4411   -0.7363    0.1327 C   0  0  0  0  0  0  0  0  0  0  0  0
    2.9184    0.6276   -0.1251 N   0  0  0  0  0  0  0  0  0  0  0  0
    2.0309    1.7455   -0.2742 C   0  0  0  0  0  0  0  0  0  0  0  0
    0.7804    1.5845   -0.6114 N   0  0  0  0  0  0  0  0  0  0  0  0
   -0.3007    2.5207   -0.5592 C   0  0  0  0  0  0  0  0  0  0  0  0
   -0.0880    3.7624   -0.6055 O   0  0  0  0  0  0  0  0  0  0  0  0
    2.5998    2.9726    0.2236 N   0  0  0  0  0  0  0  0  0  0  0  0
    3.8870    2.5686    0.6612 C   0  0  0  0  0  0  0  0  0  0  0  0
    4.8801    3.3740    1.2122 C   0  0  0  0  0  0  0  0  0  0  0  0
    6.0724    2.7610    1.6358 C   0  0  0  0  0  0  0  0  0  0  0  0
    6.2399    1.3678    1.5012 C   0  0  0  0  0  0  0  0  0  0  0  0
    5.2322    0.5802    0.9123 C   0  0  0  0  0  0  0  0  0  0  0  0
    4.0649    1.2165    0.4867 C   0  0  0  0  0  0  0  0  0  0  0  0
   -5.0614    2.7943    1.9983 H   0  0  0  0  0  0  0  0  0  0  0  0
   -6.0790    2.6920    0.5181 H   0  0  0  0  0  0  0  0  0  0  0  0
   -4.9586    4.0971    0.7334 H   0  0  0  0  0  0  0  0  0  0  0  0
   -2.4897    3.7247    0.5535 H   0  0  0  0  0  0  0  0  0  0  0  0
   -1.2225    0.1285   -1.4717 H   0  0  0  0  0  0  0  0  0  0  0  0
   -5.6050   -0.6864   -2.3914 H   0  0  0  0  0  0  0  0  0  0  0  0
   -1.8150   -4.3291   -2.9358 H   0  0  0  0  0  0  0  0  0  0  0  0
   -3.2921   -5.1171   -2.2451 H   0  0  0  0  0  0  0  0  0  0  0  0
   -3.2827   -4.5348   -3.9549 H   0  0  0  0  0  0  0  0  0  0  0  0
   -1.9342   -3.6958    0.6362 H   0  0  0  0  0  0  0  0  0  0  0  0
   -2.1812   -1.9253    0.9653 H   0  0  0  0  0  0  0  0  0  0  0  0
    0.5980   -2.8833    0.0808 H   0  0  0  0  0  0  0  0  0  0  0  0
    0.0621   -3.2781    1.7512 H   0  0  0  0  0  0  0  0  0  0  0  0
   -0.2518   -1.0036    2.3918 H   0  0  0  0  0  0  0  0  0  0  0  0
   -0.2300   -0.4136    0.7112 H   0  0  0  0  0  0  0  0  0  0  0  0
    1.7448    0.2074    1.9813 H   0  0  0  0  0  0  0  0  0  0  0  0
    1.8962   -1.7724    3.4607 H   0  0  0  0  0  0  0  0  0  0  0  0
    2.5860   -2.7443    2.0917 H   0  0  0  0  0  0  0  0  0  0  0  0
    3.4656   -1.2963    2.7209 H   0  0  0  0  0  0  0  0  0  0  0  0
    3.3012   -1.4356    0.1021 H   0  0  0  0  0  0  0  0  0  0  0  0
    1.7614   -1.0273   -0.6986 H   0  0  0  0  0  0  0  0  0  0  0  0
    2.1957    3.9292    0.2813 H   0  0  0  0  0  0  0  0  0  0  0  0
    4.7199    4.4381    1.3418 H   0  0  0  0  0  0  0  0  0  0  0  0
    6.8627    3.3543    2.0844 H   0  0  0  0  0  0  0  0  0  0  0  0
    7.1624    0.8990    1.8289 H   0  0  0  0  0  0  0  0  0  0  0  0
    5.3654   -0.4888    0.7889 H   0  0  0  0  0  0  0  0  0  0  0  0
  1  2  1  0
  2  3  2  0
  3  4  1  0
  4  5  2  0
  5  6  1  0
  6  7  2  0
  6  8  1  0
  8  9  1  0
  9 10  2  0
 10 11  1  0
 11 12  1  0
 11 13  1  0
 13 14  1  0
 14 15  1  0
 15 16  1  0
 16 17  1  0
 17 18  1  0
 18 19  1  0
 18 20  1  0
 20 21  1  0
 21 22  1  0
 22 23  2  0
 23 24  1  0
 24 25  2  0
 22 26  1  0
 26 27  1  0
 27 28  2  0
 28 29  1  0
 29 30  2  0
 30 31  1  0
 31 32  2  0
  7  2  1  0
 13  8  2  0
 32 21  1  0
 24  4  1  0
 32 27  1  0
  1 33  1  0
  1 34  1  0
  1 35  1  0
  3 36  1  0
  5 37  1  0
  9 38  1  0
 12 39  1  0
 12 40  1  0
 12 41  1  0
 15 42  1  0
 15 43  1  0
 16 44  1  0
 16 45  1  0
 17 46  1  0
 17 47  1  0
 18 48  1  1
 19 49  1  0
 19 50  1  0
 19 51  1  0
 20 52  1  0
 20 53  1  0
 26 54  1  0
 28 55  1  0
 29 56  1  0
 30 57  1  0
 31 58  1  0
M  END
$$$$
