
     RDKit          3D

 69 72  0  0  0  0  0  0  0  0999 V2000
   -1.5202    0.9430   -3.5494 C   0  0  0  0  0  0  0  0  0  0  0  0
   -1.7669    0.6227   -2.0554 C   0  0  0  0  0  0  0  0  0  0  0  0
   -3.1594    1.2094   -1.6888 C   0  0  0  0  0  0  0  0  0  0  0  0
   -1.7418   -0.9390   -1.8583 C   0  0  0  0  0  0  0  0  0  0  0  0
   -3.0608   -1.5614   -1.9953 N   0  0  0  0  0  0  0  0  0  0  0  0
   -3.9669   -1.7403   -0.8893 C   0  0  0  0  0  0  0  0  0  0  0  0
   -5.1714   -1.3992   -1.0344 O   0  0  0  0  0  0  0  0  0  0  0  0
   -3.5607   -2.3941    0.4134 C   0  0  2  0  0  0  0  0  0  0  0  0
   -2.8376   -1.4671    1.4270 C   0  0  0  0  0  0  0  0  0  0  0  0
   -1.6667   -2.2931    2.0219 C   0  0  2  0  0  0  0  0  0  0  0  0
   -0.2989   -1.5863    1.9346 C   0  0  0  0  0  0  0  0  0  0  0  0
   -0.1012   -0.4208    2.9423 C   0  0  1  0  0  0  0  0  0  0  0  0
    1.0383   -0.6759    3.8395 C   0  0  0  0  0  0  0  0  0  0  0  0
    1.9353   -0.8762    4.5427 N   0  0  0  0  0  0  0  0  0  0  0  0
    0.0825    0.8822    2.2795 N   0  0  0  0  0  0  0  0  0  0  0  0
    1.1734    1.2738    1.4123 C   0  0  0  0  0  0  0  0  0  0  0  0
    1.3824    2.5025    1.2219 O   0  0  0  0  0  0  0  0  0  0  0  0
    2.0069    0.2647    0.6533 C   0  0  2  0  0  0  0  0  0  0  0  0
    3.4927    0.6364    0.5714 C   0  0  2  0  0  0  0  0  0  0  0  0
    3.9769    0.0472   -0.7727 C   0  0  2  0  0  0  0  0  0  0  0  0
    2.7292   -0.5786   -1.4067 C   0  0  0  0  0  0  0  0  0  0  0  0
    1.5861    0.0397   -0.7382 N   0  0  0  0  0  0  0  0  0  0  0  0
    0.7580    0.9583   -1.5007 C   0  0  0  0  0  0  0  0  0  0  0  0
    1.2531    1.5304   -2.5116 O   0  0  0  0  0  0  0  0  0  0  0  0
   -0.6788    1.2905   -1.1262 C   0  0  1  0  0  0  0  0  0  0  0  0
   -0.8196    2.7564   -1.1022 N   0  0  0  0  0  0  0  0  0  0  0  0
   -1.4568    3.4768   -0.0351 C   0  0  0  0  0  0  0  0  0  0  0  0
   -2.0595    2.8588    0.8833 O   0  0  0  0  0  0  0  0  0  0  0  0
   -1.4576    4.9740   -0.0448 C   0  0  0  0  0  0  0  0  0  0  0  0
   -1.9214    5.4665    1.1624 F   0  0  0  0  0  0  0  0  0  0  0  0
   -2.2765    5.4252   -1.0626 F   0  0  0  0  0  0  0  0  0  0  0  0
   -0.1719    5.4379   -0.2539 F   0  0  0  0  0  0  0  0  0  0  0  0
    4.5735   -0.4508    0.5454 C   0  0  0  0  0  0  0  0  0  0  0  0
    5.9846    0.0632    0.8477 C   0  0  0  0  0  0  0  0  0  0  0  0
    4.2558   -1.8677    1.0602 C   0  0  0  0  0  0  0  0  0  0  0  0
   -1.6631   -3.5116    1.1687 C   0  0  0  0  0  0  0  0  0  0  0  0
   -0.8686   -4.4773    1.3220 O   0  0  0  0  0  0  0  0  0  0  0  0
   -2.6719   -3.5137    0.1852 N   0  0  0  0  0  0  0  0  0  0  0  0
   -1.4810    2.0390   -3.7225 H   0  0  0  0  0  0  0  0  0  0  0  0
   -2.3394    0.5260   -4.1743 H   0  0  0  0  0  0  0  0  0  0  0  0
   -0.5726    0.4936   -3.9119 H   0  0  0  0  0  0  0  0  0  0  0  0
   -3.4028    1.0203   -0.6232 H   0  0  0  0  0  0  0  0  0  0  0  0
   -3.1973    2.3045   -1.8669 H   0  0  0  0  0  0  0  0  0  0  0  0
   -3.9635    0.7795   -2.3221 H   0  0  0  0  0  0  0  0  0  0  0  0
   -1.0535   -1.4092   -2.5936 H   0  0  0  0  0  0  0  0  0  0  0  0
   -1.3203   -1.2173   -0.8862 H   0  0  0  0  0  0  0  0  0  0  0  0
   -3.4734   -1.5719   -2.9554 H   0  0  0  0  0  0  0  0  0  0  0  0
   -4.4766   -2.7915    0.9062 H   0  0  0  0  0  0  0  0  0  0  0  0
   -3.5383   -1.1663    2.2360 H   0  0  0  0  0  0  0  0  0  0  0  0
   -2.4790   -0.5355    0.9465 H   0  0  0  0  0  0  0  0  0  0  0  0
   -1.8877   -2.5894    3.0709 H   0  0  0  0  0  0  0  0  0  0  0  0
   -0.1653   -1.2275    0.9039 H   0  0  0  0  0  0  0  0  0  0  0  0
    0.4942   -2.3536    2.0902 H   0  0  0  0  0  0  0  0  0  0  0  0
   -0.9996   -0.3509    3.5941 H   0  0  0  0  0  0  0  0  0  0  0  0
   -0.5664    1.6424    2.5824 H   0  0  0  0  0  0  0  0  0  0  0  0
    1.9576   -0.6812    1.2049 H   0  0  0  0  0  0  0  0  0  0  0  0
    3.7953    1.7037    0.6532 H   0  0  0  0  0  0  0  0  0  0  0  0
    4.5289    0.8141   -1.3593 H   0  0  0  0  0  0  0  0  0  0  0  0
    2.7329   -0.3877   -2.5009 H   0  0  0  0  0  0  0  0  0  0  0  0
    2.6962   -1.6786   -1.2861 H   0  0  0  0  0  0  0  0  0  0  0  0
   -0.8647    0.9034   -0.1097 H   0  0  0  0  0  0  0  0  0  0  0  0
   -0.4914    3.3071   -1.9278 H   0  0  0  0  0  0  0  0  0  0  0  0
    6.1496    1.0925    0.4615 H   0  0  0  0  0  0  0  0  0  0  0  0
    6.1485    0.0706    1.9457 H   0  0  0  0  0  0  0  0  0  0  0  0
    6.7328   -0.6092    0.3781 H   0  0  0  0  0  0  0  0  0  0  0  0
    5.0743   -2.5555    0.7618 H   0  0  0  0  0  0  0  0  0  0  0  0
    4.2065   -1.8463    2.1690 H   0  0  0  0  0  0  0  0  0  0  0  0
    3.3138   -2.3043    0.6845 H   0  0  0  0  0  0  0  0  0  0  0  0
   -2.8883   -4.3271   -0.4335 H   0  0  0  0  0  0  0  0  0  0  0  0
  1  2  1  0
  2  3  1  0
  2  4  1  0
  4  5  1  0
  5  6  1  0
  6  7  2  0
  6  8  1  0
  8  9  1  0
  9 10  1  0
 10 11  1  0
 11 12  1  0
 12 13  1  0
 13 14  3  0
 12 15  1  0
 15 16  1  0
 16 17  2  0
 16 18  1  0
 18 19  1  0
 19 20  1  0
 20 21  1  0
 21 22  1  0
 22 23  1  0
 23 24  2  0
 23 25  1  0
 25 26  1  0
 26 27  1  0
 27 28  2  0
 27 29  1  0
 29 30  1  0
 29 31  1  0
 29 32  1  0
 20 33  1  0
 33 34  1  0
 33 35  1  0
 10 36  1  0
 36 37  2  0
 36 38  1  0
 25  2  1  0
 38  8  1  0
 22 18  1  0
 33 19  1  0
  1 39  1  0
  1 40  1  0
  1 41  1  0
  3 42  1  0
  3 43  1  0
  3 44  1  0
  4 45  1  0
  4 46  1  0
  5 47  1  0
  8 48  1  1
  9 49  1  0
  9 50  1  0
 10 51  1  1
 11 52  1  0
 11 53  1  0
 12 54  1  1
 15 55  1  0
 18 56  1  1
 19 57  1  6
 20 58  1  6
 21 59  1  0
 21 60  1  0
 25 61  1  1
 26 62  1  0
 34 63  1  0
 34 64  1  0
 34 65  1  0
 35 66  1  0
 35 67  1  0
 35 68  1  0
 38 69  1  0
M  END
$$$$
