
     RDKit          3D

 66 70  0  0  0  0  0  0  0  0999 V2000
   -6.2837    0.8892    0.0625 C   0  0  0  0  0  0  0  0  0  0  0  0
   -5.4188    0.3607    1.1795 C   0  0  0  0  0  0  0  0  0  0  0  0
   -5.9261    0.2805    2.4981 C   0  0  0  0  0  0  0  0  0  0  0  0
   -7.5293    0.8753    2.9250 Cl  0  0  0  0  0  0  0  0  0  0  0  0
   -5.1513   -0.2728    3.5219 C   0  0  0  0  0  0  0  0  0  0  0  0
   -3.8785   -0.7733    3.2612 C   0  0  0  0  0  0  0  0  0  0  0  0
   -3.3303   -0.6825    1.9833 C   0  0  0  0  0  0  0  0  0  0  0  0
   -4.0833   -0.0486    0.9351 C   0  0  0  0  0  0  0  0  0  0  0  0
   -3.3515    0.2009   -0.3649 C   0  0  1  0  0  0  0  0  0  0  0  0
   -3.0738   -1.0827   -1.1970 C   0  0  0  0  0  0  0  0  0  0  0  0
   -1.9237   -0.8870   -2.2244 C   0  0  0  0  0  0  0  0  0  0  0  0
   -1.1697    0.4221   -1.9543 C   0  0  2  0  0  0  0  0  0  0  0  0
   -2.1506    1.6207   -2.1342 C   0  0  0  0  0  0  0  0  0  0  0  0
   -3.4857    1.4241   -1.3066 C   0  0  0  0  0  0  0  0  0  0  0  0
    0.0468    0.4926   -2.6737 O   0  0  0  0  0  0  0  0  0  0  0  0
    1.0861    1.0825   -1.8809 C   0  0  0  0  0  0  0  0  0  0  0  0
    1.4380    0.3787   -0.4938 C   0  0  0  0  0  0  0  0  0  0  0  0
    2.9473    0.4809   -0.1813 C   0  0  1  0  0  0  0  0  0  0  0  0
    3.1415    0.1966    1.2541 N   0  0  0  0  0  0  0  0  0  0  0  0
    4.4555    1.1140    1.9339 S   0  0  0  0  0  6  0  0  0  0  0  0
    4.1153    2.5770    1.8837 O   0  0  0  0  0  0  0  0  0  0  0  0
    4.6260    0.7093    3.3721 O   0  0  0  0  0  0  0  0  0  0  0  0
    5.9743    0.8456    1.0167 C   0  0  0  0  0  0  0  0  0  0  0  0
    6.7133   -0.4327    1.3741 C   0  0  0  0  0  0  0  0  0  0  0  0
    7.2485    0.9120    1.8425 C   0  0  0  0  0  0  0  0  0  0  0  0
    3.8012   -0.4709   -1.0773 C   0  0  0  0  0  0  0  0  0  0  0  0
    2.9817   -1.4736   -1.9072 C   0  0  0  0  0  0  0  0  0  0  0  0
    1.8111   -2.0636   -1.1148 C   0  0  0  0  0  0  0  0  0  0  0  0
    1.0212   -1.0468   -0.3901 N   0  0  0  0  0  0  0  0  0  0  0  0
    0.0048   -1.5672    0.5380 C   0  0  0  0  0  0  0  0  0  0  0  0
   -0.2329   -2.8072    0.5235 O   0  0  0  0  0  0  0  0  0  0  0  0
   -0.7773   -0.7604    1.5774 C   0  0  0  0  0  0  0  0  0  0  0  0
   -2.0956   -1.3403    1.7335 O   0  0  0  0  0  0  0  0  0  0  0  0
   -6.0915    0.3256   -0.8729 H   0  0  0  0  0  0  0  0  0  0  0  0
   -7.3632    0.7531    0.2738 H   0  0  0  0  0  0  0  0  0  0  0  0
   -6.0837    1.9694   -0.0924 H   0  0  0  0  0  0  0  0  0  0  0  0
   -5.5502   -0.3409    4.5263 H   0  0  0  0  0  0  0  0  0  0  0  0
   -3.3179   -1.2488    4.0561 H   0  0  0  0  0  0  0  0  0  0  0  0
   -2.4852    0.5687    0.1573 H   0  0  0  0  0  0  0  0  0  0  0  0
   -4.0035   -1.3641   -1.7369 H   0  0  0  0  0  0  0  0  0  0  0  0
   -2.8241   -1.9383   -0.5377 H   0  0  0  0  0  0  0  0  0  0  0  0
   -2.3373   -0.8677   -3.2564 H   0  0  0  0  0  0  0  0  0  0  0  0
   -1.2214   -1.7456   -2.1642 H   0  0  0  0  0  0  0  0  0  0  0  0
   -0.9082    0.3916   -0.9130 H   0  0  0  0  0  0  0  0  0  0  0  0
   -2.3927    1.7436   -3.2119 H   0  0  0  0  0  0  0  0  0  0  0  0
   -1.6457    2.5502   -1.7947 H   0  0  0  0  0  0  0  0  0  0  0  0
   -4.3252    1.2652   -2.0153 H   0  0  0  0  0  0  0  0  0  0  0  0
   -3.6977    2.3428   -0.7167 H   0  0  0  0  0  0  0  0  0  0  0  0
    0.8292    2.1464   -1.6792 H   0  0  0  0  0  0  0  0  0  0  0  0
    1.9897    1.1471   -2.5204 H   0  0  0  0  0  0  0  0  0  0  0  0
    0.9310    0.9753    0.2904 H   0  0  0  0  0  0  0  0  0  0  0  0
    3.2520    1.5311   -0.3954 H   0  0  0  0  0  0  0  0  0  0  0  0
    3.3146   -0.8213    1.4222 H   0  0  0  0  0  0  0  0  0  0  0  0
    6.0671    1.1866   -0.0358 H   0  0  0  0  0  0  0  0  0  0  0  0
    6.2612   -1.0495    2.1794 H   0  0  0  0  0  0  0  0  0  0  0  0
    7.2844   -0.8795    0.5332 H   0  0  0  0  0  0  0  0  0  0  0  0
    8.1430    1.2562    1.2818 H   0  0  0  0  0  0  0  0  0  0  0  0
    7.1292    1.0904    2.9316 H   0  0  0  0  0  0  0  0  0  0  0  0
    4.5278   -1.0449   -0.4644 H   0  0  0  0  0  0  0  0  0  0  0  0
    4.4079    0.1406   -1.7802 H   0  0  0  0  0  0  0  0  0  0  0  0
    3.6469   -2.2995   -2.2407 H   0  0  0  0  0  0  0  0  0  0  0  0
    2.5994   -0.9945   -2.8313 H   0  0  0  0  0  0  0  0  0  0  0  0
    2.2288   -2.7899   -0.3827 H   0  0  0  0  0  0  0  0  0  0  0  0
    1.1490   -2.6188   -1.8137 H   0  0  0  0  0  0  0  0  0  0  0  0
   -0.8191    0.3208    1.3709 H   0  0  0  0  0  0  0  0  0  0  0  0
   -0.2454   -0.8543    2.5465 H   0  0  0  0  0  0  0  0  0  0  0  0
  1  2  1  0
  2  3  2  0
  3  4  1  0
  3  5  1  0
  5  6  2  0
  6  7  1  0
  7  8  2  0
  8  9  1  0
  9 10  1  0
 10 11  1  0
 11 12  1  0
 12 13  1  0
 13 14  1  0
 12 15  1  0
 15 16  1  0
 16 17  1  0
 17 18  1  0
 18 19  1  0
 19 20  1  0
 20 21  2  0
 20 22  2  0
 20 23  1  0
 23 24  1  0
 24 25  1  0
 18 26  1  0
 26 27  1  0
 27 28  1  0
 28 29  1  0
 29 30  1  0
 30 31  2  0
 30 32  1  0
 32 33  1  0
  8  2  1  0
 14  9  1  0
 29 17  1  0
 33  7  1  0
 25 23  1  0
  1 34  1  0
  1 35  1  0
  1 36  1  0
  5 37  1  0
  6 38  1  0
  9 39  1  1
 10 40  1  0
 10 41  1  0
 11 42  1  0
 11 43  1  0
 12 44  1  1
 13 45  1  0
 13 46  1  0
 14 47  1  0
 14 48  1  0
 16 49  1  0
 16 50  1  0
 17 51  1  0
 18 52  1  1
 19 53  1  0
 23 54  1  0
 24 55  1  0
 24 56  1  0
 25 57  1  0
 25 58  1  0
 26 59  1  0
 26 60  1  0
 27 61  1  0
 27 62  1  0
 28 63  1  0
 28 64  1  0
 32 65  1  0
 32 66  1  0
M  END
$$$$
