
     RDKit          3D

 65 69  0  0  0  0  0  0  0  0999 V2000
   -3.7574   -2.5302    1.4343 C   0  0  0  0  0  0  0  0  0  0  0  0
   -3.8191   -2.6407   -0.3393 S   0  0  0  0  0  6  0  0  0  0  0  0
   -3.5636   -4.0582   -0.7681 O   0  0  0  0  0  0  0  0  0  0  0  0
   -5.1887   -2.2362   -0.8095 O   0  0  0  0  0  0  0  0  0  0  0  0
   -2.6203   -1.5869   -1.0299 N   0  0  0  0  0  0  0  0  0  0  0  0
   -1.3080   -2.1119   -1.4250 C   0  0  0  0  0  0  0  0  0  0  0  0
   -0.5530   -2.7020   -0.2268 C   0  0  0  0  0  0  0  0  0  0  0  0
    0.9099   -2.9916   -0.5836 C   0  0  0  0  0  0  0  0  0  0  0  0
    1.6402   -3.6672    0.5869 C   0  0  0  0  0  0  0  0  0  0  0  0
    3.1335   -3.7033    0.3738 C   0  0  0  0  0  0  0  0  0  0  0  0
    3.7181   -4.8195    0.3935 O   0  0  0  0  0  0  0  0  0  0  0  0
    3.9011   -2.5207    0.0777 N   0  0  0  0  0  0  0  0  0  0  0  0
    4.8711   -2.4859   -1.0202 C   0  0  0  0  0  0  0  0  0  0  0  0
    5.0672   -0.9944   -1.3825 C   0  0  0  0  0  0  0  0  0  0  0  0
    4.2298   -0.2849   -0.3794 C   0  0  0  0  0  0  0  0  0  0  0  0
    4.0436    1.0921   -0.2396 C   0  0  0  0  0  0  0  0  0  0  0  0
    3.1911    1.5570    0.7785 C   0  0  0  0  0  0  0  0  0  0  0  0
    2.6225    0.6336    1.6859 C   0  0  0  0  0  0  0  0  0  0  0  0
    2.8402   -0.7417    1.5321 C   0  0  0  0  0  0  0  0  0  0  0  0
    3.6049   -1.1795    0.4468 C   0  0  0  0  0  0  0  0  0  0  0  0
    2.9095    2.9594    0.8930 N   0  0  0  0  0  0  0  0  0  0  0  0
    1.5860    3.4507    1.1439 C   0  0  0  0  0  0  0  0  0  0  0  0
    1.3987    4.7388    1.5221 N   0  0  0  0  0  0  0  0  0  0  0  0
    0.1534    5.2250    1.7572 C   0  0  0  0  0  0  0  0  0  0  0  0
   -0.9774    4.4024    1.6001 C   0  0  0  0  0  0  0  0  0  0  0  0
   -2.3653    4.9452    1.8658 C   0  0  0  0  0  0  0  0  0  0  0  0
   -3.1662    4.7533    0.7550 F   0  0  0  0  0  0  0  0  0  0  0  0
   -2.3401    6.3009    2.1458 F   0  0  0  0  0  0  0  0  0  0  0  0
   -2.9187    4.2892    2.9499 F   0  0  0  0  0  0  0  0  0  0  0  0
   -0.7603    3.0654    1.1889 C   0  0  0  0  0  0  0  0  0  0  0  0
    0.5118    2.6396    0.9748 N   0  0  0  0  0  0  0  0  0  0  0  0
   -1.8488    2.1427    0.9924 N   0  0  0  0  0  0  0  0  0  0  0  0
   -1.7057    0.8978    0.2297 C   0  0  0  0  0  0  0  0  0  0  0  0
   -2.5961    0.8914   -0.9953 C   0  0  0  0  0  0  0  0  0  0  0  0
   -2.9386    2.0906   -1.6472 C   0  0  0  0  0  0  0  0  0  0  0  0
   -3.7606    2.0714   -2.7738 C   0  0  0  0  0  0  0  0  0  0  0  0
   -4.2185    0.8510   -3.2646 C   0  0  0  0  0  0  0  0  0  0  0  0
   -3.8425   -0.3063   -2.6625 N   0  0  0  0  0  0  0  0  0  0  0  0
   -3.0439   -0.3242   -1.5598 C   0  0  0  0  0  0  0  0  0  0  0  0
   -2.7701   -2.8795    1.7983 H   0  0  0  0  0  0  0  0  0  0  0  0
   -3.9120   -1.4767    1.7450 H   0  0  0  0  0  0  0  0  0  0  0  0
   -4.5543   -3.1637    1.8741 H   0  0  0  0  0  0  0  0  0  0  0  0
   -0.6963   -1.2947   -1.8694 H   0  0  0  0  0  0  0  0  0  0  0  0
   -1.4441   -2.8909   -2.2057 H   0  0  0  0  0  0  0  0  0  0  0  0
   -0.5819   -1.9809    0.6186 H   0  0  0  0  0  0  0  0  0  0  0  0
   -1.0441   -3.6451    0.0943 H   0  0  0  0  0  0  0  0  0  0  0  0
    1.4012   -2.0318   -0.8475 H   0  0  0  0  0  0  0  0  0  0  0  0
    0.9558   -3.6586   -1.4727 H   0  0  0  0  0  0  0  0  0  0  0  0
    1.2588   -4.7082    0.6810 H   0  0  0  0  0  0  0  0  0  0  0  0
    1.4018   -3.1700    1.5447 H   0  0  0  0  0  0  0  0  0  0  0  0
    5.8300   -2.9382   -0.6871 H   0  0  0  0  0  0  0  0  0  0  0  0
    4.4784   -3.0447   -1.8985 H   0  0  0  0  0  0  0  0  0  0  0  0
    4.6994   -0.7806   -2.4093 H   0  0  0  0  0  0  0  0  0  0  0  0
    6.1323   -0.6948   -1.2790 H   0  0  0  0  0  0  0  0  0  0  0  0
    4.5199    1.7826   -0.9247 H   0  0  0  0  0  0  0  0  0  0  0  0
    2.0203    0.9815    2.5153 H   0  0  0  0  0  0  0  0  0  0  0  0
    2.4426   -1.4266    2.2628 H   0  0  0  0  0  0  0  0  0  0  0  0
    3.6663    3.6476    0.6809 H   0  0  0  0  0  0  0  0  0  0  0  0
    0.0539    6.2569    2.0657 H   0  0  0  0  0  0  0  0  0  0  0  0
   -2.7953    2.3506    1.3794 H   0  0  0  0  0  0  0  0  0  0  0  0
   -0.6565    0.7373   -0.0989 H   0  0  0  0  0  0  0  0  0  0  0  0
   -1.9785    0.0558    0.9008 H   0  0  0  0  0  0  0  0  0  0  0  0
   -2.5749    3.0439   -1.2868 H   0  0  0  0  0  0  0  0  0  0  0  0
   -4.0365    2.9958   -3.2646 H   0  0  0  0  0  0  0  0  0  0  0  0
   -4.8563    0.8209   -4.1377 H   0  0  0  0  0  0  0  0  0  0  0  0
  1  2  1  0
  2  3  2  0
  2  4  2  0
  2  5  1  0
  5  6  1  0
  6  7  1  0
  7  8  1  0
  8  9  1  0
  9 10  1  0
 10 11  2  0
 10 12  1  0
 12 13  1  0
 13 14  1  0
 14 15  1  0
 15 16  2  0
 16 17  1  0
 17 18  2  0
 18 19  1  0
 19 20  2  0
 17 21  1  0
 21 22  1  0
 22 23  2  0
 23 24  1  0
 24 25  2  0
 25 26  1  0
 26 27  1  0
 26 28  1  0
 26 29  1  0
 25 30  1  0
 30 31  2  0
 30 32  1  0
 32 33  1  0
 33 34  1  0
 34 35  2  0
 35 36  1  0
 36 37  2  0
 37 38  1  0
 38 39  2  0
 39  5  1  0
 20 12  1  0
 31 22  1  0
 39 34  1  0
 20 15  1  0
  1 40  1  0
  1 41  1  0
  1 42  1  0
  6 43  1  0
  6 44  1  0
  7 45  1  0
  7 46  1  0
  8 47  1  0
  8 48  1  0
  9 49  1  0
  9 50  1  0
 13 51  1  0
 13 52  1  0
 14 53  1  0
 14 54  1  0
 16 55  1  0
 18 56  1  0
 19 57  1  0
 21 58  1  0
 24 59  1  0
 32 60  1  0
 33 61  1  0
 33 62  1  0
 35 63  1  0
 36 64  1  0
 37 65  1  0
M  END
$$$$
