
     RDKit          3D

 57 60  0  0  0  0  0  0  0  0999 V2000
   -5.9219   -0.0590   -1.3656 C   0  0  0  0  0  0  0  0  0  0  0  0
   -5.0100   -0.0376   -0.1710 C   0  0  0  0  0  0  0  0  0  0  0  0
   -5.5271    0.4287    0.9953 N   0  0  0  0  0  0  0  0  0  0  0  0
   -4.7822    0.5132    2.1192 C   0  0  0  0  0  0  0  0  0  0  0  0
   -3.4854    0.1347    2.0980 N   0  0  0  0  0  0  0  0  0  0  0  0
   -2.8949   -0.3490    0.9717 C   0  0  0  0  0  0  0  0  0  0  0  0
   -3.6550   -0.4751   -0.2240 C   0  0  0  0  0  0  0  0  0  0  0  0
   -3.0395   -0.9380   -1.5552 C   0  0  1  0  0  0  0  0  0  0  0  0
   -2.3344    0.2304   -2.2855 C   0  0  0  0  0  0  0  0  0  0  0  0
   -0.8573    0.3658   -1.9079 C   0  0  0  0  0  0  0  0  0  0  0  0
   -0.0535   -0.9594   -2.0246 C   0  0  2  0  0  0  0  0  0  0  0  0
   -0.9404   -2.1736   -2.3600 C   0  0  0  0  0  0  0  0  0  0  0  0
   -2.1863   -2.2363   -1.4684 C   0  0  0  0  0  0  0  0  0  0  0  0
    0.6181   -1.2215   -0.8069 O   0  0  0  0  0  0  0  0  0  0  0  0
    1.8141   -0.4713   -0.6879 C   0  0  0  0  0  0  0  0  0  0  0  0
    1.8817    0.1912    0.6998 C   0  0  0  0  0  0  0  0  0  0  0  0
    3.2601    0.8485    0.9397 C   0  0  1  0  0  0  0  0  0  0  0  0
    3.1682    2.3139    0.8283 N   0  0  0  0  0  0  0  0  0  0  0  0
    4.7443    3.0523    0.7461 S   0  0  0  0  0  6  0  0  0  0  0  0
    5.6540    2.4698   -0.6715 C   0  0  0  0  0  0  0  0  0  0  0  0
    5.5244    2.7596    1.9968 O   0  0  0  0  0  0  0  0  0  0  0  0
    4.5711    4.5398    0.6221 O   0  0  0  0  0  0  0  0  0  0  0  0
    3.6713    0.4126    2.3527 C   0  0  0  0  0  0  0  0  0  0  0  0
    2.8675   -0.8420    2.6570 C   0  0  0  0  0  0  0  0  0  0  0  0
    1.7325   -0.8005    1.7566 N   0  0  0  0  0  0  0  0  0  0  0  0
    0.4925   -1.4415    2.0903 C   0  0  0  0  0  0  0  0  0  0  0  0
    0.4779   -2.6807    2.3171 O   0  0  0  0  0  0  0  0  0  0  0  0
   -0.7768   -0.6550    2.2268 C   0  0  0  0  0  0  0  0  0  0  0  0
   -1.5455   -0.7253    1.0266 O   0  0  0  0  0  0  0  0  0  0  0  0
   -6.8968    0.4140   -1.1205 H   0  0  0  0  0  0  0  0  0  0  0  0
   -5.4708    0.5105   -2.2051 H   0  0  0  0  0  0  0  0  0  0  0  0
   -6.1185   -1.1070   -1.6746 H   0  0  0  0  0  0  0  0  0  0  0  0
   -5.2210    0.8908    3.0324 H   0  0  0  0  0  0  0  0  0  0  0  0
   -3.8659   -1.2257   -2.2361 H   0  0  0  0  0  0  0  0  0  0  0  0
   -2.8579    1.1906   -2.0826 H   0  0  0  0  0  0  0  0  0  0  0  0
   -2.3969    0.0648   -3.3843 H   0  0  0  0  0  0  0  0  0  0  0  0
   -0.7957    0.7732   -0.8775 H   0  0  0  0  0  0  0  0  0  0  0  0
   -0.3933    1.1301   -2.5686 H   0  0  0  0  0  0  0  0  0  0  0  0
    0.6705   -0.8787   -2.8712 H   0  0  0  0  0  0  0  0  0  0  0  0
   -1.2559   -2.1216   -3.4256 H   0  0  0  0  0  0  0  0  0  0  0  0
   -0.3522   -3.1095   -2.2391 H   0  0  0  0  0  0  0  0  0  0  0  0
   -1.8815   -2.4947   -0.4383 H   0  0  0  0  0  0  0  0  0  0  0  0
   -2.8030   -3.1007   -1.8015 H   0  0  0  0  0  0  0  0  0  0  0  0
    1.9267    0.3351   -1.4519 H   0  0  0  0  0  0  0  0  0  0  0  0
    2.6678   -1.1726   -0.8106 H   0  0  0  0  0  0  0  0  0  0  0  0
    1.0717    0.9480    0.7891 H   0  0  0  0  0  0  0  0  0  0  0  0
    4.0052    0.4457    0.2182 H   0  0  0  0  0  0  0  0  0  0  0  0
    2.7006    2.5436   -0.0792 H   0  0  0  0  0  0  0  0  0  0  0  0
    6.0334    1.4446   -0.4835 H   0  0  0  0  0  0  0  0  0  0  0  0
    6.5162    3.1423   -0.8598 H   0  0  0  0  0  0  0  0  0  0  0  0
    4.9917    2.4639   -1.5616 H   0  0  0  0  0  0  0  0  0  0  0  0
    3.4063    1.2016    3.0916 H   0  0  0  0  0  0  0  0  0  0  0  0
    4.7619    0.2066    2.4130 H   0  0  0  0  0  0  0  0  0  0  0  0
    3.4666   -1.7560    2.4549 H   0  0  0  0  0  0  0  0  0  0  0  0
    2.5324   -0.8368    3.7177 H   0  0  0  0  0  0  0  0  0  0  0  0
   -1.3583   -1.0814    3.0736 H   0  0  0  0  0  0  0  0  0  0  0  0
   -0.5508    0.4058    2.4658 H   0  0  0  0  0  0  0  0  0  0  0  0
  1  2  1  0
  2  3  2  0
  3  4  1  0
  4  5  2  0
  5  6  1  0
  6  7  2  0
  7  8  1  0
  8  9  1  0
  9 10  1  0
 10 11  1  0
 11 12  1  0
 12 13  1  0
 11 14  1  0
 14 15  1  0
 15 16  1  0
 16 17  1  0
 17 18  1  0
 18 19  1  0
 19 20  1  0
 19 21  2  0
 19 22  2  0
 17 23  1  0
 23 24  1  0
 24 25  1  0
 25 26  1  0
 26 27  2  0
 26 28  1  0
 28 29  1  0
  7  2  1  0
 13  8  1  0
 25 16  1  0
 29  6  1  0
  1 30  1  0
  1 31  1  0
  1 32  1  0
  4 33  1  0
  8 34  1  6
  9 35  1  0
  9 36  1  0
 10 37  1  0
 10 38  1  0
 11 39  1  6
 12 40  1  0
 12 41  1  0
 13 42  1  0
 13 43  1  0
 15 44  1  0
 15 45  1  0
 16 46  1  0
 17 47  1  6
 18 48  1  0
 20 49  1  0
 20 50  1  0
 20 51  1  0
 23 52  1  0
 23 53  1  0
 24 54  1  0
 24 55  1  0
 28 56  1  0
 28 57  1  0
M  END
$$$$
