
     RDKit          3D

105110  0  0  0  0  0  0  0  0999 V2000
    6.6300    2.2253   -4.1963 C   0  0  0  0  0  0  0  0  0  0  0  0
    6.2336    0.7826   -4.4702 C   0  0  0  0  0  0  0  0  0  0  0  0
    5.0100    0.4630   -3.8090 O   0  0  0  0  0  0  0  0  0  0  0  0
    4.9126    0.2099   -2.4353 C   0  0  0  0  0  0  0  0  0  0  0  0
    3.6638   -0.0777   -1.8804 C   0  0  0  0  0  0  0  0  0  0  0  0
    3.5581   -0.3502   -0.5078 C   0  0  0  0  0  0  0  0  0  0  0  0
    2.3209   -0.6665    0.0727 O   0  0  0  0  0  0  0  0  0  0  0  0
    1.0944    0.0051   -0.2268 C   0  0  2  0  0  0  0  0  0  0  0  0
    0.8277    1.0670    0.8354 C   0  0  0  0  0  0  0  0  0  0  0  0
   -0.0040    0.3609    1.9212 C   0  0  1  0  0  0  0  0  0  0  0  0
   -1.0584    1.2498    2.5593 C   0  0  0  0  0  0  0  0  0  0  0  0
   -1.7353    0.8128    3.5252 O   0  0  0  0  0  0  0  0  0  0  0  0
   -1.2665    2.6016    2.1195 N   0  0  0  0  0  0  0  0  0  0  0  0
   -2.3567    3.0171    1.2242 C   0  0  2  0  0  0  0  0  0  0  0  0
   -2.2158    4.3718    0.5844 C   0  0  0  0  0  0  0  0  0  0  0  0
   -1.3484    4.5345   -0.3158 O   0  0  0  0  0  0  0  0  0  0  0  0
   -3.0210    5.4758    1.0163 N   0  0  0  0  0  0  0  0  0  0  0  0
   -3.3013    6.8551    0.0059 S   0  0  0  0  0  6  0  0  0  0  0  0
   -3.4611    8.0710    0.8705 O   0  0  0  0  0  0  0  0  0  0  0  0
   -2.1377    7.0772   -0.9134 O   0  0  0  0  0  0  0  0  0  0  0  0
   -4.7686    6.5488   -0.9760 C   0  0  0  0  0  0  0  0  0  0  0  0
   -5.5796    7.7890   -1.3248 C   0  0  0  0  0  0  0  0  0  0  0  0
   -6.0723    6.8271   -0.2499 C   0  0  0  0  0  0  0  0  0  0  0  0
   -3.7558    2.5502    1.6121 C   0  0  0  0  0  0  0  0  0  0  0  0
   -3.0404    1.9006    0.4223 C   0  0  1  0  0  0  0  0  0  0  0  0
   -3.6724    2.2469   -0.9056 C   0  0  0  0  0  0  0  0  0  0  0  0
   -4.7394    1.5935   -1.3930 C   0  0  0  0  0  0  0  0  0  0  0  0
   -5.3873    0.4209   -0.7025 C   0  0  0  0  0  0  0  0  0  0  0  0
   -4.6222   -0.8765   -0.9958 C   0  0  0  0  0  0  0  0  0  0  0  0
   -5.1139   -2.0501   -0.1321 C   0  0  0  0  0  0  0  0  0  0  0  0
   -4.5929   -1.9947    1.3286 C   0  0  0  0  0  0  0  0  0  0  0  0
   -3.5733   -3.1062    1.6548 C   0  0  0  0  0  0  0  0  0  0  0  0
   -2.1709   -2.8179    1.0786 C   0  0  2  0  0  0  0  0  0  0  0  0
   -1.3958   -4.0568    1.0007 N   0  0  0  0  0  0  0  0  0  0  0  0
   -1.4823   -4.9352   -0.1259 C   0  0  0  0  0  0  0  0  0  0  0  0
   -2.2056   -4.6315   -1.1171 O   0  0  0  0  0  0  0  0  0  0  0  0
   -0.7597   -6.1330   -0.1212 O   0  0  0  0  0  0  0  0  0  0  0  0
   -0.8297   -7.0960   -1.1767 C   0  0  0  0  0  0  0  0  0  0  0  0
    0.3818   -8.0288   -1.0830 C   0  0  0  0  0  0  0  0  0  0  0  0
   -2.1319   -7.8972   -1.0792 C   0  0  0  0  0  0  0  0  0  0  0  0
   -1.4115   -1.7920    1.8923 C   0  0  0  0  0  0  0  0  0  0  0  0
   -1.4708   -1.8383    3.1471 O   0  0  0  0  0  0  0  0  0  0  0  0
   -0.5961   -0.7917    1.2449 N   0  0  0  0  0  0  0  0  0  0  0  0
   -0.0680   -0.9699   -0.1008 C   0  0  0  0  0  0  0  0  0  0  0  0
    4.7193   -0.3413    0.2918 C   0  0  0  0  0  0  0  0  0  0  0  0
    4.6641   -0.6045    1.6672 C   0  0  0  0  0  0  0  0  0  0  0  0
    5.8301   -0.5935    2.4345 C   0  0  0  0  0  0  0  0  0  0  0  0
    7.0764   -0.3004    1.8519 C   0  0  0  0  0  0  0  0  0  0  0  0
    8.2637   -0.3014    2.6068 O   0  0  0  0  0  0  0  0  0  0  0  0
    8.3354   -0.5828    3.9989 C   0  0  0  0  0  0  0  0  0  0  0  0
    7.1399    0.0034    0.4760 C   0  0  0  0  0  0  0  0  0  0  0  0
    8.4745    0.3103   -0.1598 C   0  0  0  0  0  0  0  0  0  0  0  0
    5.9644   -0.0390   -0.3064 C   0  0  0  0  0  0  0  0  0  0  0  0
    6.0172    0.2256   -1.6414 N   0  0  0  0  0  0  0  0  0  0  0  0
    6.8035    2.3854   -3.1110 H   0  0  0  0  0  0  0  0  0  0  0  0
    5.8297    2.9064   -4.5431 H   0  0  0  0  0  0  0  0  0  0  0  0
    7.5649    2.4656   -4.7426 H   0  0  0  0  0  0  0  0  0  0  0  0
    7.0431    0.0952   -4.1448 H   0  0  0  0  0  0  0  0  0  0  0  0
    6.0874    0.6585   -5.5641 H   0  0  0  0  0  0  0  0  0  0  0  0
    2.7962   -0.1152   -2.5251 H   0  0  0  0  0  0  0  0  0  0  0  0
    1.0996    0.4450   -1.2472 H   0  0  0  0  0  0  0  0  0  0  0  0
    1.7640    1.4932    1.2541 H   0  0  0  0  0  0  0  0  0  0  0  0
    0.2606    1.8852    0.3395 H   0  0  0  0  0  0  0  0  0  0  0  0
    0.6815   -0.0074    2.7152 H   0  0  0  0  0  0  0  0  0  0  0  0
   -0.4499    3.2510    2.2142 H   0  0  0  0  0  0  0  0  0  0  0  0
   -3.5986    5.3827    1.8790 H   0  0  0  0  0  0  0  0  0  0  0  0
   -4.7964    5.7191   -1.7164 H   0  0  0  0  0  0  0  0  0  0  0  0
   -6.1358    7.7251   -2.2857 H   0  0  0  0  0  0  0  0  0  0  0  0
   -5.1992    8.7526   -0.9262 H   0  0  0  0  0  0  0  0  0  0  0  0
   -6.9294    6.1944   -0.5771 H   0  0  0  0  0  0  0  0  0  0  0  0
   -5.9820    7.2229    0.7851 H   0  0  0  0  0  0  0  0  0  0  0  0
   -3.8295    1.8953    2.5006 H   0  0  0  0  0  0  0  0  0  0  0  0
   -4.5876    3.2301    1.3369 H   0  0  0  0  0  0  0  0  0  0  0  0
   -2.7179    0.8598    0.5981 H   0  0  0  0  0  0  0  0  0  0  0  0
   -3.2328    3.0219   -1.5205 H   0  0  0  0  0  0  0  0  0  0  0  0
   -5.1278    1.8865   -2.3658 H   0  0  0  0  0  0  0  0  0  0  0  0
   -6.4202    0.3045   -1.0863 H   0  0  0  0  0  0  0  0  0  0  0  0
   -5.4572    0.6062    0.3894 H   0  0  0  0  0  0  0  0  0  0  0  0
   -3.5356   -0.7334   -0.8599 H   0  0  0  0  0  0  0  0  0  0  0  0
   -4.7743   -1.1358   -2.0657 H   0  0  0  0  0  0  0  0  0  0  0  0
   -6.2325   -2.0638   -0.1353 H   0  0  0  0  0  0  0  0  0  0  0  0
   -4.8032   -2.9978   -0.6247 H   0  0  0  0  0  0  0  0  0  0  0  0
   -5.4622   -2.1204    2.0112 H   0  0  0  0  0  0  0  0  0  0  0  0
   -4.1481   -1.0071    1.5748 H   0  0  0  0  0  0  0  0  0  0  0  0
   -3.9560   -4.0729    1.2649 H   0  0  0  0  0  0  0  0  0  0  0  0
   -3.5113   -3.2281    2.7586 H   0  0  0  0  0  0  0  0  0  0  0  0
   -2.2969   -2.4256    0.0531 H   0  0  0  0  0  0  0  0  0  0  0  0
   -0.8542   -4.3783    1.8348 H   0  0  0  0  0  0  0  0  0  0  0  0
   -0.7894   -6.5814   -2.1613 H   0  0  0  0  0  0  0  0  0  0  0  0
    1.3190   -7.4368   -1.1600 H   0  0  0  0  0  0  0  0  0  0  0  0
    0.3760   -8.5693   -0.1103 H   0  0  0  0  0  0  0  0  0  0  0  0
    0.3609   -8.7685   -1.9129 H   0  0  0  0  0  0  0  0  0  0  0  0
   -2.2156   -8.6061   -1.9311 H   0  0  0  0  0  0  0  0  0  0  0  0
   -3.0113   -7.2142   -1.1035 H   0  0  0  0  0  0  0  0  0  0  0  0
   -2.1598   -8.4746   -0.1304 H   0  0  0  0  0  0  0  0  0  0  0  0
    0.2829   -2.0121   -0.2528 H   0  0  0  0  0  0  0  0  0  0  0  0
   -0.8600   -0.7206   -0.8446 H   0  0  0  0  0  0  0  0  0  0  0  0
    3.7229   -0.8243    2.1564 H   0  0  0  0  0  0  0  0  0  0  0  0
    5.7530   -0.8170    3.4882 H   0  0  0  0  0  0  0  0  0  0  0  0
    7.9607   -1.6082    4.2077 H   0  0  0  0  0  0  0  0  0  0  0  0
    9.3941   -0.5212    4.3219 H   0  0  0  0  0  0  0  0  0  0  0  0
    7.7453    0.1669    4.5655 H   0  0  0  0  0  0  0  0  0  0  0  0
    8.9977   -0.6383   -0.3819 H   0  0  0  0  0  0  0  0  0  0  0  0
    8.3623    0.8856   -1.0995 H   0  0  0  0  0  0  0  0  0  0  0  0
    9.0985    0.9151    0.5250 H   0  0  0  0  0  0  0  0  0  0  0  0
  1  2  1  0
  2  3  1  0
  3  4  1  0
  4  5  2  0
  5  6  1  0
  6  7  1  0
  7  8  1  0
  8  9  1  0
  9 10  1  0
 10 11  1  0
 11 12  2  0
 11 13  1  0
 13 14  1  0
 14 15  1  6
 15 16  2  0
 15 17  1  0
 17 18  1  0
 18 19  2  0
 18 20  2  0
 18 21  1  0
 21 22  1  0
 22 23  1  0
 14 24  1  0
 24 25  1  0
 25 26  1  0
 26 27  2  0
 27 28  1  0
 28 29  1  0
 29 30  1  0
 30 31  1  0
 31 32  1  0
 32 33  1  0
 33 34  1  0
 34 35  1  0
 35 36  2  0
 35 37  1  0
 37 38  1  0
 38 39  1  0
 38 40  1  0
 33 41  1  0
 41 42  2  0
 41 43  1  0
 43 44  1  0
  6 45  2  0
 45 46  1  0
 46 47  2  0
 47 48  1  0
 48 49  1  0
 49 50  1  0
 48 51  2  0
 51 52  1  0
 51 53  1  0
 53 54  2  0
 54  4  1  0
 44  8  1  0
 53 45  1  0
 43 10  1  0
 25 14  1  0
 23 21  1  0
  1 55  1  0
  1 56  1  0
  1 57  1  0
  2 58  1  0
  2 59  1  0
  5 60  1  0
  8 61  1  6
  9 62  1  0
  9 63  1  0
 10 64  1  1
 13 65  1  0
 17 66  1  0
 21 67  1  0
 22 68  1  0
 22 69  1  0
 23 70  1  0
 23 71  1  0
 24 72  1  0
 24 73  1  0
 25 74  1  1
 26 75  1  0
 27 76  1  0
 28 77  1  0
 28 78  1  0
 29 79  1  0
 29 80  1  0
 30 81  1  0
 30 82  1  0
 31 83  1  0
 31 84  1  0
 32 85  1  0
 32 86  1  0
 33 87  1  6
 34 88  1  0
 38 89  1  0
 39 90  1  0
 39 91  1  0
 39 92  1  0
 40 93  1  0
 40 94  1  0
 40 95  1  0
 44 96  1  0
 44 97  1  0
 46 98  1  0
 47 99  1  0
 50100  1  0
 50101  1  0
 50102  1  0
 52103  1  0
 52104  1  0
 52105  1  0
M  END
$$$$
