
     RDKit          3D

 57 60  0  0  0  0  0  0  0  0999 V2000
    5.4480   -1.6543   -1.2261 C   0  0  0  0  0  0  0  0  0  0  0  0
    4.0088   -0.9494   -2.0057 S   0  0  0  0  0  6  0  0  0  0  0  0
    2.8303   -1.8546   -1.7830 O   0  0  0  0  0  0  0  0  0  0  0  0
    4.2678   -0.8467   -3.4821 O   0  0  0  0  0  0  0  0  0  0  0  0
    3.6897    0.6476   -1.3835 N   0  0  0  0  0  0  0  0  0  0  0  0
    3.2761    0.6015    0.0308 C   0  0  1  0  0  0  0  0  0  0  0  0
    3.4586    1.9672    0.6972 C   0  0  0  0  0  0  0  0  0  0  0  0
    2.1251    2.2773    1.3527 C   0  0  0  0  0  0  0  0  0  0  0  0
    1.0902    1.5435    0.6126 N   0  0  0  0  0  0  0  0  0  0  0  0
    0.5762    2.3674   -0.5090 C   0  0  0  0  0  0  0  0  0  0  0  0
   -0.6658    1.7703   -1.1918 C   0  0  0  0  0  0  0  0  0  0  0  0
   -1.6453    1.3370   -0.2406 O   0  0  0  0  0  0  0  0  0  0  0  0
   -2.9943    1.1197   -0.5801 C   0  0  0  0  0  0  0  0  0  0  0  0
   -3.7070    2.1145   -1.2752 C   0  0  0  0  0  0  0  0  0  0  0  0
   -5.0465    1.9266   -1.6153 C   0  0  0  0  0  0  0  0  0  0  0  0
   -5.6985    0.7481   -1.2620 C   0  0  0  0  0  0  0  0  0  0  0  0
   -5.0160   -0.2470   -0.5622 C   0  0  0  0  0  0  0  0  0  0  0  0
   -3.6625   -0.0828   -0.2085 C   0  0  0  0  0  0  0  0  0  0  0  0
   -2.9712   -1.2069    0.5520 C   0  0  0  0  0  0  0  0  0  0  0  0
   -2.6137   -0.7479    1.9876 C   0  0  0  0  0  0  0  0  0  0  0  0
   -1.6799   -1.7358    2.7052 C   0  0  0  0  0  0  0  0  0  0  0  0
   -0.4327   -1.9959    1.8541 C   0  0  0  0  0  0  0  0  0  0  0  0
   -0.8827   -2.6996    0.5607 C   0  0  0  0  0  0  0  0  0  0  0  0
   -1.7850   -1.7801   -0.2670 C   0  0  0  0  0  0  0  0  0  0  0  0
    0.1449   -0.7370    1.5688 O   0  0  0  0  0  0  0  0  0  0  0  0
    1.4975   -0.8145    1.1835 C   0  0  0  0  0  0  0  0  0  0  0  0
    1.7638    0.3072    0.1590 C   0  0  0  0  0  0  0  0  0  0  0  0
    5.2111   -1.9448   -0.1823 H   0  0  0  0  0  0  0  0  0  0  0  0
    5.7668   -2.5570   -1.7869 H   0  0  0  0  0  0  0  0  0  0  0  0
    6.2728   -0.9124   -1.2267 H   0  0  0  0  0  0  0  0  0  0  0  0
    4.6032    1.1531   -1.4501 H   0  0  0  0  0  0  0  0  0  0  0  0
    3.8896   -0.1408    0.5892 H   0  0  0  0  0  0  0  0  0  0  0  0
    4.2748    1.9452    1.4520 H   0  0  0  0  0  0  0  0  0  0  0  0
    3.6832    2.7605   -0.0498 H   0  0  0  0  0  0  0  0  0  0  0  0
    1.9408    3.3743    1.3924 H   0  0  0  0  0  0  0  0  0  0  0  0
    2.1374    1.9110    2.4029 H   0  0  0  0  0  0  0  0  0  0  0  0
    0.2698    3.3659   -0.1244 H   0  0  0  0  0  0  0  0  0  0  0  0
    1.3677    2.5340   -1.2743 H   0  0  0  0  0  0  0  0  0  0  0  0
   -1.0823    2.5520   -1.8593 H   0  0  0  0  0  0  0  0  0  0  0  0
   -0.3840    0.9209   -1.8461 H   0  0  0  0  0  0  0  0  0  0  0  0
   -3.2373    3.0542   -1.5305 H   0  0  0  0  0  0  0  0  0  0  0  0
   -5.5832    2.7019   -2.1469 H   0  0  0  0  0  0  0  0  0  0  0  0
   -6.7390    0.6069   -1.5255 H   0  0  0  0  0  0  0  0  0  0  0  0
   -5.5503   -1.1506   -0.2960 H   0  0  0  0  0  0  0  0  0  0  0  0
   -3.6803   -2.0566    0.6788 H   0  0  0  0  0  0  0  0  0  0  0  0
   -2.1365    0.2546    1.9782 H   0  0  0  0  0  0  0  0  0  0  0  0
   -3.5493   -0.6473    2.5798 H   0  0  0  0  0  0  0  0  0  0  0  0
   -1.3754   -1.3035    3.6832 H   0  0  0  0  0  0  0  0  0  0  0  0
   -2.2176   -2.6880    2.9097 H   0  0  0  0  0  0  0  0  0  0  0  0
    0.2617   -2.6507    2.4305 H   0  0  0  0  0  0  0  0  0  0  0  0
   -1.4307   -3.6355    0.8083 H   0  0  0  0  0  0  0  0  0  0  0  0
   -0.0026   -2.9924   -0.0493 H   0  0  0  0  0  0  0  0  0  0  0  0
   -1.1526   -0.9809   -0.6903 H   0  0  0  0  0  0  0  0  0  0  0  0
   -2.1852   -2.3542   -1.1310 H   0  0  0  0  0  0  0  0  0  0  0  0
    2.1216   -0.6629    2.0910 H   0  0  0  0  0  0  0  0  0  0  0  0
    1.7803   -1.7918    0.7323 H   0  0  0  0  0  0  0  0  0  0  0  0
    1.3495   -0.0399   -0.8103 H   0  0  0  0  0  0  0  0  0  0  0  0
  1  2  1  0
  2  3  2  0
  2  4  2  0
  2  5  1  0
  5  6  1  0
  6  7  1  0
  7  8  1  0
  8  9  1  0
  9 10  1  0
 10 11  1  0
 11 12  1  0
 12 13  1  0
 13 14  2  0
 14 15  1  0
 15 16  2  0
 16 17  1  0
 17 18  2  0
 18 19  1  0
 19 20  1  0
 20 21  1  0
 21 22  1  0
 22 23  1  0
 23 24  1  0
 22 25  1  0
 25 26  1  0
 26 27  1  0
 27  6  1  0
 27  9  1  0
 18 13  1  0
 24 19  1  0
  1 28  1  0
  1 29  1  0
  1 30  1  0
  5 31  1  0
  6 32  1  1
  7 33  1  0
  7 34  1  0
  8 35  1  0
  8 36  1  0
 10 37  1  0
 10 38  1  0
 11 39  1  0
 11 40  1  0
 14 41  1  0
 15 42  1  0
 16 43  1  0
 17 44  1  0
 19 45  1  0
 20 46  1  0
 20 47  1  0
 21 48  1  0
 21 49  1  0
 22 50  1  0
 23 51  1  0
 23 52  1  0
 24 53  1  0
 24 54  1  0
 26 55  1  0
 26 56  1  0
 27 57  1  0
M  END
$$$$
