
     RDKit          3D

126131  0  0  0  0  0  0  0  0999 V2000
    8.7836   -2.5679   -2.0145 C   0  0  0  0  0  0  0  0  0  0  0  0
    7.9788   -3.3391   -0.9683 C   0  0  0  0  0  0  0  0  0  0  0  0
    6.5945   -2.9869   -1.0294 O   0  0  0  0  0  0  0  0  0  0  0  0
    6.0308   -1.7682   -0.6099 C   0  0  0  0  0  0  0  0  0  0  0  0
    6.7746   -0.7966    0.0776 C   0  0  0  0  0  0  0  0  0  0  0  0
    6.1718    0.3975    0.5038 C   0  0  0  0  0  0  0  0  0  0  0  0
    6.8666    1.3385    1.2775 O   0  0  0  0  0  0  0  0  0  0  0  0
    8.2631    1.3941    1.3781 C   0  0  0  0  0  0  0  0  0  0  0  0
    9.0646    1.4439    0.2296 C   0  0  0  0  0  0  0  0  0  0  0  0
   10.4627    1.4489    0.3349 C   0  0  0  0  0  0  0  0  0  0  0  0
   11.2963    1.4722   -0.9182 C   0  0  0  0  0  0  0  0  0  0  0  0
   11.0641    1.4118    1.6125 C   0  0  0  0  0  0  0  0  0  0  0  0
   12.8272    1.3822    1.7593 Cl  0  0  0  0  0  0  0  0  0  0  0  0
   10.2567    1.3903    2.7738 C   0  0  0  0  0  0  0  0  0  0  0  0
   10.8767    1.3485    4.1465 C   0  0  0  0  0  0  0  0  0  0  0  0
    8.8587    1.3996    2.6428 C   0  0  0  0  0  0  0  0  0  0  0  0
    4.8327    0.6394    0.1875 C   0  0  0  0  0  0  0  0  0  0  0  0
    4.0777   -0.3051   -0.5334 C   0  0  0  0  0  0  0  0  0  0  0  0
    4.6662   -1.5553   -0.8561 C   0  0  0  0  0  0  0  0  0  0  0  0
    3.9365   -2.6307   -1.3984 O   0  0  0  0  0  0  0  0  0  0  0  0
    2.6896   -3.1217   -0.8928 C   0  0  0  0  0  0  0  0  0  0  0  0
    2.6747   -3.1823    0.6166 C   0  0  0  0  0  0  0  0  0  0  0  0
    3.7356   -3.4667    1.2337 O   0  0  0  0  0  0  0  0  0  0  0  0
    1.4729   -2.9550    1.3693 N   0  0  0  0  0  0  0  0  0  0  0  0
    0.1223   -3.1430    0.8326 C   0  0  1  0  0  0  0  0  0  0  0  0
   -0.7386   -3.9184    1.8445 C   0  0  0  0  0  0  0  0  0  0  0  0
   -2.1335   -4.2414    1.2725 C   0  0  0  0  0  0  0  0  0  0  0  0
   -2.6354   -3.1810    0.2568 C   0  0  2  0  0  0  0  0  0  0  0  0
   -2.0634   -1.7823    0.5657 C   0  0  0  0  0  0  0  0  0  0  0  0
   -0.5209   -1.7760    0.4905 C   0  0  0  0  0  0  0  0  0  0  0  0
   -4.1734   -3.1874    0.0855 C   0  0  0  0  0  0  0  0  0  0  0  0
   -4.9476   -2.5273    1.2104 C   0  0  0  0  0  0  0  0  0  0  0  0
   -4.8357   -2.9852    2.3772 O   0  0  0  0  0  0  0  0  0  0  0  0
   -5.8735   -1.4454    0.9880 N   0  0  0  0  0  0  0  0  0  0  0  0
   -5.9712   -0.6743   -0.2563 C   0  0  1  0  0  0  0  0  0  0  0  0
   -6.8061   -1.4538   -1.3116 C   0  0  0  0  0  0  0  0  0  0  0  0
   -6.3721   -1.1765   -2.7730 C   0  0  0  0  0  0  0  0  0  0  0  0
   -6.5505    0.2965   -3.1565 C   0  0  0  0  0  0  0  0  0  0  0  0
   -7.1658   -2.0625   -3.7377 C   0  0  0  0  0  0  0  0  0  0  0  0
   -6.5662    0.6880    0.0434 C   0  0  0  0  0  0  0  0  0  0  0  0
   -7.8191    0.8362    0.0769 O   0  0  0  0  0  0  0  0  0  0  0  0
   -5.7315    1.8214    0.3148 N   0  0  0  0  0  0  0  0  0  0  0  0
   -4.4987    1.7358    1.1063 C   0  0  2  0  0  0  0  0  0  0  0  0
   -4.6506    2.5209    2.4204 C   0  0  0  0  0  0  0  0  0  0  0  0
   -5.8564    2.0581    3.2020 C   0  0  0  0  0  0  0  0  0  0  0  0
   -7.0740    2.7515    3.1147 C   0  0  0  0  0  0  0  0  0  0  0  0
   -8.1972    2.2815    3.7959 C   0  0  0  0  0  0  0  0  0  0  0  0
   -8.0981    1.1097    4.5473 C   0  0  0  0  0  0  0  0  0  0  0  0
   -6.9158    0.4401    4.6169 N   0  0  0  0  0  0  0  0  0  0  0  0
   -5.8043    0.8831    3.9678 C   0  0  0  0  0  0  0  0  0  0  0  0
   -3.3496    2.2775    0.3090 C   0  0  0  0  0  0  0  0  0  0  0  0
   -2.2165    1.7307    0.3897 O   0  0  0  0  0  0  0  0  0  0  0  0
   -3.5141    3.4442   -0.4986 N   0  0  0  0  0  0  0  0  0  0  0  0
   -3.6674    3.3430   -1.9518 C   0  0  1  0  0  0  0  0  0  0  0  0
   -4.9175    4.0541   -2.3874 C   0  0  0  0  0  0  0  0  0  0  0  0
   -5.1725    5.2140   -1.9624 O   0  0  0  0  0  0  0  0  0  0  0  0
   -5.7807    3.4434   -3.2878 O   0  0  0  0  0  0  0  0  0  0  0  0
   -2.4426    3.9335   -2.6704 C   0  0  0  0  0  0  0  0  0  0  0  0
   -1.1636    3.2604   -2.2402 C   0  0  0  0  0  0  0  0  0  0  0  0
   -0.2020    3.9709   -1.5060 C   0  0  0  0  0  0  0  0  0  0  0  0
    0.9839    3.3474   -1.1078 C   0  0  0  0  0  0  0  0  0  0  0  0
    1.2160    2.0004   -1.4090 C   0  0  0  0  0  0  0  0  0  0  0  0
    0.2399    1.2803   -2.1263 C   0  0  0  0  0  0  0  0  0  0  0  0
   -0.9332    1.9118   -2.5481 C   0  0  0  0  0  0  0  0  0  0  0  0
    2.4212    1.4205   -0.9816 O   0  0  0  0  0  0  0  0  0  0  0  0
    2.6622    0.0150   -0.9491 C   0  0  0  0  0  0  0  0  0  0  0  0
    8.2552   -2.5767   -2.9892 H   0  0  0  0  0  0  0  0  0  0  0  0
    9.7781   -3.0463   -2.1357 H   0  0  0  0  0  0  0  0  0  0  0  0
    8.9420   -1.5206   -1.6914 H   0  0  0  0  0  0  0  0  0  0  0  0
    8.0642   -4.4232   -1.1903 H   0  0  0  0  0  0  0  0  0  0  0  0
    8.3871   -3.1762    0.0512 H   0  0  0  0  0  0  0  0  0  0  0  0
    7.8049   -0.9912    0.3336 H   0  0  0  0  0  0  0  0  0  0  0  0
    8.5865    1.4659   -0.7469 H   0  0  0  0  0  0  0  0  0  0  0  0
   10.6684    1.5586   -1.8295 H   0  0  0  0  0  0  0  0  0  0  0  0
   11.9931    2.3391   -0.8934 H   0  0  0  0  0  0  0  0  0  0  0  0
   11.8870    0.5331   -0.9951 H   0  0  0  0  0  0  0  0  0  0  0  0
   11.5409    0.4635    4.2309 H   0  0  0  0  0  0  0  0  0  0  0  0
   10.1034    1.2784    4.9429 H   0  0  0  0  0  0  0  0  0  0  0  0
   11.4694    2.2756    4.3157 H   0  0  0  0  0  0  0  0  0  0  0  0
    8.2255    1.3715    3.5222 H   0  0  0  0  0  0  0  0  0  0  0  0
    4.3863    1.5726    0.5100 H   0  0  0  0  0  0  0  0  0  0  0  0
    2.5338   -4.1476   -1.2876 H   0  0  0  0  0  0  0  0  0  0  0  0
    1.8615   -2.5035   -1.2780 H   0  0  0  0  0  0  0  0  0  0  0  0
    1.5755   -2.7057    2.3787 H   0  0  0  0  0  0  0  0  0  0  0  0
    0.1759   -3.7606   -0.0926 H   0  0  0  0  0  0  0  0  0  0  0  0
   -0.8528   -3.3104    2.7696 H   0  0  0  0  0  0  0  0  0  0  0  0
   -0.2289   -4.8639    2.1286 H   0  0  0  0  0  0  0  0  0  0  0  0
   -2.8313   -4.3554    2.1246 H   0  0  0  0  0  0  0  0  0  0  0  0
   -2.0955   -5.2285    0.7599 H   0  0  0  0  0  0  0  0  0  0  0  0
   -2.2229   -3.4739   -0.7343 H   0  0  0  0  0  0  0  0  0  0  0  0
   -2.3798   -1.4697    1.5858 H   0  0  0  0  0  0  0  0  0  0  0  0
   -2.4652   -1.0387   -0.1558 H   0  0  0  0  0  0  0  0  0  0  0  0
   -0.2162   -1.4941   -0.5415 H   0  0  0  0  0  0  0  0  0  0  0  0
   -0.1393   -0.9883    1.1762 H   0  0  0  0  0  0  0  0  0  0  0  0
   -4.5272   -4.2363   -0.0116 H   0  0  0  0  0  0  0  0  0  0  0  0
   -4.3956   -2.7058   -0.8855 H   0  0  0  0  0  0  0  0  0  0  0  0
   -6.4732   -1.1622    1.7969 H   0  0  0  0  0  0  0  0  0  0  0  0
   -4.9435   -0.5048   -0.6501 H   0  0  0  0  0  0  0  0  0  0  0  0
   -7.8946   -1.2532   -1.1949 H   0  0  0  0  0  0  0  0  0  0  0  0
   -6.6940   -2.5446   -1.1283 H   0  0  0  0  0  0  0  0  0  0  0  0
   -5.2949   -1.4337   -2.8824 H   0  0  0  0  0  0  0  0  0  0  0  0
   -5.8361    0.9250   -2.5891 H   0  0  0  0  0  0  0  0  0  0  0  0
   -7.5858    0.6406   -2.9464 H   0  0  0  0  0  0  0  0  0  0  0  0
   -6.3405    0.4485   -4.2386 H   0  0  0  0  0  0  0  0  0  0  0  0
   -6.7906   -1.9313   -4.7743 H   0  0  0  0  0  0  0  0  0  0  0  0
   -7.0403   -3.1320   -3.4636 H   0  0  0  0  0  0  0  0  0  0  0  0
   -8.2471   -1.8062   -3.7051 H   0  0  0  0  0  0  0  0  0  0  0  0
   -6.1299    2.7706    0.1219 H   0  0  0  0  0  0  0  0  0  0  0  0
   -4.2773    0.6759    1.3614 H   0  0  0  0  0  0  0  0  0  0  0  0
   -4.7375    3.6074    2.2024 H   0  0  0  0  0  0  0  0  0  0  0  0
   -3.7366    2.3848    3.0413 H   0  0  0  0  0  0  0  0  0  0  0  0
   -7.1486    3.6563    2.5241 H   0  0  0  0  0  0  0  0  0  0  0  0
   -9.1362    2.8143    3.7350 H   0  0  0  0  0  0  0  0  0  0  0  0
   -8.9612    0.7296    5.0769 H   0  0  0  0  0  0  0  0  0  0  0  0
   -4.8836    0.3162    4.0432 H   0  0  0  0  0  0  0  0  0  0  0  0
   -3.4699    4.3820   -0.0383 H   0  0  0  0  0  0  0  0  0  0  0  0
   -3.7666    2.2750   -2.2434 H   0  0  0  0  0  0  0  0  0  0  0  0
   -6.6320    3.8982   -3.5889 H   0  0  0  0  0  0  0  0  0  0  0  0
   -2.5619    3.8042   -3.7679 H   0  0  0  0  0  0  0  0  0  0  0  0
   -2.3875    5.0287   -2.4731 H   0  0  0  0  0  0  0  0  0  0  0  0
   -0.3630    5.0094   -1.2448 H   0  0  0  0  0  0  0  0  0  0  0  0
    1.7250    3.9091   -0.5495 H   0  0  0  0  0  0  0  0  0  0  0  0
    0.3827    0.2390   -2.3826 H   0  0  0  0  0  0  0  0  0  0  0  0
   -1.6623    1.3460   -3.1160 H   0  0  0  0  0  0  0  0  0  0  0  0
    1.9630   -0.4416   -0.2193 H   0  0  0  0  0  0  0  0  0  0  0  0
    2.4969   -0.3998   -1.9674 H   0  0  0  0  0  0  0  0  0  0  0  0
  1  2  1  0
  2  3  1  0
  3  4  1  0
  4  5  2  0
  5  6  1  0
  6  7  1  0
  7  8  1  0
  8  9  2  0
  9 10  1  0
 10 11  1  0
 10 12  2  0
 12 13  1  0
 12 14  1  0
 14 15  1  0
 14 16  2  0
  6 17  2  0
 17 18  1  0
 18 19  2  0
 19 20  1  0
 20 21  1  0
 21 22  1  0
 22 23  2  0
 22 24  1  0
 24 25  1  0
 25 26  1  0
 26 27  1  0
 27 28  1  0
 28 29  1  0
 29 30  1  0
 28 31  1  0
 31 32  1  0
 32 33  2  0
 32 34  1  0
 34 35  1  0
 35 36  1  0
 36 37  1  0
 37 38  1  0
 37 39  1  0
 35 40  1  0
 40 41  2  0
 40 42  1  0
 42 43  1  0
 43 44  1  0
 44 45  1  0
 45 46  2  0
 46 47  1  0
 47 48  2  0
 48 49  1  0
 49 50  2  0
 43 51  1  0
 51 52  2  0
 51 53  1  0
 53 54  1  0
 54 55  1  0
 55 56  2  0
 55 57  1  0
 54 58  1  0
 58 59  1  0
 59 60  2  0
 60 61  1  0
 61 62  2  0
 62 63  1  0
 63 64  2  0
 62 65  1  0
 65 66  1  0
 19  4  1  0
 30 25  1  0
 50 45  1  0
 64 59  1  0
 16  8  1  0
 66 18  1  0
  1 67  1  0
  1 68  1  0
  1 69  1  0
  2 70  1  0
  2 71  1  0
  5 72  1  0
  9 73  1  0
 11 74  1  0
 11 75  1  0
 11 76  1  0
 15 77  1  0
 15 78  1  0
 15 79  1  0
 16 80  1  0
 17 81  1  0
 21 82  1  0
 21 83  1  0
 24 84  1  0
 25 85  1  6
 26 86  1  0
 26 87  1  0
 27 88  1  0
 27 89  1  0
 28 90  1  6
 29 91  1  0
 29 92  1  0
 30 93  1  0
 30 94  1  0
 31 95  1  0
 31 96  1  0
 34 97  1  0
 35 98  1  6
 36 99  1  0
 36100  1  0
 37101  1  0
 38102  1  0
 38103  1  0
 38104  1  0
 39105  1  0
 39106  1  0
 39107  1  0
 42108  1  0
 43109  1  1
 44110  1  0
 44111  1  0
 46112  1  0
 47113  1  0
 48114  1  0
 50115  1  0
 53116  1  0
 54117  1  1
 57118  1  0
 58119  1  0
 58120  1  0
 60121  1  0
 61122  1  0
 63123  1  0
 64124  1  0
 66125  1  0
 66126  1  0
M  END
$$$$
