
     RDKit          3D

 52 56  0  0  0  0  0  0  0  0999 V2000
   -8.3550   -0.7709    0.1680 C   0  0  0  0  0  0  0  0  0  0  0  0
   -6.9809   -0.6459   -0.3999 C   0  0  0  0  0  0  0  0  0  0  0  0
   -5.9801    0.1649    0.0844 C   0  0  0  0  0  0  0  0  0  0  0  0
   -4.8748   -0.0620   -0.6500 N   0  0  0  0  0  0  0  0  0  0  0  0
   -3.5842    0.5640   -0.4980 C   0  0  0  0  0  0  0  0  0  0  0  0
   -3.4770    1.8481    0.0648 C   0  0  0  0  0  0  0  0  0  0  0  0
   -2.2291    2.4562    0.2141 C   0  0  0  0  0  0  0  0  0  0  0  0
   -1.0669    1.7913   -0.1838 C   0  0  0  0  0  0  0  0  0  0  0  0
   -1.1566    0.5160   -0.7778 C   0  0  0  0  0  0  0  0  0  0  0  0
   -2.4135   -0.0941   -0.9193 C   0  0  0  0  0  0  0  0  0  0  0  0
    0.0592   -0.1538   -1.2773 C   0  0  0  0  0  0  0  0  0  0  0  0
    0.9061    0.5160   -1.9299 O   0  0  0  0  0  0  0  0  0  0  0  0
    0.3123   -1.5360   -0.9892 N   0  0  0  0  0  0  0  0  0  0  0  0
    1.6485   -2.0388   -0.8561 C   0  0  0  0  0  0  0  0  0  0  0  0
    1.9067   -3.4078   -0.9926 C   0  0  0  0  0  0  0  0  0  0  0  0
    3.2200   -3.8699   -0.8831 C   0  0  0  0  0  0  0  0  0  0  0  0
    4.2563   -2.9706   -0.6215 C   0  0  0  0  0  0  0  0  0  0  0  0
    3.9586   -1.6127   -0.4448 C   0  0  0  0  0  0  0  0  0  0  0  0
    2.6746   -1.1867   -0.5769 N   0  0  0  0  0  0  0  0  0  0  0  0
    5.0289   -0.6377   -0.1768 C   0  0  0  0  0  0  0  0  0  0  0  0
    6.2233   -0.6731   -0.7984 N   0  0  0  0  0  0  0  0  0  0  0  0
    6.9446    0.3236   -0.3089 N   0  0  0  0  0  0  0  0  0  0  0  0
    6.1832    0.9519    0.6059 C   0  0  0  0  0  0  0  0  0  0  0  0
    4.9642    0.3856    0.7053 N   0  0  0  0  0  0  0  0  0  0  0  0
    3.9866    0.6271    1.7739 C   0  0  0  0  0  0  0  0  0  0  0  0
    3.5084    2.0901    1.7939 C   0  0  0  0  0  0  0  0  0  0  0  0
    2.5022    2.4207    0.6792 C   0  0  0  0  0  0  0  0  0  0  0  0
    1.0895    1.9294    1.0080 C   0  0  0  0  0  0  0  0  0  0  0  0
    0.1731    2.4041    0.0235 O   0  0  0  0  0  0  0  0  0  0  0  0
   -5.2299   -1.0069   -1.5495 C   0  0  0  0  0  0  0  0  0  0  0  0
   -6.5164   -1.3945   -1.4196 N   0  0  0  0  0  0  0  0  0  0  0  0
   -8.7130    0.2195    0.5199 H   0  0  0  0  0  0  0  0  0  0  0  0
   -9.0531   -1.1495   -0.6078 H   0  0  0  0  0  0  0  0  0  0  0  0
   -8.3393   -1.4794    1.0220 H   0  0  0  0  0  0  0  0  0  0  0  0
   -6.0513    0.8438    0.9244 H   0  0  0  0  0  0  0  0  0  0  0  0
   -4.3596    2.3899    0.3773 H   0  0  0  0  0  0  0  0  0  0  0  0
   -2.1627    3.4419    0.6569 H   0  0  0  0  0  0  0  0  0  0  0  0
   -2.4800   -1.0757   -1.3682 H   0  0  0  0  0  0  0  0  0  0  0  0
   -0.4880   -2.1802   -0.8013 H   0  0  0  0  0  0  0  0  0  0  0  0
    1.1036   -4.1032   -1.2016 H   0  0  0  0  0  0  0  0  0  0  0  0
    3.4351   -4.9236   -1.0043 H   0  0  0  0  0  0  0  0  0  0  0  0
    5.2741   -3.3315   -0.5392 H   0  0  0  0  0  0  0  0  0  0  0  0
    6.5340    1.7707    1.2203 H   0  0  0  0  0  0  0  0  0  0  0  0
    3.1236   -0.0620    1.6915 H   0  0  0  0  0  0  0  0  0  0  0  0
    4.4727    0.4027    2.7479 H   0  0  0  0  0  0  0  0  0  0  0  0
    4.3833    2.7680    1.7006 H   0  0  0  0  0  0  0  0  0  0  0  0
    3.0505    2.3077    2.7837 H   0  0  0  0  0  0  0  0  0  0  0  0
    2.8397    1.9852   -0.2864 H   0  0  0  0  0  0  0  0  0  0  0  0
    2.4666    3.5252    0.5569 H   0  0  0  0  0  0  0  0  0  0  0  0
    1.0803    0.8202    1.0443 H   0  0  0  0  0  0  0  0  0  0  0  0
    0.7710    2.3122    2.0013 H   0  0  0  0  0  0  0  0  0  0  0  0
   -4.5693   -1.4096   -2.3056 H   0  0  0  0  0  0  0  0  0  0  0  0
  1  2  1  0
  2  3  2  0
  3  4  1  0
  4  5  1  0
  5  6  2  0
  6  7  1  0
  7  8  2  0
  8  9  1  0
  9 10  2  0
  9 11  1  0
 11 12  2  0
 11 13  1  0
 13 14  1  0
 14 15  2  0
 15 16  1  0
 16 17  2  0
 17 18  1  0
 18 19  2  0
 18 20  1  0
 20 21  2  0
 21 22  1  0
 22 23  2  0
 23 24  1  0
 24 25  1  0
 25 26  1  0
 26 27  1  0
 27 28  1  0
 28 29  1  0
  4 30  1  0
 30 31  2  0
 31  2  1  0
 10  5  1  0
 19 14  1  0
 24 20  1  0
 29  8  1  0
  1 32  1  0
  1 33  1  0
  1 34  1  0
  3 35  1  0
  6 36  1  0
  7 37  1  0
 10 38  1  0
 13 39  1  0
 15 40  1  0
 16 41  1  0
 17 42  1  0
 23 43  1  0
 25 44  1  0
 25 45  1  0
 26 46  1  0
 26 47  1  0
 27 48  1  0
 27 49  1  0
 28 50  1  0
 28 51  1  0
 30 52  1  0
M  END
$$$$
