
     RDKit          3D

 61 65  0  0  0  0  0  0  0  0999 V2000
    0.4601    3.1117    0.7084 O   0  0  0  0  0  0  0  0  0  0  0  0
    0.3540    1.8567    0.6446 C   0  0  0  0  0  0  0  0  0  0  0  0
    0.9064    1.0319    1.7713 C   0  0  0  0  0  0  0  0  0  0  0  0
    1.9066    0.1508    1.2692 O   0  0  0  0  0  0  0  0  0  0  0  0
    3.2901    0.3737    1.3430 C   0  0  0  0  0  0  0  0  0  0  0  0
    3.7927    1.3346    2.1658 N   0  0  0  0  0  0  0  0  0  0  0  0
    5.1039    1.5521    2.2726 N   0  0  0  0  0  0  0  0  0  0  0  0
    6.0019    0.8232    1.5634 C   0  0  0  0  0  0  0  0  0  0  0  0
    5.5525   -0.1689    0.6956 C   0  0  0  0  0  0  0  0  0  0  0  0
    4.1781   -0.4100    0.5704 C   0  0  0  0  0  0  0  0  0  0  0  0
    3.6747   -1.4289   -0.4431 C   0  0  1  0  0  0  0  0  0  0  0  0
    2.8937   -2.5724    0.2694 C   0  0  0  0  0  0  0  0  0  0  0  0
    1.9766   -3.3711   -0.6676 C   0  0  0  0  0  0  0  0  0  0  0  0
    1.0912   -2.4336   -1.4950 C   0  0  2  0  0  0  0  0  0  0  0  0
    2.0147   -1.6098   -2.4059 C   0  0  0  0  0  0  0  0  0  0  0  0
    2.9042   -0.6882   -1.5715 C   0  0  0  0  0  0  0  0  0  0  0  0
    0.3771   -1.5900   -0.6035 O   0  0  0  0  0  0  0  0  0  0  0  0
   -0.8127   -1.0941   -1.1776 C   0  0  0  0  0  0  0  0  0  0  0  0
   -1.2454    0.1692   -0.4031 C   0  0  0  0  0  0  0  0  0  0  0  0
   -2.6382    0.6955   -0.8642 C   0  0  1  0  0  0  0  0  0  0  0  0
   -3.1815    1.6649    0.1109 N   0  0  0  0  0  0  0  0  0  0  0  0
   -4.9220    1.5774    0.2300 S   0  0  0  0  0  6  0  0  0  0  0  0
   -5.4168    2.8677    0.8201 O   0  0  0  0  0  0  0  0  0  0  0  0
   -5.5271    1.4221   -1.1370 O   0  0  0  0  0  0  0  0  0  0  0  0
   -5.5285    0.2315    1.2574 C   0  0  0  0  0  0  0  0  0  0  0  0
   -5.0407    0.2949    2.6958 C   0  0  0  0  0  0  0  0  0  0  0  0
   -4.5251   -0.7909    1.7657 C   0  0  0  0  0  0  0  0  0  0  0  0
   -2.5279    1.3745   -2.2505 C   0  0  0  0  0  0  0  0  0  0  0  0
   -1.4535    2.4705   -2.2693 C   0  0  0  0  0  0  0  0  0  0  0  0
   -0.1012    1.9132   -1.8268 C   0  0  0  0  0  0  0  0  0  0  0  0
   -0.2399    1.2465   -0.5243 N   0  0  0  0  0  0  0  0  0  0  0  0
    1.3116    1.6853    2.5741 H   0  0  0  0  0  0  0  0  0  0  0  0
    0.0980    0.4327    2.2339 H   0  0  0  0  0  0  0  0  0  0  0  0
    7.0604    1.0209    1.6664 H   0  0  0  0  0  0  0  0  0  0  0  0
    6.2721   -0.7345    0.1171 H   0  0  0  0  0  0  0  0  0  0  0  0
    4.5435   -1.9193   -0.9381 H   0  0  0  0  0  0  0  0  0  0  0  0
    2.2756   -2.1952    1.1074 H   0  0  0  0  0  0  0  0  0  0  0  0
    3.6256   -3.2723    0.7284 H   0  0  0  0  0  0  0  0  0  0  0  0
    2.5915   -4.0122   -1.3375 H   0  0  0  0  0  0  0  0  0  0  0  0
    1.3332   -4.0448   -0.0607 H   0  0  0  0  0  0  0  0  0  0  0  0
    0.4095   -3.0621   -2.1157 H   0  0  0  0  0  0  0  0  0  0  0  0
    1.4177   -0.9996   -3.1151 H   0  0  0  0  0  0  0  0  0  0  0  0
    2.6499   -2.2860   -3.0197 H   0  0  0  0  0  0  0  0  0  0  0  0
    2.2690    0.1245   -1.1669 H   0  0  0  0  0  0  0  0  0  0  0  0
    3.6384   -0.1958   -2.2461 H   0  0  0  0  0  0  0  0  0  0  0  0
   -1.6030   -1.8702   -1.0777 H   0  0  0  0  0  0  0  0  0  0  0  0
   -0.7007   -0.8628   -2.2575 H   0  0  0  0  0  0  0  0  0  0  0  0
   -1.3380   -0.1517    0.6536 H   0  0  0  0  0  0  0  0  0  0  0  0
   -3.3220   -0.1787   -0.9551 H   0  0  0  0  0  0  0  0  0  0  0  0
   -2.7940    1.5144    1.0690 H   0  0  0  0  0  0  0  0  0  0  0  0
   -6.5806   -0.1078    1.1523 H   0  0  0  0  0  0  0  0  0  0  0  0
   -4.2912    1.0803    2.9303 H   0  0  0  0  0  0  0  0  0  0  0  0
   -5.7713   -0.0698    3.4485 H   0  0  0  0  0  0  0  0  0  0  0  0
   -4.9546   -1.7929    1.9762 H   0  0  0  0  0  0  0  0  0  0  0  0
   -3.4644   -0.6624    1.4875 H   0  0  0  0  0  0  0  0  0  0  0  0
   -2.2956    0.6155   -3.0274 H   0  0  0  0  0  0  0  0  0  0  0  0
   -3.4979    1.8291   -2.5368 H   0  0  0  0  0  0  0  0  0  0  0  0
   -1.7514    3.3000   -1.5914 H   0  0  0  0  0  0  0  0  0  0  0  0
   -1.3638    2.8825   -3.2974 H   0  0  0  0  0  0  0  0  0  0  0  0
    0.6445    2.7364   -1.7831 H   0  0  0  0  0  0  0  0  0  0  0  0
    0.2703    1.1914   -2.5831 H   0  0  0  0  0  0  0  0  0  0  0  0
  1  2  2  0
  2  3  1  0
  3  4  1  0
  4  5  1  0
  5  6  2  0
  6  7  1  0
  7  8  2  0
  8  9  1  0
  9 10  2  0
 10 11  1  0
 11 12  1  0
 12 13  1  0
 13 14  1  0
 14 15  1  0
 15 16  1  0
 14 17  1  0
 17 18  1  0
 18 19  1  0
 19 20  1  0
 20 21  1  0
 21 22  1  0
 22 23  2  0
 22 24  2  0
 22 25  1  0
 25 26  1  0
 26 27  1  0
 20 28  1  0
 28 29  1  0
 29 30  1  0
 30 31  1  0
 31  2  1  0
 10  5  1  0
 16 11  1  0
 31 19  1  0
 27 25  1  0
  3 32  1  0
  3 33  1  0
  8 34  1  0
  9 35  1  0
 11 36  1  6
 12 37  1  0
 12 38  1  0
 13 39  1  0
 13 40  1  0
 14 41  1  6
 15 42  1  0
 15 43  1  0
 16 44  1  0
 16 45  1  0
 18 46  1  0
 18 47  1  0
 19 48  1  0
 20 49  1  6
 21 50  1  0
 25 51  1  0
 26 52  1  0
 26 53  1  0
 27 54  1  0
 27 55  1  0
 28 56  1  0
 28 57  1  0
 29 58  1  0
 29 59  1  0
 30 60  1  0
 30 61  1  0
M  END
$$$$
