
     RDKit          3D

 88 92  0  0  0  0  0  0  0  0999 V2000
    2.6911    0.5272   -0.8262 O   0  0  0  0  0  0  0  0  0  0  0  0
    3.4548    1.0768    0.0142 C   0  0  0  0  0  0  0  0  0  0  0  0
    4.8462    1.2428   -0.2958 N   0  0  0  0  0  0  0  0  0  0  0  0
    5.4010    0.8087   -1.5850 C   0  0  0  0  0  0  0  0  0  0  0  0
    6.7310    1.5132   -1.8751 C   0  0  0  0  0  0  0  0  0  0  0  0
    7.8181    0.4956   -1.5826 C   0  0  0  0  0  0  0  0  0  0  0  0
    7.1849   -0.8500   -1.8805 C   0  0  0  0  0  0  0  0  0  0  0  0
    5.7020   -0.6944   -1.5697 C   0  0  0  0  0  0  0  0  0  0  0  0
    2.9043    1.5206    1.3534 C   0  0  2  0  0  0  0  0  0  0  0  0
    3.0192    0.4255    2.4413 C   0  0  0  0  0  0  0  0  0  0  0  0
    2.4494   -0.9563    2.0375 C   0  0  0  0  0  0  0  0  0  0  0  0
    3.5508   -2.0273    1.9823 C   0  0  0  0  0  0  0  0  0  0  0  0
    3.0601   -3.3371    1.3582 C   0  0  0  0  0  0  0  0  0  0  0  0
    1.9477   -3.8726    2.0908 O   0  0  0  0  0  0  0  0  0  0  0  0
    0.5882   -3.7488    1.7581 C   0  0  0  0  0  0  0  0  0  0  0  0
   -0.3545   -3.9891    2.7685 C   0  0  0  0  0  0  0  0  0  0  0  0
   -1.7278   -3.9369    2.4981 C   0  0  0  0  0  0  0  0  0  0  0  0
   -2.1752   -3.6231    1.2109 C   0  0  0  0  0  0  0  0  0  0  0  0
   -1.2495   -3.3506    0.1876 C   0  0  0  0  0  0  0  0  0  0  0  0
    0.1339   -3.4275    0.4589 C   0  0  0  0  0  0  0  0  0  0  0  0
   -1.7406   -3.0332   -1.2040 C   0  0  0  0  0  0  0  0  0  0  0  0
   -2.5480   -1.7086   -1.2678 C   0  0  2  0  0  0  0  0  0  0  0  0
   -3.3490   -1.6909   -2.5169 N   0  0  0  0  0  0  0  0  0  0  0  0
   -4.5303   -2.5673   -2.4596 C   0  0  0  0  0  0  0  0  0  0  0  0
   -5.4973   -1.4042   -2.5876 C   0  0  0  0  0  0  0  0  0  0  0  0
   -4.2640   -0.5383   -2.5963 C   0  0  0  0  0  0  0  0  0  0  0  0
   -1.6124   -0.5116   -1.2236 C   0  0  0  0  0  0  0  0  0  0  0  0
   -1.3744    0.1426   -2.2708 O   0  0  0  0  0  0  0  0  0  0  0  0
   -1.0341   -0.0982    0.0221 N   0  0  0  0  0  0  0  0  0  0  0  0
   -0.7097    1.3050    0.3104 C   0  0  1  0  0  0  0  0  0  0  0  0
   -1.9862    2.0841    0.7280 C   0  0  0  0  0  0  0  0  0  0  0  0
   -2.5612    2.9245   -0.4343 C   0  0  0  0  0  0  0  0  0  0  0  0
   -3.8761    3.5510   -0.1538 N   0  0  0  0  0  0  0  0  0  0  0  0
   -5.0132    2.6372   -0.3912 C   0  0  0  0  0  0  0  0  0  0  0  0
   -6.3064    3.1788    0.2415 C   0  0  0  0  0  0  0  0  0  0  0  0
   -6.2735    4.5880    0.2833 O   0  0  0  0  0  0  0  0  0  0  0  0
   -5.2833    5.0428    1.1991 C   0  0  0  0  0  0  0  0  0  0  0  0
   -3.9809    4.2195    1.1551 C   0  0  0  0  0  0  0  0  0  0  0  0
    0.3296    1.3668    1.4000 C   0  0  0  0  0  0  0  0  0  0  0  0
    0.0923    0.8445    2.5183 O   0  0  0  0  0  0  0  0  0  0  0  0
    1.5479    2.0803    1.1884 N   0  0  0  0  0  0  0  0  0  0  0  0
    5.5031    1.5068    0.4790 H   0  0  0  0  0  0  0  0  0  0  0  0
    4.6856    1.0583   -2.4009 H   0  0  0  0  0  0  0  0  0  0  0  0
    6.7814    1.7872   -2.9558 H   0  0  0  0  0  0  0  0  0  0  0  0
    6.8649    2.4449   -1.2768 H   0  0  0  0  0  0  0  0  0  0  0  0
    8.1043    0.5403   -0.5077 H   0  0  0  0  0  0  0  0  0  0  0  0
    8.7140    0.6753   -2.2105 H   0  0  0  0  0  0  0  0  0  0  0  0
    7.6451   -1.6523   -1.2566 H   0  0  0  0  0  0  0  0  0  0  0  0
    7.3274   -1.0953   -2.9571 H   0  0  0  0  0  0  0  0  0  0  0  0
    5.0871   -1.2238   -2.3296 H   0  0  0  0  0  0  0  0  0  0  0  0
    5.4916   -1.1356   -0.5735 H   0  0  0  0  0  0  0  0  0  0  0  0
    3.5425    2.3539    1.7013 H   0  0  0  0  0  0  0  0  0  0  0  0
    2.5161    0.7869    3.3619 H   0  0  0  0  0  0  0  0  0  0  0  0
    4.0932    0.3223    2.7111 H   0  0  0  0  0  0  0  0  0  0  0  0
    1.9125   -0.9215    1.0711 H   0  0  0  0  0  0  0  0  0  0  0  0
    1.6926   -1.2574    2.7969 H   0  0  0  0  0  0  0  0  0  0  0  0
    4.4098   -1.6612    1.3800 H   0  0  0  0  0  0  0  0  0  0  0  0
    3.9298   -2.2258    3.0073 H   0  0  0  0  0  0  0  0  0  0  0  0
    3.8900   -4.0688    1.4128 H   0  0  0  0  0  0  0  0  0  0  0  0
    2.8510   -3.1901    0.2812 H   0  0  0  0  0  0  0  0  0  0  0  0
   -0.0291   -4.2434    3.7726 H   0  0  0  0  0  0  0  0  0  0  0  0
   -2.4421   -4.1260    3.2864 H   0  0  0  0  0  0  0  0  0  0  0  0
   -3.2447   -3.5897    1.0135 H   0  0  0  0  0  0  0  0  0  0  0  0
    0.8256   -3.2578   -0.3504 H   0  0  0  0  0  0  0  0  0  0  0  0
   -2.3794   -3.8854   -1.5290 H   0  0  0  0  0  0  0  0  0  0  0  0
   -0.8976   -2.9969   -1.9305 H   0  0  0  0  0  0  0  0  0  0  0  0
   -3.2259   -1.6380   -0.3821 H   0  0  0  0  0  0  0  0  0  0  0  0
   -4.5728   -3.2588   -3.3344 H   0  0  0  0  0  0  0  0  0  0  0  0
   -4.6655   -3.1001   -1.4854 H   0  0  0  0  0  0  0  0  0  0  0  0
   -6.1281   -1.2583   -1.6787 H   0  0  0  0  0  0  0  0  0  0  0  0
   -6.0337   -1.4005   -3.5581 H   0  0  0  0  0  0  0  0  0  0  0  0
   -4.1295   -0.0014   -3.5488 H   0  0  0  0  0  0  0  0  0  0  0  0
   -4.2257    0.1344   -1.7133 H   0  0  0  0  0  0  0  0  0  0  0  0
   -0.6659   -0.8485    0.6673 H   0  0  0  0  0  0  0  0  0  0  0  0
   -0.2650    1.7630   -0.5994 H   0  0  0  0  0  0  0  0  0  0  0  0
   -1.7454    2.7795    1.5620 H   0  0  0  0  0  0  0  0  0  0  0  0
   -2.7556    1.3734    1.0946 H   0  0  0  0  0  0  0  0  0  0  0  0
   -2.6362    2.3092   -1.3597 H   0  0  0  0  0  0  0  0  0  0  0  0
   -1.8419    3.7302   -0.6709 H   0  0  0  0  0  0  0  0  0  0  0  0
   -5.1565    2.5488   -1.4824 H   0  0  0  0  0  0  0  0  0  0  0  0
   -4.8134    1.6203    0.0071 H   0  0  0  0  0  0  0  0  0  0  0  0
   -6.4580    2.7577    1.2604 H   0  0  0  0  0  0  0  0  0  0  0  0
   -7.1733    2.8555   -0.3644 H   0  0  0  0  0  0  0  0  0  0  0  0
   -5.7038    5.0578    2.2251 H   0  0  0  0  0  0  0  0  0  0  0  0
   -5.0363    6.0912    0.9278 H   0  0  0  0  0  0  0  0  0  0  0  0
   -4.0118    3.4595    1.9654 H   0  0  0  0  0  0  0  0  0  0  0  0
   -3.1106    4.8956    1.3257 H   0  0  0  0  0  0  0  0  0  0  0  0
    1.4757    2.9752    0.6598 H   0  0  0  0  0  0  0  0  0  0  0  0
  1  2  2  0
  2  3  1  0
  3  4  1  0
  4  5  1  0
  5  6  1  0
  6  7  1  0
  7  8  1  0
  2  9  1  0
  9 10  1  0
 10 11  1  0
 11 12  1  0
 12 13  1  0
 13 14  1  0
 14 15  1  0
 15 16  2  0
 16 17  1  0
 17 18  2  0
 18 19  1  0
 19 20  2  0
 19 21  1  0
 21 22  1  0
 22 23  1  0
 23 24  1  0
 24 25  1  0
 25 26  1  0
 22 27  1  0
 27 28  2  0
 27 29  1  0
 29 30  1  0
 30 31  1  0
 31 32  1  0
 32 33  1  0
 33 34  1  0
 34 35  1  0
 35 36  1  0
 36 37  1  0
 37 38  1  0
 30 39  1  0
 39 40  2  0
 39 41  1  0
  8  4  1  0
 41  9  1  0
 20 15  1  0
 26 23  1  0
 38 33  1  0
  3 42  1  0
  4 43  1  0
  5 44  1  0
  5 45  1  0
  6 46  1  0
  6 47  1  0
  7 48  1  0
  7 49  1  0
  8 50  1  0
  8 51  1  0
  9 52  1  1
 10 53  1  0
 10 54  1  0
 11 55  1  0
 11 56  1  0
 12 57  1  0
 12 58  1  0
 13 59  1  0
 13 60  1  0
 16 61  1  0
 17 62  1  0
 18 63  1  0
 20 64  1  0
 21 65  1  0
 21 66  1  0
 22 67  1  1
 24 68  1  0
 24 69  1  0
 25 70  1  0
 25 71  1  0
 26 72  1  0
 26 73  1  0
 29 74  1  0
 30 75  1  6
 31 76  1  0
 31 77  1  0
 32 78  1  0
 32 79  1  0
 34 80  1  0
 34 81  1  0
 35 82  1  0
 35 83  1  0
 37 84  1  0
 37 85  1  0
 38 86  1  0
 38 87  1  0
 41 88  1  0
M  END
$$$$
