
     RDKit          3D

 92 96  0  0  0  0  0  0  0  0999 V2000
    1.2802   -5.0099    2.4867 N   0  0  0  0  0  0  0  0  0  0  0  0
    0.2017   -4.1345    2.1488 C   0  0  0  0  0  0  0  0  0  0  0  0
   -0.1059   -3.1919    2.9306 O   0  0  0  0  0  0  0  0  0  0  0  0
   -0.5801   -4.3481    0.8822 C   0  0  0  0  0  0  0  0  0  0  0  0
   -0.6403   -3.0807    0.0095 C   0  0  2  0  0  0  0  0  0  0  0  0
   -1.4948   -3.3265   -1.1553 N   0  0  0  0  0  0  0  0  0  0  0  0
   -2.4886   -2.4027   -1.6311 C   0  0  0  0  0  0  0  0  0  0  0  0
   -2.4666   -2.0953   -2.8566 O   0  0  0  0  0  0  0  0  0  0  0  0
   -3.6006   -1.8679   -0.7239 C   0  0  0  0  0  0  0  0  0  0  0  0
   -4.0652   -3.0437    0.2102 C   0  0  0  0  0  0  0  0  0  0  0  0
   -5.5397   -2.9313    0.6117 C   0  0  0  0  0  0  0  0  0  0  0  0
   -6.4624   -3.0272   -0.6190 C   0  0  0  0  0  0  0  0  0  0  0  0
   -5.8216   -2.4552   -1.9002 C   0  0  0  0  0  0  0  0  0  0  0  0
   -4.8231   -1.3452   -1.5635 C   0  0  0  0  0  0  0  0  0  0  0  0
   -3.0771   -0.7603    0.1019 N   0  0  0  0  0  0  0  0  0  0  0  0
   -3.0523    0.6156   -0.3130 C   0  0  0  0  0  0  0  0  0  0  0  0
   -3.7346    1.4558    0.3321 O   0  0  0  0  0  0  0  0  0  0  0  0
   -2.2469    1.0718   -1.5031 C   0  0  0  0  0  0  0  0  0  0  0  0
   -1.0472    1.9816   -1.1428 C   0  0  1  0  0  0  0  0  0  0  0  0
   -1.5019    3.3378   -0.6191 C   0  0  0  0  0  0  0  0  0  0  0  0
   -1.7354    4.3847   -1.5245 C   0  0  0  0  0  0  0  0  0  0  0  0
   -2.1772    5.6330   -1.0724 C   0  0  0  0  0  0  0  0  0  0  0  0
   -2.4190    5.8482    0.2937 C   0  0  0  0  0  0  0  0  0  0  0  0
   -2.9015    7.1920    0.7795 C   0  0  0  0  0  0  0  0  0  0  0  0
   -4.2144    7.5543    0.1571 C   0  0  0  0  0  0  0  0  0  0  0  0
   -5.2340    6.8420    0.3663 O   0  0  0  0  0  0  0  0  0  0  0  0
   -4.3014    8.6675   -0.6754 O   0  0  0  0  0  0  0  0  0  0  0  0
   -2.1905    4.8027    1.2059 C   0  0  0  0  0  0  0  0  0  0  0  0
   -1.7385    3.5610    0.7538 C   0  0  0  0  0  0  0  0  0  0  0  0
   -0.0741    1.3014   -0.2040 C   0  0  0  0  0  0  0  0  0  0  0  0
    1.1276    1.8410    0.0677 C   0  0  0  0  0  0  0  0  0  0  0  0
    2.0656    1.2112    1.0629 C   0  0  0  0  0  0  0  0  0  0  0  0
    3.0930    0.2583    0.4032 C   0  0  1  0  0  0  0  0  0  0  0  0
    4.0057   -0.3524    1.4960 C   0  0  0  0  0  0  0  0  0  0  0  0
    5.2433   -1.0170    0.9190 C   0  0  0  0  0  0  0  0  0  0  0  0
    5.2428   -2.4176    0.7976 C   0  0  0  0  0  0  0  0  0  0  0  0
    6.3390   -3.0931    0.2679 C   0  0  0  0  0  0  0  0  0  0  0  0
    7.4688   -2.3878   -0.1430 C   0  0  0  0  0  0  0  0  0  0  0  0
    7.5043   -0.9911   -0.0387 C   0  0  0  0  0  0  0  0  0  0  0  0
    8.6475   -0.2916   -0.4591 C   0  0  0  0  0  0  0  0  0  0  0  0
    8.6934    1.0972   -0.3709 C   0  0  0  0  0  0  0  0  0  0  0  0
    7.5993    1.8025    0.1317 C   0  0  0  0  0  0  0  0  0  0  0  0
    6.4558    1.1233    0.5633 C   0  0  0  0  0  0  0  0  0  0  0  0
    6.3853   -0.2854    0.4866 C   0  0  0  0  0  0  0  0  0  0  0  0
    2.4495   -0.8354   -0.4895 C   0  0  0  0  0  0  0  0  0  0  0  0
    1.4526   -1.6416    0.2190 N   0  0  0  0  0  0  0  0  0  0  0  0
    0.7389   -2.6815   -0.4547 C   0  0  0  0  0  0  0  0  0  0  0  0
    1.2938   -3.3113   -1.3986 O   0  0  0  0  0  0  0  0  0  0  0  0
    1.5402   -5.8119    1.8685 H   0  0  0  0  0  0  0  0  0  0  0  0
    1.8383   -4.8438    3.3530 H   0  0  0  0  0  0  0  0  0  0  0  0
   -0.1385   -5.1843    0.2984 H   0  0  0  0  0  0  0  0  0  0  0  0
   -1.6092   -4.6539    1.1591 H   0  0  0  0  0  0  0  0  0  0  0  0
   -1.0632   -2.2549    0.6167 H   0  0  0  0  0  0  0  0  0  0  0  0
   -1.1945   -4.0739   -1.8248 H   0  0  0  0  0  0  0  0  0  0  0  0
   -3.9390   -4.0282   -0.2989 H   0  0  0  0  0  0  0  0  0  0  0  0
   -3.4489   -3.0908    1.1325 H   0  0  0  0  0  0  0  0  0  0  0  0
   -5.7983   -3.7399    1.3266 H   0  0  0  0  0  0  0  0  0  0  0  0
   -5.7053   -1.9641    1.1304 H   0  0  0  0  0  0  0  0  0  0  0  0
   -7.4034   -2.4774   -0.3993 H   0  0  0  0  0  0  0  0  0  0  0  0
   -6.7344   -4.0887   -0.8001 H   0  0  0  0  0  0  0  0  0  0  0  0
   -6.6174   -2.0538   -2.5663 H   0  0  0  0  0  0  0  0  0  0  0  0
   -5.2947   -3.2594   -2.4583 H   0  0  0  0  0  0  0  0  0  0  0  0
   -4.5008   -0.8356   -2.4949 H   0  0  0  0  0  0  0  0  0  0  0  0
   -5.3767   -0.5737   -0.9819 H   0  0  0  0  0  0  0  0  0  0  0  0
   -3.0348   -0.8976    1.1358 H   0  0  0  0  0  0  0  0  0  0  0  0
   -1.8612    0.1930   -2.0581 H   0  0  0  0  0  0  0  0  0  0  0  0
   -2.9263    1.6132   -2.2019 H   0  0  0  0  0  0  0  0  0  0  0  0
   -0.4942    2.1463   -2.0948 H   0  0  0  0  0  0  0  0  0  0  0  0
   -1.5743    4.2377   -2.5854 H   0  0  0  0  0  0  0  0  0  0  0  0
   -2.3363    6.4283   -1.7890 H   0  0  0  0  0  0  0  0  0  0  0  0
   -3.0243    7.1993    1.8866 H   0  0  0  0  0  0  0  0  0  0  0  0
   -2.1381    7.9598    0.5193 H   0  0  0  0  0  0  0  0  0  0  0  0
   -5.1803    8.9259   -1.1047 H   0  0  0  0  0  0  0  0  0  0  0  0
   -2.3611    4.9502    2.2677 H   0  0  0  0  0  0  0  0  0  0  0  0
   -1.5793    2.7707    1.4772 H   0  0  0  0  0  0  0  0  0  0  0  0
   -0.3683    0.3833    0.2919 H   0  0  0  0  0  0  0  0  0  0  0  0
    1.4183    2.7736   -0.4035 H   0  0  0  0  0  0  0  0  0  0  0  0
    1.4900    0.6987    1.8668 H   0  0  0  0  0  0  0  0  0  0  0  0
    2.6210    2.0382    1.5634 H   0  0  0  0  0  0  0  0  0  0  0  0
    3.7247    0.8825   -0.2686 H   0  0  0  0  0  0  0  0  0  0  0  0
    4.3176    0.4296    2.2200 H   0  0  0  0  0  0  0  0  0  0  0  0
    3.4229   -1.0807    2.1031 H   0  0  0  0  0  0  0  0  0  0  0  0
    4.3790   -2.9933    1.1097 H   0  0  0  0  0  0  0  0  0  0  0  0
    6.3173   -4.1718    0.1826 H   0  0  0  0  0  0  0  0  0  0  0  0
    8.3141   -2.9337   -0.5454 H   0  0  0  0  0  0  0  0  0  0  0  0
    9.5086   -0.8241   -0.8493 H   0  0  0  0  0  0  0  0  0  0  0  0
    9.5764    1.6308   -0.6980 H   0  0  0  0  0  0  0  0  0  0  0  0
    7.6431    2.8813    0.1958 H   0  0  0  0  0  0  0  0  0  0  0  0
    5.6410    1.7162    0.9516 H   0  0  0  0  0  0  0  0  0  0  0  0
    1.9664   -0.3543   -1.3674 H   0  0  0  0  0  0  0  0  0  0  0  0
    3.2396   -1.5007   -0.9000 H   0  0  0  0  0  0  0  0  0  0  0  0
    1.1918   -1.4250    1.2070 H   0  0  0  0  0  0  0  0  0  0  0  0
  1  2  1  0
  2  3  2  0
  2  4  1  0
  4  5  1  0
  5  6  1  0
  6  7  1  0
  7  8  2  0
  7  9  1  0
  9 10  1  0
 10 11  1  0
 11 12  1  0
 12 13  1  0
 13 14  1  0
  9 15  1  0
 15 16  1  0
 16 17  2  0
 16 18  1  0
 18 19  1  0
 19 20  1  0
 20 21  2  0
 21 22  1  0
 22 23  2  0
 23 24  1  0
 24 25  1  0
 25 26  2  0
 25 27  1  0
 23 28  1  0
 28 29  2  0
 19 30  1  0
 30 31  2  0
 31 32  1  0
 32 33  1  0
 33 34  1  0
 34 35  1  0
 35 36  2  0
 36 37  1  0
 37 38  2  0
 38 39  1  0
 39 40  2  0
 40 41  1  0
 41 42  2  0
 42 43  1  0
 43 44  2  0
 33 45  1  0
 45 46  1  0
 46 47  1  0
 47 48  2  0
 47  5  1  0
 14  9  1  0
 29 20  1  0
 44 35  1  0
 44 39  1  0
  1 49  1  0
  1 50  1  0
  4 51  1  0
  4 52  1  0
  5 53  1  1
  6 54  1  0
 10 55  1  0
 10 56  1  0
 11 57  1  0
 11 58  1  0
 12 59  1  0
 12 60  1  0
 13 61  1  0
 13 62  1  0
 14 63  1  0
 14 64  1  0
 15 65  1  0
 18 66  1  0
 18 67  1  0
 19 68  1  6
 21 69  1  0
 22 70  1  0
 24 71  1  0
 24 72  1  0
 27 73  1  0
 28 74  1  0
 29 75  1  0
 30 76  1  0
 31 77  1  0
 32 78  1  0
 32 79  1  0
 33 80  1  6
 34 81  1  0
 34 82  1  0
 36 83  1  0
 37 84  1  0
 38 85  1  0
 40 86  1  0
 41 87  1  0
 42 88  1  0
 43 89  1  0
 45 90  1  0
 45 91  1  0
 46 92  1  0
M  END
$$$$
