
     RDKit          3D

 96102  0  0  0  0  0  0  0  0999 V2000
    3.8507    5.1708   -4.1421 C   0  0  0  0  0  0  0  0  0  0  0  0
    4.8396    4.4305   -3.4291 O   0  0  0  0  0  0  0  0  0  0  0  0
    4.5632    3.4156   -2.5035 C   0  0  0  0  0  0  0  0  0  0  0  0
    3.2494    3.0524   -2.1561 C   0  0  0  0  0  0  0  0  0  0  0  0
    3.0177    2.0376   -1.2266 C   0  0  0  0  0  0  0  0  0  0  0  0
    4.0860    1.3130   -0.6595 C   0  0  0  0  0  0  0  0  0  0  0  0
    3.8998    0.2381    0.2539 C   0  0  0  0  0  0  0  0  0  0  0  0
    2.6467   -0.2888    0.6103 O   0  0  0  0  0  0  0  0  0  0  0  0
    1.5830   -0.6445   -0.2785 C   0  0  2  0  0  0  0  0  0  0  0  0
    0.2797   -0.0082    0.2130 C   0  0  0  0  0  0  0  0  0  0  0  0
   -0.7671   -1.1216    0.2897 C   0  0  1  0  0  0  0  0  0  0  0  0
   -1.8789   -0.8385   -0.6825 C   0  0  0  0  0  0  0  0  0  0  0  0
   -1.8704   -1.3406   -1.8387 O   0  0  0  0  0  0  0  0  0  0  0  0
   -2.9184    0.0708   -0.2883 N   0  0  0  0  0  0  0  0  0  0  0  0
   -4.3286   -0.1363   -0.6239 C   0  0  2  0  0  0  0  0  0  0  0  0
   -5.1009    1.0774   -1.0478 C   0  0  0  0  0  0  0  0  0  0  0  0
   -5.5332    1.1623   -2.2306 O   0  0  0  0  0  0  0  0  0  0  0  0
   -5.2880    2.1565   -0.1215 N   0  0  0  0  0  0  0  0  0  0  0  0
   -6.1933    3.5886   -0.4948 S   0  0  0  0  0  6  0  0  0  0  0  0
   -5.6126    4.7353    0.2915 O   0  0  0  0  0  0  0  0  0  0  0  0
   -6.0671    3.9059   -1.9617 O   0  0  0  0  0  0  0  0  0  0  0  0
   -7.9255    3.4127   -0.0595 C   0  0  0  0  0  0  0  0  0  0  0  0
   -8.7758    4.6815    0.0113 C   0  0  0  0  0  0  0  0  0  0  0  0
   -8.6101    2.1506   -0.5693 C   0  0  0  0  0  0  0  0  0  0  0  0
   -8.2839    2.2968    0.9195 C   0  0  0  0  0  0  0  0  0  0  0  0
   -5.0024   -0.9227    0.4977 C   0  0  0  0  0  0  0  0  0  0  0  0
   -4.8093   -1.5677   -0.8709 C   0  0  1  0  0  0  0  0  0  0  0  0
   -6.1493   -1.8837   -1.4715 C   0  0  0  0  0  0  0  0  0  0  0  0
   -6.5460   -3.1541   -1.6847 C   0  0  0  0  0  0  0  0  0  0  0  0
   -5.6279   -4.3541   -1.5642 C   0  0  0  0  0  0  0  0  0  0  0  0
   -5.2086   -4.6610   -0.1078 C   0  0  0  0  0  0  0  0  0  0  0  0
   -3.9739   -5.5767   -0.0273 C   0  0  0  0  0  0  0  0  0  0  0  0
   -2.6352   -4.9214   -0.4500 C   0  0  0  0  0  0  0  0  0  0  0  0
   -2.0163   -3.9981    0.6205 C   0  0  0  0  0  0  0  0  0  0  0  0
   -0.5683   -3.6995    0.2939 C   0  0  0  0  0  0  0  0  0  0  0  0
    0.2349   -4.6717    0.2645 O   0  0  0  0  0  0  0  0  0  0  0  0
   -0.0669   -2.3708    0.0020 N   0  0  0  0  0  0  0  0  0  0  0  0
    1.3526   -2.1543   -0.2591 C   0  0  0  0  0  0  0  0  0  0  0  0
    5.0163   -0.3017    0.9046 C   0  0  0  0  0  0  0  0  0  0  0  0
    6.2962    0.2014    0.6408 C   0  0  0  0  0  0  0  0  0  0  0  0
    7.4693   -0.2403    1.4140 C   0  0  0  0  0  0  0  0  0  0  0  0
    8.6019    0.4870    1.4959 N   0  0  0  0  0  0  0  0  0  0  0  0
    9.5125   -0.0683    2.3424 C   0  0  0  0  0  0  0  0  0  0  0  0
   10.8470    0.5795    2.6159 C   0  0  0  0  0  0  0  0  0  0  0  0
   11.7390    0.4938    1.3747 C   0  0  0  0  0  0  0  0  0  0  0  0
   10.6622    2.0377    3.0450 C   0  0  0  0  0  0  0  0  0  0  0  0
    9.1168   -1.2630    2.9282 C   0  0  0  0  0  0  0  0  0  0  0  0
    7.5623   -1.6103    2.3853 S   0  0  0  0  0  0  0  0  0  0  0  0
    6.4527    1.1801   -0.2858 N   0  0  0  0  0  0  0  0  0  0  0  0
    5.4072    1.7329   -0.9550 C   0  0  0  0  0  0  0  0  0  0  0  0
    5.6395    2.7617   -1.8862 C   0  0  0  0  0  0  0  0  0  0  0  0
    7.2925    3.2534   -2.2664 Cl  0  0  0  0  0  0  0  0  0  0  0  0
    4.3560    5.9153   -4.7776 H   0  0  0  0  0  0  0  0  0  0  0  0
    3.2541    4.4952   -4.7906 H   0  0  0  0  0  0  0  0  0  0  0  0
    3.1870    5.7042   -3.4339 H   0  0  0  0  0  0  0  0  0  0  0  0
    2.3927    3.5585   -2.5884 H   0  0  0  0  0  0  0  0  0  0  0  0
    1.9970    1.8671   -0.9363 H   0  0  0  0  0  0  0  0  0  0  0  0
    1.7932   -0.3421   -1.3277 H   0  0  0  0  0  0  0  0  0  0  0  0
    0.4162    0.4274    1.2247 H   0  0  0  0  0  0  0  0  0  0  0  0
   -0.0208    0.8239   -0.4619 H   0  0  0  0  0  0  0  0  0  0  0  0
   -1.1787   -1.1680    1.3204 H   0  0  0  0  0  0  0  0  0  0  0  0
   -2.7389    0.6444    0.5625 H   0  0  0  0  0  0  0  0  0  0  0  0
   -4.8803    2.0845    0.8372 H   0  0  0  0  0  0  0  0  0  0  0  0
   -9.8523    4.4589    0.1703 H   0  0  0  0  0  0  0  0  0  0  0  0
   -8.4185    5.3116    0.8545 H   0  0  0  0  0  0  0  0  0  0  0  0
   -8.6694    5.2522   -0.9348 H   0  0  0  0  0  0  0  0  0  0  0  0
   -9.6994    2.2184   -0.7905 H   0  0  0  0  0  0  0  0  0  0  0  0
   -7.9644    1.4127   -1.0875 H   0  0  0  0  0  0  0  0  0  0  0  0
   -7.4556    1.6476    1.2673 H   0  0  0  0  0  0  0  0  0  0  0  0
   -9.1643    2.4945    1.5567 H   0  0  0  0  0  0  0  0  0  0  0  0
   -6.0356   -0.5994    0.7499 H   0  0  0  0  0  0  0  0  0  0  0  0
   -4.3305   -1.3354    1.2812 H   0  0  0  0  0  0  0  0  0  0  0  0
   -4.0096   -2.3230   -0.9391 H   0  0  0  0  0  0  0  0  0  0  0  0
   -6.8578   -1.0830   -1.6469 H   0  0  0  0  0  0  0  0  0  0  0  0
   -7.5513   -3.3243   -2.0715 H   0  0  0  0  0  0  0  0  0  0  0  0
   -6.1505   -5.2469   -1.9754 H   0  0  0  0  0  0  0  0  0  0  0  0
   -4.7504   -4.1940   -2.2242 H   0  0  0  0  0  0  0  0  0  0  0  0
   -5.0147   -3.7532    0.4870 H   0  0  0  0  0  0  0  0  0  0  0  0
   -6.0600   -5.1727    0.3908 H   0  0  0  0  0  0  0  0  0  0  0  0
   -3.8790   -5.9625    1.0087 H   0  0  0  0  0  0  0  0  0  0  0  0
   -4.1516   -6.4645   -0.6704 H   0  0  0  0  0  0  0  0  0  0  0  0
   -2.7324   -4.3659   -1.4005 H   0  0  0  0  0  0  0  0  0  0  0  0
   -1.9265   -5.7522   -0.6539 H   0  0  0  0  0  0  0  0  0  0  0  0
   -2.0428   -4.4984    1.6158 H   0  0  0  0  0  0  0  0  0  0  0  0
   -2.6038   -3.0648    0.7066 H   0  0  0  0  0  0  0  0  0  0  0  0
    1.9582   -2.6258    0.5405 H   0  0  0  0  0  0  0  0  0  0  0  0
    1.6398   -2.6031   -1.2299 H   0  0  0  0  0  0  0  0  0  0  0  0
    4.8715   -1.0859    1.6413 H   0  0  0  0  0  0  0  0  0  0  0  0
   11.3538    0.0454    3.4500 H   0  0  0  0  0  0  0  0  0  0  0  0
   11.2553    0.9977    0.5075 H   0  0  0  0  0  0  0  0  0  0  0  0
   11.9263   -0.5726    1.1147 H   0  0  0  0  0  0  0  0  0  0  0  0
   12.7113    0.9960    1.5647 H   0  0  0  0  0  0  0  0  0  0  0  0
   11.6418    2.4829    3.3208 H   0  0  0  0  0  0  0  0  0  0  0  0
   10.0023    2.0901    3.9347 H   0  0  0  0  0  0  0  0  0  0  0  0
   10.2184    2.6413    2.2233 H   0  0  0  0  0  0  0  0  0  0  0  0
    9.7040   -1.8585    3.6199 H   0  0  0  0  0  0  0  0  0  0  0  0
  1  2  1  0
  2  3  1  0
  3  4  2  0
  4  5  1  0
  5  6  2  0
  6  7  1  0
  7  8  1  0
  8  9  1  0
  9 10  1  0
 10 11  1  0
 11 12  1  0
 12 13  2  0
 12 14  1  0
 14 15  1  0
 15 16  1  6
 16 17  2  0
 16 18  1  0
 18 19  1  0
 19 20  2  0
 19 21  2  0
 19 22  1  0
 22 23  1  0
 22 24  1  0
 24 25  1  0
 15 26  1  0
 26 27  1  0
 27 28  1  0
 28 29  2  0
 29 30  1  0
 30 31  1  0
 31 32  1  0
 32 33  1  0
 33 34  1  0
 34 35  1  0
 35 36  2  0
 35 37  1  0
 37 38  1  0
  7 39  2  0
 39 40  1  0
 40 41  1  0
 41 42  2  0
 42 43  1  0
 43 44  1  0
 44 45  1  0
 44 46  1  0
 43 47  2  0
 47 48  1  0
 40 49  2  0
 49 50  1  0
 50 51  2  0
 51 52  1  0
 51  3  1  0
 50  6  1  0
 38  9  1  0
 48 41  1  0
 37 11  1  0
 27 15  1  0
 25 22  1  0
  1 53  1  0
  1 54  1  0
  1 55  1  0
  4 56  1  0
  5 57  1  0
  9 58  1  6
 10 59  1  0
 10 60  1  0
 11 61  1  1
 14 62  1  0
 18 63  1  0
 23 64  1  0
 23 65  1  0
 23 66  1  0
 24 67  1  0
 24 68  1  0
 25 69  1  0
 25 70  1  0
 26 71  1  0
 26 72  1  0
 27 73  1  1
 28 74  1  0
 29 75  1  0
 30 76  1  0
 30 77  1  0
 31 78  1  0
 31 79  1  0
 32 80  1  0
 32 81  1  0
 33 82  1  0
 33 83  1  0
 34 84  1  0
 34 85  1  0
 38 86  1  0
 38 87  1  0
 39 88  1  0
 44 89  1  0
 45 90  1  0
 45 91  1  0
 45 92  1  0
 46 93  1  0
 46 94  1  0
 46 95  1  0
 47 96  1  0
M  END
$$$$
