
     RDKit          3D

 87 93  0  0  0  0  0  0  0  0999 V2000
   -9.8277   -2.3871   -0.0201 C   0  0  0  0  0  0  0  0  0  0  0  0
   -8.5999   -2.8875   -0.5381 O   0  0  0  0  0  0  0  0  0  0  0  0
   -7.4176   -2.1395   -0.6328 C   0  0  0  0  0  0  0  0  0  0  0  0
   -6.2705   -2.7689   -1.1289 C   0  0  0  0  0  0  0  0  0  0  0  0
   -5.0645   -2.0705   -1.2402 C   0  0  0  0  0  0  0  0  0  0  0  0
   -4.9902   -0.7200   -0.8592 C   0  0  0  0  0  0  0  0  0  0  0  0
   -3.7894    0.0084   -0.9454 C   0  0  0  0  0  0  0  0  0  0  0  0
   -2.6245   -0.6356   -1.4049 O   0  0  0  0  0  0  0  0  0  0  0  0
   -1.3049   -0.0797   -1.3694 C   0  0  2  0  0  0  0  0  0  0  0  0
   -0.3301   -1.0406   -2.0422 C   0  0  0  0  0  0  0  0  0  0  0  0
    0.3171   -1.8377   -0.9140 C   0  0  1  0  0  0  0  0  0  0  0  0
    1.6431   -2.4459   -1.3417 C   0  0  0  0  0  0  0  0  0  0  0  0
    1.6717   -3.1549   -2.3831 O   0  0  0  0  0  0  0  0  0  0  0  0
    2.8305   -2.3571   -0.5423 N   0  0  0  0  0  0  0  0  0  0  0  0
    3.6458   -1.1386   -0.4721 C   0  0  2  0  0  0  0  0  0  0  0  0
    3.7117   -0.2667   -1.7014 C   0  0  0  0  0  0  0  0  0  0  0  0
    2.7771    0.5452   -1.9327 O   0  0  0  0  0  0  0  0  0  0  0  0
    4.8083   -0.3776   -2.6138 N   0  0  0  0  0  0  0  0  0  0  0  0
    4.9570    0.6438   -4.0052 S   0  0  0  0  0  6  0  0  0  0  0  0
    4.4852    2.0335   -3.6709 O   0  0  0  0  0  0  0  0  0  0  0  0
    4.1207    0.0883   -5.1239 O   0  0  0  0  0  0  0  0  0  0  0  0
    6.6758    0.6710   -4.5094 C   0  0  0  0  0  0  0  0  0  0  0  0
    7.0506    1.8436   -5.3999 C   0  0  0  0  0  0  0  0  0  0  0  0
    7.5005    1.8179   -3.9459 C   0  0  0  0  0  0  0  0  0  0  0  0
    4.9603   -1.2922    0.2966 C   0  0  0  0  0  0  0  0  0  0  0  0
    3.7934   -0.5564    0.9382 C   0  0  1  0  0  0  0  0  0  0  0  0
    3.9657    0.9400    1.0543 C   0  0  0  0  0  0  0  0  0  0  0  0
    4.1787    1.5681    2.2215 C   0  0  0  0  0  0  0  0  0  0  0  0
    4.3354    0.8795    3.5546 C   0  0  0  0  0  0  0  0  0  0  0  0
    3.0954    1.0451    4.4528 C   0  0  0  0  0  0  0  0  0  0  0  0
    2.0135   -0.0260    4.2187 C   0  0  0  0  0  0  0  0  0  0  0  0
    0.9810    0.3817    3.1559 C   0  0  0  0  0  0  0  0  0  0  0  0
    0.1232   -0.7623    2.8207 N   0  0  0  0  0  0  0  0  0  0  0  0
   -0.8642   -1.2460    3.7894 C   0  0  0  0  0  0  0  0  0  0  0  0
    0.3531   -1.5304    1.6277 C   0  0  0  0  0  0  0  0  0  0  0  0
    0.5055   -2.7809    1.7195 O   0  0  0  0  0  0  0  0  0  0  0  0
    0.3767   -0.8560    0.2688 C   0  0  2  0  0  0  0  0  0  0  0  0
   -0.8253    0.0744    0.0823 C   0  0  0  0  0  0  0  0  0  0  0  0
   -3.7814    1.3597   -0.5532 C   0  0  0  0  0  0  0  0  0  0  0  0
   -4.9512    1.9574   -0.0644 C   0  0  0  0  0  0  0  0  0  0  0  0
   -4.9716    3.3666    0.3741 C   0  0  0  0  0  0  0  0  0  0  0  0
   -6.0812    3.9762    0.8457 N   0  0  0  0  0  0  0  0  0  0  0  0
   -5.8486    5.2733    1.1836 C   0  0  0  0  0  0  0  0  0  0  0  0
   -4.5449    5.7139    0.9838 C   0  0  0  0  0  0  0  0  0  0  0  0
   -3.6601    4.4279    0.3633 S   0  0  0  0  0  0  0  0  0  0  0  0
   -6.0920    1.2236    0.0172 N   0  0  0  0  0  0  0  0  0  0  0  0
   -6.1460   -0.0799   -0.3640 C   0  0  0  0  0  0  0  0  0  0  0  0
   -7.3486   -0.7869   -0.2509 C   0  0  0  0  0  0  0  0  0  0  0  0
  -10.5899   -3.1903   -0.0560 H   0  0  0  0  0  0  0  0  0  0  0  0
   -9.6944   -2.0687    1.0338 H   0  0  0  0  0  0  0  0  0  0  0  0
  -10.1833   -1.5303   -0.6336 H   0  0  0  0  0  0  0  0  0  0  0  0
   -6.3142   -3.8091   -1.4231 H   0  0  0  0  0  0  0  0  0  0  0  0
   -4.1953   -2.5883   -1.6232 H   0  0  0  0  0  0  0  0  0  0  0  0
   -1.2871    0.8954   -1.9078 H   0  0  0  0  0  0  0  0  0  0  0  0
    0.4375   -0.4529   -2.5912 H   0  0  0  0  0  0  0  0  0  0  0  0
   -0.8459   -1.7076   -2.7678 H   0  0  0  0  0  0  0  0  0  0  0  0
   -0.3793   -2.6708   -0.6624 H   0  0  0  0  0  0  0  0  0  0  0  0
    3.2282   -3.2521   -0.1821 H   0  0  0  0  0  0  0  0  0  0  0  0
    5.5446   -1.1022   -2.4550 H   0  0  0  0  0  0  0  0  0  0  0  0
    7.2243   -0.2748   -4.6958 H   0  0  0  0  0  0  0  0  0  0  0  0
    6.2454    2.5763   -5.6145 H   0  0  0  0  0  0  0  0  0  0  0  0
    7.8641    1.6313   -6.1264 H   0  0  0  0  0  0  0  0  0  0  0  0
    8.5795    1.5843   -3.8125 H   0  0  0  0  0  0  0  0  0  0  0  0
    6.9659    2.5406   -3.2932 H   0  0  0  0  0  0  0  0  0  0  0  0
    5.1518   -2.2826    0.7584 H   0  0  0  0  0  0  0  0  0  0  0  0
    5.7969   -0.6307   -0.0143 H   0  0  0  0  0  0  0  0  0  0  0  0
    3.2409   -1.1148    1.7202 H   0  0  0  0  0  0  0  0  0  0  0  0
    3.8794    1.5614    0.1705 H   0  0  0  0  0  0  0  0  0  0  0  0
    4.2343    2.6528    2.2122 H   0  0  0  0  0  0  0  0  0  0  0  0
    4.6134   -0.1890    3.4463 H   0  0  0  0  0  0  0  0  0  0  0  0
    5.1944    1.3624    4.0681 H   0  0  0  0  0  0  0  0  0  0  0  0
    2.6693    2.0696    4.3639 H   0  0  0  0  0  0  0  0  0  0  0  0
    3.4404    0.9434    5.5037 H   0  0  0  0  0  0  0  0  0  0  0  0
    2.4799   -0.9999    3.9522 H   0  0  0  0  0  0  0  0  0  0  0  0
    1.4731   -0.1864    5.1757 H   0  0  0  0  0  0  0  0  0  0  0  0
    0.3533    1.2130    3.5435 H   0  0  0  0  0  0  0  0  0  0  0  0
    1.4880    0.7633    2.2512 H   0  0  0  0  0  0  0  0  0  0  0  0
   -0.9515   -0.5527    4.6556 H   0  0  0  0  0  0  0  0  0  0  0  0
   -0.5677   -2.2485    4.1671 H   0  0  0  0  0  0  0  0  0  0  0  0
   -1.8596   -1.3193    3.3011 H   0  0  0  0  0  0  0  0  0  0  0  0
    1.2798   -0.2274    0.1822 H   0  0  0  0  0  0  0  0  0  0  0  0
   -1.6443   -0.1828    0.7921 H   0  0  0  0  0  0  0  0  0  0  0  0
   -0.5241    1.1278    0.2767 H   0  0  0  0  0  0  0  0  0  0  0  0
   -2.8737    1.9399   -0.6136 H   0  0  0  0  0  0  0  0  0  0  0  0
   -6.6266    5.9117    1.5736 H   0  0  0  0  0  0  0  0  0  0  0  0
   -4.1699    6.7078    1.1898 H   0  0  0  0  0  0  0  0  0  0  0  0
   -8.2205   -0.2767    0.1360 H   0  0  0  0  0  0  0  0  0  0  0  0
  1  2  1  0
  2  3  1  0
  3  4  2  0
  4  5  1  0
  5  6  2  0
  6  7  1  0
  7  8  1  0
  8  9  1  0
  9 10  1  0
 10 11  1  0
 11 12  1  0
 12 13  2  0
 12 14  1  0
 14 15  1  0
 15 16  1  6
 16 17  2  0
 16 18  1  0
 18 19  1  0
 19 20  2  0
 19 21  2  0
 19 22  1  0
 22 23  1  0
 23 24  1  0
 15 25  1  0
 25 26  1  0
 26 27  1  0
 27 28  2  0
 28 29  1  0
 29 30  1  0
 30 31  1  0
 31 32  1  0
 32 33  1  0
 33 34  1  0
 33 35  1  0
 35 36  2  0
 35 37  1  0
 37 38  1  0
  7 39  2  0
 39 40  1  0
 40 41  1  0
 41 42  2  0
 42 43  1  0
 43 44  2  0
 44 45  1  0
 40 46  2  0
 46 47  1  0
 47 48  2  0
 48  3  1  0
 47  6  1  0
 38  9  1  0
 45 41  1  0
 37 11  1  0
 26 15  1  0
 24 22  1  0
  1 49  1  0
  1 50  1  0
  1 51  1  0
  4 52  1  0
  5 53  1  0
  9 54  1  6
 10 55  1  0
 10 56  1  0
 11 57  1  1
 14 58  1  0
 18 59  1  0
 22 60  1  0
 23 61  1  0
 23 62  1  0
 24 63  1  0
 24 64  1  0
 25 65  1  0
 25 66  1  0
 26 67  1  1
 27 68  1  0
 28 69  1  0
 29 70  1  0
 29 71  1  0
 30 72  1  0
 30 73  1  0
 31 74  1  0
 31 75  1  0
 32 76  1  0
 32 77  1  0
 34 78  1  0
 34 79  1  0
 34 80  1  0
 37 81  1  6
 38 82  1  0
 38 83  1  0
 39 84  1  0
 43 85  1  0
 44 86  1  0
 48 87  1  0
M  END
$$$$
