
     RDKit          3D

 93 95  0  0  0  0  0  0  0  0999 V2000
   -8.4062   -0.3909    4.3387 C   0  0  0  0  0  0  0  0  0  0  0  0
   -7.7792   -0.4689    2.9775 C   0  0  0  0  0  0  0  0  0  0  0  0
   -7.1924    0.6731    2.4119 C   0  0  0  0  0  0  0  0  0  0  0  0
   -6.5985    0.6108    1.1469 C   0  0  0  0  0  0  0  0  0  0  0  0
   -6.5747   -0.5981    0.4395 C   0  0  0  0  0  0  0  0  0  0  0  0
   -5.7805   -0.6909   -1.1341 S   0  0  0  0  0  6  0  0  0  0  0  0
   -6.0488    0.5767   -1.9023 O   0  0  0  0  0  0  0  0  0  0  0  0
   -6.3566   -1.8399   -1.9180 O   0  0  0  0  0  0  0  0  0  0  0  0
   -4.0565   -0.9238   -0.9547 N   0  0  0  0  0  0  0  0  0  0  0  0
   -3.8260   -2.1705   -0.2075 C   0  0  0  0  0  0  0  0  0  0  0  0
   -3.4544    0.2357   -0.2618 C   0  0  0  0  0  0  0  0  0  0  0  0
   -1.9445    0.3936   -0.6110 C   0  0  1  0  0  0  0  0  0  0  0  0
   -1.7638    1.2476   -1.7359 O   0  0  0  0  0  0  0  0  0  0  0  0
   -2.0238    0.5637   -2.9481 C   0  0  0  0  0  0  0  0  0  0  0  0
   -1.9619    1.5415   -4.1324 C   0  0  0  0  0  0  0  0  0  0  0  0
   -0.5683    1.6525   -4.7739 C   0  0  0  0  0  0  0  0  0  0  0  0
    0.4519    2.4225   -3.9075 C   0  0  0  0  0  0  0  0  0  0  0  0
    1.4782    1.5072   -3.2158 C   0  0  1  0  0  0  0  0  0  0  0  0
    2.5169    0.9718   -4.2150 C   0  0  0  0  0  0  0  0  0  0  0  0
    2.1370    2.2735   -2.2051 O   0  0  0  0  0  0  0  0  0  0  0  0
    3.1438    1.8260   -1.3306 C   0  0  0  0  0  0  0  0  0  0  0  0
    4.1732    2.7323   -1.0461 C   0  0  0  0  0  0  0  0  0  0  0  0
    5.2417    2.3728   -0.2252 C   0  0  0  0  0  0  0  0  0  0  0  0
    5.3051    1.0908    0.3290 C   0  0  0  0  0  0  0  0  0  0  0  0
    6.4145    0.7452    1.1746 N   0  0  0  0  0  0  0  0  0  0  0  0
    7.0028   -0.5636    1.2349 C   0  0  0  0  0  0  0  0  0  0  0  0
    6.6486   -1.4639    0.4247 O   0  0  0  0  0  0  0  0  0  0  0  0
    8.1024   -0.8502    2.2172 C   0  0  0  0  0  0  0  0  0  0  0  0
    7.7313   -2.0268    3.1323 C   0  0  0  0  0  0  0  0  0  0  0  0
    8.8419   -2.3414    4.1382 C   0  0  0  0  0  0  0  0  0  0  0  0
   10.0146   -2.6612    3.4702 F   0  0  0  0  0  0  0  0  0  0  0  0
    9.0660   -1.2497    4.9590 F   0  0  0  0  0  0  0  0  0  0  0  0
    8.4662   -3.4218    4.9209 F   0  0  0  0  0  0  0  0  0  0  0  0
    4.2487    0.1955    0.1027 C   0  0  0  0  0  0  0  0  0  0  0  0
    3.1587    0.5489   -0.7088 C   0  0  0  0  0  0  0  0  0  0  0  0
    2.0665   -0.4367   -0.8391 C   0  0  0  0  0  0  0  0  0  0  0  0
    2.1801   -1.3397   -1.7082 O   0  0  0  0  0  0  0  0  0  0  0  0
    0.9111   -0.4084    0.0380 N   0  0  0  0  0  0  0  0  0  0  0  0
    0.6033   -1.5905    0.8827 C   0  0  2  0  0  0  0  0  0  0  0  0
    1.5865   -1.6900    2.0528 C   0  0  0  0  0  0  0  0  0  0  0  0
    0.5666   -2.9150    0.0941 C   0  0  0  0  0  0  0  0  0  0  0  0
   -0.2337   -2.7834   -1.0464 O   0  0  0  0  0  0  0  0  0  0  0  0
    0.3739    0.9197    0.4185 C   0  0  0  0  0  0  0  0  0  0  0  0
   -1.1653    0.9741    0.6057 C   0  0  1  0  0  0  0  0  0  0  0  0
   -1.5893    2.4245    0.9111 C   0  0  0  0  0  0  0  0  0  0  0  0
   -7.1531   -1.7440    1.0045 C   0  0  0  0  0  0  0  0  0  0  0  0
   -7.7534   -1.6795    2.2667 C   0  0  0  0  0  0  0  0  0  0  0  0
   -8.8781   -1.3547    4.6226 H   0  0  0  0  0  0  0  0  0  0  0  0
   -7.6289   -0.1443    5.0915 H   0  0  0  0  0  0  0  0  0  0  0  0
   -9.1897    0.3971    4.3528 H   0  0  0  0  0  0  0  0  0  0  0  0
   -7.1917    1.6115    2.9502 H   0  0  0  0  0  0  0  0  0  0  0  0
   -6.1461    1.4983    0.7267 H   0  0  0  0  0  0  0  0  0  0  0  0
   -4.2684   -3.0315   -0.7524 H   0  0  0  0  0  0  0  0  0  0  0  0
   -2.7421   -2.3715   -0.1069 H   0  0  0  0  0  0  0  0  0  0  0  0
   -4.2702   -2.1228    0.8094 H   0  0  0  0  0  0  0  0  0  0  0  0
   -3.6121    0.1468    0.8391 H   0  0  0  0  0  0  0  0  0  0  0  0
   -3.9626    1.1793   -0.5617 H   0  0  0  0  0  0  0  0  0  0  0  0
   -1.5153   -0.6069   -0.8066 H   0  0  0  0  0  0  0  0  0  0  0  0
   -3.0528    0.1517   -2.9469 H   0  0  0  0  0  0  0  0  0  0  0  0
   -1.3057   -0.2768   -3.0969 H   0  0  0  0  0  0  0  0  0  0  0  0
   -2.6573    1.1699   -4.9179 H   0  0  0  0  0  0  0  0  0  0  0  0
   -2.3322    2.5469   -3.8301 H   0  0  0  0  0  0  0  0  0  0  0  0
   -0.2085    0.6370   -5.0419 H   0  0  0  0  0  0  0  0  0  0  0  0
   -0.6857    2.1987   -5.7351 H   0  0  0  0  0  0  0  0  0  0  0  0
    0.9925    3.1584   -4.5441 H   0  0  0  0  0  0  0  0  0  0  0  0
   -0.0801    3.0175   -3.1312 H   0  0  0  0  0  0  0  0  0  0  0  0
    0.9206    0.6705   -2.7604 H   0  0  0  0  0  0  0  0  0  0  0  0
    2.0385    0.3906   -5.0299 H   0  0  0  0  0  0  0  0  0  0  0  0
    3.0911    1.8135   -4.6616 H   0  0  0  0  0  0  0  0  0  0  0  0
    3.2314    0.2981   -3.6977 H   0  0  0  0  0  0  0  0  0  0  0  0
    4.1537    3.7219   -1.4844 H   0  0  0  0  0  0  0  0  0  0  0  0
    6.0348    3.0877   -0.0394 H   0  0  0  0  0  0  0  0  0  0  0  0
    6.8951    1.5201    1.6864 H   0  0  0  0  0  0  0  0  0  0  0  0
    8.3008    0.0515    2.8384 H   0  0  0  0  0  0  0  0  0  0  0  0
    9.0294   -1.0881    1.6485 H   0  0  0  0  0  0  0  0  0  0  0  0
    7.5445   -2.9315    2.5168 H   0  0  0  0  0  0  0  0  0  0  0  0
    6.7959   -1.7849    3.6856 H   0  0  0  0  0  0  0  0  0  0  0  0
    4.2597   -0.7723    0.5805 H   0  0  0  0  0  0  0  0  0  0  0  0
   -0.4061   -1.4845    1.3232 H   0  0  0  0  0  0  0  0  0  0  0  0
    1.6412   -0.7237    2.5965 H   0  0  0  0  0  0  0  0  0  0  0  0
    1.2493   -2.4679    2.7700 H   0  0  0  0  0  0  0  0  0  0  0  0
    2.6003   -1.9624    1.6954 H   0  0  0  0  0  0  0  0  0  0  0  0
    0.1443   -3.7111    0.7501 H   0  0  0  0  0  0  0  0  0  0  0  0
    1.5957   -3.2288   -0.1965 H   0  0  0  0  0  0  0  0  0  0  0  0
   -0.2510   -3.6734   -1.4798 H   0  0  0  0  0  0  0  0  0  0  0  0
    0.8724    1.2490    1.3576 H   0  0  0  0  0  0  0  0  0  0  0  0
    0.6269    1.6716   -0.3532 H   0  0  0  0  0  0  0  0  0  0  0  0
   -1.4200    0.3908    1.5161 H   0  0  0  0  0  0  0  0  0  0  0  0
   -1.3605    3.0943    0.0542 H   0  0  0  0  0  0  0  0  0  0  0  0
   -2.6778    2.4820    1.1302 H   0  0  0  0  0  0  0  0  0  0  0  0
   -1.0487    2.8034    1.8054 H   0  0  0  0  0  0  0  0  0  0  0  0
   -7.1326   -2.6873    0.4732 H   0  0  0  0  0  0  0  0  0  0  0  0
   -8.1945   -2.5741    2.6899 H   0  0  0  0  0  0  0  0  0  0  0  0
  1  2  1  0
  2  3  2  0
  3  4  1  0
  4  5  2  0
  5  6  1  0
  6  7  2  0
  6  8  2  0
  6  9  1  0
  9 10  1  0
  9 11  1  0
 11 12  1  0
 12 13  1  0
 13 14  1  0
 14 15  1  0
 15 16  1  0
 16 17  1  0
 17 18  1  0
 18 19  1  0
 18 20  1  0
 20 21  1  0
 21 22  2  0
 22 23  1  0
 23 24  2  0
 24 25  1  0
 25 26  1  0
 26 27  2  0
 26 28  1  0
 28 29  1  0
 29 30  1  0
 30 31  1  0
 30 32  1  0
 30 33  1  0
 24 34  1  0
 34 35  2  0
 35 36  1  0
 36 37  2  0
 36 38  1  0
 38 39  1  0
 39 40  1  0
 39 41  1  0
 41 42  1  0
 38 43  1  0
 43 44  1  0
 44 45  1  0
  5 46  1  0
 46 47  2  0
 47  2  1  0
 44 12  1  0
 35 21  1  0
  1 48  1  0
  1 49  1  0
  1 50  1  0
  3 51  1  0
  4 52  1  0
 10 53  1  0
 10 54  1  0
 10 55  1  0
 11 56  1  0
 11 57  1  0
 12 58  1  6
 14 59  1  0
 14 60  1  0
 15 61  1  0
 15 62  1  0
 16 63  1  0
 16 64  1  0
 17 65  1  0
 17 66  1  0
 18 67  1  1
 19 68  1  0
 19 69  1  0
 19 70  1  0
 22 71  1  0
 23 72  1  0
 25 73  1  0
 28 74  1  0
 28 75  1  0
 29 76  1  0
 29 77  1  0
 34 78  1  0
 39 79  1  1
 40 80  1  0
 40 81  1  0
 40 82  1  0
 41 83  1  0
 41 84  1  0
 42 85  1  0
 43 86  1  0
 43 87  1  0
 44 88  1  1
 45 89  1  0
 45 90  1  0
 45 91  1  0
 46 92  1  0
 47 93  1  0
M  END
$$$$
