
     RDKit          3D

 79 84  0  0  0  0  0  0  0  0999 V2000
    0.9219    1.9756    2.4070 C   0  0  0  0  0  0  0  0  0  0  0  0
    0.7917    1.5742    0.9602 C   0  0  0  0  0  0  0  0  0  0  0  0
    1.0110    0.2277    0.6244 C   0  0  0  0  0  0  0  0  0  0  0  0
    0.9727   -0.2044   -0.7105 C   0  0  0  0  0  0  0  0  0  0  0  0
    0.6524    0.7175   -1.7119 C   0  0  0  0  0  0  0  0  0  0  0  0
    0.3921    2.0487   -1.3921 C   0  0  0  0  0  0  0  0  0  0  0  0
    0.4799    2.5133   -0.0619 C   0  0  0  0  0  0  0  0  0  0  0  0
    0.1632    3.9768    0.2694 C   0  0  1  0  0  0  0  0  0  0  0  0
    0.5310    4.9587   -0.8555 C   0  0  0  0  0  0  0  0  0  0  0  0
   -1.3021    4.1652    0.7260 C   0  0  0  0  0  0  0  0  0  0  0  0
   -2.1999    3.2767    0.0594 O   0  0  0  0  0  0  0  0  0  0  0  0
   -2.9107    3.6097   -1.1016 C   0  0  0  0  0  0  0  0  0  0  0  0
   -2.7328    4.7242   -1.6647 O   0  0  0  0  0  0  0  0  0  0  0  0
   -3.8959    2.7101   -1.6255 N   0  0  0  0  0  0  0  0  0  0  0  0
   -4.1248    1.3888   -1.1080 C   0  0  0  0  0  0  0  0  0  0  0  0
   -5.4334    0.9170   -0.9939 C   0  0  0  0  0  0  0  0  0  0  0  0
   -5.6841   -0.3771   -0.5412 C   0  0  0  0  0  0  0  0  0  0  0  0
   -4.6284   -1.2478   -0.2279 C   0  0  0  0  0  0  0  0  0  0  0  0
   -5.0336   -2.8790    0.3429 S   0  0  0  0  0  6  0  0  0  0  0  0
   -6.5225   -3.0904    0.2694 O   0  0  0  0  0  0  0  0  0  0  0  0
   -4.3737   -3.9019   -0.5409 O   0  0  0  0  0  0  0  0  0  0  0  0
   -4.4682   -3.0804    2.0376 C   0  0  0  0  0  0  0  0  0  0  0  0
   -5.4862   -3.6306    3.0254 C   0  0  0  0  0  0  0  0  0  0  0  0
   -5.1504   -2.1482    3.0245 C   0  0  0  0  0  0  0  0  0  0  0  0
   -3.2886   -0.7887   -0.3665 C   0  0  0  0  0  0  0  0  0  0  0  0
   -3.0596    0.5332   -0.7896 C   0  0  0  0  0  0  0  0  0  0  0  0
   -2.0783   -1.6749   -0.1305 C   0  0  0  0  0  0  0  0  0  0  0  0
   -1.2787   -1.8924   -1.3488 N   0  0  0  0  0  0  0  0  0  0  0  0
   -1.8796   -1.9624   -2.6871 C   0  0  0  0  0  0  0  0  0  0  0  0
    0.0194   -2.4835   -1.1901 C   0  0  0  0  0  0  0  0  0  0  0  0
    0.1253   -3.7415   -1.2426 O   0  0  0  0  0  0  0  0  0  0  0  0
    1.2752   -1.6437   -1.0878 C   0  0  2  0  0  0  0  0  0  0  0  0
    2.2199   -2.2541   -0.1368 N   0  0  0  0  0  0  0  0  0  0  0  0
    3.6060   -1.8759   -0.0011 C   0  0  0  0  0  0  0  0  0  0  0  0
    4.4038   -2.5452    0.9349 C   0  0  0  0  0  0  0  0  0  0  0  0
    5.7420   -2.1940    1.1311 C   0  0  0  0  0  0  0  0  0  0  0  0
    6.4161   -2.8346    2.1178 F   0  0  0  0  0  0  0  0  0  0  0  0
    6.3262   -1.1531    0.3708 C   0  0  0  0  0  0  0  0  0  0  0  0
    7.6832   -0.7467    0.5059 C   0  0  0  0  0  0  0  0  0  0  0  0
    8.6339   -1.4655    1.2998 N   0  0  0  0  0  0  0  0  0  0  0  0
    8.1253    0.3447   -0.1757 N   0  0  0  0  0  0  0  0  0  0  0  0
    7.3345    1.0545   -1.0173 C   0  0  0  0  0  0  0  0  0  0  0  0
    6.0192    0.6614   -1.2360 C   0  0  0  0  0  0  0  0  0  0  0  0
    5.5048   -0.4440   -0.5463 C   0  0  0  0  0  0  0  0  0  0  0  0
    4.1680   -0.8227   -0.7426 C   0  0  0  0  0  0  0  0  0  0  0  0
    1.7310    2.7285    2.5228 H   0  0  0  0  0  0  0  0  0  0  0  0
   -0.0373    2.3861    2.7791 H   0  0  0  0  0  0  0  0  0  0  0  0
    1.1802    1.1070    3.0541 H   0  0  0  0  0  0  0  0  0  0  0  0
    1.2303   -0.4852    1.4093 H   0  0  0  0  0  0  0  0  0  0  0  0
    0.5958    0.4031   -2.7474 H   0  0  0  0  0  0  0  0  0  0  0  0
    0.1148    2.7075   -2.2011 H   0  0  0  0  0  0  0  0  0  0  0  0
    0.8074    4.2895    1.1174 H   0  0  0  0  0  0  0  0  0  0  0  0
    0.4943    6.0008   -0.4733 H   0  0  0  0  0  0  0  0  0  0  0  0
    1.5650    4.7660   -1.2106 H   0  0  0  0  0  0  0  0  0  0  0  0
   -0.1676    4.8870   -1.7116 H   0  0  0  0  0  0  0  0  0  0  0  0
   -1.3669    3.9467    1.8111 H   0  0  0  0  0  0  0  0  0  0  0  0
   -1.6333    5.2205    0.6131 H   0  0  0  0  0  0  0  0  0  0  0  0
   -4.5702    3.0884   -2.3302 H   0  0  0  0  0  0  0  0  0  0  0  0
   -6.2661    1.5601   -1.2481 H   0  0  0  0  0  0  0  0  0  0  0  0
   -6.7139   -0.6967   -0.4470 H   0  0  0  0  0  0  0  0  0  0  0  0
   -3.4013   -3.2986    2.2610 H   0  0  0  0  0  0  0  0  0  0  0  0
   -6.5028   -3.8599    2.6411 H   0  0  0  0  0  0  0  0  0  0  0  0
   -5.0445   -4.1824    3.8822 H   0  0  0  0  0  0  0  0  0  0  0  0
   -5.9563   -1.5039    2.6119 H   0  0  0  0  0  0  0  0  0  0  0  0
   -4.5080   -1.8295    3.8758 H   0  0  0  0  0  0  0  0  0  0  0  0
   -2.0448    0.8765   -0.9188 H   0  0  0  0  0  0  0  0  0  0  0  0
   -1.4468   -1.1796    0.6387 H   0  0  0  0  0  0  0  0  0  0  0  0
   -2.3419   -2.6621    0.2879 H   0  0  0  0  0  0  0  0  0  0  0  0
   -1.6645   -2.9471   -3.1553 H   0  0  0  0  0  0  0  0  0  0  0  0
   -2.9818   -1.8480   -2.6600 H   0  0  0  0  0  0  0  0  0  0  0  0
   -1.4527   -1.1603   -3.3243 H   0  0  0  0  0  0  0  0  0  0  0  0
    1.7442   -1.6671   -2.0971 H   0  0  0  0  0  0  0  0  0  0  0  0
    1.8507   -2.9667    0.5348 H   0  0  0  0  0  0  0  0  0  0  0  0
    3.9781   -3.3404    1.5344 H   0  0  0  0  0  0  0  0  0  0  0  0
    8.5664   -2.4931    1.4509 H   0  0  0  0  0  0  0  0  0  0  0  0
    9.5475   -1.0168    1.5363 H   0  0  0  0  0  0  0  0  0  0  0  0
    7.7375    1.9166   -1.5323 H   0  0  0  0  0  0  0  0  0  0  0  0
    5.4036    1.2291   -1.9237 H   0  0  0  0  0  0  0  0  0  0  0  0
    3.5668   -0.2716   -1.4533 H   0  0  0  0  0  0  0  0  0  0  0  0
  1  2  1  0
  2  3  2  0
  3  4  1  0
  4  5  2  0
  5  6  1  0
  6  7  2  0
  7  8  1  0
  8  9  1  0
  8 10  1  0
 10 11  1  0
 11 12  1  0
 12 13  2  0
 12 14  1  0
 14 15  1  0
 15 16  2  0
 16 17  1  0
 17 18  2  0
 18 19  1  0
 19 20  2  0
 19 21  2  0
 19 22  1  0
 22 23  1  0
 23 24  1  0
 18 25  1  0
 25 26  2  0
 25 27  1  0
 27 28  1  0
 28 29  1  0
 28 30  1  0
 30 31  2  0
 30 32  1  0
 32 33  1  0
 33 34  1  0
 34 35  2  0
 35 36  1  0
 36 37  1  0
 36 38  2  0
 38 39  1  0
 39 40  1  0
 39 41  2  0
 41 42  1  0
 42 43  2  0
 43 44  1  0
 44 45  2  0
  7  2  1  0
 26 15  1  0
 45 34  1  0
 32  4  1  0
 44 38  1  0
 24 22  1  0
  1 46  1  0
  1 47  1  0
  1 48  1  0
  3 49  1  0
  5 50  1  0
  6 51  1  0
  8 52  1  1
  9 53  1  0
  9 54  1  0
  9 55  1  0
 10 56  1  0
 10 57  1  0
 14 58  1  0
 16 59  1  0
 17 60  1  0
 22 61  1  0
 23 62  1  0
 23 63  1  0
 24 64  1  0
 24 65  1  0
 26 66  1  0
 27 67  1  0
 27 68  1  0
 29 69  1  0
 29 70  1  0
 29 71  1  0
 32 72  1  6
 33 73  1  0
 35 74  1  0
 40 75  1  0
 40 76  1  0
 42 77  1  0
 43 78  1  0
 45 79  1  0
M  END
$$$$
