
     RDKit          3D

126132  0  0  0  0  0  0  0  0999 V2000
    6.5200    2.0231    0.6613 C   0  0  0  0  0  0  0  0  0  0  0  0
    5.3425    2.0563   -0.3150 C   0  0  0  0  0  0  0  0  0  0  0  0
    4.3589    1.0870    0.0319 O   0  0  0  0  0  0  0  0  0  0  0  0
    4.5297   -0.3051   -0.0330 C   0  0  0  0  0  0  0  0  0  0  0  0
    5.5972   -0.8940   -0.7195 C   0  0  0  0  0  0  0  0  0  0  0  0
    5.7760   -2.2885   -0.7087 C   0  0  0  0  0  0  0  0  0  0  0  0
    6.8600   -2.8955   -1.3676 O   0  0  0  0  0  0  0  0  0  0  0  0
    8.0392   -2.2292   -1.7293 C   0  0  0  0  0  0  0  0  0  0  0  0
    8.5909   -2.4613   -2.9964 C   0  0  0  0  0  0  0  0  0  0  0  0
    9.7270   -1.7484   -3.4185 C   0  0  0  0  0  0  0  0  0  0  0  0
   10.2761   -1.9691   -4.7978 C   0  0  0  0  0  0  0  0  0  0  0  0
   10.2893   -0.7838   -2.5717 C   0  0  0  0  0  0  0  0  0  0  0  0
    9.7614   -0.5662   -1.2875 C   0  0  0  0  0  0  0  0  0  0  0  0
   10.3757    0.4609   -0.3885 C   0  0  0  0  0  0  0  0  0  0  0  0
    8.6624   -1.3204   -0.8556 C   0  0  0  0  0  0  0  0  0  0  0  0
    4.8349   -3.0932   -0.0575 C   0  0  0  0  0  0  0  0  0  0  0  0
    3.7386   -2.5184    0.6088 C   0  0  0  0  0  0  0  0  0  0  0  0
    3.5913   -1.1169    0.6147 C   0  0  0  0  0  0  0  0  0  0  0  0
    2.4768   -0.5174    1.2064 O   0  0  0  0  0  0  0  0  0  0  0  0
    2.4984    0.0112    2.5293 C   0  0  0  0  0  0  0  0  0  0  0  0
    1.5971    1.2050    2.5897 C   0  0  0  0  0  0  0  0  0  0  0  0
    0.4817    1.1055    3.1612 O   0  0  0  0  0  0  0  0  0  0  0  0
    2.0058    2.4257    1.9572 N   0  0  0  0  0  0  0  0  0  0  0  0
    1.1394    3.5512    1.5913 C   0  0  1  0  0  0  0  0  0  0  0  0
    0.0042    3.1431    0.6154 C   0  0  0  0  0  0  0  0  0  0  0  0
   -1.3625    2.8964    1.2714 C   0  0  0  0  0  0  0  0  0  0  0  0
   -1.7258    4.0221    2.2553 C   0  0  2  0  0  0  0  0  0  0  0  0
   -0.6816    4.0730    3.3739 C   0  0  0  0  0  0  0  0  0  0  0  0
    0.7146    4.3923    2.8213 C   0  0  0  0  0  0  0  0  0  0  0  0
   -3.1316    3.8167    2.8541 C   0  0  0  0  0  0  0  0  0  0  0  0
   -4.1972    3.9759    1.7974 C   0  0  0  0  0  0  0  0  0  0  0  0
   -4.4019    5.1125    1.2957 O   0  0  0  0  0  0  0  0  0  0  0  0
   -4.8752    2.8403    1.2456 N   0  0  0  0  0  0  0  0  0  0  0  0
   -5.4397    1.7630    2.0685 C   0  0  1  0  0  0  0  0  0  0  0  0
   -6.9559    1.6672    1.9707 C   0  0  0  0  0  0  0  0  0  0  0  0
   -7.6360    0.7515    2.7981 C   0  0  0  0  0  0  0  0  0  0  0  0
   -9.0340    0.6523    2.7591 C   0  0  0  0  0  0  0  0  0  0  0  0
   -9.7704    1.4732    1.9056 C   0  0  0  0  0  0  0  0  0  0  0  0
   -9.1128    2.4014    1.0907 C   0  0  0  0  0  0  0  0  0  0  0  0
   -7.7182    2.5052    1.1267 C   0  0  0  0  0  0  0  0  0  0  0  0
   -4.7666    0.4508    1.7303 C   0  0  0  0  0  0  0  0  0  0  0  0
   -4.2679   -0.2407    2.6675 O   0  0  0  0  0  0  0  0  0  0  0  0
   -4.6336   -0.0316    0.3827 N   0  0  0  0  0  0  0  0  0  0  0  0
   -5.6729    0.0861   -0.6486 C   0  0  2  0  0  0  0  0  0  0  0  0
   -6.7523   -1.0068   -0.4516 C   0  0  0  0  0  0  0  0  0  0  0  0
   -6.2044   -2.4133   -0.5068 C   0  0  0  0  0  0  0  0  0  0  0  0
   -5.6815   -3.0175    0.6502 C   0  0  0  0  0  0  0  0  0  0  0  0
   -5.1602   -4.3137    0.5934 C   0  0  0  0  0  0  0  0  0  0  0  0
   -5.1638   -5.0222   -0.6107 C   0  0  0  0  0  0  0  0  0  0  0  0
   -5.6911   -4.4363   -1.7633 C   0  0  0  0  0  0  0  0  0  0  0  0
   -6.2141   -3.1370   -1.7128 C   0  0  0  0  0  0  0  0  0  0  0  0
   -5.0474    0.0369   -2.0188 C   0  0  0  0  0  0  0  0  0  0  0  0
   -5.7386   -0.2654   -3.0312 O   0  0  0  0  0  0  0  0  0  0  0  0
   -3.6842    0.4330   -2.1968 N   0  0  0  0  0  0  0  0  0  0  0  0
   -2.7583   -0.3090   -3.0730 C   0  0  2  0  0  0  0  0  0  0  0  0
   -3.0721   -1.7865   -3.0817 C   0  0  0  0  0  0  0  0  0  0  0  0
   -3.1744   -2.4219   -1.9971 O   0  0  0  0  0  0  0  0  0  0  0  0
   -3.2613   -2.4450   -4.2917 O   0  0  0  0  0  0  0  0  0  0  0  0
   -1.2739    0.0058   -2.7098 C   0  0  0  0  0  0  0  0  0  0  0  0
   -0.5653   -1.0559   -1.9149 C   0  0  0  0  0  0  0  0  0  0  0  0
    0.0754   -2.1131   -2.5829 C   0  0  0  0  0  0  0  0  0  0  0  0
    0.7938   -3.0704   -1.8655 C   0  0  0  0  0  0  0  0  0  0  0  0
    0.8871   -2.9846   -0.4683 C   0  0  0  0  0  0  0  0  0  0  0  0
    0.1764   -1.9793    0.2054 C   0  0  0  0  0  0  0  0  0  0  0  0
   -0.5455   -1.0186   -0.5152 C   0  0  0  0  0  0  0  0  0  0  0  0
    1.7570   -3.8907    0.2317 N   0  0  0  0  0  0  0  0  0  0  0  0
    2.6998   -3.4124    1.2404 C   0  0  0  0  0  0  0  0  0  0  0  0
    6.1492    2.1231    1.7086 H   0  0  0  0  0  0  0  0  0  0  0  0
    7.2039    2.8729    0.4393 H   0  0  0  0  0  0  0  0  0  0  0  0
    7.0888    1.0843    0.5453 H   0  0  0  0  0  0  0  0  0  0  0  0
    4.8704    3.0658   -0.2638 H   0  0  0  0  0  0  0  0  0  0  0  0
    5.6969    1.9060   -1.3572 H   0  0  0  0  0  0  0  0  0  0  0  0
    6.2663   -0.2785   -1.2969 H   0  0  0  0  0  0  0  0  0  0  0  0
    8.1219   -3.1744   -3.6622 H   0  0  0  0  0  0  0  0  0  0  0  0
   11.2831   -1.5124   -4.9103 H   0  0  0  0  0  0  0  0  0  0  0  0
    9.5952   -1.5090   -5.5441 H   0  0  0  0  0  0  0  0  0  0  0  0
   10.3618   -3.0578   -4.9979 H   0  0  0  0  0  0  0  0  0  0  0  0
   11.1432   -0.2042   -2.9049 H   0  0  0  0  0  0  0  0  0  0  0  0
    9.6262    0.8407    0.3405 H   0  0  0  0  0  0  0  0  0  0  0  0
   10.7416    1.3314   -0.9754 H   0  0  0  0  0  0  0  0  0  0  0  0
   11.2288    0.0095    0.1667 H   0  0  0  0  0  0  0  0  0  0  0  0
    8.2671   -1.1775    0.1400 H   0  0  0  0  0  0  0  0  0  0  0  0
    4.9467   -4.1719   -0.0766 H   0  0  0  0  0  0  0  0  0  0  0  0
    3.5329    0.3008    2.8333 H   0  0  0  0  0  0  0  0  0  0  0  0
    2.1423   -0.7722    3.2382 H   0  0  0  0  0  0  0  0  0  0  0  0
    2.9889    2.4596    1.6171 H   0  0  0  0  0  0  0  0  0  0  0  0
    1.7825    4.2322    0.9923 H   0  0  0  0  0  0  0  0  0  0  0  0
    0.2995    2.2361    0.0414 H   0  0  0  0  0  0  0  0  0  0  0  0
   -0.1342    3.9588   -0.1292 H   0  0  0  0  0  0  0  0  0  0  0  0
   -1.3760    1.9140    1.7888 H   0  0  0  0  0  0  0  0  0  0  0  0
   -2.1249    2.8376    0.4619 H   0  0  0  0  0  0  0  0  0  0  0  0
   -1.7093    4.9966    1.7110 H   0  0  0  0  0  0  0  0  0  0  0  0
   -0.6624    3.1126    3.9363 H   0  0  0  0  0  0  0  0  0  0  0  0
   -0.9496    4.8639    4.1052 H   0  0  0  0  0  0  0  0  0  0  0  0
    0.7345    5.4682    2.5471 H   0  0  0  0  0  0  0  0  0  0  0  0
    1.4594    4.2715    3.6378 H   0  0  0  0  0  0  0  0  0  0  0  0
   -3.1814    2.8176    3.3331 H   0  0  0  0  0  0  0  0  0  0  0  0
   -3.3200    4.5789    3.6410 H   0  0  0  0  0  0  0  0  0  0  0  0
   -5.0265    2.8365    0.2147 H   0  0  0  0  0  0  0  0  0  0  0  0
   -5.2353    1.9815    3.1395 H   0  0  0  0  0  0  0  0  0  0  0  0
   -7.0856    0.1117    3.4748 H   0  0  0  0  0  0  0  0  0  0  0  0
   -9.5427   -0.0617    3.3913 H   0  0  0  0  0  0  0  0  0  0  0  0
  -10.8517    1.4013    1.8792 H   0  0  0  0  0  0  0  0  0  0  0  0
   -9.6868    3.0468    0.4365 H   0  0  0  0  0  0  0  0  0  0  0  0
   -7.2507    3.2437    0.4917 H   0  0  0  0  0  0  0  0  0  0  0  0
   -3.8858   -0.7542    0.2265 H   0  0  0  0  0  0  0  0  0  0  0  0
   -6.1709    1.0714   -0.5726 H   0  0  0  0  0  0  0  0  0  0  0  0
   -7.2457   -0.8476    0.5300 H   0  0  0  0  0  0  0  0  0  0  0  0
   -7.5482   -0.8820   -1.2139 H   0  0  0  0  0  0  0  0  0  0  0  0
   -5.6570   -2.4805    1.5855 H   0  0  0  0  0  0  0  0  0  0  0  0
   -4.7441   -4.7680    1.4845 H   0  0  0  0  0  0  0  0  0  0  0  0
   -4.7413   -6.0161   -0.6590 H   0  0  0  0  0  0  0  0  0  0  0  0
   -5.6936   -4.9762   -2.6960 H   0  0  0  0  0  0  0  0  0  0  0  0
   -6.6226   -2.7006   -2.6174 H   0  0  0  0  0  0  0  0  0  0  0  0
   -3.4395    1.4220   -1.9366 H   0  0  0  0  0  0  0  0  0  0  0  0
   -2.9180    0.0669   -4.1148 H   0  0  0  0  0  0  0  0  0  0  0  0
   -3.4872   -3.4356   -4.3090 H   0  0  0  0  0  0  0  0  0  0  0  0
   -1.1982    0.9727   -2.1640 H   0  0  0  0  0  0  0  0  0  0  0  0
   -0.6969    0.1733   -3.6562 H   0  0  0  0  0  0  0  0  0  0  0  0
    0.0487   -2.1783   -3.6675 H   0  0  0  0  0  0  0  0  0  0  0  0
    1.3161   -3.8496   -2.4044 H   0  0  0  0  0  0  0  0  0  0  0  0
    0.1763   -1.9331    1.2866 H   0  0  0  0  0  0  0  0  0  0  0  0
   -1.0743   -0.2374    0.0173 H   0  0  0  0  0  0  0  0  0  0  0  0
    2.0107   -4.7799   -0.2464 H   0  0  0  0  0  0  0  0  0  0  0  0
    2.1618   -2.9067    2.0686 H   0  0  0  0  0  0  0  0  0  0  0  0
    3.2091   -4.2898    1.7090 H   0  0  0  0  0  0  0  0  0  0  0  0
  1  2  1  0
  2  3  1  0
  3  4  1  0
  4  5  2  0
  5  6  1  0
  6  7  1  0
  7  8  1  0
  8  9  2  0
  9 10  1  0
 10 11  1  0
 10 12  2  0
 12 13  1  0
 13 14  1  0
 13 15  2  0
  6 16  2  0
 16 17  1  0
 17 18  2  0
 18 19  1  0
 19 20  1  0
 20 21  1  0
 21 22  2  0
 21 23  1  0
 23 24  1  0
 24 25  1  0
 25 26  1  0
 26 27  1  0
 27 28  1  0
 28 29  1  0
 27 30  1  0
 30 31  1  0
 31 32  2  0
 31 33  1  0
 33 34  1  0
 34 35  1  0
 35 36  2  0
 36 37  1  0
 37 38  2  0
 38 39  1  0
 39 40  2  0
 34 41  1  0
 41 42  2  0
 41 43  1  0
 43 44  1  0
 44 45  1  0
 45 46  1  0
 46 47  2  0
 47 48  1  0
 48 49  2  0
 49 50  1  0
 50 51  2  0
 44 52  1  0
 52 53  2  0
 52 54  1  0
 54 55  1  0
 55 56  1  0
 56 57  2  0
 56 58  1  0
 55 59  1  0
 59 60  1  0
 60 61  2  0
 61 62  1  0
 62 63  2  0
 63 64  1  0
 64 65  2  0
 63 66  1  0
 66 67  1  0
 18  4  1  0
 29 24  1  0
 40 35  1  0
 51 46  1  0
 65 60  1  0
 15  8  1  0
 67 17  1  0
  1 68  1  0
  1 69  1  0
  1 70  1  0
  2 71  1  0
  2 72  1  0
  5 73  1  0
  9 74  1  0
 11 75  1  0
 11 76  1  0
 11 77  1  0
 12 78  1  0
 14 79  1  0
 14 80  1  0
 14 81  1  0
 15 82  1  0
 16 83  1  0
 20 84  1  0
 20 85  1  0
 23 86  1  0
 24 87  1  6
 25 88  1  0
 25 89  1  0
 26 90  1  0
 26 91  1  0
 27 92  1  6
 28 93  1  0
 28 94  1  0
 29 95  1  0
 29 96  1  0
 30 97  1  0
 30 98  1  0
 33 99  1  0
 34100  1  1
 36101  1  0
 37102  1  0
 38103  1  0
 39104  1  0
 40105  1  0
 43106  1  0
 44107  1  1
 45108  1  0
 45109  1  0
 47110  1  0
 48111  1  0
 49112  1  0
 50113  1  0
 51114  1  0
 54115  1  0
 55116  1  6
 58117  1  0
 59118  1  0
 59119  1  0
 61120  1  0
 62121  1  0
 64122  1  0
 65123  1  0
 66124  1  0
 67125  1  0
 67126  1  0
M  END
$$$$
