
     RDKit          3D

 80 83  0  0  0  0  0  0  0  0999 V2000
   -3.8149   -2.5690    1.9345 C   0  0  0  0  0  0  0  0  0  0  0  0
   -3.0267   -1.3038    1.8517 C   0  0  0  0  0  0  0  0  0  0  0  0
   -1.7303   -1.3000    1.3155 C   0  0  0  0  0  0  0  0  0  0  0  0
   -1.0033   -0.1043    1.2909 C   0  0  0  0  0  0  0  0  0  0  0  0
   -1.5555    1.0515    1.8641 C   0  0  0  0  0  0  0  0  0  0  0  0
   -2.8512    1.0135    2.3841 C   0  0  0  0  0  0  0  0  0  0  0  0
   -3.5499   -0.1547    2.3653 N   0  0  0  0  0  0  0  0  0  0  0  0
   -3.4072    2.1682    2.9382 O   0  0  0  0  0  0  0  0  0  0  0  0
   -4.5739    2.7851    2.4005 C   0  0  0  0  0  0  0  0  0  0  0  0
   -5.8631    2.0341    2.7892 C   0  0  0  0  0  0  0  0  0  0  0  0
   -6.8765    1.9637    1.6326 C   0  0  0  0  0  0  0  0  0  0  0  0
   -6.5743    0.8189    0.6552 C   0  0  0  0  0  0  0  0  0  0  0  0
   -5.3635    1.0859   -0.0488 O   0  0  0  0  0  0  0  0  0  0  0  0
   -4.6116    0.1282   -0.7435 C   0  0  0  0  0  0  0  0  0  0  0  0
   -5.0847   -1.1763   -0.9785 C   0  0  0  0  0  0  0  0  0  0  0  0
   -4.2664   -2.1166   -1.6075 C   0  0  0  0  0  0  0  0  0  0  0  0
   -2.9839   -1.7627   -2.0300 C   0  0  0  0  0  0  0  0  0  0  0  0
   -2.5064   -0.4555   -1.8312 C   0  0  0  0  0  0  0  0  0  0  0  0
   -3.3313    0.4850   -1.1921 C   0  0  0  0  0  0  0  0  0  0  0  0
   -1.1651   -0.0567   -2.3928 C   0  0  0  0  0  0  0  0  0  0  0  0
    0.0266   -0.7543   -1.6813 C   0  0  1  0  0  0  0  0  0  0  0  0
    1.1057   -1.2559   -2.6940 C   0  0  2  0  0  0  0  0  0  0  0  0
    2.1522   -1.8723   -1.9844 O   0  0  0  0  0  0  0  0  0  0  0  0
    1.6759   -0.1955   -3.6769 C   0  0  0  0  0  0  0  0  0  0  0  0
    2.5241    0.8031   -3.0063 N   0  0  0  0  0  0  0  0  0  0  0  0
    3.9421    0.3970   -2.8885 C   0  0  0  0  0  0  0  0  0  0  0  0
    4.8209    1.0947   -3.9356 C   0  0  0  0  0  0  0  0  0  0  0  0
    4.4282    0.7021   -1.4865 C   0  0  0  0  0  0  0  0  0  0  0  0
    4.2523    1.9800   -0.9310 C   0  0  0  0  0  0  0  0  0  0  0  0
    4.6178    2.2301    0.3919 C   0  0  0  0  0  0  0  0  0  0  0  0
    5.1713    1.2143    1.1717 C   0  0  0  0  0  0  0  0  0  0  0  0
    5.3859   -0.0639    0.6293 C   0  0  0  0  0  0  0  0  0  0  0  0
    5.9618   -1.1869    1.4697 C   0  0  0  0  0  0  0  0  0  0  0  0
    4.9687   -1.6125    2.5565 C   0  0  0  0  0  0  0  0  0  0  0  0
    7.3175   -0.7979    2.0747 C   0  0  0  0  0  0  0  0  0  0  0  0
    5.0071   -0.3113   -0.7014 C   0  0  0  0  0  0  0  0  0  0  0  0
    0.6121    0.1162   -0.6501 N   0  0  0  0  0  0  0  0  0  0  0  0
    0.3606   -0.0542    0.7507 C   0  0  0  0  0  0  0  0  0  0  0  0
    1.3350   -0.0761    1.5555 O   0  0  0  0  0  0  0  0  0  0  0  0
   -4.9021   -2.3421    1.9091 H   0  0  0  0  0  0  0  0  0  0  0  0
   -3.5774   -3.0860    2.8875 H   0  0  0  0  0  0  0  0  0  0  0  0
   -3.5774   -3.2424    1.0833 H   0  0  0  0  0  0  0  0  0  0  0  0
   -1.2955   -2.2144    0.9272 H   0  0  0  0  0  0  0  0  0  0  0  0
   -0.9926    1.9787    1.8869 H   0  0  0  0  0  0  0  0  0  0  0  0
   -4.4523    2.8942    1.3020 H   0  0  0  0  0  0  0  0  0  0  0  0
   -4.6362    3.8176    2.8016 H   0  0  0  0  0  0  0  0  0  0  0  0
   -6.3392    2.5692    3.6417 H   0  0  0  0  0  0  0  0  0  0  0  0
   -5.6464    1.0135    3.1672 H   0  0  0  0  0  0  0  0  0  0  0  0
   -7.8905    1.7976    2.0634 H   0  0  0  0  0  0  0  0  0  0  0  0
   -6.9053    2.9333    1.0871 H   0  0  0  0  0  0  0  0  0  0  0  0
   -7.4076    0.7274   -0.0726 H   0  0  0  0  0  0  0  0  0  0  0  0
   -6.4909   -0.1335    1.2231 H   0  0  0  0  0  0  0  0  0  0  0  0
   -6.0759   -1.4731   -0.6658 H   0  0  0  0  0  0  0  0  0  0  0  0
   -4.6266   -3.1249   -1.7668 H   0  0  0  0  0  0  0  0  0  0  0  0
   -2.3613   -2.5016   -2.5205 H   0  0  0  0  0  0  0  0  0  0  0  0
   -2.9769    1.4958   -1.0253 H   0  0  0  0  0  0  0  0  0  0  0  0
   -1.2004   -0.3470   -3.4649 H   0  0  0  0  0  0  0  0  0  0  0  0
   -1.0369    1.0451   -2.3690 H   0  0  0  0  0  0  0  0  0  0  0  0
   -0.3405   -1.6796   -1.1837 H   0  0  0  0  0  0  0  0  0  0  0  0
    0.5878   -2.0184   -3.3373 H   0  0  0  0  0  0  0  0  0  0  0  0
    2.2800   -2.7801   -2.3731 H   0  0  0  0  0  0  0  0  0  0  0  0
    0.8365    0.3301   -4.1854 H   0  0  0  0  0  0  0  0  0  0  0  0
    2.2390   -0.7017   -4.4932 H   0  0  0  0  0  0  0  0  0  0  0  0
    2.4434    1.7136   -3.5202 H   0  0  0  0  0  0  0  0  0  0  0  0
    4.0601   -0.6941   -3.0714 H   0  0  0  0  0  0  0  0  0  0  0  0
    4.8293    2.1919   -3.7953 H   0  0  0  0  0  0  0  0  0  0  0  0
    4.4430    0.8704   -4.9562 H   0  0  0  0  0  0  0  0  0  0  0  0
    5.8602    0.7180   -3.8608 H   0  0  0  0  0  0  0  0  0  0  0  0
    3.8005    2.7748   -1.5113 H   0  0  0  0  0  0  0  0  0  0  0  0
    4.4570    3.2092    0.8191 H   0  0  0  0  0  0  0  0  0  0  0  0
    5.4190    1.4278    2.2041 H   0  0  0  0  0  0  0  0  0  0  0  0
    6.1464   -2.0739    0.8221 H   0  0  0  0  0  0  0  0  0  0  0  0
    5.3793   -2.4784    3.1189 H   0  0  0  0  0  0  0  0  0  0  0  0
    4.0002   -1.9209    2.0957 H   0  0  0  0  0  0  0  0  0  0  0  0
    4.7752   -0.7779    3.2670 H   0  0  0  0  0  0  0  0  0  0  0  0
    7.2160    0.0288    2.8113 H   0  0  0  0  0  0  0  0  0  0  0  0
    8.0173   -0.4745    1.2694 H   0  0  0  0  0  0  0  0  0  0  0  0
    7.7687   -1.6748    2.5864 H   0  0  0  0  0  0  0  0  0  0  0  0
    5.1437   -1.3026   -1.1204 H   0  0  0  0  0  0  0  0  0  0  0  0
    1.5036    0.6135   -0.8605 H   0  0  0  0  0  0  0  0  0  0  0  0
  1  2  1  0
  2  3  2  0
  3  4  1  0
  4  5  2  0
  5  6  1  0
  6  7  2  0
  6  8  1  0
  8  9  1  0
  9 10  1  0
 10 11  1  0
 11 12  1  0
 12 13  1  0
 13 14  1  0
 14 15  2  0
 15 16  1  0
 16 17  2  0
 17 18  1  0
 18 19  2  0
 18 20  1  0
 20 21  1  0
 21 22  1  0
 22 23  1  0
 22 24  1  0
 24 25  1  0
 25 26  1  0
 26 27  1  0
 26 28  1  0
 28 29  2  0
 29 30  1  0
 30 31  2  0
 31 32  1  0
 32 33  1  0
 33 34  1  0
 33 35  1  0
 32 36  2  0
 21 37  1  0
 37 38  1  0
 38 39  2  0
  7  2  1  0
 19 14  1  0
 36 28  1  0
 38  4  1  0
  1 40  1  0
  1 41  1  0
  1 42  1  0
  3 43  1  0
  5 44  1  0
  9 45  1  0
  9 46  1  0
 10 47  1  0
 10 48  1  0
 11 49  1  0
 11 50  1  0
 12 51  1  0
 12 52  1  0
 15 53  1  0
 16 54  1  0
 17 55  1  0
 19 56  1  0
 20 57  1  0
 20 58  1  0
 21 59  1  1
 22 60  1  6
 23 61  1  0
 24 62  1  0
 24 63  1  0
 25 64  1  0
 26 65  1  0
 27 66  1  0
 27 67  1  0
 27 68  1  0
 29 69  1  0
 30 70  1  0
 31 71  1  0
 33 72  1  0
 34 73  1  0
 34 74  1  0
 34 75  1  0
 35 76  1  0
 35 77  1  0
 35 78  1  0
 36 79  1  0
 37 80  1  0
M  END
$$$$
