
     RDKit          3D

118126  0  0  0  0  0  0  0  0999 V2000
   -4.1584   -3.3858    2.7965 C   0  0  0  0  0  0  0  0  0  0  0  0
   -3.8628   -3.7925    1.3575 C   0  0  0  0  0  0  0  0  0  0  0  0
   -2.8257   -2.9293    0.7839 N   0  0  0  0  0  0  0  0  0  0  0  0
   -3.0152   -1.8337    0.0010 C   0  0  0  0  0  0  0  0  0  0  0  0
   -4.3362   -1.3852   -0.4833 C   0  0  0  0  0  0  0  0  0  0  0  0
   -5.1484   -0.6249    0.3664 C   0  0  0  0  0  0  0  0  0  0  0  0
   -6.4128   -0.1917   -0.0521 C   0  0  0  0  0  0  0  0  0  0  0  0
   -7.2227    0.6510    0.7935 N   0  0  0  0  0  0  0  0  0  0  0  0
   -7.3719    0.3809    2.2284 C   0  0  0  0  0  0  0  0  0  0  0  0
   -7.1204    1.6635    3.0500 C   0  0  0  0  0  0  0  0  0  0  0  0
   -7.2652    2.8987    2.2414 N   0  0  0  0  0  0  0  0  0  0  0  0
   -7.4618    4.0634    3.1183 C   0  0  0  0  0  0  0  0  0  0  0  0
   -8.3741    2.7844    1.2788 C   0  0  0  0  0  0  0  0  0  0  0  0
   -8.0039    1.7506    0.2084 C   0  0  0  0  0  0  0  0  0  0  0  0
   -6.8532   -0.5638   -1.3295 C   0  0  0  0  0  0  0  0  0  0  0  0
   -6.0657   -1.3234   -2.1330 N   0  0  0  0  0  0  0  0  0  0  0  0
   -4.8174   -1.7307   -1.7665 C   0  0  0  0  0  0  0  0  0  0  0  0
   -4.0308   -2.6397   -2.6912 C   0  0  2  0  0  0  0  0  0  0  0  0
   -4.4489   -2.4539   -4.1560 C   0  0  0  0  0  0  0  0  0  0  0  0
   -4.2674   -3.9798   -2.2940 O   0  0  0  0  0  0  0  0  0  0  0  0
   -3.0959   -4.7554   -2.4361 C   0  0  0  0  0  0  0  0  0  0  0  0
   -1.7877   -1.2610   -0.3449 C   0  0  0  0  0  0  0  0  0  0  0  0
   -0.8310   -2.0614    0.2554 C   0  0  0  0  0  0  0  0  0  0  0  0
    0.5608   -1.9756    0.2470 C   0  0  0  0  0  0  0  0  0  0  0  0
    1.2966   -2.8968    1.0180 C   0  0  0  0  0  0  0  0  0  0  0  0
    0.6159   -3.9319    1.7080 C   0  0  0  0  0  0  0  0  0  0  0  0
   -0.7890   -4.0203    1.6654 C   0  0  0  0  0  0  0  0  0  0  0  0
   -1.4891   -3.0501    0.9403 C   0  0  0  0  0  0  0  0  0  0  0  0
    2.7475   -2.6853    1.1944 C   0  0  0  0  0  0  0  0  0  0  0  0
    3.6748   -3.7120    1.3758 C   0  0  0  0  0  0  0  0  0  0  0  0
    5.1783   -3.0025    1.6462 S   0  0  0  0  0  0  0  0  0  0  0  0
    4.5891   -1.4342    1.5263 C   0  0  0  0  0  0  0  0  0  0  0  0
    3.2637   -1.4279    1.2788 N   0  0  0  0  0  0  0  0  0  0  0  0
    5.3755   -0.1849    1.7872 C   0  0  0  0  0  0  0  0  0  0  0  0
    5.7705    0.5446    0.4784 C   0  0  2  0  0  0  0  0  0  0  0  0
    7.1324    0.1950    0.0374 N   0  0  0  0  0  0  0  0  0  0  0  0
    8.3398    0.4223    0.8001 C   0  0  0  0  0  0  0  0  0  0  0  0
    8.2673    0.8396    1.9867 O   0  0  0  0  0  0  0  0  0  0  0  0
    9.7213    0.1995    0.2330 C   0  0  1  0  0  0  0  0  0  0  0  0
    9.8803   -0.8555   -0.8558 C   0  0  2  0  0  0  0  0  0  0  0  0
   11.2944   -1.3336   -1.1134 C   0  0  0  0  0  0  0  0  0  0  0  0
   12.1425   -0.2280   -1.3207 O   0  0  0  0  0  0  0  0  0  0  0  0
   11.3241    0.8636   -1.6717 C   0  0  0  0  0  0  0  0  0  0  0  0
    9.9004    0.5999   -1.2270 C   0  0  2  0  0  0  0  0  0  0  0  0
    5.5978    2.0499    0.6053 C   0  0  0  0  0  0  0  0  0  0  0  0
    6.5318    2.7438    1.0965 O   0  0  0  0  0  0  0  0  0  0  0  0
    4.3595    2.6845    0.2191 N   0  0  0  0  0  0  0  0  0  0  0  0
    4.1745    4.1367    0.3693 C   0  0  0  0  0  0  0  0  0  0  0  0
    3.6674    4.7509   -0.9444 C   0  0  0  0  0  0  0  0  0  0  0  0
    2.9992    3.7115   -1.8563 C   0  0  0  0  0  0  0  0  0  0  0  0
    2.3025    2.6201   -1.0274 C   0  0  2  0  0  0  0  0  0  0  0  0
    3.2756    1.8755   -0.2005 N   0  0  0  0  0  0  0  0  0  0  0  0
    1.6112    1.6588   -1.9633 C   0  0  0  0  0  0  0  0  0  0  0  0
    2.2817    0.7290   -2.4793 O   0  0  0  0  0  0  0  0  0  0  0  0
    0.2784    1.8129   -2.3699 O   0  0  0  0  0  0  0  0  0  0  0  0
   -0.7963    2.3371   -1.5811 C   0  0  0  0  0  0  0  0  0  0  0  0
   -1.3474    1.3001   -0.5527 C   0  0  0  0  0  0  0  0  0  0  0  0
   -0.3998    1.2191    0.6623 C   0  0  0  0  0  0  0  0  0  0  0  0
   -2.7132    1.8045   -0.0425 C   0  0  0  0  0  0  0  0  0  0  0  0
   -1.5280   -0.0866   -1.2594 C   0  0  0  0  0  0  0  0  0  0  0  0
   -4.5140   -2.3316    2.8322 H   0  0  0  0  0  0  0  0  0  0  0  0
   -3.2432   -3.4788    3.4210 H   0  0  0  0  0  0  0  0  0  0  0  0
   -4.9499   -4.0448    3.2179 H   0  0  0  0  0  0  0  0  0  0  0  0
   -4.7978   -3.7272    0.7617 H   0  0  0  0  0  0  0  0  0  0  0  0
   -3.5332   -4.8519    1.3305 H   0  0  0  0  0  0  0  0  0  0  0  0
   -4.7797   -0.3479    1.3444 H   0  0  0  0  0  0  0  0  0  0  0  0
   -8.4122    0.0311    2.4091 H   0  0  0  0  0  0  0  0  0  0  0  0
   -6.7006   -0.4337    2.5724 H   0  0  0  0  0  0  0  0  0  0  0  0
   -6.0829    1.6282    3.4506 H   0  0  0  0  0  0  0  0  0  0  0  0
   -7.8182    1.6645    3.9177 H   0  0  0  0  0  0  0  0  0  0  0  0
   -8.4156    3.9836    3.6868 H   0  0  0  0  0  0  0  0  0  0  0  0
   -7.4802    4.9966    2.5127 H   0  0  0  0  0  0  0  0  0  0  0  0
   -6.6141    4.1515    3.8337 H   0  0  0  0  0  0  0  0  0  0  0  0
   -8.5612    3.7592    0.7771 H   0  0  0  0  0  0  0  0  0  0  0  0
   -9.3122    2.4774    1.7978 H   0  0  0  0  0  0  0  0  0  0  0  0
   -8.9281    1.3524   -0.2639 H   0  0  0  0  0  0  0  0  0  0  0  0
   -7.3938    2.2569   -0.5719 H   0  0  0  0  0  0  0  0  0  0  0  0
   -7.8297   -0.2650   -1.6859 H   0  0  0  0  0  0  0  0  0  0  0  0
   -2.9576   -2.3467   -2.6274 H   0  0  0  0  0  0  0  0  0  0  0  0
   -5.4888   -2.8114   -4.3151 H   0  0  0  0  0  0  0  0  0  0  0  0
   -3.7744   -3.0318   -4.8199 H   0  0  0  0  0  0  0  0  0  0  0  0
   -4.3818   -1.3835   -4.4448 H   0  0  0  0  0  0  0  0  0  0  0  0
   -2.7400   -4.7610   -3.4914 H   0  0  0  0  0  0  0  0  0  0  0  0
   -3.3285   -5.8033   -2.1540 H   0  0  0  0  0  0  0  0  0  0  0  0
   -2.2933   -4.3947   -1.7556 H   0  0  0  0  0  0  0  0  0  0  0  0
    1.0677   -1.2154   -0.3294 H   0  0  0  0  0  0  0  0  0  0  0  0
    1.1665   -4.6406    2.3118 H   0  0  0  0  0  0  0  0  0  0  0  0
   -1.3029   -4.8050    2.2061 H   0  0  0  0  0  0  0  0  0  0  0  0
    3.4675   -4.7741    1.3545 H   0  0  0  0  0  0  0  0  0  0  0  0
    4.7464    0.4781    2.4228 H   0  0  0  0  0  0  0  0  0  0  0  0
    6.2597   -0.4503    2.3990 H   0  0  0  0  0  0  0  0  0  0  0  0
    5.0831    0.2086   -0.3292 H   0  0  0  0  0  0  0  0  0  0  0  0
    7.2064   -0.1920   -0.9287 H   0  0  0  0  0  0  0  0  0  0  0  0
   10.6023    0.3731    0.8923 H   0  0  0  0  0  0  0  0  0  0  0  0
    9.0123   -1.4171   -1.2568 H   0  0  0  0  0  0  0  0  0  0  0  0
   11.6563   -1.9223   -0.2445 H   0  0  0  0  0  0  0  0  0  0  0  0
   11.3096   -1.9792   -2.0166 H   0  0  0  0  0  0  0  0  0  0  0  0
   11.7060    1.7856   -1.1861 H   0  0  0  0  0  0  0  0  0  0  0  0
   11.3508    1.0008   -2.7743 H   0  0  0  0  0  0  0  0  0  0  0  0
    9.0357    0.9217   -1.8435 H   0  0  0  0  0  0  0  0  0  0  0  0
    5.1129    4.6508    0.6703 H   0  0  0  0  0  0  0  0  0  0  0  0
    3.4279    4.3169    1.1734 H   0  0  0  0  0  0  0  0  0  0  0  0
    4.5153    5.2192   -1.4944 H   0  0  0  0  0  0  0  0  0  0  0  0
    2.9394    5.5579   -0.7063 H   0  0  0  0  0  0  0  0  0  0  0  0
    2.2662    4.2221   -2.5190 H   0  0  0  0  0  0  0  0  0  0  0  0
    3.7754    3.2409   -2.5018 H   0  0  0  0  0  0  0  0  0  0  0  0
    1.5643    3.1090   -0.3594 H   0  0  0  0  0  0  0  0  0  0  0  0
    2.7979    1.5193    0.6608 H   0  0  0  0  0  0  0  0  0  0  0  0
   -1.6111    2.5962   -2.2919 H   0  0  0  0  0  0  0  0  0  0  0  0
   -0.5095    3.2915   -1.0914 H   0  0  0  0  0  0  0  0  0  0  0  0
   -0.8139    0.5578    1.4517 H   0  0  0  0  0  0  0  0  0  0  0  0
    0.5902    0.8308    0.3756 H   0  0  0  0  0  0  0  0  0  0  0  0
   -0.2553    2.2243    1.1136 H   0  0  0  0  0  0  0  0  0  0  0  0
   -2.6285    2.8419    0.3467 H   0  0  0  0  0  0  0  0  0  0  0  0
   -3.0770    1.1669    0.7874 H   0  0  0  0  0  0  0  0  0  0  0  0
   -3.4719    1.7987   -0.8563 H   0  0  0  0  0  0  0  0  0  0  0  0
   -0.6232   -0.3439   -1.8467 H   0  0  0  0  0  0  0  0  0  0  0  0
   -2.3498   -0.0143   -2.0047 H   0  0  0  0  0  0  0  0  0  0  0  0
  1  2  1  0
  2  3  1  0
  3  4  1  0
  4  5  1  0
  5  6  2  0
  6  7  1  0
  7  8  1  0
  8  9  1  0
  9 10  1  0
 10 11  1  0
 11 12  1  0
 11 13  1  0
 13 14  1  0
  7 15  2  0
 15 16  1  0
 16 17  2  0
 17 18  1  0
 18 19  1  0
 18 20  1  0
 20 21  1  0
  4 22  2  0
 22 23  1  0
 23 24  2  0
 24 25  1  0
 25 26  2  0
 26 27  1  0
 27 28  2  0
 25 29  1  0
 29 30  2  0
 30 31  1  0
 31 32  1  0
 32 33  2  0
 32 34  1  0
 34 35  1  0
 35 36  1  0
 36 37  1  0
 37 38  2  0
 37 39  1  0
 39 40  1  0
 40 41  1  0
 41 42  1  0
 42 43  1  0
 43 44  1  0
 35 45  1  0
 45 46  2  0
 45 47  1  0
 47 48  1  0
 48 49  1  0
 49 50  1  0
 50 51  1  0
 51 52  1  0
 51 53  1  0
 53 54  2  0
 53 55  1  0
 55 56  1  0
 56 57  1  0
 57 58  1  0
 57 59  1  0
 57 60  1  0
 28  3  1  0
 33 29  1  0
 44 39  1  0
 52 47  1  0
 17  5  1  0
 60 22  1  0
 14  8  1  0
 28 23  1  0
 44 40  1  0
  1 61  1  0
  1 62  1  0
  1 63  1  0
  2 64  1  0
  2 65  1  0
  6 66  1  0
  9 67  1  0
  9 68  1  0
 10 69  1  0
 10 70  1  0
 12 71  1  0
 12 72  1  0
 12 73  1  0
 13 74  1  0
 13 75  1  0
 14 76  1  0
 14 77  1  0
 15 78  1  0
 18 79  1  6
 19 80  1  0
 19 81  1  0
 19 82  1  0
 21 83  1  0
 21 84  1  0
 21 85  1  0
 24 86  1  0
 26 87  1  0
 27 88  1  0
 30 89  1  0
 34 90  1  0
 34 91  1  0
 35 92  1  6
 36 93  1  0
 39 94  1  1
 40 95  1  6
 41 96  1  0
 41 97  1  0
 43 98  1  0
 43 99  1  0
 44100  1  6
 48101  1  0
 48102  1  0
 49103  1  0
 49104  1  0
 50105  1  0
 50106  1  0
 51107  1  1
 52108  1  0
 56109  1  0
 56110  1  0
 58111  1  0
 58112  1  0
 58113  1  0
 59114  1  0
 59115  1  0
 59116  1  0
 60117  1  0
 60118  1  0
M  END
$$$$
