
     RDKit          3D

 86 90  0  0  0  0  0  0  0  0999 V2000
   -5.8346   -1.5784   -2.8954 C   0  0  0  0  0  0  0  0  0  0  0  0
   -4.5853   -0.6898   -2.7384 C   0  0  0  0  0  0  0  0  0  0  0  0
   -4.9392    0.6139   -1.9966 C   0  0  0  0  0  0  0  0  0  0  0  0
   -4.0511   -0.3353   -4.1350 C   0  0  0  0  0  0  0  0  0  0  0  0
   -3.5423   -1.3996   -2.0517 O   0  0  0  0  0  0  0  0  0  0  0  0
   -3.6059   -1.9060   -0.7445 C   0  0  0  0  0  0  0  0  0  0  0  0
   -4.6464   -1.7662   -0.0457 O   0  0  0  0  0  0  0  0  0  0  0  0
   -2.4638   -2.5815   -0.2032 N   0  0  0  0  0  0  0  0  0  0  0  0
   -2.3564   -2.9077    1.2229 C   0  0  1  0  0  0  0  0  0  0  0  0
   -1.4770   -4.1660    1.4480 C   0  0  0  0  0  0  0  0  0  0  0  0
    0.0004   -3.8711    1.5058 C   0  0  0  0  0  0  0  0  0  0  0  0
    0.7560   -3.7424    0.3294 C   0  0  0  0  0  0  0  0  0  0  0  0
    2.0547   -3.2282    0.3842 C   0  0  0  0  0  0  0  0  0  0  0  0
    2.6026   -2.8391    1.6128 C   0  0  0  0  0  0  0  0  0  0  0  0
    1.9120   -3.1229    2.7970 C   0  0  0  0  0  0  0  0  0  0  0  0
    0.6080   -3.6116    2.7434 C   0  0  0  0  0  0  0  0  0  0  0  0
    3.7586   -2.0577    1.6395 O   0  0  0  0  0  0  0  0  0  0  0  0
    3.6188   -0.6732    1.7809 C   0  0  0  0  0  0  0  0  0  0  0  0
    3.1779   -0.1366    2.9989 C   0  0  0  0  0  0  0  0  0  0  0  0
    2.7513    1.1862    3.0687 C   0  0  0  0  0  0  0  0  0  0  0  0
    2.7499    1.9826    1.9198 C   0  0  0  0  0  0  0  0  0  0  0  0
    3.3427    1.5013    0.7437 C   0  0  0  0  0  0  0  0  0  0  0  0
    3.8151    0.1773    0.6757 C   0  0  0  0  0  0  0  0  0  0  0  0
    4.3888   -0.3370   -0.5399 N   0  0  0  0  0  0  0  0  0  0  0  0
    5.3293    0.4021   -1.3428 C   0  0  0  0  0  0  0  0  0  0  0  0
    5.7275    1.5386   -0.9642 O   0  0  0  0  0  0  0  0  0  0  0  0
    5.8734   -0.1835   -2.5883 C   0  0  0  0  0  0  0  0  0  0  0  0
    6.8977    0.4620   -3.3047 C   0  0  0  0  0  0  0  0  0  0  0  0
    7.3997   -0.1276   -4.4673 C   0  0  0  0  0  0  0  0  0  0  0  0
    6.8803   -1.3445   -4.9098 C   0  0  0  0  0  0  0  0  0  0  0  0
    5.8589   -1.9567   -4.1803 C   0  0  0  0  0  0  0  0  0  0  0  0
    5.3858   -1.3710   -3.0477 N   0  0  0  0  0  0  0  0  0  0  0  0
    2.0777    3.2908    1.9273 C   0  0  0  0  0  0  0  0  0  0  0  0
    2.7584    4.3322    1.7300 O   0  0  0  0  0  0  0  0  0  0  0  0
    0.5770    3.3952    2.0138 C   0  0  0  0  0  0  0  0  0  0  0  0
    0.0268    2.5260    3.0604 N   0  0  0  0  0  0  0  0  0  0  0  0
   -0.4957    1.1934    2.8735 C   0  0  0  0  0  0  0  0  0  0  0  0
   -0.5595    0.4358    3.8775 O   0  0  0  0  0  0  0  0  0  0  0  0
   -1.0500    0.7046    1.5478 C   0  0  2  0  0  0  0  0  0  0  0  0
   -2.5076    1.1672    1.3326 C   0  0  0  0  0  0  0  0  0  0  0  0
   -2.6094    2.6407    1.0372 C   0  0  0  0  0  0  0  0  0  0  0  0
   -2.3361    3.1217   -0.2554 C   0  0  0  0  0  0  0  0  0  0  0  0
   -2.4189    4.4897   -0.5310 C   0  0  0  0  0  0  0  0  0  0  0  0
   -2.7666    5.3871    0.4829 C   0  0  0  0  0  0  0  0  0  0  0  0
   -3.0318    4.9182    1.7734 C   0  0  0  0  0  0  0  0  0  0  0  0
   -2.9541    3.5498    2.0523 C   0  0  0  0  0  0  0  0  0  0  0  0
   -0.9549   -0.7617    1.4299 N   0  0  0  0  0  0  0  0  0  0  0  0
   -1.9064   -1.6851    1.9978 C   0  0  0  0  0  0  0  0  0  0  0  0
   -2.3887   -1.4718    3.1430 O   0  0  0  0  0  0  0  0  0  0  0  0
   -6.5899   -1.0780   -3.5414 H   0  0  0  0  0  0  0  0  0  0  0  0
   -5.5592   -2.5505   -3.3586 H   0  0  0  0  0  0  0  0  0  0  0  0
   -6.3120   -1.7812   -1.9157 H   0  0  0  0  0  0  0  0  0  0  0  0
   -4.0280    1.2278   -1.8463 H   0  0  0  0  0  0  0  0  0  0  0  0
   -5.3905    0.4096   -1.0043 H   0  0  0  0  0  0  0  0  0  0  0  0
   -5.6705    1.2110   -2.5840 H   0  0  0  0  0  0  0  0  0  0  0  0
   -3.7906   -1.2605   -4.6934 H   0  0  0  0  0  0  0  0  0  0  0  0
   -3.1314    0.2834   -4.0484 H   0  0  0  0  0  0  0  0  0  0  0  0
   -4.8071    0.2316   -4.7217 H   0  0  0  0  0  0  0  0  0  0  0  0
   -1.6199   -2.6595   -0.8142 H   0  0  0  0  0  0  0  0  0  0  0  0
   -3.3705   -3.1829    1.5905 H   0  0  0  0  0  0  0  0  0  0  0  0
   -1.6789   -4.9079    0.6433 H   0  0  0  0  0  0  0  0  0  0  0  0
   -1.7891   -4.6536    2.3993 H   0  0  0  0  0  0  0  0  0  0  0  0
    0.3195   -3.9758   -0.6332 H   0  0  0  0  0  0  0  0  0  0  0  0
    2.5940   -3.0499   -0.5360 H   0  0  0  0  0  0  0  0  0  0  0  0
    2.3464   -2.8870    3.7578 H   0  0  0  0  0  0  0  0  0  0  0  0
    0.0513   -3.7282    3.6649 H   0  0  0  0  0  0  0  0  0  0  0  0
    3.1085   -0.7552    3.8817 H   0  0  0  0  0  0  0  0  0  0  0  0
    2.3670    1.5691    4.0060 H   0  0  0  0  0  0  0  0  0  0  0  0
    3.3671    2.1316   -0.1373 H   0  0  0  0  0  0  0  0  0  0  0  0
    4.2465   -1.3474   -0.7600 H   0  0  0  0  0  0  0  0  0  0  0  0
    7.3098    1.4047   -2.9663 H   0  0  0  0  0  0  0  0  0  0  0  0
    8.1915    0.3586   -5.0247 H   0  0  0  0  0  0  0  0  0  0  0  0
    7.2641   -1.8074   -5.8093 H   0  0  0  0  0  0  0  0  0  0  0  0
    5.4470   -2.9019   -4.5111 H   0  0  0  0  0  0  0  0  0  0  0  0
    0.1435    3.1781    1.0230 H   0  0  0  0  0  0  0  0  0  0  0  0
    0.2995    4.4452    2.2499 H   0  0  0  0  0  0  0  0  0  0  0  0
    0.1713    2.8431    4.0464 H   0  0  0  0  0  0  0  0  0  0  0  0
   -0.4264    1.1199    0.7307 H   0  0  0  0  0  0  0  0  0  0  0  0
   -2.9402    0.6091    0.4749 H   0  0  0  0  0  0  0  0  0  0  0  0
   -3.1277    0.9127    2.2200 H   0  0  0  0  0  0  0  0  0  0  0  0
   -2.0481    2.4387   -1.0442 H   0  0  0  0  0  0  0  0  0  0  0  0
   -2.2096    4.8550   -1.5293 H   0  0  0  0  0  0  0  0  0  0  0  0
   -2.8272    6.4463    0.2698 H   0  0  0  0  0  0  0  0  0  0  0  0
   -3.2970    5.6161    2.5572 H   0  0  0  0  0  0  0  0  0  0  0  0
   -3.1567    3.1989    3.0577 H   0  0  0  0  0  0  0  0  0  0  0  0
   -0.3043   -1.1282    0.6982 H   0  0  0  0  0  0  0  0  0  0  0  0
  1  2  1  0
  2  3  1  0
  2  4  1  0
  2  5  1  0
  5  6  1  0
  6  7  2  0
  6  8  1  0
  8  9  1  0
  9 10  1  0
 10 11  1  0
 11 12  2  0
 12 13  1  0
 13 14  2  0
 14 15  1  0
 15 16  2  0
 14 17  1  0
 17 18  1  0
 18 19  2  0
 19 20  1  0
 20 21  2  0
 21 22  1  0
 22 23  2  0
 23 24  1  0
 24 25  1  0
 25 26  2  0
 25 27  1  0
 27 28  2  0
 28 29  1  0
 29 30  2  0
 30 31  1  0
 31 32  2  0
 21 33  1  0
 33 34  2  0
 33 35  1  0
 35 36  1  0
 36 37  1  0
 37 38  2  0
 37 39  1  0
 39 40  1  0
 40 41  1  0
 41 42  2  0
 42 43  1  0
 43 44  2  0
 44 45  1  0
 45 46  2  0
 39 47  1  0
 47 48  1  0
 48 49  2  0
 48  9  1  0
 16 11  1  0
 23 18  1  0
 32 27  1  0
 46 41  1  0
  1 50  1  0
  1 51  1  0
  1 52  1  0
  3 53  1  0
  3 54  1  0
  3 55  1  0
  4 56  1  0
  4 57  1  0
  4 58  1  0
  8 59  1  0
  9 60  1  1
 10 61  1  0
 10 62  1  0
 12 63  1  0
 13 64  1  0
 15 65  1  0
 16 66  1  0
 19 67  1  0
 20 68  1  0
 22 69  1  0
 24 70  1  0
 28 71  1  0
 29 72  1  0
 30 73  1  0
 31 74  1  0
 35 75  1  0
 35 76  1  0
 36 77  1  0
 39 78  1  6
 40 79  1  0
 40 80  1  0
 42 81  1  0
 43 82  1  0
 44 83  1  0
 45 84  1  0
 46 85  1  0
 47 86  1  0
M  END
$$$$
