
     RDKit          3D

 74 78  0  0  0  0  0  0  0  0999 V2000
   -9.5261   -3.1176   -2.2397 C   0  0  0  0  0  0  0  0  0  0  0  0
   -8.2020   -3.3362   -2.7124 O   0  0  0  0  0  0  0  0  0  0  0  0
   -7.1354   -2.4976   -2.3773 C   0  0  0  0  0  0  0  0  0  0  0  0
   -7.3280   -1.4819   -1.6530 O   0  0  0  0  0  0  0  0  0  0  0  0
   -5.8321   -2.7824   -2.9038 N   0  0  0  0  0  0  0  0  0  0  0  0
   -4.6314   -2.1099   -2.4880 C   0  0  0  0  0  0  0  0  0  0  0  0
   -3.6176   -1.8707   -3.4242 C   0  0  0  0  0  0  0  0  0  0  0  0
   -2.4373   -1.2287   -3.0435 C   0  0  0  0  0  0  0  0  0  0  0  0
   -2.2424   -0.8262   -1.7130 C   0  0  0  0  0  0  0  0  0  0  0  0
   -3.2636   -1.0611   -0.7610 C   0  0  0  0  0  0  0  0  0  0  0  0
   -4.4345   -1.7255   -1.1516 C   0  0  0  0  0  0  0  0  0  0  0  0
   -3.1608   -0.5787    0.5908 N   0  0  0  0  0  0  0  0  0  0  0  0
   -3.4257    0.8359    0.8832 C   0  0  1  0  0  0  0  0  0  0  0  0
   -4.8986    1.1062    0.7535 C   0  0  0  0  0  0  0  0  0  0  0  0
   -5.7297    0.3796    1.3662 O   0  0  0  0  0  0  0  0  0  0  0  0
   -5.3349    2.1798   -0.0290 O   0  0  0  0  0  0  0  0  0  0  0  0
   -6.7120    2.4924   -0.1969 C   0  0  0  0  0  0  0  0  0  0  0  0
   -2.9563    1.2281    2.3073 C   0  0  0  0  0  0  0  0  0  0  0  0
   -1.4362    1.1268    2.5327 C   0  0  0  0  0  0  0  0  0  0  0  0
   -0.6542    2.2374    1.8016 C   0  0  0  0  0  0  0  0  0  0  0  0
    0.8775    2.0458    1.8357 C   0  0  0  0  0  0  0  0  0  0  0  0
    1.3969    0.7435    1.1780 C   0  0  2  0  0  0  0  0  0  0  0  0
    2.8385    0.8488    0.9298 N   0  0  0  0  0  0  0  0  0  0  0  0
    3.8140    0.3251    1.8492 C   0  0  0  0  0  0  0  0  0  0  0  0
    3.4404   -0.1423    2.9589 O   0  0  0  0  0  0  0  0  0  0  0  0
    5.2609    0.3323    1.5522 C   0  0  0  0  0  0  0  0  0  0  0  0
    5.7765    0.5961    0.3439 C   0  0  0  0  0  0  0  0  0  0  0  0
    7.2365    0.6204    0.1131 C   0  0  0  0  0  0  0  0  0  0  0  0
    7.7769    1.7487   -0.5246 C   0  0  0  0  0  0  0  0  0  0  0  0
    9.1574    1.8762   -0.6961 C   0  0  0  0  0  0  0  0  0  0  0  0
    9.8168    3.3042   -1.4735 Cl  0  0  0  0  0  0  0  0  0  0  0  0
   10.0126    0.8734   -0.2377 C   0  0  0  0  0  0  0  0  0  0  0  0
    9.4899   -0.2692    0.3699 C   0  0  0  0  0  0  0  0  0  0  0  0
    8.1019   -0.4227    0.5374 C   0  0  0  0  0  0  0  0  0  0  0  0
    7.5903   -1.6598    1.0673 N   0  0  0  0  0  0  0  0  0  0  0  0
    8.1475   -2.4561    1.9958 C   0  0  0  0  0  0  0  0  0  0  0  0
    7.3852   -3.5517    2.1699 N   0  0  0  0  0  0  0  0  0  0  0  0
    6.3694   -3.4086    1.3296 N   0  0  0  0  0  0  0  0  0  0  0  0
    6.4937   -2.2738    0.6589 N   0  0  0  0  0  0  0  0  0  0  0  0
    0.6648    0.4217   -0.0983 C   0  0  0  0  0  0  0  0  0  0  0  0
   -0.4064   -0.3944   -0.1034 N   0  0  0  0  0  0  0  0  0  0  0  0
   -0.9568   -0.2214   -1.3161 C   0  0  0  0  0  0  0  0  0  0  0  0
   -0.2071    0.6858   -2.0371 C   0  0  0  0  0  0  0  0  0  0  0  0
    0.8067    1.0996   -1.2575 N   0  0  0  0  0  0  0  0  0  0  0  0
   -9.5463   -3.1627   -1.1303 H   0  0  0  0  0  0  0  0  0  0  0  0
   -9.8939   -2.1277   -2.5825 H   0  0  0  0  0  0  0  0  0  0  0  0
  -10.1923   -3.9072   -2.6421 H   0  0  0  0  0  0  0  0  0  0  0  0
   -5.7737   -3.4553   -3.7011 H   0  0  0  0  0  0  0  0  0  0  0  0
   -3.7450   -2.1808   -4.4543 H   0  0  0  0  0  0  0  0  0  0  0  0
   -1.6627   -1.0719   -3.7850 H   0  0  0  0  0  0  0  0  0  0  0  0
   -5.1919   -1.9332   -0.4073 H   0  0  0  0  0  0  0  0  0  0  0  0
   -3.3631   -1.2691    1.3498 H   0  0  0  0  0  0  0  0  0  0  0  0
   -2.9042    1.4641    0.1329 H   0  0  0  0  0  0  0  0  0  0  0  0
   -7.1711    2.7275    0.7865 H   0  0  0  0  0  0  0  0  0  0  0  0
   -7.2432    1.6353   -0.6642 H   0  0  0  0  0  0  0  0  0  0  0  0
   -6.8062    3.3767   -0.8598 H   0  0  0  0  0  0  0  0  0  0  0  0
   -3.2801    2.2699    2.5299 H   0  0  0  0  0  0  0  0  0  0  0  0
   -3.4607    0.5675    3.0471 H   0  0  0  0  0  0  0  0  0  0  0  0
   -1.0956    0.1145    2.2472 H   0  0  0  0  0  0  0  0  0  0  0  0
   -1.2365    1.2276    3.6218 H   0  0  0  0  0  0  0  0  0  0  0  0
   -0.9758    2.3296    0.7461 H   0  0  0  0  0  0  0  0  0  0  0  0
   -0.8931    3.2098    2.2844 H   0  0  0  0  0  0  0  0  0  0  0  0
    1.2254    2.0801    2.8914 H   0  0  0  0  0  0  0  0  0  0  0  0
    1.3335    2.9167    1.3150 H   0  0  0  0  0  0  0  0  0  0  0  0
    1.2088   -0.0983    1.8800 H   0  0  0  0  0  0  0  0  0  0  0  0
    3.1526    1.4950    0.1736 H   0  0  0  0  0  0  0  0  0  0  0  0
    5.9320    0.0865    2.3676 H   0  0  0  0  0  0  0  0  0  0  0  0
    5.1401    0.8799   -0.4819 H   0  0  0  0  0  0  0  0  0  0  0  0
    7.1258    2.5466   -0.8629 H   0  0  0  0  0  0  0  0  0  0  0  0
   11.0834    0.9698   -0.3662 H   0  0  0  0  0  0  0  0  0  0  0  0
   10.1697   -1.0528    0.6796 H   0  0  0  0  0  0  0  0  0  0  0  0
    9.0666   -2.2533    2.5294 H   0  0  0  0  0  0  0  0  0  0  0  0
   -0.4250    1.0744   -3.0235 H   0  0  0  0  0  0  0  0  0  0  0  0
    1.4975    1.8495   -1.4807 H   0  0  0  0  0  0  0  0  0  0  0  0
  1  2  1  0
  2  3  1  0
  3  4  2  0
  3  5  1  0
  5  6  1  0
  6  7  2  0
  7  8  1  0
  8  9  2  0
  9 10  1  0
 10 11  2  0
 10 12  1  0
 12 13  1  0
 13 14  1  0
 14 15  2  0
 14 16  1  0
 16 17  1  0
 13 18  1  0
 18 19  1  0
 19 20  1  0
 20 21  1  0
 21 22  1  0
 22 23  1  0
 23 24  1  0
 24 25  2  0
 24 26  1  0
 26 27  2  0
 27 28  1  0
 28 29  2  0
 29 30  1  0
 30 31  1  0
 30 32  2  0
 32 33  1  0
 33 34  2  0
 34 35  1  0
 35 36  1  0
 36 37  2  0
 37 38  1  0
 38 39  2  0
 22 40  1  0
 40 41  2  0
 41 42  1  0
 42 43  2  0
 43 44  1  0
 11  6  1  0
 34 28  1  0
 39 35  1  0
 44 40  1  0
 42  9  1  0
  1 45  1  0
  1 46  1  0
  1 47  1  0
  5 48  1  0
  7 49  1  0
  8 50  1  0
 11 51  1  0
 12 52  1  0
 13 53  1  6
 17 54  1  0
 17 55  1  0
 17 56  1  0
 18 57  1  0
 18 58  1  0
 19 59  1  0
 19 60  1  0
 20 61  1  0
 20 62  1  0
 21 63  1  0
 21 64  1  0
 22 65  1  1
 23 66  1  0
 26 67  1  0
 27 68  1  0
 29 69  1  0
 32 70  1  0
 33 71  1  0
 36 72  1  0
 43 73  1  0
 44 74  1  0
M  END
$$$$
