
     RDKit          3D

 62 65  0  0  0  0  0  0  0  0999 V2000
    5.9368   -0.3071   -0.1331 C   0  0  0  0  0  0  0  0  0  0  0  0
    4.9026    0.4650    0.6572 C   0  0  0  0  0  0  0  0  0  0  0  0
    5.2805    1.6307    1.3654 C   0  0  0  0  0  0  0  0  0  0  0  0
    6.9222    2.2747    1.3358 Cl  0  0  0  0  0  0  0  0  0  0  0  0
    4.3386    2.3373    2.1100 C   0  0  0  0  0  0  0  0  0  0  0  0
    3.0230    1.9007    2.1894 C   0  0  0  0  0  0  0  0  0  0  0  0
    2.6096    0.7487    1.5027 C   0  0  0  0  0  0  0  0  0  0  0  0
    3.5377    0.0471    0.6794 C   0  0  0  0  0  0  0  0  0  0  0  0
    3.0245   -1.0645   -0.2505 C   0  0  1  0  0  0  0  0  0  0  0  0
    2.4805   -2.2803    0.5581 C   0  0  0  0  0  0  0  0  0  0  0  0
    1.5778   -3.2130   -0.2646 C   0  0  0  0  0  0  0  0  0  0  0  0
    0.5022   -2.4240   -1.0218 C   0  0  2  0  0  0  0  0  0  0  0  0
    1.2177   -1.5052   -2.0247 C   0  0  0  0  0  0  0  0  0  0  0  0
    2.0413   -0.4519   -1.2853 C   0  0  0  0  0  0  0  0  0  0  0  0
   -0.2480   -1.6657   -0.0837 O   0  0  0  0  0  0  0  0  0  0  0  0
   -1.5323   -1.3398   -0.5743 C   0  0  0  0  0  0  0  0  0  0  0  0
   -2.0783   -0.1314    0.2142 C   0  0  0  0  0  0  0  0  0  0  0  0
   -3.5378    0.2213   -0.1854 C   0  0  1  0  0  0  0  0  0  0  0  0
   -4.1363    1.0705    0.8665 N   0  0  0  0  0  0  0  0  0  0  0  0
   -5.0279    0.1214    2.0244 S   0  0  0  0  0  6  0  0  0  0  0  0
   -6.5963   -0.3638    1.3344 C   0  0  0  0  0  0  0  0  0  0  0  0
   -4.2562   -1.1079    2.4152 O   0  0  0  0  0  0  0  0  0  0  0  0
   -5.2739    0.9543    3.2504 O   0  0  0  0  0  0  0  0  0  0  0  0
   -3.5786    0.9353   -1.5610 C   0  0  0  0  0  0  0  0  0  0  0  0
   -2.6480    2.1535   -1.6042 C   0  0  0  0  0  0  0  0  0  0  0  0
   -1.2201    1.7482   -1.2453 C   0  0  0  0  0  0  0  0  0  0  0  0
   -1.2102    1.0556    0.0513 N   0  0  0  0  0  0  0  0  0  0  0  0
   -0.5690    1.6866    1.1833 C   0  0  0  0  0  0  0  0  0  0  0  0
   -0.5632    2.9438    1.2778 O   0  0  0  0  0  0  0  0  0  0  0  0
    0.1678    0.8861    2.2175 C   0  0  0  0  0  0  0  0  0  0  0  0
    1.2963    0.2516    1.6201 O   0  0  0  0  0  0  0  0  0  0  0  0
    5.8643   -1.3894    0.1030 H   0  0  0  0  0  0  0  0  0  0  0  0
    5.7766   -0.1443   -1.2199 H   0  0  0  0  0  0  0  0  0  0  0  0
    6.9780   -0.0184    0.1085 H   0  0  0  0  0  0  0  0  0  0  0  0
    4.6316    3.2325    2.6449 H   0  0  0  0  0  0  0  0  0  0  0  0
    2.3402    2.4797    2.7913 H   0  0  0  0  0  0  0  0  0  0  0  0
    3.8404   -1.4839   -0.8707 H   0  0  0  0  0  0  0  0  0  0  0  0
    3.3456   -2.8700    0.9327 H   0  0  0  0  0  0  0  0  0  0  0  0
    1.9213   -1.9783    1.4624 H   0  0  0  0  0  0  0  0  0  0  0  0
    2.1987   -3.7955   -0.9812 H   0  0  0  0  0  0  0  0  0  0  0  0
    1.0878   -3.9418    0.4172 H   0  0  0  0  0  0  0  0  0  0  0  0
   -0.1355   -3.1570   -1.5709 H   0  0  0  0  0  0  0  0  0  0  0  0
    1.8836   -2.1036   -2.6850 H   0  0  0  0  0  0  0  0  0  0  0  0
    0.4840   -0.9998   -2.6857 H   0  0  0  0  0  0  0  0  0  0  0  0
    1.3415    0.2664   -0.8166 H   0  0  0  0  0  0  0  0  0  0  0  0
    2.6230    0.1324   -2.0320 H   0  0  0  0  0  0  0  0  0  0  0  0
   -2.2041   -2.2110   -0.4116 H   0  0  0  0  0  0  0  0  0  0  0  0
   -1.5312   -1.1125   -1.6604 H   0  0  0  0  0  0  0  0  0  0  0  0
   -2.0990   -0.4452    1.2752 H   0  0  0  0  0  0  0  0  0  0  0  0
   -4.1224   -0.7194   -0.3012 H   0  0  0  0  0  0  0  0  0  0  0  0
   -4.8298    1.7362    0.4546 H   0  0  0  0  0  0  0  0  0  0  0  0
   -7.1767   -0.9271    2.0938 H   0  0  0  0  0  0  0  0  0  0  0  0
   -7.1654    0.5402    1.0345 H   0  0  0  0  0  0  0  0  0  0  0  0
   -6.4351   -1.0073    0.4453 H   0  0  0  0  0  0  0  0  0  0  0  0
   -4.6173    1.2580   -1.7903 H   0  0  0  0  0  0  0  0  0  0  0  0
   -3.2884    0.2241   -2.3640 H   0  0  0  0  0  0  0  0  0  0  0  0
   -2.6613    2.5932   -2.6247 H   0  0  0  0  0  0  0  0  0  0  0  0
   -3.0040    2.9279   -0.8907 H   0  0  0  0  0  0  0  0  0  0  0  0
   -0.8145    1.0787   -2.0321 H   0  0  0  0  0  0  0  0  0  0  0  0
   -0.5710    2.6501   -1.2289 H   0  0  0  0  0  0  0  0  0  0  0  0
   -0.4925    0.1004    2.6286 H   0  0  0  0  0  0  0  0  0  0  0  0
    0.4488    1.5069    3.0904 H   0  0  0  0  0  0  0  0  0  0  0  0
  1  2  1  0
  2  3  2  0
  3  4  1  0
  3  5  1  0
  5  6  2  0
  6  7  1  0
  7  8  2  0
  8  9  1  0
  9 10  1  0
 10 11  1  0
 11 12  1  0
 12 13  1  0
 13 14  1  0
 12 15  1  0
 15 16  1  0
 16 17  1  0
 17 18  1  0
 18 19  1  0
 19 20  1  0
 20 21  1  0
 20 22  2  0
 20 23  2  0
 18 24  1  0
 24 25  1  0
 25 26  1  0
 26 27  1  0
 27 28  1  0
 28 29  2  0
 28 30  1  0
 30 31  1  0
  8  2  1  0
 14  9  1  0
 27 17  1  0
 31  7  1  0
  1 32  1  0
  1 33  1  0
  1 34  1  0
  5 35  1  0
  6 36  1  0
  9 37  1  6
 10 38  1  0
 10 39  1  0
 11 40  1  0
 11 41  1  0
 12 42  1  6
 13 43  1  0
 13 44  1  0
 14 45  1  0
 14 46  1  0
 16 47  1  0
 16 48  1  0
 17 49  1  0
 18 50  1  6
 19 51  1  0
 21 52  1  0
 21 53  1  0
 21 54  1  0
 24 55  1  0
 24 56  1  0
 25 57  1  0
 25 58  1  0
 26 59  1  0
 26 60  1  0
 30 61  1  0
 30 62  1  0
M  END
$$$$
