
     RDKit          3D

 64 67  0  0  0  0  0  0  0  0999 V2000
    5.6814   -2.8488   -0.2063 C   0  0  0  0  0  0  0  0  0  0  0  0
    5.3429   -1.1710   -0.6939 S   0  0  0  0  0  6  0  0  0  0  0  0
    4.5393   -1.1720   -1.9646 O   0  0  0  0  0  0  0  0  0  0  0  0
    6.6478   -0.4680   -0.9398 O   0  0  0  0  0  0  0  0  0  0  0  0
    4.4880   -0.3489    0.5810 N   0  0  0  0  0  0  0  0  0  0  0  0
    3.0642   -0.7348    0.6185 C   0  0  1  0  0  0  0  0  0  0  0  0
    2.5487   -0.6164    2.0599 C   0  0  0  0  0  0  0  0  0  0  0  0
    2.5319    0.8410    2.5365 C   0  0  0  0  0  0  0  0  0  0  0  0
    2.1009    1.8112    1.4246 C   0  0  0  0  0  0  0  0  0  0  0  0
    1.3313    1.1080    0.3753 N   0  0  0  0  0  0  0  0  0  0  0  0
    0.6469    2.0799   -0.5111 C   0  0  0  0  0  0  0  0  0  0  0  0
   -0.7747    2.3581    0.0120 C   0  0  1  0  0  0  0  0  0  0  0  0
   -1.4828    3.3890   -0.8905 C   0  0  0  0  0  0  0  0  0  0  0  0
   -0.8057    4.6166   -0.8759 O   0  0  0  0  0  0  0  0  0  0  0  0
   -1.5325    1.1340    0.0501 O   0  0  0  0  0  0  0  0  0  0  0  0
   -2.8346    1.0096    0.5728 C   0  0  0  0  0  0  0  0  0  0  0  0
   -3.2632    1.8800    1.6001 C   0  0  0  0  0  0  0  0  0  0  0  0
   -4.5469    1.7943    2.1309 C   0  0  0  0  0  0  0  0  0  0  0  0
   -5.4307    0.8335    1.6603 C   0  0  0  0  0  0  0  0  0  0  0  0
   -5.0342   -0.0455    0.6573 C   0  0  0  0  0  0  0  0  0  0  0  0
   -3.7442    0.0179    0.0839 C   0  0  0  0  0  0  0  0  0  0  0  0
   -3.4392   -1.0553   -0.9747 C   0  0  1  0  0  0  0  0  0  0  0  0
   -2.4656   -0.6819   -2.1327 C   0  0  0  0  0  0  0  0  0  0  0  0
   -1.3786   -1.7431   -2.3613 C   0  0  0  0  0  0  0  0  0  0  0  0
   -0.6495   -2.1191   -1.0499 C   0  0  2  0  0  0  0  0  0  0  0  0
   -1.6366   -2.5620    0.0606 C   0  0  0  0  0  0  0  0  0  0  0  0
   -3.1145   -2.4178   -0.3165 C   0  0  0  0  0  0  0  0  0  0  0  0
    0.0821   -1.0251   -0.5388 O   0  0  0  0  0  0  0  0  0  0  0  0
    1.2954   -0.8014   -1.2283 C   0  0  0  0  0  0  0  0  0  0  0  0
    2.1839    0.1293   -0.3665 C   0  0  0  0  0  0  0  0  0  0  0  0
    6.2153   -2.8509    0.7668 H   0  0  0  0  0  0  0  0  0  0  0  0
    6.3160   -3.3361   -0.9757 H   0  0  0  0  0  0  0  0  0  0  0  0
    4.7312   -3.4129   -0.1087 H   0  0  0  0  0  0  0  0  0  0  0  0
    4.5946    0.6799    0.4321 H   0  0  0  0  0  0  0  0  0  0  0  0
    2.9821   -1.8184    0.3819 H   0  0  0  0  0  0  0  0  0  0  0  0
    1.5128   -1.0211    2.1042 H   0  0  0  0  0  0  0  0  0  0  0  0
    3.1728   -1.2304    2.7434 H   0  0  0  0  0  0  0  0  0  0  0  0
    1.8362    0.9242    3.4000 H   0  0  0  0  0  0  0  0  0  0  0  0
    3.5453    1.1268    2.8924 H   0  0  0  0  0  0  0  0  0  0  0  0
    2.9957    2.3012    0.9770 H   0  0  0  0  0  0  0  0  0  0  0  0
    1.4911    2.6165    1.8889 H   0  0  0  0  0  0  0  0  0  0  0  0
    0.5593    1.7129   -1.5534 H   0  0  0  0  0  0  0  0  0  0  0  0
    1.2250    3.0308   -0.5791 H   0  0  0  0  0  0  0  0  0  0  0  0
   -0.6772    2.7730    1.0340 H   0  0  0  0  0  0  0  0  0  0  0  0
   -2.5341    3.5417   -0.5596 H   0  0  0  0  0  0  0  0  0  0  0  0
   -1.5190    3.0096   -1.9343 H   0  0  0  0  0  0  0  0  0  0  0  0
   -0.9755    5.0244    0.0136 H   0  0  0  0  0  0  0  0  0  0  0  0
   -2.6071    2.6301    2.0116 H   0  0  0  0  0  0  0  0  0  0  0  0
   -4.8549    2.4715    2.9173 H   0  0  0  0  0  0  0  0  0  0  0  0
   -6.4254    0.7624    2.0806 H   0  0  0  0  0  0  0  0  0  0  0  0
   -5.7442   -0.7955    0.3309 H   0  0  0  0  0  0  0  0  0  0  0  0
   -4.4075   -1.2358   -1.4968 H   0  0  0  0  0  0  0  0  0  0  0  0
   -2.0000    0.3108   -2.0221 H   0  0  0  0  0  0  0  0  0  0  0  0
   -3.0468   -0.5991   -3.0774 H   0  0  0  0  0  0  0  0  0  0  0  0
   -1.8502   -2.6571   -2.7861 H   0  0  0  0  0  0  0  0  0  0  0  0
   -0.6627   -1.3839   -3.1284 H   0  0  0  0  0  0  0  0  0  0  0  0
    0.0199   -2.9874   -1.2579 H   0  0  0  0  0  0  0  0  0  0  0  0
   -1.4598   -1.9749    0.9894 H   0  0  0  0  0  0  0  0  0  0  0  0
   -1.4449   -3.6244    0.3233 H   0  0  0  0  0  0  0  0  0  0  0  0
   -3.7403   -2.5812    0.5866 H   0  0  0  0  0  0  0  0  0  0  0  0
   -3.3747   -3.2325   -1.0270 H   0  0  0  0  0  0  0  0  0  0  0  0
    1.8322   -1.7437   -1.4787 H   0  0  0  0  0  0  0  0  0  0  0  0
    1.0898   -0.3048   -2.1985 H   0  0  0  0  0  0  0  0  0  0  0  0
    2.8538    0.6829   -1.0634 H   0  0  0  0  0  0  0  0  0  0  0  0
  1  2  1  0
  2  3  2  0
  2  4  2  0
  2  5  1  0
  5  6  1  0
  6  7  1  0
  7  8  1  0
  8  9  1  0
  9 10  1  0
 10 11  1  0
 11 12  1  0
 12 13  1  0
 13 14  1  0
 12 15  1  0
 15 16  1  0
 16 17  2  0
 17 18  1  0
 18 19  2  0
 19 20  1  0
 20 21  2  0
 21 22  1  0
 22 23  1  0
 23 24  1  0
 24 25  1  0
 25 26  1  0
 26 27  1  0
 25 28  1  0
 28 29  1  0
 29 30  1  0
 30  6  1  0
 30 10  1  0
 21 16  1  0
 27 22  1  0
  1 31  1  0
  1 32  1  0
  1 33  1  0
  5 34  1  0
  6 35  1  6
  7 36  1  0
  7 37  1  0
  8 38  1  0
  8 39  1  0
  9 40  1  0
  9 41  1  0
 11 42  1  0
 11 43  1  0
 12 44  1  1
 13 45  1  0
 13 46  1  0
 14 47  1  0
 17 48  1  0
 18 49  1  0
 19 50  1  0
 20 51  1  0
 22 52  1  6
 23 53  1  0
 23 54  1  0
 24 55  1  0
 24 56  1  0
 25 57  1  6
 26 58  1  0
 26 59  1  0
 27 60  1  0
 27 61  1  0
 29 62  1  0
 29 63  1  0
 30 64  1  0
M  END
$$$$
