
     RDKit          3D

 69 71  0  0  0  0  0  0  0  0999 V2000
   -5.0461   -0.0176    0.3199 C   0  0  0  0  0  0  0  0  0  0  0  0
   -3.8907    0.7835    0.4412 O   0  0  0  0  0  0  0  0  0  0  0  0
   -2.9244    0.4339   -0.5401 C   0  0  2  0  0  0  0  0  0  0  0  0
   -1.6413   -0.0550    0.1503 C   0  0  0  0  0  0  0  0  0  0  0  0
   -1.8774   -1.2198    1.0159 N   0  0  0  0  0  0  0  0  0  0  0  0
   -2.3505   -0.9999    2.3881 C   0  0  0  0  0  0  0  0  0  0  0  0
   -1.6969   -2.5815    0.5625 C   0  0  0  0  0  0  0  0  0  0  0  0
   -2.2869   -3.5122    1.1776 O   0  0  0  0  0  0  0  0  0  0  0  0
   -0.8593   -2.9506   -0.6074 C   0  0  0  0  0  0  0  0  0  0  0  0
   -1.3977   -3.8647   -1.5305 C   0  0  0  0  0  0  0  0  0  0  0  0
   -0.6735   -4.2543   -2.6570 C   0  0  0  0  0  0  0  0  0  0  0  0
    0.6030   -3.7429   -2.8796 C   0  0  0  0  0  0  0  0  0  0  0  0
    1.1681   -2.8453   -1.9689 C   0  0  0  0  0  0  0  0  0  0  0  0
    2.4918   -2.3297   -2.2169 C   0  0  0  0  0  0  0  0  0  0  0  0
    3.5541   -1.9151   -2.4146 N   0  0  0  0  0  0  0  0  0  0  0  0
    0.4570   -2.4572   -0.8183 C   0  0  0  0  0  0  0  0  0  0  0  0
    1.0653   -1.5440    0.0513 O   0  0  0  0  0  0  0  0  0  0  0  0
    1.3987   -1.8268    1.4043 C   0  0  0  0  0  0  0  0  0  0  0  0
    2.1984   -0.6543    1.9934 C   0  0  2  0  0  0  0  0  0  0  0  0
    1.4652    0.5665    1.8596 O   0  0  0  0  0  0  0  0  0  0  0  0
    1.9385    1.3970    0.8080 C   0  0  2  0  0  0  0  0  0  0  0  0
    3.3668    1.8920    1.1259 C   0  0  0  0  0  0  0  0  0  0  0  0
    4.2472    0.7736    1.7112 C   0  0  0  0  0  0  0  0  0  0  0  0
    3.6531   -0.6142    1.4418 C   0  0  1  0  0  0  0  0  0  0  0  0
    4.4276   -1.5997    2.1074 O   0  0  0  0  0  0  0  0  0  0  0  0
    5.3155   -2.2282    1.2090 C   0  0  0  0  0  0  0  0  0  0  0  0
    0.9578    2.5856    0.6067 C   0  0  0  0  0  0  0  0  0  0  0  0
    0.3728    2.6444   -0.8181 C   0  0  0  0  0  0  0  0  0  0  0  0
   -0.8485    3.4628   -0.8407 N   0  0  0  0  0  0  0  0  0  0  0  0
   -0.7288    4.9225   -0.8167 C   0  0  0  0  0  0  0  0  0  0  0  0
   -2.1540    2.8763   -0.6477 C   0  0  0  0  0  0  0  0  0  0  0  0
   -2.9602    3.4231    0.1540 O   0  0  0  0  0  0  0  0  0  0  0  0
   -2.6149    1.6645   -1.4415 C   0  0  2  0  0  0  0  0  0  0  0  0
   -3.8344    2.0388   -2.2934 C   0  0  0  0  0  0  0  0  0  0  0  0
   -5.7602    0.2669    1.1195 H   0  0  0  0  0  0  0  0  0  0  0  0
   -4.8022   -1.0952    0.4496 H   0  0  0  0  0  0  0  0  0  0  0  0
   -5.5454    0.1498   -0.6593 H   0  0  0  0  0  0  0  0  0  0  0  0
   -3.2506   -0.3971   -1.2157 H   0  0  0  0  0  0  0  0  0  0  0  0
   -1.2112    0.7589    0.7628 H   0  0  0  0  0  0  0  0  0  0  0  0
   -0.9091   -0.2905   -0.6386 H   0  0  0  0  0  0  0  0  0  0  0  0
   -1.6460   -1.4651    3.1089 H   0  0  0  0  0  0  0  0  0  0  0  0
   -2.4232    0.0826    2.6264 H   0  0  0  0  0  0  0  0  0  0  0  0
   -3.3553   -1.4531    2.5193 H   0  0  0  0  0  0  0  0  0  0  0  0
   -2.3938   -4.2661   -1.3877 H   0  0  0  0  0  0  0  0  0  0  0  0
   -1.1066   -4.9507   -3.3634 H   0  0  0  0  0  0  0  0  0  0  0  0
    1.1510   -4.0485   -3.7631 H   0  0  0  0  0  0  0  0  0  0  0  0
    0.4817   -1.9760    2.0051 H   0  0  0  0  0  0  0  0  0  0  0  0
    1.9985   -2.7618    1.4549 H   0  0  0  0  0  0  0  0  0  0  0  0
    2.2774   -0.8464    3.0863 H   0  0  0  0  0  0  0  0  0  0  0  0
    1.9862    0.8109   -0.1376 H   0  0  0  0  0  0  0  0  0  0  0  0
    3.8270    2.2794    0.1905 H   0  0  0  0  0  0  0  0  0  0  0  0
    3.3346    2.7278    1.8591 H   0  0  0  0  0  0  0  0  0  0  0  0
    5.2686    0.8386    1.2780 H   0  0  0  0  0  0  0  0  0  0  0  0
    4.3403    0.9181    2.8108 H   0  0  0  0  0  0  0  0  0  0  0  0
    3.6151   -0.7673    0.3344 H   0  0  0  0  0  0  0  0  0  0  0  0
    5.9640   -2.9240    1.7795 H   0  0  0  0  0  0  0  0  0  0  0  0
    4.7550   -2.8260    0.4567 H   0  0  0  0  0  0  0  0  0  0  0  0
    5.9745   -1.4879    0.7040 H   0  0  0  0  0  0  0  0  0  0  0  0
    1.4501    3.5603    0.8159 H   0  0  0  0  0  0  0  0  0  0  0  0
    0.1276    2.5100    1.3412 H   0  0  0  0  0  0  0  0  0  0  0  0
    0.1632    1.6289   -1.1977 H   0  0  0  0  0  0  0  0  0  0  0  0
    1.1302    3.0755   -1.5080 H   0  0  0  0  0  0  0  0  0  0  0  0
    0.3265    5.2424   -0.9506 H   0  0  0  0  0  0  0  0  0  0  0  0
   -1.3330    5.3589   -1.6395 H   0  0  0  0  0  0  0  0  0  0  0  0
   -1.0914    5.3175    0.1557 H   0  0  0  0  0  0  0  0  0  0  0  0
   -1.8230    1.3767   -2.1651 H   0  0  0  0  0  0  0  0  0  0  0  0
   -4.6868    2.3532   -1.6542 H   0  0  0  0  0  0  0  0  0  0  0  0
   -4.1514    1.1723   -2.9122 H   0  0  0  0  0  0  0  0  0  0  0  0
   -3.5774    2.8755   -2.9782 H   0  0  0  0  0  0  0  0  0  0  0  0
  1  2  1  0
  2  3  1  0
  3  4  1  0
  4  5  1  0
  5  6  1  0
  5  7  1  0
  7  8  2  0
  7  9  1  0
  9 10  2  0
 10 11  1  0
 11 12  2  0
 12 13  1  0
 13 14  1  0
 14 15  3  0
 13 16  2  0
 16 17  1  0
 17 18  1  0
 18 19  1  0
 19 20  1  0
 20 21  1  0
 21 22  1  0
 22 23  1  0
 23 24  1  0
 24 25  1  0
 25 26  1  0
 21 27  1  0
 27 28  1  0
 28 29  1  0
 29 30  1  0
 29 31  1  0
 31 32  2  0
 31 33  1  0
 33 34  1  0
 33  3  1  0
 16  9  1  0
 24 19  1  0
  1 35  1  0
  1 36  1  0
  1 37  1  0
  3 38  1  6
  4 39  1  0
  4 40  1  0
  6 41  1  0
  6 42  1  0
  6 43  1  0
 10 44  1  0
 11 45  1  0
 12 46  1  0
 18 47  1  0
 18 48  1  0
 19 49  1  1
 21 50  1  6
 22 51  1  0
 22 52  1  0
 23 53  1  0
 23 54  1  0
 24 55  1  6
 26 56  1  0
 26 57  1  0
 26 58  1  0
 27 59  1  0
 27 60  1  0
 28 61  1  0
 28 62  1  0
 30 63  1  0
 30 64  1  0
 30 65  1  0
 33 66  1  6
 34 67  1  0
 34 68  1  0
 34 69  1  0
M  END
$$$$
