
     RDKit          3D

 69 71  0  0  0  0  0  0  0  0999 V2000
    8.7655    0.5931    0.4852 C   0  0  0  0  0  0  0  0  0  0  0  0
    7.4048    0.1680    0.0199 C   0  0  0  0  0  0  0  0  0  0  0  0
    6.4820    1.1156   -0.4499 C   0  0  0  0  0  0  0  0  0  0  0  0
    5.1980    0.7199   -0.8410 C   0  0  0  0  0  0  0  0  0  0  0  0
    4.8080   -0.6278   -0.7385 C   0  0  0  0  0  0  0  0  0  0  0  0
    3.3993   -1.0642   -1.0983 C   0  0  0  0  0  0  0  0  0  0  0  0
    2.4112   -0.9009    0.0031 N   0  0  0  0  0  0  0  0  0  0  0  0
    2.9119   -1.3342    1.3212 C   0  0  0  0  0  0  0  0  0  0  0  0
    1.7815    0.4412    0.0417 C   0  0  0  0  0  0  0  0  0  0  0  0
    0.4469    0.4246   -0.7525 C   0  0  2  0  0  0  0  0  0  0  0  0
    0.0576    1.6987   -1.2703 O   0  0  0  0  0  0  0  0  0  0  0  0
   -0.0915    2.7418   -0.3174 C   0  0  0  0  0  0  0  0  0  0  0  0
   -1.5300    3.1593   -0.2642 C   0  0  0  0  0  0  0  0  0  0  0  0
   -2.4319    2.8518    0.7309 C   0  0  0  0  0  0  0  0  0  0  0  0
   -3.6498    3.0913    0.2204 N   0  0  0  0  0  0  0  0  0  0  0  0
   -3.5076    3.5609   -1.0080 N   0  0  0  0  0  0  0  0  0  0  0  0
   -2.2242    3.6045   -1.3350 N   0  0  0  0  0  0  0  0  0  0  0  0
   -4.9215    2.7561    0.8553 C   0  0  0  0  0  0  0  0  0  0  0  0
   -5.8005    1.8410   -0.0236 C   0  0  0  0  0  0  0  0  0  0  0  0
   -5.0785    0.6664   -0.7230 C   0  0  0  0  0  0  0  0  0  0  0  0
   -4.2831   -0.2354    0.1906 C   0  0  0  0  0  0  0  0  0  0  0  0
   -4.6664   -0.4181    1.3759 O   0  0  0  0  0  0  0  0  0  0  0  0
   -3.1596   -0.9849   -0.3237 N   0  0  0  0  0  0  0  0  0  0  0  0
   -3.2112   -2.4570   -0.4604 C   0  0  2  0  0  0  0  0  0  0  0  0
   -4.4887   -2.9026   -1.1857 C   0  0  0  0  0  0  0  0  0  0  0  0
   -3.0214   -3.1765    0.8908 C   0  0  0  0  0  0  0  0  0  0  0  0
   -4.1314   -3.0157    1.7332 O   0  0  0  0  0  0  0  0  0  0  0  0
   -2.0269   -0.2528   -0.9152 C   0  0  0  0  0  0  0  0  0  0  0  0
   -0.7157   -0.4038   -0.1003 C   0  0  2  0  0  0  0  0  0  0  0  0
   -0.8964   -0.1574    1.4154 C   0  0  0  0  0  0  0  0  0  0  0  0
    5.7364   -1.5747   -0.2665 C   0  0  0  0  0  0  0  0  0  0  0  0
    7.0233   -1.1794    0.1135 C   0  0  0  0  0  0  0  0  0  0  0  0
    8.7723    0.6569    1.5942 H   0  0  0  0  0  0  0  0  0  0  0  0
    9.5307   -0.1439    0.1591 H   0  0  0  0  0  0  0  0  0  0  0  0
    9.0377    1.5850    0.0628 H   0  0  0  0  0  0  0  0  0  0  0  0
    6.7555    2.1613   -0.5174 H   0  0  0  0  0  0  0  0  0  0  0  0
    4.5199    1.4689   -1.2292 H   0  0  0  0  0  0  0  0  0  0  0  0
    3.0691   -0.5107   -2.0038 H   0  0  0  0  0  0  0  0  0  0  0  0
    3.4095   -2.1337   -1.4027 H   0  0  0  0  0  0  0  0  0  0  0  0
    3.6644   -0.6196    1.7188 H   0  0  0  0  0  0  0  0  0  0  0  0
    2.0740   -1.4051    2.0403 H   0  0  0  0  0  0  0  0  0  0  0  0
    3.3621   -2.3478    1.2471 H   0  0  0  0  0  0  0  0  0  0  0  0
    2.4472    1.2102   -0.3992 H   0  0  0  0  0  0  0  0  0  0  0  0
    1.6077    0.7674    1.0892 H   0  0  0  0  0  0  0  0  0  0  0  0
    0.6873   -0.1517   -1.6740 H   0  0  0  0  0  0  0  0  0  0  0  0
    0.4980    3.6113   -0.6740 H   0  0  0  0  0  0  0  0  0  0  0  0
    0.2909    2.5192    0.6948 H   0  0  0  0  0  0  0  0  0  0  0  0
   -2.2423    2.4183    1.7022 H   0  0  0  0  0  0  0  0  0  0  0  0
   -4.7388    2.2604    1.8353 H   0  0  0  0  0  0  0  0  0  0  0  0
   -5.4781    3.6967    1.0638 H   0  0  0  0  0  0  0  0  0  0  0  0
   -6.2731    2.4671   -0.8112 H   0  0  0  0  0  0  0  0  0  0  0  0
   -6.6294    1.4410    0.5998 H   0  0  0  0  0  0  0  0  0  0  0  0
   -4.4415    1.0595   -1.5383 H   0  0  0  0  0  0  0  0  0  0  0  0
   -5.8498    0.0393   -1.2184 H   0  0  0  0  0  0  0  0  0  0  0  0
   -2.3622   -2.7903   -1.1007 H   0  0  0  0  0  0  0  0  0  0  0  0
   -4.4734   -4.0014   -1.3452 H   0  0  0  0  0  0  0  0  0  0  0  0
   -4.5527   -2.4042   -2.1763 H   0  0  0  0  0  0  0  0  0  0  0  0
   -5.3932   -2.6409   -0.5977 H   0  0  0  0  0  0  0  0  0  0  0  0
   -2.1230   -2.7719    1.4007 H   0  0  0  0  0  0  0  0  0  0  0  0
   -2.8221   -4.2609    0.7135 H   0  0  0  0  0  0  0  0  0  0  0  0
   -4.7465   -3.7731    1.5497 H   0  0  0  0  0  0  0  0  0  0  0  0
   -2.2801    0.8109   -1.0198 H   0  0  0  0  0  0  0  0  0  0  0  0
   -1.8602   -0.6202   -1.9520 H   0  0  0  0  0  0  0  0  0  0  0  0
   -0.4286   -1.4762   -0.1891 H   0  0  0  0  0  0  0  0  0  0  0  0
   -1.9223   -0.3839    1.7678 H   0  0  0  0  0  0  0  0  0  0  0  0
   -0.2113   -0.8202    1.9880 H   0  0  0  0  0  0  0  0  0  0  0  0
   -0.6640    0.8731    1.7144 H   0  0  0  0  0  0  0  0  0  0  0  0
    5.4587   -2.6181   -0.1801 H   0  0  0  0  0  0  0  0  0  0  0  0
    7.7173   -1.9219    0.4889 H   0  0  0  0  0  0  0  0  0  0  0  0
  1  2  1  0
  2  3  2  0
  3  4  1  0
  4  5  2  0
  5  6  1  0
  6  7  1  0
  7  8  1  0
  7  9  1  0
  9 10  1  0
 10 11  1  0
 11 12  1  0
 12 13  1  0
 13 14  2  0
 14 15  1  0
 15 16  1  0
 16 17  2  0
 15 18  1  0
 18 19  1  0
 19 20  1  0
 20 21  1  0
 21 22  2  0
 21 23  1  0
 23 24  1  0
 24 25  1  0
 24 26  1  0
 26 27  1  0
 23 28  1  0
 28 29  1  0
 29 30  1  0
  5 31  1  0
 31 32  2  0
 32  2  1  0
 29 10  1  0
 17 13  1  0
  1 33  1  0
  1 34  1  0
  1 35  1  0
  3 36  1  0
  4 37  1  0
  6 38  1  0
  6 39  1  0
  8 40  1  0
  8 41  1  0
  8 42  1  0
  9 43  1  0
  9 44  1  0
 10 45  1  6
 12 46  1  0
 12 47  1  0
 14 48  1  0
 18 49  1  0
 18 50  1  0
 19 51  1  0
 19 52  1  0
 20 53  1  0
 20 54  1  0
 24 55  1  6
 25 56  1  0
 25 57  1  0
 25 58  1  0
 26 59  1  0
 26 60  1  0
 27 61  1  0
 28 62  1  0
 28 63  1  0
 29 64  1  1
 30 65  1  0
 30 66  1  0
 30 67  1  0
 31 68  1  0
 32 69  1  0
M  END
$$$$
