
     RDKit          3D

 61 63  0  0  0  0  0  0  0  0999 V2000
   -2.4211    4.2687    4.2258 C   0  0  0  0  0  0  0  0  0  0  0  0
   -2.5474    3.0736    3.4674 O   0  0  0  0  0  0  0  0  0  0  0  0
   -2.4771    3.0587    2.0710 C   0  0  0  0  0  0  0  0  0  0  0  0
   -2.3408    4.1345    1.4238 O   0  0  0  0  0  0  0  0  0  0  0  0
   -2.6113    1.7546    1.3384 C   0  0  1  0  0  0  0  0  0  0  0  0
   -4.0561    1.5991    0.8014 C   0  0  0  0  0  0  0  0  0  0  0  0
   -4.5553   -0.1687    0.7404 S   0  0  0  0  0  0  0  0  0  0  0  0
   -4.4160   -0.3968   -1.0694 C   0  0  0  0  0  0  0  0  0  0  0  0
   -4.2314   -1.8437   -1.4949 C   0  0  0  0  0  0  0  0  0  0  0  0
   -4.9553   -2.2791   -2.6224 C   0  0  0  0  0  0  0  0  0  0  0  0
   -4.7913   -3.5683   -3.1298 C   0  0  0  0  0  0  0  0  0  0  0  0
   -3.8948   -4.4474   -2.5290 C   0  0  0  0  0  0  0  0  0  0  0  0
   -3.1558   -4.0395   -1.4203 C   0  0  0  0  0  0  0  0  0  0  0  0
   -3.2929   -2.7412   -0.9024 C   0  0  0  0  0  0  0  0  0  0  0  0
   -2.5143   -2.4223    0.3126 C   0  0  0  0  0  0  0  0  0  0  0  0
   -2.8293   -2.9872    1.3931 O   0  0  0  0  0  0  0  0  0  0  0  0
   -1.4340   -1.5351    0.3155 O   0  0  0  0  0  0  0  0  0  0  0  0
   -0.7954   -1.0318   -0.8547 C   0  0  0  0  0  0  0  0  0  0  0  0
    0.1896    0.1009   -0.4872 C   0  0  2  0  0  0  0  0  0  0  0  0
    1.4677   -0.4743   -0.0561 N   0  0  0  0  0  0  0  0  0  0  0  0
    2.7035    0.2491   -0.1494 C   0  0  0  0  0  0  0  0  0  0  0  0
    2.7238    1.4116   -0.6387 O   0  0  0  0  0  0  0  0  0  0  0  0
    3.9738   -0.3564    0.3906 C   0  0  2  0  0  0  0  0  0  0  0  0
    4.3062    0.2035    1.7754 C   0  0  0  0  0  0  0  0  0  0  0  0
    5.8054    0.4925    1.7611 C   0  0  0  0  0  0  0  0  0  0  0  0
    6.2059    0.5832    0.2946 C   0  0  0  0  0  0  0  0  0  0  0  0
    5.1171   -0.0271   -0.4510 N   0  0  0  0  0  0  0  0  0  0  0  0
    5.2160   -0.3992   -1.8400 C   0  0  0  0  0  0  0  0  0  0  0  0
    6.3878    0.0234   -2.6722 C   0  0  0  0  0  0  0  0  0  0  0  0
    4.3159   -1.1076   -2.3675 O   0  0  0  0  0  0  0  0  0  0  0  0
   -0.3466    1.0361    0.6271 C   0  0  0  0  0  0  0  0  0  0  0  0
   -1.6042    1.7171    0.2538 N   0  0  0  0  0  0  0  0  0  0  0  0
   -2.5325    4.0299    5.3033 H   0  0  0  0  0  0  0  0  0  0  0  0
   -1.4199    4.7201    4.0585 H   0  0  0  0  0  0  0  0  0  0  0  0
   -3.2126    4.9900    3.9338 H   0  0  0  0  0  0  0  0  0  0  0  0
   -2.4510    0.9396    2.0788 H   0  0  0  0  0  0  0  0  0  0  0  0
   -4.7682    2.0866    1.5021 H   0  0  0  0  0  0  0  0  0  0  0  0
   -4.1823    2.1059   -0.1795 H   0  0  0  0  0  0  0  0  0  0  0  0
   -5.3524    0.0161   -1.5018 H   0  0  0  0  0  0  0  0  0  0  0  0
   -3.5991    0.2004   -1.5017 H   0  0  0  0  0  0  0  0  0  0  0  0
   -5.6510   -1.6153   -3.1204 H   0  0  0  0  0  0  0  0  0  0  0  0
   -5.3590   -3.8845   -3.9949 H   0  0  0  0  0  0  0  0  0  0  0  0
   -3.7723   -5.4482   -2.9224 H   0  0  0  0  0  0  0  0  0  0  0  0
   -2.4672   -4.7405   -0.9628 H   0  0  0  0  0  0  0  0  0  0  0  0
   -1.5434   -0.6536   -1.5758 H   0  0  0  0  0  0  0  0  0  0  0  0
   -0.2562   -1.8589   -1.3654 H   0  0  0  0  0  0  0  0  0  0  0  0
    0.3589    0.7016   -1.4088 H   0  0  0  0  0  0  0  0  0  0  0  0
    1.4739   -1.4182    0.3965 H   0  0  0  0  0  0  0  0  0  0  0  0
    3.8784   -1.4629    0.4466 H   0  0  0  0  0  0  0  0  0  0  0  0
    3.7603    1.1529    1.9744 H   0  0  0  0  0  0  0  0  0  0  0  0
    4.0486   -0.5263    2.5731 H   0  0  0  0  0  0  0  0  0  0  0  0
    6.3487   -0.3505    2.2449 H   0  0  0  0  0  0  0  0  0  0  0  0
    6.0415    1.4353    2.3032 H   0  0  0  0  0  0  0  0  0  0  0  0
    6.3195    1.6445   -0.0151 H   0  0  0  0  0  0  0  0  0  0  0  0
    7.1562    0.0329    0.1217 H   0  0  0  0  0  0  0  0  0  0  0  0
    7.2911   -0.5396   -2.3582 H   0  0  0  0  0  0  0  0  0  0  0  0
    6.1949   -0.1782   -3.7478 H   0  0  0  0  0  0  0  0  0  0  0  0
    6.5678    1.1114   -2.5447 H   0  0  0  0  0  0  0  0  0  0  0  0
    0.4130    1.8213    0.8256 H   0  0  0  0  0  0  0  0  0  0  0  0
   -0.4333    0.4517    1.5687 H   0  0  0  0  0  0  0  0  0  0  0  0
   -1.9949    1.3556   -0.6390 H   0  0  0  0  0  0  0  0  0  0  0  0
  1  2  1  0
  2  3  1  0
  3  4  2  0
  3  5  1  0
  5  6  1  0
  6  7  1  0
  7  8  1  0
  8  9  1  0
  9 10  2  0
 10 11  1  0
 11 12  2  0
 12 13  1  0
 13 14  2  0
 14 15  1  0
 15 16  2  0
 15 17  1  0
 17 18  1  0
 18 19  1  0
 19 20  1  0
 20 21  1  0
 21 22  2  0
 21 23  1  0
 23 24  1  0
 24 25  1  0
 25 26  1  0
 26 27  1  0
 27 28  1  0
 28 29  1  0
 28 30  2  0
 19 31  1  0
 31 32  1  0
 32  5  1  0
 14  9  1  0
 27 23  1  0
  1 33  1  0
  1 34  1  0
  1 35  1  0
  5 36  1  1
  6 37  1  0
  6 38  1  0
  8 39  1  0
  8 40  1  0
 10 41  1  0
 11 42  1  0
 12 43  1  0
 13 44  1  0
 18 45  1  0
 18 46  1  0
 19 47  1  6
 20 48  1  0
 23 49  1  1
 24 50  1  0
 24 51  1  0
 25 52  1  0
 25 53  1  0
 26 54  1  0
 26 55  1  0
 29 56  1  0
 29 57  1  0
 29 58  1  0
 31 59  1  0
 31 60  1  0
 32 61  1  0
M  END
$$$$
