
     RDKit          3D

 73 76  0  0  0  0  0  0  0  0999 V2000
    6.3330    1.5963    0.9679 C   0  0  0  0  0  0  0  0  0  0  0  0
    5.2887    1.0373   -0.0100 C   0  0  0  0  0  0  0  0  0  0  0  0
    6.0023    0.5908   -1.3000 C   0  0  0  0  0  0  0  0  0  0  0  0
    4.2548    2.1390   -0.3155 C   0  0  0  0  0  0  0  0  0  0  0  0
    4.6616   -0.0819    0.6335 O   0  0  0  0  0  0  0  0  0  0  0  0
    3.5985   -0.8414    0.1236 C   0  0  0  0  0  0  0  0  0  0  0  0
    3.1642   -0.6506   -1.0443 O   0  0  0  0  0  0  0  0  0  0  0  0
    2.9896   -1.8326    0.9602 N   0  0  0  0  0  0  0  0  0  0  0  0
    1.6831   -2.4186    0.6434 C   0  0  1  0  0  0  0  0  0  0  0  0
    1.3851   -3.6210    1.5779 C   0  0  0  0  0  0  0  0  0  0  0  0
   -0.0514   -4.0797    1.4904 C   0  0  0  0  0  0  0  0  0  0  0  0
   -0.8681   -4.0669    2.6353 C   0  0  0  0  0  0  0  0  0  0  0  0
   -2.2544   -4.1889    2.5092 C   0  0  0  0  0  0  0  0  0  0  0  0
   -2.8264   -4.2619    1.2349 C   0  0  0  0  0  0  0  0  0  0  0  0
   -2.0107   -4.4639    0.1159 C   0  0  0  0  0  0  0  0  0  0  0  0
   -0.6238   -4.3852    0.2439 C   0  0  0  0  0  0  0  0  0  0  0  0
   -4.1695   -3.9341    1.0490 O   0  0  0  0  0  0  0  0  0  0  0  0
   -4.4893   -2.6148    0.7038 C   0  0  0  0  0  0  0  0  0  0  0  0
   -3.8611   -1.5366    1.3515 C   0  0  0  0  0  0  0  0  0  0  0  0
   -3.9855   -0.2452    0.8516 C   0  0  0  0  0  0  0  0  0  0  0  0
   -4.7338   -0.0079   -0.3086 C   0  0  0  0  0  0  0  0  0  0  0  0
   -5.4785   -1.0603   -0.8713 C   0  0  0  0  0  0  0  0  0  0  0  0
   -5.3639   -2.3594   -0.3575 C   0  0  0  0  0  0  0  0  0  0  0  0
   -4.6722    1.3062   -0.9767 C   0  0  0  0  0  0  0  0  0  0  0  0
   -5.7022    1.7698   -1.5365 O   0  0  0  0  0  0  0  0  0  0  0  0
   -3.3633    2.0351   -1.1221 C   0  0  0  0  0  0  0  0  0  0  0  0
   -2.5531    1.3849   -2.1528 N   0  0  0  0  0  0  0  0  0  0  0  0
   -1.4267    0.5058   -1.9499 C   0  0  0  0  0  0  0  0  0  0  0  0
   -0.9827   -0.1172   -2.9522 O   0  0  0  0  0  0  0  0  0  0  0  0
   -0.6545    0.4108   -0.6377 C   0  0  2  0  0  0  0  0  0  0  0  0
    0.4850    1.4534   -0.6284 C   0  0  0  0  0  0  0  0  0  0  0  0
   -0.0331    2.8663   -0.5624 C   0  0  0  0  0  0  0  0  0  0  0  0
   -0.1850    3.6255   -1.7351 C   0  0  0  0  0  0  0  0  0  0  0  0
   -0.6964    4.9251   -1.6709 C   0  0  0  0  0  0  0  0  0  0  0  0
   -1.0602    5.4742   -0.4382 C   0  0  0  0  0  0  0  0  0  0  0  0
   -0.9157    4.7235    0.7318 C   0  0  0  0  0  0  0  0  0  0  0  0
   -0.4053    3.4235    0.6724 C   0  0  0  0  0  0  0  0  0  0  0  0
   -0.0832   -0.9376   -0.4665 N   0  0  0  0  0  0  0  0  0  0  0  0
    0.6239   -1.3381    0.7210 C   0  0  0  0  0  0  0  0  0  0  0  0
    0.4009   -0.7577    1.8179 O   0  0  0  0  0  0  0  0  0  0  0  0
    5.8435    1.9108    1.9147 H   0  0  0  0  0  0  0  0  0  0  0  0
    7.0880    0.8194    1.2117 H   0  0  0  0  0  0  0  0  0  0  0  0
    6.8570    2.4746    0.5323 H   0  0  0  0  0  0  0  0  0  0  0  0
    6.7100   -0.2374   -1.0807 H   0  0  0  0  0  0  0  0  0  0  0  0
    6.5732    1.4354   -1.7410 H   0  0  0  0  0  0  0  0  0  0  0  0
    5.2779    0.2380   -2.0618 H   0  0  0  0  0  0  0  0  0  0  0  0
    3.5563    1.8257   -1.1172 H   0  0  0  0  0  0  0  0  0  0  0  0
    3.6611    2.3707    0.5946 H   0  0  0  0  0  0  0  0  0  0  0  0
    4.7581    3.0683   -0.6581 H   0  0  0  0  0  0  0  0  0  0  0  0
    3.4551   -2.0537    1.8692 H   0  0  0  0  0  0  0  0  0  0  0  0
    1.7274   -2.8120   -0.3959 H   0  0  0  0  0  0  0  0  0  0  0  0
    1.6290   -3.3394    2.6270 H   0  0  0  0  0  0  0  0  0  0  0  0
    2.0493   -4.4685    1.3021 H   0  0  0  0  0  0  0  0  0  0  0  0
   -0.4451   -3.8685    3.6122 H   0  0  0  0  0  0  0  0  0  0  0  0
   -2.8843   -4.0624    3.3801 H   0  0  0  0  0  0  0  0  0  0  0  0
   -2.4531   -4.5536   -0.8682 H   0  0  0  0  0  0  0  0  0  0  0  0
   -0.0092   -4.4436   -0.6456 H   0  0  0  0  0  0  0  0  0  0  0  0
   -3.2304   -1.6983    2.2143 H   0  0  0  0  0  0  0  0  0  0  0  0
   -3.4651    0.5574    1.3560 H   0  0  0  0  0  0  0  0  0  0  0  0
   -6.0854   -0.8920   -1.7522 H   0  0  0  0  0  0  0  0  0  0  0  0
   -5.8789   -3.1780   -0.8443 H   0  0  0  0  0  0  0  0  0  0  0  0
   -2.8319    2.1116   -0.1584 H   0  0  0  0  0  0  0  0  0  0  0  0
   -3.5595    3.0819   -1.4384 H   0  0  0  0  0  0  0  0  0  0  0  0
   -2.9025    1.4785   -3.1337 H   0  0  0  0  0  0  0  0  0  0  0  0
   -1.3286    0.5932    0.2188 H   0  0  0  0  0  0  0  0  0  0  0  0
    1.1480    1.2855    0.2472 H   0  0  0  0  0  0  0  0  0  0  0  0
    1.1201    1.3192   -1.5316 H   0  0  0  0  0  0  0  0  0  0  0  0
    0.0840    3.2083   -2.6975 H   0  0  0  0  0  0  0  0  0  0  0  0
   -0.8132    5.5067   -2.5767 H   0  0  0  0  0  0  0  0  0  0  0  0
   -1.4574    6.4797   -0.3903 H   0  0  0  0  0  0  0  0  0  0  0  0
   -1.2014    5.1489    1.6855 H   0  0  0  0  0  0  0  0  0  0  0  0
   -0.3070    2.8482    1.5850 H   0  0  0  0  0  0  0  0  0  0  0  0
   -0.1057   -1.6206   -1.2579 H   0  0  0  0  0  0  0  0  0  0  0  0
  1  2  1  0
  2  3  1  0
  2  4  1  0
  2  5  1  0
  5  6  1  0
  6  7  2  0
  6  8  1  0
  8  9  1  0
  9 10  1  0
 10 11  1  0
 11 12  2  0
 12 13  1  0
 13 14  2  0
 14 15  1  0
 15 16  2  0
 14 17  1  0
 17 18  1  0
 18 19  2  0
 19 20  1  0
 20 21  2  0
 21 22  1  0
 22 23  2  0
 21 24  1  0
 24 25  2  0
 24 26  1  0
 26 27  1  0
 27 28  1  0
 28 29  2  0
 28 30  1  0
 30 31  1  0
 31 32  1  0
 32 33  2  0
 33 34  1  0
 34 35  2  0
 35 36  1  0
 36 37  2  0
 30 38  1  0
 38 39  1  0
 39 40  2  0
 39  9  1  0
 16 11  1  0
 23 18  1  0
 37 32  1  0
  1 41  1  0
  1 42  1  0
  1 43  1  0
  3 44  1  0
  3 45  1  0
  3 46  1  0
  4 47  1  0
  4 48  1  0
  4 49  1  0
  8 50  1  0
  9 51  1  6
 10 52  1  0
 10 53  1  0
 12 54  1  0
 13 55  1  0
 15 56  1  0
 16 57  1  0
 19 58  1  0
 20 59  1  0
 22 60  1  0
 23 61  1  0
 26 62  1  0
 26 63  1  0
 27 64  1  0
 30 65  1  1
 31 66  1  0
 31 67  1  0
 33 68  1  0
 34 69  1  0
 35 70  1  0
 36 71  1  0
 37 72  1  0
 38 73  1  0
M  END
$$$$
