
     RDKit          3D

 84 88  0  0  0  0  0  0  0  0999 V2000
   -1.5706    3.8636   -0.8781 O   0  0  0  0  0  0  0  0  0  0  0  0
   -1.4997    2.8952   -1.6818 C   0  0  0  0  0  0  0  0  0  0  0  0
   -2.6173    2.6846   -2.6681 C   0  0  0  0  0  0  0  0  0  0  0  0
   -3.3402    1.4339   -2.4348 N   0  0  0  0  0  0  0  0  0  0  0  0
   -4.1112    1.1898   -1.2524 C   0  0  0  0  0  0  0  0  0  0  0  0
   -3.7322    1.7178   -0.0616 N   0  0  0  0  0  0  0  0  0  0  0  0
   -4.4359    1.4412    1.0660 C   0  0  0  0  0  0  0  0  0  0  0  0
   -5.5387    0.6556    0.9957 N   0  0  0  0  0  0  0  0  0  0  0  0
   -5.9360    0.1306   -0.1937 C   0  0  0  0  0  0  0  0  0  0  0  0
   -7.1106   -0.7031   -0.2592 N   0  0  0  0  0  0  0  0  0  0  0  0
   -7.6899   -1.2303    0.9861 C   0  0  0  0  0  0  0  0  0  0  0  0
   -8.7636   -2.2881    0.7054 C   0  0  0  0  0  0  0  0  0  0  0  0
   -9.8202   -1.7654   -0.2775 C   0  0  0  0  0  0  0  0  0  0  0  0
   -9.2247   -1.0069   -1.4851 C   0  0  0  0  0  0  0  0  0  0  0  0
   -7.6945   -1.0816   -1.5550 C   0  0  0  0  0  0  0  0  0  0  0  0
   -5.2064    0.3889   -1.3127 N   0  0  0  0  0  0  0  0  0  0  0  0
   -3.9865    1.9281    2.3354 N   0  0  0  0  0  0  0  0  0  0  0  0
   -2.7748    2.6265    2.4675 N   0  0  0  0  0  0  0  0  0  0  0  0
   -1.6025    2.1152    2.2273 C   0  0  0  0  0  0  0  0  0  0  0  0
   -1.3617    0.6523    1.9510 C   0  0  0  0  0  0  0  0  0  0  0  0
   -0.9762   -0.1063    3.2264 C   0  0  0  0  0  0  0  0  0  0  0  0
    0.1634    0.5101    3.9080 N   0  0  0  0  0  0  0  0  0  0  0  0
    1.5129    0.5210    3.4099 C   0  0  0  0  0  0  0  0  0  0  0  0
    2.3552    1.2760    3.9666 O   0  0  0  0  0  0  0  0  0  0  0  0
    1.9265   -0.2815    2.2025 C   0  0  0  0  0  0  0  0  0  0  0  0
    3.3614   -0.5698    2.2121 N   0  0  0  0  0  0  0  0  0  0  0  0
    4.0875   -0.7976    1.0002 C   0  0  0  0  0  0  0  0  0  0  0  0
    3.4339   -1.0930   -0.1544 N   0  0  0  0  0  0  0  0  0  0  0  0
    4.1250   -1.2407   -1.3137 C   0  0  0  0  0  0  0  0  0  0  0  0
    5.4754   -1.0958   -1.3120 N   0  0  0  0  0  0  0  0  0  0  0  0
    6.1417   -0.8192   -0.1588 C   0  0  0  0  0  0  0  0  0  0  0  0
    7.5769   -0.6631   -0.1562 N   0  0  0  0  0  0  0  0  0  0  0  0
    8.3675   -0.9021   -1.3741 C   0  0  0  0  0  0  0  0  0  0  0  0
    9.6509   -1.6815   -1.0474 C   0  0  0  0  0  0  0  0  0  0  0  0
   10.3646   -1.2031    0.2373 C   0  0  0  0  0  0  0  0  0  0  0  0
    9.7411    0.0600    0.8381 C   0  0  0  0  0  0  0  0  0  0  0  0
    8.2364   -0.1380    1.0514 C   0  0  0  0  0  0  0  0  0  0  0  0
    5.4379   -0.6730    0.9952 N   0  0  0  0  0  0  0  0  0  0  0  0
    3.4474   -1.5484   -2.5385 N   0  0  0  0  0  0  0  0  0  0  0  0
    2.1479   -2.0844   -2.5538 N   0  0  0  0  0  0  0  0  0  0  0  0
    1.0702   -1.3862   -2.3535 C   0  0  0  0  0  0  0  0  0  0  0  0
    1.0948    0.0974   -2.1076 C   0  0  0  0  0  0  0  0  0  0  0  0
   -0.3100    0.7078   -2.2118 C   0  0  0  0  0  0  0  0  0  0  0  0
   -0.3302    2.0651   -1.6661 N   0  0  0  0  0  0  0  0  0  0  0  0
   -2.1942    2.6811   -3.6956 H   0  0  0  0  0  0  0  0  0  0  0  0
   -3.3347    3.5314   -2.6106 H   0  0  0  0  0  0  0  0  0  0  0  0
   -3.4559    0.7805   -3.2421 H   0  0  0  0  0  0  0  0  0  0  0  0
   -6.8902   -1.6950    1.6028 H   0  0  0  0  0  0  0  0  0  0  0  0
   -8.1390   -0.3943    1.5647 H   0  0  0  0  0  0  0  0  0  0  0  0
   -8.2807   -3.1940    0.2788 H   0  0  0  0  0  0  0  0  0  0  0  0
   -9.2542   -2.5854    1.6574 H   0  0  0  0  0  0  0  0  0  0  0  0
  -10.4206   -2.6264   -0.6417 H   0  0  0  0  0  0  0  0  0  0  0  0
  -10.5138   -1.0879    0.2687 H   0  0  0  0  0  0  0  0  0  0  0  0
   -9.5179    0.0647   -1.4169 H   0  0  0  0  0  0  0  0  0  0  0  0
   -9.6518   -1.4073   -2.4317 H   0  0  0  0  0  0  0  0  0  0  0  0
   -7.3519   -0.4024   -2.3645 H   0  0  0  0  0  0  0  0  0  0  0  0
   -7.3752   -2.1132   -1.8152 H   0  0  0  0  0  0  0  0  0  0  0  0
   -4.6779    1.9764    3.1173 H   0  0  0  0  0  0  0  0  0  0  0  0
   -0.7350    2.7472    2.3559 H   0  0  0  0  0  0  0  0  0  0  0  0
   -0.5599    0.5661    1.1926 H   0  0  0  0  0  0  0  0  0  0  0  0
   -2.2466    0.1557    1.5124 H   0  0  0  0  0  0  0  0  0  0  0  0
   -1.8496   -0.1038    3.9125 H   0  0  0  0  0  0  0  0  0  0  0  0
   -0.7555   -1.1691    2.9914 H   0  0  0  0  0  0  0  0  0  0  0  0
   -0.0255    1.0153    4.8028 H   0  0  0  0  0  0  0  0  0  0  0  0
    1.3726   -1.2415    2.1553 H   0  0  0  0  0  0  0  0  0  0  0  0
    1.6869    0.3225    1.3042 H   0  0  0  0  0  0  0  0  0  0  0  0
    3.8903   -0.5721    3.1131 H   0  0  0  0  0  0  0  0  0  0  0  0
    7.7931   -1.4824   -2.1276 H   0  0  0  0  0  0  0  0  0  0  0  0
    8.6311    0.0764   -1.8306 H   0  0  0  0  0  0  0  0  0  0  0  0
    9.3946   -2.7577   -0.9353 H   0  0  0  0  0  0  0  0  0  0  0  0
   10.3447   -1.6005   -1.9123 H   0  0  0  0  0  0  0  0  0  0  0  0
   10.3248   -2.0134    0.9985 H   0  0  0  0  0  0  0  0  0  0  0  0
   11.4374   -1.0098    0.0215 H   0  0  0  0  0  0  0  0  0  0  0  0
    9.9129    0.9246    0.1586 H   0  0  0  0  0  0  0  0  0  0  0  0
   10.2269    0.2901    1.8112 H   0  0  0  0  0  0  0  0  0  0  0  0
    7.7833    0.8380    1.3324 H   0  0  0  0  0  0  0  0  0  0  0  0
    8.0812   -0.8488    1.8923 H   0  0  0  0  0  0  0  0  0  0  0  0
    4.0400   -1.6992   -3.3849 H   0  0  0  0  0  0  0  0  0  0  0  0
    0.1177   -1.8981   -2.4045 H   0  0  0  0  0  0  0  0  0  0  0  0
    1.4966    0.2812   -1.0920 H   0  0  0  0  0  0  0  0  0  0  0  0
    1.7587    0.5911   -2.8483 H   0  0  0  0  0  0  0  0  0  0  0  0
   -0.6126    0.7282   -3.2795 H   0  0  0  0  0  0  0  0  0  0  0  0
   -1.0374    0.0904   -1.6423 H   0  0  0  0  0  0  0  0  0  0  0  0
    0.5025    2.4211   -1.1431 H   0  0  0  0  0  0  0  0  0  0  0  0
  1  2  2  0
  2  3  1  0
  3  4  1  0
  4  5  1  0
  5  6  1  0
  6  7  2  0
  7  8  1  0
  8  9  2  0
  9 10  1  0
 10 11  1  0
 11 12  1  0
 12 13  1  0
 13 14  1  0
 14 15  1  0
  9 16  1  0
  7 17  1  0
 17 18  1  0
 18 19  2  0
 19 20  1  0
 20 21  1  0
 21 22  1  0
 22 23  1  0
 23 24  2  0
 23 25  1  0
 25 26  1  0
 26 27  1  0
 27 28  1  0
 28 29  2  0
 29 30  1  0
 30 31  2  0
 31 32  1  0
 32 33  1  0
 33 34  1  0
 34 35  1  0
 35 36  1  0
 36 37  1  0
 31 38  1  0
 29 39  1  0
 39 40  1  0
 40 41  2  0
 41 42  1  0
 42 43  1  0
 43 44  1  0
 44  2  1  0
 16  5  2  0
 38 27  2  0
 15 10  1  0
 37 32  1  0
  3 45  1  0
  3 46  1  0
  4 47  1  0
 11 48  1  0
 11 49  1  0
 12 50  1  0
 12 51  1  0
 13 52  1  0
 13 53  1  0
 14 54  1  0
 14 55  1  0
 15 56  1  0
 15 57  1  0
 17 58  1  0
 19 59  1  0
 20 60  1  0
 20 61  1  0
 21 62  1  0
 21 63  1  0
 22 64  1  0
 25 65  1  0
 25 66  1  0
 26 67  1  0
 33 68  1  0
 33 69  1  0
 34 70  1  0
 34 71  1  0
 35 72  1  0
 35 73  1  0
 36 74  1  0
 36 75  1  0
 37 76  1  0
 37 77  1  0
 39 78  1  0
 41 79  1  0
 42 80  1  0
 42 81  1  0
 43 82  1  0
 43 83  1  0
 44 84  1  0
M  END
$$$$
