
     RDKit          3D

 68 71  0  0  0  0  0  0  0  0999 V2000
    8.1644   -0.2801    0.0840 C   0  0  0  0  0  0  0  0  0  0  0  0
    6.6858   -0.4731   -0.0903 C   0  0  0  0  0  0  0  0  0  0  0  0
    6.1899   -1.6235   -0.7168 C   0  0  0  0  0  0  0  0  0  0  0  0
    4.8155   -1.8027   -0.8844 C   0  0  0  0  0  0  0  0  0  0  0  0
    3.9085   -0.8270   -0.4296 C   0  0  0  0  0  0  0  0  0  0  0  0
    4.4063    0.3687    0.1562 C   0  0  0  0  0  0  0  0  0  0  0  0
    5.7965    0.5276    0.3208 C   0  0  0  0  0  0  0  0  0  0  0  0
    3.4675    1.5139    0.5291 C   0  0  0  0  0  0  0  0  0  0  0  0
    2.7834    2.0616   -0.7575 C   0  0  0  0  0  0  0  0  0  0  0  0
    1.5850    2.9718   -0.4677 C   0  0  0  0  0  0  0  0  0  0  0  0
    0.6004    2.3009    0.4973 C   0  0  0  0  0  0  0  0  0  0  0  0
    1.3174    2.0732    1.8374 C   0  0  0  0  0  0  0  0  0  0  0  0
    2.4924    1.0997    1.6728 C   0  0  0  0  0  0  0  0  0  0  0  0
    0.1985    1.0517   -0.0427 O   0  0  0  0  0  0  0  0  0  0  0  0
   -1.1853    0.8327    0.0961 C   0  0  0  0  0  0  0  0  0  0  0  0
   -1.4814   -0.6732   -0.0965 C   0  0  1  0  0  0  0  0  0  0  0  0
   -2.9984   -1.0771   -0.1921 C   0  0  1  0  0  0  0  0  0  0  0  0
   -3.8647   -0.1069   -0.8952 N   0  0  0  0  0  0  0  0  0  0  0  0
   -4.7236    0.9799    0.1681 S   0  0  0  0  0  6  0  0  0  0  0  0
   -4.7946    2.3387   -0.4766 O   0  0  0  0  0  0  0  0  0  0  0  0
   -4.0296    1.1087    1.4971 O   0  0  0  0  0  0  0  0  0  0  0  0
   -6.3951    0.3587    0.4242 C   0  0  0  0  0  0  0  0  0  0  0  0
   -7.2321    1.3953    1.1778 C   0  0  0  0  0  0  0  0  0  0  0  0
   -6.3637   -0.9669    1.1956 C   0  0  0  0  0  0  0  0  0  0  0  0
   -3.1164   -2.4277   -0.9198 C   0  0  0  0  0  0  0  0  0  0  0  0
   -2.5606   -2.3677   -2.3643 C   0  0  0  0  0  0  0  0  0  0  0  0
   -1.3545   -1.4188   -2.5126 C   0  0  0  0  0  0  0  0  0  0  0  0
   -0.6932   -1.2316   -1.2191 N   0  0  0  0  0  0  0  0  0  0  0  0
    0.4390   -2.0721   -0.9330 C   0  0  0  0  0  0  0  0  0  0  0  0
    0.3117   -3.0483   -0.1441 O   0  0  0  0  0  0  0  0  0  0  0  0
    1.7938   -1.7532   -1.4816 C   0  0  0  0  0  0  0  0  0  0  0  0
    2.5151   -1.0407   -0.4764 O   0  0  0  0  0  0  0  0  0  0  0  0
    8.6996   -1.2547    0.0713 H   0  0  0  0  0  0  0  0  0  0  0  0
    8.3772    0.2202    1.0547 H   0  0  0  0  0  0  0  0  0  0  0  0
    8.5589    0.3532   -0.7394 H   0  0  0  0  0  0  0  0  0  0  0  0
    6.8633   -2.3954   -1.0629 H   0  0  0  0  0  0  0  0  0  0  0  0
    4.4700   -2.7230   -1.3351 H   0  0  0  0  0  0  0  0  0  0  0  0
    6.1882    1.4298    0.7708 H   0  0  0  0  0  0  0  0  0  0  0  0
    4.0669    2.3593    0.9389 H   0  0  0  0  0  0  0  0  0  0  0  0
    2.4377    1.2400   -1.4225 H   0  0  0  0  0  0  0  0  0  0  0  0
    3.5400    2.6403   -1.3393 H   0  0  0  0  0  0  0  0  0  0  0  0
    1.0696    3.2032   -1.4247 H   0  0  0  0  0  0  0  0  0  0  0  0
    1.9412    3.9341   -0.0394 H   0  0  0  0  0  0  0  0  0  0  0  0
   -0.2506    3.0097    0.6520 H   0  0  0  0  0  0  0  0  0  0  0  0
    1.6893    3.0406    2.2332 H   0  0  0  0  0  0  0  0  0  0  0  0
    0.5987    1.6604    2.5795 H   0  0  0  0  0  0  0  0  0  0  0  0
    3.0611    1.0596    2.6316 H   0  0  0  0  0  0  0  0  0  0  0  0
    2.0762    0.0815    1.5278 H   0  0  0  0  0  0  0  0  0  0  0  0
   -1.7107    1.4500   -0.6604 H   0  0  0  0  0  0  0  0  0  0  0  0
   -1.5291    1.1175    1.1163 H   0  0  0  0  0  0  0  0  0  0  0  0
   -1.1198   -1.1479    0.8456 H   0  0  0  0  0  0  0  0  0  0  0  0
   -3.3749   -1.2418    0.8427 H   0  0  0  0  0  0  0  0  0  0  0  0
   -3.3604    0.4350   -1.6276 H   0  0  0  0  0  0  0  0  0  0  0  0
   -6.8607    0.1765   -0.5705 H   0  0  0  0  0  0  0  0  0  0  0  0
   -8.2614    1.0093    1.3601 H   0  0  0  0  0  0  0  0  0  0  0  0
   -6.7661    1.6306    2.1638 H   0  0  0  0  0  0  0  0  0  0  0  0
   -7.3113    2.3341    0.5926 H   0  0  0  0  0  0  0  0  0  0  0  0
   -5.7729   -1.7229    0.6414 H   0  0  0  0  0  0  0  0  0  0  0  0
   -7.3925   -1.3641    1.3024 H   0  0  0  0  0  0  0  0  0  0  0  0
   -5.9140   -0.8249    2.2023 H   0  0  0  0  0  0  0  0  0  0  0  0
   -2.5632   -3.2044   -0.3450 H   0  0  0  0  0  0  0  0  0  0  0  0
   -4.1809   -2.7485   -0.9412 H   0  0  0  0  0  0  0  0  0  0  0  0
   -3.3658   -2.0373   -3.0592 H   0  0  0  0  0  0  0  0  0  0  0  0
   -2.2547   -3.3945   -2.6703 H   0  0  0  0  0  0  0  0  0  0  0  0
   -0.6480   -1.8299   -3.2678 H   0  0  0  0  0  0  0  0  0  0  0  0
   -1.6864   -0.4306   -2.8952 H   0  0  0  0  0  0  0  0  0  0  0  0
    2.2923   -2.7130   -1.7314 H   0  0  0  0  0  0  0  0  0  0  0  0
    1.7154   -1.1444   -2.4089 H   0  0  0  0  0  0  0  0  0  0  0  0
  1  2  1  0
  2  3  2  0
  3  4  1  0
  4  5  2  0
  5  6  1  0
  6  7  2  0
  6  8  1  0
  8  9  1  0
  9 10  1  0
 10 11  1  0
 11 12  1  0
 12 13  1  0
 11 14  1  0
 14 15  1  0
 15 16  1  0
 16 17  1  0
 17 18  1  0
 18 19  1  0
 19 20  2  0
 19 21  2  0
 19 22  1  0
 22 23  1  0
 22 24  1  0
 17 25  1  0
 25 26  1  0
 26 27  1  0
 27 28  1  0
 28 29  1  0
 29 30  2  0
 29 31  1  0
 31 32  1  0
  7  2  1  0
 13  8  1  0
 28 16  1  0
 32  5  1  0
  1 33  1  0
  1 34  1  0
  1 35  1  0
  3 36  1  0
  4 37  1  0
  7 38  1  0
  8 39  1  0
  9 40  1  0
  9 41  1  0
 10 42  1  0
 10 43  1  0
 11 44  1  0
 12 45  1  0
 12 46  1  0
 13 47  1  0
 13 48  1  0
 15 49  1  0
 15 50  1  0
 16 51  1  1
 17 52  1  1
 18 53  1  0
 22 54  1  0
 23 55  1  0
 23 56  1  0
 23 57  1  0
 24 58  1  0
 24 59  1  0
 24 60  1  0
 25 61  1  0
 25 62  1  0
 26 63  1  0
 26 64  1  0
 27 65  1  0
 27 66  1  0
 31 67  1  0
 31 68  1  0
M  END
$$$$
