
     RDKit          3D

 69 71  0  0  0  0  0  0  0  0999 V2000
    8.1949    0.4525   -1.7269 C   0  0  0  0  0  0  0  0  0  0  0  0
    6.8639   -0.1220   -1.3415 C   0  0  0  0  0  0  0  0  0  0  0  0
    5.7076    0.2198   -2.0590 C   0  0  0  0  0  0  0  0  0  0  0  0
    4.4703   -0.3326   -1.7088 C   0  0  0  0  0  0  0  0  0  0  0  0
    4.3742   -1.2416   -0.6396 C   0  0  0  0  0  0  0  0  0  0  0  0
    3.0286   -1.7895   -0.2071 C   0  0  0  0  0  0  0  0  0  0  0  0
    2.3021   -0.9000    0.7303 N   0  0  0  0  0  0  0  0  0  0  0  0
    3.0767   -0.6330    1.9550 C   0  0  0  0  0  0  0  0  0  0  0  0
    1.8277    0.3401    0.0716 C   0  0  0  0  0  0  0  0  0  0  0  0
    0.6296    0.9837    0.8046 C   0  0  1  0  0  0  0  0  0  0  0  0
    0.2362    2.1134    0.0281 O   0  0  0  0  0  0  0  0  0  0  0  0
   -0.3250    3.1754    0.7831 C   0  0  0  0  0  0  0  0  0  0  0  0
   -1.7210    3.4293    0.2988 C   0  0  0  0  0  0  0  0  0  0  0  0
   -2.8806    3.0498    0.9422 C   0  0  0  0  0  0  0  0  0  0  0  0
   -3.8562    3.1026    0.0229 N   0  0  0  0  0  0  0  0  0  0  0  0
   -3.3387    3.5408   -1.1148 N   0  0  0  0  0  0  0  0  0  0  0  0
   -2.0313    3.7315   -0.9799 N   0  0  0  0  0  0  0  0  0  0  0  0
   -5.2153    2.5918    0.1903 C   0  0  0  0  0  0  0  0  0  0  0  0
   -5.5840    1.5312   -0.8675 C   0  0  0  0  0  0  0  0  0  0  0  0
   -4.5025    0.4720   -1.1733 C   0  0  0  0  0  0  0  0  0  0  0  0
   -3.9996   -0.3072    0.0210 C   0  0  0  0  0  0  0  0  0  0  0  0
   -4.7660   -0.5290    0.9966 O   0  0  0  0  0  0  0  0  0  0  0  0
   -2.6904   -0.9218   -0.0139 N   0  0  0  0  0  0  0  0  0  0  0  0
   -2.5354   -2.3938   -0.0643 C   0  0  1  0  0  0  0  0  0  0  0  0
   -2.9098   -3.0607    1.2681 C   0  0  0  0  0  0  0  0  0  0  0  0
   -3.3120   -3.0035   -1.2466 C   0  0  0  0  0  0  0  0  0  0  0  0
   -4.6951   -2.9486   -1.0251 O   0  0  0  0  0  0  0  0  0  0  0  0
   -1.5113   -0.0641   -0.2216 C   0  0  0  0  0  0  0  0  0  0  0  0
   -0.5441   -0.0494    0.9897 C   0  0  2  0  0  0  0  0  0  0  0  0
   -1.2492    0.1722    2.3381 C   0  0  0  0  0  0  0  0  0  0  0  0
    5.5406   -1.6095    0.0514 C   0  0  0  0  0  0  0  0  0  0  0  0
    6.7772   -1.0627   -0.3031 C   0  0  0  0  0  0  0  0  0  0  0  0
    8.8505    0.5464   -0.8340 H   0  0  0  0  0  0  0  0  0  0  0  0
    8.6840   -0.2135   -2.4669 H   0  0  0  0  0  0  0  0  0  0  0  0
    8.0710    1.4629   -2.1721 H   0  0  0  0  0  0  0  0  0  0  0  0
    5.7616    0.9191   -2.8863 H   0  0  0  0  0  0  0  0  0  0  0  0
    3.5883   -0.0520   -2.2712 H   0  0  0  0  0  0  0  0  0  0  0  0
    2.4023   -1.9889   -1.1044 H   0  0  0  0  0  0  0  0  0  0  0  0
    3.1632   -2.7858    0.2700 H   0  0  0  0  0  0  0  0  0  0  0  0
    3.4472   -1.5874    2.3877 H   0  0  0  0  0  0  0  0  0  0  0  0
    3.9423    0.0313    1.7501 H   0  0  0  0  0  0  0  0  0  0  0  0
    2.4334   -0.1680    2.7284 H   0  0  0  0  0  0  0  0  0  0  0  0
    1.4951    0.1201   -0.9681 H   0  0  0  0  0  0  0  0  0  0  0  0
    2.6543    1.0831    0.0037 H   0  0  0  0  0  0  0  0  0  0  0  0
    1.0190    1.3028    1.7968 H   0  0  0  0  0  0  0  0  0  0  0  0
    0.2745    4.0887    0.5883 H   0  0  0  0  0  0  0  0  0  0  0  0
   -0.3193    3.0234    1.8850 H   0  0  0  0  0  0  0  0  0  0  0  0
   -3.0094    2.7048    1.9571 H   0  0  0  0  0  0  0  0  0  0  0  0
   -5.3317    2.1500    1.2053 H   0  0  0  0  0  0  0  0  0  0  0  0
   -5.9315    3.4393    0.1185 H   0  0  0  0  0  0  0  0  0  0  0  0
   -5.8136    2.0586   -1.8194 H   0  0  0  0  0  0  0  0  0  0  0  0
   -6.5183    1.0208   -0.5467 H   0  0  0  0  0  0  0  0  0  0  0  0
   -3.6615    0.9540   -1.7093 H   0  0  0  0  0  0  0  0  0  0  0  0
   -4.9353   -0.2563   -1.8919 H   0  0  0  0  0  0  0  0  0  0  0  0
   -1.4629   -2.6367   -0.2424 H   0  0  0  0  0  0  0  0  0  0  0  0
   -2.7771   -4.1609    1.1877 H   0  0  0  0  0  0  0  0  0  0  0  0
   -2.2410   -2.7033    2.0768 H   0  0  0  0  0  0  0  0  0  0  0  0
   -3.9625   -2.8568    1.5492 H   0  0  0  0  0  0  0  0  0  0  0  0
   -3.0558   -2.4484   -2.1777 H   0  0  0  0  0  0  0  0  0  0  0  0
   -2.9975   -4.0640   -1.3797 H   0  0  0  0  0  0  0  0  0  0  0  0
   -5.1194   -3.3947   -1.8051 H   0  0  0  0  0  0  0  0  0  0  0  0
   -0.9631   -0.4136   -1.1231 H   0  0  0  0  0  0  0  0  0  0  0  0
   -1.8334    0.9604   -0.4487 H   0  0  0  0  0  0  0  0  0  0  0  0
   -0.1280   -1.0760    1.0608 H   0  0  0  0  0  0  0  0  0  0  0  0
   -1.5376    1.2212    2.4800 H   0  0  0  0  0  0  0  0  0  0  0  0
   -2.1555   -0.4540    2.4465 H   0  0  0  0  0  0  0  0  0  0  0  0
   -0.5511   -0.0870    3.1651 H   0  0  0  0  0  0  0  0  0  0  0  0
    5.4926   -2.3155    0.8720 H   0  0  0  0  0  0  0  0  0  0  0  0
    7.6637   -1.3613    0.2434 H   0  0  0  0  0  0  0  0  0  0  0  0
  1  2  1  0
  2  3  2  0
  3  4  1  0
  4  5  2  0
  5  6  1  0
  6  7  1  0
  7  8  1  0
  7  9  1  0
  9 10  1  0
 10 11  1  0
 11 12  1  0
 12 13  1  0
 13 14  2  0
 14 15  1  0
 15 16  1  0
 16 17  2  0
 15 18  1  0
 18 19  1  0
 19 20  1  0
 20 21  1  0
 21 22  2  0
 21 23  1  0
 23 24  1  0
 24 25  1  0
 24 26  1  0
 26 27  1  0
 23 28  1  0
 28 29  1  0
 29 30  1  0
  5 31  1  0
 31 32  2  0
 32  2  1  0
 29 10  1  0
 17 13  1  0
  1 33  1  0
  1 34  1  0
  1 35  1  0
  3 36  1  0
  4 37  1  0
  6 38  1  0
  6 39  1  0
  8 40  1  0
  8 41  1  0
  8 42  1  0
  9 43  1  0
  9 44  1  0
 10 45  1  1
 12 46  1  0
 12 47  1  0
 14 48  1  0
 18 49  1  0
 18 50  1  0
 19 51  1  0
 19 52  1  0
 20 53  1  0
 20 54  1  0
 24 55  1  6
 25 56  1  0
 25 57  1  0
 25 58  1  0
 26 59  1  0
 26 60  1  0
 27 61  1  0
 28 62  1  0
 28 63  1  0
 29 64  1  1
 30 65  1  0
 30 66  1  0
 30 67  1  0
 31 68  1  0
 32 69  1  0
M  END
$$$$
