
     RDKit          3D

 59 62  0  0  0  0  0  0  0  0999 V2000
    2.4986    0.6046   -2.9272 C   0  0  0  0  0  0  0  0  0  0  0  0
    4.0676    0.6691   -2.0884 S   0  0  0  0  0  6  0  0  0  0  0  0
    4.6575    2.0392   -2.2678 O   0  0  0  0  0  0  0  0  0  0  0  0
    4.9980   -0.3462   -2.6907 O   0  0  0  0  0  0  0  0  0  0  0  0
    3.8794    0.3534   -0.3874 N   0  0  0  0  0  0  0  0  0  0  0  0
    3.2822   -0.9762   -0.1308 C   0  0  1  0  0  0  0  0  0  0  0  0
    4.1518   -1.7181    0.9151 C   0  0  0  0  0  0  0  0  0  0  0  0
    3.6435   -1.5995    2.3624 C   0  0  0  0  0  0  0  0  0  0  0  0
    2.8398   -0.3210    2.5898 C   0  0  0  0  0  0  0  0  0  0  0  0
    1.6899   -0.2702    1.6750 N   0  0  0  0  0  0  0  0  0  0  0  0
    0.4381    0.2449    2.1806 C   0  0  0  0  0  0  0  0  0  0  0  0
   -0.0360   -0.2330    3.2463 O   0  0  0  0  0  0  0  0  0  0  0  0
   -0.2986    1.3811    1.5208 C   0  0  0  0  0  0  0  0  0  0  0  0
   -1.6184    0.9446    1.1859 O   0  0  0  0  0  0  0  0  0  0  0  0
   -2.7001    1.7524    0.7993 C   0  0  0  0  0  0  0  0  0  0  0  0
   -2.8962    3.0176    1.3791 C   0  0  0  0  0  0  0  0  0  0  0  0
   -4.0101    3.7852    1.0411 C   0  0  0  0  0  0  0  0  0  0  0  0
   -4.9385    3.3054    0.1199 C   0  0  0  0  0  0  0  0  0  0  0  0
   -4.7554    2.0593   -0.4833 C   0  0  0  0  0  0  0  0  0  0  0  0
   -5.6624    1.6466   -1.4051 F   0  0  0  0  0  0  0  0  0  0  0  0
   -3.6383    1.2610   -0.1555 C   0  0  0  0  0  0  0  0  0  0  0  0
   -3.3653   -0.0224   -0.9491 C   0  0  0  0  0  0  0  0  0  0  0  0
   -3.2536   -1.2717   -0.0000 C   0  0  0  0  0  0  0  0  0  0  0  0
   -2.1431   -2.2847   -0.3417 C   0  0  0  0  0  0  0  0  0  0  0  0
   -0.9034   -1.5403   -0.8238 C   0  0  0  0  0  0  0  0  0  0  0  0
   -1.2305   -0.9128   -2.1700 C   0  0  0  0  0  0  0  0  0  0  0  0
   -2.1913    0.2559   -1.9479 C   0  0  0  0  0  0  0  0  0  0  0  0
    0.2449   -2.3687   -0.9144 O   0  0  0  0  0  0  0  0  0  0  0  0
    1.0501   -2.2297    0.2517 C   0  0  0  0  0  0  0  0  0  0  0  0
    1.7938   -0.8513    0.3152 C   0  0  0  0  0  0  0  0  0  0  0  0
    2.1138   -0.4352   -2.9173 H   0  0  0  0  0  0  0  0  0  0  0  0
    1.7757    1.2757   -2.4191 H   0  0  0  0  0  0  0  0  0  0  0  0
    2.6270    0.9331   -3.9788 H   0  0  0  0  0  0  0  0  0  0  0  0
    3.2981    1.1251    0.0131 H   0  0  0  0  0  0  0  0  0  0  0  0
    3.3078   -1.5937   -1.0576 H   0  0  0  0  0  0  0  0  0  0  0  0
    5.1971   -1.3402    0.8648 H   0  0  0  0  0  0  0  0  0  0  0  0
    4.2044   -2.7977    0.6530 H   0  0  0  0  0  0  0  0  0  0  0  0
    4.5049   -1.6275    3.0643 H   0  0  0  0  0  0  0  0  0  0  0  0
    2.9934   -2.4712    2.5964 H   0  0  0  0  0  0  0  0  0  0  0  0
    2.5038   -0.3042    3.6497 H   0  0  0  0  0  0  0  0  0  0  0  0
    3.4839    0.5695    2.4277 H   0  0  0  0  0  0  0  0  0  0  0  0
    0.2280    1.7147    0.6025 H   0  0  0  0  0  0  0  0  0  0  0  0
   -0.3297    2.2248    2.2387 H   0  0  0  0  0  0  0  0  0  0  0  0
   -2.2108    3.4045    2.1189 H   0  0  0  0  0  0  0  0  0  0  0  0
   -4.1583    4.7536    1.5015 H   0  0  0  0  0  0  0  0  0  0  0  0
   -5.7990    3.9093   -0.1385 H   0  0  0  0  0  0  0  0  0  0  0  0
   -4.2424   -0.2465   -1.5954 H   0  0  0  0  0  0  0  0  0  0  0  0
   -4.2251   -1.8132   -0.0011 H   0  0  0  0  0  0  0  0  0  0  0  0
   -3.1136   -0.9610    1.0560 H   0  0  0  0  0  0  0  0  0  0  0  0
   -2.4995   -2.9973   -1.1179 H   0  0  0  0  0  0  0  0  0  0  0  0
   -1.9001   -2.8776    0.5664 H   0  0  0  0  0  0  0  0  0  0  0  0
   -0.7370   -0.7135   -0.1238 H   0  0  0  0  0  0  0  0  0  0  0  0
   -0.3020   -0.5303   -2.6436 H   0  0  0  0  0  0  0  0  0  0  0  0
   -1.6794   -1.6573   -2.8640 H   0  0  0  0  0  0  0  0  0  0  0  0
   -1.5754    1.1156   -1.6003 H   0  0  0  0  0  0  0  0  0  0  0  0
   -2.6085    0.5663   -2.9311 H   0  0  0  0  0  0  0  0  0  0  0  0
    1.7815   -3.0640    0.2576 H   0  0  0  0  0  0  0  0  0  0  0  0
    0.4365   -2.3918    1.1676 H   0  0  0  0  0  0  0  0  0  0  0  0
    1.3308   -0.1444   -0.4021 H   0  0  0  0  0  0  0  0  0  0  0  0
  1  2  1  0
  2  3  2  0
  2  4  2  0
  2  5  1  0
  5  6  1  0
  6  7  1  0
  7  8  1  0
  8  9  1  0
  9 10  1  0
 10 11  1  0
 11 12  2  0
 11 13  1  0
 13 14  1  0
 14 15  1  0
 15 16  2  0
 16 17  1  0
 17 18  2  0
 18 19  1  0
 19 20  1  0
 19 21  2  0
 21 22  1  0
 22 23  1  0
 23 24  1  0
 24 25  1  0
 25 26  1  0
 26 27  1  0
 25 28  1  0
 28 29  1  0
 29 30  1  0
 30  6  1  0
 30 10  1  0
 21 15  1  0
 27 22  1  0
  1 31  1  0
  1 32  1  0
  1 33  1  0
  5 34  1  0
  6 35  1  6
  7 36  1  0
  7 37  1  0
  8 38  1  0
  8 39  1  0
  9 40  1  0
  9 41  1  0
 13 42  1  0
 13 43  1  0
 16 44  1  0
 17 45  1  0
 18 46  1  0
 22 47  1  0
 23 48  1  0
 23 49  1  0
 24 50  1  0
 24 51  1  0
 25 52  1  0
 26 53  1  0
 26 54  1  0
 27 55  1  0
 27 56  1  0
 29 57  1  0
 29 58  1  0
 30 59  1  0
M  END
$$$$
