
     RDKit          3D

 80 84  0  0  0  0  0  0  0  0999 V2000
   -5.4142   -5.3794   -0.2956 C   0  0  0  0  0  0  0  0  0  0  0  0
   -4.5878   -4.2671   -0.9362 C   0  0  0  0  0  0  0  0  0  0  0  0
   -3.3520   -4.1652   -0.2630 O   0  0  0  0  0  0  0  0  0  0  0  0
   -2.4189   -2.9399   -1.0306 P   0  0  0  0  0  5  0  0  0  0  0  0
   -0.9531   -3.2981   -0.9626 O   0  0  0  0  0  0  0  0  0  0  0  0
   -2.8144   -2.7908   -2.6912 O   0  0  0  0  0  0  0  0  0  0  0  0
   -2.7218   -1.3522   -0.2247 C   0  0  0  0  0  0  0  0  0  0  0  0
   -3.8453   -0.6327   -0.6416 C   0  0  0  0  0  0  0  0  0  0  0  0
   -4.1298    0.6187   -0.1368 C   0  0  0  0  0  0  0  0  0  0  0  0
   -3.2781    1.2215    0.8113 C   0  0  0  0  0  0  0  0  0  0  0  0
   -2.2046    0.4678    1.3371 C   0  0  0  0  0  0  0  0  0  0  0  0
   -1.9339   -0.8292    0.8425 C   0  0  0  0  0  0  0  0  0  0  0  0
   -0.9177   -1.7011    1.5699 C   0  0  0  0  0  0  0  0  0  0  0  0
    0.4753   -1.5796    1.0842 N   0  0  0  0  0  0  0  0  0  0  0  0
    1.2809   -2.8050    1.1515 C   0  0  0  0  0  0  0  0  0  0  0  0
    1.1733   -0.3318    1.1540 C   0  0  0  0  0  0  0  0  0  0  0  0
    1.7519   -0.0399    2.2422 O   0  0  0  0  0  0  0  0  0  0  0  0
    1.4616    0.5072   -0.0888 C   0  0  2  0  0  0  0  0  0  0  0  0
    2.9162    0.6213   -0.2904 N   0  0  0  0  0  0  0  0  0  0  0  0
    3.7769   -0.5147   -0.4986 C   0  0  0  0  0  0  0  0  0  0  0  0
    3.3041   -1.7153   -1.0658 C   0  0  0  0  0  0  0  0  0  0  0  0
    4.1056   -2.8528   -1.1105 C   0  0  0  0  0  0  0  0  0  0  0  0
    5.4406   -2.7992   -0.6548 C   0  0  0  0  0  0  0  0  0  0  0  0
    6.2871   -3.9399   -0.6318 C   0  0  0  0  0  0  0  0  0  0  0  0
    5.8751   -5.2172   -1.1435 N   0  0  0  0  0  0  0  0  0  0  0  0
    7.5500   -3.8130   -0.1498 N   0  0  0  0  0  0  0  0  0  0  0  0
    8.0523   -2.6381    0.3012 C   0  0  0  0  0  0  0  0  0  0  0  0
    7.2634   -1.4862    0.2934 C   0  0  0  0  0  0  0  0  0  0  0  0
    5.9464   -1.5693   -0.1505 C   0  0  0  0  0  0  0  0  0  0  0  0
    5.1198   -0.4439   -0.0748 C   0  0  0  0  0  0  0  0  0  0  0  0
    0.8393    1.9021   -0.0069 C   0  0  0  0  0  0  0  0  0  0  0  0
    0.9235    2.6428    1.1835 C   0  0  0  0  0  0  0  0  0  0  0  0
    0.2395    3.8570    1.2996 C   0  0  0  0  0  0  0  0  0  0  0  0
   -0.6462    4.2899    0.2949 C   0  0  0  0  0  0  0  0  0  0  0  0
   -0.7279    3.5189   -0.8959 C   0  0  0  0  0  0  0  0  0  0  0  0
   -1.9925    3.3305   -1.6708 C   0  0  0  0  0  0  0  0  0  0  0  0
    0.1594    2.4547   -1.0960 C   0  0  0  0  0  0  0  0  0  0  0  0
   -1.3380    5.6285    0.5197 C   0  0  1  0  0  0  0  0  0  0  0  0
   -1.2719    6.5400   -0.7233 C   0  0  0  0  0  0  0  0  0  0  0  0
   -2.7653    5.5372    1.0872 C   0  0  0  0  0  0  0  0  0  0  0  0
   -2.8478    4.6900    2.2512 O   0  0  0  0  0  0  0  0  0  0  0  0
   -3.1693    3.3233    2.2651 C   0  0  0  0  0  0  0  0  0  0  0  0
   -3.5642    2.8070    3.3523 O   0  0  0  0  0  0  0  0  0  0  0  0
   -3.4380    2.6396    1.0423 N   0  0  0  0  0  0  0  0  0  0  0  0
   -5.5835   -5.1587    0.7810 H   0  0  0  0  0  0  0  0  0  0  0  0
   -6.3937   -5.4598   -0.8280 H   0  0  0  0  0  0  0  0  0  0  0  0
   -4.8788   -6.3522   -0.3920 H   0  0  0  0  0  0  0  0  0  0  0  0
   -5.1639   -3.3161   -0.8452 H   0  0  0  0  0  0  0  0  0  0  0  0
   -4.4191   -4.5428   -2.0111 H   0  0  0  0  0  0  0  0  0  0  0  0
   -2.4913   -1.8865   -2.9554 H   0  0  0  0  0  0  0  0  0  0  0  0
   -4.4876   -1.0043   -1.4358 H   0  0  0  0  0  0  0  0  0  0  0  0
   -4.9635    1.1706   -0.5690 H   0  0  0  0  0  0  0  0  0  0  0  0
   -1.5875    0.8916    2.1212 H   0  0  0  0  0  0  0  0  0  0  0  0
   -1.2328   -2.7624    1.4532 H   0  0  0  0  0  0  0  0  0  0  0  0
   -0.9728   -1.5198    2.6679 H   0  0  0  0  0  0  0  0  0  0  0  0
    2.2943   -2.5882    1.5396 H   0  0  0  0  0  0  0  0  0  0  0  0
    0.8230   -3.5619    1.8333 H   0  0  0  0  0  0  0  0  0  0  0  0
    1.3802   -3.2483    0.1416 H   0  0  0  0  0  0  0  0  0  0  0  0
    1.0259    0.0040   -0.9898 H   0  0  0  0  0  0  0  0  0  0  0  0
    3.3819    1.5431   -0.0798 H   0  0  0  0  0  0  0  0  0  0  0  0
    2.2871   -1.7974   -1.4145 H   0  0  0  0  0  0  0  0  0  0  0  0
    3.6541   -3.7783   -1.4460 H   0  0  0  0  0  0  0  0  0  0  0  0
    5.0916   -5.3256   -1.8261 H   0  0  0  0  0  0  0  0  0  0  0  0
    6.4492   -6.0719   -0.9423 H   0  0  0  0  0  0  0  0  0  0  0  0
    9.0676   -2.5923    0.6846 H   0  0  0  0  0  0  0  0  0  0  0  0
    7.6833   -0.5506    0.6422 H   0  0  0  0  0  0  0  0  0  0  0  0
    5.4933    0.4980    0.3368 H   0  0  0  0  0  0  0  0  0  0  0  0
    1.5063    2.2931    2.0387 H   0  0  0  0  0  0  0  0  0  0  0  0
    0.3221    4.4164    2.2407 H   0  0  0  0  0  0  0  0  0  0  0  0
   -1.7921    3.3711   -2.7695 H   0  0  0  0  0  0  0  0  0  0  0  0
   -2.8127    4.0203   -1.4436 H   0  0  0  0  0  0  0  0  0  0  0  0
   -2.3315    2.2913   -1.3549 H   0  0  0  0  0  0  0  0  0  0  0  0
    0.1682    2.0132   -2.1104 H   0  0  0  0  0  0  0  0  0  0  0  0
   -0.7556    6.1842    1.2929 H   0  0  0  0  0  0  0  0  0  0  0  0
   -1.9519    6.1593   -1.5200 H   0  0  0  0  0  0  0  0  0  0  0  0
   -0.2195    6.5697   -1.1251 H   0  0  0  0  0  0  0  0  0  0  0  0
   -1.5925    7.5698   -0.4496 H   0  0  0  0  0  0  0  0  0  0  0  0
   -3.5291    5.2905    0.3134 H   0  0  0  0  0  0  0  0  0  0  0  0
   -3.0277    6.5861    1.4229 H   0  0  0  0  0  0  0  0  0  0  0  0
   -4.0506    3.1481    0.3496 H   0  0  0  0  0  0  0  0  0  0  0  0
  1  2  1  0
  2  3  1  0
  3  4  1  0
  4  5  2  0
  4  6  1  0
  4  7  1  0
  7  8  2  0
  8  9  1  0
  9 10  2  0
 10 11  1  0
 11 12  2  0
 12 13  1  0
 13 14  1  0
 14 15  1  0
 14 16  1  0
 16 17  2  0
 16 18  1  0
 18 19  1  0
 19 20  1  0
 20 21  2  0
 21 22  1  0
 22 23  2  0
 23 24  1  0
 24 25  1  0
 24 26  2  0
 26 27  1  0
 27 28  2  0
 28 29  1  0
 29 30  2  0
 18 31  1  0
 31 32  2  0
 32 33  1  0
 33 34  2  0
 34 35  1  0
 35 36  1  0
 35 37  2  0
 34 38  1  0
 38 39  1  0
 38 40  1  0
 40 41  1  0
 41 42  1  0
 42 43  2  0
 42 44  1  0
 12  7  1  0
 30 20  1  0
 37 31  1  0
 44 10  1  0
 29 23  1  0
  1 45  1  0
  1 46  1  0
  1 47  1  0
  2 48  1  0
  2 49  1  0
  6 50  1  0
  8 51  1  0
  9 52  1  0
 11 53  1  0
 13 54  1  0
 13 55  1  0
 15 56  1  0
 15 57  1  0
 15 58  1  0
 18 59  1  6
 19 60  1  0
 21 61  1  0
 22 62  1  0
 25 63  1  0
 25 64  1  0
 27 65  1  0
 28 66  1  0
 30 67  1  0
 32 68  1  0
 33 69  1  0
 36 70  1  0
 36 71  1  0
 36 72  1  0
 37 73  1  0
 38 74  1  1
 39 75  1  0
 39 76  1  0
 39 77  1  0
 40 78  1  0
 40 79  1  0
 44 80  1  0
M  END
$$$$
