
     RDKit          3D

 76 81  0  0  0  0  0  0  0  0999 V2000
   -1.1998    7.5680    0.1462 C   0  0  0  0  0  0  0  0  0  0  0  0
   -1.2099    6.3187    0.8287 O   0  0  0  0  0  0  0  0  0  0  0  0
   -0.4081    5.2150    0.4918 C   0  0  0  0  0  0  0  0  0  0  0  0
    0.5243    5.2781   -0.5593 C   0  0  0  0  0  0  0  0  0  0  0  0
    1.2844    4.1602   -0.9022 C   0  0  0  0  0  0  0  0  0  0  0  0
    1.1543    2.9568   -0.1910 C   0  0  0  0  0  0  0  0  0  0  0  0
    0.2531    2.9054    0.8888 C   0  0  0  0  0  0  0  0  0  0  0  0
   -0.5455    4.0140    1.2203 C   0  0  0  0  0  0  0  0  0  0  0  0
   -1.5656    3.8870    2.3330 C   0  0  0  0  0  0  0  0  0  0  0  0
   -2.7180    2.9269    1.9841 C   0  0  0  0  0  0  0  0  0  0  0  0
   -3.4536    3.2972    0.7129 C   0  0  0  0  0  0  0  0  0  0  0  0
   -3.7263    4.5084    0.4975 O   0  0  0  0  0  0  0  0  0  0  0  0
   -3.9862    2.2994   -0.1788 N   0  0  0  0  0  0  0  0  0  0  0  0
   -3.5169    0.9446   -0.2402 C   0  0  0  0  0  0  0  0  0  0  0  0
   -4.4257   -0.1130   -0.2157 C   0  0  0  0  0  0  0  0  0  0  0  0
   -3.9683   -1.4315   -0.1901 C   0  0  0  0  0  0  0  0  0  0  0  0
   -2.5907   -1.7197   -0.1785 C   0  0  0  0  0  0  0  0  0  0  0  0
   -2.0756   -3.4127   -0.0322 S   0  0  0  0  0  6  0  0  0  0  0  0
   -1.3351   -3.5891    1.2659 O   0  0  0  0  0  0  0  0  0  0  0  0
   -1.1667   -3.7582   -1.1770 O   0  0  0  0  0  0  0  0  0  0  0  0
   -3.4720   -4.5403   -0.1026 C   0  0  0  0  0  0  0  0  0  0  0  0
   -4.1629   -4.7857    1.2295 C   0  0  0  0  0  0  0  0  0  0  0  0
   -3.2705   -5.8596    0.6248 C   0  0  0  0  0  0  0  0  0  0  0  0
   -1.6614   -0.6449   -0.2465 C   0  0  0  0  0  0  0  0  0  0  0  0
   -2.1507    0.6693   -0.3266 C   0  0  0  0  0  0  0  0  0  0  0  0
   -0.1590   -0.8239   -0.1355 C   0  0  0  0  0  0  0  0  0  0  0  0
    0.5227   -0.4265   -1.3749 N   0  0  0  0  0  0  0  0  0  0  0  0
    0.5242   -1.3670   -2.4968 C   0  0  0  0  0  0  0  0  0  0  0  0
    0.9157    0.9400   -1.6207 C   0  0  0  0  0  0  0  0  0  0  0  0
    0.5199    1.5041   -2.6773 O   0  0  0  0  0  0  0  0  0  0  0  0
    1.8578    1.7117   -0.7119 C   0  0  2  0  0  0  0  0  0  0  0  0
    2.4202    0.8884    0.3712 N   0  0  0  0  0  0  0  0  0  0  0  0
    3.1790   -0.3199    0.1603 C   0  0  0  0  0  0  0  0  0  0  0  0
    3.7331   -0.6393   -1.0896 C   0  0  0  0  0  0  0  0  0  0  0  0
    4.4314   -1.8340   -1.2763 C   0  0  0  0  0  0  0  0  0  0  0  0
    4.5980   -2.7449   -0.2132 C   0  0  0  0  0  0  0  0  0  0  0  0
    5.2916   -3.9773   -0.3520 C   0  0  0  0  0  0  0  0  0  0  0  0
    5.8908   -4.3983   -1.5847 N   0  0  0  0  0  0  0  0  0  0  0  0
    5.4013   -4.8054    0.7221 N   0  0  0  0  0  0  0  0  0  0  0  0
    4.8754   -4.5065    1.9356 C   0  0  0  0  0  0  0  0  0  0  0  0
    4.1902   -3.3108    2.1270 C   0  0  0  0  0  0  0  0  0  0  0  0
    3.6702   -3.0315    3.3503 F   0  0  0  0  0  0  0  0  0  0  0  0
    4.0454   -2.4191    1.0536 C   0  0  0  0  0  0  0  0  0  0  0  0
    3.3504   -1.2111    1.2272 C   0  0  0  0  0  0  0  0  0  0  0  0
   -1.9407    8.2449    0.6189 H   0  0  0  0  0  0  0  0  0  0  0  0
   -1.4807    7.4236   -0.9179 H   0  0  0  0  0  0  0  0  0  0  0  0
   -0.1948    8.0349    0.2185 H   0  0  0  0  0  0  0  0  0  0  0  0
    0.6526    6.1831   -1.1379 H   0  0  0  0  0  0  0  0  0  0  0  0
    1.9572    4.2266   -1.7484 H   0  0  0  0  0  0  0  0  0  0  0  0
    0.1223    1.9860    1.4418 H   0  0  0  0  0  0  0  0  0  0  0  0
   -1.9896    4.8735    2.6152 H   0  0  0  0  0  0  0  0  0  0  0  0
   -1.0511    3.5045    3.2409 H   0  0  0  0  0  0  0  0  0  0  0  0
   -2.3244    1.8938    1.9486 H   0  0  0  0  0  0  0  0  0  0  0  0
   -3.4520    2.9461    2.8172 H   0  0  0  0  0  0  0  0  0  0  0  0
   -4.8138    2.5579   -0.7618 H   0  0  0  0  0  0  0  0  0  0  0  0
   -5.4893    0.0858   -0.1796 H   0  0  0  0  0  0  0  0  0  0  0  0
   -4.7028   -2.2222   -0.1449 H   0  0  0  0  0  0  0  0  0  0  0  0
   -4.1192   -4.5816   -1.0042 H   0  0  0  0  0  0  0  0  0  0  0  0
   -5.2494   -5.0014    1.1473 H   0  0  0  0  0  0  0  0  0  0  0  0
   -3.7252   -4.2736    2.1122 H   0  0  0  0  0  0  0  0  0  0  0  0
   -3.8315   -6.7144    0.1915 H   0  0  0  0  0  0  0  0  0  0  0  0
   -2.3028   -5.9930    1.1527 H   0  0  0  0  0  0  0  0  0  0  0  0
   -1.4682    1.4958   -0.4157 H   0  0  0  0  0  0  0  0  0  0  0  0
    0.1330   -1.8594    0.1193 H   0  0  0  0  0  0  0  0  0  0  0  0
    0.1939   -0.2166    0.7188 H   0  0  0  0  0  0  0  0  0  0  0  0
    0.8886   -2.3588   -2.1566 H   0  0  0  0  0  0  0  0  0  0  0  0
    1.2030   -1.0197   -3.3047 H   0  0  0  0  0  0  0  0  0  0  0  0
   -0.5031   -1.4660   -2.9052 H   0  0  0  0  0  0  0  0  0  0  0  0
    2.7135    2.0477   -1.3374 H   0  0  0  0  0  0  0  0  0  0  0  0
    2.2805    1.1914    1.3619 H   0  0  0  0  0  0  0  0  0  0  0  0
    3.6269    0.0285   -1.9330 H   0  0  0  0  0  0  0  0  0  0  0  0
    4.8252   -2.0198   -2.2618 H   0  0  0  0  0  0  0  0  0  0  0  0
    6.3776   -5.3210   -1.6268 H   0  0  0  0  0  0  0  0  0  0  0  0
    5.8906   -3.8304   -2.4564 H   0  0  0  0  0  0  0  0  0  0  0  0
    4.9906   -5.2030    2.7552 H   0  0  0  0  0  0  0  0  0  0  0  0
    2.9186   -0.9660    2.1906 H   0  0  0  0  0  0  0  0  0  0  0  0
  1  2  1  0
  2  3  1  0
  3  4  2  0
  4  5  1  0
  5  6  2  0
  6  7  1  0
  7  8  2  0
  8  9  1  0
  9 10  1  0
 10 11  1  0
 11 12  2  0
 11 13  1  0
 13 14  1  0
 14 15  2  0
 15 16  1  0
 16 17  2  0
 17 18  1  0
 18 19  2  0
 18 20  2  0
 18 21  1  0
 21 22  1  0
 22 23  1  0
 17 24  1  0
 24 25  2  0
 24 26  1  0
 26 27  1  0
 27 28  1  0
 27 29  1  0
 29 30  2  0
 29 31  1  0
 31 32  1  0
 32 33  1  0
 33 34  2  0
 34 35  1  0
 35 36  2  0
 36 37  1  0
 37 38  1  0
 37 39  2  0
 39 40  1  0
 40 41  2  0
 41 42  1  0
 41 43  1  0
 43 44  2  0
  8  3  1  0
 25 14  1  0
 44 33  1  0
 31  6  1  0
 43 36  1  0
 23 21  1  0
  1 45  1  0
  1 46  1  0
  1 47  1  0
  4 48  1  0
  5 49  1  0
  7 50  1  0
  9 51  1  0
  9 52  1  0
 10 53  1  0
 10 54  1  0
 13 55  1  0
 15 56  1  0
 16 57  1  0
 21 58  1  0
 22 59  1  0
 22 60  1  0
 23 61  1  0
 23 62  1  0
 25 63  1  0
 26 64  1  0
 26 65  1  0
 28 66  1  0
 28 67  1  0
 28 68  1  0
 31 69  1  6
 32 70  1  0
 34 71  1  0
 35 72  1  0
 38 73  1  0
 38 74  1  0
 40 75  1  0
 44 76  1  0
M  END
$$$$
