
     RDKit          3D

 71 75  0  0  0  0  0  0  0  0999 V2000
   -9.8391   -1.1051   -1.8074 C   0  0  0  0  0  0  0  0  0  0  0  0
   -8.7869   -2.0395   -1.6062 O   0  0  0  0  0  0  0  0  0  0  0  0
   -7.5052   -1.6516   -1.2042 C   0  0  0  0  0  0  0  0  0  0  0  0
   -7.2270   -0.4270   -1.0648 O   0  0  0  0  0  0  0  0  0  0  0  0
   -6.5254   -2.6590   -0.9200 N   0  0  0  0  0  0  0  0  0  0  0  0
   -5.2120   -2.3671   -0.4155 C   0  0  0  0  0  0  0  0  0  0  0  0
   -4.6780   -3.1540    0.6068 C   0  0  0  0  0  0  0  0  0  0  0  0
   -3.4144   -2.8775    1.1259 C   0  0  0  0  0  0  0  0  0  0  0  0
   -2.6470   -1.8095    0.6272 C   0  0  0  0  0  0  0  0  0  0  0  0
   -3.1713   -1.0256   -0.4399 C   0  0  0  0  0  0  0  0  0  0  0  0
   -4.4352   -1.3381   -0.9654 C   0  0  0  0  0  0  0  0  0  0  0  0
   -2.3597   -0.0319   -1.0997 N   0  0  0  0  0  0  0  0  0  0  0  0
   -2.6516    1.4102   -1.1760 C   0  0  1  0  0  0  0  0  0  0  0  0
   -3.9149    1.6709   -1.9524 C   0  0  0  0  0  0  0  0  0  0  0  0
   -5.0349    1.7232   -1.3742 O   0  0  0  0  0  0  0  0  0  0  0  0
   -3.8472    1.8160   -3.3345 O   0  0  0  0  0  0  0  0  0  0  0  0
   -2.6454    2.0936    0.2296 C   0  0  0  0  0  0  0  0  0  0  0  0
   -1.5488    3.1748    0.3735 C   0  0  0  0  0  0  0  0  0  0  0  0
   -0.1204    2.6035    0.5050 C   0  0  0  0  0  0  0  0  0  0  0  0
    0.2600    2.2559    1.9696 C   0  0  0  0  0  0  0  0  0  0  0  0
    1.1158    0.9726    2.1515 C   0  0  2  0  0  0  0  0  0  0  0  0
    2.2899    0.9581    1.2717 N   0  0  0  0  0  0  0  0  0  0  0  0
    3.4919    0.2509    1.6180 C   0  0  0  0  0  0  0  0  0  0  0  0
    3.5279   -0.4671    2.6544 O   0  0  0  0  0  0  0  0  0  0  0  0
    4.6824    0.3713    0.7557 C   0  0  0  0  0  0  0  0  0  0  0  0
    5.8809   -0.0976    1.1223 C   0  0  0  0  0  0  0  0  0  0  0  0
    7.0842    0.1099    0.2906 C   0  0  0  0  0  0  0  0  0  0  0  0
    8.2178    0.6626    0.9083 C   0  0  0  0  0  0  0  0  0  0  0  0
    9.3596    0.9643    0.1613 C   0  0  0  0  0  0  0  0  0  0  0  0
   10.7589    1.6760    0.9452 Cl  0  0  0  0  0  0  0  0  0  0  0  0
    9.3846    0.7061   -1.2084 C   0  0  0  0  0  0  0  0  0  0  0  0
    8.2772    0.1298   -1.8327 C   0  0  0  0  0  0  0  0  0  0  0  0
    7.1238   -0.1947   -1.0953 C   0  0  0  0  0  0  0  0  0  0  0  0
    6.0514   -0.9043   -1.7424 N   0  0  0  0  0  0  0  0  0  0  0  0
    5.6698   -0.8344   -3.0298 C   0  0  0  0  0  0  0  0  0  0  0  0
    4.6980   -1.7343   -3.2637 N   0  0  0  0  0  0  0  0  0  0  0  0
    4.5086   -2.3552   -2.1064 N   0  0  0  0  0  0  0  0  0  0  0  0
    5.3265   -1.8618   -1.1911 N   0  0  0  0  0  0  0  0  0  0  0  0
    0.2827   -0.2627    1.9428 C   0  0  0  0  0  0  0  0  0  0  0  0
   -0.6944   -0.3250    1.0248 N   0  0  0  0  0  0  0  0  0  0  0  0
   -1.3530   -1.4659    1.2766 C   0  0  0  0  0  0  0  0  0  0  0  0
   -0.7380   -2.0981    2.3467 C   0  0  0  0  0  0  0  0  0  0  0  0
    0.2923   -1.3342    2.7565 N   0  0  0  0  0  0  0  0  0  0  0  0
  -10.0406   -0.5498   -0.8668 H   0  0  0  0  0  0  0  0  0  0  0  0
  -10.7592   -1.6497   -2.1059 H   0  0  0  0  0  0  0  0  0  0  0  0
   -9.5651   -0.3902   -2.6136 H   0  0  0  0  0  0  0  0  0  0  0  0
   -6.8490   -3.6518   -0.9105 H   0  0  0  0  0  0  0  0  0  0  0  0
   -5.2538   -3.9718    1.0197 H   0  0  0  0  0  0  0  0  0  0  0  0
   -3.0544   -3.4945    1.9363 H   0  0  0  0  0  0  0  0  0  0  0  0
   -4.7980   -0.8201   -1.8403 H   0  0  0  0  0  0  0  0  0  0  0  0
   -1.4191   -0.3363   -1.4331 H   0  0  0  0  0  0  0  0  0  0  0  0
   -1.8413    1.8672   -1.7859 H   0  0  0  0  0  0  0  0  0  0  0  0
   -4.6863    1.9651   -3.8807 H   0  0  0  0  0  0  0  0  0  0  0  0
   -2.5528    1.3507    1.0465 H   0  0  0  0  0  0  0  0  0  0  0  0
   -3.6155    2.6026    0.4170 H   0  0  0  0  0  0  0  0  0  0  0  0
   -1.7746    3.8124    1.2568 H   0  0  0  0  0  0  0  0  0  0  0  0
   -1.5922    3.8463   -0.5121 H   0  0  0  0  0  0  0  0  0  0  0  0
    0.5931    3.3774    0.1445 H   0  0  0  0  0  0  0  0  0  0  0  0
    0.0056    1.7405   -0.1792 H   0  0  0  0  0  0  0  0  0  0  0  0
   -0.6569    2.1453    2.5912 H   0  0  0  0  0  0  0  0  0  0  0  0
    0.8189    3.1164    2.3995 H   0  0  0  0  0  0  0  0  0  0  0  0
    1.4586    0.9791    3.2102 H   0  0  0  0  0  0  0  0  0  0  0  0
    2.2926    1.5198    0.3919 H   0  0  0  0  0  0  0  0  0  0  0  0
    4.5807    0.8951   -0.1872 H   0  0  0  0  0  0  0  0  0  0  0  0
    6.0119   -0.5281    2.1077 H   0  0  0  0  0  0  0  0  0  0  0  0
    8.2042    0.8873    1.9681 H   0  0  0  0  0  0  0  0  0  0  0  0
   10.2677    0.9378   -1.7902 H   0  0  0  0  0  0  0  0  0  0  0  0
    8.3371   -0.0983   -2.8879 H   0  0  0  0  0  0  0  0  0  0  0  0
    6.0758   -0.1590   -3.7726 H   0  0  0  0  0  0  0  0  0  0  0  0
   -1.0404   -3.0131    2.8341 H   0  0  0  0  0  0  0  0  0  0  0  0
    0.9185   -1.5086    3.5748 H   0  0  0  0  0  0  0  0  0  0  0  0
  1  2  1  0
  2  3  1  0
  3  4  2  0
  3  5  1  0
  5  6  1  0
  6  7  2  0
  7  8  1  0
  8  9  2  0
  9 10  1  0
 10 11  2  0
 10 12  1  0
 12 13  1  0
 13 14  1  0
 14 15  2  0
 14 16  1  0
 13 17  1  0
 17 18  1  0
 18 19  1  0
 19 20  1  0
 20 21  1  0
 21 22  1  0
 22 23  1  0
 23 24  2  0
 23 25  1  0
 25 26  2  0
 26 27  1  0
 27 28  2  0
 28 29  1  0
 29 30  1  0
 29 31  2  0
 31 32  1  0
 32 33  2  0
 33 34  1  0
 34 35  1  0
 35 36  2  0
 36 37  1  0
 37 38  2  0
 21 39  1  0
 39 40  2  0
 40 41  1  0
 41 42  2  0
 42 43  1  0
 11  6  1  0
 33 27  1  0
 38 34  1  0
 43 39  1  0
 41  9  1  0
  1 44  1  0
  1 45  1  0
  1 46  1  0
  5 47  1  0
  7 48  1  0
  8 49  1  0
 11 50  1  0
 12 51  1  0
 13 52  1  6
 16 53  1  0
 17 54  1  0
 17 55  1  0
 18 56  1  0
 18 57  1  0
 19 58  1  0
 19 59  1  0
 20 60  1  0
 20 61  1  0
 21 62  1  1
 22 63  1  0
 25 64  1  0
 26 65  1  0
 28 66  1  0
 31 67  1  0
 32 68  1  0
 35 69  1  0
 42 70  1  0
 43 71  1  0
M  END
$$$$
