
     RDKit          3D

138138  0  0  0  0  0  0  0  0999 V2000
    7.0159   -6.2154   -1.6415 C   0  0  0  0  0  0  0  0  0  0  0  0
    7.3412   -5.4485   -0.3597 C   0  0  0  0  0  0  0  0  0  0  0  0
    6.8569   -3.9913   -0.4024 C   0  0  0  0  0  0  0  0  0  0  0  0
    5.3305   -3.8740   -0.2789 C   0  0  0  0  0  0  0  0  0  0  0  0
    4.8972   -2.4018   -0.2330 C   0  0  0  0  0  0  0  0  0  0  0  0
    3.3730   -2.2579   -0.0539 C   0  0  2  0  0  0  0  0  0  0  0  0
    2.6682   -2.8843   -1.1773 N   0  0  0  0  0  0  0  0  0  0  0  0
    1.3043   -3.3260   -1.1035 C   0  0  0  0  0  0  0  0  0  0  0  0
    0.5244   -3.0223   -2.0464 O   0  0  0  0  0  0  0  0  0  0  0  0
    0.7943   -4.1324    0.0760 C   0  0  1  0  0  0  0  0  0  0  0  0
    0.1530   -3.2308    1.1286 C   0  0  0  0  0  0  0  0  0  0  0  0
   -0.1367   -5.2065   -0.3428 N   0  0  0  0  0  0  0  0  0  0  0  0
    0.2146   -6.6091   -0.1002 C   0  0  0  0  0  0  0  0  0  0  0  0
   -1.3031   -4.9606   -1.1541 C   0  0  0  0  0  0  0  0  0  0  0  0
   -1.3521   -5.4500   -2.3170 O   0  0  0  0  0  0  0  0  0  0  0  0
   -2.4671   -4.1379   -0.6545 C   0  0  2  0  0  0  0  0  0  0  0  0
   -3.8087   -4.8644   -0.9126 C   0  0  0  0  0  0  0  0  0  0  0  0
   -3.9159   -6.2627   -0.2658 C   0  0  0  0  0  0  0  0  0  0  0  0
   -3.7540   -6.2865    1.2649 C   0  0  0  0  0  0  0  0  0  0  0  0
   -4.8610   -5.5128    1.9929 C   0  0  0  0  0  0  0  0  0  0  0  0
   -4.7386   -5.6676    3.5050 C   0  0  0  0  0  0  0  0  0  0  0  0
   -2.4473   -2.8960   -1.3576 O   0  0  0  0  0  0  0  0  0  0  0  0
   -3.0529   -1.6897   -0.9708 C   0  0  0  0  0  0  0  0  0  0  0  0
   -2.9503   -0.7217   -1.7654 O   0  0  0  0  0  0  0  0  0  0  0  0
   -3.7394   -1.4866    0.3748 C   0  0  1  0  0  0  0  0  0  0  0  0
   -2.7521   -1.0535    1.4651 C   0  0  0  0  0  0  0  0  0  0  0  0
   -4.9006   -0.5642    0.2968 N   0  0  0  0  0  0  0  0  0  0  0  0
   -6.2065   -1.0135    0.7932 C   0  0  0  0  0  0  0  0  0  0  0  0
   -4.8706    0.7273   -0.3546 C   0  0  0  0  0  0  0  0  0  0  0  0
   -5.7588    0.9949   -1.2083 O   0  0  0  0  0  0  0  0  0  0  0  0
   -3.8327    1.7802   -0.0326 C   0  0  2  0  0  0  0  0  0  0  0  0
   -4.5063    3.0824    0.4671 C   0  0  0  0  0  0  0  0  0  0  0  0
   -4.9148    4.0437   -0.6604 C   0  0  0  0  0  0  0  0  0  0  0  0
   -5.5663    5.3088   -0.0846 C   0  0  0  0  0  0  0  0  0  0  0  0
   -5.9597    6.3174   -1.1753 C   0  0  0  0  0  0  0  0  0  0  0  0
   -7.1576    5.8510   -2.0029 C   0  0  0  0  0  0  0  0  0  0  0  0
   -3.0420    1.9901   -1.2063 O   0  0  0  0  0  0  0  0  0  0  0  0
   -1.6721    2.2819   -1.2311 C   0  0  0  0  0  0  0  0  0  0  0  0
   -0.9864    1.8107   -2.1768 O   0  0  0  0  0  0  0  0  0  0  0  0
   -1.0007    3.1635   -0.2036 C   0  0  1  0  0  0  0  0  0  0  0  0
   -0.2145    2.3289    0.8089 C   0  0  0  0  0  0  0  0  0  0  0  0
   -0.1560    4.1768   -0.8711 N   0  0  0  0  0  0  0  0  0  0  0  0
   -0.7546    5.4533   -1.2743 C   0  0  0  0  0  0  0  0  0  0  0  0
    1.1221    3.8480   -1.4496 C   0  0  0  0  0  0  0  0  0  0  0  0
    1.1886    3.6003   -2.6858 O   0  0  0  0  0  0  0  0  0  0  0  0
    2.3876    3.8720   -0.6158 C   0  0  2  0  0  0  0  0  0  0  0  0
    2.5185    5.2367    0.0898 C   0  0  0  0  0  0  0  0  0  0  0  0
    3.7166    5.2894    1.0484 C   0  0  0  0  0  0  0  0  0  0  0  0
    3.8085    6.6676    1.7158 C   0  0  0  0  0  0  0  0  0  0  0  0
    4.9745    6.7284    2.7082 C   0  0  0  0  0  0  0  0  0  0  0  0
    5.0739    8.1077    3.3547 C   0  0  0  0  0  0  0  0  0  0  0  0
    3.5637    3.6170   -1.4602 N   0  0  0  0  0  0  0  0  0  0  0  0
    4.0187    2.3085   -1.8509 C   0  0  0  0  0  0  0  0  0  0  0  0
    5.1383    2.2054   -2.4234 O   0  0  0  0  0  0  0  0  0  0  0  0
    3.2129    1.0486   -1.5779 C   0  0  1  0  0  0  0  0  0  0  0  0
    3.1935    0.1671   -2.8319 C   0  0  0  0  0  0  0  0  0  0  0  0
    3.7182    0.2851   -0.4136 N   0  0  0  0  0  0  0  0  0  0  0  0
    4.7480    0.8370    0.4761 C   0  0  0  0  0  0  0  0  0  0  0  0
    2.9299   -0.8132    0.0783 C   0  0  0  0  0  0  0  0  0  0  0  0
    1.8153   -0.5672    0.6124 O   0  0  0  0  0  0  0  0  0  0  0  0
    7.4272   -5.6852   -2.5259 H   0  0  0  0  0  0  0  0  0  0  0  0
    7.4737   -7.2256   -1.5927 H   0  0  0  0  0  0  0  0  0  0  0  0
    5.9195   -6.3389   -1.7600 H   0  0  0  0  0  0  0  0  0  0  0  0
    8.4442   -5.4482   -0.2251 H   0  0  0  0  0  0  0  0  0  0  0  0
    6.8984   -5.9740    0.5128 H   0  0  0  0  0  0  0  0  0  0  0  0
    7.3290   -3.4476    0.4460 H   0  0  0  0  0  0  0  0  0  0  0  0
    7.1989   -3.5072   -1.3447 H   0  0  0  0  0  0  0  0  0  0  0  0
    4.9958   -4.3846    0.6509 H   0  0  0  0  0  0  0  0  0  0  0  0
    4.8486   -4.3710   -1.1477 H   0  0  0  0  0  0  0  0  0  0  0  0
    5.2184   -1.8914   -1.1673 H   0  0  0  0  0  0  0  0  0  0  0  0
    5.4109   -1.9208    0.6253 H   0  0  0  0  0  0  0  0  0  0  0  0
    3.1115   -2.7791    0.8900 H   0  0  0  0  0  0  0  0  0  0  0  0
    3.0657   -2.7467   -2.1352 H   0  0  0  0  0  0  0  0  0  0  0  0
    1.6819   -4.5971    0.5575 H   0  0  0  0  0  0  0  0  0  0  0  0
    0.9285   -2.7144    1.7286 H   0  0  0  0  0  0  0  0  0  0  0  0
   -0.4789   -2.4646    0.6405 H   0  0  0  0  0  0  0  0  0  0  0  0
   -0.4555   -3.8354    1.8350 H   0  0  0  0  0  0  0  0  0  0  0  0
    0.9918   -6.7055    0.6867 H   0  0  0  0  0  0  0  0  0  0  0  0
   -0.6813   -7.1681    0.2443 H   0  0  0  0  0  0  0  0  0  0  0  0
    0.5932   -7.0689   -1.0384 H   0  0  0  0  0  0  0  0  0  0  0  0
   -2.3525   -3.9567    0.4304 H   0  0  0  0  0  0  0  0  0  0  0  0
   -3.9472   -4.9808   -2.0105 H   0  0  0  0  0  0  0  0  0  0  0  0
   -4.6578   -4.2414   -0.5714 H   0  0  0  0  0  0  0  0  0  0  0  0
   -4.9051   -6.6958   -0.5298 H   0  0  0  0  0  0  0  0  0  0  0  0
   -3.1522   -6.9338   -0.7138 H   0  0  0  0  0  0  0  0  0  0  0  0
   -2.7549   -5.8957    1.5542 H   0  0  0  0  0  0  0  0  0  0  0  0
   -3.7887   -7.3489    1.5896 H   0  0  0  0  0  0  0  0  0  0  0  0
   -5.8576   -5.8860    1.6696 H   0  0  0  0  0  0  0  0  0  0  0  0
   -4.7936   -4.4343    1.7496 H   0  0  0  0  0  0  0  0  0  0  0  0
   -4.8620   -6.7330    3.7943 H   0  0  0  0  0  0  0  0  0  0  0  0
   -5.5286   -5.0697    4.0049 H   0  0  0  0  0  0  0  0  0  0  0  0
   -3.7480   -5.3040    3.8503 H   0  0  0  0  0  0  0  0  0  0  0  0
   -4.1119   -2.4731    0.6958 H   0  0  0  0  0  0  0  0  0  0  0  0
   -2.3122   -1.9454    1.9562 H   0  0  0  0  0  0  0  0  0  0  0  0
   -3.2745   -0.4769    2.2586 H   0  0  0  0  0  0  0  0  0  0  0  0
   -1.9258   -0.4434    1.0450 H   0  0  0  0  0  0  0  0  0  0  0  0
   -6.1218   -1.9374    1.4035 H   0  0  0  0  0  0  0  0  0  0  0  0
   -6.6534   -0.2263    1.4380 H   0  0  0  0  0  0  0  0  0  0  0  0
   -6.8863   -1.2148   -0.0625 H   0  0  0  0  0  0  0  0  0  0  0  0
   -3.1930    1.4159    0.7876 H   0  0  0  0  0  0  0  0  0  0  0  0
   -5.4038    2.8242    1.0733 H   0  0  0  0  0  0  0  0  0  0  0  0
   -3.8215    3.6096    1.1630 H   0  0  0  0  0  0  0  0  0  0  0  0
   -4.0170    4.3384   -1.2453 H   0  0  0  0  0  0  0  0  0  0  0  0
   -5.6272    3.5325   -1.3378 H   0  0  0  0  0  0  0  0  0  0  0  0
   -4.8408    5.8060    0.5967 H   0  0  0  0  0  0  0  0  0  0  0  0
   -6.4615    5.0396    0.5188 H   0  0  0  0  0  0  0  0  0  0  0  0
   -5.0952    6.5132   -1.8453 H   0  0  0  0  0  0  0  0  0  0  0  0
   -6.2278    7.2781   -0.6844 H   0  0  0  0  0  0  0  0  0  0  0  0
   -7.4789    6.6694   -2.6806 H   0  0  0  0  0  0  0  0  0  0  0  0
   -6.8880    4.9747   -2.6276 H   0  0  0  0  0  0  0  0  0  0  0  0
   -8.0094    5.5857   -1.3409 H   0  0  0  0  0  0  0  0  0  0  0  0
   -1.7763    3.6936    0.3787 H   0  0  0  0  0  0  0  0  0  0  0  0
    0.4891    1.6468    0.2934 H   0  0  0  0  0  0  0  0  0  0  0  0
    0.3440    2.9959    1.4991 H   0  0  0  0  0  0  0  0  0  0  0  0
   -0.9055    1.7166    1.4229 H   0  0  0  0  0  0  0  0  0  0  0  0
   -1.7619    5.5931   -0.8287 H   0  0  0  0  0  0  0  0  0  0  0  0
   -0.1096    6.2927   -0.9432 H   0  0  0  0  0  0  0  0  0  0  0  0
   -0.8569    5.4895   -2.3797 H   0  0  0  0  0  0  0  0  0  0  0  0
    2.3345    3.0928    0.1703 H   0  0  0  0  0  0  0  0  0  0  0  0
    2.6129    6.0415   -0.6732 H   0  0  0  0  0  0  0  0  0  0  0  0
    1.5990    5.4302    0.6835 H   0  0  0  0  0  0  0  0  0  0  0  0
    4.6584    5.0917    0.4921 H   0  0  0  0  0  0  0  0  0  0  0  0
    3.5969    4.5057    1.8292 H   0  0  0  0  0  0  0  0  0  0  0  0
    2.8587    6.8829    2.2541 H   0  0  0  0  0  0  0  0  0  0  0  0
    3.9533    7.4446    0.9316 H   0  0  0  0  0  0  0  0  0  0  0  0
    5.9295    6.5078    2.1818 H   0  0  0  0  0  0  0  0  0  0  0  0
    4.8262    5.9671    3.5055 H   0  0  0  0  0  0  0  0  0  0  0  0
    5.2472    8.8851    2.5800 H   0  0  0  0  0  0  0  0  0  0  0  0
    4.1375    8.3431    3.9071 H   0  0  0  0  0  0  0  0  0  0  0  0
    5.9233    8.1217    4.0705 H   0  0  0  0  0  0  0  0  0  0  0  0
    4.1075    4.4351   -1.8201 H   0  0  0  0  0  0  0  0  0  0  0  0
    2.1593    1.3285   -1.3844 H   0  0  0  0  0  0  0  0  0  0  0  0
    2.3995   -0.6000   -2.7421 H   0  0  0  0  0  0  0  0  0  0  0  0
    2.9599    0.7768   -3.7321 H   0  0  0  0  0  0  0  0  0  0  0  0
    4.1753   -0.3328   -2.9773 H   0  0  0  0  0  0  0  0  0  0  0  0
    4.4319    1.8345    0.8493 H   0  0  0  0  0  0  0  0  0  0  0  0
    4.9091    0.1892    1.3630 H   0  0  0  0  0  0  0  0  0  0  0  0
    5.7110    0.9295   -0.0696 H   0  0  0  0  0  0  0  0  0  0  0  0
  1  2  1  0
  2  3  1  0
  3  4  1  0
  4  5  1  0
  5  6  1  0
  6  7  1  0
  7  8  1  0
  8  9  2  0
  8 10  1  0
 10 11  1  0
 10 12  1  0
 12 13  1  0
 12 14  1  0
 14 15  2  0
 14 16  1  0
 16 17  1  0
 17 18  1  0
 18 19  1  0
 19 20  1  0
 20 21  1  0
 16 22  1  0
 22 23  1  0
 23 24  2  0
 23 25  1  0
 25 26  1  0
 25 27  1  0
 27 28  1  0
 27 29  1  0
 29 30  2  0
 29 31  1  0
 31 32  1  0
 32 33  1  0
 33 34  1  0
 34 35  1  0
 35 36  1  0
 31 37  1  0
 37 38  1  0
 38 39  2  0
 38 40  1  0
 40 41  1  0
 40 42  1  0
 42 43  1  0
 42 44  1  0
 44 45  2  0
 44 46  1  0
 46 47  1  0
 47 48  1  0
 48 49  1  0
 49 50  1  0
 50 51  1  0
 46 52  1  0
 52 53  1  0
 53 54  2  0
 53 55  1  0
 55 56  1  0
 55 57  1  0
 57 58  1  0
 57 59  1  0
 59 60  2  0
 59  6  1  0
  1 61  1  0
  1 62  1  0
  1 63  1  0
  2 64  1  0
  2 65  1  0
  3 66  1  0
  3 67  1  0
  4 68  1  0
  4 69  1  0
  5 70  1  0
  5 71  1  0
  6 72  1  1
  7 73  1  0
 10 74  1  1
 11 75  1  0
 11 76  1  0
 11 77  1  0
 13 78  1  0
 13 79  1  0
 13 80  1  0
 16 81  1  1
 17 82  1  0
 17 83  1  0
 18 84  1  0
 18 85  1  0
 19 86  1  0
 19 87  1  0
 20 88  1  0
 20 89  1  0
 21 90  1  0
 21 91  1  0
 21 92  1  0
 25 93  1  1
 26 94  1  0
 26 95  1  0
 26 96  1  0
 28 97  1  0
 28 98  1  0
 28 99  1  0
 31100  1  1
 32101  1  0
 32102  1  0
 33103  1  0
 33104  1  0
 34105  1  0
 34106  1  0
 35107  1  0
 35108  1  0
 36109  1  0
 36110  1  0
 36111  1  0
 40112  1  1
 41113  1  0
 41114  1  0
 41115  1  0
 43116  1  0
 43117  1  0
 43118  1  0
 46119  1  1
 47120  1  0
 47121  1  0
 48122  1  0
 48123  1  0
 49124  1  0
 49125  1  0
 50126  1  0
 50127  1  0
 51128  1  0
 51129  1  0
 51130  1  0
 52131  1  0
 55132  1  1
 56133  1  0
 56134  1  0
 56135  1  0
 58136  1  0
 58137  1  0
 58138  1  0
M  END
$$$$
