
     RDKit          3D

 42 45  0  0  0  0  0  0  0  0999 V2000
    1.8994    0.7328   -3.1830 O   0  0  0  0  0  0  0  0  0  0  0  0
    1.7224    1.1838   -2.0207 C   0  0  0  0  0  0  0  0  0  0  0  0
    1.0796    2.4519   -1.8418 N   0  0  0  0  0  0  0  0  0  0  0  0
    0.1501    2.6735   -0.7735 C   0  0  0  0  0  0  0  0  0  0  0  0
   -0.2330    3.9685   -0.4107 C   0  0  0  0  0  0  0  0  0  0  0  0
   -1.1450    4.1405    0.6354 C   0  0  0  0  0  0  0  0  0  0  0  0
   -1.6792    3.0261    1.2907 C   0  0  0  0  0  0  0  0  0  0  0  0
   -1.3054    1.7423    0.8727 C   0  0  0  0  0  0  0  0  0  0  0  0
   -0.3970    1.6102   -0.1259 N   0  0  0  0  0  0  0  0  0  0  0  0
   -1.8572    0.5385    1.5219 C   0  0  0  0  0  0  0  0  0  0  0  0
   -2.1996    0.5065    2.8223 N   0  0  0  0  0  0  0  0  0  0  0  0
   -2.6881   -0.6988    3.0644 N   0  0  0  0  0  0  0  0  0  0  0  0
   -2.6436   -1.3859    1.9096 C   0  0  0  0  0  0  0  0  0  0  0  0
   -2.1038   -0.6498    0.9160 N   0  0  0  0  0  0  0  0  0  0  0  0
   -2.1391   -0.9449   -0.5286 C   0  0  0  0  0  0  0  0  0  0  0  0
   -1.9945   -2.4429   -0.8522 C   0  0  0  0  0  0  0  0  0  0  0  0
   -0.6410   -3.0382   -0.4188 C   0  0  0  0  0  0  0  0  0  0  0  0
    0.4671   -2.8720   -1.4756 C   0  0  0  0  0  0  0  0  0  0  0  0
    0.9430   -1.5270   -1.5482 O   0  0  0  0  0  0  0  0  0  0  0  0
    1.8266   -0.9196   -0.6398 C   0  0  0  0  0  0  0  0  0  0  0  0
    2.3248   -1.6034    0.4892 C   0  0  0  0  0  0  0  0  0  0  0  0
    3.1721   -0.9538    1.3906 C   0  0  0  0  0  0  0  0  0  0  0  0
    3.6405   -1.6186    2.4746 F   0  0  0  0  0  0  0  0  0  0  0  0
    3.5366    0.3799    1.1791 C   0  0  0  0  0  0  0  0  0  0  0  0
    3.0585    1.0635    0.0628 C   0  0  0  0  0  0  0  0  0  0  0  0
    2.2158    0.4216   -0.8566 C   0  0  0  0  0  0  0  0  0  0  0  0
    1.1893    3.1812   -2.5804 H   0  0  0  0  0  0  0  0  0  0  0  0
    0.1774    4.8313   -0.9217 H   0  0  0  0  0  0  0  0  0  0  0  0
   -1.4402    5.1368    0.9368 H   0  0  0  0  0  0  0  0  0  0  0  0
   -2.3902    3.1632    2.0964 H   0  0  0  0  0  0  0  0  0  0  0  0
   -3.0342   -2.3873    1.8009 H   0  0  0  0  0  0  0  0  0  0  0  0
   -3.1107   -0.5872   -0.9375 H   0  0  0  0  0  0  0  0  0  0  0  0
   -1.3394   -0.4031   -1.0648 H   0  0  0  0  0  0  0  0  0  0  0  0
   -2.8184   -3.0059   -0.3648 H   0  0  0  0  0  0  0  0  0  0  0  0
   -2.1393   -2.5885   -1.9453 H   0  0  0  0  0  0  0  0  0  0  0  0
   -0.7880   -4.1288   -0.2617 H   0  0  0  0  0  0  0  0  0  0  0  0
   -0.3215   -2.6170    0.5554 H   0  0  0  0  0  0  0  0  0  0  0  0
    0.0778   -3.1588   -2.4723 H   0  0  0  0  0  0  0  0  0  0  0  0
    1.3102   -3.5636   -1.2638 H   0  0  0  0  0  0  0  0  0  0  0  0
    2.0649   -2.6332    0.6870 H   0  0  0  0  0  0  0  0  0  0  0  0
    4.1956    0.8825    1.8764 H   0  0  0  0  0  0  0  0  0  0  0  0
    3.3569    2.0938   -0.0948 H   0  0  0  0  0  0  0  0  0  0  0  0
  1  2  2  0
  2  3  1  0
  3  4  1  0
  4  5  1  0
  5  6  2  0
  6  7  1  0
  7  8  2  0
  8  9  1  0
  8 10  1  0
 10 11  2  0
 11 12  1  0
 12 13  2  0
 13 14  1  0
 14 15  1  0
 15 16  1  0
 16 17  1  0
 17 18  1  0
 18 19  1  0
 19 20  1  0
 20 21  2  0
 21 22  1  0
 22 23  1  0
 22 24  2  0
 24 25  1  0
 25 26  2  0
 26  2  1  0
  9  4  2  0
 14 10  1  0
 26 20  1  0
  3 27  1  0
  5 28  1  0
  6 29  1  0
  7 30  1  0
 13 31  1  0
 15 32  1  0
 15 33  1  0
 16 34  1  0
 16 35  1  0
 17 36  1  0
 17 37  1  0
 18 38  1  0
 18 39  1  0
 21 40  1  0
 24 41  1  0
 25 42  1  0
M  END
$$$$
