
     RDKit          3D

108113  0  0  0  0  0  0  0  0999 V2000
    7.9006    1.5918   -4.8124 C   0  0  0  0  0  0  0  0  0  0  0  0
    7.8419    1.1974   -3.3470 C   0  0  0  0  0  0  0  0  0  0  0  0
    6.4898    0.9656   -2.9711 O   0  0  0  0  0  0  0  0  0  0  0  0
    6.1268    0.5513   -1.6873 C   0  0  0  0  0  0  0  0  0  0  0  0
    4.7779    0.4533   -1.3523 C   0  0  0  0  0  0  0  0  0  0  0  0
    4.4081    0.0513   -0.0582 C   0  0  0  0  0  0  0  0  0  0  0  0
    3.0675   -0.0241    0.3435 O   0  0  0  0  0  0  0  0  0  0  0  0
    1.9531    0.5603   -0.3334 C   0  0  2  0  0  0  0  0  0  0  0  0
    0.8439    0.8300    0.6842 C   0  0  0  0  0  0  0  0  0  0  0  0
   -0.4501    0.2628    0.1001 C   0  0  1  0  0  0  0  0  0  0  0  0
   -1.4327    1.3710   -0.2073 C   0  0  0  0  0  0  0  0  0  0  0  0
   -1.7050    1.6829   -1.3989 O   0  0  0  0  0  0  0  0  0  0  0  0
   -2.0452    2.0766    0.8843 N   0  0  0  0  0  0  0  0  0  0  0  0
   -3.2479    2.8994    0.7347 C   0  0  2  0  0  0  0  0  0  0  0  0
   -3.1650    4.1262   -0.1268 C   0  0  0  0  0  0  0  0  0  0  0  0
   -3.5449    4.0725   -1.3256 O   0  0  0  0  0  0  0  0  0  0  0  0
   -2.6533    5.3434    0.4117 N   0  0  0  0  0  0  0  0  0  0  0  0
   -2.9140    6.8662   -0.3732 S   0  0  0  0  0  6  0  0  0  0  0  0
   -1.9687    6.9993   -1.5363 O   0  0  0  0  0  0  0  0  0  0  0  0
   -2.6475    7.9634    0.6142 O   0  0  0  0  0  0  0  0  0  0  0  0
   -4.6259    6.9900   -0.8879 C   0  0  0  0  0  0  0  0  0  0  0  0
   -4.9632    8.2737   -1.6284 C   0  0  0  0  0  0  0  0  0  0  0  0
   -4.8771    6.9600   -2.3894 C   0  0  0  0  0  0  0  0  0  0  0  0
   -4.0173    3.0727    2.0394 C   0  0  0  0  0  0  0  0  0  0  0  0
   -4.5725    2.1711    0.9415 C   0  0  1  0  0  0  0  0  0  0  0  0
   -5.8402    2.7428    0.3349 C   0  0  0  0  0  0  0  0  0  0  0  0
   -6.9494    2.0131    0.1190 C   0  0  0  0  0  0  0  0  0  0  0  0
   -7.0426    0.5379    0.4203 C   0  0  0  0  0  0  0  0  0  0  0  0
   -6.2029   -0.2910   -0.5756 C   0  0  0  0  0  0  0  0  0  0  0  0
   -5.5979   -1.5410    0.0826 C   0  0  0  0  0  0  0  0  0  0  0  0
   -4.5104   -2.2068   -0.7831 C   0  0  0  0  0  0  0  0  0  0  0  0
   -3.2309   -1.3534   -0.8823 C   0  0  0  0  0  0  0  0  0  0  0  0
   -2.0282   -2.1530   -1.4145 C   0  0  2  0  0  0  0  0  0  0  0  0
   -1.4882   -3.0398   -0.3791 N   0  0  0  0  0  0  0  0  0  0  0  0
   -1.6357   -4.4568   -0.3996 C   0  0  0  0  0  0  0  0  0  0  0  0
   -2.1966   -5.0231   -1.3758 O   0  0  0  0  0  0  0  0  0  0  0  0
   -1.1377   -5.2068    0.6752 O   0  0  0  0  0  0  0  0  0  0  0  0
   -1.3825   -6.6008    0.9272 C   0  0  0  0  0  0  0  0  0  0  0  0
   -2.8970   -6.8575    1.0886 C   0  0  0  0  0  0  0  0  0  0  0  0
   -0.6711   -6.9533    2.2464 C   0  0  0  0  0  0  0  0  0  0  0  0
   -0.8136   -7.4815   -0.2024 C   0  0  0  0  0  0  0  0  0  0  0  0
   -0.9422   -1.2416   -1.9431 C   0  0  0  0  0  0  0  0  0  0  0  0
   -0.7984   -1.1554   -3.1917 O   0  0  0  0  0  0  0  0  0  0  0  0
   -0.0538   -0.4916   -1.0861 N   0  0  0  0  0  0  0  0  0  0  0  0
    1.3688   -0.3972   -1.3726 C   0  0  0  0  0  0  0  0  0  0  0  0
    5.4102   -0.2742    0.8764 C   0  0  0  0  0  0  0  0  0  0  0  0
    5.0897   -0.6946    2.1759 C   0  0  0  0  0  0  0  0  0  0  0  0
    6.1015   -0.9980    3.0853 C   0  0  0  0  0  0  0  0  0  0  0  0
    7.4566   -0.8695    2.7274 C   0  0  0  0  0  0  0  0  0  0  0  0
    8.4854   -1.1595    3.6392 O   0  0  0  0  0  0  0  0  0  0  0  0
    8.2783   -1.5768    4.9870 C   0  0  0  0  0  0  0  0  0  0  0  0
    7.7927   -0.4268    1.4317 C   0  0  0  0  0  0  0  0  0  0  0  0
    9.2425   -0.3163    1.0188 C   0  0  0  0  0  0  0  0  0  0  0  0
    6.7650   -0.1428    0.5046 C   0  0  0  0  0  0  0  0  0  0  0  0
    7.0746    0.2580   -0.7582 N   0  0  0  0  0  0  0  0  0  0  0  0
    8.9455    1.8246   -5.0974 H   0  0  0  0  0  0  0  0  0  0  0  0
    7.2735    2.4910   -4.9980 H   0  0  0  0  0  0  0  0  0  0  0  0
    7.5366    0.7489   -5.4437 H   0  0  0  0  0  0  0  0  0  0  0  0
    8.4422    0.2752   -3.1925 H   0  0  0  0  0  0  0  0  0  0  0  0
    8.2730    2.0140   -2.7290 H   0  0  0  0  0  0  0  0  0  0  0  0
    4.0326    0.6728   -2.0977 H   0  0  0  0  0  0  0  0  0  0  0  0
    2.2368    1.5252   -0.8076 H   0  0  0  0  0  0  0  0  0  0  0  0
    1.0581    0.3139    1.6433 H   0  0  0  0  0  0  0  0  0  0  0  0
    0.7754    1.9217    0.8997 H   0  0  0  0  0  0  0  0  0  0  0  0
   -0.9071   -0.4162    0.8478 H   0  0  0  0  0  0  0  0  0  0  0  0
   -1.6660    1.8983    1.8434 H   0  0  0  0  0  0  0  0  0  0  0  0
   -2.2125    5.3432    1.3606 H   0  0  0  0  0  0  0  0  0  0  0  0
   -5.4307    6.5754   -0.2498 H   0  0  0  0  0  0  0  0  0  0  0  0
   -4.1173    8.9636   -1.8323 H   0  0  0  0  0  0  0  0  0  0  0  0
   -5.9962    8.6433   -1.4736 H   0  0  0  0  0  0  0  0  0  0  0  0
   -3.9937    6.8878   -3.0618 H   0  0  0  0  0  0  0  0  0  0  0  0
   -5.8666    6.5468   -2.6739 H   0  0  0  0  0  0  0  0  0  0  0  0
   -4.5400    4.0517    2.1579 H   0  0  0  0  0  0  0  0  0  0  0  0
   -3.6415    2.4987    2.9238 H   0  0  0  0  0  0  0  0  0  0  0  0
   -4.5082    1.1000    1.2233 H   0  0  0  0  0  0  0  0  0  0  0  0
   -5.8729    3.7930    0.0746 H   0  0  0  0  0  0  0  0  0  0  0  0
   -7.8240    2.5098   -0.2970 H   0  0  0  0  0  0  0  0  0  0  0  0
   -6.7328    0.3677    1.4771 H   0  0  0  0  0  0  0  0  0  0  0  0
   -8.1016    0.2113    0.3533 H   0  0  0  0  0  0  0  0  0  0  0  0
   -6.8388   -0.5955   -1.4334 H   0  0  0  0  0  0  0  0  0  0  0  0
   -5.3874    0.3361   -0.9864 H   0  0  0  0  0  0  0  0  0  0  0  0
   -5.1482   -1.2813    1.0651 H   0  0  0  0  0  0  0  0  0  0  0  0
   -6.4191   -2.2747    0.2685 H   0  0  0  0  0  0  0  0  0  0  0  0
   -4.2740   -3.1866   -0.3167 H   0  0  0  0  0  0  0  0  0  0  0  0
   -4.9083   -2.3983   -1.8094 H   0  0  0  0  0  0  0  0  0  0  0  0
   -2.9909   -0.9303    0.1110 H   0  0  0  0  0  0  0  0  0  0  0  0
   -3.4321   -0.5115   -1.5694 H   0  0  0  0  0  0  0  0  0  0  0  0
   -2.3863   -2.7628   -2.2755 H   0  0  0  0  0  0  0  0  0  0  0  0
   -1.0645   -2.6247    0.4758 H   0  0  0  0  0  0  0  0  0  0  0  0
   -3.4426   -6.6558    0.1434 H   0  0  0  0  0  0  0  0  0  0  0  0
   -3.3124   -6.1945    1.8768 H   0  0  0  0  0  0  0  0  0  0  0  0
   -3.0946   -7.9139    1.3735 H   0  0  0  0  0  0  0  0  0  0  0  0
   -1.0394   -6.2990    3.0659 H   0  0  0  0  0  0  0  0  0  0  0  0
   -0.8568   -8.0108    2.5318 H   0  0  0  0  0  0  0  0  0  0  0  0
    0.4249   -6.8059    2.1541 H   0  0  0  0  0  0  0  0  0  0  0  0
   -0.8899   -8.5600    0.0786 H   0  0  0  0  0  0  0  0  0  0  0  0
   -1.3636   -7.3408   -1.1593 H   0  0  0  0  0  0  0  0  0  0  0  0
    0.2550   -7.2252   -0.3822 H   0  0  0  0  0  0  0  0  0  0  0  0
    1.5275   -0.0063   -2.4025 H   0  0  0  0  0  0  0  0  0  0  0  0
    1.8326   -1.4072   -1.2949 H   0  0  0  0  0  0  0  0  0  0  0  0
    4.0602   -0.8038    2.4969 H   0  0  0  0  0  0  0  0  0  0  0  0
    5.8149   -1.3328    4.0730 H   0  0  0  0  0  0  0  0  0  0  0  0
    9.2675   -1.7373    5.4715 H   0  0  0  0  0  0  0  0  0  0  0  0
    7.7297   -0.7866    5.5494 H   0  0  0  0  0  0  0  0  0  0  0  0
    7.7056   -2.5367    5.0170 H   0  0  0  0  0  0  0  0  0  0  0  0
    9.3773    0.4951    0.2722 H   0  0  0  0  0  0  0  0  0  0  0  0
    9.8935   -0.0775    1.8894 H   0  0  0  0  0  0  0  0  0  0  0  0
    9.5725   -1.2841    0.5706 H   0  0  0  0  0  0  0  0  0  0  0  0
  1  2  1  0
  2  3  1  0
  3  4  1  0
  4  5  2  0
  5  6  1  0
  6  7  1  0
  7  8  1  0
  8  9  1  0
  9 10  1  0
 10 11  1  0
 11 12  2  0
 11 13  1  0
 13 14  1  0
 14 15  1  6
 15 16  2  0
 15 17  1  0
 17 18  1  0
 18 19  2  0
 18 20  2  0
 18 21  1  0
 21 22  1  0
 22 23  1  0
 14 24  1  0
 24 25  1  0
 25 26  1  0
 26 27  2  0
 27 28  1  0
 28 29  1  0
 29 30  1  0
 30 31  1  0
 31 32  1  0
 32 33  1  0
 33 34  1  0
 34 35  1  0
 35 36  2  0
 35 37  1  0
 37 38  1  0
 38 39  1  0
 38 40  1  0
 38 41  1  0
 33 42  1  0
 42 43  2  0
 42 44  1  0
 44 45  1  0
  6 46  2  0
 46 47  1  0
 47 48  2  0
 48 49  1  0
 49 50  1  0
 50 51  1  0
 49 52  2  0
 52 53  1  0
 52 54  1  0
 54 55  2  0
 55  4  1  0
 45  8  1  0
 54 46  1  0
 44 10  1  0
 25 14  1  0
 23 21  1  0
  1 56  1  0
  1 57  1  0
  1 58  1  0
  2 59  1  0
  2 60  1  0
  5 61  1  0
  8 62  1  6
  9 63  1  0
  9 64  1  0
 10 65  1  1
 13 66  1  0
 17 67  1  0
 21 68  1  0
 22 69  1  0
 22 70  1  0
 23 71  1  0
 23 72  1  0
 24 73  1  0
 24 74  1  0
 25 75  1  1
 26 76  1  0
 27 77  1  0
 28 78  1  0
 28 79  1  0
 29 80  1  0
 29 81  1  0
 30 82  1  0
 30 83  1  0
 31 84  1  0
 31 85  1  0
 32 86  1  0
 32 87  1  0
 33 88  1  6
 34 89  1  0
 39 90  1  0
 39 91  1  0
 39 92  1  0
 40 93  1  0
 40 94  1  0
 40 95  1  0
 41 96  1  0
 41 97  1  0
 41 98  1  0
 45 99  1  0
 45100  1  0
 47101  1  0
 48102  1  0
 51103  1  0
 51104  1  0
 51105  1  0
 53106  1  0
 53107  1  0
 53108  1  0
M  END
$$$$
