
     RDKit          3D

 97102  0  0  0  0  0  0  0  0999 V2000
   -3.1933    7.1042   -0.5842 C   0  0  0  0  0  0  0  0  0  0  0  0
   -3.4135    6.0467    0.5177 C   0  0  0  0  0  0  0  0  0  0  0  0
   -4.8259    5.4378    0.4138 C   0  0  0  0  0  0  0  0  0  0  0  0
   -3.2653    6.7250    1.8888 C   0  0  0  0  0  0  0  0  0  0  0  0
   -2.4143    5.0178    0.4434 O   0  0  0  0  0  0  0  0  0  0  0  0
   -2.1914    4.1547   -0.6402 C   0  0  0  0  0  0  0  0  0  0  0  0
   -2.8804    4.2419   -1.6925 O   0  0  0  0  0  0  0  0  0  0  0  0
   -1.1577    3.1703   -0.5346 N   0  0  0  0  0  0  0  0  0  0  0  0
   -0.9444    2.1107   -1.5258 C   0  0  1  0  0  0  0  0  0  0  0  0
    0.5364    2.0714   -1.9356 C   0  0  0  0  0  0  0  0  0  0  0  0
    1.0579    3.3691   -2.5906 C   0  0  0  0  0  0  0  0  0  0  0  0
    1.6850    4.3657   -1.5935 C   0  0  0  0  0  0  0  0  0  0  0  0
    2.9813    3.8328   -0.9284 C   0  0  0  0  0  0  0  0  0  0  0  0
    2.9430    3.9987    0.5993 C   0  0  0  0  0  0  0  0  0  0  0  0
    4.0950    3.2968    1.2811 C   0  0  0  0  0  0  0  0  0  0  0  0
    4.1388    1.9720    1.5167 C   0  0  0  0  0  0  0  0  0  0  0  0
    3.0672    1.0246    1.0290 C   0  0  2  0  0  0  0  0  0  0  0  0
    3.2246   -0.4377    1.4518 C   0  0  0  0  0  0  0  0  0  0  0  0
    3.5022   -0.0252    0.0068 C   0  0  2  0  0  0  0  0  0  0  0  0
    4.9369   -0.1251   -0.4296 C   0  0  0  0  0  0  0  0  0  0  0  0
    5.5213    0.8831   -0.9116 O   0  0  0  0  0  0  0  0  0  0  0  0
    5.6102   -1.3864   -0.3512 N   0  0  0  0  0  0  0  0  0  0  0  0
    7.2869   -1.5571   -0.7363 S   0  0  0  0  0  6  0  0  0  0  0  0
    8.0925   -0.6131    0.1138 O   0  0  0  0  0  0  0  0  0  0  0  0
    7.4992   -1.2379   -2.1902 O   0  0  0  0  0  0  0  0  0  0  0  0
    7.7709   -3.2588   -0.4451 C   0  0  0  0  0  0  0  0  0  0  0  0
    9.2347   -3.4630   -0.0953 C   0  0  0  0  0  0  0  0  0  0  0  0
    8.1683   -3.5705    0.9896 C   0  0  0  0  0  0  0  0  0  0  0  0
    2.4913   -0.2733   -1.0192 N   0  0  0  0  0  0  0  0  0  0  0  0
    1.5142   -1.3122   -0.9581 C   0  0  0  0  0  0  0  0  0  0  0  0
    1.7364   -2.3878   -1.5801 O   0  0  0  0  0  0  0  0  0  0  0  0
    0.1670   -1.0655   -0.3045 C   0  0  2  0  0  0  0  0  0  0  0  0
   -0.5089   -2.3766    0.0897 C   0  0  0  0  0  0  0  0  0  0  0  0
   -1.3125   -2.7865   -1.1486 C   0  0  1  0  0  0  0  0  0  0  0  0
   -2.5561   -3.3818   -0.7816 O   0  0  0  0  0  0  0  0  0  0  0  0
   -2.6694   -4.6885   -0.2946 C   0  0  0  0  0  0  0  0  0  0  0  0
   -1.6612   -5.4442   -0.2552 O   0  0  0  0  0  0  0  0  0  0  0  0
   -3.9409   -5.1664    0.1601 N   0  0  0  0  0  0  0  0  0  0  0  0
   -5.0933   -4.2954    0.3883 C   0  0  0  0  0  0  0  0  0  0  0  0
   -6.1092   -5.2304    0.9322 C   0  0  0  0  0  0  0  0  0  0  0  0
   -7.4066   -4.9340    1.3530 C   0  0  0  0  0  0  0  0  0  0  0  0
   -8.2078   -5.9789    1.8406 C   0  0  0  0  0  0  0  0  0  0  0  0
   -7.7058   -7.2940    1.8965 C   0  0  0  0  0  0  0  0  0  0  0  0
   -6.3958   -7.5700    1.4697 C   0  0  0  0  0  0  0  0  0  0  0  0
   -5.8991   -8.8327    1.5300 F   0  0  0  0  0  0  0  0  0  0  0  0
   -5.6142   -6.5154    0.9926 C   0  0  0  0  0  0  0  0  0  0  0  0
   -4.2098   -6.5608    0.5141 C   0  0  0  0  0  0  0  0  0  0  0  0
   -1.5483   -1.4864   -1.9239 C   0  0  0  0  0  0  0  0  0  0  0  0
   -0.7538   -0.4551   -1.2617 N   0  0  0  0  0  0  0  0  0  0  0  0
   -1.3965    0.7923   -0.9338 C   0  0  0  0  0  0  0  0  0  0  0  0
   -2.4177    0.7741   -0.1914 O   0  0  0  0  0  0  0  0  0  0  0  0
   -2.1458    7.4777   -0.5504 H   0  0  0  0  0  0  0  0  0  0  0  0
   -3.3859    6.6816   -1.5938 H   0  0  0  0  0  0  0  0  0  0  0  0
   -3.8835    7.9657   -0.4385 H   0  0  0  0  0  0  0  0  0  0  0  0
   -4.9671    4.6579    1.1933 H   0  0  0  0  0  0  0  0  0  0  0  0
   -4.9954    4.9718   -0.5791 H   0  0  0  0  0  0  0  0  0  0  0  0
   -5.5979    6.2248    0.5568 H   0  0  0  0  0  0  0  0  0  0  0  0
   -4.0156    7.5344    2.0160 H   0  0  0  0  0  0  0  0  0  0  0  0
   -3.4057    5.9831    2.7053 H   0  0  0  0  0  0  0  0  0  0  0  0
   -2.2503    7.1656    1.9928 H   0  0  0  0  0  0  0  0  0  0  0  0
   -0.6083    3.1369    0.3545 H   0  0  0  0  0  0  0  0  0  0  0  0
   -1.5514    2.2941   -2.4392 H   0  0  0  0  0  0  0  0  0  0  0  0
    0.6704    1.2503   -2.6726 H   0  0  0  0  0  0  0  0  0  0  0  0
    1.1309    1.8297   -1.0401 H   0  0  0  0  0  0  0  0  0  0  0  0
    0.2316    3.8713   -3.1433 H   0  0  0  0  0  0  0  0  0  0  0  0
    1.8321    3.1002   -3.3464 H   0  0  0  0  0  0  0  0  0  0  0  0
    0.9306    4.6598   -0.8364 H   0  0  0  0  0  0  0  0  0  0  0  0
    1.9326    5.2972   -2.1506 H   0  0  0  0  0  0  0  0  0  0  0  0
    3.8519    4.4010   -1.3255 H   0  0  0  0  0  0  0  0  0  0  0  0
    3.1707    2.7702   -1.1918 H   0  0  0  0  0  0  0  0  0  0  0  0
    3.0024    5.0831    0.8327 H   0  0  0  0  0  0  0  0  0  0  0  0
    1.9786    3.6344    1.0158 H   0  0  0  0  0  0  0  0  0  0  0  0
    4.9031    3.9120    1.6662 H   0  0  0  0  0  0  0  0  0  0  0  0
    4.9914    1.5755    2.0636 H   0  0  0  0  0  0  0  0  0  0  0  0
    2.0041    1.3392    1.0486 H   0  0  0  0  0  0  0  0  0  0  0  0
    2.2710   -0.9660    1.6454 H   0  0  0  0  0  0  0  0  0  0  0  0
    4.1220   -0.6540    2.0704 H   0  0  0  0  0  0  0  0  0  0  0  0
    5.0954   -2.2265   -0.0036 H   0  0  0  0  0  0  0  0  0  0  0  0
    7.2844   -4.0891   -1.0005 H   0  0  0  0  0  0  0  0  0  0  0  0
    9.8587   -2.5449   -0.0254 H   0  0  0  0  0  0  0  0  0  0  0  0
    9.6533   -4.4433   -0.4112 H   0  0  0  0  0  0  0  0  0  0  0  0
    7.9651   -4.6163    1.3122 H   0  0  0  0  0  0  0  0  0  0  0  0
    8.1661   -2.7192    1.7044 H   0  0  0  0  0  0  0  0  0  0  0  0
    2.7183    0.0855   -1.9725 H   0  0  0  0  0  0  0  0  0  0  0  0
    0.2916   -0.4201    0.5942 H   0  0  0  0  0  0  0  0  0  0  0  0
   -1.2003   -2.1782    0.9388 H   0  0  0  0  0  0  0  0  0  0  0  0
    0.2127   -3.1639    0.4024 H   0  0  0  0  0  0  0  0  0  0  0  0
   -0.7233   -3.4911   -1.7800 H   0  0  0  0  0  0  0  0  0  0  0  0
   -5.4402   -3.8527   -0.5691 H   0  0  0  0  0  0  0  0  0  0  0  0
   -4.8432   -3.5091    1.1313 H   0  0  0  0  0  0  0  0  0  0  0  0
   -7.7868   -3.9202    1.3101 H   0  0  0  0  0  0  0  0  0  0  0  0
   -9.2173   -5.7704    2.1712 H   0  0  0  0  0  0  0  0  0  0  0  0
   -8.3278   -8.0934    2.2788 H   0  0  0  0  0  0  0  0  0  0  0  0
   -3.5283   -6.8956    1.3247 H   0  0  0  0  0  0  0  0  0  0  0  0
   -4.1234   -7.2110   -0.3828 H   0  0  0  0  0  0  0  0  0  0  0  0
   -1.2092   -1.5925   -2.9750 H   0  0  0  0  0  0  0  0  0  0  0  0
   -2.6304   -1.2244   -1.9243 H   0  0  0  0  0  0  0  0  0  0  0  0
  1  2  1  0
  2  3  1  0
  2  4  1  0
  2  5  1  0
  5  6  1  0
  6  7  2  0
  6  8  1  0
  8  9  1  0
  9 10  1  0
 10 11  1  0
 11 12  1  0
 12 13  1  0
 13 14  1  0
 14 15  1  0
 15 16  2  0
 16 17  1  0
 17 18  1  0
 18 19  1  0
 19 20  1  6
 20 21  2  0
 20 22  1  0
 22 23  1  0
 23 24  2  0
 23 25  2  0
 23 26  1  0
 26 27  1  0
 27 28  1  0
 19 29  1  0
 29 30  1  0
 30 31  2  0
 30 32  1  0
 32 33  1  0
 33 34  1  0
 34 35  1  0
 35 36  1  0
 36 37  2  0
 36 38  1  0
 38 39  1  0
 39 40  1  0
 40 41  2  0
 41 42  1  0
 42 43  2  0
 43 44  1  0
 44 45  1  0
 44 46  2  0
 46 47  1  0
 34 48  1  0
 48 49  1  0
 49 50  1  0
 50 51  2  0
 50  9  1  0
 19 17  1  0
 28 26  1  0
 49 32  1  0
 47 38  1  0
 46 40  1  0
  1 52  1  0
  1 53  1  0
  1 54  1  0
  3 55  1  0
  3 56  1  0
  3 57  1  0
  4 58  1  0
  4 59  1  0
  4 60  1  0
  8 61  1  0
  9 62  1  6
 10 63  1  0
 10 64  1  0
 11 65  1  0
 11 66  1  0
 12 67  1  0
 12 68  1  0
 13 69  1  0
 13 70  1  0
 14 71  1  0
 14 72  1  0
 15 73  1  0
 16 74  1  0
 17 75  1  6
 18 76  1  0
 18 77  1  0
 22 78  1  0
 26 79  1  0
 27 80  1  0
 27 81  1  0
 28 82  1  0
 28 83  1  0
 29 84  1  0
 32 85  1  1
 33 86  1  0
 33 87  1  0
 34 88  1  6
 39 89  1  0
 39 90  1  0
 41 91  1  0
 42 92  1  0
 43 93  1  0
 47 94  1  0
 47 95  1  0
 48 96  1  0
 48 97  1  0
M  END
$$$$
