
     RDKit          3D

 81 87  0  0  0  0  0  0  0  0999 V2000
   -0.0325   -4.0704    2.4431 C   0  0  0  0  0  0  0  0  0  0  0  0
    0.2402   -3.4295    1.1074 C   0  0  0  0  0  0  0  0  0  0  0  0
    0.8308   -2.1518    1.1055 C   0  0  0  0  0  0  0  0  0  0  0  0
    1.1600   -1.5031   -0.0929 C   0  0  0  0  0  0  0  0  0  0  0  0
    1.0088   -2.1943   -1.3001 C   0  0  0  0  0  0  0  0  0  0  0  0
    0.4175   -3.4533   -1.3216 C   0  0  0  0  0  0  0  0  0  0  0  0
   -0.0147   -4.0806   -0.1360 C   0  0  0  0  0  0  0  0  0  0  0  0
   -0.8415   -5.3600   -0.2933 C   0  0  1  0  0  0  0  0  0  0  0  0
   -0.2718   -6.5622    0.4718 C   0  0  0  0  0  0  0  0  0  0  0  0
   -2.3387   -5.1346    0.0089 C   0  0  0  0  0  0  0  0  0  0  0  0
   -2.7942   -3.8771   -0.4938 O   0  0  0  0  0  0  0  0  0  0  0  0
   -3.0858   -3.6383   -1.8414 C   0  0  0  0  0  0  0  0  0  0  0  0
   -2.9030   -4.5380   -2.7051 O   0  0  0  0  0  0  0  0  0  0  0  0
   -3.6512   -2.3839   -2.2389 N   0  0  0  0  0  0  0  0  0  0  0  0
   -3.6886   -1.2500   -1.3633 C   0  0  0  0  0  0  0  0  0  0  0  0
   -4.9011   -0.6022   -1.1162 C   0  0  0  0  0  0  0  0  0  0  0  0
   -4.9492    0.4911   -0.2517 C   0  0  0  0  0  0  0  0  0  0  0  0
   -3.7814    0.9761    0.3644 C   0  0  0  0  0  0  0  0  0  0  0  0
   -3.9047    2.1329    1.3329 C   0  0  0  0  0  0  0  0  0  0  0  0
   -3.7770    3.5315    0.8054 C   0  0  0  0  0  0  0  0  0  0  0  0
   -2.8732    4.4380    1.2262 N   0  0  0  0  0  0  0  0  0  0  0  0
   -3.1126    5.5182    0.4963 N   0  0  0  0  0  0  0  0  0  0  0  0
   -4.1155    5.2874   -0.3395 N   0  0  0  0  0  0  0  0  0  0  0  0
   -4.5451    4.0518   -0.1621 N   0  0  0  0  0  0  0  0  0  0  0  0
   -4.9590    1.9718    2.4285 C   0  0  0  0  0  0  0  0  0  0  0  0
   -3.4848    1.8782    2.7790 C   0  0  0  0  0  0  0  0  0  0  0  0
   -2.5308    0.3910    0.0307 C   0  0  0  0  0  0  0  0  0  0  0  0
   -2.5099   -0.7450   -0.7993 C   0  0  0  0  0  0  0  0  0  0  0  0
   -1.2048    0.9600    0.4966 C   0  0  0  0  0  0  0  0  0  0  0  0
   -0.3977    1.4024   -0.6548 N   0  0  0  0  0  0  0  0  0  0  0  0
   -0.8831    2.5202   -1.4699 C   0  0  0  0  0  0  0  0  0  0  0  0
    0.8533    0.7814   -1.0327 C   0  0  0  0  0  0  0  0  0  0  0  0
    1.2914    0.9478   -2.2058 O   0  0  0  0  0  0  0  0  0  0  0  0
    1.6626   -0.0719   -0.0749 C   0  0  2  0  0  0  0  0  0  0  0  0
    3.0908   -0.0294   -0.4208 N   0  0  0  0  0  0  0  0  0  0  0  0
    3.9211    1.1444   -0.2884 C   0  0  0  0  0  0  0  0  0  0  0  0
    3.4290    2.3472    0.2483 C   0  0  0  0  0  0  0  0  0  0  0  0
    4.2473    3.4743    0.3462 C   0  0  0  0  0  0  0  0  0  0  0  0
    5.5867    3.4324   -0.0913 C   0  0  0  0  0  0  0  0  0  0  0  0
    6.4577    4.5534   -0.0221 C   0  0  0  0  0  0  0  0  0  0  0  0
    6.0466    5.8285    0.4900 N   0  0  0  0  0  0  0  0  0  0  0  0
    7.7396    4.4295   -0.4616 N   0  0  0  0  0  0  0  0  0  0  0  0
    8.2329    3.2729   -0.9687 C   0  0  0  0  0  0  0  0  0  0  0  0
    7.4216    2.1466   -1.0636 C   0  0  0  0  0  0  0  0  0  0  0  0
    7.9367    1.0003   -1.5796 F   0  0  0  0  0  0  0  0  0  0  0  0
    6.0896    2.2166   -0.6262 C   0  0  0  0  0  0  0  0  0  0  0  0
    5.2548    1.0897   -0.7168 C   0  0  0  0  0  0  0  0  0  0  0  0
   -1.0756   -4.4219    2.5216 H   0  0  0  0  0  0  0  0  0  0  0  0
    0.1140   -3.3556    3.2806 H   0  0  0  0  0  0  0  0  0  0  0  0
    0.6731   -4.9099    2.6028 H   0  0  0  0  0  0  0  0  0  0  0  0
    1.0137   -1.6408    2.0429 H   0  0  0  0  0  0  0  0  0  0  0  0
    1.3004   -1.7362   -2.2363 H   0  0  0  0  0  0  0  0  0  0  0  0
    0.2593   -3.9205   -2.2847 H   0  0  0  0  0  0  0  0  0  0  0  0
   -0.7980   -5.6694   -1.3605 H   0  0  0  0  0  0  0  0  0  0  0  0
   -0.6787   -7.5019    0.0428 H   0  0  0  0  0  0  0  0  0  0  0  0
   -0.5544   -6.5499    1.5409 H   0  0  0  0  0  0  0  0  0  0  0  0
    0.8349   -6.5915    0.3762 H   0  0  0  0  0  0  0  0  0  0  0  0
   -2.5314   -5.1564    1.0974 H   0  0  0  0  0  0  0  0  0  0  0  0
   -2.9460   -5.9582   -0.4292 H   0  0  0  0  0  0  0  0  0  0  0  0
   -4.1679   -2.3342   -3.1454 H   0  0  0  0  0  0  0  0  0  0  0  0
   -5.8143   -0.9649   -1.5712 H   0  0  0  0  0  0  0  0  0  0  0  0
   -5.9055    0.9592   -0.0539 H   0  0  0  0  0  0  0  0  0  0  0  0
   -5.3280    3.5981   -0.6836 H   0  0  0  0  0  0  0  0  0  0  0  0
   -5.4361    2.9071    2.7951 H   0  0  0  0  0  0  0  0  0  0  0  0
   -5.4720    0.9885    2.4976 H   0  0  0  0  0  0  0  0  0  0  0  0
   -3.1445    0.8442    3.0043 H   0  0  0  0  0  0  0  0  0  0  0  0
   -3.1047    2.7569    3.3421 H   0  0  0  0  0  0  0  0  0  0  0  0
   -1.5695   -1.2153   -1.0440 H   0  0  0  0  0  0  0  0  0  0  0  0
   -1.3302    1.8209    1.1809 H   0  0  0  0  0  0  0  0  0  0  0  0
   -0.6934    0.1783    1.0865 H   0  0  0  0  0  0  0  0  0  0  0  0
   -1.0980    2.1671   -2.5008 H   0  0  0  0  0  0  0  0  0  0  0  0
   -1.8139    2.9544   -1.0485 H   0  0  0  0  0  0  0  0  0  0  0  0
   -0.1132    3.3212   -1.5042 H   0  0  0  0  0  0  0  0  0  0  0  0
    1.5519    0.3409    0.9502 H   0  0  0  0  0  0  0  0  0  0  0  0
    3.5277   -0.8906   -0.8227 H   0  0  0  0  0  0  0  0  0  0  0  0
    2.4081    2.4317    0.5930 H   0  0  0  0  0  0  0  0  0  0  0  0
    3.8064    4.3629    0.7686 H   0  0  0  0  0  0  0  0  0  0  0  0
    5.0860    6.0385    0.8286 H   0  0  0  0  0  0  0  0  0  0  0  0
    6.7353    6.6135    0.5178 H   0  0  0  0  0  0  0  0  0  0  0  0
    9.2607    3.2302   -1.3036 H   0  0  0  0  0  0  0  0  0  0  0  0
    5.6370    0.1633   -1.1300 H   0  0  0  0  0  0  0  0  0  0  0  0
  1  2  1  0
  2  3  1  0
  3  4  2  0
  4  5  1  0
  5  6  2  0
  6  7  1  0
  7  8  1  0
  8  9  1  0
  8 10  1  0
 10 11  1  0
 11 12  1  0
 12 13  2  0
 12 14  1  0
 14 15  1  0
 15 16  2  0
 16 17  1  0
 17 18  2  0
 18 19  1  0
 19 20  1  0
 20 21  2  0
 21 22  1  0
 22 23  2  0
 23 24  1  0
 19 25  1  0
 25 26  1  0
 18 27  1  0
 27 28  2  0
 27 29  1  0
 29 30  1  0
 30 31  1  0
 30 32  1  0
 32 33  2  0
 32 34  1  0
 34 35  1  0
 35 36  1  0
 36 37  2  0
 37 38  1  0
 38 39  2  0
 39 40  1  0
 40 41  1  0
 40 42  2  0
 42 43  1  0
 43 44  2  0
 44 45  1  0
 44 46  1  0
 46 47  2  0
  7  2  2  0
 28 15  1  0
 47 36  1  0
 34  4  1  0
 46 39  1  0
 26 19  1  0
 24 20  1  0
  1 48  1  0
  1 49  1  0
  1 50  1  0
  3 51  1  0
  5 52  1  0
  6 53  1  0
  8 54  1  6
  9 55  1  0
  9 56  1  0
  9 57  1  0
 10 58  1  0
 10 59  1  0
 14 60  1  0
 16 61  1  0
 17 62  1  0
 24 63  1  0
 25 64  1  0
 25 65  1  0
 26 66  1  0
 26 67  1  0
 28 68  1  0
 29 69  1  0
 29 70  1  0
 31 71  1  0
 31 72  1  0
 31 73  1  0
 34 74  1  1
 35 75  1  0
 37 76  1  0
 38 77  1  0
 41 78  1  0
 41 79  1  0
 43 80  1  0
 47 81  1  0
M  END
$$$$
