
     RDKit          3D

 84 89  0  0  0  0  0  0  0  0999 V2000
    2.7080    4.2496    3.5479 C   0  0  0  0  0  0  0  0  0  0  0  0
    2.1851    3.1500    2.8296 O   0  0  0  0  0  0  0  0  0  0  0  0
    1.8592    3.5262    1.4985 C   0  0  1  0  0  0  0  0  0  0  0  0
    2.9145    2.9444    0.5824 C   0  0  0  0  0  0  0  0  0  0  0  0
    2.7250    2.7061   -0.7293 C   0  0  0  0  0  0  0  0  0  0  0  0
    3.7187    1.9164   -1.5494 C   0  0  0  0  0  0  0  0  0  0  0  0
    4.2386    0.6820   -0.7885 C   0  0  0  0  0  0  0  0  0  0  0  0
    4.4412   -0.4653   -1.6774 N   0  0  0  0  0  0  0  0  0  0  0  0
    5.7797   -0.7793   -2.1773 C   0  0  0  0  0  0  0  0  0  0  0  0
    3.3585   -1.3809   -1.9055 C   0  0  0  0  0  0  0  0  0  0  0  0
    2.3336   -0.9854   -2.5229 O   0  0  0  0  0  0  0  0  0  0  0  0
    3.4102   -2.7968   -1.3850 C   0  0  0  0  0  0  0  0  0  0  0  0
    3.1636   -2.9375    0.1526 C   0  0  2  0  0  0  0  0  0  0  0  0
    3.8890   -1.9311    0.8205 O   0  0  0  0  0  0  0  0  0  0  0  0
    3.7308   -4.2805    0.5905 C   0  0  0  0  0  0  0  0  0  0  0  0
    3.5459   -5.3125   -0.1153 O   0  0  0  0  0  0  0  0  0  0  0  0
    4.4279   -4.3920    1.7936 O   0  0  0  0  0  0  0  0  0  0  0  0
    1.6563   -2.8058    0.4814 C   0  0  0  0  0  0  0  0  0  0  0  0
    0.9024   -3.8743    1.0098 C   0  0  0  0  0  0  0  0  0  0  0  0
   -0.4621   -3.7328    1.2647 C   0  0  0  0  0  0  0  0  0  0  0  0
   -1.1267   -2.5406    0.9770 C   0  0  0  0  0  0  0  0  0  0  0  0
   -0.4009   -1.4466    0.4457 C   0  0  0  0  0  0  0  0  0  0  0  0
    0.9873   -1.5872    0.2442 C   0  0  0  0  0  0  0  0  0  0  0  0
   -1.0973   -0.2971   -0.0901 N   0  0  0  0  0  0  0  0  0  0  0  0
   -0.4955    1.0494   -0.1434 C   0  0  0  0  0  0  0  0  0  0  0  0
    0.2081    1.5109    1.1614 C   0  0  2  0  0  0  0  0  0  0  0  0
   -0.7135    1.6617    2.3721 C   0  0  0  0  0  0  0  0  0  0  0  0
   -0.5897    3.1782    2.2928 C   0  0  0  0  0  0  0  0  0  0  0  0
    0.4235    3.0394    1.1518 C   0  0  1  0  0  0  0  0  0  0  0  0
   -2.1476   -0.5953   -1.0827 C   0  0  0  0  0  0  0  0  0  0  0  0
   -3.5204   -0.9853   -0.4376 C   0  0  2  0  0  0  0  0  0  0  0  0
   -4.0924   -2.2404   -1.1659 C   0  0  0  0  0  0  0  0  0  0  0  0
   -4.6345   -1.8998   -2.5518 C   0  0  0  0  0  0  0  0  0  0  0  0
   -5.8378   -0.9690   -2.4231 C   0  0  0  0  0  0  0  0  0  0  0  0
   -5.5612    0.2057   -1.5180 C   0  0  0  0  0  0  0  0  0  0  0  0
   -6.4311    1.3076   -1.5904 C   0  0  0  0  0  0  0  0  0  0  0  0
   -6.2226    2.4319   -0.7911 C   0  0  0  0  0  0  0  0  0  0  0  0
   -7.3092    3.8072   -0.9022 Cl  0  0  0  0  0  0  0  0  0  0  0  0
   -5.1452    2.4695    0.0880 C   0  0  0  0  0  0  0  0  0  0  0  0
   -4.2872    1.3746    0.1884 C   0  0  0  0  0  0  0  0  0  0  0  0
   -4.4983    0.2024   -0.5689 C   0  0  0  0  0  0  0  0  0  0  0  0
   -3.3499   -1.3660    1.0615 C   0  0  0  0  0  0  0  0  0  0  0  0
   -2.5093   -2.5068    1.2188 O   0  0  0  0  0  0  0  0  0  0  0  0
    3.6044    4.6752    3.0416 H   0  0  0  0  0  0  0  0  0  0  0  0
    1.9242    5.0349    3.6808 H   0  0  0  0  0  0  0  0  0  0  0  0
    3.0134    3.9048    4.5583 H   0  0  0  0  0  0  0  0  0  0  0  0
    1.8607    4.6332    1.3373 H   0  0  0  0  0  0  0  0  0  0  0  0
    3.8470    2.6280    1.0427 H   0  0  0  0  0  0  0  0  0  0  0  0
    1.8006    3.0055   -1.2104 H   0  0  0  0  0  0  0  0  0  0  0  0
    3.2233    1.6075   -2.4928 H   0  0  0  0  0  0  0  0  0  0  0  0
    4.5714    2.5722   -1.8194 H   0  0  0  0  0  0  0  0  0  0  0  0
    3.5336    0.3934    0.0188 H   0  0  0  0  0  0  0  0  0  0  0  0
    5.1911    0.9433   -0.2741 H   0  0  0  0  0  0  0  0  0  0  0  0
    6.4397    0.1095   -2.1214 H   0  0  0  0  0  0  0  0  0  0  0  0
    6.2269   -1.5924   -1.5667 H   0  0  0  0  0  0  0  0  0  0  0  0
    5.7199   -1.0976   -3.2381 H   0  0  0  0  0  0  0  0  0  0  0  0
    4.4100   -3.2087   -1.6433 H   0  0  0  0  0  0  0  0  0  0  0  0
    2.6655   -3.4142   -1.9371 H   0  0  0  0  0  0  0  0  0  0  0  0
    3.6195   -1.9355    1.7767 H   0  0  0  0  0  0  0  0  0  0  0  0
    4.8013   -5.2854    2.0958 H   0  0  0  0  0  0  0  0  0  0  0  0
    1.3521   -4.8314    1.2288 H   0  0  0  0  0  0  0  0  0  0  0  0
   -1.0174   -4.5730    1.6666 H   0  0  0  0  0  0  0  0  0  0  0  0
    1.5371   -0.7578   -0.1545 H   0  0  0  0  0  0  0  0  0  0  0  0
    0.2346    1.0797   -0.9813 H   0  0  0  0  0  0  0  0  0  0  0  0
   -1.2958    1.7821   -0.3923 H   0  0  0  0  0  0  0  0  0  0  0  0
    1.1266    0.9382    1.4023 H   0  0  0  0  0  0  0  0  0  0  0  0
   -0.2481    1.2616    3.3001 H   0  0  0  0  0  0  0  0  0  0  0  0
   -1.7473    1.3069    2.2247 H   0  0  0  0  0  0  0  0  0  0  0  0
   -1.5379    3.6414    1.9439 H   0  0  0  0  0  0  0  0  0  0  0  0
   -0.2050    3.6413    3.2267 H   0  0  0  0  0  0  0  0  0  0  0  0
    0.0493    3.5461    0.2343 H   0  0  0  0  0  0  0  0  0  0  0  0
   -2.2851    0.2598   -1.7808 H   0  0  0  0  0  0  0  0  0  0  0  0
   -1.7687   -1.4078   -1.7421 H   0  0  0  0  0  0  0  0  0  0  0  0
   -4.9189   -2.6910   -0.5729 H   0  0  0  0  0  0  0  0  0  0  0  0
   -3.3121   -3.0268   -1.2666 H   0  0  0  0  0  0  0  0  0  0  0  0
   -3.8490   -1.4190   -3.1731 H   0  0  0  0  0  0  0  0  0  0  0  0
   -4.9513   -2.8339   -3.0652 H   0  0  0  0  0  0  0  0  0  0  0  0
   -6.6956   -1.5377   -2.0091 H   0  0  0  0  0  0  0  0  0  0  0  0
   -6.1187   -0.6098   -3.4399 H   0  0  0  0  0  0  0  0  0  0  0  0
   -7.2702    1.2936   -2.2765 H   0  0  0  0  0  0  0  0  0  0  0  0
   -4.9684    3.3492    0.6946 H   0  0  0  0  0  0  0  0  0  0  0  0
   -3.4544    1.4548    0.8580 H   0  0  0  0  0  0  0  0  0  0  0  0
   -2.9393   -0.5396    1.6699 H   0  0  0  0  0  0  0  0  0  0  0  0
   -4.3436   -1.6059    1.4978 H   0  0  0  0  0  0  0  0  0  0  0  0
  1  2  1  0
  2  3  1  0
  3  4  1  0
  4  5  2  0
  5  6  1  0
  6  7  1  0
  7  8  1  0
  8  9  1  0
  8 10  1  0
 10 11  2  0
 10 12  1  0
 12 13  1  0
 13 14  1  1
 13 15  1  0
 15 16  2  0
 15 17  1  0
 13 18  1  0
 18 19  1  0
 19 20  2  0
 20 21  1  0
 21 22  2  0
 22 23  1  0
 22 24  1  0
 24 25  1  0
 25 26  1  0
 26 27  1  0
 27 28  1  0
 28 29  1  0
 24 30  1  0
 31 30  1  6
 31 32  1  0
 32 33  1  0
 33 34  1  0
 34 35  1  0
 35 36  2  0
 36 37  1  0
 37 38  1  0
 37 39  2  0
 39 40  1  0
 40 41  2  0
 31 42  1  0
 42 43  1  0
 29  3  1  0
 41 31  1  0
 23 18  2  0
 29 26  1  0
 41 35  1  0
 43 21  1  0
  1 44  1  0
  1 45  1  0
  1 46  1  0
  3 47  1  1
  4 48  1  0
  5 49  1  0
  6 50  1  0
  6 51  1  0
  7 52  1  0
  7 53  1  0
  9 54  1  0
  9 55  1  0
  9 56  1  0
 12 57  1  0
 12 58  1  0
 14 59  1  0
 17 60  1  0
 19 61  1  0
 20 62  1  0
 23 63  1  0
 25 64  1  0
 25 65  1  0
 26 66  1  1
 27 67  1  0
 27 68  1  0
 28 69  1  0
 28 70  1  0
 29 71  1  6
 30 72  1  0
 30 73  1  0
 32 74  1  0
 32 75  1  0
 33 76  1  0
 33 77  1  0
 34 78  1  0
 34 79  1  0
 36 80  1  0
 39 81  1  0
 40 82  1  0
 42 83  1  0
 42 84  1  0
M  END
$$$$
