
     RDKit          3D

 78 83  0  0  0  0  0  0  0  0999 V2000
   -6.8626    0.7056   -4.7844 C   0  0  0  0  0  0  0  0  0  0  0  0
   -5.9644    0.4211   -3.6234 C   0  0  0  0  0  0  0  0  0  0  0  0
   -4.6760   -0.0770   -3.8307 C   0  0  0  0  0  0  0  0  0  0  0  0
   -3.8520   -0.3705   -2.7311 C   0  0  0  0  0  0  0  0  0  0  0  0
   -4.3476   -0.1425   -1.4317 C   0  0  0  0  0  0  0  0  0  0  0  0
   -5.6514    0.3637   -1.2597 C   0  0  0  0  0  0  0  0  0  0  0  0
   -6.4153    0.6161   -2.3576 N   0  0  0  0  0  0  0  0  0  0  0  0
   -6.2530    0.5973    0.0737 C   0  0  0  0  0  0  0  0  0  0  0  0
   -7.6078    0.7083    0.3303 C   0  0  0  0  0  0  0  0  0  0  0  0
   -7.8022    0.9437    1.6411 N   0  0  0  0  0  0  0  0  0  0  0  0
   -6.6197    0.9984    2.2344 N   0  0  0  0  0  0  0  0  0  0  0  0
   -6.4907    1.2172    3.6706 C   0  0  0  0  0  0  0  0  0  0  0  0
   -5.6489    0.8012    1.3051 C   0  0  0  0  0  0  0  0  0  0  0  0
   -4.2600    0.8262    1.5029 O   0  0  0  0  0  0  0  0  0  0  0  0
   -3.5746    1.1065    2.7202 C   0  0  0  0  0  0  0  0  0  0  0  0
   -2.0692    1.0396    2.4728 C   0  0  0  0  0  0  0  0  0  0  0  0
   -1.6096   -0.3935    2.1352 C   0  0  0  0  0  0  0  0  0  0  0  0
   -0.3932   -0.4155    1.1866 C   0  0  1  0  0  0  0  0  0  0  0  0
    0.8588    0.1616    1.8626 C   0  0  0  0  0  0  0  0  0  0  0  0
   -0.1282   -1.8503    0.6681 C   0  0  0  0  0  0  0  0  0  0  0  0
    0.3843   -1.8188   -0.7009 N   0  0  0  0  0  0  0  0  0  0  0  0
   -0.3613   -1.4459   -1.8679 C   0  0  0  0  0  0  0  0  0  0  0  0
   -1.6539   -1.2736   -1.8469 N   0  0  0  0  0  0  0  0  0  0  0  0
   -2.4882   -0.9133   -2.9578 C   0  0  0  0  0  0  0  0  0  0  0  0
   -2.0920   -1.1167   -4.1387 O   0  0  0  0  0  0  0  0  0  0  0  0
    0.4885   -1.1486   -2.9842 N   0  0  0  0  0  0  0  0  0  0  0  0
    1.7931   -1.3171   -2.4445 C   0  0  0  0  0  0  0  0  0  0  0  0
    3.0040   -1.1022   -3.0943 C   0  0  0  0  0  0  0  0  0  0  0  0
    4.1906   -1.2989   -2.3689 C   0  0  0  0  0  0  0  0  0  0  0  0
    4.1513   -1.6844   -1.0055 C   0  0  0  0  0  0  0  0  0  0  0  0
    5.4375   -1.9018   -0.2351 C   0  0  0  0  0  0  0  0  0  0  0  0
    6.0161   -0.6659    0.3366 N   0  0  0  0  0  0  0  0  0  0  0  0
    5.1816   -0.0555    1.3900 C   0  0  0  0  0  0  0  0  0  0  0  0
    5.7018    1.3417    1.7973 C   0  0  0  0  0  0  0  0  0  0  0  0
    7.1149    1.5558    1.4257 N   0  0  0  0  0  0  0  0  0  0  0  0
    8.0300    0.7519    2.2545 C   0  0  0  0  0  0  0  0  0  0  0  0
    7.3559    1.3676   -0.0259 C   0  0  0  0  0  0  0  0  0  0  0  0
    6.4248    0.3222   -0.6714 C   0  0  0  0  0  0  0  0  0  0  0  0
    2.9031   -1.8919   -0.3763 C   0  0  0  0  0  0  0  0  0  0  0  0
    1.7401   -1.6960   -1.1247 C   0  0  0  0  0  0  0  0  0  0  0  0
   -7.1371   -0.2458   -5.2872 H   0  0  0  0  0  0  0  0  0  0  0  0
   -6.3428    1.3661   -5.5101 H   0  0  0  0  0  0  0  0  0  0  0  0
   -7.7905    1.2123   -4.4434 H   0  0  0  0  0  0  0  0  0  0  0  0
   -4.3277   -0.2405   -4.8439 H   0  0  0  0  0  0  0  0  0  0  0  0
   -3.7369   -0.3846   -0.5734 H   0  0  0  0  0  0  0  0  0  0  0  0
   -8.4072    0.6190   -0.3938 H   0  0  0  0  0  0  0  0  0  0  0  0
   -5.9210    2.1454    3.8720 H   0  0  0  0  0  0  0  0  0  0  0  0
   -6.0133    0.3393    4.1511 H   0  0  0  0  0  0  0  0  0  0  0  0
   -7.4970    1.3439    4.1262 H   0  0  0  0  0  0  0  0  0  0  0  0
   -3.8451    0.3645    3.4989 H   0  0  0  0  0  0  0  0  0  0  0  0
   -3.8229    2.1327    3.0610 H   0  0  0  0  0  0  0  0  0  0  0  0
   -1.5352    1.3877    3.3833 H   0  0  0  0  0  0  0  0  0  0  0  0
   -1.8232    1.7422    1.6466 H   0  0  0  0  0  0  0  0  0  0  0  0
   -1.3754   -0.9426    3.0743 H   0  0  0  0  0  0  0  0  0  0  0  0
   -2.4438   -0.9373    1.6388 H   0  0  0  0  0  0  0  0  0  0  0  0
   -0.6403    0.2334    0.3176 H   0  0  0  0  0  0  0  0  0  0  0  0
    1.6999    0.1888    1.1421 H   0  0  0  0  0  0  0  0  0  0  0  0
    1.1533   -0.4538    2.7394 H   0  0  0  0  0  0  0  0  0  0  0  0
    0.6786    1.2033    2.2021 H   0  0  0  0  0  0  0  0  0  0  0  0
   -1.0650   -2.4485    0.6624 H   0  0  0  0  0  0  0  0  0  0  0  0
    0.5769   -2.3947    1.3319 H   0  0  0  0  0  0  0  0  0  0  0  0
    0.2564   -0.6900   -3.8914 H   0  0  0  0  0  0  0  0  0  0  0  0
    3.0321   -0.7944   -4.1310 H   0  0  0  0  0  0  0  0  0  0  0  0
    5.1390   -1.1495   -2.8681 H   0  0  0  0  0  0  0  0  0  0  0  0
    6.1872   -2.3840   -0.9000 H   0  0  0  0  0  0  0  0  0  0  0  0
    5.2653   -2.6343    0.5841 H   0  0  0  0  0  0  0  0  0  0  0  0
    5.1947   -0.7167    2.2832 H   0  0  0  0  0  0  0  0  0  0  0  0
    4.1289    0.0520    1.0570 H   0  0  0  0  0  0  0  0  0  0  0  0
    5.0862    2.1183    1.2923 H   0  0  0  0  0  0  0  0  0  0  0  0
    5.5591    1.4980    2.8897 H   0  0  0  0  0  0  0  0  0  0  0  0
    9.0805    1.0565    2.0582 H   0  0  0  0  0  0  0  0  0  0  0  0
    7.9277   -0.3348    2.0461 H   0  0  0  0  0  0  0  0  0  0  0  0
    7.8343    0.9342    3.3331 H   0  0  0  0  0  0  0  0  0  0  0  0
    8.4151    1.0836   -0.2191 H   0  0  0  0  0  0  0  0  0  0  0  0
    7.2042    2.3419   -0.5373 H   0  0  0  0  0  0  0  0  0  0  0  0
    5.5311    0.8328   -1.0964 H   0  0  0  0  0  0  0  0  0  0  0  0
    6.9716   -0.1712   -1.5043 H   0  0  0  0  0  0  0  0  0  0  0  0
    2.8480   -2.1916    0.6618 H   0  0  0  0  0  0  0  0  0  0  0  0
  1  2  1  0
  2  3  2  0
  3  4  1  0
  4  5  2  0
  5  6  1  0
  6  7  2  0
  6  8  1  0
  8  9  1  0
  9 10  2  0
 10 11  1  0
 11 12  1  0
 11 13  1  0
 13 14  1  0
 14 15  1  0
 15 16  1  0
 16 17  1  0
 17 18  1  0
 18 19  1  0
 18 20  1  0
 20 21  1  0
 21 22  1  0
 22 23  2  0
 23 24  1  0
 24 25  2  0
 22 26  1  0
 26 27  1  0
 27 28  2  0
 28 29  1  0
 29 30  2  0
 30 31  1  0
 31 32  1  0
 32 33  1  0
 33 34  1  0
 34 35  1  0
 35 36  1  0
 35 37  1  0
 37 38  1  0
 30 39  1  0
 39 40  2  0
  7  2  1  0
 13  8  2  0
 40 21  1  0
 24  4  1  0
 40 27  1  0
 38 32  1  0
  1 41  1  0
  1 42  1  0
  1 43  1  0
  3 44  1  0
  5 45  1  0
  9 46  1  0
 12 47  1  0
 12 48  1  0
 12 49  1  0
 15 50  1  0
 15 51  1  0
 16 52  1  0
 16 53  1  0
 17 54  1  0
 17 55  1  0
 18 56  1  6
 19 57  1  0
 19 58  1  0
 19 59  1  0
 20 60  1  0
 20 61  1  0
 26 62  1  0
 28 63  1  0
 29 64  1  0
 31 65  1  0
 31 66  1  0
 33 67  1  0
 33 68  1  0
 34 69  1  0
 34 70  1  0
 36 71  1  0
 36 72  1  0
 36 73  1  0
 37 74  1  0
 37 75  1  0
 38 76  1  0
 38 77  1  0
 39 78  1  0
M  END
$$$$
