
     RDKit          3D

 77 80  0  0  0  0  0  0  0  0999 V2000
   -1.0527   -5.0988    2.2510 C   0  0  0  0  0  0  0  0  0  0  0  0
   -0.8125   -4.8598    0.7958 C   0  0  0  0  0  0  0  0  0  0  0  0
   -0.2048   -5.7301    0.1148 O   0  0  0  0  0  0  0  0  0  0  0  0
   -1.2468   -3.6322    0.1927 N   0  0  0  0  0  0  0  0  0  0  0  0
   -1.1308   -3.3626   -1.2448 C   0  0  1  0  0  0  0  0  0  0  0  0
   -2.5136   -3.4882   -1.9222 C   0  0  0  0  0  0  0  0  0  0  0  0
   -3.5532   -2.5691   -1.3209 C   0  0  0  0  0  0  0  0  0  0  0  0
   -4.4335   -3.0440   -0.3333 C   0  0  0  0  0  0  0  0  0  0  0  0
   -5.3618   -2.1814    0.2579 C   0  0  0  0  0  0  0  0  0  0  0  0
   -5.4058   -0.8361   -0.1160 C   0  0  0  0  0  0  0  0  0  0  0  0
   -4.5228   -0.3503   -1.0864 C   0  0  0  0  0  0  0  0  0  0  0  0
   -3.6166   -1.2188   -1.7040 C   0  0  0  0  0  0  0  0  0  0  0  0
   -4.5227    1.0069   -1.4159 O   0  0  0  0  0  0  0  0  0  0  0  0
   -3.7961    1.9713   -0.6982 C   0  0  0  0  0  0  0  0  0  0  0  0
   -3.8684    3.3094   -1.1035 C   0  0  0  0  0  0  0  0  0  0  0  0
   -3.1441    4.2953   -0.4257 C   0  0  0  0  0  0  0  0  0  0  0  0
   -2.3443    3.9528    0.6680 C   0  0  0  0  0  0  0  0  0  0  0  0
   -2.2776    2.6209    1.1013 C   0  0  0  0  0  0  0  0  0  0  0  0
   -2.9949    1.6323    0.4089 C   0  0  0  0  0  0  0  0  0  0  0  0
   -1.3755    2.2250    2.2403 C   0  0  0  0  0  0  0  0  0  0  0  0
   -0.0001    1.7469    1.7198 C   0  0  1  0  0  0  0  0  0  0  0  0
    1.0424    2.8213    1.8732 C   0  0  0  0  0  0  0  0  0  0  0  0
    1.5821    3.0158    2.9953 O   0  0  0  0  0  0  0  0  0  0  0  0
    1.3742    3.6602    0.7568 N   0  0  0  0  0  0  0  0  0  0  0  0
    2.5843    4.4788    0.7231 C   0  0  0  0  0  0  0  0  0  0  0  0
    3.7148    3.7232    0.0292 C   0  0  0  0  0  0  0  0  0  0  0  0
    4.8554    4.5045    0.0197 F   0  0  0  0  0  0  0  0  0  0  0  0
    3.9823    2.5425    0.6992 F   0  0  0  0  0  0  0  0  0  0  0  0
    3.3540    3.4370   -1.2752 F   0  0  0  0  0  0  0  0  0  0  0  0
    0.4156    0.5353    2.4317 N   0  0  0  0  0  0  0  0  0  0  0  0
    0.2016   -0.7862    1.9089 C   0  0  0  0  0  0  0  0  0  0  0  0
   -0.4012   -1.6269    2.6269 O   0  0  0  0  0  0  0  0  0  0  0  0
    0.7331   -1.2308    0.5604 C   0  0  2  0  0  0  0  0  0  0  0  0
    2.0402   -0.4939    0.1890 C   0  0  0  0  0  0  0  0  0  0  0  0
    2.8439   -1.2355   -0.8863 C   0  0  0  0  0  0  0  0  0  0  0  0
    4.1043   -0.4798   -1.2113 C   0  0  0  0  0  0  0  0  0  0  0  0
    4.1173    0.4640   -2.2519 C   0  0  0  0  0  0  0  0  0  0  0  0
    5.2768    1.1974   -2.5234 C   0  0  0  0  0  0  0  0  0  0  0  0
    6.4252    1.0013   -1.7521 C   0  0  0  0  0  0  0  0  0  0  0  0
    6.4162    0.0728   -0.7075 C   0  0  0  0  0  0  0  0  0  0  0  0
    5.2597   -0.6638   -0.4344 C   0  0  0  0  0  0  0  0  0  0  0  0
   -0.2903   -1.0478   -0.4768 N   0  0  0  0  0  0  0  0  0  0  0  0
   -0.5103   -2.0115   -1.5140 C   0  0  0  0  0  0  0  0  0  0  0  0
   -0.2579   -1.6888   -2.7054 O   0  0  0  0  0  0  0  0  0  0  0  0
   -0.8396   -6.1568    2.5146 H   0  0  0  0  0  0  0  0  0  0  0  0
   -2.1101   -4.8741    2.4979 H   0  0  0  0  0  0  0  0  0  0  0  0
   -0.3920   -4.4380    2.8481 H   0  0  0  0  0  0  0  0  0  0  0  0
   -1.7692   -2.9505    0.7878 H   0  0  0  0  0  0  0  0  0  0  0  0
   -0.4603   -4.1135   -1.7164 H   0  0  0  0  0  0  0  0  0  0  0  0
   -2.4196   -3.2798   -3.0112 H   0  0  0  0  0  0  0  0  0  0  0  0
   -2.8552   -4.5432   -1.8383 H   0  0  0  0  0  0  0  0  0  0  0  0
   -4.3946   -4.0788   -0.0163 H   0  0  0  0  0  0  0  0  0  0  0  0
   -6.0374   -2.5526    1.0179 H   0  0  0  0  0  0  0  0  0  0  0  0
   -6.1104   -0.1661    0.3596 H   0  0  0  0  0  0  0  0  0  0  0  0
   -2.9417   -0.8318   -2.4562 H   0  0  0  0  0  0  0  0  0  0  0  0
   -4.4816    3.5837   -1.9520 H   0  0  0  0  0  0  0  0  0  0  0  0
   -3.1982    5.3256   -0.7528 H   0  0  0  0  0  0  0  0  0  0  0  0
   -1.7748    4.7228    1.1731 H   0  0  0  0  0  0  0  0  0  0  0  0
   -2.9142    0.6023    0.7323 H   0  0  0  0  0  0  0  0  0  0  0  0
   -1.2656    3.0690    2.9575 H   0  0  0  0  0  0  0  0  0  0  0  0
   -1.8722    1.4112    2.8124 H   0  0  0  0  0  0  0  0  0  0  0  0
   -0.0730    1.5231    0.6415 H   0  0  0  0  0  0  0  0  0  0  0  0
    0.8223    3.5682   -0.1268 H   0  0  0  0  0  0  0  0  0  0  0  0
    2.8958    4.7649    1.7510 H   0  0  0  0  0  0  0  0  0  0  0  0
    2.3727    5.4159    0.1642 H   0  0  0  0  0  0  0  0  0  0  0  0
    0.5436    0.6133    3.4663 H   0  0  0  0  0  0  0  0  0  0  0  0
    0.9753   -2.3129    0.6534 H   0  0  0  0  0  0  0  0  0  0  0  0
    2.6800   -0.4022    1.0957 H   0  0  0  0  0  0  0  0  0  0  0  0
    1.8161    0.5312   -0.1746 H   0  0  0  0  0  0  0  0  0  0  0  0
    3.1022   -2.2547   -0.5271 H   0  0  0  0  0  0  0  0  0  0  0  0
    2.2332   -1.3543   -1.8052 H   0  0  0  0  0  0  0  0  0  0  0  0
    3.2291    0.6351   -2.8484 H   0  0  0  0  0  0  0  0  0  0  0  0
    5.2832    1.9204   -3.3290 H   0  0  0  0  0  0  0  0  0  0  0  0
    7.3207    1.5727   -1.9605 H   0  0  0  0  0  0  0  0  0  0  0  0
    7.3041   -0.0752   -0.1069 H   0  0  0  0  0  0  0  0  0  0  0  0
    5.2613   -1.3724    0.3845 H   0  0  0  0  0  0  0  0  0  0  0  0
   -0.6152   -0.0808   -0.6908 H   0  0  0  0  0  0  0  0  0  0  0  0
  1  2  1  0
  2  3  2  0
  2  4  1  0
  4  5  1  0
  5  6  1  0
  6  7  1  0
  7  8  1  0
  8  9  2  0
  9 10  1  0
 10 11  2  0
 11 12  1  0
 11 13  1  0
 13 14  1  0
 14 15  1  0
 15 16  2  0
 16 17  1  0
 17 18  2  0
 18 19  1  0
 18 20  1  0
 20 21  1  0
 21 22  1  0
 22 23  2  0
 22 24  1  0
 24 25  1  0
 25 26  1  0
 26 27  1  0
 26 28  1  0
 26 29  1  0
 21 30  1  0
 30 31  1  0
 31 32  2  0
 31 33  1  0
 33 34  1  0
 34 35  1  0
 35 36  1  0
 36 37  2  0
 37 38  1  0
 38 39  2  0
 39 40  1  0
 40 41  2  0
 33 42  1  0
 42 43  1  0
 43 44  2  0
 43  5  1  0
 12  7  2  0
 19 14  2  0
 41 36  1  0
  1 45  1  0
  1 46  1  0
  1 47  1  0
  4 48  1  0
  5 49  1  6
  6 50  1  0
  6 51  1  0
  8 52  1  0
  9 53  1  0
 10 54  1  0
 12 55  1  0
 15 56  1  0
 16 57  1  0
 17 58  1  0
 19 59  1  0
 20 60  1  0
 20 61  1  0
 21 62  1  6
 24 63  1  0
 25 64  1  0
 25 65  1  0
 30 66  1  0
 33 67  1  1
 34 68  1  0
 34 69  1  0
 35 70  1  0
 35 71  1  0
 37 72  1  0
 38 73  1  0
 39 74  1  0
 40 75  1  0
 41 76  1  0
 42 77  1  0
M  END
$$$$
