
     RDKit          3D

106110  0  0  0  0  0  0  0  0999 V2000
    9.2750    2.6627   -1.0411 C   0  0  0  0  0  0  0  0  0  0  0  0
    7.8033    2.4198   -1.1329 C   0  0  0  0  0  0  0  0  0  0  0  0
    7.1958    2.6666   -2.2122 O   0  0  0  0  0  0  0  0  0  0  0  0
    7.0857    1.9313    0.0104 N   0  0  0  0  0  0  0  0  0  0  0  0
    5.6376    1.6986    0.0035 C   0  0  1  0  0  0  0  0  0  0  0  0
    5.3510    0.2010    0.2525 C   0  0  0  0  0  0  0  0  0  0  0  0
    5.7901   -0.6785   -0.9285 C   0  0  0  0  0  0  0  0  0  0  0  0
    5.8252   -2.1309   -0.5584 C   0  0  0  0  0  0  0  0  0  0  0  0
    6.9261   -2.6707   -0.2674 O   0  0  0  0  0  0  0  0  0  0  0  0
    4.6301   -2.9172   -0.5510 N   0  0  0  0  0  0  0  0  0  0  0  0
    3.8651   -3.0513    0.6887 C   0  0  0  0  0  0  0  0  0  0  0  0
    2.4517   -3.5560    0.3943 C   0  0  0  0  0  0  0  0  0  0  0  0
    1.4818   -3.5651    1.9393 S   0  0  0  0  0  0  0  0  0  0  0  0
    0.0099   -4.2915    1.1930 C   0  0  0  0  0  0  0  0  0  0  0  0
   -0.8980   -3.6505    0.4613 C   0  0  0  0  0  0  0  0  0  0  0  0
   -0.8166   -2.3132    0.0742 O   0  0  0  0  0  0  0  0  0  0  0  0
   -0.7549   -1.2132    0.9731 C   0  0  0  0  0  0  0  0  0  0  0  0
   -0.1226   -0.0327    0.2344 C   0  0  2  0  0  0  0  0  0  0  0  0
    0.3268    1.0123    1.1605 N   0  0  0  0  0  0  0  0  0  0  0  0
    1.6993    1.0756    1.5593 C   0  0  0  0  0  0  0  0  0  0  0  0
    2.2809    0.0126    1.9151 O   0  0  0  0  0  0  0  0  0  0  0  0
    2.4500    2.3971    1.5866 C   0  0  2  0  0  0  0  0  0  0  0  0
    2.1941    3.2948    0.3175 C   0  0  0  0  0  0  0  0  0  0  0  0
    0.8988    4.1197    0.4199 C   0  0  0  0  0  0  0  0  0  0  0  0
    2.2131    2.5091   -1.0057 C   0  0  0  0  0  0  0  0  0  0  0  0
    3.8859    2.1409    1.8369 N   0  0  0  0  0  0  0  0  0  0  0  0
    4.9778    2.5983    1.0275 C   0  0  0  0  0  0  0  0  0  0  0  0
    5.3770    3.7862    1.1568 O   0  0  0  0  0  0  0  0  0  0  0  0
   -1.0351    0.5192   -0.8358 C   0  0  0  0  0  0  0  0  0  0  0  0
   -0.9846    0.0113   -1.9891 O   0  0  0  0  0  0  0  0  0  0  0  0
   -1.9203    1.6219   -0.6044 N   0  0  0  0  0  0  0  0  0  0  0  0
   -2.9349    1.5955    0.4555 C   0  0  1  0  0  0  0  0  0  0  0  0
   -3.2991    3.0210    0.9199 C   0  0  0  0  0  0  0  0  0  0  0  0
   -3.8497    3.9077   -0.1730 C   0  0  0  0  0  0  0  0  0  0  0  0
   -2.9960    4.7567   -0.8985 C   0  0  0  0  0  0  0  0  0  0  0  0
   -3.5081    5.5834   -1.9044 C   0  0  0  0  0  0  0  0  0  0  0  0
   -4.8774    5.5806   -2.1821 C   0  0  0  0  0  0  0  0  0  0  0  0
   -5.7336    4.7419   -1.4620 C   0  0  0  0  0  0  0  0  0  0  0  0
   -5.2236    3.9056   -0.4648 C   0  0  0  0  0  0  0  0  0  0  0  0
   -4.1384    0.8065    0.0075 C   0  0  0  0  0  0  0  0  0  0  0  0
   -4.4121    0.6886   -1.2169 O   0  0  0  0  0  0  0  0  0  0  0  0
   -4.9953    0.2113    0.9839 N   0  0  0  0  0  0  0  0  0  0  0  0
   -5.1902   -1.2389    1.0371 C   0  0  1  0  0  0  0  0  0  0  0  0
   -5.6837   -1.6306    2.4289 C   0  0  0  0  0  0  0  0  0  0  0  0
   -6.1909   -1.6610   -0.0189 C   0  0  0  0  0  0  0  0  0  0  0  0
   -7.2820   -1.0287   -0.0867 O   0  0  0  0  0  0  0  0  0  0  0  0
   -5.9771   -2.7522   -0.9445 N   0  0  0  0  0  0  0  0  0  0  0  0
   -4.8385   -3.6823   -1.0128 C   0  0  1  0  0  0  0  0  0  0  0  0
   -3.6125   -3.0139   -1.6320 C   0  0  0  0  0  0  0  0  0  0  0  0
   -2.2997   -4.2575   -1.8259 S   0  0  0  0  0  0  0  0  0  0  0  0
   -1.9881   -4.5500   -0.0245 C   0  0  2  0  0  0  0  0  0  0  0  0
   -3.1863   -4.3644    0.8184 N   0  0  0  0  0  0  0  0  0  0  0  0
   -4.5316   -4.3012    0.3201 C   0  0  0  0  0  0  0  0  0  0  0  0
   -5.4740   -4.7759    1.0086 O   0  0  0  0  0  0  0  0  0  0  0  0
   -1.3808   -5.9565    0.2214 C   0  0  0  0  0  0  0  0  0  0  0  0
   -2.3361   -6.8718    0.6373 F   0  0  0  0  0  0  0  0  0  0  0  0
   -0.7733   -6.4463   -0.9307 F   0  0  0  0  0  0  0  0  0  0  0  0
   -0.3105   -5.7393    1.3054 C   0  0  0  0  0  0  0  0  0  0  0  0
   -0.8123   -6.0059    2.5684 F   0  0  0  0  0  0  0  0  0  0  0  0
    0.8085   -6.5204    1.0710 F   0  0  0  0  0  0  0  0  0  0  0  0
    9.4590    3.5767   -0.4362 H   0  0  0  0  0  0  0  0  0  0  0  0
    9.7604    1.7946   -0.5519 H   0  0  0  0  0  0  0  0  0  0  0  0
    9.7005    2.7913   -2.0559 H   0  0  0  0  0  0  0  0  0  0  0  0
    7.6147    1.7297    0.8890 H   0  0  0  0  0  0  0  0  0  0  0  0
    5.2157    1.9752   -0.9822 H   0  0  0  0  0  0  0  0  0  0  0  0
    5.8638   -0.1213    1.1850 H   0  0  0  0  0  0  0  0  0  0  0  0
    4.2612    0.0516    0.3756 H   0  0  0  0  0  0  0  0  0  0  0  0
    6.8057   -0.3794   -1.2737 H   0  0  0  0  0  0  0  0  0  0  0  0
    5.0861   -0.5393   -1.7752 H   0  0  0  0  0  0  0  0  0  0  0  0
    4.6224   -3.7368   -1.2029 H   0  0  0  0  0  0  0  0  0  0  0  0
    3.8078   -2.0674    1.2023 H   0  0  0  0  0  0  0  0  0  0  0  0
    4.3817   -3.7776    1.3572 H   0  0  0  0  0  0  0  0  0  0  0  0
    2.5059   -4.5859   -0.0254 H   0  0  0  0  0  0  0  0  0  0  0  0
    1.9621   -2.8842   -0.3447 H   0  0  0  0  0  0  0  0  0  0  0  0
   -0.1512   -1.4532    1.8711 H   0  0  0  0  0  0  0  0  0  0  0  0
   -1.7786   -0.9819    1.3203 H   0  0  0  0  0  0  0  0  0  0  0  0
    0.7772   -0.4295   -0.2924 H   0  0  0  0  0  0  0  0  0  0  0  0
   -0.3579    1.6324    1.6541 H   0  0  0  0  0  0  0  0  0  0  0  0
    2.0764    2.9556    2.4697 H   0  0  0  0  0  0  0  0  0  0  0  0
    2.9970    4.0555    0.2594 H   0  0  0  0  0  0  0  0  0  0  0  0
    0.8365    4.8343   -0.4313 H   0  0  0  0  0  0  0  0  0  0  0  0
    0.0055    3.4758    0.3710 H   0  0  0  0  0  0  0  0  0  0  0  0
    0.8740    4.7046    1.3664 H   0  0  0  0  0  0  0  0  0  0  0  0
    2.4763    3.1904   -1.8501 H   0  0  0  0  0  0  0  0  0  0  0  0
    2.9558    1.6845   -0.9738 H   0  0  0  0  0  0  0  0  0  0  0  0
    1.2179    2.0674   -1.2234 H   0  0  0  0  0  0  0  0  0  0  0  0
    4.1476    1.6064    2.6931 H   0  0  0  0  0  0  0  0  0  0  0  0
   -2.1039    2.2288   -1.4332 H   0  0  0  0  0  0  0  0  0  0  0  0
   -2.5286    1.0835    1.3541 H   0  0  0  0  0  0  0  0  0  0  0  0
   -4.0380    2.9555    1.7506 H   0  0  0  0  0  0  0  0  0  0  0  0
   -2.3916    3.4922    1.3576 H   0  0  0  0  0  0  0  0  0  0  0  0
   -1.9334    4.7709   -0.6957 H   0  0  0  0  0  0  0  0  0  0  0  0
   -2.8431    6.2253   -2.4668 H   0  0  0  0  0  0  0  0  0  0  0  0
   -5.2758    6.2339   -2.9437 H   0  0  0  0  0  0  0  0  0  0  0  0
   -6.7950    4.7376   -1.6771 H   0  0  0  0  0  0  0  0  0  0  0  0
   -5.8998    3.2668    0.0874 H   0  0  0  0  0  0  0  0  0  0  0  0
   -5.7008    0.8385    1.4409 H   0  0  0  0  0  0  0  0  0  0  0  0
   -4.2120   -1.7302    0.8895 H   0  0  0  0  0  0  0  0  0  0  0  0
   -5.8166   -2.7241    2.5099 H   0  0  0  0  0  0  0  0  0  0  0  0
   -4.9506   -1.3104    3.1882 H   0  0  0  0  0  0  0  0  0  0  0  0
   -6.6526   -1.1466    2.6457 H   0  0  0  0  0  0  0  0  0  0  0  0
   -6.7441   -2.9162   -1.6388 H   0  0  0  0  0  0  0  0  0  0  0  0
   -5.1268   -4.5175   -1.6946 H   0  0  0  0  0  0  0  0  0  0  0  0
   -3.2349   -2.1603   -1.0370 H   0  0  0  0  0  0  0  0  0  0  0  0
   -3.8745   -2.6313   -2.6384 H   0  0  0  0  0  0  0  0  0  0  0  0
   -3.0742   -4.4761    1.8524 H   0  0  0  0  0  0  0  0  0  0  0  0
  1  2  1  0
  2  3  2  0
  2  4  1  0
  4  5  1  0
  5  6  1  0
  6  7  1  0
  7  8  1  0
  8  9  2  0
  8 10  1  0
 10 11  1  0
 11 12  1  0
 12 13  1  0
 13 14  1  0
 14 15  2  0
 15 16  1  0
 16 17  1  0
 17 18  1  0
 18 19  1  0
 19 20  1  0
 20 21  2  0
 20 22  1  0
 22 23  1  0
 23 24  1  0
 23 25  1  0
 22 26  1  0
 26 27  1  0
 27 28  2  0
 18 29  1  0
 29 30  2  0
 29 31  1  0
 31 32  1  0
 32 33  1  0
 33 34  1  0
 34 35  2  0
 35 36  1  0
 36 37  2  0
 37 38  1  0
 38 39  2  0
 32 40  1  0
 40 41  2  0
 40 42  1  0
 42 43  1  0
 43 44  1  0
 43 45  1  0
 45 46  2  0
 45 47  1  0
 47 48  1  0
 48 49  1  0
 49 50  1  0
 50 51  1  0
 51 52  1  0
 52 53  1  0
 53 54  2  0
 51 55  1  6
 55 56  1  0
 55 57  1  0
 55 58  1  0
 58 59  1  0
 58 60  1  0
 27  5  1  0
 39 34  1  0
 53 48  1  0
 58 14  1  0
 51 15  1  0
  1 61  1  0
  1 62  1  0
  1 63  1  0
  4 64  1  0
  5 65  1  6
  6 66  1  0
  6 67  1  0
  7 68  1  0
  7 69  1  0
 10 70  1  0
 11 71  1  0
 11 72  1  0
 12 73  1  0
 12 74  1  0
 17 75  1  0
 17 76  1  0
 18 77  1  6
 19 78  1  0
 22 79  1  1
 23 80  1  0
 24 81  1  0
 24 82  1  0
 24 83  1  0
 25 84  1  0
 25 85  1  0
 25 86  1  0
 26 87  1  0
 31 88  1  0
 32 89  1  1
 33 90  1  0
 33 91  1  0
 35 92  1  0
 36 93  1  0
 37 94  1  0
 38 95  1  0
 39 96  1  0
 42 97  1  0
 43 98  1  6
 44 99  1  0
 44100  1  0
 44101  1  0
 47102  1  0
 48103  1  6
 49104  1  0
 49105  1  0
 52106  1  0
M  END
$$$$
