
     RDKit          3D

 66 70  0  0  0  0  0  0  0  0999 V2000
   -0.8736    1.4570    1.9579 O   0  0  0  0  0  0  0  0  0  0  0  0
   -0.2579    1.3994    0.8605 C   0  0  0  0  0  0  0  0  0  0  0  0
   -0.8776    1.9322   -0.3143 N   0  0  0  0  0  0  0  0  0  0  0  0
   -1.6827    1.1071   -1.2171 C   0  0  0  0  0  0  0  0  0  0  0  0
   -3.1459    0.9897   -0.7431 C   0  0  2  0  0  0  0  0  0  0  0  0
   -3.8718    2.3596   -0.8271 C   0  0  0  0  0  0  0  0  0  0  0  0
   -5.0193    2.4600    0.1815 C   0  0  0  0  0  0  0  0  0  0  0  0
   -5.6069    1.0803    0.4426 C   0  0  0  0  0  0  0  0  0  0  0  0
   -4.5078    0.1453    1.0112 C   0  0  1  0  0  0  0  0  0  0  0  0
   -4.8504   -1.3347    0.7482 C   0  0  0  0  0  0  0  0  0  0  0  0
   -4.0371   -2.3004    1.6249 C   0  0  0  0  0  0  0  0  0  0  0  0
   -2.6396   -2.2165    1.3452 O   0  0  0  0  0  0  0  0  0  0  0  0
   -2.0102   -2.6438    0.1640 C   0  0  0  0  0  0  0  0  0  0  0  0
   -2.6839   -3.4323   -0.7895 C   0  0  0  0  0  0  0  0  0  0  0  0
   -2.0642   -3.7715   -1.9929 C   0  0  0  0  0  0  0  0  0  0  0  0
   -0.7773   -3.3182   -2.2662 C   0  0  0  0  0  0  0  0  0  0  0  0
   -0.0872   -2.5570   -1.3226 C   0  0  0  0  0  0  0  0  0  0  0  0
   -0.6746   -2.2458   -0.0816 C   0  0  0  0  0  0  0  0  0  0  0  0
    0.0831   -1.4571    0.9285 C   0  0  0  0  0  0  0  0  0  0  0  0
   -0.2377   -1.5128    2.1466 O   0  0  0  0  0  0  0  0  0  0  0  0
    1.1751   -0.6081    0.5372 N   0  0  0  0  0  0  0  0  0  0  0  0
    2.5060   -1.2164    0.4557 C   0  0  0  0  0  0  0  0  0  0  0  0
    3.3857   -0.4400   -0.5320 C   0  0  0  0  0  0  0  0  0  0  0  0
    3.3921    1.0188   -0.2725 N   0  0  0  0  0  0  0  0  0  0  0  0
    4.2278    1.4150    0.8829 C   0  0  0  0  0  0  0  0  0  0  0  0
    5.6973    1.2575    0.5783 C   0  0  0  0  0  0  0  0  0  0  0  0
    6.5850    0.8229    1.5765 C   0  0  0  0  0  0  0  0  0  0  0  0
    7.9518    0.7264    1.3050 C   0  0  0  0  0  0  0  0  0  0  0  0
    8.4207    1.0670    0.0339 C   0  0  0  0  0  0  0  0  0  0  0  0
    7.5545    1.5105   -0.9180 N   0  0  0  0  0  0  0  0  0  0  0  0
    6.2215    1.6265   -0.6731 C   0  0  0  0  0  0  0  0  0  0  0  0
    2.0229    1.5721   -0.2039 C   0  0  0  0  0  0  0  0  0  0  0  0
    1.1466    0.8330    0.8280 C   0  0  1  0  0  0  0  0  0  0  0  0
   -3.1855    0.4591    0.5733 O   0  0  0  0  0  0  0  0  0  0  0  0
   -0.9109    2.9722   -0.4104 H   0  0  0  0  0  0  0  0  0  0  0  0
   -1.6585    1.5536   -2.2345 H   0  0  0  0  0  0  0  0  0  0  0  0
   -1.2337    0.0993   -1.2971 H   0  0  0  0  0  0  0  0  0  0  0  0
   -3.6483    0.2793   -1.4418 H   0  0  0  0  0  0  0  0  0  0  0  0
   -3.1784    3.2064   -0.6443 H   0  0  0  0  0  0  0  0  0  0  0  0
   -4.2746    2.4851   -1.8552 H   0  0  0  0  0  0  0  0  0  0  0  0
   -5.8058    3.1437   -0.2025 H   0  0  0  0  0  0  0  0  0  0  0  0
   -4.6362    2.8770    1.1370 H   0  0  0  0  0  0  0  0  0  0  0  0
   -6.0153    0.6743   -0.5122 H   0  0  0  0  0  0  0  0  0  0  0  0
   -6.4509    1.1612    1.1645 H   0  0  0  0  0  0  0  0  0  0  0  0
   -4.5196    0.2996    2.1116 H   0  0  0  0  0  0  0  0  0  0  0  0
   -5.9244   -1.5032    0.9795 H   0  0  0  0  0  0  0  0  0  0  0  0
   -4.7089   -1.5712   -0.3254 H   0  0  0  0  0  0  0  0  0  0  0  0
   -4.3940   -3.3434    1.4925 H   0  0  0  0  0  0  0  0  0  0  0  0
   -4.1968   -2.0437    2.6930 H   0  0  0  0  0  0  0  0  0  0  0  0
   -3.6932   -3.7778   -0.6214 H   0  0  0  0  0  0  0  0  0  0  0  0
   -2.5951   -4.3680   -2.7234 H   0  0  0  0  0  0  0  0  0  0  0  0
   -0.3085   -3.5595   -3.2119 H   0  0  0  0  0  0  0  0  0  0  0  0
    0.9008   -2.2082   -1.5752 H   0  0  0  0  0  0  0  0  0  0  0  0
    2.9721   -1.2223    1.4640 H   0  0  0  0  0  0  0  0  0  0  0  0
    2.4435   -2.2754    0.1259 H   0  0  0  0  0  0  0  0  0  0  0  0
    4.4179   -0.8532   -0.5051 H   0  0  0  0  0  0  0  0  0  0  0  0
    3.0084   -0.6148   -1.5634 H   0  0  0  0  0  0  0  0  0  0  0  0
    4.0651    2.4898    1.1240 H   0  0  0  0  0  0  0  0  0  0  0  0
    3.9533    0.8330    1.7897 H   0  0  0  0  0  0  0  0  0  0  0  0
    6.2213    0.5632    2.5629 H   0  0  0  0  0  0  0  0  0  0  0  0
    8.6424    0.3926    2.0722 H   0  0  0  0  0  0  0  0  0  0  0  0
    9.4754    0.9901   -0.1936 H   0  0  0  0  0  0  0  0  0  0  0  0
    5.5689    1.9949   -1.4570 H   0  0  0  0  0  0  0  0  0  0  0  0
    1.5618    1.4871   -1.2122 H   0  0  0  0  0  0  0  0  0  0  0  0
    2.0562    2.6578    0.0361 H   0  0  0  0  0  0  0  0  0  0  0  0
    1.5872    0.9956    1.8346 H   0  0  0  0  0  0  0  0  0  0  0  0
  1  2  2  0
  2  3  1  0
  3  4  1  0
  4  5  1  0
  5  6  1  0
  6  7  1  0
  7  8  1  0
  8  9  1  0
  9 10  1  0
 10 11  1  0
 11 12  1  0
 12 13  1  0
 13 14  2  0
 14 15  1  0
 15 16  2  0
 16 17  1  0
 17 18  2  0
 18 19  1  0
 19 20  2  0
 19 21  1  0
 21 22  1  0
 22 23  1  0
 23 24  1  0
 24 25  1  0
 25 26  1  0
 26 27  2  0
 27 28  1  0
 28 29  2  0
 29 30  1  0
 30 31  2  0
 24 32  1  0
 32 33  1  0
  9 34  1  0
 33  2  1  0
 34  5  1  0
 18 13  1  0
 33 21  1  0
 31 26  1  0
  3 35  1  0
  4 36  1  0
  4 37  1  0
  5 38  1  6
  6 39  1  0
  6 40  1  0
  7 41  1  0
  7 42  1  0
  8 43  1  0
  8 44  1  0
  9 45  1  1
 10 46  1  0
 10 47  1  0
 11 48  1  0
 11 49  1  0
 14 50  1  0
 15 51  1  0
 16 52  1  0
 17 53  1  0
 22 54  1  0
 22 55  1  0
 23 56  1  0
 23 57  1  0
 25 58  1  0
 25 59  1  0
 27 60  1  0
 28 61  1  0
 29 62  1  0
 31 63  1  0
 32 64  1  0
 32 65  1  0
 33 66  1  1
M  END
$$$$
