
     RDKit          3D

 96102  0  0  0  0  0  0  0  0999 V2000
   -7.6378    5.9182   -2.7375 C   0  0  0  0  0  0  0  0  0  0  0  0
   -6.2613    5.8499   -2.3815 O   0  0  0  0  0  0  0  0  0  0  0  0
   -5.6295    4.7057   -1.8689 C   0  0  0  0  0  0  0  0  0  0  0  0
   -4.2970    4.8137   -1.4494 C   0  0  0  0  0  0  0  0  0  0  0  0
   -3.6240    3.7117   -0.9155 C   0  0  0  0  0  0  0  0  0  0  0  0
   -4.2698    2.4671   -0.8128 C   0  0  0  0  0  0  0  0  0  0  0  0
   -3.6321    1.3262   -0.2790 C   0  0  0  0  0  0  0  0  0  0  0  0
   -2.3024    1.3583    0.1569 O   0  0  0  0  0  0  0  0  0  0  0  0
   -1.1953    1.4913   -0.7380 C   0  0  2  0  0  0  0  0  0  0  0  0
   -0.4664    0.1588   -0.8645 C   0  0  0  0  0  0  0  0  0  0  0  0
    0.6370    0.2070    0.1888 C   0  0  1  0  0  0  0  0  0  0  0  0
    1.7986   -0.7103   -0.1143 C   0  0  0  0  0  0  0  0  0  0  0  0
    2.3807   -0.6409   -1.2293 O   0  0  0  0  0  0  0  0  0  0  0  0
    2.3062   -1.5867    0.8982 N   0  0  0  0  0  0  0  0  0  0  0  0
    3.7441   -1.7059    1.1382 C   0  0  2  0  0  0  0  0  0  0  0  0
    4.5092   -2.7328    0.3499 C   0  0  0  0  0  0  0  0  0  0  0  0
    4.6868   -3.8795    0.8382 O   0  0  0  0  0  0  0  0  0  0  0  0
    5.0292   -2.4074   -0.9433 N   0  0  0  0  0  0  0  0  0  0  0  0
    6.3909   -3.2260   -1.6379 S   0  0  0  0  0  6  0  0  0  0  0  0
    7.6486   -2.7328   -0.9811 O   0  0  0  0  0  0  0  0  0  0  0  0
    6.4449   -2.8885   -3.1028 O   0  0  0  0  0  0  0  0  0  0  0  0
    6.2748   -5.0043   -1.4191 C   0  0  0  0  0  0  0  0  0  0  0  0
    5.5373   -5.7562   -2.5163 C   0  0  0  0  0  0  0  0  0  0  0  0
    7.0549   -5.8129   -2.4443 C   0  0  0  0  0  0  0  0  0  0  0  0
    4.1414   -1.5499    2.6051 C   0  0  0  0  0  0  0  0  0  0  0  0
    4.4171   -0.4183    1.6188 C   0  0  1  0  0  0  0  0  0  0  0  0
    5.8870   -0.2271    1.3145 C   0  0  0  0  0  0  0  0  0  0  0  0
    6.5330    0.9450    1.4452 C   0  0  0  0  0  0  0  0  0  0  0  0
    5.9068    2.2375    1.9154 C   0  0  0  0  0  0  0  0  0  0  0  0
    5.7122    3.2306    0.7581 C   0  0  0  0  0  0  0  0  0  0  0  0
    4.4197    2.9955   -0.0559 C   0  0  0  0  0  0  0  0  0  0  0  0
    3.2259    3.8332    0.4428 C   0  0  0  0  0  0  0  0  0  0  0  0
    2.5884    3.2396    1.6313 N   0  0  0  0  0  0  0  0  0  0  0  0
    2.8070    3.8583    2.9447 C   0  0  0  0  0  0  0  0  0  0  0  0
    1.6565    2.1338    1.5398 C   0  0  0  0  0  0  0  0  0  0  0  0
    1.2559    1.5830    2.6025 O   0  0  0  0  0  0  0  0  0  0  0  0
    1.0722    1.6795    0.2144 C   0  0  2  0  0  0  0  0  0  0  0  0
   -0.1798    2.4825   -0.1543 C   0  0  0  0  0  0  0  0  0  0  0  0
   -4.3518    0.1327   -0.1433 C   0  0  0  0  0  0  0  0  0  0  0  0
   -5.6895    0.0723   -0.5619 C   0  0  0  0  0  0  0  0  0  0  0  0
   -6.4756   -1.1644   -0.4252 C   0  0  0  0  0  0  0  0  0  0  0  0
   -5.9889   -2.3180    0.0832 N   0  0  0  0  0  0  0  0  0  0  0  0
   -6.9306   -3.3002    0.1185 C   0  0  0  0  0  0  0  0  0  0  0  0
   -6.6188   -4.6700    0.6632 C   0  0  0  0  0  0  0  0  0  0  0  0
   -7.4780   -4.9719    1.8945 C   0  0  0  0  0  0  0  0  0  0  0  0
   -6.8057   -5.7437   -0.4141 C   0  0  0  0  0  0  0  0  0  0  0  0
   -8.1829   -2.9303   -0.3709 C   0  0  0  0  0  0  0  0  0  0  0  0
   -8.0948   -1.3234   -0.8511 S   0  0  0  0  0  0  0  0  0  0  0  0
   -6.2794    1.1787   -1.0881 N   0  0  0  0  0  0  0  0  0  0  0  0
   -5.6189    2.3589   -1.2234 C   0  0  0  0  0  0  0  0  0  0  0  0
   -6.2900    3.4684   -1.7504 C   0  0  0  0  0  0  0  0  0  0  0  0
   -7.8739    6.9475   -3.0771 H   0  0  0  0  0  0  0  0  0  0  0  0
   -8.2735    5.6833   -1.8551 H   0  0  0  0  0  0  0  0  0  0  0  0
   -7.8561    5.2131   -3.5654 H   0  0  0  0  0  0  0  0  0  0  0  0
   -3.7844    5.7651   -1.5298 H   0  0  0  0  0  0  0  0  0  0  0  0
   -2.6077    3.8458   -0.5740 H   0  0  0  0  0  0  0  0  0  0  0  0
   -1.5420    1.8345   -1.7399 H   0  0  0  0  0  0  0  0  0  0  0  0
   -1.1501   -0.7037   -0.7013 H   0  0  0  0  0  0  0  0  0  0  0  0
   -0.0315    0.0826   -1.8861 H   0  0  0  0  0  0  0  0  0  0  0  0
    0.1756   -0.0869    1.1596 H   0  0  0  0  0  0  0  0  0  0  0  0
    1.6423   -1.9870    1.6004 H   0  0  0  0  0  0  0  0  0  0  0  0
    4.7649   -1.4940   -1.3709 H   0  0  0  0  0  0  0  0  0  0  0  0
    6.2780   -5.4514   -0.4041 H   0  0  0  0  0  0  0  0  0  0  0  0
    5.0323   -6.6814   -2.1738 H   0  0  0  0  0  0  0  0  0  0  0  0
    5.1437   -5.1423   -3.3543 H   0  0  0  0  0  0  0  0  0  0  0  0
    7.5587   -5.2387   -3.2497 H   0  0  0  0  0  0  0  0  0  0  0  0
    7.4486   -6.7811   -2.0675 H   0  0  0  0  0  0  0  0  0  0  0  0
    3.3027   -1.3418    3.3012 H   0  0  0  0  0  0  0  0  0  0  0  0
    5.0422   -2.1159    2.9260 H   0  0  0  0  0  0  0  0  0  0  0  0
    3.7399    0.4453    1.7282 H   0  0  0  0  0  0  0  0  0  0  0  0
    6.4748   -1.0795    0.9859 H   0  0  0  0  0  0  0  0  0  0  0  0
    7.5870    0.9733    1.1815 H   0  0  0  0  0  0  0  0  0  0  0  0
    6.6134    2.6920    2.6406 H   0  0  0  0  0  0  0  0  0  0  0  0
    4.9674    2.0835    2.4757 H   0  0  0  0  0  0  0  0  0  0  0  0
    5.7254    4.2653    1.1682 H   0  0  0  0  0  0  0  0  0  0  0  0
    6.5893    3.1671    0.0726 H   0  0  0  0  0  0  0  0  0  0  0  0
    4.1578    1.9165   -0.1048 H   0  0  0  0  0  0  0  0  0  0  0  0
    4.6217    3.3145   -1.1029 H   0  0  0  0  0  0  0  0  0  0  0  0
    3.5657    4.8712    0.6514 H   0  0  0  0  0  0  0  0  0  0  0  0
    2.4802    3.9527   -0.3705 H   0  0  0  0  0  0  0  0  0  0  0  0
    1.8612    4.3141    3.3071 H   0  0  0  0  0  0  0  0  0  0  0  0
    3.5830    4.6485    2.9008 H   0  0  0  0  0  0  0  0  0  0  0  0
    3.1407    3.0939    3.6772 H   0  0  0  0  0  0  0  0  0  0  0  0
    1.8156    1.8229   -0.5963 H   0  0  0  0  0  0  0  0  0  0  0  0
    0.0705    3.2591   -0.9088 H   0  0  0  0  0  0  0  0  0  0  0  0
   -0.6118    2.9961    0.7351 H   0  0  0  0  0  0  0  0  0  0  0  0
   -3.8665   -0.7382    0.2852 H   0  0  0  0  0  0  0  0  0  0  0  0
   -5.5539   -4.6893    0.9813 H   0  0  0  0  0  0  0  0  0  0  0  0
   -7.3186   -4.1894    2.6679 H   0  0  0  0  0  0  0  0  0  0  0  0
   -7.1906   -5.9558    2.3237 H   0  0  0  0  0  0  0  0  0  0  0  0
   -8.5572   -5.0014    1.6268 H   0  0  0  0  0  0  0  0  0  0  0  0
   -6.1805   -5.5082   -1.3024 H   0  0  0  0  0  0  0  0  0  0  0  0
   -7.8682   -5.8078   -0.7321 H   0  0  0  0  0  0  0  0  0  0  0  0
   -6.4960   -6.7375   -0.0210 H   0  0  0  0  0  0  0  0  0  0  0  0
   -9.0629   -3.5539   -0.4210 H   0  0  0  0  0  0  0  0  0  0  0  0
   -7.3236    3.3615   -2.0561 H   0  0  0  0  0  0  0  0  0  0  0  0
  1  2  1  0
  2  3  1  0
  3  4  2  0
  4  5  1  0
  5  6  2  0
  6  7  1  0
  7  8  1  0
  8  9  1  0
  9 10  1  0
 10 11  1  0
 11 12  1  0
 12 13  2  0
 12 14  1  0
 14 15  1  0
 15 16  1  6
 16 17  2  0
 16 18  1  0
 18 19  1  0
 19 20  2  0
 19 21  2  0
 19 22  1  0
 22 23  1  0
 23 24  1  0
 15 25  1  0
 25 26  1  0
 26 27  1  0
 27 28  2  0
 28 29  1  0
 29 30  1  0
 30 31  1  0
 31 32  1  0
 32 33  1  0
 33 34  1  0
 33 35  1  0
 35 36  2  0
 35 37  1  0
 37 38  1  0
  7 39  2  0
 39 40  1  0
 40 41  1  0
 41 42  2  0
 42 43  1  0
 43 44  1  0
 44 45  1  0
 44 46  1  0
 43 47  2  0
 47 48  1  0
 40 49  2  0
 49 50  1  0
 50 51  2  0
 51  3  1  0
 50  6  1  0
 38  9  1  0
 48 41  1  0
 37 11  1  0
 26 15  1  0
 24 22  1  0
  1 52  1  0
  1 53  1  0
  1 54  1  0
  4 55  1  0
  5 56  1  0
  9 57  1  6
 10 58  1  0
 10 59  1  0
 11 60  1  1
 14 61  1  0
 18 62  1  0
 22 63  1  0
 23 64  1  0
 23 65  1  0
 24 66  1  0
 24 67  1  0
 25 68  1  0
 25 69  1  0
 26 70  1  1
 27 71  1  0
 28 72  1  0
 29 73  1  0
 29 74  1  0
 30 75  1  0
 30 76  1  0
 31 77  1  0
 31 78  1  0
 32 79  1  0
 32 80  1  0
 34 81  1  0
 34 82  1  0
 34 83  1  0
 37 84  1  6
 38 85  1  0
 38 86  1  0
 39 87  1  0
 44 88  1  0
 45 89  1  0
 45 90  1  0
 45 91  1  0
 46 92  1  0
 46 93  1  0
 46 94  1  0
 47 95  1  0
 51 96  1  0
M  END
$$$$
