
     RDKit          3D

101108  0  0  0  0  0  0  0  0999 V2000
   -5.9325    2.0978   -3.4369 C   0  0  0  0  0  0  0  0  0  0  0  0
   -5.8614    2.2236   -1.9185 C   0  0  0  0  0  0  0  0  0  0  0  0
   -4.7030    1.4873   -1.3954 N   0  0  0  0  0  0  0  0  0  0  0  0
   -4.6869    0.1934   -0.9816 C   0  0  0  0  0  0  0  0  0  0  0  0
   -5.9007   -0.6315   -0.8019 C   0  0  0  0  0  0  0  0  0  0  0  0
   -6.1755   -1.6357   -1.7407 C   0  0  0  0  0  0  0  0  0  0  0  0
   -7.3222   -2.4148   -1.6214 C   0  0  0  0  0  0  0  0  0  0  0  0
   -8.2023   -2.1697   -0.5718 C   0  0  0  0  0  0  0  0  0  0  0  0
   -7.9385   -1.1889    0.3275 N   0  0  0  0  0  0  0  0  0  0  0  0
   -6.8117   -0.4224    0.2640 C   0  0  0  0  0  0  0  0  0  0  0  0
   -6.5895    0.6436    1.3262 C   0  0  2  0  0  0  0  0  0  0  0  0
   -7.0826    0.1530    2.6987 C   0  0  0  0  0  0  0  0  0  0  0  0
   -7.3004    1.8096    0.9521 O   0  0  0  0  0  0  0  0  0  0  0  0
   -6.6538    2.9750    1.4295 C   0  0  0  0  0  0  0  0  0  0  0  0
   -3.3694   -0.2742   -0.8740 C   0  0  0  0  0  0  0  0  0  0  0  0
   -2.5721    0.8013   -1.2215 C   0  0  0  0  0  0  0  0  0  0  0  0
   -1.1911    0.8958   -1.3842 C   0  0  0  0  0  0  0  0  0  0  0  0
   -0.6386    2.1328   -1.7843 C   0  0  0  0  0  0  0  0  0  0  0  0
   -1.5132    3.2254   -2.0503 C   0  0  0  0  0  0  0  0  0  0  0  0
   -2.9055    3.0785   -1.9410 C   0  0  0  0  0  0  0  0  0  0  0  0
   -3.4077    1.8509   -1.5135 C   0  0  0  0  0  0  0  0  0  0  0  0
    0.8363    2.2588   -1.9097 C   0  0  0  0  0  0  0  0  0  0  0  0
    1.4950    3.3982   -2.3657 C   0  0  0  0  0  0  0  0  0  0  0  0
    3.1467    3.0849   -2.3602 S   0  0  0  0  0  0  0  0  0  0  0  0
    2.9664    1.5243   -1.7621 C   0  0  0  0  0  0  0  0  0  0  0  0
    1.6650    1.2279   -1.5685 N   0  0  0  0  0  0  0  0  0  0  0  0
    4.1005    0.5975   -1.4426 C   0  0  0  0  0  0  0  0  0  0  0  0
    4.6747    0.8915   -0.0344 C   0  0  2  0  0  0  0  0  0  0  0  0
    6.0959    0.5456    0.0183 N   0  0  0  0  0  0  0  0  0  0  0  0
    6.9691    0.9847    1.0622 C   0  0  0  0  0  0  0  0  0  0  0  0
    6.5008    1.4474    2.1336 O   0  0  0  0  0  0  0  0  0  0  0  0
    8.4468    0.8154    0.8980 C   0  0  1  0  0  0  0  0  0  0  0  0
    9.0097    1.6116   -0.2741 C   0  0  2  0  0  0  0  0  0  0  0  0
   10.3666    1.1838   -0.7967 C   0  0  0  0  0  0  0  0  0  0  0  0
   11.2930    1.1239    0.2615 O   0  0  0  0  0  0  0  0  0  0  0  0
   10.7568    1.8672    1.3354 C   0  0  0  0  0  0  0  0  0  0  0  0
    9.2694    2.0749    1.1312 C   0  0  2  0  0  0  0  0  0  0  0  0
    3.8832    0.1721    1.0453 C   0  0  0  0  0  0  0  0  0  0  0  0
    3.2247    0.8683    1.8644 O   0  0  0  0  0  0  0  0  0  0  0  0
    3.7585   -1.2629    1.1009 N   0  0  0  0  0  0  0  0  0  0  0  0
    4.9139   -2.1662    1.0972 C   0  0  0  0  0  0  0  0  0  0  0  0
    4.6785   -3.2527    0.0540 C   0  0  0  0  0  0  0  0  0  0  0  0
    3.3212   -3.9128    0.2979 C   0  0  0  0  0  0  0  0  0  0  0  0
    2.1882   -2.8581    0.3843 C   0  0  2  0  0  0  0  0  0  0  0  0
    2.4906   -1.8175    1.3834 N   0  0  0  0  0  0  0  0  0  0  0  0
    0.8679   -3.5172    0.7112 C   0  0  0  0  0  0  0  0  0  0  0  0
    0.8287   -4.6179    1.3302 O   0  0  0  0  0  0  0  0  0  0  0  0
   -0.3336   -2.9196    0.3370 O   0  0  0  0  0  0  0  0  0  0  0  0
   -0.9339   -1.8769    1.0979 C   0  0  0  0  0  0  0  0  0  0  0  0
   -2.4795   -1.9306    0.9583 C   0  0  0  0  0  0  0  0  0  0  0  0
   -3.0893   -0.9000    1.9306 C   0  0  0  0  0  0  0  0  0  0  0  0
   -2.9614   -3.3328    1.4058 C   0  0  0  0  0  0  0  0  0  0  0  0
   -2.9232   -1.6808   -0.5309 C   0  0  0  0  0  0  0  0  0  0  0  0
   -6.0359    1.0269   -3.7181 H   0  0  0  0  0  0  0  0  0  0  0  0
   -6.8192    2.6527   -3.8123 H   0  0  0  0  0  0  0  0  0  0  0  0
   -5.0197    2.5195   -3.9114 H   0  0  0  0  0  0  0  0  0  0  0  0
   -5.8048    3.2975   -1.6246 H   0  0  0  0  0  0  0  0  0  0  0  0
   -6.8068    1.8126   -1.5043 H   0  0  0  0  0  0  0  0  0  0  0  0
   -5.4990   -1.8127   -2.5666 H   0  0  0  0  0  0  0  0  0  0  0  0
   -7.5290   -3.1989   -2.3387 H   0  0  0  0  0  0  0  0  0  0  0  0
   -9.1121   -2.7429   -0.4853 H   0  0  0  0  0  0  0  0  0  0  0  0
   -5.4942    0.8324    1.4211 H   0  0  0  0  0  0  0  0  0  0  0  0
   -6.7692    0.8577    3.4951 H   0  0  0  0  0  0  0  0  0  0  0  0
   -8.1912    0.0789    2.7020 H   0  0  0  0  0  0  0  0  0  0  0  0
   -6.6512   -0.8405    2.9422 H   0  0  0  0  0  0  0  0  0  0  0  0
   -7.2563    3.8620    1.1305 H   0  0  0  0  0  0  0  0  0  0  0  0
   -6.5856    2.9786    2.5393 H   0  0  0  0  0  0  0  0  0  0  0  0
   -5.6416    3.0840    0.9741 H   0  0  0  0  0  0  0  0  0  0  0  0
   -0.5641    0.0239   -1.2460 H   0  0  0  0  0  0  0  0  0  0  0  0
   -1.1301    4.1856   -2.3569 H   0  0  0  0  0  0  0  0  0  0  0  0
   -3.5651    3.9034   -2.1801 H   0  0  0  0  0  0  0  0  0  0  0  0
    1.0472    4.3240   -2.6897 H   0  0  0  0  0  0  0  0  0  0  0  0
    3.7608   -0.4610   -1.5249 H   0  0  0  0  0  0  0  0  0  0  0  0
    4.8872    0.7543   -2.2201 H   0  0  0  0  0  0  0  0  0  0  0  0
    4.5994    1.9899    0.1422 H   0  0  0  0  0  0  0  0  0  0  0  0
    6.5261    0.0102   -0.7701 H   0  0  0  0  0  0  0  0  0  0  0  0
    8.9266   -0.1731    1.0998 H   0  0  0  0  0  0  0  0  0  0  0  0
    8.3508    2.3002   -0.8492 H   0  0  0  0  0  0  0  0  0  0  0  0
   10.7180    1.9116   -1.5582 H   0  0  0  0  0  0  0  0  0  0  0  0
   10.2835    0.1886   -1.2754 H   0  0  0  0  0  0  0  0  0  0  0  0
   10.9343    1.3194    2.2851 H   0  0  0  0  0  0  0  0  0  0  0  0
   11.2664    2.8545    1.3830 H   0  0  0  0  0  0  0  0  0  0  0  0
    8.7640    3.0306    1.3971 H   0  0  0  0  0  0  0  0  0  0  0  0
    5.0117   -2.6310    2.1045 H   0  0  0  0  0  0  0  0  0  0  0  0
    5.8680   -1.6554    0.8883 H   0  0  0  0  0  0  0  0  0  0  0  0
    4.6949   -2.7942   -0.9591 H   0  0  0  0  0  0  0  0  0  0  0  0
    5.4861   -4.0161    0.1061 H   0  0  0  0  0  0  0  0  0  0  0  0
    3.1127   -4.6317   -0.5263 H   0  0  0  0  0  0  0  0  0  0  0  0
    3.3821   -4.4849    1.2512 H   0  0  0  0  0  0  0  0  0  0  0  0
    2.0866   -2.3644   -0.6084 H   0  0  0  0  0  0  0  0  0  0  0  0
    2.5379   -2.2520    2.3375 H   0  0  0  0  0  0  0  0  0  0  0  0
   -0.6607   -1.9934    2.1714 H   0  0  0  0  0  0  0  0  0  0  0  0
   -0.5359   -0.8951    0.7747 H   0  0  0  0  0  0  0  0  0  0  0  0
   -2.7488    0.1299    1.6892 H   0  0  0  0  0  0  0  0  0  0  0  0
   -2.7839   -1.1190    2.9795 H   0  0  0  0  0  0  0  0  0  0  0  0
   -4.1934   -0.9424    1.8793 H   0  0  0  0  0  0  0  0  0  0  0  0
   -4.0718   -3.3907    1.4116 H   0  0  0  0  0  0  0  0  0  0  0  0
   -2.6066   -3.5573    2.4329 H   0  0  0  0  0  0  0  0  0  0  0  0
   -2.5798   -4.1190    0.7206 H   0  0  0  0  0  0  0  0  0  0  0  0
   -2.1086   -1.9436   -1.2374 H   0  0  0  0  0  0  0  0  0  0  0  0
   -3.7480   -2.3727   -0.7905 H   0  0  0  0  0  0  0  0  0  0  0  0
  1  2  1  0
  2  3  1  0
  3  4  1  0
  4  5  1  0
  5  6  2  0
  6  7  1  0
  7  8  2  0
  8  9  1  0
  9 10  2  0
 10 11  1  0
 11 12  1  0
 11 13  1  0
 13 14  1  0
  4 15  2  0
 15 16  1  0
 16 17  2  0
 17 18  1  0
 18 19  2  0
 19 20  1  0
 20 21  2  0
 18 22  1  0
 22 23  2  0
 23 24  1  0
 24 25  1  0
 25 26  2  0
 25 27  1  0
 27 28  1  0
 28 29  1  0
 29 30  1  0
 30 31  2  0
 30 32  1  0
 32 33  1  0
 33 34  1  0
 34 35  1  0
 35 36  1  0
 36 37  1  0
 28 38  1  0
 38 39  2  0
 38 40  1  0
 40 41  1  0
 41 42  1  0
 42 43  1  0
 43 44  1  0
 44 45  1  0
 44 46  1  0
 46 47  2  0
 46 48  1  0
 48 49  1  0
 49 50  1  0
 50 51  1  0
 50 52  1  0
 50 53  1  0
 21  3  1  0
 26 22  1  0
 37 32  1  0
 45 40  1  0
 10  5  1  0
 53 15  1  0
 21 16  1  0
 37 33  1  0
  1 54  1  0
  1 55  1  0
  1 56  1  0
  2 57  1  0
  2 58  1  0
  6 59  1  0
  7 60  1  0
  8 61  1  0
 11 62  1  1
 12 63  1  0
 12 64  1  0
 12 65  1  0
 14 66  1  0
 14 67  1  0
 14 68  1  0
 17 69  1  0
 19 70  1  0
 20 71  1  0
 23 72  1  0
 27 73  1  0
 27 74  1  0
 28 75  1  1
 29 76  1  0
 32 77  1  1
 33 78  1  6
 34 79  1  0
 34 80  1  0
 36 81  1  0
 36 82  1  0
 37 83  1  6
 41 84  1  0
 41 85  1  0
 42 86  1  0
 42 87  1  0
 43 88  1  0
 43 89  1  0
 44 90  1  6
 45 91  1  0
 49 92  1  0
 49 93  1  0
 51 94  1  0
 51 95  1  0
 51 96  1  0
 52 97  1  0
 52 98  1  0
 52 99  1  0
 53100  1  0
 53101  1  0
M  END
$$$$
