
     RDKit          3D

173178  0  0  0  0  0  0  0  0999 V2000
   -5.1123   -7.0152   -0.8740 C   0  0  0  0  0  0  0  0  0  0  0  0
   -6.4835   -6.9248   -0.5336 O   0  0  0  0  0  0  0  0  0  0  0  0
   -7.1240   -5.7210   -0.9673 C   0  0  2  0  0  0  0  0  0  0  0  0
   -7.3103   -5.7510   -2.5092 C   0  0  0  0  0  0  0  0  0  0  0  0
   -6.3422   -4.4424   -0.5420 C   0  0  0  0  0  0  0  0  0  0  0  0
   -7.1368   -3.1370   -0.8292 C   0  0  2  0  0  0  0  0  0  0  0  0
   -6.9176   -2.1905    0.2086 O   0  0  0  0  0  0  0  0  0  0  0  0
   -5.8167   -1.3220   -0.0445 C   0  0  1  0  0  0  0  0  0  0  0  0
   -6.3593    0.1249   -0.3195 C   0  0  2  0  0  0  0  0  0  0  0  0
   -7.5378    0.1183   -1.3174 C   0  0  0  0  0  0  0  0  0  0  0  0
   -5.3101    1.2544   -0.6853 C   0  0  1  0  0  0  0  0  0  0  0  0
   -4.7193    1.7321    0.5205 O   0  0  0  0  0  0  0  0  0  0  0  0
   -5.4104    2.8506    1.0539 C   0  0  2  0  0  0  0  0  0  0  0  0
   -5.0660    4.0074    0.3232 O   0  0  0  0  0  0  0  0  0  0  0  0
   -6.0090    5.0335    0.5557 C   0  0  2  0  0  0  0  0  0  0  0  0
   -5.5250    6.3072   -0.1411 C   0  0  0  0  0  0  0  0  0  0  0  0
   -6.3034    5.2875    2.0668 C   0  0  0  0  0  0  0  0  0  0  0  0
   -5.5118    4.3968    3.0811 C   0  0  2  0  0  0  0  0  0  0  0  0
   -4.4274    5.1177    3.8031 N   0  0  0  0  0  0  0  0  0  0  0  0
   -4.9363    5.9265    4.9217 C   0  0  0  0  0  0  0  0  0  0  0  0
   -3.5390    5.9123    2.9382 C   0  0  0  0  0  0  0  0  0  0  0  0
   -4.9520    3.0697    2.4947 C   0  0  1  0  0  0  0  0  0  0  0  0
   -5.3566    1.9855    3.2931 O   0  0  0  0  0  0  0  0  0  0  0  0
   -4.1482    0.9109   -1.7043 C   0  0  2  0  0  0  0  0  0  0  0  0
   -4.6749    0.2882   -3.0120 C   0  0  0  0  0  0  0  0  0  0  0  0
   -3.2574   -0.0019   -1.1182 O   0  0  0  0  0  0  0  0  0  0  0  0
   -3.3818    2.2323   -2.0698 C   0  0  0  0  0  0  0  0  0  0  0  0
   -1.9793    2.0368   -2.7354 C   0  0  1  0  0  0  0  0  0  0  0  0
   -2.0441    2.3607   -4.2412 C   0  0  0  0  0  0  0  0  0  0  0  0
   -0.8618    2.9150   -2.0941 C   0  0  0  0  0  0  0  0  0  0  0  0
   -0.6668    2.6832   -0.6479 N   0  0  0  0  0  0  0  0  0  0  0  0
   -1.2634    3.6332    0.3062 C   0  0  0  0  0  0  0  0  0  0  0  0
    0.3848    1.8201   -0.1445 C   0  0  0  0  0  0  0  0  0  0  0  0
    0.9701    2.1318    0.9264 O   0  0  0  0  0  0  0  0  0  0  0  0
    0.8799    0.6053   -0.8987 C   0  0  0  0  0  0  0  0  0  0  0  0
    0.8592   -0.7124   -0.0770 C   0  0  1  0  0  0  0  0  0  0  0  0
    1.9140   -0.7748    1.0557 C   0  0  0  0  0  0  0  0  0  0  0  0
    3.3370   -0.6007    0.5815 C   0  0  0  0  0  0  0  0  0  0  0  0
    4.1344    0.4358    1.0970 C   0  0  0  0  0  0  0  0  0  0  0  0
    5.4851    0.5334    0.7430 C   0  0  0  0  0  0  0  0  0  0  0  0
    6.0568   -0.4013   -0.1360 C   0  0  0  0  0  0  0  0  0  0  0  0
    7.4398   -0.3163   -0.5133 N   0  0  0  0  0  0  0  0  0  0  0  0
    8.5056   -0.1180    0.4318 C   0  0  0  0  0  0  0  0  0  0  0  0
    8.2586   -0.0968    1.6701 O   0  0  0  0  0  0  0  0  0  0  0  0
    9.9288   -0.0011   -0.0584 C   0  0  2  0  0  0  0  0  0  0  0  0
   10.4482   -1.3789   -0.5069 C   0  0  0  0  0  0  0  0  0  0  0  0
   11.8431   -1.2860   -1.0886 C   0  0  0  0  0  0  0  0  0  0  0  0
   12.0008   -0.7803   -2.3925 C   0  0  0  0  0  0  0  0  0  0  0  0
   13.2703   -0.6594   -2.9594 C   0  0  0  0  0  0  0  0  0  0  0  0
   14.3988   -1.0442   -2.2347 C   0  0  0  0  0  0  0  0  0  0  0  0
   14.2605   -1.5423   -0.9379 C   0  0  0  0  0  0  0  0  0  0  0  0
   12.9937   -1.6596   -0.3553 C   0  0  0  0  0  0  0  0  0  0  0  0
   12.9026   -2.2648    1.2969 Cl  0  0  0  0  0  0  0  0  0  0  0  0
   10.7962    0.5411    0.9953 N   0  0  0  0  0  0  0  0  0  0  0  0
   11.6484    1.6816    0.7988 C   0  0  0  0  0  0  0  0  0  0  0  0
   11.5351    2.3886   -0.2385 O   0  0  0  0  0  0  0  0  0  0  0  0
   12.6236    2.0835    1.8683 C   0  0  0  0  0  0  0  0  0  0  0  0
   13.9609    2.4545    1.2825 C   0  0  0  0  0  0  0  0  0  0  0  0
   14.8856    1.4545    0.9409 C   0  0  0  0  0  0  0  0  0  0  0  0
   16.1174    1.7980    0.3743 C   0  0  0  0  0  0  0  0  0  0  0  0
   16.4378    3.1419    0.1543 C   0  0  0  0  0  0  0  0  0  0  0  0
   15.5203    4.1429    0.4832 C   0  0  0  0  0  0  0  0  0  0  0  0
   14.2829    3.8020    1.0416 C   0  0  0  0  0  0  0  0  0  0  0  0
    5.2540   -1.4158   -0.6746 C   0  0  0  0  0  0  0  0  0  0  0  0
    3.9108   -1.5280   -0.3029 C   0  0  0  0  0  0  0  0  0  0  0  0
   -0.4788   -0.9696    0.4725 N   0  0  0  0  0  0  0  0  0  0  0  0
   -0.8379   -2.2749    0.9473 C   0  0  0  0  0  0  0  0  0  0  0  0
   -0.5945   -2.5691    2.1513 O   0  0  0  0  0  0  0  0  0  0  0  0
   -1.6386   -3.2486    0.1094 C   0  0  2  0  0  0  0  0  0  0  0  0
   -0.9511   -3.5795   -1.2530 C   0  0  0  0  0  0  0  0  0  0  0  0
   -1.4104   -4.9516   -1.7734 C   0  0  0  0  0  0  0  0  0  0  0  0
   -1.1558   -2.5168   -2.3527 C   0  0  0  0  0  0  0  0  0  0  0  0
   -3.0171   -2.7654   -0.0414 N   0  0  0  0  0  0  0  0  0  0  0  0
   -3.8841   -2.5917    1.0938 C   0  0  0  0  0  0  0  0  0  0  0  0
   -3.7534   -3.3589    2.0854 O   0  0  0  0  0  0  0  0  0  0  0  0
   -4.8373   -1.4004    1.1723 C   0  0  2  0  0  0  0  0  0  0  0  0
   -5.5926   -1.3884    2.5193 C   0  0  0  0  0  0  0  0  0  0  0  0
   -8.5350   -3.3450   -0.9759 O   0  0  0  0  0  0  0  0  0  0  0  0
   -9.0293   -4.2338    0.0041 C   0  0  1  0  0  0  0  0  0  0  0  0
  -10.5567   -4.1587    0.0053 C   0  0  0  0  0  0  0  0  0  0  0  0
   -8.5360   -5.6812   -0.2813 C   0  0  2  0  0  0  0  0  0  0  0  0
   -8.5485   -6.4275    0.9138 O   0  0  0  0  0  0  0  0  0  0  0  0
   -4.4975   -6.3724   -0.2106 H   0  0  0  0  0  0  0  0  0  0  0  0
   -4.7867   -8.0620   -0.7016 H   0  0  0  0  0  0  0  0  0  0  0  0
   -4.9101   -6.7883   -1.9403 H   0  0  0  0  0  0  0  0  0  0  0  0
   -8.0703   -5.0137   -2.8463 H   0  0  0  0  0  0  0  0  0  0  0  0
   -7.6491   -6.7580   -2.8345 H   0  0  0  0  0  0  0  0  0  0  0  0
   -6.3658   -5.5070   -3.0416 H   0  0  0  0  0  0  0  0  0  0  0  0
   -5.3641   -4.3741   -1.0672 H   0  0  0  0  0  0  0  0  0  0  0  0
   -6.1302   -4.5091    0.5502 H   0  0  0  0  0  0  0  0  0  0  0  0
   -6.8109   -2.7571   -1.8249 H   0  0  0  0  0  0  0  0  0  0  0  0
   -5.2535   -1.6191   -0.9369 H   0  0  0  0  0  0  0  0  0  0  0  0
   -6.8402    0.4471    0.6280 H   0  0  0  0  0  0  0  0  0  0  0  0
   -8.3849   -0.4729   -0.9058 H   0  0  0  0  0  0  0  0  0  0  0  0
   -7.9263    1.1473   -1.4840 H   0  0  0  0  0  0  0  0  0  0  0  0
   -7.2628   -0.3206   -2.2917 H   0  0  0  0  0  0  0  0  0  0  0  0
   -5.8800    2.0783   -1.1825 H   0  0  0  0  0  0  0  0  0  0  0  0
   -6.5135    2.6658    1.0541 H   0  0  0  0  0  0  0  0  0  0  0  0
   -6.9608    4.7545    0.0510 H   0  0  0  0  0  0  0  0  0  0  0  0
   -4.5853    6.6741    0.3213 H   0  0  0  0  0  0  0  0  0  0  0  0
   -5.3208    6.0944   -1.2132 H   0  0  0  0  0  0  0  0  0  0  0  0
   -6.2996    7.1062   -0.0813 H   0  0  0  0  0  0  0  0  0  0  0  0
   -7.3893    5.0746    2.2157 H   0  0  0  0  0  0  0  0  0  0  0  0
   -6.2070    6.3625    2.3227 H   0  0  0  0  0  0  0  0  0  0  0  0
   -6.2692    4.0875    3.8393 H   0  0  0  0  0  0  0  0  0  0  0  0
   -5.6423    6.7091    4.5698 H   0  0  0  0  0  0  0  0  0  0  0  0
   -5.4533    5.2778    5.6583 H   0  0  0  0  0  0  0  0  0  0  0  0
   -4.0959    6.4126    5.4612 H   0  0  0  0  0  0  0  0  0  0  0  0
   -2.5868    6.1104    3.4716 H   0  0  0  0  0  0  0  0  0  0  0  0
   -3.2830    5.3621    2.0103 H   0  0  0  0  0  0  0  0  0  0  0  0
   -3.9952    6.8885    2.6697 H   0  0  0  0  0  0  0  0  0  0  0  0
   -3.8375    3.1236    2.4792 H   0  0  0  0  0  0  0  0  0  0  0  0
   -4.6211    1.3196    3.2812 H   0  0  0  0  0  0  0  0  0  0  0  0
   -3.8358    0.0769   -3.7023 H   0  0  0  0  0  0  0  0  0  0  0  0
   -5.1539   -0.6922   -2.8642 H   0  0  0  0  0  0  0  0  0  0  0  0
   -5.3927    0.9721   -3.5153 H   0  0  0  0  0  0  0  0  0  0  0  0
   -2.7525    0.4704   -0.4068 H   0  0  0  0  0  0  0  0  0  0  0  0
   -3.2666    2.8234   -1.1502 H   0  0  0  0  0  0  0  0  0  0  0  0
   -4.0303    2.8705   -2.7147 H   0  0  0  0  0  0  0  0  0  0  0  0
   -1.6679    0.9775   -2.6608 H   0  0  0  0  0  0  0  0  0  0  0  0
   -2.7956    1.7292   -4.7577 H   0  0  0  0  0  0  0  0  0  0  0  0
   -2.3155    3.4283   -4.3981 H   0  0  0  0  0  0  0  0  0  0  0  0
   -1.0577    2.1734   -4.7195 H   0  0  0  0  0  0  0  0  0  0  0  0
   -1.1031    3.9889   -2.2778 H   0  0  0  0  0  0  0  0  0  0  0  0
    0.1018    2.7399   -2.6219 H   0  0  0  0  0  0  0  0  0  0  0  0
   -1.8270    3.0783    1.0842 H   0  0  0  0  0  0  0  0  0  0  0  0
   -1.9570    4.3435   -0.1875 H   0  0  0  0  0  0  0  0  0  0  0  0
   -0.4711    4.2413    0.7930 H   0  0  0  0  0  0  0  0  0  0  0  0
    1.9130    0.8130   -1.2449 H   0  0  0  0  0  0  0  0  0  0  0  0
    0.2905    0.4469   -1.8189 H   0  0  0  0  0  0  0  0  0  0  0  0
    1.1037   -1.5282   -0.7891 H   0  0  0  0  0  0  0  0  0  0  0  0
    1.6662   -0.0409    1.8525 H   0  0  0  0  0  0  0  0  0  0  0  0
    1.8603   -1.7720    1.5398 H   0  0  0  0  0  0  0  0  0  0  0  0
    3.7176    1.1599    1.7884 H   0  0  0  0  0  0  0  0  0  0  0  0
    6.0803    1.3450    1.1446 H   0  0  0  0  0  0  0  0  0  0  0  0
    7.6883   -0.5509   -1.4985 H   0  0  0  0  0  0  0  0  0  0  0  0
    9.9113    0.6781   -0.9393 H   0  0  0  0  0  0  0  0  0  0  0  0
   10.4089   -2.0909    0.3430 H   0  0  0  0  0  0  0  0  0  0  0  0
    9.7738   -1.7941   -1.2863 H   0  0  0  0  0  0  0  0  0  0  0  0
   11.1348   -0.4772   -2.9669 H   0  0  0  0  0  0  0  0  0  0  0  0
   13.3785   -0.2672   -3.9623 H   0  0  0  0  0  0  0  0  0  0  0  0
   15.3837   -0.9474   -2.6759 H   0  0  0  0  0  0  0  0  0  0  0  0
   15.1450   -1.8295   -0.3824 H   0  0  0  0  0  0  0  0  0  0  0  0
   10.8800    0.0052    1.8885 H   0  0  0  0  0  0  0  0  0  0  0  0
   12.7616    1.2489    2.5905 H   0  0  0  0  0  0  0  0  0  0  0  0
   12.1972    2.9372    2.4416 H   0  0  0  0  0  0  0  0  0  0  0  0
   14.6543    0.4138    1.1187 H   0  0  0  0  0  0  0  0  0  0  0  0
   16.8269    1.0251    0.1111 H   0  0  0  0  0  0  0  0  0  0  0  0
   17.3950    3.4054   -0.2747 H   0  0  0  0  0  0  0  0  0  0  0  0
   15.7663    5.1838    0.3074 H   0  0  0  0  0  0  0  0  0  0  0  0
   13.5796    4.5887    1.2901 H   0  0  0  0  0  0  0  0  0  0  0  0
    5.6782   -2.1428   -1.3570 H   0  0  0  0  0  0  0  0  0  0  0  0
    3.3230   -2.3471   -0.6940 H   0  0  0  0  0  0  0  0  0  0  0  0
   -0.9325   -0.1813    0.9814 H   0  0  0  0  0  0  0  0  0  0  0  0
   -1.6763   -4.1991    0.6855 H   0  0  0  0  0  0  0  0  0  0  0  0
    0.1408   -3.6736   -1.0670 H   0  0  0  0  0  0  0  0  0  0  0  0
   -1.1654   -5.7469   -1.0354 H   0  0  0  0  0  0  0  0  0  0  0  0
   -2.5065   -4.9624   -1.9560 H   0  0  0  0  0  0  0  0  0  0  0  0
   -0.8818   -5.1914   -2.7236 H   0  0  0  0  0  0  0  0  0  0  0  0
   -1.1404   -1.4913   -1.9419 H   0  0  0  0  0  0  0  0  0  0  0  0
   -2.1235   -2.6575   -2.8784 H   0  0  0  0  0  0  0  0  0  0  0  0
   -0.3460   -2.5982   -3.1088 H   0  0  0  0  0  0  0  0  0  0  0  0
   -3.3941   -2.5985   -0.9963 H   0  0  0  0  0  0  0  0  0  0  0  0
   -4.1778   -0.5143    1.1856 H   0  0  0  0  0  0  0  0  0  0  0  0
   -6.1807   -2.3222    2.6529 H   0  0  0  0  0  0  0  0  0  0  0  0
   -4.8694   -1.3045    3.3589 H   0  0  0  0  0  0  0  0  0  0  0  0
   -6.2769   -0.5216    2.5847 H   0  0  0  0  0  0  0  0  0  0  0  0
   -8.6942   -3.9095    1.0176 H   0  0  0  0  0  0  0  0  0  0  0  0
  -10.9617   -4.4112   -1.0007 H   0  0  0  0  0  0  0  0  0  0  0  0
  -10.9778   -4.8661    0.7549 H   0  0  0  0  0  0  0  0  0  0  0  0
  -10.8815   -3.1323    0.2741 H   0  0  0  0  0  0  0  0  0  0  0  0
   -9.2638   -6.1811   -0.9604 H   0  0  0  0  0  0  0  0  0  0  0  0
   -7.8941   -6.0150    1.5355 H   0  0  0  0  0  0  0  0  0  0  0  0
  1  2  1  0
  3  2  1  1
  3  4  1  0
  3  5  1  0
  5  6  1  0
  6  7  1  0
  7  8  1  0
  8  9  1  0
  9 10  1  0
  9 11  1  0
 11 12  1  0
 12 13  1  0
 13 14  1  0
 14 15  1  0
 15 16  1  0
 15 17  1  0
 17 18  1  0
 18 19  1  0
 19 20  1  0
 19 21  1  0
 18 22  1  0
 22 23  1  0
 11 24  1  0
 24 25  1  0
 24 26  1  1
 24 27  1  0
 27 28  1  0
 28 29  1  0
 28 30  1  0
 30 31  1  0
 31 32  1  0
 31 33  1  0
 33 34  2  0
 33 35  1  0
 35 36  1  0
 36 37  1  0
 37 38  1  0
 38 39  2  0
 39 40  1  0
 40 41  2  0
 41 42  1  0
 42 43  1  0
 43 44  2  0
 43 45  1  0
 45 46  1  0
 46 47  1  0
 47 48  2  0
 48 49  1  0
 49 50  2  0
 50 51  1  0
 51 52  2  0
 52 53  1  0
 45 54  1  0
 54 55  1  0
 55 56  2  0
 55 57  1  0
 57 58  1  0
 58 59  2  0
 59 60  1  0
 60 61  2  0
 61 62  1  0
 62 63  2  0
 41 64  1  0
 64 65  2  0
 36 66  1  0
 66 67  1  0
 67 68  2  0
 67 69  1  0
 69 70  1  0
 70 71  1  0
 70 72  1  0
 69 73  1  0
 73 74  1  0
 74 75  2  0
 74 76  1  0
 76 77  1  0
  6 78  1  0
 78 79  1  0
 79 80  1  0
 79 81  1  0
 81 82  1  0
 81  3  1  0
 76  8  1  0
 22 13  1  0
 65 38  1  0
 52 47  1  0
 63 58  1  0
  1 83  1  0
  1 84  1  0
  1 85  1  0
  4 86  1  0
  4 87  1  0
  4 88  1  0
  5 89  1  0
  5 90  1  0
  6 91  1  6
  8 92  1  6
  9 93  1  1
 10 94  1  0
 10 95  1  0
 10 96  1  0
 11 97  1  6
 13 98  1  1
 15 99  1  6
 16100  1  0
 16101  1  0
 16102  1  0
 17103  1  0
 17104  1  0
 18105  1  1
 20106  1  0
 20107  1  0
 20108  1  0
 21109  1  0
 21110  1  0
 21111  1  0
 22112  1  6
 23113  1  0
 25114  1  0
 25115  1  0
 25116  1  0
 26117  1  0
 27118  1  0
 27119  1  0
 28120  1  6
 29121  1  0
 29122  1  0
 29123  1  0
 30124  1  0
 30125  1  0
 32126  1  0
 32127  1  0
 32128  1  0
 35129  1  0
 35130  1  0
 36131  1  6
 37132  1  0
 37133  1  0
 39134  1  0
 40135  1  0
 42136  1  0
 45137  1  6
 46138  1  0
 46139  1  0
 48140  1  0
 49141  1  0
 50142  1  0
 51143  1  0
 54144  1  0
 57145  1  0
 57146  1  0
 59147  1  0
 60148  1  0
 61149  1  0
 62150  1  0
 63151  1  0
 64152  1  0
 65153  1  0
 66154  1  0
 69155  1  1
 70156  1  0
 71157  1  0
 71158  1  0
 71159  1  0
 72160  1  0
 72161  1  0
 72162  1  0
 73163  1  0
 76164  1  1
 77165  1  0
 77166  1  0
 77167  1  0
 79168  1  1
 80169  1  0
 80170  1  0
 80171  1  0
 81172  1  6
 82173  1  0
M  END
$$$$
