
     RDKit          3D

 49 52  0  0  0  0  0  0  0  0999 V2000
    4.3943   -3.8808    0.0165 C   0  0  0  0  0  0  0  0  0  0  0  0
    3.1207   -3.5007    0.5234 O   0  0  0  0  0  0  0  0  0  0  0  0
    2.7330   -2.1651    0.6753 C   0  0  0  0  0  0  0  0  0  0  0  0
    3.5816   -1.1550    0.3259 N   0  0  0  0  0  0  0  0  0  0  0  0
    3.2281    0.1543    0.4241 C   0  0  0  0  0  0  0  0  0  0  0  0
    1.9691    0.5012    0.9193 C   0  0  0  0  0  0  0  0  0  0  0  0
    1.1117   -0.5168    1.3570 C   0  0  0  0  0  0  0  0  0  0  0  0
    1.4537   -1.8621    1.1707 C   0  0  0  0  0  0  0  0  0  0  0  0
    0.5114   -2.9116    1.4537 N   0  0  0  0  0  0  0  0  0  0  0  0
   -1.1198   -2.9099    0.8370 S   0  0  0  0  0  6  0  0  0  0  0  0
   -2.0854   -2.9231    1.9880 O   0  0  0  0  0  0  0  0  0  0  0  0
   -1.3234   -4.1403   -0.0017 O   0  0  0  0  0  0  0  0  0  0  0  0
   -1.4258   -1.4635   -0.1676 C   0  0  0  0  0  0  0  0  0  0  0  0
   -2.6345   -1.5829   -1.0992 C   0  0  0  0  0  0  0  0  0  0  0  0
   -3.1255   -0.2454   -1.5186 N   0  0  0  0  0  0  0  0  0  0  0  0
   -4.3551   -0.3985   -2.3129 C   0  0  0  0  0  0  0  0  0  0  0  0
   -2.1142    0.5536   -2.2618 C   0  0  0  0  0  0  0  0  0  0  0  0
   -1.4892    1.5745   -1.3390 C   0  0  0  0  0  0  0  0  0  0  0  0
   -2.2473    2.6616   -0.8738 C   0  0  0  0  0  0  0  0  0  0  0  0
   -1.7036    3.5564    0.0552 C   0  0  0  0  0  0  0  0  0  0  0  0
   -0.4245    3.3346    0.5756 C   0  0  0  0  0  0  0  0  0  0  0  0
    0.3137    2.2114    0.1791 C   0  0  0  0  0  0  0  0  0  0  0  0
   -0.1804    1.4013   -0.8585 C   0  0  0  0  0  0  0  0  0  0  0  0
    1.5222    1.8689    0.9031 N   0  0  0  0  0  0  0  0  0  0  0  0
    1.9935    2.7391    1.9918 C   0  0  0  0  0  0  0  0  0  0  0  0
    1.5235    4.1857    1.7966 C   0  0  0  0  0  0  0  0  0  0  0  0
    0.1274    4.2189    1.5038 O   0  0  0  0  0  0  0  0  0  0  0  0
    4.5250   -3.4903   -1.0150 H   0  0  0  0  0  0  0  0  0  0  0  0
    5.1983   -3.4855    0.6729 H   0  0  0  0  0  0  0  0  0  0  0  0
    4.4614   -4.9877   -0.0072 H   0  0  0  0  0  0  0  0  0  0  0  0
    3.9159    0.9215    0.0940 H   0  0  0  0  0  0  0  0  0  0  0  0
    0.1675   -0.2540    1.8115 H   0  0  0  0  0  0  0  0  0  0  0  0
    0.8759   -3.8287    1.7950 H   0  0  0  0  0  0  0  0  0  0  0  0
   -0.5242   -1.3152   -0.7884 H   0  0  0  0  0  0  0  0  0  0  0  0
   -1.5925   -0.6037    0.5113 H   0  0  0  0  0  0  0  0  0  0  0  0
   -3.4427   -2.1097   -0.5445 H   0  0  0  0  0  0  0  0  0  0  0  0
   -2.3654   -2.2019   -1.9850 H   0  0  0  0  0  0  0  0  0  0  0  0
   -4.1490   -0.9333   -3.2667 H   0  0  0  0  0  0  0  0  0  0  0  0
   -5.1221   -0.9605   -1.7375 H   0  0  0  0  0  0  0  0  0  0  0  0
   -4.7897    0.5992   -2.5389 H   0  0  0  0  0  0  0  0  0  0  0  0
   -2.5701    1.1151   -3.1092 H   0  0  0  0  0  0  0  0  0  0  0  0
   -1.3387   -0.0975   -2.7245 H   0  0  0  0  0  0  0  0  0  0  0  0
   -3.2578    2.8152   -1.2320 H   0  0  0  0  0  0  0  0  0  0  0  0
   -2.2834    4.4084    0.3862 H   0  0  0  0  0  0  0  0  0  0  0  0
    0.4342    0.6027   -1.2480 H   0  0  0  0  0  0  0  0  0  0  0  0
    1.5924    2.3606    2.9573 H   0  0  0  0  0  0  0  0  0  0  0  0
    3.1038    2.7180    2.0403 H   0  0  0  0  0  0  0  0  0  0  0  0
    1.7235    4.7787    2.7136 H   0  0  0  0  0  0  0  0  0  0  0  0
    2.0826    4.6427    0.9515 H   0  0  0  0  0  0  0  0  0  0  0  0
  1  2  1  0
  2  3  1  0
  3  4  2  0
  4  5  1  0
  5  6  2  0
  6  7  1  0
  7  8  2  0
  8  9  1  0
  9 10  1  0
 10 11  2  0
 10 12  2  0
 10 13  1  0
 13 14  1  0
 14 15  1  0
 15 16  1  0
 15 17  1  0
 17 18  1  0
 18 19  1  0
 19 20  2  0
 20 21  1  0
 21 22  2  0
 22 23  1  0
 22 24  1  0
 24 25  1  0
 25 26  1  0
 26 27  1  0
  8  3  1  0
 23 18  2  0
 24  6  1  0
 27 21  1  0
  1 28  1  0
  1 29  1  0
  1 30  1  0
  5 31  1  0
  7 32  1  0
  9 33  1  0
 13 34  1  0
 13 35  1  0
 14 36  1  0
 14 37  1  0
 16 38  1  0
 16 39  1  0
 16 40  1  0
 17 41  1  0
 17 42  1  0
 19 43  1  0
 20 44  1  0
 23 45  1  0
 25 46  1  0
 25 47  1  0
 26 48  1  0
 26 49  1  0
M  END
$$$$
