
     RDKit          3D

 93 95  0  0  0  0  0  0  0  0999 V2000
   -8.4769    0.4205    4.2861 C   0  0  0  0  0  0  0  0  0  0  0  0
   -7.7235    0.5816    3.0029 C   0  0  0  0  0  0  0  0  0  0  0  0
   -6.4893    1.2505    2.9956 C   0  0  0  0  0  0  0  0  0  0  0  0
   -5.7759    1.3947    1.8030 C   0  0  0  0  0  0  0  0  0  0  0  0
   -6.2858    0.8636    0.6060 C   0  0  0  0  0  0  0  0  0  0  0  0
   -5.3320    0.9327   -0.8806 S   0  0  0  0  0  6  0  0  0  0  0  0
   -4.4224    2.1321   -0.8379 O   0  0  0  0  0  0  0  0  0  0  0  0
   -6.2564    1.0875   -2.0573 O   0  0  0  0  0  0  0  0  0  0  0  0
   -4.3693   -0.5144   -1.0830 N   0  0  0  0  0  0  0  0  0  0  0  0
   -5.2468   -1.6885   -1.1940 C   0  0  0  0  0  0  0  0  0  0  0  0
   -3.3941   -0.6615    0.0211 C   0  0  0  0  0  0  0  0  0  0  0  0
   -1.9210   -0.5402   -0.4693 C   0  0  1  0  0  0  0  0  0  0  0  0
   -1.7956    0.4694   -1.4661 O   0  0  0  0  0  0  0  0  0  0  0  0
   -2.0994   -0.0104   -2.7706 C   0  0  0  0  0  0  0  0  0  0  0  0
   -0.8786    0.0844   -3.6960 C   0  0  0  0  0  0  0  0  0  0  0  0
   -0.6458    1.4896   -4.2870 C   0  0  0  0  0  0  0  0  0  0  0  0
   -0.0100    2.4813   -3.2989 C   0  0  0  0  0  0  0  0  0  0  0  0
    1.4968    2.2203   -3.0714 C   0  0  1  0  0  0  0  0  0  0  0  0
    2.3659    3.0472   -4.0271 C   0  0  0  0  0  0  0  0  0  0  0  0
    1.8102    2.5565   -1.7201 O   0  0  0  0  0  0  0  0  0  0  0  0
    2.9257    2.0927   -1.0119 C   0  0  0  0  0  0  0  0  0  0  0  0
    3.7859    3.0544   -0.4672 C   0  0  0  0  0  0  0  0  0  0  0  0
    4.8678    2.6757    0.3288 C   0  0  0  0  0  0  0  0  0  0  0  0
    5.0978    1.3260    0.6087 C   0  0  0  0  0  0  0  0  0  0  0  0
    6.1938    0.9540    1.4575 N   0  0  0  0  0  0  0  0  0  0  0  0
    6.0990   -0.0839    2.4468 C   0  0  0  0  0  0  0  0  0  0  0  0
    4.9797   -0.5789    2.7455 O   0  0  0  0  0  0  0  0  0  0  0  0
    7.3193   -0.5315    3.1903 C   0  0  0  0  0  0  0  0  0  0  0  0
    7.5189   -2.0462    3.0456 C   0  0  0  0  0  0  0  0  0  0  0  0
    8.7838   -2.5308    3.7548 C   0  0  0  0  0  0  0  0  0  0  0  0
    9.9039   -1.9438    3.1953 F   0  0  0  0  0  0  0  0  0  0  0  0
    8.7315   -2.2211    5.0995 F   0  0  0  0  0  0  0  0  0  0  0  0
    8.8794   -3.9016    3.6149 F   0  0  0  0  0  0  0  0  0  0  0  0
    4.2631    0.3539    0.0371 C   0  0  0  0  0  0  0  0  0  0  0  0
    3.1672    0.7170   -0.7601 C   0  0  0  0  0  0  0  0  0  0  0  0
    2.2996   -0.3683   -1.2746 C   0  0  0  0  0  0  0  0  0  0  0  0
    2.6361   -0.9320   -2.3508 O   0  0  0  0  0  0  0  0  0  0  0  0
    1.1751   -0.8696   -0.5100 N   0  0  0  0  0  0  0  0  0  0  0  0
    1.1187   -2.3170   -0.1921 C   0  0  2  0  0  0  0  0  0  0  0  0
    2.2299   -2.6961    0.7958 C   0  0  0  0  0  0  0  0  0  0  0  0
    1.1588   -3.2222   -1.4368 C   0  0  0  0  0  0  0  0  0  0  0  0
    0.2368   -2.7791   -2.3925 O   0  0  0  0  0  0  0  0  0  0  0  0
    0.4814    0.1139    0.3546 C   0  0  0  0  0  0  0  0  0  0  0  0
   -1.0027   -0.1685    0.7306 C   0  0  2  0  0  0  0  0  0  0  0  0
   -1.1519   -1.1190    1.9444 C   0  0  0  0  0  0  0  0  0  0  0  0
   -7.5388    0.2345    0.6052 C   0  0  0  0  0  0  0  0  0  0  0  0
   -8.2548    0.0984    1.7968 C   0  0  0  0  0  0  0  0  0  0  0  0
   -9.2554   -0.3667    4.1944 H   0  0  0  0  0  0  0  0  0  0  0  0
   -7.7805    0.1247    5.0975 H   0  0  0  0  0  0  0  0  0  0  0  0
   -8.9657    1.3798    4.5581 H   0  0  0  0  0  0  0  0  0  0  0  0
   -6.0739    1.6480    3.9152 H   0  0  0  0  0  0  0  0  0  0  0  0
   -4.8133    1.8886    1.8214 H   0  0  0  0  0  0  0  0  0  0  0  0
   -4.6370   -2.5853   -1.4471 H   0  0  0  0  0  0  0  0  0  0  0  0
   -5.7885   -1.8796   -0.2401 H   0  0  0  0  0  0  0  0  0  0  0  0
   -5.9807   -1.5429   -2.0136 H   0  0  0  0  0  0  0  0  0  0  0  0
   -3.5050   -1.6451    0.5304 H   0  0  0  0  0  0  0  0  0  0  0  0
   -3.5784    0.0852    0.8185 H   0  0  0  0  0  0  0  0  0  0  0  0
   -1.5903   -1.5325   -0.8475 H   0  0  0  0  0  0  0  0  0  0  0  0
   -2.9269    0.6022   -3.1835 H   0  0  0  0  0  0  0  0  0  0  0  0
   -2.4608   -1.0672   -2.7940 H   0  0  0  0  0  0  0  0  0  0  0  0
   -1.0519   -0.6059   -4.5492 H   0  0  0  0  0  0  0  0  0  0  0  0
    0.0188   -0.2890   -3.1675 H   0  0  0  0  0  0  0  0  0  0  0  0
    0.0107    1.4017   -5.1807 H   0  0  0  0  0  0  0  0  0  0  0  0
   -1.6118    1.9049   -4.6457 H   0  0  0  0  0  0  0  0  0  0  0  0
   -0.1599    3.5137   -3.6859 H   0  0  0  0  0  0  0  0  0  0  0  0
   -0.5576    2.4421   -2.3349 H   0  0  0  0  0  0  0  0  0  0  0  0
    1.7275    1.1598   -3.2652 H   0  0  0  0  0  0  0  0  0  0  0  0
    2.0987    2.8234   -5.0835 H   0  0  0  0  0  0  0  0  0  0  0  0
    2.2239    4.1354   -3.8419 H   0  0  0  0  0  0  0  0  0  0  0  0
    3.4382    2.7941   -3.8702 H   0  0  0  0  0  0  0  0  0  0  0  0
    3.6023    4.1065   -0.6496 H   0  0  0  0  0  0  0  0  0  0  0  0
    5.5150    3.4365    0.7482 H   0  0  0  0  0  0  0  0  0  0  0  0
    7.0528    1.5495    1.4449 H   0  0  0  0  0  0  0  0  0  0  0  0
    7.2029   -0.2573    4.2616 H   0  0  0  0  0  0  0  0  0  0  0  0
    8.2148   -0.0025    2.7953 H   0  0  0  0  0  0  0  0  0  0  0  0
    7.5870   -2.3092    1.9640 H   0  0  0  0  0  0  0  0  0  0  0  0
    6.6409   -2.5785    3.4790 H   0  0  0  0  0  0  0  0  0  0  0  0
    4.4767   -0.6907    0.2045 H   0  0  0  0  0  0  0  0  0  0  0  0
    0.1634   -2.5603    0.2899 H   0  0  0  0  0  0  0  0  0  0  0  0
    2.2155   -2.0143    1.6706 H   0  0  0  0  0  0  0  0  0  0  0  0
    2.0736   -3.7318    1.1639 H   0  0  0  0  0  0  0  0  0  0  0  0
    3.2258   -2.6437    0.3098 H   0  0  0  0  0  0  0  0  0  0  0  0
    0.8978   -4.2609   -1.1340 H   0  0  0  0  0  0  0  0  0  0  0  0
    2.1815   -3.2581   -1.8710 H   0  0  0  0  0  0  0  0  0  0  0  0
    0.3084   -3.4074   -3.1583 H   0  0  0  0  0  0  0  0  0  0  0  0
    0.4749    1.0955   -0.1604 H   0  0  0  0  0  0  0  0  0  0  0  0
    1.0775    0.2663    1.2808 H   0  0  0  0  0  0  0  0  0  0  0  0
   -1.3679    0.8170    1.0991 H   0  0  0  0  0  0  0  0  0  0  0  0
   -1.4645   -2.1371    1.6413 H   0  0  0  0  0  0  0  0  0  0  0  0
   -0.2079   -1.2000    2.5249 H   0  0  0  0  0  0  0  0  0  0  0  0
   -1.9386   -0.7375    2.6302 H   0  0  0  0  0  0  0  0  0  0  0  0
   -7.9519   -0.1704   -0.3123 H   0  0  0  0  0  0  0  0  0  0  0  0
   -9.2152   -0.3985    1.7809 H   0  0  0  0  0  0  0  0  0  0  0  0
  1  2  1  0
  2  3  2  0
  3  4  1  0
  4  5  2  0
  5  6  1  0
  6  7  2  0
  6  8  2  0
  6  9  1  0
  9 10  1  0
  9 11  1  0
 11 12  1  0
 12 13  1  0
 13 14  1  0
 14 15  1  0
 15 16  1  0
 16 17  1  0
 17 18  1  0
 18 19  1  0
 18 20  1  0
 20 21  1  0
 21 22  2  0
 22 23  1  0
 23 24  2  0
 24 25  1  0
 25 26  1  0
 26 27  2  0
 26 28  1  0
 28 29  1  0
 29 30  1  0
 30 31  1  0
 30 32  1  0
 30 33  1  0
 24 34  1  0
 34 35  2  0
 35 36  1  0
 36 37  2  0
 36 38  1  0
 38 39  1  0
 39 40  1  0
 39 41  1  0
 41 42  1  0
 38 43  1  0
 43 44  1  0
 44 45  1  0
  5 46  1  0
 46 47  2  0
 47  2  1  0
 44 12  1  0
 35 21  1  0
  1 48  1  0
  1 49  1  0
  1 50  1  0
  3 51  1  0
  4 52  1  0
 10 53  1  0
 10 54  1  0
 10 55  1  0
 11 56  1  0
 11 57  1  0
 12 58  1  6
 14 59  1  0
 14 60  1  0
 15 61  1  0
 15 62  1  0
 16 63  1  0
 16 64  1  0
 17 65  1  0
 17 66  1  0
 18 67  1  1
 19 68  1  0
 19 69  1  0
 19 70  1  0
 22 71  1  0
 23 72  1  0
 25 73  1  0
 28 74  1  0
 28 75  1  0
 29 76  1  0
 29 77  1  0
 34 78  1  0
 39 79  1  1
 40 80  1  0
 40 81  1  0
 40 82  1  0
 41 83  1  0
 41 84  1  0
 42 85  1  0
 43 86  1  0
 43 87  1  0
 44 88  1  1
 45 89  1  0
 45 90  1  0
 45 91  1  0
 46 92  1  0
 47 93  1  0
M  END
$$$$
