
     RDKit          3D

 75 79  0  0  0  0  0  0  0  0999 V2000
   -2.0029    0.7982   -2.7427 C   0  0  0  0  0  0  0  0  0  0  0  0
   -1.7899   -0.3173   -1.6826 C   0  0  0  0  0  0  0  0  0  0  0  0
   -3.1255   -1.1119   -1.6415 C   0  0  0  0  0  0  0  0  0  0  0  0
   -0.6527   -1.2603   -2.2188 C   0  0  0  0  0  0  0  0  0  0  0  0
   -0.8316   -2.6358   -1.8560 O   0  0  0  0  0  0  0  0  0  0  0  0
   -0.4394   -3.1890   -0.6355 C   0  0  0  0  0  0  0  0  0  0  0  0
   -1.3183   -3.4236    0.2336 O   0  0  0  0  0  0  0  0  0  0  0  0
    0.9714   -3.6956   -0.4257 C   0  0  2  0  0  0  0  0  0  0  0  0
    1.4861   -3.3643    0.9925 C   0  0  0  0  0  0  0  0  0  0  0  0
    2.1214   -1.9763    0.8490 C   0  0  1  0  0  0  0  0  0  0  0  0
    3.2454   -1.6628    1.8628 C   0  0  0  0  0  0  0  0  0  0  0  0
    2.9980   -0.3048    2.5547 C   0  0  1  0  0  0  0  0  0  0  0  0
    4.1089    0.0136    3.4614 C   0  0  0  0  0  0  0  0  0  0  0  0
    4.9839    0.2625    4.1768 N   0  0  0  0  0  0  0  0  0  0  0  0
    2.8704    0.7578    1.5521 N   0  0  0  0  0  0  0  0  0  0  0  0
    1.6127    1.3804    1.2378 C   0  0  0  0  0  0  0  0  0  0  0  0
    0.7181    1.4871    2.1217 O   0  0  0  0  0  0  0  0  0  0  0  0
    1.3729    1.8949   -0.1614 C   0  0  2  0  0  0  0  0  0  0  0  0
    2.3772    3.0214   -0.4544 C   0  0  2  0  0  0  0  0  0  0  0  0
    1.5638    4.2804   -0.7716 C   0  0  2  0  0  0  0  0  0  0  0  0
    0.0947    3.8927   -0.6825 C   0  0  0  0  0  0  0  0  0  0  0  0
    0.0416    2.4832   -0.3213 N   0  0  0  0  0  0  0  0  0  0  0  0
   -1.2314    1.8035   -0.2190 C   0  0  0  0  0  0  0  0  0  0  0  0
   -2.2794    2.5019   -0.1435 O   0  0  0  0  0  0  0  0  0  0  0  0
   -1.3847    0.2859   -0.2506 C   0  0  1  0  0  0  0  0  0  0  0  0
   -2.3576   -0.0779    0.7931 N   0  0  0  0  0  0  0  0  0  0  0  0
   -2.0255   -0.7707    2.0076 C   0  0  0  0  0  0  0  0  0  0  0  0
   -0.8401   -1.1366    2.2359 O   0  0  0  0  0  0  0  0  0  0  0  0
   -3.1034   -1.1167    2.9927 C   0  0  0  0  0  0  0  0  0  0  0  0
   -2.5300   -1.4292    4.2136 F   0  0  0  0  0  0  0  0  0  0  0  0
   -3.9262   -0.0143    3.1723 F   0  0  0  0  0  0  0  0  0  0  0  0
   -3.8721   -2.3513    2.4890 C   0  0  0  0  0  0  0  0  0  0  0  0
   -5.2929   -2.5091    3.0053 C   0  0  0  0  0  0  0  0  0  0  0  0
   -5.0527   -2.0965    1.5622 C   0  0  0  0  0  0  0  0  0  0  0  0
    2.4559    3.6533   -1.8485 C   0  0  0  0  0  0  0  0  0  0  0  0
    1.8093    2.9394   -3.0437 C   0  0  0  0  0  0  0  0  0  0  0  0
    3.7558    4.4103   -2.1333 C   0  0  0  0  0  0  0  0  0  0  0  0
    2.5519   -1.9903   -0.5717 C   0  0  0  0  0  0  0  0  0  0  0  0
    3.3236   -1.1475   -1.0995 O   0  0  0  0  0  0  0  0  0  0  0  0
    1.8942   -3.0016   -1.3102 N   0  0  0  0  0  0  0  0  0  0  0  0
   -1.0740    1.3770   -2.8988 H   0  0  0  0  0  0  0  0  0  0  0  0
   -2.2922    0.3634   -3.7244 H   0  0  0  0  0  0  0  0  0  0  0  0
   -2.8139    1.4922   -2.4401 H   0  0  0  0  0  0  0  0  0  0  0  0
   -3.1084   -1.9013   -0.8644 H   0  0  0  0  0  0  0  0  0  0  0  0
   -3.3220   -1.6045   -2.6198 H   0  0  0  0  0  0  0  0  0  0  0  0
   -3.9830   -0.4393   -1.4301 H   0  0  0  0  0  0  0  0  0  0  0  0
   -0.6434   -1.2421   -3.3302 H   0  0  0  0  0  0  0  0  0  0  0  0
    0.3536   -0.8980   -1.9223 H   0  0  0  0  0  0  0  0  0  0  0  0
    1.0103   -4.7890   -0.6151 H   0  0  0  0  0  0  0  0  0  0  0  0
    2.2616   -4.1120    1.2699 H   0  0  0  0  0  0  0  0  0  0  0  0
    0.6923   -3.3785    1.7696 H   0  0  0  0  0  0  0  0  0  0  0  0
    1.3007   -1.2452    0.9322 H   0  0  0  0  0  0  0  0  0  0  0  0
    3.2899   -2.4547    2.6430 H   0  0  0  0  0  0  0  0  0  0  0  0
    4.2376   -1.6469    1.3534 H   0  0  0  0  0  0  0  0  0  0  0  0
    2.0709   -0.3779    3.1692 H   0  0  0  0  0  0  0  0  0  0  0  0
    3.6790    0.9175    0.9065 H   0  0  0  0  0  0  0  0  0  0  0  0
    1.5137    1.0611   -0.8812 H   0  0  0  0  0  0  0  0  0  0  0  0
    3.2038    3.2356    0.2608 H   0  0  0  0  0  0  0  0  0  0  0  0
    1.9285    5.1724   -0.2186 H   0  0  0  0  0  0  0  0  0  0  0  0
   -0.4029    4.4992    0.1038 H   0  0  0  0  0  0  0  0  0  0  0  0
   -0.4112    4.0665   -1.6567 H   0  0  0  0  0  0  0  0  0  0  0  0
   -0.4080   -0.1367    0.0356 H   0  0  0  0  0  0  0  0  0  0  0  0
   -3.3356    0.2721    0.6914 H   0  0  0  0  0  0  0  0  0  0  0  0
   -3.3263   -3.3058    2.3145 H   0  0  0  0  0  0  0  0  0  0  0  0
   -5.6994   -1.6911    3.6362 H   0  0  0  0  0  0  0  0  0  0  0  0
   -5.6350   -3.5621    3.1087 H   0  0  0  0  0  0  0  0  0  0  0  0
   -5.2406   -2.9052    0.8241 H   0  0  0  0  0  0  0  0  0  0  0  0
   -5.3088   -1.0384    1.3529 H   0  0  0  0  0  0  0  0  0  0  0  0
    0.9473    2.3110   -2.7719 H   0  0  0  0  0  0  0  0  0  0  0  0
    2.5638    2.2903   -3.5330 H   0  0  0  0  0  0  0  0  0  0  0  0
    1.4659    3.6971   -3.7771 H   0  0  0  0  0  0  0  0  0  0  0  0
    3.6101    5.0987   -2.9964 H   0  0  0  0  0  0  0  0  0  0  0  0
    4.0896    5.0146   -1.2597 H   0  0  0  0  0  0  0  0  0  0  0  0
    4.5587    3.6803   -2.3834 H   0  0  0  0  0  0  0  0  0  0  0  0
    1.9267   -3.1036   -2.3486 H   0  0  0  0  0  0  0  0  0  0  0  0
  1  2  1  0
  2  3  1  0
  2  4  1  0
  4  5  1  0
  5  6  1  0
  6  7  2  0
  6  8  1  0
  8  9  1  0
  9 10  1  0
 10 11  1  0
 11 12  1  0
 12 13  1  0
 13 14  3  0
 12 15  1  0
 15 16  1  0
 16 17  2  0
 16 18  1  0
 18 19  1  0
 19 20  1  0
 20 21  1  0
 21 22  1  0
 22 23  1  0
 23 24  2  0
 23 25  1  0
 25 26  1  0
 26 27  1  0
 27 28  2  0
 27 29  1  0
 29 30  1  0
 29 31  1  0
 29 32  1  0
 32 33  1  0
 33 34  1  0
 20 35  1  0
 35 36  1  0
 35 37  1  0
 10 38  1  0
 38 39  2  0
 38 40  1  0
 25  2  1  0
 34 32  1  0
 40  8  1  0
 22 18  1  0
 35 19  1  0
  1 41  1  0
  1 42  1  0
  1 43  1  0
  3 44  1  0
  3 45  1  0
  3 46  1  0
  4 47  1  0
  4 48  1  0
  8 49  1  6
  9 50  1  0
  9 51  1  0
 10 52  1  6
 11 53  1  0
 11 54  1  0
 12 55  1  1
 15 56  1  0
 18 57  1  6
 19 58  1  1
 20 59  1  1
 21 60  1  0
 21 61  1  0
 25 62  1  1
 26 63  1  0
 32 64  1  0
 33 65  1  0
 33 66  1  0
 34 67  1  0
 34 68  1  0
 36 69  1  0
 36 70  1  0
 36 71  1  0
 37 72  1  0
 37 73  1  0
 37 74  1  0
 40 75  1  0
M  END
$$$$
