
     RDKit          3D

 84 86  0  0  0  0  0  0  0  0999 V2000
   -3.0235   -1.3439    2.9718 C   0  0  0  0  0  0  0  0  0  0  0  0
   -2.6253   -1.4088    1.6190 O   0  0  0  0  0  0  0  0  0  0  0  0
   -3.5712   -2.1347    0.8488 C   0  0  1  0  0  0  0  0  0  0  0  0
   -4.7285   -1.2375    0.4433 C   0  0  0  0  0  0  0  0  0  0  0  0
   -5.8986   -1.6524    0.6624 O   0  0  0  0  0  0  0  0  0  0  0  0
   -4.5680    0.0341   -0.2128 N   0  0  0  0  0  0  0  0  0  0  0  0
   -3.3186    0.8052   -0.2963 C   0  0  1  0  0  0  0  0  0  0  0  0
   -3.2352    1.5896   -1.6395 C   0  0  0  0  0  0  0  0  0  0  0  0
   -3.3555    0.6371   -2.8384 C   0  0  0  0  0  0  0  0  0  0  0  0
   -4.2591    2.7320   -1.7620 C   0  0  0  0  0  0  0  0  0  0  0  0
   -3.1909    1.7039    0.9170 C   0  0  0  0  0  0  0  0  0  0  0  0
   -4.2376    2.1590    1.4544 O   0  0  0  0  0  0  0  0  0  0  0  0
   -1.9191    2.0328    1.5022 N   0  0  0  0  0  0  0  0  0  0  0  0
   -0.6741    2.1612    0.7349 C   0  0  1  0  0  0  0  0  0  0  0  0
   -0.5661    3.5942    0.2032 C   0  0  0  0  0  0  0  0  0  0  0  0
    0.5272    1.8326    1.5932 C   0  0  0  0  0  0  0  0  0  0  0  0
    0.3691    1.3612    2.7532 O   0  0  0  0  0  0  0  0  0  0  0  0
    1.8593    2.0676    1.1026 N   0  0  0  0  0  0  0  0  0  0  0  0
    2.8440    2.6750    2.0032 C   0  0  0  0  0  0  0  0  0  0  0  0
    3.7606    3.6032    1.2064 C   0  0  0  0  0  0  0  0  0  0  0  0
    4.3060    2.8811   -0.0272 C   0  0  0  0  0  0  0  0  0  0  0  0
    3.1461    2.2986   -0.8550 C   0  0  2  0  0  0  0  0  0  0  0  0
    2.3244    1.3870   -0.0477 N   0  0  0  0  0  0  0  0  0  0  0  0
    3.6234    1.6199   -2.1241 C   0  0  0  0  0  0  0  0  0  0  0  0
    3.4835    2.2420   -3.2096 O   0  0  0  0  0  0  0  0  0  0  0  0
    4.1554    0.3187   -2.1843 O   0  0  0  0  0  0  0  0  0  0  0  0
    4.9712   -0.3187   -1.1978 C   0  0  2  0  0  0  0  0  0  0  0  0
    5.7557   -1.4486   -1.8645 C   0  0  0  0  0  0  0  0  0  0  0  0
    4.1411   -0.8743   -0.0633 C   0  0  0  0  0  0  0  0  0  0  0  0
    4.5247   -0.6433    1.2671 C   0  0  0  0  0  0  0  0  0  0  0  0
    3.7734   -1.1685    2.3182 C   0  0  0  0  0  0  0  0  0  0  0  0
    2.6477   -1.9503    2.0547 C   0  0  0  0  0  0  0  0  0  0  0  0
    2.2527   -2.2097    0.7331 C   0  0  0  0  0  0  0  0  0  0  0  0
    3.0082   -1.6675   -0.3252 C   0  0  0  0  0  0  0  0  0  0  0  0
    1.1074   -3.1205    0.5044 C   0  0  0  0  0  0  0  0  0  0  0  0
    0.3772   -3.1429   -0.6182 C   0  0  0  0  0  0  0  0  0  0  0  0
   -0.7118   -4.1617   -0.8136 C   0  0  0  0  0  0  0  0  0  0  0  0
   -1.9126   -3.9205    0.1196 C   0  0  0  0  0  0  0  0  0  0  0  0
   -2.8482   -2.7818   -0.3683 C   0  0  1  0  0  0  0  0  0  0  0  0
   -3.8439   -3.3287   -1.4113 C   0  0  0  0  0  0  0  0  0  0  0  0
   -2.9986   -2.3519    3.4398 H   0  0  0  0  0  0  0  0  0  0  0  0
   -2.3055   -0.6998    3.5190 H   0  0  0  0  0  0  0  0  0  0  0  0
   -4.0327   -0.8890    3.0787 H   0  0  0  0  0  0  0  0  0  0  0  0
   -3.9981   -2.9865    1.4362 H   0  0  0  0  0  0  0  0  0  0  0  0
   -5.4558    0.5228   -0.4663 H   0  0  0  0  0  0  0  0  0  0  0  0
   -2.4622    0.1091   -0.2893 H   0  0  0  0  0  0  0  0  0  0  0  0
   -2.2296    2.0516   -1.7109 H   0  0  0  0  0  0  0  0  0  0  0  0
   -3.1764    1.1899   -3.7848 H   0  0  0  0  0  0  0  0  0  0  0  0
   -2.5973   -0.1713   -2.7648 H   0  0  0  0  0  0  0  0  0  0  0  0
   -4.3665    0.1787   -2.8826 H   0  0  0  0  0  0  0  0  0  0  0  0
   -5.3006    2.3501   -1.7734 H   0  0  0  0  0  0  0  0  0  0  0  0
   -4.0881    3.2889   -2.7079 H   0  0  0  0  0  0  0  0  0  0  0  0
   -4.1442    3.4557   -0.9283 H   0  0  0  0  0  0  0  0  0  0  0  0
   -1.9491    2.4936    2.4409 H   0  0  0  0  0  0  0  0  0  0  0  0
   -0.6749    1.4570   -0.1182 H   0  0  0  0  0  0  0  0  0  0  0  0
   -1.4837    3.8694   -0.3563 H   0  0  0  0  0  0  0  0  0  0  0  0
   -0.4423    4.3103    1.0433 H   0  0  0  0  0  0  0  0  0  0  0  0
    0.2970    3.6919   -0.4853 H   0  0  0  0  0  0  0  0  0  0  0  0
    2.3388    3.2689    2.7968 H   0  0  0  0  0  0  0  0  0  0  0  0
    3.4425    1.8753    2.4900 H   0  0  0  0  0  0  0  0  0  0  0  0
    4.6035    3.9379    1.8487 H   0  0  0  0  0  0  0  0  0  0  0  0
    3.1886    4.5023    0.8872 H   0  0  0  0  0  0  0  0  0  0  0  0
    4.8871    3.5996   -0.6456 H   0  0  0  0  0  0  0  0  0  0  0  0
    4.9926    2.0879    0.3191 H   0  0  0  0  0  0  0  0  0  0  0  0
    2.5078    3.1573   -1.1678 H   0  0  0  0  0  0  0  0  0  0  0  0
    1.5062    1.0968   -0.6314 H   0  0  0  0  0  0  0  0  0  0  0  0
    5.7294    0.4025   -0.8300 H   0  0  0  0  0  0  0  0  0  0  0  0
    6.4152   -1.9495   -1.1230 H   0  0  0  0  0  0  0  0  0  0  0  0
    5.0675   -2.2008   -2.3054 H   0  0  0  0  0  0  0  0  0  0  0  0
    6.3910   -1.0343   -2.6757 H   0  0  0  0  0  0  0  0  0  0  0  0
    5.4050   -0.0551    1.4935 H   0  0  0  0  0  0  0  0  0  0  0  0
    4.0721   -0.9790    3.3410 H   0  0  0  0  0  0  0  0  0  0  0  0
    2.0882   -2.3627    2.8859 H   0  0  0  0  0  0  0  0  0  0  0  0
    2.7468   -1.8817   -1.3525 H   0  0  0  0  0  0  0  0  0  0  0  0
    0.8517   -3.8081    1.3032 H   0  0  0  0  0  0  0  0  0  0  0  0
    0.5767   -2.4526   -1.4265 H   0  0  0  0  0  0  0  0  0  0  0  0
   -0.2935   -5.1722   -0.6140 H   0  0  0  0  0  0  0  0  0  0  0  0
   -1.0362   -4.1508   -1.8746 H   0  0  0  0  0  0  0  0  0  0  0  0
   -1.5363   -3.7084    1.1442 H   0  0  0  0  0  0  0  0  0  0  0  0
   -2.4924   -4.8657    0.2074 H   0  0  0  0  0  0  0  0  0  0  0  0
   -2.2318   -2.0083   -0.8715 H   0  0  0  0  0  0  0  0  0  0  0  0
   -4.4153   -2.4988   -1.8771 H   0  0  0  0  0  0  0  0  0  0  0  0
   -3.3103   -3.8555   -2.2290 H   0  0  0  0  0  0  0  0  0  0  0  0
   -4.5562   -4.0373   -0.9368 H   0  0  0  0  0  0  0  0  0  0  0  0
  1  2  1  0
  2  3  1  0
  3  4  1  0
  4  5  2  0
  4  6  1  0
  6  7  1  0
  7  8  1  0
  8  9  1  0
  8 10  1  0
  7 11  1  0
 11 12  2  0
 11 13  1  0
 13 14  1  0
 14 15  1  0
 14 16  1  0
 16 17  2  0
 16 18  1  0
 18 19  1  0
 19 20  1  0
 20 21  1  0
 21 22  1  0
 22 23  1  0
 22 24  1  0
 24 25  2  0
 24 26  1  0
 26 27  1  0
 27 28  1  0
 27 29  1  0
 29 30  1  0
 30 31  2  0
 31 32  1  0
 32 33  2  0
 33 34  1  0
 33 35  1  0
 35 36  2  0
 36 37  1  0
 37 38  1  0
 38 39  1  0
 39 40  1  0
 39  3  1  0
 23 18  1  0
 34 29  2  0
  1 41  1  0
  1 42  1  0
  1 43  1  0
  3 44  1  1
  6 45  1  0
  7 46  1  6
  8 47  1  0
  9 48  1  0
  9 49  1  0
  9 50  1  0
 10 51  1  0
 10 52  1  0
 10 53  1  0
 13 54  1  0
 14 55  1  6
 15 56  1  0
 15 57  1  0
 15 58  1  0
 19 59  1  0
 19 60  1  0
 20 61  1  0
 20 62  1  0
 21 63  1  0
 21 64  1  0
 22 65  1  6
 23 66  1  0
 27 67  1  1
 28 68  1  0
 28 69  1  0
 28 70  1  0
 30 71  1  0
 31 72  1  0
 32 73  1  0
 34 74  1  0
 35 75  1  0
 36 76  1  0
 37 77  1  0
 37 78  1  0
 38 79  1  0
 38 80  1  0
 39 81  1  6
 40 82  1  0
 40 83  1  0
 40 84  1  0
M  END
$$$$
