
     RDKit          3D

126131  0  0  0  0  0  0  0  0999 V2000
    8.9744   -2.0203   -2.2652 C   0  0  0  0  0  0  0  0  0  0  0  0
    8.1501   -2.8959   -1.3248 C   0  0  0  0  0  0  0  0  0  0  0  0
    6.7632   -2.5616   -1.4013 O   0  0  0  0  0  0  0  0  0  0  0  0
    6.1566   -1.4153   -0.8535 C   0  0  0  0  0  0  0  0  0  0  0  0
    6.8588   -0.5121   -0.0399 C   0  0  0  0  0  0  0  0  0  0  0  0
    6.2135    0.6049    0.5128 C   0  0  0  0  0  0  0  0  0  0  0  0
    6.8716    1.4792    1.3934 O   0  0  0  0  0  0  0  0  0  0  0  0
    8.2641    1.5476    1.5301 C   0  0  0  0  0  0  0  0  0  0  0  0
    9.0822    1.7691    0.4152 C   0  0  0  0  0  0  0  0  0  0  0  0
   10.4792    1.7873    0.5478 C   0  0  0  0  0  0  0  0  0  0  0  0
   11.3359    1.9996   -0.6715 C   0  0  0  0  0  0  0  0  0  0  0  0
   11.0613    1.5779    1.8193 C   0  0  0  0  0  0  0  0  0  0  0  0
   12.8214    1.5579    1.9969 Cl  0  0  0  0  0  0  0  0  0  0  0  0
   10.2348    1.3746    2.9473 C   0  0  0  0  0  0  0  0  0  0  0  0
   10.8341    1.1257    4.3073 C   0  0  0  0  0  0  0  0  0  0  0  0
    8.8394    1.3807    2.7928 C   0  0  0  0  0  0  0  0  0  0  0  0
    4.8685    0.8364    0.2159 C   0  0  0  0  0  0  0  0  0  0  0  0
    4.1483   -0.0392   -0.6220 C   0  0  0  0  0  0  0  0  0  0  0  0
    4.7916   -1.2087   -1.1036 C   0  0  0  0  0  0  0  0  0  0  0  0
    4.1162   -2.2132   -1.8213 O   0  0  0  0  0  0  0  0  0  0  0  0
    2.9345   -2.8897   -1.3788 C   0  0  0  0  0  0  0  0  0  0  0  0
    2.9951   -3.2462    0.0882 C   0  0  0  0  0  0  0  0  0  0  0  0
    4.1069   -3.5419    0.6035 O   0  0  0  0  0  0  0  0  0  0  0  0
    1.8181   -3.2924    0.9095 N   0  0  0  0  0  0  0  0  0  0  0  0
    0.4529   -3.4226    0.3841 C   0  0  1  0  0  0  0  0  0  0  0  0
   -0.3603   -4.3824    1.2722 C   0  0  0  0  0  0  0  0  0  0  0  0
   -1.7713   -4.6299    0.7009 C   0  0  0  0  0  0  0  0  0  0  0  0
   -2.3412   -3.4016   -0.0579 C   0  0  2  0  0  0  0  0  0  0  0  0
   -1.7557   -2.0806    0.4728 C   0  0  0  0  0  0  0  0  0  0  0  0
   -0.2253   -2.0324    0.2985 C   0  0  0  0  0  0  0  0  0  0  0  0
   -3.8880   -3.3858   -0.1141 C   0  0  0  0  0  0  0  0  0  0  0  0
   -4.5723   -2.9110    1.1572 C   0  0  0  0  0  0  0  0  0  0  0  0
   -4.2400   -3.4257    2.2543 O   0  0  0  0  0  0  0  0  0  0  0  0
   -5.6429   -1.9490    1.1516 N   0  0  0  0  0  0  0  0  0  0  0  0
   -6.0172   -1.1198   -0.0030 C   0  0  1  0  0  0  0  0  0  0  0  0
   -6.8347   -1.9492   -1.0322 C   0  0  0  0  0  0  0  0  0  0  0  0
   -6.6344   -1.4810   -2.4944 C   0  0  0  0  0  0  0  0  0  0  0  0
   -7.2465   -0.0945   -2.7479 C   0  0  0  0  0  0  0  0  0  0  0  0
   -7.2392   -2.5028   -3.4679 C   0  0  0  0  0  0  0  0  0  0  0  0
   -6.7921    0.0935    0.4662 C   0  0  0  0  0  0  0  0  0  0  0  0
   -8.0056   -0.0244    0.7881 O   0  0  0  0  0  0  0  0  0  0  0  0
   -6.1777    1.3857    0.5372 N   0  0  0  0  0  0  0  0  0  0  0  0
   -5.0144    1.6414    1.3943 C   0  0  2  0  0  0  0  0  0  0  0  0
   -4.9881    3.1009    1.8886 C   0  0  0  0  0  0  0  0  0  0  0  0
   -6.1623    3.3987    2.7850 C   0  0  0  0  0  0  0  0  0  0  0  0
   -7.2952    4.0643    2.2912 C   0  0  0  0  0  0  0  0  0  0  0  0
   -8.3901    4.2943    3.1287 C   0  0  0  0  0  0  0  0  0  0  0  0
   -8.3425    3.8542    4.4528 C   0  0  0  0  0  0  0  0  0  0  0  0
   -7.2411    3.2074    4.9168 N   0  0  0  0  0  0  0  0  0  0  0  0
   -6.1620    2.9705    4.1214 C   0  0  0  0  0  0  0  0  0  0  0  0
   -3.7266    1.3117    0.6855 C   0  0  0  0  0  0  0  0  0  0  0  0
   -2.7375    0.9495    1.3784 O   0  0  0  0  0  0  0  0  0  0  0  0
   -3.5919    1.3576   -0.7418 N   0  0  0  0  0  0  0  0  0  0  0  0
   -4.0028    2.5041   -1.5636 C   0  0  2  0  0  0  0  0  0  0  0  0
   -4.3025    2.0741   -2.9771 C   0  0  0  0  0  0  0  0  0  0  0  0
   -3.8238    1.0098   -3.4490 O   0  0  0  0  0  0  0  0  0  0  0  0
   -5.0790    2.8971   -3.7902 O   0  0  0  0  0  0  0  0  0  0  0  0
   -2.9374    3.6302   -1.5358 C   0  0  0  0  0  0  0  0  0  0  0  0
   -1.5154    3.1405   -1.3699 C   0  0  0  0  0  0  0  0  0  0  0  0
   -0.7778    3.4930   -0.2274 C   0  0  0  0  0  0  0  0  0  0  0  0
    0.5216    3.0061   -0.0464 C   0  0  0  0  0  0  0  0  0  0  0  0
    1.0876    2.1331   -0.9810 C   0  0  0  0  0  0  0  0  0  0  0  0
    0.3626    1.8001   -2.1380 C   0  0  0  0  0  0  0  0  0  0  0  0
   -0.9186    2.3229   -2.3425 C   0  0  0  0  0  0  0  0  0  0  0  0
    2.3675    1.6185   -0.7367 O   0  0  0  0  0  0  0  0  0  0  0  0
    2.7113    0.2534   -0.9765 C   0  0  0  0  0  0  0  0  0  0  0  0
    8.5741   -2.0998   -3.2976 H   0  0  0  0  0  0  0  0  0  0  0  0
   10.0322   -2.3609   -2.2618 H   0  0  0  0  0  0  0  0  0  0  0  0
    8.9384   -0.9553   -1.9488 H   0  0  0  0  0  0  0  0  0  0  0  0
    8.2670   -3.9526   -1.6416 H   0  0  0  0  0  0  0  0  0  0  0  0
    8.5203   -2.8231   -0.2809 H   0  0  0  0  0  0  0  0  0  0  0  0
    7.8907   -0.7013    0.2087 H   0  0  0  0  0  0  0  0  0  0  0  0
    8.6226    1.9134   -0.5579 H   0  0  0  0  0  0  0  0  0  0  0  0
   10.7208    2.1773   -1.5813 H   0  0  0  0  0  0  0  0  0  0  0  0
   11.9970    2.8811   -0.5220 H   0  0  0  0  0  0  0  0  0  0  0  0
   11.9634    1.0996   -0.8479 H   0  0  0  0  0  0  0  0  0  0  0  0
   11.4789    0.2224    4.2750 H   0  0  0  0  0  0  0  0  0  0  0  0
   10.0525    0.9593    5.0793 H   0  0  0  0  0  0  0  0  0  0  0  0
   11.4448    2.0012    4.6152 H   0  0  0  0  0  0  0  0  0  0  0  0
    8.1909    1.2162    3.6459 H   0  0  0  0  0  0  0  0  0  0  0  0
    4.3911    1.7083    0.6463 H   0  0  0  0  0  0  0  0  0  0  0  0
    2.8318   -3.8288   -1.9591 H   0  0  0  0  0  0  0  0  0  0  0  0
    2.0459   -2.2791   -1.6093 H   0  0  0  0  0  0  0  0  0  0  0  0
    1.9548   -3.3204    1.9479 H   0  0  0  0  0  0  0  0  0  0  0  0
    0.4905   -3.8752   -0.6333 H   0  0  0  0  0  0  0  0  0  0  0  0
   -0.4472   -3.9513    2.2936 H   0  0  0  0  0  0  0  0  0  0  0  0
    0.1724   -5.3549    1.3639 H   0  0  0  0  0  0  0  0  0  0  0  0
   -2.4335   -4.9349    1.5371 H   0  0  0  0  0  0  0  0  0  0  0  0
   -1.7299   -5.4901   -0.0035 H   0  0  0  0  0  0  0  0  0  0  0  0
   -2.0013   -3.4968   -1.1149 H   0  0  0  0  0  0  0  0  0  0  0  0
   -2.0032   -1.9656    1.5501 H   0  0  0  0  0  0  0  0  0  0  0  0
   -2.2088   -1.2295   -0.0726 H   0  0  0  0  0  0  0  0  0  0  0  0
    0.0017   -1.5861   -0.6931 H   0  0  0  0  0  0  0  0  0  0  0  0
    0.1915   -1.3520    1.0730 H   0  0  0  0  0  0  0  0  0  0  0  0
   -4.2579   -4.4072   -0.3519 H   0  0  0  0  0  0  0  0  0  0  0  0
   -4.1707   -2.7506   -0.9753 H   0  0  0  0  0  0  0  0  0  0  0  0
   -6.1456   -1.7986    2.0547 H   0  0  0  0  0  0  0  0  0  0  0  0
   -5.0866   -0.7595   -0.4857 H   0  0  0  0  0  0  0  0  0  0  0  0
   -7.9180   -1.9523   -0.7772 H   0  0  0  0  0  0  0  0  0  0  0  0
   -6.5202   -3.0117   -0.9653 H   0  0  0  0  0  0  0  0  0  0  0  0
   -5.5434   -1.4243   -2.7061 H   0  0  0  0  0  0  0  0  0  0  0  0
   -6.7115    0.6820   -2.1651 H   0  0  0  0  0  0  0  0  0  0  0  0
   -8.3219   -0.0810   -2.4699 H   0  0  0  0  0  0  0  0  0  0  0  0
   -7.1473    0.1804   -3.8189 H   0  0  0  0  0  0  0  0  0  0  0  0
   -6.9911   -2.2248   -4.5121 H   0  0  0  0  0  0  0  0  0  0  0  0
   -6.8203   -3.5117   -3.2763 H   0  0  0  0  0  0  0  0  0  0  0  0
   -8.3424   -2.5430   -3.3559 H   0  0  0  0  0  0  0  0  0  0  0  0
   -6.7620    2.1920    0.2227 H   0  0  0  0  0  0  0  0  0  0  0  0
   -5.0852    0.9817    2.2884 H   0  0  0  0  0  0  0  0  0  0  0  0
   -4.9760    3.8020    1.0258 H   0  0  0  0  0  0  0  0  0  0  0  0
   -4.0524    3.2825    2.4598 H   0  0  0  0  0  0  0  0  0  0  0  0
   -7.3362    4.4018    1.2618 H   0  0  0  0  0  0  0  0  0  0  0  0
   -9.2679    4.8053    2.7529 H   0  0  0  0  0  0  0  0  0  0  0  0
   -9.1824    4.0252    5.1127 H   0  0  0  0  0  0  0  0  0  0  0  0
   -5.3074    2.4462    4.5275 H   0  0  0  0  0  0  0  0  0  0  0  0
   -2.8817    0.7097   -1.1498 H   0  0  0  0  0  0  0  0  0  0  0  0
   -4.9474    2.9255   -1.1691 H   0  0  0  0  0  0  0  0  0  0  0  0
   -5.2770    2.6409   -4.7501 H   0  0  0  0  0  0  0  0  0  0  0  0
   -2.9971    4.2516   -2.4572 H   0  0  0  0  0  0  0  0  0  0  0  0
   -3.1896    4.3183   -0.6986 H   0  0  0  0  0  0  0  0  0  0  0  0
   -1.2102    4.1366    0.5293 H   0  0  0  0  0  0  0  0  0  0  0  0
    1.0774    3.2801    0.8426 H   0  0  0  0  0  0  0  0  0  0  0  0
    0.7884    1.1549   -2.8915 H   0  0  0  0  0  0  0  0  0  0  0  0
   -1.4509    2.0701   -3.2483 H   0  0  0  0  0  0  0  0  0  0  0  0
    2.0614   -0.3801   -0.3459 H   0  0  0  0  0  0  0  0  0  0  0  0
    2.5541    0.0127   -2.0491 H   0  0  0  0  0  0  0  0  0  0  0  0
  1  2  1  0
  2  3  1  0
  3  4  1  0
  4  5  2  0
  5  6  1  0
  6  7  1  0
  7  8  1  0
  8  9  2  0
  9 10  1  0
 10 11  1  0
 10 12  2  0
 12 13  1  0
 12 14  1  0
 14 15  1  0
 14 16  2  0
  6 17  2  0
 17 18  1  0
 18 19  2  0
 19 20  1  0
 20 21  1  0
 21 22  1  0
 22 23  2  0
 22 24  1  0
 24 25  1  0
 25 26  1  0
 26 27  1  0
 27 28  1  0
 28 29  1  0
 29 30  1  0
 28 31  1  0
 31 32  1  0
 32 33  2  0
 32 34  1  0
 34 35  1  0
 35 36  1  0
 36 37  1  0
 37 38  1  0
 37 39  1  0
 35 40  1  0
 40 41  2  0
 40 42  1  0
 42 43  1  0
 43 44  1  0
 44 45  1  0
 45 46  2  0
 46 47  1  0
 47 48  2  0
 48 49  1  0
 49 50  2  0
 43 51  1  0
 51 52  2  0
 51 53  1  0
 53 54  1  0
 54 55  1  0
 55 56  2  0
 55 57  1  0
 54 58  1  0
 58 59  1  0
 59 60  2  0
 60 61  1  0
 61 62  2  0
 62 63  1  0
 63 64  2  0
 62 65  1  0
 65 66  1  0
 19  4  1  0
 30 25  1  0
 50 45  1  0
 64 59  1  0
 16  8  1  0
 66 18  1  0
  1 67  1  0
  1 68  1  0
  1 69  1  0
  2 70  1  0
  2 71  1  0
  5 72  1  0
  9 73  1  0
 11 74  1  0
 11 75  1  0
 11 76  1  0
 15 77  1  0
 15 78  1  0
 15 79  1  0
 16 80  1  0
 17 81  1  0
 21 82  1  0
 21 83  1  0
 24 84  1  0
 25 85  1  6
 26 86  1  0
 26 87  1  0
 27 88  1  0
 27 89  1  0
 28 90  1  6
 29 91  1  0
 29 92  1  0
 30 93  1  0
 30 94  1  0
 31 95  1  0
 31 96  1  0
 34 97  1  0
 35 98  1  6
 36 99  1  0
 36100  1  0
 37101  1  0
 38102  1  0
 38103  1  0
 38104  1  0
 39105  1  0
 39106  1  0
 39107  1  0
 42108  1  0
 43109  1  1
 44110  1  0
 44111  1  0
 46112  1  0
 47113  1  0
 48114  1  0
 50115  1  0
 53116  1  0
 54117  1  1
 57118  1  0
 58119  1  0
 58120  1  0
 60121  1  0
 61122  1  0
 63123  1  0
 64124  1  0
 66125  1  0
 66126  1  0
M  END
$$$$
