
     RDKit          3D

 72 76  0  0  0  0  0  0  0  0999 V2000
   -9.5709   -3.0433    6.2217 Cl  0  0  0  0  0  0  0  0  0  0  0  0
   -8.9722   -1.6015    5.4180 C   0  0  0  0  0  0  0  0  0  0  0  0
   -9.6743   -0.3981    5.5422 C   0  0  0  0  0  0  0  0  0  0  0  0
   -9.2112    0.7524    4.8997 C   0  0  0  0  0  0  0  0  0  0  0  0
   -8.0432    0.7052    4.1343 C   0  0  0  0  0  0  0  0  0  0  0  0
   -7.3189   -0.4934    4.0172 C   0  0  0  0  0  0  0  0  0  0  0  0
   -6.1379   -0.5530    3.2013 N   0  0  0  0  0  0  0  0  0  0  0  0
   -5.9300   -1.5026    2.3019 N   0  0  0  0  0  0  0  0  0  0  0  0
   -4.7537   -1.2525    1.6930 C   0  0  0  0  0  0  0  0  0  0  0  0
   -4.1891   -0.1029    2.2229 C   0  0  0  0  0  0  0  0  0  0  0  0
   -2.9192    0.5266    1.8047 C   0  0  0  0  0  0  0  0  0  0  0  0
   -2.6762    1.7202    2.1257 O   0  0  0  0  0  0  0  0  0  0  0  0
   -1.9728   -0.2075    1.0118 N   0  0  0  0  0  0  0  0  0  0  0  0
   -0.7738    0.4168    0.4365 C   0  0  1  0  0  0  0  0  0  0  0  0
    0.4113    0.3415    1.4342 C   0  0  0  0  0  0  0  0  0  0  0  0
    0.8716   -1.0827    1.8222 C   0  0  0  0  0  0  0  0  0  0  0  0
    1.9230   -1.7090    0.8831 C   0  0  0  0  0  0  0  0  0  0  0  0
    3.3068   -0.9915    0.9158 C   0  0  1  0  0  0  0  0  0  0  0  0
    4.4506   -1.9895    1.1346 C   0  0  0  0  0  0  0  0  0  0  0  0
    3.5653   -0.2004   -0.3471 C   0  0  0  0  0  0  0  0  0  0  0  0
    3.8146    1.0329   -0.2636 O   0  0  0  0  0  0  0  0  0  0  0  0
    3.5436   -0.8407   -1.6321 N   0  0  0  0  0  0  0  0  0  0  0  0
    3.4981   -0.0895   -2.8522 C   0  0  0  0  0  0  0  0  0  0  0  0
    4.6912    0.3430   -3.4460 C   0  0  0  0  0  0  0  0  0  0  0  0
    4.6706    1.0068   -4.6861 C   0  0  0  0  0  0  0  0  0  0  0  0
    5.8828    1.4407   -5.3272 N   0  0  0  0  0  0  0  0  0  0  0  0
    7.0302    1.9501   -4.6336 C   0  0  0  0  0  0  0  0  0  0  0  0
    8.1903    2.2334   -5.3597 O   0  0  0  0  0  0  0  0  0  0  0  0
    9.3662    2.7571   -4.7536 C   0  0  0  0  0  0  0  0  0  0  0  0
    6.9844    2.1779   -3.3937 O   0  0  0  0  0  0  0  0  0  0  0  0
    3.4449    1.1881   -5.3449 C   0  0  0  0  0  0  0  0  0  0  0  0
    2.2520    0.7585   -4.7579 C   0  0  0  0  0  0  0  0  0  0  0  0
    2.2693    0.1311   -3.5064 C   0  0  0  0  0  0  0  0  0  0  0  0
    1.0057   -0.2607   -2.8589 C   0  0  0  0  0  0  0  0  0  0  0  0
    0.6292    0.3519   -1.6593 C   0  0  0  0  0  0  0  0  0  0  0  0
   -0.4422   -0.1658   -0.9205 C   0  0  0  0  0  0  0  0  0  0  0  0
   -1.1672   -1.1989   -1.4369 N   0  0  0  0  0  0  0  0  0  0  0  0
   -0.8662   -1.7631   -2.6371 C   0  0  0  0  0  0  0  0  0  0  0  0
    0.2358   -1.3118   -3.3667 C   0  0  0  0  0  0  0  0  0  0  0  0
   -5.0997    0.3119    3.1834 C   0  0  0  0  0  0  0  0  0  0  0  0
   -4.9190    1.3816    4.1192 N   0  0  0  0  0  0  0  0  0  0  0  0
   -7.7989   -1.6528    4.6524 C   0  0  0  0  0  0  0  0  0  0  0  0
   -7.1180   -2.8216    4.5408 F   0  0  0  0  0  0  0  0  0  0  0  0
  -10.5816   -0.3547    6.1311 H   0  0  0  0  0  0  0  0  0  0  0  0
   -9.7622    1.6799    4.9890 H   0  0  0  0  0  0  0  0  0  0  0  0
   -7.7123    1.5977    3.6180 H   0  0  0  0  0  0  0  0  0  0  0  0
   -4.3479   -1.8646    0.8986 H   0  0  0  0  0  0  0  0  0  0  0  0
   -2.0805   -1.2443    0.9476 H   0  0  0  0  0  0  0  0  0  0  0  0
   -0.9860    1.4949    0.2596 H   0  0  0  0  0  0  0  0  0  0  0  0
    1.2683    0.9372    1.0594 H   0  0  0  0  0  0  0  0  0  0  0  0
    0.0858    0.8517    2.3668 H   0  0  0  0  0  0  0  0  0  0  0  0
   -0.0022   -1.7632    1.8864 H   0  0  0  0  0  0  0  0  0  0  0  0
    1.3046   -1.0465    2.8458 H   0  0  0  0  0  0  0  0  0  0  0  0
    1.5193   -1.7829   -0.1448 H   0  0  0  0  0  0  0  0  0  0  0  0
    2.0430   -2.7656    1.2120 H   0  0  0  0  0  0  0  0  0  0  0  0
    3.3365   -0.2894    1.7789 H   0  0  0  0  0  0  0  0  0  0  0  0
    4.4755   -2.7502    0.3254 H   0  0  0  0  0  0  0  0  0  0  0  0
    4.3202   -2.5090    2.1075 H   0  0  0  0  0  0  0  0  0  0  0  0
    5.4252   -1.4575    1.1582 H   0  0  0  0  0  0  0  0  0  0  0  0
    3.3331   -1.8621   -1.6881 H   0  0  0  0  0  0  0  0  0  0  0  0
    5.6295    0.1222   -2.9553 H   0  0  0  0  0  0  0  0  0  0  0  0
    5.8978    1.4884   -6.3712 H   0  0  0  0  0  0  0  0  0  0  0  0
   10.1427    2.9045   -5.5319 H   0  0  0  0  0  0  0  0  0  0  0  0
    9.1451    3.7348   -4.2766 H   0  0  0  0  0  0  0  0  0  0  0  0
    9.7503    2.0467   -3.9918 H   0  0  0  0  0  0  0  0  0  0  0  0
    3.4139    1.6777   -6.3102 H   0  0  0  0  0  0  0  0  0  0  0  0
    1.3135    0.9301   -5.2708 H   0  0  0  0  0  0  0  0  0  0  0  0
    1.2026    1.1872   -1.2779 H   0  0  0  0  0  0  0  0  0  0  0  0
   -1.4660   -2.5814   -3.0116 H   0  0  0  0  0  0  0  0  0  0  0  0
    0.5068   -1.7982   -4.2949 H   0  0  0  0  0  0  0  0  0  0  0  0
   -4.0595    1.9703    4.1137 H   0  0  0  0  0  0  0  0  0  0  0  0
   -5.5984    1.5359    4.8944 H   0  0  0  0  0  0  0  0  0  0  0  0
  1  2  1  0
  2  3  2  0
  3  4  1  0
  4  5  2  0
  5  6  1  0
  6  7  1  0
  7  8  1  0
  8  9  2  0
  9 10  1  0
 10 11  1  0
 11 12  2  0
 11 13  1  0
 13 14  1  0
 14 15  1  0
 15 16  1  0
 16 17  1  0
 17 18  1  0
 18 19  1  0
 18 20  1  0
 20 21  2  0
 20 22  1  0
 22 23  1  0
 23 24  2  0
 24 25  1  0
 25 26  1  0
 26 27  1  0
 27 28  1  0
 28 29  1  0
 27 30  2  0
 25 31  2  0
 31 32  1  0
 32 33  2  0
 33 34  1  0
 34 35  2  0
 35 36  1  0
 36 37  2  0
 37 38  1  0
 38 39  2  0
 10 40  2  0
 40 41  1  0
  6 42  2  0
 42 43  1  0
 42  2  1  0
 40  7  1  0
 36 14  1  0
 33 23  1  0
 39 34  1  0
  3 44  1  0
  4 45  1  0
  5 46  1  0
  9 47  1  0
 13 48  1  0
 14 49  1  6
 15 50  1  0
 15 51  1  0
 16 52  1  0
 16 53  1  0
 17 54  1  0
 17 55  1  0
 18 56  1  1
 19 57  1  0
 19 58  1  0
 19 59  1  0
 22 60  1  0
 24 61  1  0
 26 62  1  0
 29 63  1  0
 29 64  1  0
 29 65  1  0
 31 66  1  0
 32 67  1  0
 35 68  1  0
 38 69  1  0
 39 70  1  0
 41 71  1  0
 41 72  1  0
M  END
$$$$
