
     RDKit          3D

122126  0  0  0  0  0  0  0  0999 V2000
   -9.1269    2.6661    1.1528 C   0  0  0  0  0  0  0  0  0  0  0  0
   -8.1869    1.8504    0.2719 C   0  0  0  0  0  0  0  0  0  0  0  0
   -8.4833    0.3478    0.3756 C   0  0  0  0  0  0  0  0  0  0  0  0
   -7.5193   -0.4786   -0.4814 C   0  0  0  0  0  0  0  0  0  0  0  0
   -6.2013   -0.3749    0.0400 O   0  0  0  0  0  0  0  0  0  0  0  0
   -5.0862   -0.9236   -0.6053 C   0  0  0  0  0  0  0  0  0  0  0  0
   -5.2063   -1.5683   -1.6791 O   0  0  0  0  0  0  0  0  0  0  0  0
   -3.7641   -0.8274    0.0453 C   0  0  0  0  0  0  0  0  0  0  0  0
   -3.6475   -1.5482    1.3674 C   0  0  0  0  0  0  0  0  0  0  0  0
   -3.1740   -3.0009    1.1904 C   0  0  0  0  0  0  0  0  0  0  0  0
   -4.2908   -3.8956    0.7010 C   0  0  0  0  0  0  0  0  0  0  0  0
   -5.2319   -4.4500    1.5002 C   0  0  0  0  0  0  0  0  0  0  0  0
   -6.3311   -5.2873    0.8997 C   0  0  0  0  0  0  0  0  0  0  0  0
   -5.2047   -4.2957    2.9999 C   0  0  0  0  0  0  0  0  0  0  0  0
   -2.7636   -0.1153   -0.5447 C   0  0  0  0  0  0  0  0  0  0  0  0
   -2.9700    0.7449   -1.7790 C   0  0  1  0  0  0  0  0  0  0  0  0
   -4.1651    1.5258   -1.6742 O   0  0  0  0  0  0  0  0  0  0  0  0
   -4.6814    2.2870   -2.7238 C   0  0  0  0  0  0  0  0  0  0  0  0
   -5.9864    2.9904   -2.5521 C   0  0  0  0  0  0  0  0  0  0  0  0
   -4.0918    2.3316   -3.8386 O   0  0  0  0  0  0  0  0  0  0  0  0
   -1.7258    1.6598   -1.8644 C   0  0  0  0  0  0  0  0  0  0  0  0
   -0.9877    1.4966   -0.5094 C   0  0  1  0  0  0  0  0  0  0  0  0
   -1.7428    2.4348    0.5195 C   0  0  0  0  0  0  0  0  0  0  0  0
   -1.3007    0.0195   -0.1658 C   0  0  1  0  0  0  0  0  0  0  0  0
   -0.6987   -0.3858    1.1941 C   0  0  0  0  0  0  0  0  0  0  0  0
    0.8456   -0.2326    1.1560 C   0  0  1  0  0  0  0  0  0  0  0  0
    1.3918   -1.1309    0.1977 O   0  0  0  0  0  0  0  0  0  0  0  0
    1.7909   -2.3634    0.7682 C   0  0  0  0  0  0  0  0  0  0  0  0
    2.6614   -3.1084   -0.2524 C   0  0  0  0  0  0  0  0  0  0  0  0
    3.5680   -3.9878    0.3924 O   0  0  0  0  0  0  0  0  0  0  0  0
    4.8078   -3.3476    0.6477 C   0  0  0  0  0  0  0  0  0  0  0  0
    5.7869   -3.5419   -0.5140 C   0  0  0  0  0  0  0  0  0  0  0  0
    6.9369   -2.7429   -0.2921 O   0  0  0  0  0  0  0  0  0  0  0  0
    7.8638   -2.9475   -1.3397 C   0  0  0  0  0  0  0  0  0  0  0  0
    8.9515   -1.8666   -1.2958 C   0  0  0  0  0  0  0  0  0  0  0  0
    8.5298   -0.6812   -1.9432 O   0  0  0  0  0  0  0  0  0  0  0  0
    7.8175    0.1907   -1.0885 C   0  0  0  0  0  0  0  0  0  0  0  0
    6.3360    0.2225   -1.5047 C   0  0  0  0  0  0  0  0  0  0  0  0
    5.6710    1.4440   -1.2315 O   0  0  0  0  0  0  0  0  0  0  0  0
    5.6959    1.8746    0.1307 C   0  0  2  0  0  0  0  0  0  0  0  0
    5.2410    0.8004    1.1524 C   0  0  0  0  0  0  0  0  0  0  0  0
    3.7567    0.4218    1.0020 C   0  0  0  0  0  0  0  0  0  0  0  0
    2.7857    1.6398    1.0655 C   0  0  1  0  0  0  0  0  0  0  0  0
    2.8547    2.2220    2.5211 C   0  0  0  0  0  0  0  0  0  0  0  0
    3.2947    2.6829   -0.0000 C   0  0  1  0  0  0  0  0  0  0  0  0
    2.2763    3.8117   -0.1985 C   0  0  0  0  0  0  0  0  0  0  0  0
    0.8994    3.3014   -0.7010 C   0  0  0  0  0  0  0  0  0  0  0  0
    0.6058    1.7551   -0.5565 C   0  0  2  0  0  0  0  0  0  0  0  0
    1.2477    0.9996   -1.7823 C   0  0  0  0  0  0  0  0  0  0  0  0
    1.2486    1.2425    0.7995 C   0  0  1  0  0  0  0  0  0  0  0  0
    4.7768    3.1250    0.2519 C   0  0  2  0  0  0  0  0  0  0  0  0
    5.2567    4.2181   -0.7230 C   0  0  0  0  0  0  0  0  0  0  0  0
   -8.9083    3.7481    1.0316 H   0  0  0  0  0  0  0  0  0  0  0  0
  -10.1845    2.4864    0.8624 H   0  0  0  0  0  0  0  0  0  0  0  0
   -8.9868    2.3950    2.2220 H   0  0  0  0  0  0  0  0  0  0  0  0
   -8.3154    2.1826   -0.7790 H   0  0  0  0  0  0  0  0  0  0  0  0
   -7.1397    2.0561    0.5824 H   0  0  0  0  0  0  0  0  0  0  0  0
   -9.5210    0.1561    0.0281 H   0  0  0  0  0  0  0  0  0  0  0  0
   -8.4040    0.0170    1.4327 H   0  0  0  0  0  0  0  0  0  0  0  0
   -7.5455   -0.1163   -1.5327 H   0  0  0  0  0  0  0  0  0  0  0  0
   -7.8365   -1.5439   -0.4573 H   0  0  0  0  0  0  0  0  0  0  0  0
   -4.6373   -1.5429    1.8723 H   0  0  0  0  0  0  0  0  0  0  0  0
   -3.0093   -1.0011    2.0772 H   0  0  0  0  0  0  0  0  0  0  0  0
   -2.7606   -3.3865    2.1468 H   0  0  0  0  0  0  0  0  0  0  0  0
   -2.3495   -3.0380    0.4479 H   0  0  0  0  0  0  0  0  0  0  0  0
   -4.3281   -4.0852   -0.3685 H   0  0  0  0  0  0  0  0  0  0  0  0
   -6.3041   -5.2830   -0.2116 H   0  0  0  0  0  0  0  0  0  0  0  0
   -7.3173   -4.8916    1.2218 H   0  0  0  0  0  0  0  0  0  0  0  0
   -6.2330   -6.3377    1.2531 H   0  0  0  0  0  0  0  0  0  0  0  0
   -5.3061   -3.2268    3.2849 H   0  0  0  0  0  0  0  0  0  0  0  0
   -4.2582   -4.7045    3.4132 H   0  0  0  0  0  0  0  0  0  0  0  0
   -6.0452   -4.8495    3.4708 H   0  0  0  0  0  0  0  0  0  0  0  0
   -3.0338    0.0810   -2.6713 H   0  0  0  0  0  0  0  0  0  0  0  0
   -6.0364    3.4520   -1.5379 H   0  0  0  0  0  0  0  0  0  0  0  0
   -6.1029    3.7945   -3.3108 H   0  0  0  0  0  0  0  0  0  0  0  0
   -6.8095    2.2563   -2.6705 H   0  0  0  0  0  0  0  0  0  0  0  0
   -1.1191    1.3308   -2.7306 H   0  0  0  0  0  0  0  0  0  0  0  0
   -1.9938    2.7191   -2.0658 H   0  0  0  0  0  0  0  0  0  0  0  0
   -1.2332    2.5533    1.4888 H   0  0  0  0  0  0  0  0  0  0  0  0
   -1.9102    3.4534    0.1047 H   0  0  0  0  0  0  0  0  0  0  0  0
   -2.7573    2.0623    0.7614 H   0  0  0  0  0  0  0  0  0  0  0  0
   -0.8198   -0.6642   -0.8938 H   0  0  0  0  0  0  0  0  0  0  0  0
   -0.9114   -1.4489    1.4108 H   0  0  0  0  0  0  0  0  0  0  0  0
   -1.1149    0.2311    2.0187 H   0  0  0  0  0  0  0  0  0  0  0  0
    1.2130   -0.4303    2.1924 H   0  0  0  0  0  0  0  0  0  0  0  0
    0.8983   -2.9797    1.0076 H   0  0  0  0  0  0  0  0  0  0  0  0
    2.3744   -2.2208    1.7032 H   0  0  0  0  0  0  0  0  0  0  0  0
    3.1746   -2.3851   -0.9308 H   0  0  0  0  0  0  0  0  0  0  0  0
    2.0008   -3.7112   -0.9086 H   0  0  0  0  0  0  0  0  0  0  0  0
    5.2529   -3.8067    1.5573 H   0  0  0  0  0  0  0  0  0  0  0  0
    4.6935   -2.2680    0.8770 H   0  0  0  0  0  0  0  0  0  0  0  0
    6.0572   -4.6239   -0.5757 H   0  0  0  0  0  0  0  0  0  0  0  0
    5.2833   -3.2404   -1.4627 H   0  0  0  0  0  0  0  0  0  0  0  0
    8.3492   -3.9401   -1.2054 H   0  0  0  0  0  0  0  0  0  0  0  0
    7.3822   -2.9202   -2.3449 H   0  0  0  0  0  0  0  0  0  0  0  0
    9.3263   -1.6940   -0.2624 H   0  0  0  0  0  0  0  0  0  0  0  0
    9.8237   -2.2509   -1.8653 H   0  0  0  0  0  0  0  0  0  0  0  0
    7.9021   -0.0570   -0.0101 H   0  0  0  0  0  0  0  0  0  0  0  0
    8.2444    1.2067   -1.2191 H   0  0  0  0  0  0  0  0  0  0  0  0
    5.7725   -0.6403   -1.0939 H   0  0  0  0  0  0  0  0  0  0  0  0
    6.2925    0.0852   -2.6081 H   0  0  0  0  0  0  0  0  0  0  0  0
    6.7281    2.1833    0.3978 H   0  0  0  0  0  0  0  0  0  0  0  0
    5.8632   -0.1138    1.0819 H   0  0  0  0  0  0  0  0  0  0  0  0
    5.4433    1.1709    2.1787 H   0  0  0  0  0  0  0  0  0  0  0  0
    3.6474   -0.1138    0.0405 H   0  0  0  0  0  0  0  0  0  0  0  0
    3.5269   -0.2886    1.8221 H   0  0  0  0  0  0  0  0  0  0  0  0
    3.8668    2.4983    2.8629 H   0  0  0  0  0  0  0  0  0  0  0  0
    2.2218    3.1277    2.6314 H   0  0  0  0  0  0  0  0  0  0  0  0
    2.4761    1.4666    3.2452 H   0  0  0  0  0  0  0  0  0  0  0  0
    3.3483    2.2031   -0.9902 H   0  0  0  0  0  0  0  0  0  0  0  0
    2.1542    4.3798    0.7479 H   0  0  0  0  0  0  0  0  0  0  0  0
    2.6465    4.5407   -0.9481 H   0  0  0  0  0  0  0  0  0  0  0  0
    0.7587    3.6106   -1.7606 H   0  0  0  0  0  0  0  0  0  0  0  0
    0.1691    3.9145   -0.1479 H   0  0  0  0  0  0  0  0  0  0  0  0
    0.6512    0.1522   -2.1575 H   0  0  0  0  0  0  0  0  0  0  0  0
    2.2200    0.5326   -1.5517 H   0  0  0  0  0  0  0  0  0  0  0  0
    1.3991    1.6705   -2.6560 H   0  0  0  0  0  0  0  0  0  0  0  0
    0.6999    1.8205    1.5626 H   0  0  0  0  0  0  0  0  0  0  0  0
    4.8861    3.5565    1.2659 H   0  0  0  0  0  0  0  0  0  0  0  0
    4.7793    5.1890   -0.4753 H   0  0  0  0  0  0  0  0  0  0  0  0
    6.3545    4.3648   -0.6296 H   0  0  0  0  0  0  0  0  0  0  0  0
    5.0203    3.9518   -1.7746 H   0  0  0  0  0  0  0  0  0  0  0  0
  1  2  1  0
  2  3  1  0
  3  4  1  0
  4  5  1  0
  5  6  1  0
  6  7  2  0
  6  8  1  0
  8  9  1  0
  9 10  1  0
 10 11  1  0
 11 12  2  3
 12 13  1  0
 12 14  1  0
  8 15  2  0
 15 16  1  0
 16 17  1  0
 17 18  1  0
 18 19  1  0
 18 20  2  0
 16 21  1  0
 21 22  1  0
 22 23  1  1
 22 24  1  0
 24 25  1  0
 25 26  1  0
 26 27  1  0
 27 28  1  0
 28 29  1  0
 29 30  1  0
 30 31  1  0
 31 32  1  0
 32 33  1  0
 33 34  1  0
 34 35  1  0
 35 36  1  0
 36 37  1  0
 37 38  1  0
 38 39  1  0
 39 40  1  0
 40 41  1  0
 41 42  1  0
 42 43  1  0
 43 44  1  1
 43 45  1  0
 45 46  1  0
 46 47  1  0
 47 48  1  0
 48 49  1  6
 48 50  1  0
 45 51  1  0
 51 52  1  0
 24 15  1  0
 50 26  1  0
 48 22  1  0
 51 40  1  0
 50 43  1  0
  1 53  1  0
  1 54  1  0
  1 55  1  0
  2 56  1  0
  2 57  1  0
  3 58  1  0
  3 59  1  0
  4 60  1  0
  4 61  1  0
  9 62  1  0
  9 63  1  0
 10 64  1  0
 10 65  1  0
 11 66  1  0
 13 67  1  0
 13 68  1  0
 13 69  1  0
 14 70  1  0
 14 71  1  0
 14 72  1  0
 16 73  1  6
 19 74  1  0
 19 75  1  0
 19 76  1  0
 21 77  1  0
 21 78  1  0
 23 79  1  0
 23 80  1  0
 23 81  1  0
 24 82  1  6
 25 83  1  0
 25 84  1  0
 26 85  1  1
 28 86  1  0
 28 87  1  0
 29 88  1  0
 29 89  1  0
 31 90  1  0
 31 91  1  0
 32 92  1  0
 32 93  1  0
 34 94  1  0
 34 95  1  0
 35 96  1  0
 35 97  1  0
 37 98  1  0
 37 99  1  0
 38100  1  0
 38101  1  0
 40102  1  1
 41103  1  0
 41104  1  0
 42105  1  0
 42106  1  0
 44107  1  0
 44108  1  0
 44109  1  0
 45110  1  6
 46111  1  0
 46112  1  0
 47113  1  0
 47114  1  0
 49115  1  0
 49116  1  0
 49117  1  0
 50118  1  1
 51119  1  1
 52120  1  0
 52121  1  0
 52122  1  0
M  END
$$$$
