
     RDKit          3D

 79 83  0  0  0  0  0  0  0  0999 V2000
    0.7323   -1.0656   -1.1484 O   0  0  0  0  0  0  0  0  0  0  0  0
    0.9930    0.0954   -0.7508 C   0  0  0  0  0  0  0  0  0  0  0  0
    2.3558    0.5250   -0.8108 N   0  0  0  0  0  0  0  0  0  0  0  0
    3.0956    1.1264    0.3123 C   0  0  2  0  0  0  0  0  0  0  0  0
    4.4633    1.5918   -0.1412 C   0  0  0  0  0  0  0  0  0  0  0  0
    5.0348    2.7273    0.3121 N   0  0  0  0  0  0  0  0  0  0  0  0
    6.2574    2.7736   -0.1950 N   0  0  0  0  0  0  0  0  0  0  0  0
    6.4188    1.6447   -0.9285 C   0  0  0  0  0  0  0  0  0  0  0  0
    7.6424    1.3368   -1.7175 C   0  0  0  0  0  0  0  0  0  0  0  0
    8.7586    1.7638   -1.0297 F   0  0  0  0  0  0  0  0  0  0  0  0
    7.7385   -0.0295   -1.9417 F   0  0  0  0  0  0  0  0  0  0  0  0
    7.5867    1.9883   -2.9331 F   0  0  0  0  0  0  0  0  0  0  0  0
    5.3056    0.8808   -0.9170 N   0  0  0  0  0  0  0  0  0  0  0  0
    3.2638    0.1750    1.5355 C   0  0  0  0  0  0  0  0  0  0  0  0
    3.4576   -1.3304    1.1978 C   0  0  0  0  0  0  0  0  0  0  0  0
    2.2516   -2.1397    1.7147 C   0  0  0  0  0  0  0  0  0  0  0  0
    2.3104   -3.6308    1.3527 C   0  0  0  0  0  0  0  0  0  0  0  0
    1.9601   -3.9061   -0.0034 O   0  0  0  0  0  0  0  0  0  0  0  0
    0.6602   -3.9419   -0.5304 C   0  0  0  0  0  0  0  0  0  0  0  0
    0.4587   -4.5977   -1.7526 C   0  0  0  0  0  0  0  0  0  0  0  0
   -0.8128   -4.6445   -2.3460 C   0  0  0  0  0  0  0  0  0  0  0  0
   -1.8913   -3.9800   -1.7408 C   0  0  0  0  0  0  0  0  0  0  0  0
   -1.6955   -3.2993   -0.5213 C   0  0  0  0  0  0  0  0  0  0  0  0
   -0.4426   -3.3405    0.1121 C   0  0  0  0  0  0  0  0  0  0  0  0
   -2.8349   -2.5372    0.1117 C   0  0  0  0  0  0  0  0  0  0  0  0
   -2.9355   -1.0221   -0.2546 C   0  0  2  0  0  0  0  0  0  0  0  0
   -4.3265   -0.6846   -0.6015 N   0  0  0  0  0  0  0  0  0  0  0  0
   -5.2768   -0.1619    0.3695 C   0  0  0  0  0  0  0  0  0  0  0  0
   -6.6793   -0.4917   -0.1864 C   0  0  0  0  0  0  0  0  0  0  0  0
   -6.4910   -0.9553   -1.6417 C   0  0  0  0  0  0  0  0  0  0  0  0
   -5.0372   -1.1743   -1.7298 C   0  0  0  0  0  0  0  0  0  0  0  0
   -4.4775   -1.7617   -2.6957 O   0  0  0  0  0  0  0  0  0  0  0  0
   -1.9835   -0.4911   -1.3080 C   0  0  0  0  0  0  0  0  0  0  0  0
   -1.8691   -1.0778   -2.4110 O   0  0  0  0  0  0  0  0  0  0  0  0
   -1.3386    0.7795   -1.1473 N   0  0  0  0  0  0  0  0  0  0  0  0
   -0.1222    1.0251   -0.3515 C   0  0  1  0  0  0  0  0  0  0  0  0
   -0.4280    0.9774    1.1651 C   0  0  0  0  0  0  0  0  0  0  0  0
   -1.4964    1.9864    1.6341 C   0  0  0  0  0  0  0  0  0  0  0  0
   -1.1136    3.4234    1.3566 C   0  0  0  0  0  0  0  0  0  0  0  0
   -0.1003    4.0528    2.0872 C   0  0  0  0  0  0  0  0  0  0  0  0
    0.2612    5.3786    1.8052 C   0  0  0  0  0  0  0  0  0  0  0  0
   -0.4014    6.0896    0.8050 C   0  0  0  0  0  0  0  0  0  0  0  0
   -1.4111    5.4691    0.0682 C   0  0  0  0  0  0  0  0  0  0  0  0
   -1.7673    4.1474    0.3427 C   0  0  0  0  0  0  0  0  0  0  0  0
    2.8771    0.2469   -1.6751 H   0  0  0  0  0  0  0  0  0  0  0  0
    2.5308    2.0292    0.6524 H   0  0  0  0  0  0  0  0  0  0  0  0
    5.1540   -0.0403   -1.3929 H   0  0  0  0  0  0  0  0  0  0  0  0
    4.1129    0.5203    2.1721 H   0  0  0  0  0  0  0  0  0  0  0  0
    2.3881    0.2950    2.2087 H   0  0  0  0  0  0  0  0  0  0  0  0
    3.5942   -1.4826    0.1109 H   0  0  0  0  0  0  0  0  0  0  0  0
    4.3741   -1.6956    1.7093 H   0  0  0  0  0  0  0  0  0  0  0  0
    1.3303   -1.6847    1.3205 H   0  0  0  0  0  0  0  0  0  0  0  0
    2.2070   -2.0505    2.8291 H   0  0  0  0  0  0  0  0  0  0  0  0
    3.3442   -4.0142    1.5467 H   0  0  0  0  0  0  0  0  0  0  0  0
    1.6323   -4.2038    2.0270 H   0  0  0  0  0  0  0  0  0  0  0  0
    1.2902   -5.0971   -2.2457 H   0  0  0  0  0  0  0  0  0  0  0  0
   -0.9688   -5.1955   -3.2726 H   0  0  0  0  0  0  0  0  0  0  0  0
   -2.8702   -3.9962   -2.2260 H   0  0  0  0  0  0  0  0  0  0  0  0
   -0.3843   -2.9664    1.1167 H   0  0  0  0  0  0  0  0  0  0  0  0
   -2.7330   -2.6241    1.2222 H   0  0  0  0  0  0  0  0  0  0  0  0
   -3.8013   -3.0626   -0.1082 H   0  0  0  0  0  0  0  0  0  0  0  0
   -2.7076   -0.4811    0.6778 H   0  0  0  0  0  0  0  0  0  0  0  0
   -5.1246   -0.6541    1.3581 H   0  0  0  0  0  0  0  0  0  0  0  0
   -5.1504    0.9298    0.4544 H   0  0  0  0  0  0  0  0  0  0  0  0
   -7.1146   -1.3274    0.4105 H   0  0  0  0  0  0  0  0  0  0  0  0
   -7.3568    0.3845   -0.1163 H   0  0  0  0  0  0  0  0  0  0  0  0
   -6.7887   -0.1559   -2.3508 H   0  0  0  0  0  0  0  0  0  0  0  0
   -7.0399   -1.8908   -1.8469 H   0  0  0  0  0  0  0  0  0  0  0  0
   -1.5920    1.5149   -1.8495 H   0  0  0  0  0  0  0  0  0  0  0  0
    0.2349    2.0525   -0.5960 H   0  0  0  0  0  0  0  0  0  0  0  0
   -0.7147   -0.0585    1.4665 H   0  0  0  0  0  0  0  0  0  0  0  0
    0.4917    1.2213    1.7344 H   0  0  0  0  0  0  0  0  0  0  0  0
   -1.6523    1.8512    2.7193 H   0  0  0  0  0  0  0  0  0  0  0  0
   -2.4761    1.7574    1.1610 H   0  0  0  0  0  0  0  0  0  0  0  0
    0.4122    3.5267    2.8763 H   0  0  0  0  0  0  0  0  0  0  0  0
    1.0465    5.8456    2.3786 H   0  0  0  0  0  0  0  0  0  0  0  0
   -0.1368    7.1141    0.5931 H   0  0  0  0  0  0  0  0  0  0  0  0
   -1.9235    6.0140   -0.7075 H   0  0  0  0  0  0  0  0  0  0  0  0
   -2.5586    3.6829   -0.2304 H   0  0  0  0  0  0  0  0  0  0  0  0
  1  2  2  0
  2  3  1  0
  3  4  1  0
  4  5  1  0
  5  6  2  0
  6  7  1  0
  7  8  2  0
  8  9  1  0
  9 10  1  0
  9 11  1  0
  9 12  1  0
  8 13  1  0
  4 14  1  0
 14 15  1  0
 15 16  1  0
 16 17  1  0
 17 18  1  0
 18 19  1  0
 19 20  1  0
 20 21  2  0
 21 22  1  0
 22 23  2  0
 23 24  1  0
 23 25  1  0
 25 26  1  0
 26 27  1  0
 27 28  1  0
 28 29  1  0
 29 30  1  0
 30 31  1  0
 31 32  2  0
 26 33  1  0
 33 34  2  0
 33 35  1  0
 35 36  1  0
 36 37  1  0
 37 38  1  0
 38 39  1  0
 39 40  2  0
 40 41  1  0
 41 42  2  0
 42 43  1  0
 43 44  2  0
 36  2  1  0
 44 39  1  0
 13  5  1  0
 24 19  2  0
 31 27  1  0
  3 45  1  0
  4 46  1  1
 13 47  1  0
 14 48  1  0
 14 49  1  0
 15 50  1  0
 15 51  1  0
 16 52  1  0
 16 53  1  0
 17 54  1  0
 17 55  1  0
 20 56  1  0
 21 57  1  0
 22 58  1  0
 24 59  1  0
 25 60  1  0
 25 61  1  0
 26 62  1  1
 28 63  1  0
 28 64  1  0
 29 65  1  0
 29 66  1  0
 30 67  1  0
 30 68  1  0
 35 69  1  0
 36 70  1  6
 37 71  1  0
 37 72  1  0
 38 73  1  0
 38 74  1  0
 40 75  1  0
 41 76  1  0
 42 77  1  0
 43 78  1  0
 44 79  1  0
M  END
$$$$
