
     RDKit          3D

 80 85  0  0  0  0  0  0  0  0999 V2000
    7.3489   -2.0432    0.7980 C   0  0  0  0  0  0  0  0  0  0  0  0
    5.9967   -1.4092    0.7841 C   0  0  0  0  0  0  0  0  0  0  0  0
    5.4051   -1.1798    1.8737 O   0  0  0  0  0  0  0  0  0  0  0  0
    5.3757   -1.0804   -0.4657 N   0  0  0  0  0  0  0  0  0  0  0  0
    4.0918   -0.3808   -0.5513 C   0  0  1  0  0  0  0  0  0  0  0  0
    4.3450    1.1413   -0.6683 C   0  0  0  0  0  0  0  0  0  0  0  0
    3.1477    1.9614   -0.2441 C   0  0  0  0  0  0  0  0  0  0  0  0
    3.0577    2.4521    1.0691 C   0  0  0  0  0  0  0  0  0  0  0  0
    1.9744    3.2485    1.4564 C   0  0  0  0  0  0  0  0  0  0  0  0
    0.9482    3.5337    0.5516 C   0  0  0  0  0  0  0  0  0  0  0  0
    1.0262    3.0320   -0.7582 C   0  0  0  0  0  0  0  0  0  0  0  0
    2.1186    2.2534   -1.1531 C   0  0  0  0  0  0  0  0  0  0  0  0
   -0.1311    4.3273    0.9641 O   0  0  0  0  0  0  0  0  0  0  0  0
   -1.4493    4.1079    0.5431 C   0  0  0  0  0  0  0  0  0  0  0  0
   -2.0706    2.9437    0.6227 C   0  0  0  0  0  0  0  0  0  0  0  0
   -1.4526    1.7666    1.1495 N   0  0  0  0  0  0  0  0  0  0  0  0
   -1.1770    1.5042    2.4413 C   0  0  0  0  0  0  0  0  0  0  0  0
   -0.4915    0.3510    2.5965 N   0  0  0  0  0  0  0  0  0  0  0  0
   -0.3416   -0.1098    1.3358 C   0  0  0  0  0  0  0  0  0  0  0  0
   -0.9214    0.7601    0.4417 C   0  0  0  0  0  0  0  0  0  0  0  0
    0.4712   -1.3121    0.9739 C   0  0  0  0  0  0  0  0  0  0  0  0
   -0.3936   -2.4894    0.4769 C   0  0  2  0  0  0  0  0  0  0  0  0
    0.3787   -3.7413    0.4343 N   0  0  0  0  0  0  0  0  0  0  0  0
    1.4856   -4.0191   -0.4431 C   0  0  0  0  0  0  0  0  0  0  0  0
    1.4703   -5.0784   -1.1230 O   0  0  0  0  0  0  0  0  0  0  0  0
    2.7017   -3.1369   -0.5105 C   0  0  0  0  0  0  0  0  0  0  0  0
    2.5927   -2.1954   -1.6264 N   0  0  0  0  0  0  0  0  0  0  0  0
    3.3061   -0.9492   -1.7177 C   0  0  0  0  0  0  0  0  0  0  0  0
    3.3392   -0.3626   -2.8334 O   0  0  0  0  0  0  0  0  0  0  0  0
   -1.0313   -2.2168   -0.8743 C   0  0  0  0  0  0  0  0  0  0  0  0
   -0.3025   -1.7650   -1.7977 O   0  0  0  0  0  0  0  0  0  0  0  0
   -2.4168   -2.4851   -1.1832 N   0  0  0  0  0  0  0  0  0  0  0  0
   -3.4938   -2.9096   -0.2789 C   0  0  1  0  0  0  0  0  0  0  0  0
   -3.3162   -4.3821    0.1136 C   0  0  0  0  0  0  0  0  0  0  0  0
   -3.6396   -1.9820    0.9084 C   0  0  0  0  0  0  0  0  0  0  0  0
   -3.6011   -2.4542    2.0768 O   0  0  0  0  0  0  0  0  0  0  0  0
   -3.7860   -0.5630    0.7524 N   0  0  0  0  0  0  0  0  0  0  0  0
   -4.5917    0.0846   -0.2937 C   0  0  1  0  0  0  0  0  0  0  0  0
   -5.5489    1.1137    0.3089 C   0  0  0  0  0  0  0  0  0  0  0  0
   -4.6621    2.3826    1.2756 S   0  0  0  0  0  0  0  0  0  0  0  0
   -3.4333    2.9604    0.0140 C   0  0  2  0  0  0  0  0  0  0  0  0
   -3.3956    2.1552   -1.2192 N   0  0  0  0  0  0  0  0  0  0  0  0
   -3.7232    0.7615   -1.3096 C   0  0  0  0  0  0  0  0  0  0  0  0
   -3.3228    0.1052   -2.3075 O   0  0  0  0  0  0  0  0  0  0  0  0
   -3.6492    4.4737   -0.3150 C   0  0  0  0  0  0  0  0  0  0  0  0
   -4.0464    4.6595   -1.6320 F   0  0  0  0  0  0  0  0  0  0  0  0
   -4.6186    5.0416    0.4990 F   0  0  0  0  0  0  0  0  0  0  0  0
   -2.2937    5.1666   -0.0549 C   0  0  0  0  0  0  0  0  0  0  0  0
   -2.4198    6.2260    0.8276 F   0  0  0  0  0  0  0  0  0  0  0  0
   -1.7180    5.6073   -1.2345 F   0  0  0  0  0  0  0  0  0  0  0  0
    8.0522   -1.4328    0.1945 H   0  0  0  0  0  0  0  0  0  0  0  0
    7.2846   -3.0624    0.3623 H   0  0  0  0  0  0  0  0  0  0  0  0
    7.7372   -2.1146    1.8364 H   0  0  0  0  0  0  0  0  0  0  0  0
    5.9282   -1.2206   -1.3433 H   0  0  0  0  0  0  0  0  0  0  0  0
    3.5154   -0.5446    0.3813 H   0  0  0  0  0  0  0  0  0  0  0  0
    5.2066    1.4125   -0.0177 H   0  0  0  0  0  0  0  0  0  0  0  0
    4.6567    1.4200   -1.6980 H   0  0  0  0  0  0  0  0  0  0  0  0
    3.8339    2.2298    1.7900 H   0  0  0  0  0  0  0  0  0  0  0  0
    1.9226    3.6279    2.4686 H   0  0  0  0  0  0  0  0  0  0  0  0
    0.2457    3.2529   -1.4743 H   0  0  0  0  0  0  0  0  0  0  0  0
    2.1657    1.8919   -2.1712 H   0  0  0  0  0  0  0  0  0  0  0  0
   -1.4562    2.1516    3.2629 H   0  0  0  0  0  0  0  0  0  0  0  0
   -0.9043    0.6976   -0.6382 H   0  0  0  0  0  0  0  0  0  0  0  0
    1.0516   -1.6338    1.8653 H   0  0  0  0  0  0  0  0  0  0  0  0
    1.1866   -0.9927    0.1963 H   0  0  0  0  0  0  0  0  0  0  0  0
   -1.1802   -2.6251    1.2386 H   0  0  0  0  0  0  0  0  0  0  0  0
   -0.0538   -4.5709    0.8995 H   0  0  0  0  0  0  0  0  0  0  0  0
    3.6037   -3.7665   -0.6634 H   0  0  0  0  0  0  0  0  0  0  0  0
    2.8315   -2.6247    0.4603 H   0  0  0  0  0  0  0  0  0  0  0  0
    2.1374   -2.5391   -2.5019 H   0  0  0  0  0  0  0  0  0  0  0  0
   -2.6888   -2.3784   -2.1875 H   0  0  0  0  0  0  0  0  0  0  0  0
   -4.4515   -2.8661   -0.8413 H   0  0  0  0  0  0  0  0  0  0  0  0
   -4.2179   -4.7432    0.6574 H   0  0  0  0  0  0  0  0  0  0  0  0
   -2.4342   -4.5269    0.7662 H   0  0  0  0  0  0  0  0  0  0  0  0
   -3.1902   -5.0010   -0.8000 H   0  0  0  0  0  0  0  0  0  0  0  0
   -3.4605    0.0075    1.5616 H   0  0  0  0  0  0  0  0  0  0  0  0
   -5.2159   -0.6751   -0.8120 H   0  0  0  0  0  0  0  0  0  0  0  0
   -6.2607    0.5981    0.9866 H   0  0  0  0  0  0  0  0  0  0  0  0
   -6.1392    1.6098   -0.4919 H   0  0  0  0  0  0  0  0  0  0  0  0
   -2.8484    2.5431   -2.0221 H   0  0  0  0  0  0  0  0  0  0  0  0
  1  2  1  0
  2  3  2  0
  2  4  1  0
  4  5  1  0
  5  6  1  0
  6  7  1  0
  7  8  2  0
  8  9  1  0
  9 10  2  0
 10 11  1  0
 11 12  2  0
 10 13  1  0
 13 14  1  0
 14 15  2  0
 15 16  1  0
 16 17  1  0
 17 18  2  0
 18 19  1  0
 19 20  2  0
 19 21  1  0
 21 22  1  0
 22 23  1  0
 23 24  1  0
 24 25  2  0
 24 26  1  0
 26 27  1  0
 27 28  1  0
 28 29  2  0
 22 30  1  0
 30 31  2  0
 30 32  1  0
 32 33  1  0
 33 34  1  0
 33 35  1  0
 35 36  2  0
 35 37  1  0
 37 38  1  0
 38 39  1  0
 39 40  1  0
 40 41  1  0
 41 42  1  0
 42 43  1  0
 43 44  2  0
 41 45  1  6
 45 46  1  0
 45 47  1  0
 45 48  1  0
 48 49  1  0
 48 50  1  0
 28  5  1  0
 43 38  1  0
 12  7  1  0
 48 14  1  0
 41 15  1  0
 20 16  1  0
  1 51  1  0
  1 52  1  0
  1 53  1  0
  4 54  1  0
  5 55  1  1
  6 56  1  0
  6 57  1  0
  8 58  1  0
  9 59  1  0
 11 60  1  0
 12 61  1  0
 17 62  1  0
 20 63  1  0
 21 64  1  0
 21 65  1  0
 22 66  1  1
 23 67  1  0
 26 68  1  0
 26 69  1  0
 27 70  1  0
 32 71  1  0
 33 72  1  6
 34 73  1  0
 34 74  1  0
 34 75  1  0
 37 76  1  0
 38 77  1  6
 39 78  1  0
 39 79  1  0
 42 80  1  0
M  END
$$$$
