
     RDKit          3D

 68 71  0  0  0  0  0  0  0  0999 V2000
    5.7301   -1.7880   -2.5046 C   0  0  0  0  0  0  0  0  0  0  0  0
    4.8974   -2.0114   -1.2387 C   0  0  0  0  0  0  0  0  0  0  0  0
    3.6181   -1.1494   -1.1453 C   0  0  2  0  0  0  0  0  0  0  0  0
    2.6222   -1.4510   -2.2735 C   0  0  0  0  0  0  0  0  0  0  0  0
    3.9813    0.6131   -1.0616 S   0  0  0  0  0  6  0  0  0  0  0  0
    4.3000    1.1398   -2.4320 O   0  0  0  0  0  0  0  0  0  0  0  0
    5.1685    0.8474   -0.1682 O   0  0  0  0  0  0  0  0  0  0  0  0
    2.6014    1.4832   -0.4527 N   0  0  0  0  0  0  0  0  0  0  0  0
    2.5041    1.4241    1.0236 C   0  0  1  0  0  0  0  0  0  0  0  0
    3.0385    2.7630    1.5858 C   0  0  0  0  0  0  0  0  0  0  0  0
    1.9656    3.8721    1.6691 C   0  0  0  0  0  0  0  0  0  0  0  0
    0.7679    3.6074    0.7463 C   0  0  0  0  0  0  0  0  0  0  0  0
    0.1717    2.2984    1.0560 N   0  0  0  0  0  0  0  0  0  0  0  0
   -1.2480    2.2568    1.2623 C   0  0  0  0  0  0  0  0  0  0  0  0
   -1.7074    2.2307    2.4362 O   0  0  0  0  0  0  0  0  0  0  0  0
   -2.1879    2.2087    0.0989 C   0  0  0  0  0  0  0  0  0  0  0  0
   -2.8394    0.9501    0.1490 O   0  0  0  0  0  0  0  0  0  0  0  0
   -3.9203    0.5135   -0.6298 C   0  0  0  0  0  0  0  0  0  0  0  0
   -4.6167    1.3783   -1.4931 C   0  0  0  0  0  0  0  0  0  0  0  0
   -5.6977    0.9018   -2.2368 C   0  0  0  0  0  0  0  0  0  0  0  0
   -6.0991   -0.4327   -2.1205 C   0  0  0  0  0  0  0  0  0  0  0  0
   -5.4040   -1.3053   -1.2799 C   0  0  0  0  0  0  0  0  0  0  0  0
   -4.3105   -0.8474   -0.5259 C   0  0  0  0  0  0  0  0  0  0  0  0
   -3.4608   -1.8465    0.2573 C   0  0  0  0  0  0  0  0  0  0  0  0
   -3.4242   -1.4934    1.7776 C   0  0  0  0  0  0  0  0  0  0  0  0
   -2.2655   -2.1558    2.5370 C   0  0  0  0  0  0  0  0  0  0  0  0
   -0.9254   -1.9209    1.8269 C   0  0  0  0  0  0  0  0  0  0  0  0
   -1.0067   -2.6184    0.4516 C   0  0  0  0  0  0  0  0  0  0  0  0
   -2.0716   -1.9692   -0.4315 C   0  0  0  0  0  0  0  0  0  0  0  0
   -0.6936   -0.5166    1.7431 O   0  0  0  0  0  0  0  0  0  0  0  0
    0.5318   -0.2127    1.0983 C   0  0  0  0  0  0  0  0  0  0  0  0
    1.0424    1.1899    1.5154 C   0  0  1  0  0  0  0  0  0  0  0  0
    6.6310   -2.4361   -2.4640 H   0  0  0  0  0  0  0  0  0  0  0  0
    5.1584   -2.0600   -3.4153 H   0  0  0  0  0  0  0  0  0  0  0  0
    6.0741   -0.7381   -2.5796 H   0  0  0  0  0  0  0  0  0  0  0  0
    5.5376   -1.8087   -0.3521 H   0  0  0  0  0  0  0  0  0  0  0  0
    4.6123   -3.0833   -1.1879 H   0  0  0  0  0  0  0  0  0  0  0  0
    3.1226   -1.4207   -0.1906 H   0  0  0  0  0  0  0  0  0  0  0  0
    1.6596   -0.9342   -2.0864 H   0  0  0  0  0  0  0  0  0  0  0  0
    3.0106   -1.1131   -3.2576 H   0  0  0  0  0  0  0  0  0  0  0  0
    2.4147   -2.5407   -2.3236 H   0  0  0  0  0  0  0  0  0  0  0  0
    1.7491    1.1391   -0.9386 H   0  0  0  0  0  0  0  0  0  0  0  0
    3.1361    0.6021    1.4353 H   0  0  0  0  0  0  0  0  0  0  0  0
    3.8754    3.1246    0.9447 H   0  0  0  0  0  0  0  0  0  0  0  0
    3.4736    2.5959    2.5987 H   0  0  0  0  0  0  0  0  0  0  0  0
    2.4163    4.8567    1.4159 H   0  0  0  0  0  0  0  0  0  0  0  0
    1.5911    3.9301    2.7172 H   0  0  0  0  0  0  0  0  0  0  0  0
    0.0238    4.4237    0.9000 H   0  0  0  0  0  0  0  0  0  0  0  0
    1.0809    3.6396   -0.3203 H   0  0  0  0  0  0  0  0  0  0  0  0
   -1.6193    2.2953   -0.8543 H   0  0  0  0  0  0  0  0  0  0  0  0
   -2.9247    3.0358    0.1941 H   0  0  0  0  0  0  0  0  0  0  0  0
   -4.3212    2.4154   -1.5988 H   0  0  0  0  0  0  0  0  0  0  0  0
   -6.2273    1.5664   -2.9050 H   0  0  0  0  0  0  0  0  0  0  0  0
   -6.9442   -0.7970   -2.6946 H   0  0  0  0  0  0  0  0  0  0  0  0
   -5.7127   -2.3439   -1.2263 H   0  0  0  0  0  0  0  0  0  0  0  0
   -3.9244   -2.8583    0.1955 H   0  0  0  0  0  0  0  0  0  0  0  0
   -3.3662   -0.4031    1.9645 H   0  0  0  0  0  0  0  0  0  0  0  0
   -4.3812   -1.8218    2.2410 H   0  0  0  0  0  0  0  0  0  0  0  0
   -2.2157   -1.7361    3.5677 H   0  0  0  0  0  0  0  0  0  0  0  0
   -2.4624   -3.2477    2.6346 H   0  0  0  0  0  0  0  0  0  0  0  0
   -0.1293   -2.4017    2.4396 H   0  0  0  0  0  0  0  0  0  0  0  0
   -1.2550   -3.6948    0.5917 H   0  0  0  0  0  0  0  0  0  0  0  0
   -0.0222   -2.5891   -0.0632 H   0  0  0  0  0  0  0  0  0  0  0  0
   -2.1845   -2.5829   -1.3541 H   0  0  0  0  0  0  0  0  0  0  0  0
   -1.6883   -0.9831   -0.7671 H   0  0  0  0  0  0  0  0  0  0  0  0
    0.3728   -0.2390    0.0013 H   0  0  0  0  0  0  0  0  0  0  0  0
    1.3213   -0.9547    1.3661 H   0  0  0  0  0  0  0  0  0  0  0  0
    1.0550    1.2034    2.6293 H   0  0  0  0  0  0  0  0  0  0  0  0
  1  2  1  0
  2  3  1  0
  3  4  1  0
  3  5  1  0
  5  6  2  0
  5  7  2  0
  5  8  1  0
  8  9  1  0
  9 10  1  0
 10 11  1  0
 11 12  1  0
 12 13  1  0
 13 14  1  0
 14 15  2  0
 14 16  1  0
 16 17  1  0
 17 18  1  0
 18 19  2  0
 19 20  1  0
 20 21  2  0
 21 22  1  0
 22 23  2  0
 23 24  1  0
 24 25  1  0
 25 26  1  0
 26 27  1  0
 27 28  1  0
 28 29  1  0
 27 30  1  0
 30 31  1  0
 31 32  1  0
 32  9  1  0
 32 13  1  0
 23 18  1  0
 29 24  1  0
  1 33  1  0
  1 34  1  0
  1 35  1  0
  2 36  1  0
  2 37  1  0
  3 38  1  1
  4 39  1  0
  4 40  1  0
  4 41  1  0
  8 42  1  0
  9 43  1  1
 10 44  1  0
 10 45  1  0
 11 46  1  0
 11 47  1  0
 12 48  1  0
 12 49  1  0
 16 50  1  0
 16 51  1  0
 19 52  1  0
 20 53  1  0
 21 54  1  0
 22 55  1  0
 24 56  1  0
 25 57  1  0
 25 58  1  0
 26 59  1  0
 26 60  1  0
 27 61  1  0
 28 62  1  0
 28 63  1  0
 29 64  1  0
 29 65  1  0
 31 66  1  0
 31 67  1  0
 32 68  1  1
M  END
$$$$
