
     RDKit          3D

 98101  0  0  0  0  0  0  0  0999 V2000
   -6.3192   -1.9044    0.6602 C   0  0  0  0  0  0  0  0  0  0  0  0
   -4.9044   -1.9365    1.2518 C   0  0  0  0  0  0  0  0  0  0  0  0
   -4.4424   -3.3776    1.4885 C   0  0  0  0  0  0  0  0  0  0  0  0
   -3.8753   -1.0988    0.4451 C   0  0  0  0  0  0  0  0  0  0  0  0
   -3.9091   -1.2349   -1.1015 C   0  0  1  0  0  0  0  0  0  0  0  0
   -2.9774   -0.2831   -1.7195 N   0  0  0  0  0  0  0  0  0  0  0  0
   -3.3349    1.0920   -1.8938 C   0  0  0  0  0  0  0  0  0  0  0  0
   -4.1417    1.4055   -2.8133 O   0  0  0  0  0  0  0  0  0  0  0  0
   -2.6883    2.1696   -1.0523 C   0  0  2  0  0  0  0  0  0  0  0  0
   -3.7045    3.2544   -0.6304 C   0  0  0  0  0  0  0  0  0  0  0  0
   -4.8087    2.7073    0.2365 C   0  0  0  0  0  0  0  0  0  0  0  0
   -4.5993    2.5089    1.6123 C   0  0  0  0  0  0  0  0  0  0  0  0
   -5.6278    2.0002    2.4144 C   0  0  0  0  0  0  0  0  0  0  0  0
   -6.8695    1.6941    1.8495 C   0  0  0  0  0  0  0  0  0  0  0  0
   -7.0843    1.8888    0.4804 C   0  0  0  0  0  0  0  0  0  0  0  0
   -6.0545    2.3835   -0.3247 C   0  0  0  0  0  0  0  0  0  0  0  0
   -1.6041    2.8036   -1.8126 N   0  0  0  0  0  0  0  0  0  0  0  0
   -0.5760    3.5981   -1.1935 C   0  0  0  0  0  0  0  0  0  0  0  0
   -0.0669    4.5524   -1.8454 O   0  0  0  0  0  0  0  0  0  0  0  0
   -0.0885    3.2969    0.2002 C   0  0  0  0  0  0  0  0  0  0  0  0
    0.9024    4.2730    0.6596 N   0  0  0  0  0  0  0  0  0  0  0  0
    2.3212    4.1111    0.5001 C   0  0  0  0  0  0  0  0  0  0  0  0
    3.0881    4.6163    1.3656 O   0  0  0  0  0  0  0  0  0  0  0  0
    2.9219    3.3797   -0.6784 C   0  0  1  0  0  0  0  0  0  0  0  0
    4.0283    4.2307   -1.3115 C   0  0  0  0  0  0  0  0  0  0  0  0
    3.4470    2.0720   -0.2653 N   0  0  0  0  0  0  0  0  0  0  0  0
    3.6208    1.0088   -1.2153 C   0  0  0  0  0  0  0  0  0  0  0  0
    3.7673    1.2696   -2.4384 O   0  0  0  0  0  0  0  0  0  0  0  0
    3.4556   -0.4237   -0.7778 C   0  0  2  0  0  0  0  0  0  0  0  0
    4.6210   -1.3082   -1.2552 C   0  0  0  0  0  0  0  0  0  0  0  0
    5.9105   -0.9436   -0.5620 C   0  0  0  0  0  0  0  0  0  0  0  0
    6.2070   -1.4733    0.7049 C   0  0  0  0  0  0  0  0  0  0  0  0
    7.3963   -1.1239    1.3509 C   0  0  0  0  0  0  0  0  0  0  0  0
    8.2968   -0.2439    0.7467 C   0  0  0  0  0  0  0  0  0  0  0  0
    9.4796    0.0872    1.4038 O   0  0  0  0  0  0  0  0  0  0  0  0
    7.9967    0.3020   -0.5117 C   0  0  0  0  0  0  0  0  0  0  0  0
    6.8076   -0.0385   -1.1582 C   0  0  0  0  0  0  0  0  0  0  0  0
    2.1968   -0.9262   -1.3245 N   0  0  0  0  0  0  0  0  0  0  0  0
    0.9645   -0.4096   -0.8149 C   0  0  0  0  0  0  0  0  0  0  0  0
    0.2310    0.2764   -1.5703 O   0  0  0  0  0  0  0  0  0  0  0  0
    0.5433   -0.6269    0.5827 C   0  0  0  0  0  0  0  0  0  0  0  0
    0.7125   -1.7711    1.2576 C   0  0  0  0  0  0  0  0  0  0  0  0
    1.4457   -2.9460    0.7483 C   0  0  0  0  0  0  0  0  0  0  0  0
    2.6106   -3.3071    1.4457 C   0  0  0  0  0  0  0  0  0  0  0  0
    3.4133   -4.3527    0.9954 C   0  0  0  0  0  0  0  0  0  0  0  0
    3.0634   -5.0581   -0.1538 C   0  0  0  0  0  0  0  0  0  0  0  0
    1.8915   -4.7364   -0.8382 C   0  0  0  0  0  0  0  0  0  0  0  0
    1.0461   -3.7153   -0.3867 C   0  0  0  0  0  0  0  0  0  0  0  0
   -0.1516   -3.5434   -1.1079 O   0  0  0  0  0  0  0  0  0  0  0  0
   -1.3540   -2.9523   -0.6268 C   0  0  0  0  0  0  0  0  0  0  0  0
   -2.4199   -3.3136   -1.4911 O   0  0  0  0  0  0  0  0  0  0  0  0
   -3.6498   -2.6437   -1.6083 C   0  0  0  0  0  0  0  0  0  0  0  0
   -4.5814   -3.2367   -2.2151 O   0  0  0  0  0  0  0  0  0  0  0  0
   -7.0504   -2.2858    1.4062 H   0  0  0  0  0  0  0  0  0  0  0  0
   -6.3805   -2.5332   -0.2490 H   0  0  0  0  0  0  0  0  0  0  0  0
   -6.6080   -0.8696    0.4028 H   0  0  0  0  0  0  0  0  0  0  0  0
   -4.9637   -1.4604    2.2552 H   0  0  0  0  0  0  0  0  0  0  0  0
   -4.3961   -3.9598    0.5476 H   0  0  0  0  0  0  0  0  0  0  0  0
   -5.1571   -3.8930    2.1669 H   0  0  0  0  0  0  0  0  0  0  0  0
   -3.4447   -3.3803    1.9736 H   0  0  0  0  0  0  0  0  0  0  0  0
   -4.0830   -0.0374    0.6815 H   0  0  0  0  0  0  0  0  0  0  0  0
   -2.8575   -1.2829    0.8448 H   0  0  0  0  0  0  0  0  0  0  0  0
   -4.9313   -0.9476   -1.4404 H   0  0  0  0  0  0  0  0  0  0  0  0
   -2.1747   -0.6274   -2.2905 H   0  0  0  0  0  0  0  0  0  0  0  0
   -2.2674    1.6915   -0.1401 H   0  0  0  0  0  0  0  0  0  0  0  0
   -4.1306    3.7408   -1.5389 H   0  0  0  0  0  0  0  0  0  0  0  0
   -3.1771    4.0535   -0.0654 H   0  0  0  0  0  0  0  0  0  0  0  0
   -3.6368    2.7377    2.0572 H   0  0  0  0  0  0  0  0  0  0  0  0
   -5.4648    1.8427    3.4726 H   0  0  0  0  0  0  0  0  0  0  0  0
   -7.6624    1.2952    2.4714 H   0  0  0  0  0  0  0  0  0  0  0  0
   -8.0423    1.6399    0.0427 H   0  0  0  0  0  0  0  0  0  0  0  0
   -6.2309    2.5279   -1.3828 H   0  0  0  0  0  0  0  0  0  0  0  0
   -1.7330    2.9223   -2.8440 H   0  0  0  0  0  0  0  0  0  0  0  0
    0.3413    2.2792    0.2326 H   0  0  0  0  0  0  0  0  0  0  0  0
   -0.9525    3.3220    0.8975 H   0  0  0  0  0  0  0  0  0  0  0  0
    0.5756    4.9998    1.3368 H   0  0  0  0  0  0  0  0  0  0  0  0
    2.1329    3.2257   -1.4469 H   0  0  0  0  0  0  0  0  0  0  0  0
    3.6273    5.2344   -1.5693 H   0  0  0  0  0  0  0  0  0  0  0  0
    4.8801    4.3488   -0.6040 H   0  0  0  0  0  0  0  0  0  0  0  0
    4.4015    3.7623   -2.2444 H   0  0  0  0  0  0  0  0  0  0  0  0
    3.5233    1.8451    0.7514 H   0  0  0  0  0  0  0  0  0  0  0  0
    3.4006   -0.4703    0.3333 H   0  0  0  0  0  0  0  0  0  0  0  0
    4.3840   -2.3746   -1.0401 H   0  0  0  0  0  0  0  0  0  0  0  0
    4.7349   -1.2200   -2.3621 H   0  0  0  0  0  0  0  0  0  0  0  0
    5.5154   -2.1515    1.1893 H   0  0  0  0  0  0  0  0  0  0  0  0
    7.6207   -1.5475    2.3224 H   0  0  0  0  0  0  0  0  0  0  0  0
   10.1464    0.7411    0.9972 H   0  0  0  0  0  0  0  0  0  0  0  0
    8.6794    0.9951   -0.9880 H   0  0  0  0  0  0  0  0  0  0  0  0
    6.5830    0.4003   -2.1243 H   0  0  0  0  0  0  0  0  0  0  0  0
    2.1911   -1.2469   -2.3200 H   0  0  0  0  0  0  0  0  0  0  0  0
   -0.0614    0.1404    1.0524 H   0  0  0  0  0  0  0  0  0  0  0  0
    0.3705   -1.8119    2.2838 H   0  0  0  0  0  0  0  0  0  0  0  0
    2.9214   -2.7509    2.3248 H   0  0  0  0  0  0  0  0  0  0  0  0
    4.3199   -4.6059    1.5268 H   0  0  0  0  0  0  0  0  0  0  0  0
    3.7003   -5.8563   -0.5133 H   0  0  0  0  0  0  0  0  0  0  0  0
    1.6189   -5.3105   -1.7122 H   0  0  0  0  0  0  0  0  0  0  0  0
   -1.5714   -3.3115    0.3963 H   0  0  0  0  0  0  0  0  0  0  0  0
   -1.2445   -1.8629   -0.6369 H   0  0  0  0  0  0  0  0  0  0  0  0
  1  2  1  0
  2  3  1  0
  2  4  1  0
  4  5  1  0
  5  6  1  0
  6  7  1  0
  7  8  2  0
  7  9  1  0
  9 10  1  0
 10 11  1  0
 11 12  2  0
 12 13  1  0
 13 14  2  0
 14 15  1  0
 15 16  2  0
  9 17  1  0
 17 18  1  0
 18 19  2  0
 18 20  1  0
 20 21  1  0
 21 22  1  0
 22 23  2  0
 22 24  1  0
 24 25  1  0
 24 26  1  0
 26 27  1  0
 27 28  2  0
 27 29  1  0
 29 30  1  0
 30 31  1  0
 31 32  2  0
 32 33  1  0
 33 34  2  0
 34 35  1  0
 34 36  1  0
 36 37  2  0
 29 38  1  0
 38 39  1  0
 39 40  2  0
 39 41  1  0
 41 42  2  0
 42 43  1  0
 43 44  2  0
 44 45  1  0
 45 46  2  0
 46 47  1  0
 47 48  2  0
 48 49  1  0
 49 50  1  0
 50 51  1  0
 51 52  1  0
 52 53  2  0
 52  5  1  0
 16 11  1  0
 37 31  1  0
 48 43  1  0
  1 54  1  0
  1 55  1  0
  1 56  1  0
  2 57  1  0
  3 58  1  0
  3 59  1  0
  3 60  1  0
  4 61  1  0
  4 62  1  0
  5 63  1  6
  6 64  1  0
  9 65  1  1
 10 66  1  0
 10 67  1  0
 12 68  1  0
 13 69  1  0
 14 70  1  0
 15 71  1  0
 16 72  1  0
 17 73  1  0
 20 74  1  0
 20 75  1  0
 21 76  1  0
 24 77  1  6
 25 78  1  0
 25 79  1  0
 25 80  1  0
 26 81  1  0
 29 82  1  1
 30 83  1  0
 30 84  1  0
 32 85  1  0
 33 86  1  0
 35 87  1  0
 36 88  1  0
 37 89  1  0
 38 90  1  0
 41 91  1  0
 42 92  1  0
 44 93  1  0
 45 94  1  0
 46 95  1  0
 47 96  1  0
 50 97  1  0
 50 98  1  0
M  END
$$$$
