
     RDKit          3D

 59 62  0  0  0  0  0  0  0  0999 V2000
    2.6075    0.6970    2.7300 C   0  0  0  0  0  0  0  0  0  0  0  0
    3.9005   -0.2861    2.0028 S   0  0  0  0  0  6  0  0  0  0  0  0
    4.1063   -1.5157    2.8450 O   0  0  0  0  0  0  0  0  0  0  0  0
    5.1768    0.5066    1.9694 O   0  0  0  0  0  0  0  0  0  0  0  0
    3.4794   -0.7724    0.3878 N   0  0  0  0  0  0  0  0  0  0  0  0
    3.2650    0.3838   -0.5101 C   0  0  1  0  0  0  0  0  0  0  0  0
    4.0659    0.1574   -1.8041 C   0  0  0  0  0  0  0  0  0  0  0  0
    3.5258   -1.0379   -2.5955 C   0  0  0  0  0  0  0  0  0  0  0  0
    2.0347   -0.8775   -2.9009 C   0  0  0  0  0  0  0  0  0  0  0  0
    1.2838   -0.5519   -1.6731 N   0  0  0  0  0  0  0  0  0  0  0  0
    0.0257   -1.2580   -1.4640 C   0  0  0  0  0  0  0  0  0  0  0  0
   -0.7856   -1.3265   -2.4287 O   0  0  0  0  0  0  0  0  0  0  0  0
   -0.3282   -2.0175   -0.1883 C   0  0  0  0  0  0  0  0  0  0  0  0
   -0.0673   -1.2783    0.9445 F   0  0  0  0  0  0  0  0  0  0  0  0
    0.4738   -3.1429   -0.1461 F   0  0  0  0  0  0  0  0  0  0  0  0
   -1.7093   -2.4592   -0.2202 O   0  0  0  0  0  0  0  0  0  0  0  0
   -2.7973   -2.1361    0.6454 C   0  0  0  0  0  0  0  0  0  0  0  0
   -3.4746   -3.2107    1.2413 C   0  0  0  0  0  0  0  0  0  0  0  0
   -3.0235   -4.4790    1.0613 F   0  0  0  0  0  0  0  0  0  0  0  0
   -4.6269   -2.9959    2.0028 C   0  0  0  0  0  0  0  0  0  0  0  0
   -5.1276   -1.7033    2.1819 C   0  0  0  0  0  0  0  0  0  0  0  0
   -6.2433   -1.5059    2.9306 F   0  0  0  0  0  0  0  0  0  0  0  0
   -4.4751   -0.6128    1.6064 C   0  0  0  0  0  0  0  0  0  0  0  0
   -3.3187   -0.8063    0.8355 C   0  0  0  0  0  0  0  0  0  0  0  0
   -2.5695    0.3890    0.3302 C   0  0  0  0  0  0  0  0  0  0  0  0
   -3.2282    1.4355   -0.6064 C   0  0  0  0  0  0  0  0  0  0  0  0
   -2.1401    2.4100   -1.2207 C   0  0  0  0  0  0  0  0  0  0  0  0
   -0.7223    2.0679   -0.6868 C   0  0  0  0  0  0  0  0  0  0  0  0
   -0.7803    2.1367    0.8608 C   0  0  0  0  0  0  0  0  0  0  0  0
   -1.7805    1.1135    1.4433 C   0  0  0  0  0  0  0  0  0  0  0  0
    0.3489    2.8368   -1.1856 O   0  0  0  0  0  0  0  0  0  0  0  0
    1.5179    2.0230   -1.5360 C   0  0  0  0  0  0  0  0  0  0  0  0
    1.7543    0.5934   -0.8372 C   0  0  0  0  0  0  0  0  0  0  0  0
    1.6462    0.1585    2.6449 H   0  0  0  0  0  0  0  0  0  0  0  0
    2.5343    1.6755    2.2071 H   0  0  0  0  0  0  0  0  0  0  0  0
    2.8388    0.8770    3.7978 H   0  0  0  0  0  0  0  0  0  0  0  0
    2.6389   -1.3870    0.4461 H   0  0  0  0  0  0  0  0  0  0  0  0
    3.6678    1.3107   -0.0425 H   0  0  0  0  0  0  0  0  0  0  0  0
    5.1312   -0.0275   -1.5489 H   0  0  0  0  0  0  0  0  0  0  0  0
    4.0315    1.0678   -2.4413 H   0  0  0  0  0  0  0  0  0  0  0  0
    3.6868   -1.9736   -2.0171 H   0  0  0  0  0  0  0  0  0  0  0  0
    4.0809   -1.1235   -3.5518 H   0  0  0  0  0  0  0  0  0  0  0  0
    1.8855   -0.0833   -3.6663 H   0  0  0  0  0  0  0  0  0  0  0  0
    1.6738   -1.8361   -3.3459 H   0  0  0  0  0  0  0  0  0  0  0  0
   -5.1373   -3.8377    2.4525 H   0  0  0  0  0  0  0  0  0  0  0  0
   -4.8603    0.3872    1.7759 H   0  0  0  0  0  0  0  0  0  0  0  0
   -1.9140   -0.1149   -0.3417 H   0  0  0  0  0  0  0  0  0  0  0  0
   -3.7629    0.9056   -1.4237 H   0  0  0  0  0  0  0  0  0  0  0  0
   -3.9775    2.0243   -0.0395 H   0  0  0  0  0  0  0  0  0  0  0  0
   -2.3922    3.4633   -0.9700 H   0  0  0  0  0  0  0  0  0  0  0  0
   -2.1520    2.3186   -2.3292 H   0  0  0  0  0  0  0  0  0  0  0  0
   -0.5848    1.0807   -1.0894 H   0  0  0  0  0  0  0  0  0  0  0  0
   -1.1009    3.1590    1.1595 H   0  0  0  0  0  0  0  0  0  0  0  0
    0.2131    2.0055    1.3253 H   0  0  0  0  0  0  0  0  0  0  0  0
   -2.4914    1.6449    2.1107 H   0  0  0  0  0  0  0  0  0  0  0  0
   -1.2474    0.3888    2.0858 H   0  0  0  0  0  0  0  0  0  0  0  0
    2.4115    2.6689   -1.2906 H   0  0  0  0  0  0  0  0  0  0  0  0
    1.5605    1.9092   -2.6613 H   0  0  0  0  0  0  0  0  0  0  0  0
    1.2520    0.5613    0.1392 H   0  0  0  0  0  0  0  0  0  0  0  0
  1  2  1  0
  2  3  2  0
  2  4  2  0
  2  5  1  0
  5  6  1  0
  6  7  1  0
  7  8  1  0
  8  9  1  0
  9 10  1  0
 10 11  1  0
 11 12  2  0
 11 13  1  0
 13 14  1  0
 13 15  1  0
 13 16  1  0
 16 17  1  0
 17 18  2  0
 18 19  1  0
 18 20  1  0
 20 21  2  0
 21 22  1  0
 21 23  1  0
 23 24  2  0
 24 25  1  0
 25 26  1  0
 26 27  1  0
 27 28  1  0
 28 29  1  0
 29 30  1  0
 28 31  1  0
 31 32  1  0
 32 33  1  0
 33  6  1  0
 33 10  1  0
 24 17  1  0
 30 25  1  0
  1 34  1  0
  1 35  1  0
  1 36  1  0
  5 37  1  0
  6 38  1  1
  7 39  1  0
  7 40  1  0
  8 41  1  0
  8 42  1  0
  9 43  1  0
  9 44  1  0
 20 45  1  0
 23 46  1  0
 25 47  1  0
 26 48  1  0
 26 49  1  0
 27 50  1  0
 27 51  1  0
 28 52  1  0
 29 53  1  0
 29 54  1  0
 30 55  1  0
 30 56  1  0
 32 57  1  0
 32 58  1  0
 33 59  1  0
M  END
$$$$
