
     RDKit          3D

117122  0  0  0  0  0  0  0  0999 V2000
   -9.2057   -0.5363   -1.1756 C   0  0  0  0  0  0  0  0  0  0  0  0
   -8.4300   -0.0204   -0.0076 C   0  0  0  0  0  0  0  0  0  0  0  0
   -8.9840    0.7561    0.8155 O   0  0  0  0  0  0  0  0  0  0  0  0
   -7.0536   -0.3962    0.1591 N   0  0  0  0  0  0  0  0  0  0  0  0
   -6.2304    0.0913    1.2702 C   0  0  1  0  0  0  0  0  0  0  0  0
   -5.2101   -0.9884    1.7002 C   0  0  0  0  0  0  0  0  0  0  0  0
   -5.8878   -2.2713    2.1312 C   0  0  0  0  0  0  0  0  0  0  0  0
   -7.0149   -2.1985    2.6949 O   0  0  0  0  0  0  0  0  0  0  0  0
   -5.2867   -3.5737    1.9922 N   0  0  0  0  0  0  0  0  0  0  0  0
   -3.9135   -3.8995    1.5766 C   0  0  2  0  0  0  0  0  0  0  0  0
   -2.8606   -3.1964    2.4282 C   0  0  0  0  0  0  0  0  0  0  0  0
   -1.2064   -3.9424    2.1867 S   0  0  0  0  0  0  0  0  0  0  0  0
   -1.2214   -4.3200    0.3678 C   0  0  1  0  0  0  0  0  0  0  0  0
   -2.3208   -3.6661   -0.3658 N   0  0  0  0  0  0  0  0  0  0  0  0
   -3.6593   -3.6002    0.1341 C   0  0  0  0  0  0  0  0  0  0  0  0
   -4.6013   -3.2792   -0.6369 O   0  0  0  0  0  0  0  0  0  0  0  0
    0.0780   -3.8656   -0.2092 C   0  0  0  0  0  0  0  0  0  0  0  0
    0.6368   -4.7821   -0.9928 C   0  0  0  0  0  0  0  0  0  0  0  0
    1.7424   -4.5898   -1.8455 O   0  0  0  0  0  0  0  0  0  0  0  0
    2.7238   -3.6131   -1.6618 C   0  0  0  0  0  0  0  0  0  0  0  0
    3.6913   -3.7662   -0.6620 C   0  0  0  0  0  0  0  0  0  0  0  0
    4.7185   -2.8264   -0.5295 C   0  0  0  0  0  0  0  0  0  0  0  0
    4.7699   -1.7015   -1.3751 C   0  0  0  0  0  0  0  0  0  0  0  0
    3.7789   -1.5403   -2.3594 C   0  0  0  0  0  0  0  0  0  0  0  0
    2.7722   -2.4994   -2.5110 C   0  0  0  0  0  0  0  0  0  0  0  0
    5.9704   -0.7827   -1.3330 C   0  0  0  0  0  0  0  0  0  0  0  0
    6.1111   -0.0163    0.0023 C   0  0  1  0  0  0  0  0  0  0  0  0
    7.5695    0.2831    0.2579 C   0  0  0  0  0  0  0  0  0  0  0  0
    8.3426   -0.5689    1.1063 N   0  0  0  0  0  0  0  0  0  0  0  0
    8.1316    1.2465   -0.3327 O   0  0  0  0  0  0  0  0  0  0  0  0
    5.3603    1.2420   -0.0226 N   0  0  0  0  0  0  0  0  0  0  0  0
    5.1314    1.9444    1.2050 C   0  0  0  0  0  0  0  0  0  0  0  0
    4.4499    1.3990    2.1145 O   0  0  0  0  0  0  0  0  0  0  0  0
    5.7425    3.3110    1.4116 C   0  0  2  0  0  0  0  0  0  0  0  0
    6.1233    3.5565    2.8799 C   0  0  0  0  0  0  0  0  0  0  0  0
    4.8725    4.3834    0.8967 N   0  0  0  0  0  0  0  0  0  0  0  0
    5.4979    5.6004    0.3670 C   0  0  0  0  0  0  0  0  0  0  0  0
    3.4613    4.4026    1.1791 C   0  0  0  0  0  0  0  0  0  0  0  0
    3.0707    4.3515    2.3803 O   0  0  0  0  0  0  0  0  0  0  0  0
    2.4521    4.6017    0.0688 C   0  0  1  0  0  0  0  0  0  0  0  0
    2.9129    3.9310   -1.2401 C   0  0  0  0  0  0  0  0  0  0  0  0
    1.9218    4.0546   -2.2261 O   0  0  0  0  0  0  0  0  0  0  0  0
    1.1274    4.0981    0.4530 N   0  0  0  0  0  0  0  0  0  0  0  0
    0.8693    2.7038    0.6829 C   0  0  0  0  0  0  0  0  0  0  0  0
    1.6109    2.0639    1.4717 O   0  0  0  0  0  0  0  0  0  0  0  0
   -0.2407    1.9667   -0.0353 C   0  0  2  0  0  0  0  0  0  0  0  0
    0.3453    1.0100   -1.0940 C   0  0  0  0  0  0  0  0  0  0  0  0
    0.6165   -0.3459   -0.5257 C   0  0  0  0  0  0  0  0  0  0  0  0
    0.0150   -1.5075   -0.9426 C   0  0  0  0  0  0  0  0  0  0  0  0
    0.4863   -2.4971   -0.1738 N   0  0  0  0  0  0  0  0  0  0  0  0
    1.3386   -1.9249    0.6982 C   0  0  0  0  0  0  0  0  0  0  0  0
    1.4592   -0.5964    0.4997 N   0  0  0  0  0  0  0  0  0  0  0  0
   -1.1684    2.9003   -0.6833 N   0  0  0  0  0  0  0  0  0  0  0  0
   -2.5955    2.8366   -0.5348 C   0  0  0  0  0  0  0  0  0  0  0  0
   -3.2482    3.9150   -0.5286 O   0  0  0  0  0  0  0  0  0  0  0  0
   -3.3414    1.5197   -0.4166 C   0  0  2  0  0  0  0  0  0  0  0  0
   -4.1393    1.1405   -1.7087 C   0  0  0  0  0  0  0  0  0  0  0  0
   -4.9513    2.2922   -2.3277 C   0  0  0  0  0  0  0  0  0  0  0  0
   -3.2044    0.5620   -2.7814 C   0  0  0  0  0  0  0  0  0  0  0  0
   -4.1504    1.5291    0.8135 N   0  0  0  0  0  0  0  0  0  0  0  0
   -5.5766    1.3961    0.8802 C   0  0  0  0  0  0  0  0  0  0  0  0
   -6.2996    2.4169    0.7210 O   0  0  0  0  0  0  0  0  0  0  0  0
   -0.1105   -6.0620   -0.9712 C   0  0  0  0  0  0  0  0  0  0  0  0
    0.7361   -7.1023   -0.6216 F   0  0  0  0  0  0  0  0  0  0  0  0
   -0.6534   -6.3062   -2.2246 F   0  0  0  0  0  0  0  0  0  0  0  0
   -1.2139   -5.8458    0.0823 C   0  0  0  0  0  0  0  0  0  0  0  0
   -0.9171   -6.5713    1.2248 F   0  0  0  0  0  0  0  0  0  0  0  0
   -2.4357   -6.2853   -0.3980 F   0  0  0  0  0  0  0  0  0  0  0  0
  -10.2704   -0.2285   -1.0977 H   0  0  0  0  0  0  0  0  0  0  0  0
   -9.1547   -1.6433   -1.1940 H   0  0  0  0  0  0  0  0  0  0  0  0
   -8.7768   -0.1330   -2.1153 H   0  0  0  0  0  0  0  0  0  0  0  0
   -6.6101   -0.9942   -0.5744 H   0  0  0  0  0  0  0  0  0  0  0  0
   -6.8775    0.3039    2.1525 H   0  0  0  0  0  0  0  0  0  0  0  0
   -4.5036   -1.1687    0.8684 H   0  0  0  0  0  0  0  0  0  0  0  0
   -4.6344   -0.6065    2.5687 H   0  0  0  0  0  0  0  0  0  0  0  0
   -5.8621   -4.3807    2.3184 H   0  0  0  0  0  0  0  0  0  0  0  0
   -3.7753   -4.9950    1.7041 H   0  0  0  0  0  0  0  0  0  0  0  0
   -3.1301   -3.2840    3.5013 H   0  0  0  0  0  0  0  0  0  0  0  0
   -2.7833   -2.1186    2.1758 H   0  0  0  0  0  0  0  0  0  0  0  0
   -2.1948   -3.4760   -1.3873 H   0  0  0  0  0  0  0  0  0  0  0  0
    3.6635   -4.6309   -0.0096 H   0  0  0  0  0  0  0  0  0  0  0  0
    5.4891   -2.9886    0.2146 H   0  0  0  0  0  0  0  0  0  0  0  0
    3.8068   -0.6907   -3.0297 H   0  0  0  0  0  0  0  0  0  0  0  0
    2.0255   -2.3791   -3.2844 H   0  0  0  0  0  0  0  0  0  0  0  0
    5.9482   -0.0679   -2.1882 H   0  0  0  0  0  0  0  0  0  0  0  0
    6.8643   -1.4251   -1.4987 H   0  0  0  0  0  0  0  0  0  0  0  0
    5.7337   -0.6442    0.8381 H   0  0  0  0  0  0  0  0  0  0  0  0
    9.3162   -0.3028    1.3666 H   0  0  0  0  0  0  0  0  0  0  0  0
    7.9359   -1.4471    1.4954 H   0  0  0  0  0  0  0  0  0  0  0  0
    5.4167    1.8264   -0.8894 H   0  0  0  0  0  0  0  0  0  0  0  0
    6.6971    3.3170    0.8374 H   0  0  0  0  0  0  0  0  0  0  0  0
    6.8098    2.7570    3.2271 H   0  0  0  0  0  0  0  0  0  0  0  0
    5.2284    3.5777    3.5359 H   0  0  0  0  0  0  0  0  0  0  0  0
    6.6557    4.5265    2.9741 H   0  0  0  0  0  0  0  0  0  0  0  0
    6.3356    5.3353   -0.3115 H   0  0  0  0  0  0  0  0  0  0  0  0
    4.7716    6.2053   -0.2169 H   0  0  0  0  0  0  0  0  0  0  0  0
    5.8818    6.2206    1.2016 H   0  0  0  0  0  0  0  0  0  0  0  0
    2.3734    5.6938   -0.1211 H   0  0  0  0  0  0  0  0  0  0  0  0
    3.8630    4.3795   -1.6040 H   0  0  0  0  0  0  0  0  0  0  0  0
    3.1063    2.8516   -1.0626 H   0  0  0  0  0  0  0  0  0  0  0  0
    2.0187    4.9586   -2.6162 H   0  0  0  0  0  0  0  0  0  0  0  0
    0.3193    4.7538    0.3833 H   0  0  0  0  0  0  0  0  0  0  0  0
   -0.7850    1.3935    0.7456 H   0  0  0  0  0  0  0  0  0  0  0  0
   -0.3660    0.9057   -1.9393 H   0  0  0  0  0  0  0  0  0  0  0  0
    1.2819    1.4173   -1.5294 H   0  0  0  0  0  0  0  0  0  0  0  0
   -0.7078   -1.6223   -1.7398 H   0  0  0  0  0  0  0  0  0  0  0  0
    1.8785   -2.4662    1.4610 H   0  0  0  0  0  0  0  0  0  0  0  0
   -0.7883    3.6367   -1.3199 H   0  0  0  0  0  0  0  0  0  0  0  0
   -2.6057    0.6993   -0.2707 H   0  0  0  0  0  0  0  0  0  0  0  0
   -4.8498    0.3282   -1.4568 H   0  0  0  0  0  0  0  0  0  0  0  0
   -4.2804    3.0521   -2.7897 H   0  0  0  0  0  0  0  0  0  0  0  0
   -5.6199    1.8985   -3.1231 H   0  0  0  0  0  0  0  0  0  0  0  0
   -5.5845    2.7990   -1.5784 H   0  0  0  0  0  0  0  0  0  0  0  0
   -2.6860   -0.3435   -2.3999 H   0  0  0  0  0  0  0  0  0  0  0  0
   -2.4500    1.3151   -3.0894 H   0  0  0  0  0  0  0  0  0  0  0  0
   -3.7880    0.2601   -3.6818 H   0  0  0  0  0  0  0  0  0  0  0  0
   -3.6418    1.6043    1.7225 H   0  0  0  0  0  0  0  0  0  0  0  0
  1  2  1  0
  2  3  2  0
  2  4  1  0
  4  5  1  0
  5  6  1  0
  6  7  1  0
  7  8  2  0
  7  9  1  0
  9 10  1  0
 10 11  1  0
 11 12  1  0
 12 13  1  0
 13 14  1  0
 14 15  1  0
 15 16  2  0
 13 17  1  0
 17 18  2  0
 18 19  1  0
 19 20  1  0
 20 21  2  0
 21 22  1  0
 22 23  2  0
 23 24  1  0
 24 25  2  0
 23 26  1  0
 26 27  1  0
 27 28  1  0
 28 29  1  0
 28 30  2  0
 27 31  1  0
 31 32  1  0
 32 33  2  0
 32 34  1  0
 34 35  1  0
 34 36  1  0
 36 37  1  0
 36 38  1  0
 38 39  2  0
 38 40  1  0
 40 41  1  0
 41 42  1  0
 40 43  1  0
 43 44  1  0
 44 45  2  0
 44 46  1  0
 46 47  1  0
 47 48  1  0
 48 49  2  0
 49 50  1  0
 50 51  1  0
 51 52  2  0
 46 53  1  0
 53 54  1  0
 54 55  2  0
 54 56  1  0
 56 57  1  0
 57 58  1  0
 57 59  1  0
 56 60  1  0
 60 61  1  0
 61 62  2  0
 18 63  1  0
 63 64  1  0
 63 65  1  0
 63 66  1  0
 66 67  1  0
 66 68  1  0
 61  5  1  0
 15 10  1  0
 50 17  1  0
 13 66  1  1
 25 20  1  0
 52 48  1  0
  1 69  1  0
  1 70  1  0
  1 71  1  0
  4 72  1  0
  5 73  1  1
  6 74  1  0
  6 75  1  0
  9 76  1  0
 10 77  1  6
 11 78  1  0
 11 79  1  0
 14 80  1  0
 21 81  1  0
 22 82  1  0
 24 83  1  0
 25 84  1  0
 26 85  1  0
 26 86  1  0
 27 87  1  1
 29 88  1  0
 29 89  1  0
 31 90  1  0
 34 91  1  6
 35 92  1  0
 35 93  1  0
 35 94  1  0
 37 95  1  0
 37 96  1  0
 37 97  1  0
 40 98  1  6
 41 99  1  0
 41100  1  0
 42101  1  0
 43102  1  0
 46103  1  1
 47104  1  0
 47105  1  0
 49106  1  0
 51107  1  0
 53108  1  0
 56109  1  1
 57110  1  0
 58111  1  0
 58112  1  0
 58113  1  0
 59114  1  0
 59115  1  0
 59116  1  0
 60117  1  0
M  END
$$$$
