
     RDKit          3D

125128  0  0  0  0  0  0  0  0999 V2000
  -10.6761   -0.4609   -1.8040 C   0  0  0  0  0  0  0  0  0  0  0  0
  -10.2904    0.8723   -1.1497 C   0  0  0  0  0  0  0  0  0  0  0  0
   -8.7742    1.0559   -0.8027 C   0  0  1  0  0  0  0  0  0  0  0  0
   -8.0234   -0.2236   -0.5812 C   0  0  0  0  0  0  0  0  0  0  0  0
   -7.7147   -1.1335   -1.5273 N   0  0  0  0  0  0  0  0  0  0  0  0
   -6.9819   -2.0622   -0.9279 N   0  0  0  0  0  0  0  0  0  0  0  0
   -6.8586   -1.6687    0.3532 C   0  0  0  0  0  0  0  0  0  0  0  0
   -7.4980   -0.5477    0.5695 O   0  0  0  0  0  0  0  0  0  0  0  0
   -6.0961   -2.4018    1.4164 C   0  0  2  0  0  0  0  0  0  0  0  0
   -7.0356   -3.2398    2.3100 C   0  0  0  0  0  0  0  0  0  0  0  0
   -8.1548   -2.4296    2.9248 C   0  0  0  0  0  0  0  0  0  0  0  0
   -9.3758   -2.2767    2.2436 C   0  0  0  0  0  0  0  0  0  0  0  0
  -10.3761   -1.4528    2.7640 C   0  0  0  0  0  0  0  0  0  0  0  0
  -10.1749   -0.7896    3.9783 C   0  0  0  0  0  0  0  0  0  0  0  0
   -8.9719   -0.9514    4.6718 C   0  0  0  0  0  0  0  0  0  0  0  0
   -7.9644   -1.7675    4.1489 C   0  0  0  0  0  0  0  0  0  0  0  0
   -5.3541   -1.4224    2.2196 N   0  0  0  0  0  0  0  0  0  0  0  0
   -4.0623   -1.6704    2.7898 C   0  0  0  0  0  0  0  0  0  0  0  0
   -3.8990   -1.4702    4.0240 O   0  0  0  0  0  0  0  0  0  0  0  0
   -2.8612   -2.0718    1.9727 C   0  0  0  0  0  0  0  0  0  0  0  0
   -3.1196   -2.1479    0.5334 N   0  0  0  0  0  0  0  0  0  0  0  0
   -3.4299   -1.0742   -0.3790 C   0  0  0  0  0  0  0  0  0  0  0  0
   -3.9386   -1.3882   -1.4892 O   0  0  0  0  0  0  0  0  0  0  0  0
   -3.1026    0.3951   -0.1703 C   0  0  2  0  0  0  0  0  0  0  0  0
   -1.6517    0.7667   -0.5456 C   0  0  0  0  0  0  0  0  0  0  0  0
   -0.5645    0.1349    0.3383 C   0  0  0  0  0  0  0  0  0  0  0  0
    0.8542    0.4688   -0.1481 C   0  0  0  0  0  0  0  0  0  0  0  0
    1.1904    1.9639   -0.0270 C   0  0  0  0  0  0  0  0  0  0  0  0
    2.6206    2.1794   -0.2271 N   0  0  0  0  0  0  0  0  0  0  0  0
    3.2368    2.1209   -1.5222 C   0  0  0  0  0  0  0  0  0  0  0  0
    2.5445    1.8586   -2.5465 O   0  0  0  0  0  0  0  0  0  0  0  0
    4.7060    2.3928   -1.6724 C   0  0  0  0  0  0  0  0  0  0  0  0
    5.4139    1.2508   -2.4092 C   0  0  0  0  0  0  0  0  0  0  0  0
    6.8962    1.4808   -2.4171 C   0  0  0  0  0  0  0  0  0  0  0  0
    7.3864    2.3170   -3.2230 O   0  0  0  0  0  0  0  0  0  0  0  0
    7.7335    0.8086   -1.4692 N   0  0  0  0  0  0  0  0  0  0  0  0
    9.1410    1.1524   -1.2636 C   0  0  0  0  0  0  0  0  0  0  0  0
   10.0113    0.7417   -2.4609 C   0  0  0  0  0  0  0  0  0  0  0  0
    9.7410   -0.5884   -2.8650 O   0  0  0  0  0  0  0  0  0  0  0  0
   10.5842   -1.5141   -2.2069 C   0  0  0  0  0  0  0  0  0  0  0  0
   11.9428   -1.6450   -2.9311 C   0  0  0  0  0  0  0  0  0  0  0  0
   12.6440   -2.8510   -2.6558 O   0  0  0  0  0  0  0  0  0  0  0  0
   12.8502   -3.0890   -1.2720 C   0  0  0  0  0  0  0  0  0  0  0  0
   13.7675   -2.0478   -0.5970 C   0  0  0  0  0  0  0  0  0  0  0  0
   14.0094   -2.3568    0.8913 C   0  0  0  0  0  0  0  0  0  0  0  0
   12.7824   -2.0219    1.7603 C   0  0  0  0  0  0  0  0  0  0  0  0
   13.0092   -2.2969    3.2584 C   0  0  0  0  0  0  0  0  0  0  0  0
   13.8232   -1.2076    3.9710 C   0  0  0  0  0  0  0  0  0  0  0  0
   15.5780   -1.5092    3.8593 Cl  0  0  0  0  0  0  0  0  0  0  0  0
   -3.4815    0.9107    1.1524 N   0  0  0  0  0  0  0  0  0  0  0  0
   -4.3500    2.0475    1.3292 C   0  0  0  0  0  0  0  0  0  0  0  0
   -4.1556    2.8170    2.3126 O   0  0  0  0  0  0  0  0  0  0  0  0
   -5.4290    2.3819    0.3272 C   0  0  0  0  0  0  0  0  0  0  0  0
   -6.5567    3.0938    0.9381 N   0  0  0  0  0  0  0  0  0  0  0  0
   -7.6648    3.6081    0.1787 C   0  0  0  0  0  0  0  0  0  0  0  0
   -8.5509    4.2785    0.7778 O   0  0  0  0  0  0  0  0  0  0  0  0
   -7.7978    3.3430   -1.3135 C   0  0  2  0  0  0  0  0  0  0  0  0
   -8.9187    4.0974   -2.0120 C   0  0  0  0  0  0  0  0  0  0  0  0
   -9.1035    3.3347   -3.3177 C   0  0  0  0  0  0  0  0  0  0  0  0
   -8.3907    1.9936   -3.1124 C   0  0  0  0  0  0  0  0  0  0  0  0
   -7.9538    1.9268   -1.7075 N   0  0  0  0  0  0  0  0  0  0  0  0
  -10.5361   -1.2980   -1.0850 H   0  0  0  0  0  0  0  0  0  0  0  0
  -10.0723   -0.6640   -2.7148 H   0  0  0  0  0  0  0  0  0  0  0  0
  -11.7490   -0.4331   -2.0978 H   0  0  0  0  0  0  0  0  0  0  0  0
  -10.6715    1.7080   -1.7669 H   0  0  0  0  0  0  0  0  0  0  0  0
  -10.8765    0.9311   -0.2030 H   0  0  0  0  0  0  0  0  0  0  0  0
   -8.8058    1.4992    0.2123 H   0  0  0  0  0  0  0  0  0  0  0  0
   -5.3973   -3.1091    0.9260 H   0  0  0  0  0  0  0  0  0  0  0  0
   -6.4377   -3.7240    3.1139 H   0  0  0  0  0  0  0  0  0  0  0  0
   -7.4692   -4.0670    1.7025 H   0  0  0  0  0  0  0  0  0  0  0  0
   -9.5376   -2.7712    1.2936 H   0  0  0  0  0  0  0  0  0  0  0  0
  -11.3054   -1.3200    2.2228 H   0  0  0  0  0  0  0  0  0  0  0  0
  -10.9496   -0.1475    4.3772 H   0  0  0  0  0  0  0  0  0  0  0  0
   -8.8165   -0.4345    5.6102 H   0  0  0  0  0  0  0  0  0  0  0  0
   -7.0317   -1.8686    4.6885 H   0  0  0  0  0  0  0  0  0  0  0  0
   -5.8978   -0.6382    2.6486 H   0  0  0  0  0  0  0  0  0  0  0  0
   -2.5484   -3.0781    2.3249 H   0  0  0  0  0  0  0  0  0  0  0  0
   -2.0089   -1.3990    2.1805 H   0  0  0  0  0  0  0  0  0  0  0  0
   -3.1346   -3.1111    0.1264 H   0  0  0  0  0  0  0  0  0  0  0  0
   -3.7039    0.9329   -0.9333 H   0  0  0  0  0  0  0  0  0  0  0  0
   -1.4732    0.4687   -1.6029 H   0  0  0  0  0  0  0  0  0  0  0  0
   -1.5657    1.8735   -0.4916 H   0  0  0  0  0  0  0  0  0  0  0  0
   -0.6708   -0.9707    0.3079 H   0  0  0  0  0  0  0  0  0  0  0  0
   -0.6749    0.4703    1.3912 H   0  0  0  0  0  0  0  0  0  0  0  0
    0.9755    0.1374   -1.2025 H   0  0  0  0  0  0  0  0  0  0  0  0
    1.5766   -0.1088    0.4716 H   0  0  0  0  0  0  0  0  0  0  0  0
    0.9094    2.3254    0.9883 H   0  0  0  0  0  0  0  0  0  0  0  0
    0.6207    2.5566   -0.7756 H   0  0  0  0  0  0  0  0  0  0  0  0
    3.1985    2.4595    0.5970 H   0  0  0  0  0  0  0  0  0  0  0  0
    5.1674    2.5247   -0.6691 H   0  0  0  0  0  0  0  0  0  0  0  0
    4.8385    3.3414   -2.2415 H   0  0  0  0  0  0  0  0  0  0  0  0
    5.0492    1.1888   -3.4583 H   0  0  0  0  0  0  0  0  0  0  0  0
    5.1872    0.2818   -1.9101 H   0  0  0  0  0  0  0  0  0  0  0  0
    7.3101    0.0902   -0.8390 H   0  0  0  0  0  0  0  0  0  0  0  0
    9.2384    2.2470   -1.0865 H   0  0  0  0  0  0  0  0  0  0  0  0
    9.5128    0.6413   -0.3493 H   0  0  0  0  0  0  0  0  0  0  0  0
   11.0836    0.9189   -2.2133 H   0  0  0  0  0  0  0  0  0  0  0  0
    9.7898    1.4097   -3.3171 H   0  0  0  0  0  0  0  0  0  0  0  0
   10.7282   -1.2569   -1.1320 H   0  0  0  0  0  0  0  0  0  0  0  0
   10.0776   -2.5032   -2.2382 H   0  0  0  0  0  0  0  0  0  0  0  0
   11.7415   -1.6297   -4.0237 H   0  0  0  0  0  0  0  0  0  0  0  0
   12.5879   -0.7632   -2.7403 H   0  0  0  0  0  0  0  0  0  0  0  0
   11.8833   -3.2079   -0.7420 H   0  0  0  0  0  0  0  0  0  0  0  0
   13.3457   -4.0789   -1.1860 H   0  0  0  0  0  0  0  0  0  0  0  0
   14.7451   -2.0491   -1.1263 H   0  0  0  0  0  0  0  0  0  0  0  0
   13.3395   -1.0269   -0.6737 H   0  0  0  0  0  0  0  0  0  0  0  0
   14.8704   -1.7408    1.2205 H   0  0  0  0  0  0  0  0  0  0  0  0
   14.2872   -3.4240    1.0187 H   0  0  0  0  0  0  0  0  0  0  0  0
   11.9311   -2.6575    1.4371 H   0  0  0  0  0  0  0  0  0  0  0  0
   12.4800   -0.9623    1.6087 H   0  0  0  0  0  0  0  0  0  0  0  0
   12.0092   -2.3388    3.7434 H   0  0  0  0  0  0  0  0  0  0  0  0
   13.4809   -3.2935    3.4069 H   0  0  0  0  0  0  0  0  0  0  0  0
   13.5878   -0.1992    3.5695 H   0  0  0  0  0  0  0  0  0  0  0  0
   13.5586   -1.2086    5.0512 H   0  0  0  0  0  0  0  0  0  0  0  0
   -2.8947    0.6565    1.9721 H   0  0  0  0  0  0  0  0  0  0  0  0
   -5.8041    1.4435   -0.1289 H   0  0  0  0  0  0  0  0  0  0  0  0
   -4.9794    3.0154   -0.4653 H   0  0  0  0  0  0  0  0  0  0  0  0
   -6.5823    3.2388    1.9724 H   0  0  0  0  0  0  0  0  0  0  0  0
   -6.8488    3.7094   -1.7676 H   0  0  0  0  0  0  0  0  0  0  0  0
   -9.8584    4.0464   -1.4178 H   0  0  0  0  0  0  0  0  0  0  0  0
   -8.6480    5.1627   -2.1931 H   0  0  0  0  0  0  0  0  0  0  0  0
  -10.1823    3.1888   -3.5409 H   0  0  0  0  0  0  0  0  0  0  0  0
   -8.6360    3.8963   -4.1601 H   0  0  0  0  0  0  0  0  0  0  0  0
   -7.4861    1.9613   -3.7583 H   0  0  0  0  0  0  0  0  0  0  0  0
   -9.0201    1.1431   -3.4263 H   0  0  0  0  0  0  0  0  0  0  0  0
  1  2  1  0
  2  3  1  0
  3  4  1  0
  4  5  2  0
  5  6  1  0
  6  7  2  0
  7  8  1  0
  7  9  1  0
  9 10  1  0
 10 11  1  0
 11 12  2  0
 12 13  1  0
 13 14  2  0
 14 15  1  0
 15 16  2  0
  9 17  1  0
 17 18  1  0
 18 19  2  0
 18 20  1  0
 20 21  1  0
 21 22  1  0
 22 23  2  0
 22 24  1  0
 24 25  1  0
 25 26  1  0
 26 27  1  0
 27 28  1  0
 28 29  1  0
 29 30  1  0
 30 31  2  0
 30 32  1  0
 32 33  1  0
 33 34  1  0
 34 35  2  0
 34 36  1  0
 36 37  1  0
 37 38  1  0
 38 39  1  0
 39 40  1  0
 40 41  1  0
 41 42  1  0
 42 43  1  0
 43 44  1  0
 44 45  1  0
 45 46  1  0
 46 47  1  0
 47 48  1  0
 48 49  1  0
 24 50  1  0
 50 51  1  0
 51 52  2  0
 51 53  1  0
 53 54  1  0
 54 55  1  0
 55 56  2  0
 55 57  1  0
 57 58  1  0
 58 59  1  0
 59 60  1  0
 60 61  1  0
 61  3  1  0
  8  4  1  0
 16 11  1  0
 61 57  1  0
  1 62  1  0
  1 63  1  0
  1 64  1  0
  2 65  1  0
  2 66  1  0
  3 67  1  1
  9 68  1  6
 10 69  1  0
 10 70  1  0
 12 71  1  0
 13 72  1  0
 14 73  1  0
 15 74  1  0
 16 75  1  0
 17 76  1  0
 20 77  1  0
 20 78  1  0
 21 79  1  0
 24 80  1  6
 25 81  1  0
 25 82  1  0
 26 83  1  0
 26 84  1  0
 27 85  1  0
 27 86  1  0
 28 87  1  0
 28 88  1  0
 29 89  1  0
 32 90  1  0
 32 91  1  0
 33 92  1  0
 33 93  1  0
 36 94  1  0
 37 95  1  0
 37 96  1  0
 38 97  1  0
 38 98  1  0
 40 99  1  0
 40100  1  0
 41101  1  0
 41102  1  0
 43103  1  0
 43104  1  0
 44105  1  0
 44106  1  0
 45107  1  0
 45108  1  0
 46109  1  0
 46110  1  0
 47111  1  0
 47112  1  0
 48113  1  0
 48114  1  0
 50115  1  0
 53116  1  0
 53117  1  0
 54118  1  0
 57119  1  6
 58120  1  0
 58121  1  0
 59122  1  0
 59123  1  0
 60124  1  0
 60125  1  0
M  END
$$$$
