
     RDKit          3D

107111  0  0  0  0  0  0  0  0999 V2000
   -3.2823   -4.1977   -2.6531 C   0  0  0  0  0  0  0  0  0  0  0  0
   -2.1186   -4.6843   -1.7817 C   0  0  0  0  0  0  0  0  0  0  0  0
   -1.9266   -3.9019   -0.4553 C   0  0  2  0  0  0  0  0  0  0  0  0
   -3.0827   -4.1940    0.5241 C   0  0  0  0  0  0  0  0  0  0  0  0
   -1.7342   -2.3658   -0.6573 C   0  0  2  0  0  0  0  0  0  0  0  0
   -0.8231   -2.0472   -1.7690 N   0  0  0  0  0  0  0  0  0  0  0  0
    0.5088   -2.5554   -1.9485 C   0  0  0  0  0  0  0  0  0  0  0  0
    0.8901   -2.8323   -3.1184 O   0  0  0  0  0  0  0  0  0  0  0  0
    1.4491   -2.7612   -0.7898 C   0  0  0  0  0  0  0  0  0  0  0  0
    2.9162   -2.8518   -1.2350 C   0  0  0  0  0  0  0  0  0  0  0  0
    3.8303   -3.1956   -0.0542 C   0  0  0  0  0  0  0  0  0  0  0  0
    5.2345   -2.9901   -0.4145 N   0  0  0  0  0  0  0  0  0  0  0  0
    5.8879   -1.7043   -0.4361 C   0  0  0  0  0  0  0  0  0  0  0  0
    7.2487   -1.6306   -0.7734 C   0  0  0  0  0  0  0  0  0  0  0  0
    7.9162   -0.4026   -0.7672 C   0  0  0  0  0  0  0  0  0  0  0  0
    7.2359    0.7667   -0.4212 C   0  0  0  0  0  0  0  0  0  0  0  0
    5.8715    0.7168   -0.1010 C   0  0  0  0  0  0  0  0  0  0  0  0
    5.2048   -0.5177   -0.1065 C   0  0  0  0  0  0  0  0  0  0  0  0
    5.1431    1.9541    0.3442 C   0  0  0  0  0  0  0  0  0  0  0  0
    5.0437    1.9703    1.8009 N   0  0  0  0  0  0  0  0  0  0  0  0
    3.9599    2.5553    2.5439 C   0  0  0  0  0  0  0  0  0  0  0  0
    3.9275    2.3751    3.7909 O   0  0  0  0  0  0  0  0  0  0  0  0
    2.8335    3.3314    1.8865 C   0  0  2  0  0  0  0  0  0  0  0  0
    2.4467    4.5616    2.7119 C   0  0  0  0  0  0  0  0  0  0  0  0
    1.2770    4.1176    3.5894 C   0  0  0  0  0  0  0  0  0  0  0  0
    0.6577    2.9191    2.8750 C   0  0  0  0  0  0  0  0  0  0  0  0
    1.6227    2.5256    1.8630 N   0  0  0  0  0  0  0  0  0  0  0  0
    1.4361    1.3922    1.0086 C   0  0  0  0  0  0  0  0  0  0  0  0
    1.9642    0.2915    1.3231 O   0  0  0  0  0  0  0  0  0  0  0  0
    0.6426    1.4970   -0.2706 C   0  0  2  0  0  0  0  0  0  0  0  0
    1.5307    1.9646   -1.4334 C   0  0  0  0  0  0  0  0  0  0  0  0
    0.7736    1.9110   -2.7371 C   0  0  0  0  0  0  0  0  0  0  0  0
   -0.0268    2.9925   -3.1453 C   0  0  0  0  0  0  0  0  0  0  0  0
   -0.8061    2.8938   -4.3017 C   0  0  0  0  0  0  0  0  0  0  0  0
   -0.7782    1.7252   -5.0679 C   0  0  0  0  0  0  0  0  0  0  0  0
   -1.5304    1.6342   -6.1922 F   0  0  0  0  0  0  0  0  0  0  0  0
    0.0252    0.6515   -4.6753 C   0  0  0  0  0  0  0  0  0  0  0  0
    0.7943    0.7414   -3.5121 C   0  0  0  0  0  0  0  0  0  0  0  0
   -0.4789    2.4265   -0.0908 N   0  0  0  0  0  0  0  0  0  0  0  0
   -1.8600    2.0546    0.0532 C   0  0  0  0  0  0  0  0  0  0  0  0
   -2.6968    2.9703    0.2952 O   0  0  0  0  0  0  0  0  0  0  0  0
   -2.3304    0.6174   -0.1225 C   0  0  2  0  0  0  0  0  0  0  0  0
   -3.8830    0.4533   -0.0694 C   0  0  0  0  0  0  0  0  0  0  0  0
   -4.4788   -0.0633    1.2709 C   0  0  0  0  0  0  0  0  0  0  0  0
   -5.9700   -0.4492    1.0611 C   0  0  0  0  0  0  0  0  0  0  0  0
   -6.7638   -0.3912    2.3679 C   0  0  0  0  0  0  0  0  0  0  0  0
   -6.7792    1.0354    2.9539 C   0  0  0  0  0  0  0  0  0  0  0  0
   -5.5063    1.8472    2.6303 C   0  0  0  0  0  0  0  0  0  0  0  0
   -4.2868    0.9380    2.4460 C   0  0  0  0  0  0  0  0  0  0  0  0
   -1.6566   -0.2602    0.8468 N   0  0  0  0  0  0  0  0  0  0  0  0
   -1.3192   -1.6393    0.6091 C   0  0  0  0  0  0  0  0  0  0  0  0
   -0.6487   -2.2506    1.4838 O   0  0  0  0  0  0  0  0  0  0  0  0
   -3.1163   -3.1530   -2.9955 H   0  0  0  0  0  0  0  0  0  0  0  0
   -4.2488   -4.2610   -2.1085 H   0  0  0  0  0  0  0  0  0  0  0  0
   -3.3493   -4.8422   -3.5570 H   0  0  0  0  0  0  0  0  0  0  0  0
   -2.2760   -5.7599   -1.5480 H   0  0  0  0  0  0  0  0  0  0  0  0
   -1.1877   -4.6349   -2.3834 H   0  0  0  0  0  0  0  0  0  0  0  0
   -1.0088   -4.3106    0.0136 H   0  0  0  0  0  0  0  0  0  0  0  0
   -4.0441   -3.8003    0.1370 H   0  0  0  0  0  0  0  0  0  0  0  0
   -3.1835   -5.2889    0.6872 H   0  0  0  0  0  0  0  0  0  0  0  0
   -2.8908   -3.7232    1.5106 H   0  0  0  0  0  0  0  0  0  0  0  0
   -2.7322   -1.9825   -0.9355 H   0  0  0  0  0  0  0  0  0  0  0  0
   -1.2444   -1.5639   -2.5986 H   0  0  0  0  0  0  0  0  0  0  0  0
    1.3586   -1.8974   -0.1060 H   0  0  0  0  0  0  0  0  0  0  0  0
    1.1734   -3.6851   -0.2467 H   0  0  0  0  0  0  0  0  0  0  0  0
    3.2164   -1.8822   -1.6866 H   0  0  0  0  0  0  0  0  0  0  0  0
    3.0319   -3.6464   -2.0045 H   0  0  0  0  0  0  0  0  0  0  0  0
    3.6760   -4.2647    0.2088 H   0  0  0  0  0  0  0  0  0  0  0  0
    3.5762   -2.6030    0.8516 H   0  0  0  0  0  0  0  0  0  0  0  0
    5.8073   -3.8420   -0.6158 H   0  0  0  0  0  0  0  0  0  0  0  0
    7.7990   -2.5272   -1.0228 H   0  0  0  0  0  0  0  0  0  0  0  0
    8.9666   -0.3578   -1.0239 H   0  0  0  0  0  0  0  0  0  0  0  0
    7.7747    1.7065   -0.3970 H   0  0  0  0  0  0  0  0  0  0  0  0
    4.1600   -0.5398    0.1605 H   0  0  0  0  0  0  0  0  0  0  0  0
    4.1370    1.9470   -0.1122 H   0  0  0  0  0  0  0  0  0  0  0  0
    5.6655    2.8718    0.0003 H   0  0  0  0  0  0  0  0  0  0  0  0
    5.8361    1.5669    2.3513 H   0  0  0  0  0  0  0  0  0  0  0  0
    3.1040    3.6684    0.8643 H   0  0  0  0  0  0  0  0  0  0  0  0
    2.0936    5.3640    2.0280 H   0  0  0  0  0  0  0  0  0  0  0  0
    3.2888    4.9608    3.3154 H   0  0  0  0  0  0  0  0  0  0  0  0
    0.5357    4.9363    3.7209 H   0  0  0  0  0  0  0  0  0  0  0  0
    1.6564    3.8038    4.5884 H   0  0  0  0  0  0  0  0  0  0  0  0
    0.4867    2.0807    3.5854 H   0  0  0  0  0  0  0  0  0  0  0  0
   -0.3047    3.2107    2.4061 H   0  0  0  0  0  0  0  0  0  0  0  0
    0.2803    0.4879   -0.5390 H   0  0  0  0  0  0  0  0  0  0  0  0
    2.4236    1.3031   -1.5077 H   0  0  0  0  0  0  0  0  0  0  0  0
    1.8917    2.9971   -1.2459 H   0  0  0  0  0  0  0  0  0  0  0  0
   -0.0622    3.9004   -2.5575 H   0  0  0  0  0  0  0  0  0  0  0  0
   -1.4408    3.7187   -4.5955 H   0  0  0  0  0  0  0  0  0  0  0  0
    0.0486   -0.2523   -5.2676 H   0  0  0  0  0  0  0  0  0  0  0  0
    1.3996   -0.1040   -3.2092 H   0  0  0  0  0  0  0  0  0  0  0  0
   -0.2501    3.4419    0.0032 H   0  0  0  0  0  0  0  0  0  0  0  0
   -2.0053    0.3398   -1.1478 H   0  0  0  0  0  0  0  0  0  0  0  0
   -4.3959    1.3930   -0.3660 H   0  0  0  0  0  0  0  0  0  0  0  0
   -4.1690   -0.2710   -0.8617 H   0  0  0  0  0  0  0  0  0  0  0  0
   -3.9545   -1.0050    1.5473 H   0  0  0  0  0  0  0  0  0  0  0  0
   -6.4550    0.2314    0.3274 H   0  0  0  0  0  0  0  0  0  0  0  0
   -6.0305   -1.4766    0.6412 H   0  0  0  0  0  0  0  0  0  0  0  0
   -7.8073   -0.7313    2.1820 H   0  0  0  0  0  0  0  0  0  0  0  0
   -6.3047   -1.0913    3.1026 H   0  0  0  0  0  0  0  0  0  0  0  0
   -7.6594    1.5869    2.5527 H   0  0  0  0  0  0  0  0  0  0  0  0
   -6.9068    0.9644    4.0576 H   0  0  0  0  0  0  0  0  0  0  0  0
   -5.3093    2.5702    3.4531 H   0  0  0  0  0  0  0  0  0  0  0  0
   -5.6624    2.4288    1.6950 H   0  0  0  0  0  0  0  0  0  0  0  0
   -4.1258    0.3680    3.3875 H   0  0  0  0  0  0  0  0  0  0  0  0
   -3.3828    1.5607    2.3094 H   0  0  0  0  0  0  0  0  0  0  0  0
   -1.3845    0.1431    1.7727 H   0  0  0  0  0  0  0  0  0  0  0  0
  1  2  1  0
  2  3  1  0
  3  4  1  0
  3  5  1  0
  5  6  1  0
  6  7  1  0
  7  8  2  0
  7  9  1  0
  9 10  1  0
 10 11  1  0
 11 12  1  0
 12 13  1  0
 13 14  1  0
 14 15  2  0
 15 16  1  0
 16 17  2  0
 17 18  1  0
 17 19  1  0
 19 20  1  0
 20 21  1  0
 21 22  2  0
 21 23  1  0
 23 24  1  0
 24 25  1  0
 25 26  1  0
 26 27  1  0
 27 28  1  0
 28 29  2  0
 28 30  1  0
 30 31  1  0
 31 32  1  0
 32 33  2  0
 33 34  1  0
 34 35  2  0
 35 36  1  0
 35 37  1  0
 37 38  2  0
 30 39  1  0
 39 40  1  0
 40 41  2  0
 40 42  1  0
 42 43  1  0
 43 44  1  0
 44 45  1  0
 45 46  1  0
 46 47  1  0
 47 48  1  0
 48 49  1  0
 42 50  1  0
 50 51  1  0
 51 52  2  0
 51  5  1  0
 18 13  2  0
 27 23  1  0
 38 32  1  0
 49 44  1  0
  1 53  1  0
  1 54  1  0
  1 55  1  0
  2 56  1  0
  2 57  1  0
  3 58  1  1
  4 59  1  0
  4 60  1  0
  4 61  1  0
  5 62  1  6
  6 63  1  0
  9 64  1  0
  9 65  1  0
 10 66  1  0
 10 67  1  0
 11 68  1  0
 11 69  1  0
 12 70  1  0
 14 71  1  0
 15 72  1  0
 16 73  1  0
 18 74  1  0
 19 75  1  0
 19 76  1  0
 20 77  1  0
 23 78  1  6
 24 79  1  0
 24 80  1  0
 25 81  1  0
 25 82  1  0
 26 83  1  0
 26 84  1  0
 30 85  1  6
 31 86  1  0
 31 87  1  0
 33 88  1  0
 34 89  1  0
 37 90  1  0
 38 91  1  0
 39 92  1  0
 42 93  1  6
 43 94  1  0
 43 95  1  0
 44 96  1  0
 45 97  1  0
 45 98  1  0
 46 99  1  0
 46100  1  0
 47101  1  0
 47102  1  0
 48103  1  0
 48104  1  0
 49105  1  0
 49106  1  0
 50107  1  0
M  END
$$$$
