
     RDKit          3D

100105  0  0  0  0  0  0  0  0999 V2000
   -0.8706    5.5565    3.0693 C   0  0  0  0  0  0  0  0  0  0  0  0
   -0.4177    6.1378    1.7168 C   0  0  0  0  0  0  0  0  0  0  0  0
    0.7555    7.1011    1.9553 C   0  0  0  0  0  0  0  0  0  0  0  0
   -1.5690    6.9111    1.0453 C   0  0  0  0  0  0  0  0  0  0  0  0
    0.0605    5.0953    0.8541 O   0  0  0  0  0  0  0  0  0  0  0  0
   -0.6878    4.0139    0.3674 C   0  0  0  0  0  0  0  0  0  0  0  0
   -1.9044    3.8782    0.6703 O   0  0  0  0  0  0  0  0  0  0  0  0
   -0.0468    3.0557   -0.4827 N   0  0  0  0  0  0  0  0  0  0  0  0
   -0.7529    1.9019   -1.0439 C   0  0  1  0  0  0  0  0  0  0  0  0
   -1.3086    2.2799   -2.4422 C   0  0  0  0  0  0  0  0  0  0  0  0
   -2.3465    1.2779   -3.0104 C   0  0  0  0  0  0  0  0  0  0  0  0
   -3.7876    1.8260   -3.0747 C   0  0  0  0  0  0  0  0  0  0  0  0
   -4.3926    2.1425   -1.6866 C   0  0  0  0  0  0  0  0  0  0  0  0
   -5.6364    1.3229   -1.2753 C   0  0  0  0  0  0  0  0  0  0  0  0
   -5.6756   -0.1474   -1.6467 C   0  0  0  0  0  0  0  0  0  0  0  0
   -4.9257   -1.1307   -1.1154 C   0  0  0  0  0  0  0  0  0  0  0  0
   -3.6715   -0.9005   -0.3081 C   0  0  2  0  0  0  0  0  0  0  0  0
   -2.5404   -1.7789   -0.8610 C   0  0  0  0  0  0  0  0  0  0  0  0
   -3.0530   -2.0098    0.5490 C   0  0  2  0  0  0  0  0  0  0  0  0
   -3.8686   -3.2435    0.7973 C   0  0  0  0  0  0  0  0  0  0  0  0
   -4.9673   -3.1452    1.4072 O   0  0  0  0  0  0  0  0  0  0  0  0
   -3.3730   -4.5240    0.3927 N   0  0  0  0  0  0  0  0  0  0  0  0
   -4.3618   -5.9462    0.4299 S   0  0  0  0  0  6  0  0  0  0  0  0
   -5.1454   -5.9887    1.7149 O   0  0  0  0  0  0  0  0  0  0  0  0
   -3.4742   -7.1588    0.3708 O   0  0  0  0  0  0  0  0  0  0  0  0
   -5.4365   -5.9436   -1.0047 C   0  0  0  0  0  0  0  0  0  0  0  0
   -6.6956   -5.1051   -0.8528 C   0  0  0  0  0  0  0  0  0  0  0  0
   -6.7818   -6.6245   -0.8085 C   0  0  0  0  0  0  0  0  0  0  0  0
   -2.2304   -1.5247    1.6692 N   0  0  0  0  0  0  0  0  0  0  0  0
   -1.1668   -0.5610    1.5682 C   0  0  0  0  0  0  0  0  0  0  0  0
   -1.2941    0.5493    2.1531 O   0  0  0  0  0  0  0  0  0  0  0  0
    0.1620   -0.9117    0.9344 C   0  0  2  0  0  0  0  0  0  0  0  0
    1.2075   -1.2551    2.0009 C   0  0  0  0  0  0  0  0  0  0  0  0
    2.3645   -0.2599    1.8432 C   0  0  1  0  0  0  0  0  0  0  0  0
    3.5715   -0.9596    1.5382 O   0  0  0  0  0  0  0  0  0  0  0  0
    4.8352   -0.3563    1.5547 C   0  0  0  0  0  0  0  0  0  0  0  0
    4.9599    0.8282    1.9738 O   0  0  0  0  0  0  0  0  0  0  0  0
    5.9894   -1.0806    1.0843 N   0  0  0  0  0  0  0  0  0  0  0  0
    5.9026   -2.5154    0.7882 C   0  0  0  0  0  0  0  0  0  0  0  0
    6.5520   -2.7952   -0.5635 C   0  0  0  0  0  0  0  0  0  0  0  0
    7.9441   -2.2265   -0.6195 C   0  0  0  0  0  0  0  0  0  0  0  0
    8.8846   -2.7856   -1.4979 C   0  0  0  0  0  0  0  0  0  0  0  0
   10.1690   -2.2460   -1.5935 C   0  0  0  0  0  0  0  0  0  0  0  0
   10.5209   -1.1356   -0.8243 C   0  0  0  0  0  0  0  0  0  0  0  0
    9.5879   -0.5577    0.0385 C   0  0  0  0  0  0  0  0  0  0  0  0
    8.2921   -1.0898    0.1451 C   0  0  0  0  0  0  0  0  0  0  0  0
    7.3060   -0.4259    1.0820 C   0  0  0  0  0  0  0  0  0  0  0  0
    1.9848    0.6837    0.6996 C   0  0  0  0  0  0  0  0  0  0  0  0
    0.7036    0.2281    0.2034 N   0  0  0  0  0  0  0  0  0  0  0  0
    0.1721    0.7079   -1.0407 C   0  0  0  0  0  0  0  0  0  0  0  0
    0.4942    0.1317   -2.1142 O   0  0  0  0  0  0  0  0  0  0  0  0
   -0.0548    4.9499    3.5157 H   0  0  0  0  0  0  0  0  0  0  0  0
   -1.1342    6.3732    3.7754 H   0  0  0  0  0  0  0  0  0  0  0  0
   -1.7638    4.9091    2.9522 H   0  0  0  0  0  0  0  0  0  0  0  0
    1.6114    6.5579    2.4108 H   0  0  0  0  0  0  0  0  0  0  0  0
    0.4613    7.9322    2.6331 H   0  0  0  0  0  0  0  0  0  0  0  0
    1.0991    7.5354    0.9917 H   0  0  0  0  0  0  0  0  0  0  0  0
   -2.4837    6.2893    0.9624 H   0  0  0  0  0  0  0  0  0  0  0  0
   -1.2707    7.2312    0.0237 H   0  0  0  0  0  0  0  0  0  0  0  0
   -1.8328    7.8134    1.6387 H   0  0  0  0  0  0  0  0  0  0  0  0
    0.9291    3.2554   -0.7990 H   0  0  0  0  0  0  0  0  0  0  0  0
   -1.5884    1.6334   -0.3751 H   0  0  0  0  0  0  0  0  0  0  0  0
   -1.7632    3.2932   -2.3845 H   0  0  0  0  0  0  0  0  0  0  0  0
   -0.4581    2.3716   -3.1548 H   0  0  0  0  0  0  0  0  0  0  0  0
   -2.3450    0.3344   -2.4465 H   0  0  0  0  0  0  0  0  0  0  0  0
   -2.0410    1.0123   -4.0466 H   0  0  0  0  0  0  0  0  0  0  0  0
   -4.4210    1.1007   -3.6265 H   0  0  0  0  0  0  0  0  0  0  0  0
   -3.7828    2.7510   -3.6912 H   0  0  0  0  0  0  0  0  0  0  0  0
   -4.6962    3.2135   -1.6858 H   0  0  0  0  0  0  0  0  0  0  0  0
   -3.6384    2.0894   -0.8892 H   0  0  0  0  0  0  0  0  0  0  0  0
   -5.7848    1.4180   -0.1786 H   0  0  0  0  0  0  0  0  0  0  0  0
   -6.5202    1.8008   -1.7503 H   0  0  0  0  0  0  0  0  0  0  0  0
   -6.4879   -0.4508   -2.3018 H   0  0  0  0  0  0  0  0  0  0  0  0
   -5.1860   -2.1529   -1.3852 H   0  0  0  0  0  0  0  0  0  0  0  0
   -3.3666    0.1207   -0.0262 H   0  0  0  0  0  0  0  0  0  0  0  0
   -1.6123   -1.2189   -1.0040 H   0  0  0  0  0  0  0  0  0  0  0  0
   -2.8353   -2.5536   -1.6028 H   0  0  0  0  0  0  0  0  0  0  0  0
   -2.4261   -4.5976   -0.0444 H   0  0  0  0  0  0  0  0  0  0  0  0
   -5.0092   -5.9867   -2.0291 H   0  0  0  0  0  0  0  0  0  0  0  0
   -6.8572   -4.6200    0.1336 H   0  0  0  0  0  0  0  0  0  0  0  0
   -7.0685   -4.6600   -1.7995 H   0  0  0  0  0  0  0  0  0  0  0  0
   -7.2109   -7.0763   -1.7308 H   0  0  0  0  0  0  0  0  0  0  0  0
   -6.9920   -7.0308    0.2035 H   0  0  0  0  0  0  0  0  0  0  0  0
   -2.6600   -1.6260    2.6155 H   0  0  0  0  0  0  0  0  0  0  0  0
    0.0624   -1.7859    0.2568 H   0  0  0  0  0  0  0  0  0  0  0  0
    1.5650   -2.2985    1.8511 H   0  0  0  0  0  0  0  0  0  0  0  0
    0.7949   -1.1927    3.0330 H   0  0  0  0  0  0  0  0  0  0  0  0
    2.4911    0.3120    2.7893 H   0  0  0  0  0  0  0  0  0  0  0  0
    6.4288   -3.0869    1.5861 H   0  0  0  0  0  0  0  0  0  0  0  0
    4.8489   -2.8670    0.7529 H   0  0  0  0  0  0  0  0  0  0  0  0
    6.5747   -3.8944   -0.7282 H   0  0  0  0  0  0  0  0  0  0  0  0
    5.9422   -2.3319   -1.3702 H   0  0  0  0  0  0  0  0  0  0  0  0
    8.6226   -3.6398   -2.1087 H   0  0  0  0  0  0  0  0  0  0  0  0
   10.8932   -2.6878   -2.2654 H   0  0  0  0  0  0  0  0  0  0  0  0
   11.5158   -0.7168   -0.9022 H   0  0  0  0  0  0  0  0  0  0  0  0
    9.8734    0.3079    0.6240 H   0  0  0  0  0  0  0  0  0  0  0  0
    7.1956    0.6327    0.7606 H   0  0  0  0  0  0  0  0  0  0  0  0
    7.7147   -0.4361    2.1155 H   0  0  0  0  0  0  0  0  0  0  0  0
    1.8933    1.7263    1.0739 H   0  0  0  0  0  0  0  0  0  0  0  0
    2.7366    0.6506   -0.1191 H   0  0  0  0  0  0  0  0  0  0  0  0
  1  2  1  0
  2  3  1  0
  2  4  1  0
  2  5  1  0
  5  6  1  0
  6  7  2  0
  6  8  1  0
  8  9  1  0
  9 10  1  0
 10 11  1  0
 11 12  1  0
 12 13  1  0
 13 14  1  0
 14 15  1  0
 15 16  2  0
 16 17  1  0
 17 18  1  0
 18 19  1  0
 19 20  1  1
 20 21  2  0
 20 22  1  0
 22 23  1  0
 23 24  2  0
 23 25  2  0
 23 26  1  0
 26 27  1  0
 27 28  1  0
 19 29  1  0
 29 30  1  0
 30 31  2  0
 30 32  1  0
 32 33  1  0
 33 34  1  0
 34 35  1  0
 35 36  1  0
 36 37  2  0
 36 38  1  0
 38 39  1  0
 39 40  1  0
 40 41  1  0
 41 42  2  0
 42 43  1  0
 43 44  2  0
 44 45  1  0
 45 46  2  0
 46 47  1  0
 34 48  1  0
 48 49  1  0
 49 50  1  0
 50 51  2  0
 50  9  1  0
 19 17  1  0
 28 26  1  0
 49 32  1  0
 47 38  1  0
 46 41  1  0
  1 52  1  0
  1 53  1  0
  1 54  1  0
  3 55  1  0
  3 56  1  0
  3 57  1  0
  4 58  1  0
  4 59  1  0
  4 60  1  0
  8 61  1  0
  9 62  1  1
 10 63  1  0
 10 64  1  0
 11 65  1  0
 11 66  1  0
 12 67  1  0
 12 68  1  0
 13 69  1  0
 13 70  1  0
 14 71  1  0
 14 72  1  0
 15 73  1  0
 16 74  1  0
 17 75  1  1
 18 76  1  0
 18 77  1  0
 22 78  1  0
 26 79  1  0
 27 80  1  0
 27 81  1  0
 28 82  1  0
 28 83  1  0
 29 84  1  0
 32 85  1  6
 33 86  1  0
 33 87  1  0
 34 88  1  1
 39 89  1  0
 39 90  1  0
 40 91  1  0
 40 92  1  0
 42 93  1  0
 43 94  1  0
 44 95  1  0
 45 96  1  0
 47 97  1  0
 47 98  1  0
 48 99  1  0
 48100  1  0
M  END
$$$$
