
     RDKit          3D

 95 97  0  0  0  0  0  0  0  0999 V2000
    7.4889    2.5367   -2.7335 C   0  0  0  0  0  0  0  0  0  0  0  0
    7.3877    1.0166   -2.9001 C   0  0  0  0  0  0  0  0  0  0  0  0
    6.4360    0.6442   -4.0434 C   0  0  0  0  0  0  0  0  0  0  0  0
    6.9833    0.3529   -1.5930 C   0  0  0  0  0  0  0  0  0  0  0  0
    7.8676   -0.5364   -0.9607 C   0  0  0  0  0  0  0  0  0  0  0  0
    7.5340   -1.1075    0.2688 C   0  0  0  0  0  0  0  0  0  0  0  0
    6.3129   -0.8046    0.8842 C   0  0  0  0  0  0  0  0  0  0  0  0
    5.3994    0.0646    0.2524 C   0  0  0  0  0  0  0  0  0  0  0  0
    5.7401    0.6341   -0.9851 C   0  0  0  0  0  0  0  0  0  0  0  0
    4.0653    0.4015    0.9060 C   0  0  1  0  0  0  0  0  0  0  0  0
    2.9602   -0.3742    0.2997 N   0  0  0  0  0  0  0  0  0  0  0  0
    1.6483    0.3041    0.3597 C   0  0  0  0  0  0  0  0  0  0  0  0
    0.6194   -0.6152    1.0514 C   0  0  1  0  0  0  0  0  0  0  0  0
    0.8828   -0.6486    2.4246 O   0  0  0  0  0  0  0  0  0  0  0  0
   -0.8799   -0.2149    0.8237 C   0  0  2  0  0  0  0  0  0  0  0  0
   -1.5210   -1.0018   -0.3702 C   0  0  0  0  0  0  0  0  0  0  0  0
   -2.1753   -2.3590    0.0451 C   0  0  2  0  0  0  0  0  0  0  0  0
   -1.1322   -3.4074    0.4695 C   0  0  0  0  0  0  0  0  0  0  0  0
   -3.0447   -2.9547   -1.0959 C   0  0  0  0  0  0  0  0  0  0  0  0
   -4.3743   -2.2244   -1.3772 C   0  0  0  0  0  0  0  0  0  0  0  0
   -5.2661   -2.0738   -0.1230 C   0  0  0  0  0  0  0  0  0  0  0  0
   -6.7770   -2.0056   -0.4259 C   0  0  0  0  0  0  0  0  0  0  0  0
   -7.1963   -0.9449   -1.4674 C   0  0  0  0  0  0  0  0  0  0  0  0
   -7.5972    0.4184   -0.8715 C   0  0  0  0  0  0  0  0  0  0  0  0
   -6.4779    1.2009   -0.1550 C   0  0  0  0  0  0  0  0  0  0  0  0
   -5.2321    1.4607   -1.0360 C   0  0  0  0  0  0  0  0  0  0  0  0
   -4.8146    2.9028   -1.0168 C   0  0  0  0  0  0  0  0  0  0  0  0
   -5.2339    3.6438   -1.9483 O   0  0  0  0  0  0  0  0  0  0  0  0
   -4.0449    3.4889    0.0571 N   0  0  0  0  0  0  0  0  0  0  0  0
   -4.2183    4.9180    0.3541 C   0  0  0  0  0  0  0  0  0  0  0  0
   -3.0424    2.7537    0.8674 C   0  0  1  0  0  0  0  0  0  0  0  0
   -3.7120    1.8800    1.9421 C   0  0  0  0  0  0  0  0  0  0  0  0
   -2.0457    1.9656    0.0441 C   0  0  0  0  0  0  0  0  0  0  0  0
   -2.0262    2.0470   -1.2119 O   0  0  0  0  0  0  0  0  0  0  0  0
   -0.9982    1.2525    0.7178 N   0  0  0  0  0  0  0  0  0  0  0  0
    4.1297    0.1532    2.4308 C   0  0  0  0  0  0  0  0  0  0  0  0
    4.7798   -1.2135    2.8025 C   0  0  0  0  0  0  0  0  0  0  0  0
    3.8992   -2.4157    2.3991 C   0  0  0  0  0  0  0  0  0  0  0  0
    5.0126   -1.2636    4.3214 C   0  0  0  0  0  0  0  0  0  0  0  0
    6.0453   -1.3350    2.1555 O   0  0  0  0  0  0  0  0  0  0  0  0
    8.2109    2.7827   -1.9297 H   0  0  0  0  0  0  0  0  0  0  0  0
    6.4991    2.9793   -2.4789 H   0  0  0  0  0  0  0  0  0  0  0  0
    7.8535    3.0006   -3.6749 H   0  0  0  0  0  0  0  0  0  0  0  0
    8.3991    0.6555   -3.1972 H   0  0  0  0  0  0  0  0  0  0  0  0
    6.8086    1.0780   -4.9974 H   0  0  0  0  0  0  0  0  0  0  0  0
    5.4110    1.0311   -3.8619 H   0  0  0  0  0  0  0  0  0  0  0  0
    6.3898   -0.4593   -4.1584 H   0  0  0  0  0  0  0  0  0  0  0  0
    8.8275   -0.7703   -1.4028 H   0  0  0  0  0  0  0  0  0  0  0  0
    8.2360   -1.7725    0.7583 H   0  0  0  0  0  0  0  0  0  0  0  0
    5.0440    1.3106   -1.4698 H   0  0  0  0  0  0  0  0  0  0  0  0
    3.8976    1.4931    0.7498 H   0  0  0  0  0  0  0  0  0  0  0  0
    3.1795   -0.6026   -0.6985 H   0  0  0  0  0  0  0  0  0  0  0  0
    1.3074    0.5297   -0.6755 H   0  0  0  0  0  0  0  0  0  0  0  0
    1.7032    1.2699    0.9040 H   0  0  0  0  0  0  0  0  0  0  0  0
    0.8084   -1.6196    0.6247 H   0  0  0  0  0  0  0  0  0  0  0  0
    0.5136   -1.4952    2.7785 H   0  0  0  0  0  0  0  0  0  0  0  0
   -1.4491   -0.5021    1.7355 H   0  0  0  0  0  0  0  0  0  0  0  0
   -2.3225   -0.3952   -0.8143 H   0  0  0  0  0  0  0  0  0  0  0  0
   -0.7802   -1.1591   -1.1849 H   0  0  0  0  0  0  0  0  0  0  0  0
   -2.8292   -2.1946    0.9290 H   0  0  0  0  0  0  0  0  0  0  0  0
   -1.6261   -4.3844    0.6823 H   0  0  0  0  0  0  0  0  0  0  0  0
   -0.6406   -3.1054    1.4143 H   0  0  0  0  0  0  0  0  0  0  0  0
   -0.3751   -3.5628   -0.3356 H   0  0  0  0  0  0  0  0  0  0  0  0
   -3.3073   -4.0089   -0.8586 H   0  0  0  0  0  0  0  0  0  0  0  0
   -2.4535   -2.9805   -2.0349 H   0  0  0  0  0  0  0  0  0  0  0  0
   -4.9199   -2.8101   -2.1501 H   0  0  0  0  0  0  0  0  0  0  0  0
   -4.1682   -1.2329   -1.8248 H   0  0  0  0  0  0  0  0  0  0  0  0
   -5.1180   -2.9548    0.5379 H   0  0  0  0  0  0  0  0  0  0  0  0
   -4.9463   -1.1860    0.4562 H   0  0  0  0  0  0  0  0  0  0  0  0
   -7.3300   -1.8490    0.5286 H   0  0  0  0  0  0  0  0  0  0  0  0
   -7.0901   -3.0056   -0.8135 H   0  0  0  0  0  0  0  0  0  0  0  0
   -8.1025   -1.3352   -1.9802 H   0  0  0  0  0  0  0  0  0  0  0  0
   -6.4459   -0.8234   -2.2738 H   0  0  0  0  0  0  0  0  0  0  0  0
   -7.9914    1.0530   -1.6924 H   0  0  0  0  0  0  0  0  0  0  0  0
   -8.4375    0.2669   -0.1553 H   0  0  0  0  0  0  0  0  0  0  0  0
   -6.9190    2.1682    0.1797 H   0  0  0  0  0  0  0  0  0  0  0  0
   -6.1958    0.6656    0.7743 H   0  0  0  0  0  0  0  0  0  0  0  0
   -4.3934    0.8290   -0.7032 H   0  0  0  0  0  0  0  0  0  0  0  0
   -5.4333    1.1886   -2.0912 H   0  0  0  0  0  0  0  0  0  0  0  0
   -5.0602    5.3593   -0.2142 H   0  0  0  0  0  0  0  0  0  0  0  0
   -4.4511    5.0438    1.4405 H   0  0  0  0  0  0  0  0  0  0  0  0
   -3.2840    5.4801    0.1152 H   0  0  0  0  0  0  0  0  0  0  0  0
   -2.4273    3.5011    1.4259 H   0  0  0  0  0  0  0  0  0  0  0  0
   -4.6159    2.3808    2.3476 H   0  0  0  0  0  0  0  0  0  0  0  0
   -3.9950    0.8906    1.5435 H   0  0  0  0  0  0  0  0  0  0  0  0
   -3.0072    1.7067    2.7851 H   0  0  0  0  0  0  0  0  0  0  0  0
   -0.5066    1.8086    1.4565 H   0  0  0  0  0  0  0  0  0  0  0  0
    4.7415    0.9719    2.8781 H   0  0  0  0  0  0  0  0  0  0  0  0
    3.1241    0.2467    2.8862 H   0  0  0  0  0  0  0  0  0  0  0  0
    2.8752   -2.3145    2.8085 H   0  0  0  0  0  0  0  0  0  0  0  0
    3.8445   -2.5153    1.2985 H   0  0  0  0  0  0  0  0  0  0  0  0
    4.3289   -3.3619    2.7813 H   0  0  0  0  0  0  0  0  0  0  0  0
    5.5133   -2.2165    4.6076 H   0  0  0  0  0  0  0  0  0  0  0  0
    4.0475   -1.1862    4.8667 H   0  0  0  0  0  0  0  0  0  0  0  0
    5.6757   -0.4265    4.6320 H   0  0  0  0  0  0  0  0  0  0  0  0
  1  2  1  0
  2  3  1  0
  2  4  1  0
  4  5  2  0
  5  6  1  0
  6  7  2  0
  7  8  1  0
  8  9  2  0
  8 10  1  0
 10 11  1  0
 11 12  1  0
 12 13  1  0
 13 14  1  0
 13 15  1  0
 15 16  1  0
 16 17  1  0
 17 18  1  0
 17 19  1  0
 19 20  1  0
 20 21  1  0
 21 22  1  0
 22 23  1  0
 23 24  1  0
 24 25  1  0
 25 26  1  0
 26 27  1  0
 27 28  2  0
 27 29  1  0
 29 30  1  0
 29 31  1  0
 31 32  1  0
 31 33  1  0
 33 34  2  0
 33 35  1  0
 10 36  1  0
 36 37  1  0
 37 38  1  0
 37 39  1  0
 37 40  1  0
  9  4  1  0
 35 15  1  0
 40  7  1  0
  1 41  1  0
  1 42  1  0
  1 43  1  0
  2 44  1  0
  3 45  1  0
  3 46  1  0
  3 47  1  0
  5 48  1  0
  6 49  1  0
  9 50  1  0
 10 51  1  1
 11 52  1  0
 12 53  1  0
 12 54  1  0
 13 55  1  6
 14 56  1  0
 15 57  1  1
 16 58  1  0
 16 59  1  0
 17 60  1  1
 18 61  1  0
 18 62  1  0
 18 63  1  0
 19 64  1  0
 19 65  1  0
 20 66  1  0
 20 67  1  0
 21 68  1  0
 21 69  1  0
 22 70  1  0
 22 71  1  0
 23 72  1  0
 23 73  1  0
 24 74  1  0
 24 75  1  0
 25 76  1  0
 25 77  1  0
 26 78  1  0
 26 79  1  0
 30 80  1  0
 30 81  1  0
 30 82  1  0
 31 83  1  1
 32 84  1  0
 32 85  1  0
 32 86  1  0
 35 87  1  0
 36 88  1  0
 36 89  1  0
 38 90  1  0
 38 91  1  0
 38 92  1  0
 39 93  1  0
 39 94  1  0
 39 95  1  0
M  END
$$$$
