
     RDKit          3D

 80 82  0  0  0  0  0  0  0  0999 V2000
   -6.3120   -3.5190    0.9804 C   0  0  0  0  0  0  0  0  0  0  0  0
   -5.0693   -2.6589    1.2188 C   0  0  0  0  0  0  0  0  0  0  0  0
   -4.6654   -1.8236   -0.0224 C   0  0  2  0  0  0  0  0  0  0  0  0
   -4.3014   -2.7261   -1.2152 C   0  0  0  0  0  0  0  0  0  0  0  0
   -3.5436   -0.7934    0.3326 C   0  0  2  0  0  0  0  0  0  0  0  0
   -3.2591    0.1331   -0.7893 N   0  0  0  0  0  0  0  0  0  0  0  0
   -2.9819    1.5169   -0.3665 C   0  0  0  0  0  0  0  0  0  0  0  0
   -1.5590    1.6808    0.1782 C   0  0  0  0  0  0  0  0  0  0  0  0
   -1.3130    3.0238    0.5951 O   0  0  0  0  0  0  0  0  0  0  0  0
   -1.0155    4.0579   -0.3008 C   0  0  0  0  0  0  0  0  0  0  0  0
   -2.0525    4.6955   -1.0004 C   0  0  0  0  0  0  0  0  0  0  0  0
   -1.7693    5.7131   -1.9152 C   0  0  0  0  0  0  0  0  0  0  0  0
   -0.4488    6.1151   -2.1279 C   0  0  0  0  0  0  0  0  0  0  0  0
    0.5878    5.5151   -1.4092 C   0  0  0  0  0  0  0  0  0  0  0  0
    0.3166    4.4964   -0.4772 C   0  0  0  0  0  0  0  0  0  0  0  0
    1.4554    3.9049    0.3192 C   0  0  0  0  0  0  0  0  0  0  0  0
    2.2216    2.8507   -0.4930 C   0  0  0  0  0  0  0  0  0  0  0  0
    3.4901    2.3887    0.2418 C   0  0  0  0  0  0  0  0  0  0  0  0
    3.1599    1.7362    1.5100 N   0  0  0  0  0  0  0  0  0  0  0  0
    2.5040    0.4635    1.6357 C   0  0  0  0  0  0  0  0  0  0  0  0
    2.0423    0.1341    2.7613 O   0  0  0  0  0  0  0  0  0  0  0  0
    2.3977   -0.5196    0.4868 C   0  0  1  0  0  0  0  0  0  0  0  0
    3.2007   -1.7981    0.7840 C   0  0  0  0  0  0  0  0  0  0  0  0
    4.6823   -1.5226    0.8159 C   0  0  0  0  0  0  0  0  0  0  0  0
    5.4036   -1.4151   -0.3839 C   0  0  0  0  0  0  0  0  0  0  0  0
    6.7727   -1.1342   -0.3612 C   0  0  0  0  0  0  0  0  0  0  0  0
    7.4313   -0.9526    0.8584 C   0  0  0  0  0  0  0  0  0  0  0  0
    9.1538   -0.6112    0.8848 Cl  0  0  0  0  0  0  0  0  0  0  0  0
    6.7159   -1.0432    2.0569 C   0  0  0  0  0  0  0  0  0  0  0  0
    5.3463   -1.3229    2.0372 C   0  0  0  0  0  0  0  0  0  0  0  0
    0.9929   -0.8680    0.2539 N   0  0  0  0  0  0  0  0  0  0  0  0
    0.5166   -1.2664   -1.0452 C   0  0  0  0  0  0  0  0  0  0  0  0
    1.2385   -1.0544   -2.0580 O   0  0  0  0  0  0  0  0  0  0  0  0
   -0.8519   -1.8916   -1.2483 C   0  0  1  0  0  0  0  0  0  0  0  0
   -0.7677   -3.0326   -2.2800 C   0  0  0  0  0  0  0  0  0  0  0  0
   -1.4617   -2.3551    0.0209 N   0  0  0  0  0  0  0  0  0  0  0  0
   -0.9626   -3.5878    0.6510 C   0  0  0  0  0  0  0  0  0  0  0  0
   -2.2771   -1.4750    0.8345 C   0  0  0  0  0  0  0  0  0  0  0  0
   -1.9921   -1.3422    2.0566 O   0  0  0  0  0  0  0  0  0  0  0  0
   -6.6455   -3.9617    1.9420 H   0  0  0  0  0  0  0  0  0  0  0  0
   -7.1415   -2.9050    0.5709 H   0  0  0  0  0  0  0  0  0  0  0  0
   -6.0831   -4.3484    0.2805 H   0  0  0  0  0  0  0  0  0  0  0  0
   -5.2893   -1.9739    2.0667 H   0  0  0  0  0  0  0  0  0  0  0  0
   -4.2313   -3.3199    1.5299 H   0  0  0  0  0  0  0  0  0  0  0  0
   -5.5623   -1.2347   -0.3200 H   0  0  0  0  0  0  0  0  0  0  0  0
   -3.6286   -3.5481   -0.8958 H   0  0  0  0  0  0  0  0  0  0  0  0
   -3.8153   -2.1473   -2.0261 H   0  0  0  0  0  0  0  0  0  0  0  0
   -5.2197   -3.1793   -1.6426 H   0  0  0  0  0  0  0  0  0  0  0  0
   -3.9552   -0.2051    1.1871 H   0  0  0  0  0  0  0  0  0  0  0  0
   -4.0956    0.1851   -1.4154 H   0  0  0  0  0  0  0  0  0  0  0  0
   -3.0749    2.1643   -1.2638 H   0  0  0  0  0  0  0  0  0  0  0  0
   -3.7318    1.8716    0.3757 H   0  0  0  0  0  0  0  0  0  0  0  0
   -0.8179    1.3758   -0.5902 H   0  0  0  0  0  0  0  0  0  0  0  0
   -1.4264    1.0354    1.0684 H   0  0  0  0  0  0  0  0  0  0  0  0
   -3.0833    4.4173   -0.8213 H   0  0  0  0  0  0  0  0  0  0  0  0
   -2.5737    6.1965   -2.4552 H   0  0  0  0  0  0  0  0  0  0  0  0
   -0.2310    6.9030   -2.8374 H   0  0  0  0  0  0  0  0  0  0  0  0
    1.6042    5.8506   -1.5734 H   0  0  0  0  0  0  0  0  0  0  0  0
    2.1484    4.7224    0.6140 H   0  0  0  0  0  0  0  0  0  0  0  0
    1.0776    3.4530    1.2610 H   0  0  0  0  0  0  0  0  0  0  0  0
    2.5243    3.2805   -1.4728 H   0  0  0  0  0  0  0  0  0  0  0  0
    1.5582    1.9835   -0.6927 H   0  0  0  0  0  0  0  0  0  0  0  0
    4.0925    1.7110   -0.3973 H   0  0  0  0  0  0  0  0  0  0  0  0
    4.1330    3.2739    0.4438 H   0  0  0  0  0  0  0  0  0  0  0  0
    3.3746    2.2604    2.3888 H   0  0  0  0  0  0  0  0  0  0  0  0
    2.8092   -0.0710   -0.4367 H   0  0  0  0  0  0  0  0  0  0  0  0
    2.9956   -2.5537   -0.0058 H   0  0  0  0  0  0  0  0  0  0  0  0
    2.8656   -2.2476    1.7441 H   0  0  0  0  0  0  0  0  0  0  0  0
    4.9044   -1.5458   -1.3353 H   0  0  0  0  0  0  0  0  0  0  0  0
    7.3205   -1.0588   -1.2917 H   0  0  0  0  0  0  0  0  0  0  0  0
    7.2201   -0.9000    3.0041 H   0  0  0  0  0  0  0  0  0  0  0  0
    4.8045   -1.3844    2.9719 H   0  0  0  0  0  0  0  0  0  0  0  0
    0.3782   -0.9823    1.0864 H   0  0  0  0  0  0  0  0  0  0  0  0
   -1.4852   -1.1202   -1.7156 H   0  0  0  0  0  0  0  0  0  0  0  0
   -1.7369   -3.5677   -2.3542 H   0  0  0  0  0  0  0  0  0  0  0  0
    0.0260   -3.7611   -2.0040 H   0  0  0  0  0  0  0  0  0  0  0  0
   -0.5269   -2.6222   -3.2852 H   0  0  0  0  0  0  0  0  0  0  0  0
   -1.5279   -3.8260    1.5770 H   0  0  0  0  0  0  0  0  0  0  0  0
    0.1136   -3.4797    0.9052 H   0  0  0  0  0  0  0  0  0  0  0  0
   -1.0932   -4.4526   -0.0295 H   0  0  0  0  0  0  0  0  0  0  0  0
  1  2  1  0
  2  3  1  0
  3  4  1  0
  3  5  1  0
  5  6  1  0
  6  7  1  0
  7  8  1  0
  8  9  1  0
  9 10  1  0
 10 11  2  0
 11 12  1  0
 12 13  2  0
 13 14  1  0
 14 15  2  0
 15 16  1  0
 16 17  1  0
 17 18  1  0
 18 19  1  0
 19 20  1  0
 20 21  2  0
 20 22  1  0
 22 23  1  0
 23 24  1  0
 24 25  2  0
 25 26  1  0
 26 27  2  0
 27 28  1  0
 27 29  1  0
 29 30  2  0
 22 31  1  0
 31 32  1  0
 32 33  2  0
 32 34  1  0
 34 35  1  0
 34 36  1  0
 36 37  1  0
 36 38  1  0
 38 39  2  0
 38  5  1  0
 15 10  1  0
 30 24  1  0
  1 40  1  0
  1 41  1  0
  1 42  1  0
  2 43  1  0
  2 44  1  0
  3 45  1  6
  4 46  1  0
  4 47  1  0
  4 48  1  0
  5 49  1  1
  6 50  1  0
  7 51  1  0
  7 52  1  0
  8 53  1  0
  8 54  1  0
 11 55  1  0
 12 56  1  0
 13 57  1  0
 14 58  1  0
 16 59  1  0
 16 60  1  0
 17 61  1  0
 17 62  1  0
 18 63  1  0
 18 64  1  0
 19 65  1  0
 22 66  1  6
 23 67  1  0
 23 68  1  0
 25 69  1  0
 26 70  1  0
 29 71  1  0
 30 72  1  0
 31 73  1  0
 34 74  1  6
 35 75  1  0
 35 76  1  0
 35 77  1  0
 37 78  1  0
 37 79  1  0
 37 80  1  0
M  END
$$$$
