
     RDKit          3D

103108  0  0  0  0  0  0  0  0999 V2000
    5.1491    3.4603    3.1262 C   0  0  0  0  0  0  0  0  0  0  0  0
    5.4024    2.2712    2.2593 C   0  0  0  0  0  0  0  0  0  0  0  0
    6.5708    2.0292    1.8635 O   0  0  0  0  0  0  0  0  0  0  0  0
    4.3072    1.4215    1.8728 N   0  0  0  0  0  0  0  0  0  0  0  0
    4.4765    0.3042    0.9315 C   0  0  1  0  0  0  0  0  0  0  0  0
    4.9175   -0.9735    1.7290 C   0  0  0  0  0  0  0  0  0  0  0  0
    3.9214   -2.1087    1.7971 C   0  0  0  0  0  0  0  0  0  0  0  0
    3.9902   -3.1489    0.8559 C   0  0  0  0  0  0  0  0  0  0  0  0
    3.0097   -4.1417    0.8333 C   0  0  0  0  0  0  0  0  0  0  0  0
    1.9716   -4.1328    1.7718 C   0  0  0  0  0  0  0  0  0  0  0  0
    1.9616   -3.1621    2.7823 C   0  0  0  0  0  0  0  0  0  0  0  0
    2.9128   -2.1355    2.7782 C   0  0  0  0  0  0  0  0  0  0  0  0
    0.9287   -5.0603    1.6649 O   0  0  0  0  0  0  0  0  0  0  0  0
    0.0866   -5.0338    0.5448 C   0  0  0  0  0  0  0  0  0  0  0  0
   -0.6743   -3.9969    0.2398 C   0  0  0  0  0  0  0  0  0  0  0  0
   -0.8019   -2.8533    1.0978 N   0  0  0  0  0  0  0  0  0  0  0  0
   -1.4353   -2.8069    2.2831 C   0  0  0  0  0  0  0  0  0  0  0  0
   -1.3732   -1.5874    2.8585 N   0  0  0  0  0  0  0  0  0  0  0  0
   -0.6443   -0.8547    1.9883 C   0  0  0  0  0  0  0  0  0  0  0  0
   -0.2820   -1.6292    0.9109 C   0  0  0  0  0  0  0  0  0  0  0  0
   -0.4232    0.6257    2.1034 C   0  0  0  0  0  0  0  0  0  0  0  0
   -1.5737    1.4188    1.4228 C   0  0  1  0  0  0  0  0  0  0  0  0
   -2.6074    1.8595    2.4428 C   0  0  0  0  0  0  0  0  0  0  0  0
   -2.2476    2.6440    3.3586 O   0  0  0  0  0  0  0  0  0  0  0  0
   -3.9841    1.4338    2.3837 N   0  0  0  0  0  0  0  0  0  0  0  0
   -5.0122    2.2537    3.0373 C   0  0  0  0  0  0  0  0  0  0  0  0
   -4.3602    0.1599    1.7626 C   0  0  0  0  0  0  0  0  0  0  0  0
   -1.0446    2.6054    0.7348 N   0  0  0  0  0  0  0  0  0  0  0  0
   -1.7881    3.2888   -0.2906 C   0  0  0  0  0  0  0  0  0  0  0  0
   -2.3679    4.3754   -0.0067 O   0  0  0  0  0  0  0  0  0  0  0  0
   -1.8632    2.7719   -1.7116 C   0  0  2  0  0  0  0  0  0  0  0  0
   -3.1096    1.8692   -1.8866 C   0  0  0  0  0  0  0  0  0  0  0  0
   -3.1857    1.0881   -3.2133 C   0  0  0  0  0  0  0  0  0  0  0  0
   -4.3235    0.0929   -3.1468 C   0  0  0  0  0  0  0  0  0  0  0  0
   -5.4729    0.4714   -3.5111 O   0  0  0  0  0  0  0  0  0  0  0  0
   -4.1769   -1.2089   -2.5375 N   0  0  0  0  0  0  0  0  0  0  0  0
   -3.0935   -2.1463   -2.8931 C   0  0  2  0  0  0  0  0  0  0  0  0
   -3.5177   -3.6216   -2.6821 C   0  0  0  0  0  0  0  0  0  0  0  0
   -3.1328   -4.2376   -0.9809 S   0  0  0  0  0  0  0  0  0  0  0  0
   -1.2875   -4.1063   -1.1257 C   0  0  1  0  0  0  0  0  0  0  0  0
   -0.9023   -2.9317   -1.9186 N   0  0  0  0  0  0  0  0  0  0  0  0
   -1.8517   -1.8838   -2.0965 C   0  0  0  0  0  0  0  0  0  0  0  0
   -1.7217   -0.8226   -1.4402 O   0  0  0  0  0  0  0  0  0  0  0  0
   -0.6564   -5.4217   -1.6850 C   0  0  0  0  0  0  0  0  0  0  0  0
    0.3103   -5.1362   -2.6392 F   0  0  0  0  0  0  0  0  0  0  0  0
   -1.5976   -6.2603   -2.2608 F   0  0  0  0  0  0  0  0  0  0  0  0
    0.0018   -6.1133   -0.4726 C   0  0  0  0  0  0  0  0  0  0  0  0
   -0.7948   -7.1399    0.0071 F   0  0  0  0  0  0  0  0  0  0  0  0
    1.2568   -6.6049   -0.7887 F   0  0  0  0  0  0  0  0  0  0  0  0
   -0.6169    2.0871   -2.0701 N   0  0  0  0  0  0  0  0  0  0  0  0
    0.4757    2.7162   -2.7460 C   0  0  0  0  0  0  0  0  0  0  0  0
    1.1681    2.0258   -3.5425 O   0  0  0  0  0  0  0  0  0  0  0  0
    0.8381    4.1605   -2.4757 C   0  0  2  0  0  0  0  0  0  0  0  0
    1.9363    4.7106   -3.3928 C   0  0  0  0  0  0  0  0  0  0  0  0
    1.1720    4.3872   -1.0634 N   0  0  0  0  0  0  0  0  0  0  0  0
    2.1939    3.7406   -0.2766 C   0  0  0  0  0  0  0  0  0  0  0  0
    2.3872    4.1416    0.9024 O   0  0  0  0  0  0  0  0  0  0  0  0
    3.0122    2.5771   -0.7619 C   0  0  0  0  0  0  0  0  0  0  0  0
    2.4417    1.3223   -0.2758 N   0  0  0  0  0  0  0  0  0  0  0  0
    3.2521    0.1866    0.0310 C   0  0  0  0  0  0  0  0  0  0  0  0
    2.9676   -0.9029   -0.5265 O   0  0  0  0  0  0  0  0  0  0  0  0
    4.7491    3.1293    4.1084 H   0  0  0  0  0  0  0  0  0  0  0  0
    4.4126    4.1311    2.6356 H   0  0  0  0  0  0  0  0  0  0  0  0
    6.0908    4.0242    3.2868 H   0  0  0  0  0  0  0  0  0  0  0  0
    3.3848    1.5504    2.3503 H   0  0  0  0  0  0  0  0  0  0  0  0
    5.3070    0.5600    0.2360 H   0  0  0  0  0  0  0  0  0  0  0  0
    5.8717   -1.3560    1.2817 H   0  0  0  0  0  0  0  0  0  0  0  0
    5.1881   -0.6841    2.7748 H   0  0  0  0  0  0  0  0  0  0  0  0
    4.7764   -3.1679    0.1116 H   0  0  0  0  0  0  0  0  0  0  0  0
    3.0401   -4.9051    0.0675 H   0  0  0  0  0  0  0  0  0  0  0  0
    1.1777   -3.1681    3.5292 H   0  0  0  0  0  0  0  0  0  0  0  0
    2.8515   -1.3492    3.5188 H   0  0  0  0  0  0  0  0  0  0  0  0
   -1.9410   -3.6514    2.7308 H   0  0  0  0  0  0  0  0  0  0  0  0
    0.3156   -1.3188    0.0681 H   0  0  0  0  0  0  0  0  0  0  0  0
    0.5497    0.8703    1.6280 H   0  0  0  0  0  0  0  0  0  0  0  0
   -0.3161    0.8932    3.1771 H   0  0  0  0  0  0  0  0  0  0  0  0
   -2.0392    0.7607    0.6723 H   0  0  0  0  0  0  0  0  0  0  0  0
   -4.8681    2.2363    4.1352 H   0  0  0  0  0  0  0  0  0  0  0  0
   -4.9377    3.2956    2.6733 H   0  0  0  0  0  0  0  0  0  0  0  0
   -6.0323    1.8846    2.8088 H   0  0  0  0  0  0  0  0  0  0  0  0
   -5.3981   -0.1383    2.0320 H   0  0  0  0  0  0  0  0  0  0  0  0
   -3.6759   -0.6445    2.1049 H   0  0  0  0  0  0  0  0  0  0  0  0
   -4.3152    0.2469    0.6586 H   0  0  0  0  0  0  0  0  0  0  0  0
   -0.3601    3.1824    1.2685 H   0  0  0  0  0  0  0  0  0  0  0  0
   -2.0199    3.6396   -2.3950 H   0  0  0  0  0  0  0  0  0  0  0  0
   -4.0128    2.5133   -1.8087 H   0  0  0  0  0  0  0  0  0  0  0  0
   -3.1766    1.1525   -1.0591 H   0  0  0  0  0  0  0  0  0  0  0  0
   -3.3582    1.7977   -4.0517 H   0  0  0  0  0  0  0  0  0  0  0  0
   -2.2380    0.5616   -3.4364 H   0  0  0  0  0  0  0  0  0  0  0  0
   -5.0111   -1.5816   -2.0342 H   0  0  0  0  0  0  0  0  0  0  0  0
   -2.8524   -2.0133   -3.9678 H   0  0  0  0  0  0  0  0  0  0  0  0
   -4.6049   -3.7521   -2.8715 H   0  0  0  0  0  0  0  0  0  0  0  0
   -2.9870   -4.2675   -3.4165 H   0  0  0  0  0  0  0  0  0  0  0  0
    0.1078   -2.6799   -1.9685 H   0  0  0  0  0  0  0  0  0  0  0  0
   -0.4997    1.0799   -1.8516 H   0  0  0  0  0  0  0  0  0  0  0  0
   -0.0679    4.7607   -2.7106 H   0  0  0  0  0  0  0  0  0  0  0  0
    1.6431    4.5635   -4.4541 H   0  0  0  0  0  0  0  0  0  0  0  0
    2.0579    5.8031   -3.2082 H   0  0  0  0  0  0  0  0  0  0  0  0
    2.9195    4.2223   -3.2272 H   0  0  0  0  0  0  0  0  0  0  0  0
    0.6085    5.1210   -0.5782 H   0  0  0  0  0  0  0  0  0  0  0  0
    3.0755    2.5362   -1.8635 H   0  0  0  0  0  0  0  0  0  0  0  0
    4.0495    2.6996   -0.3938 H   0  0  0  0  0  0  0  0  0  0  0  0
    1.4402    1.1251   -0.5185 H   0  0  0  0  0  0  0  0  0  0  0  0
  1  2  1  0
  2  3  2  0
  2  4  1  0
  4  5  1  0
  5  6  1  0
  6  7  1  0
  7  8  1  0
  8  9  2  0
  9 10  1  0
 10 11  2  0
 11 12  1  0
 10 13  1  0
 13 14  1  0
 14 15  2  0
 15 16  1  0
 16 17  1  0
 17 18  2  0
 18 19  1  0
 19 20  2  0
 19 21  1  0
 21 22  1  0
 22 23  1  0
 23 24  2  0
 23 25  1  0
 25 26  1  0
 25 27  1  0
 22 28  1  0
 28 29  1  0
 29 30  2  0
 29 31  1  0
 31 32  1  0
 32 33  1  0
 33 34  1  0
 34 35  2  0
 34 36  1  0
 36 37  1  0
 37 38  1  0
 38 39  1  0
 39 40  1  0
 40 41  1  0
 41 42  1  0
 42 43  2  0
 40 44  1  6
 44 45  1  0
 44 46  1  0
 44 47  1  0
 47 48  1  0
 47 49  1  0
 31 50  1  0
 50 51  1  0
 51 52  2  0
 51 53  1  0
 53 54  1  0
 53 55  1  0
 55 56  1  0
 56 57  2  0
 56 58  1  0
 58 59  1  0
 59 60  1  0
 60 61  2  0
 60  5  1  0
 12  7  2  0
 47 14  1  0
 40 15  1  0
 20 16  1  0
 42 37  1  0
  1 62  1  0
  1 63  1  0
  1 64  1  0
  4 65  1  0
  5 66  1  6
  6 67  1  0
  6 68  1  0
  8 69  1  0
  9 70  1  0
 11 71  1  0
 12 72  1  0
 17 73  1  0
 20 74  1  0
 21 75  1  0
 21 76  1  0
 22 77  1  6
 26 78  1  0
 26 79  1  0
 26 80  1  0
 27 81  1  0
 27 82  1  0
 27 83  1  0
 28 84  1  0
 31 85  1  6
 32 86  1  0
 32 87  1  0
 33 88  1  0
 33 89  1  0
 36 90  1  0
 37 91  1  6
 38 92  1  0
 38 93  1  0
 41 94  1  0
 50 95  1  0
 53 96  1  6
 54 97  1  0
 54 98  1  0
 54 99  1  0
 55100  1  0
 58101  1  0
 58102  1  0
 59103  1  0
M  END
$$$$
