
     RDKit          3D

 76 81  0  0  0  0  0  0  0  0999 V2000
    8.7363   -0.2916    2.3010 C   0  0  0  0  0  0  0  0  0  0  0  0
    7.4277   -0.4415    2.0988 C   0  0  0  0  0  0  0  0  0  0  0  0
    6.7701   -0.0453    0.8307 C   0  0  0  0  0  0  0  0  0  0  0  0
    7.4840    0.3367   -0.1380 O   0  0  0  0  0  0  0  0  0  0  0  0
    5.3326   -0.1102    0.6737 N   0  0  0  0  0  0  0  0  0  0  0  0
    4.4639   -0.2161    1.8584 C   0  0  0  0  0  0  0  0  0  0  0  0
    3.0134    0.2127    1.5629 C   0  0  2  0  0  0  0  0  0  0  0  0
    2.1347   -0.0757    2.7928 C   0  0  0  0  0  0  0  0  0  0  0  0
    2.5077   -0.4553    0.3456 N   0  0  0  0  0  0  0  0  0  0  0  0
    1.1096   -0.7404    0.1752 C   0  0  0  0  0  0  0  0  0  0  0  0
    0.6418   -1.9582    0.5403 N   0  0  0  0  0  0  0  0  0  0  0  0
   -0.6760   -2.2701    0.4788 C   0  0  0  0  0  0  0  0  0  0  0  0
   -1.0502   -3.4040    0.8838 O   0  0  0  0  0  0  0  0  0  0  0  0
   -1.5866   -1.3621   -0.0046 N   0  0  0  0  0  0  0  0  0  0  0  0
   -1.1640   -0.0999   -0.3364 C   0  0  0  0  0  0  0  0  0  0  0  0
   -2.0730    0.8780   -0.5944 N   0  0  0  0  0  0  0  0  0  0  0  0
   -1.7250    2.1809   -0.7256 C   0  0  0  0  0  0  0  0  0  0  0  0
   -0.3707    2.5400   -0.7454 C   0  0  0  0  0  0  0  0  0  0  0  0
    0.0059    3.8366   -0.8823 F   0  0  0  0  0  0  0  0  0  0  0  0
    0.5960    1.5597   -0.5278 C   0  0  0  0  0  0  0  0  0  0  0  0
    0.2041    0.2406   -0.2513 C   0  0  0  0  0  0  0  0  0  0  0  0
   -2.7744    3.2057   -0.6643 C   0  0  0  0  0  0  0  0  0  0  0  0
   -2.9742    4.0040   -1.8082 C   0  0  0  0  0  0  0  0  0  0  0  0
   -2.2022    3.8341   -2.9127 F   0  0  0  0  0  0  0  0  0  0  0  0
   -3.9847    4.9644   -1.8354 C   0  0  0  0  0  0  0  0  0  0  0  0
   -4.8133    5.1376   -0.7314 C   0  0  0  0  0  0  0  0  0  0  0  0
   -4.6294    4.3583    0.4100 C   0  0  0  0  0  0  0  0  0  0  0  0
   -3.6106    3.3973    0.4827 C   0  0  0  0  0  0  0  0  0  0  0  0
   -3.5268    2.7068    1.7179 O   0  0  0  0  0  0  0  0  0  0  0  0
   -2.4711    1.9024    2.2618 C   0  0  0  0  0  0  0  0  0  0  0  0
   -2.8723    0.4160    2.3131 C   0  0  0  0  0  0  0  0  0  0  0  0
   -3.8207    0.1402    1.2869 O   0  0  0  0  0  0  0  0  0  0  0  0
   -4.0077   -1.0750    0.6140 C   0  0  0  0  0  0  0  0  0  0  0  0
   -5.3153   -1.5617    0.5655 C   0  0  0  0  0  0  0  0  0  0  0  0
   -5.6211   -2.6633   -0.2217 C   0  0  0  0  0  0  0  0  0  0  0  0
   -4.6617   -3.2330   -0.9883 N   0  0  0  0  0  0  0  0  0  0  0  0
   -3.3672   -2.8100   -0.9804 C   0  0  0  0  0  0  0  0  0  0  0  0
   -2.4201   -3.4284   -1.9952 C   0  0  0  0  0  0  0  0  0  0  0  0
   -2.8566   -3.0541   -3.4159 C   0  0  0  0  0  0  0  0  0  0  0  0
   -2.3683   -4.9531   -1.8318 C   0  0  0  0  0  0  0  0  0  0  0  0
   -2.9830   -1.7431   -0.1174 C   0  0  0  0  0  0  0  0  0  0  0  0
    3.4261   -0.9361   -0.6912 C   0  0  0  0  0  0  0  0  0  0  0  0
    4.7604   -0.1671   -0.6843 C   0  0  1  0  0  0  0  0  0  0  0  0
    4.6132    1.2467   -1.2649 C   0  0  0  0  0  0  0  0  0  0  0  0
    9.1763   -0.6027    3.2405 H   0  0  0  0  0  0  0  0  0  0  0  0
    9.3813    0.1400    1.5465 H   0  0  0  0  0  0  0  0  0  0  0  0
    6.8410   -0.8821    2.8935 H   0  0  0  0  0  0  0  0  0  0  0  0
    4.8538    0.4424    2.6658 H   0  0  0  0  0  0  0  0  0  0  0  0
    4.4809   -1.2682    2.2196 H   0  0  0  0  0  0  0  0  0  0  0  0
    2.9981    1.3110    1.4001 H   0  0  0  0  0  0  0  0  0  0  0  0
    2.0508   -1.1704    2.9647 H   0  0  0  0  0  0  0  0  0  0  0  0
    2.5724    0.3971    3.6984 H   0  0  0  0  0  0  0  0  0  0  0  0
    1.1177    0.3494    2.6520 H   0  0  0  0  0  0  0  0  0  0  0  0
    1.6353    1.8524   -0.5057 H   0  0  0  0  0  0  0  0  0  0  0  0
   -4.1325    5.5711   -2.7196 H   0  0  0  0  0  0  0  0  0  0  0  0
   -5.6004    5.8801   -0.7581 H   0  0  0  0  0  0  0  0  0  0  0  0
   -5.2815    4.5132    1.2604 H   0  0  0  0  0  0  0  0  0  0  0  0
   -2.2915    2.2404    3.3038 H   0  0  0  0  0  0  0  0  0  0  0  0
   -1.5079    2.0593    1.7489 H   0  0  0  0  0  0  0  0  0  0  0  0
   -1.9720   -0.2236    2.2369 H   0  0  0  0  0  0  0  0  0  0  0  0
   -3.3492    0.1943    3.2911 H   0  0  0  0  0  0  0  0  0  0  0  0
   -6.1009   -1.0649    1.1209 H   0  0  0  0  0  0  0  0  0  0  0  0
   -6.6348   -3.0376   -0.2621 H   0  0  0  0  0  0  0  0  0  0  0  0
   -1.3872   -3.0462   -1.8752 H   0  0  0  0  0  0  0  0  0  0  0  0
   -2.1431   -3.4716   -4.1590 H   0  0  0  0  0  0  0  0  0  0  0  0
   -2.8699   -1.9484   -3.5309 H   0  0  0  0  0  0  0  0  0  0  0  0
   -3.8708   -3.4510   -3.6373 H   0  0  0  0  0  0  0  0  0  0  0  0
   -1.6262   -5.3863   -2.5358 H   0  0  0  0  0  0  0  0  0  0  0  0
   -2.0608   -5.2191   -0.7987 H   0  0  0  0  0  0  0  0  0  0  0  0
   -3.3608   -5.4079   -2.0391 H   0  0  0  0  0  0  0  0  0  0  0  0
    3.6260   -2.0158   -0.5163 H   0  0  0  0  0  0  0  0  0  0  0  0
    2.9516   -0.8431   -1.6935 H   0  0  0  0  0  0  0  0  0  0  0  0
    5.4492   -0.7337   -1.3507 H   0  0  0  0  0  0  0  0  0  0  0  0
    4.0329    1.9032   -0.5862 H   0  0  0  0  0  0  0  0  0  0  0  0
    5.6147    1.7033   -1.4114 H   0  0  0  0  0  0  0  0  0  0  0  0
    4.1059    1.2120   -2.2530 H   0  0  0  0  0  0  0  0  0  0  0  0
  1  2  2  3
  2  3  1  0
  3  4  2  0
  3  5  1  0
  5  6  1  0
  6  7  1  0
  7  8  1  0
  7  9  1  0
  9 10  1  0
 10 11  2  0
 11 12  1  0
 12 13  2  0
 12 14  1  0
 14 15  1  0
 15 16  2  0
 16 17  1  0
 17 18  2  0
 18 19  1  0
 18 20  1  0
 20 21  2  0
 17 22  1  0
 22 23  2  0
 23 24  1  0
 23 25  1  0
 25 26  2  0
 26 27  1  0
 27 28  2  0
 28 29  1  0
 29 30  1  0
 30 31  1  0
 31 32  1  0
 32 33  1  0
 33 34  2  0
 34 35  1  0
 35 36  2  0
 36 37  1  0
 37 38  1  0
 38 39  1  0
 38 40  1  0
 37 41  2  0
  9 42  1  0
 42 43  1  0
 43 44  1  0
 43  5  1  0
 21 10  1  0
 28 22  1  0
 41 33  1  0
 41 14  1  0
 21 15  1  0
  1 45  1  0
  1 46  1  0
  2 47  1  0
  6 48  1  0
  6 49  1  0
  7 50  1  6
  8 51  1  0
  8 52  1  0
  8 53  1  0
 20 54  1  0
 25 55  1  0
 26 56  1  0
 27 57  1  0
 30 58  1  0
 30 59  1  0
 31 60  1  0
 31 61  1  0
 34 62  1  0
 35 63  1  0
 38 64  1  0
 39 65  1  0
 39 66  1  0
 39 67  1  0
 40 68  1  0
 40 69  1  0
 40 70  1  0
 42 71  1  0
 42 72  1  0
 43 73  1  6
 44 74  1  0
 44 75  1  0
 44 76  1  0
M  END
$$$$
