
     RDKit          3D

 60 64  0  0  0  0  0  0  0  0999 V2000
   -0.0053   -2.6417   -2.5171 O   0  0  0  0  0  0  0  0  0  0  0  0
    0.2455   -1.8466   -1.5711 C   0  0  0  0  0  0  0  0  0  0  0  0
   -0.3550   -2.1430   -0.2281 C   0  0  0  0  0  0  0  0  0  0  0  0
   -1.6261   -1.5014   -0.1585 O   0  0  0  0  0  0  0  0  0  0  0  0
   -2.7699   -1.9236    0.5449 C   0  0  0  0  0  0  0  0  0  0  0  0
   -2.9999   -3.2797    0.8509 C   0  0  0  0  0  0  0  0  0  0  0  0
   -4.1696   -3.6683    1.5056 C   0  0  0  0  0  0  0  0  0  0  0  0
   -5.1244   -2.7180    1.8604 C   0  0  0  0  0  0  0  0  0  0  0  0
   -4.9098   -1.3693    1.5755 C   0  0  0  0  0  0  0  0  0  0  0  0
   -3.7392   -0.9533    0.9171 C   0  0  0  0  0  0  0  0  0  0  0  0
   -3.4855    0.5370    0.7170 C   0  0  1  0  0  0  0  0  0  0  0  0
   -2.2844    0.9654    1.6045 C   0  0  0  0  0  0  0  0  0  0  0  0
   -1.6452    2.2865    1.1793 C   0  0  0  0  0  0  0  0  0  0  0  0
   -1.3235    2.2852   -0.3284 C   0  0  2  0  0  0  0  0  0  0  0  0
   -2.6596    2.2184   -1.0749 C   0  0  0  0  0  0  0  0  0  0  0  0
   -3.3743    0.8877   -0.7971 C   0  0  0  0  0  0  0  0  0  0  0  0
   -0.5329    1.1770   -0.7427 O   0  0  0  0  0  0  0  0  0  0  0  0
    0.7295    1.1361   -0.1041 C   0  0  0  0  0  0  0  0  0  0  0  0
    1.6952    0.1715   -0.8453 C   0  0  0  0  0  0  0  0  0  0  0  0
    2.7762    0.9361   -1.6508 C   0  0  1  0  0  0  0  0  0  0  0  0
    4.0695    0.2257   -1.6497 N   0  0  0  0  0  0  0  0  0  0  0  0
    5.0998    0.7708   -0.3560 S   0  0  0  0  0  6  0  0  0  0  0  0
    5.5226    2.1868   -0.6278 O   0  0  0  0  0  0  0  0  0  0  0  0
    6.3257   -0.0998   -0.3225 O   0  0  0  0  0  0  0  0  0  0  0  0
    4.2475    0.7223    1.2229 C   0  0  0  0  0  0  0  0  0  0  0  0
    4.2289   -0.6412    1.8938 C   0  0  0  0  0  0  0  0  0  0  0  0
    5.1352    0.4582    2.4280 C   0  0  0  0  0  0  0  0  0  0  0  0
    2.2291    0.9683   -3.0769 C   0  0  0  0  0  0  0  0  0  0  0  0
    1.3497   -0.2656   -3.2021 C   0  0  0  0  0  0  0  0  0  0  0  0
    1.0001   -0.6459   -1.8416 N   0  0  0  0  0  0  0  0  0  0  0  0
    0.2913   -1.7754    0.5933 H   0  0  0  0  0  0  0  0  0  0  0  0
   -0.4380   -3.2409   -0.1247 H   0  0  0  0  0  0  0  0  0  0  0  0
   -2.3046   -4.0517    0.5627 H   0  0  0  0  0  0  0  0  0  0  0  0
   -4.3430   -4.7139    1.7262 H   0  0  0  0  0  0  0  0  0  0  0  0
   -6.0306   -3.0260    2.3657 H   0  0  0  0  0  0  0  0  0  0  0  0
   -5.6564   -0.6484    1.8795 H   0  0  0  0  0  0  0  0  0  0  0  0
   -4.3602    1.1160    1.0919 H   0  0  0  0  0  0  0  0  0  0  0  0
   -1.4960    0.1888    1.6272 H   0  0  0  0  0  0  0  0  0  0  0  0
   -2.6351    1.0663    2.6552 H   0  0  0  0  0  0  0  0  0  0  0  0
   -0.7266    2.4686    1.7767 H   0  0  0  0  0  0  0  0  0  0  0  0
   -2.3404    3.1234    1.4156 H   0  0  0  0  0  0  0  0  0  0  0  0
   -0.8207    3.2403   -0.6028 H   0  0  0  0  0  0  0  0  0  0  0  0
   -2.4759    2.3128   -2.1668 H   0  0  0  0  0  0  0  0  0  0  0  0
   -3.3142    3.0652   -0.7738 H   0  0  0  0  0  0  0  0  0  0  0  0
   -2.8571    0.0979   -1.3744 H   0  0  0  0  0  0  0  0  0  0  0  0
   -4.3991    0.9427   -1.2247 H   0  0  0  0  0  0  0  0  0  0  0  0
    1.1716    2.1533   -0.0044 H   0  0  0  0  0  0  0  0  0  0  0  0
    0.6088    0.7413    0.9261 H   0  0  0  0  0  0  0  0  0  0  0  0
    2.1802   -0.4953   -0.1013 H   0  0  0  0  0  0  0  0  0  0  0  0
    2.9211    1.9850   -1.3083 H   0  0  0  0  0  0  0  0  0  0  0  0
    3.9358   -0.8085   -1.5578 H   0  0  0  0  0  0  0  0  0  0  0  0
    3.3676    1.3729    1.4102 H   0  0  0  0  0  0  0  0  0  0  0  0
    3.3289   -0.8299    2.5160 H   0  0  0  0  0  0  0  0  0  0  0  0
    4.7639   -1.4553    1.3614 H   0  0  0  0  0  0  0  0  0  0  0  0
    6.2145    0.2938    2.2254 H   0  0  0  0  0  0  0  0  0  0  0  0
    4.7743    0.9144    3.3732 H   0  0  0  0  0  0  0  0  0  0  0  0
    1.6034    1.8790   -3.2098 H   0  0  0  0  0  0  0  0  0  0  0  0
    3.0369    0.9754   -3.8413 H   0  0  0  0  0  0  0  0  0  0  0  0
    0.4331   -0.0384   -3.7877 H   0  0  0  0  0  0  0  0  0  0  0  0
    1.9166   -1.0890   -3.6884 H   0  0  0  0  0  0  0  0  0  0  0  0
  1  2  2  0
  2  3  1  0
  3  4  1  0
  4  5  1  0
  5  6  2  0
  6  7  1  0
  7  8  2  0
  8  9  1  0
  9 10  2  0
 10 11  1  0
 11 12  1  0
 12 13  1  0
 13 14  1  0
 14 15  1  0
 15 16  1  0
 14 17  1  0
 17 18  1  0
 18 19  1  0
 19 20  1  0
 20 21  1  0
 21 22  1  0
 22 23  2  0
 22 24  2  0
 22 25  1  0
 25 26  1  0
 26 27  1  0
 20 28  1  0
 28 29  1  0
 29 30  1  0
 30  2  1  0
 10  5  1  0
 16 11  1  0
 30 19  1  0
 27 25  1  0
  3 31  1  0
  3 32  1  0
  6 33  1  0
  7 34  1  0
  8 35  1  0
  9 36  1  0
 11 37  1  1
 12 38  1  0
 12 39  1  0
 13 40  1  0
 13 41  1  0
 14 42  1  6
 15 43  1  0
 15 44  1  0
 16 45  1  0
 16 46  1  0
 18 47  1  0
 18 48  1  0
 19 49  1  0
 20 50  1  1
 21 51  1  0
 25 52  1  0
 26 53  1  0
 26 54  1  0
 27 55  1  0
 27 56  1  0
 28 57  1  0
 28 58  1  0
 29 59  1  0
 29 60  1  0
M  END
$$$$
