
     RDKit          3D

 93 95  0  0  0  0  0  0  0  0999 V2000
   -8.4220   -0.4856    4.2357 C   0  0  0  0  0  0  0  0  0  0  0  0
   -7.6103   -0.0934    3.0371 C   0  0  0  0  0  0  0  0  0  0  0  0
   -6.4124    0.6238    3.1865 C   0  0  0  0  0  0  0  0  0  0  0  0
   -5.6429    0.9549    2.0662 C   0  0  0  0  0  0  0  0  0  0  0  0
   -6.0538    0.5555    0.7852 C   0  0  0  0  0  0  0  0  0  0  0  0
   -5.0992    0.9779   -0.6394 S   0  0  0  0  0  6  0  0  0  0  0  0
   -4.3697    2.2654   -0.3824 O   0  0  0  0  0  0  0  0  0  0  0  0
   -6.0377    1.2047   -1.7896 O   0  0  0  0  0  0  0  0  0  0  0  0
   -3.9536   -0.2757   -1.0607 N   0  0  0  0  0  0  0  0  0  0  0  0
   -4.6638   -1.5317   -1.3199 C   0  0  0  0  0  0  0  0  0  0  0  0
   -2.9306   -0.4506   -0.0108 C   0  0  0  0  0  0  0  0  0  0  0  0
   -1.6447    0.3371   -0.3420 C   0  0  2  0  0  0  0  0  0  0  0  0
   -1.0891   -0.1081   -1.5681 O   0  0  0  0  0  0  0  0  0  0  0  0
   -1.4345    0.7157   -2.6667 C   0  0  0  0  0  0  0  0  0  0  0  0
   -0.5869    2.0035   -2.7100 C   0  0  0  0  0  0  0  0  0  0  0  0
   -0.2013    2.4391   -4.1317 C   0  0  0  0  0  0  0  0  0  0  0  0
    0.8790    1.5697   -4.8158 C   0  0  0  0  0  0  0  0  0  0  0  0
    2.2075    1.4766   -4.0309 C   0  0  2  0  0  0  0  0  0  0  0  0
    3.3522    1.0890   -4.9766 C   0  0  0  0  0  0  0  0  0  0  0  0
    2.0767    0.4721   -3.0192 O   0  0  0  0  0  0  0  0  0  0  0  0
    2.8352    0.3570   -1.8363 C   0  0  0  0  0  0  0  0  0  0  0  0
    3.9310    1.1954   -1.5674 C   0  0  0  0  0  0  0  0  0  0  0  0
    4.6630    1.0488   -0.3876 C   0  0  0  0  0  0  0  0  0  0  0  0
    4.3181    0.0600    0.5462 C   0  0  0  0  0  0  0  0  0  0  0  0
    5.1012   -0.1481    1.7336 N   0  0  0  0  0  0  0  0  0  0  0  0
    5.7501    0.9077    2.4577 C   0  0  0  0  0  0  0  0  0  0  0  0
    5.3794    2.1037    2.3062 O   0  0  0  0  0  0  0  0  0  0  0  0
    6.7957    0.5675    3.4878 C   0  0  0  0  0  0  0  0  0  0  0  0
    7.9574    1.5688    3.4635 C   0  0  0  0  0  0  0  0  0  0  0  0
    9.1133    1.1360    4.3688 C   0  0  0  0  0  0  0  0  0  0  0  0
    9.6067   -0.0907    3.9584 F   0  0  0  0  0  0  0  0  0  0  0  0
   10.1263    2.0711    4.2870 F   0  0  0  0  0  0  0  0  0  0  0  0
    8.6791    1.0490    5.6827 F   0  0  0  0  0  0  0  0  0  0  0  0
    3.2297   -0.7826    0.2822 C   0  0  0  0  0  0  0  0  0  0  0  0
    2.4683   -0.6235   -0.8862 C   0  0  0  0  0  0  0  0  0  0  0  0
    1.3009   -1.5014   -1.1320 C   0  0  0  0  0  0  0  0  0  0  0  0
    1.0801   -1.8808   -2.3134 O   0  0  0  0  0  0  0  0  0  0  0  0
    0.4755   -2.0329   -0.0680 N   0  0  0  0  0  0  0  0  0  0  0  0
    0.3409   -3.5113   -0.0417 C   0  0  1  0  0  0  0  0  0  0  0  0
    0.5724   -4.1047    1.3573 C   0  0  0  0  0  0  0  0  0  0  0  0
   -1.0180   -3.9711   -0.6081 C   0  0  0  0  0  0  0  0  0  0  0  0
   -1.1647   -3.5523   -1.9466 O   0  0  0  0  0  0  0  0  0  0  0  0
   -0.0062   -1.2239    1.0813 C   0  0  0  0  0  0  0  0  0  0  0  0
   -0.6070    0.1927    0.8149 C   0  0  1  0  0  0  0  0  0  0  0  0
    0.4511    1.2984    0.8104 C   0  0  0  0  0  0  0  0  0  0  0  0
   -7.2419   -0.1642    0.6398 C   0  0  0  0  0  0  0  0  0  0  0  0
   -8.0066   -0.5063    1.7580 C   0  0  0  0  0  0  0  0  0  0  0  0
   -8.0674   -1.4617    4.6120 H   0  0  0  0  0  0  0  0  0  0  0  0
   -9.4924   -0.5689    3.9718 H   0  0  0  0  0  0  0  0  0  0  0  0
   -8.3233    0.2707    5.0385 H   0  0  0  0  0  0  0  0  0  0  0  0
   -6.0799    0.9328    4.1681 H   0  0  0  0  0  0  0  0  0  0  0  0
   -4.7250    1.5111    2.1963 H   0  0  0  0  0  0  0  0  0  0  0  0
   -3.9545   -2.2848   -1.7172 H   0  0  0  0  0  0  0  0  0  0  0  0
   -5.1314   -1.9279   -0.3934 H   0  0  0  0  0  0  0  0  0  0  0  0
   -5.4441   -1.3852   -2.0918 H   0  0  0  0  0  0  0  0  0  0  0  0
   -2.6587   -1.5154    0.1036 H   0  0  0  0  0  0  0  0  0  0  0  0
   -3.3153   -0.1331    0.9798 H   0  0  0  0  0  0  0  0  0  0  0  0
   -1.9298    1.4117   -0.3836 H   0  0  0  0  0  0  0  0  0  0  0  0
   -1.2664    0.1177   -3.5747 H   0  0  0  0  0  0  0  0  0  0  0  0
   -2.5085    0.9729   -2.6814 H   0  0  0  0  0  0  0  0  0  0  0  0
    0.3285    1.8970   -2.1053 H   0  0  0  0  0  0  0  0  0  0  0  0
   -1.1653    2.8228   -2.2330 H   0  0  0  0  0  0  0  0  0  0  0  0
   -1.1179    2.4458   -4.7706 H   0  0  0  0  0  0  0  0  0  0  0  0
    0.1817    3.4824   -4.0926 H   0  0  0  0  0  0  0  0  0  0  0  0
    0.4862    0.5442   -5.0159 H   0  0  0  0  0  0  0  0  0  0  0  0
    1.0817    2.0320   -5.8106 H   0  0  0  0  0  0  0  0  0  0  0  0
    2.4148    2.4647   -3.5795 H   0  0  0  0  0  0  0  0  0  0  0  0
    3.1962    0.0691   -5.3918 H   0  0  0  0  0  0  0  0  0  0  0  0
    3.4177    1.8137   -5.8197 H   0  0  0  0  0  0  0  0  0  0  0  0
    4.3276    1.1027   -4.4440 H   0  0  0  0  0  0  0  0  0  0  0  0
    4.2362    1.9643   -2.2652 H   0  0  0  0  0  0  0  0  0  0  0  0
    5.5192    1.6933   -0.2255 H   0  0  0  0  0  0  0  0  0  0  0  0
    5.1633   -1.1179    2.1246 H   0  0  0  0  0  0  0  0  0  0  0  0
    6.3290    0.5688    4.4997 H   0  0  0  0  0  0  0  0  0  0  0  0
    7.1798   -0.4642    3.2926 H   0  0  0  0  0  0  0  0  0  0  0  0
    7.5893    2.5685    3.8072 H   0  0  0  0  0  0  0  0  0  0  0  0
    8.3427    1.6635    2.4192 H   0  0  0  0  0  0  0  0  0  0  0  0
    2.9842   -1.5687    0.9761 H   0  0  0  0  0  0  0  0  0  0  0  0
    1.1362   -3.9667   -0.6774 H   0  0  0  0  0  0  0  0  0  0  0  0
    1.4770   -3.6671    1.8254 H   0  0  0  0  0  0  0  0  0  0  0  0
   -0.3059   -3.9405    2.0264 H   0  0  0  0  0  0  0  0  0  0  0  0
    0.7155   -5.1980    1.2706 H   0  0  0  0  0  0  0  0  0  0  0  0
   -1.8518   -3.5412    0.0000 H   0  0  0  0  0  0  0  0  0  0  0  0
   -1.1030   -5.0818   -0.5495 H   0  0  0  0  0  0  0  0  0  0  0  0
   -0.6540   -4.2108   -2.5090 H   0  0  0  0  0  0  0  0  0  0  0  0
   -0.7973   -1.7922    1.6004 H   0  0  0  0  0  0  0  0  0  0  0  0
    0.8010   -1.1394    1.8337 H   0  0  0  0  0  0  0  0  0  0  0  0
   -1.1740    0.4162    1.7452 H   0  0  0  0  0  0  0  0  0  0  0  0
    1.1771    1.1577    1.6404 H   0  0  0  0  0  0  0  0  0  0  0  0
   -0.0372    2.2826    0.9494 H   0  0  0  0  0  0  0  0  0  0  0  0
    1.0049    1.3349   -0.1312 H   0  0  0  0  0  0  0  0  0  0  0  0
   -7.5659   -0.4900   -0.3409 H   0  0  0  0  0  0  0  0  0  0  0  0
   -8.9151   -1.0771    1.6273 H   0  0  0  0  0  0  0  0  0  0  0  0
  1  2  1  0
  2  3  2  0
  3  4  1  0
  4  5  2  0
  5  6  1  0
  6  7  2  0
  6  8  2  0
  6  9  1  0
  9 10  1  0
  9 11  1  0
 11 12  1  0
 12 13  1  0
 13 14  1  0
 14 15  1  0
 15 16  1  0
 16 17  1  0
 17 18  1  0
 18 19  1  0
 18 20  1  0
 20 21  1  0
 21 22  2  0
 22 23  1  0
 23 24  2  0
 24 25  1  0
 25 26  1  0
 26 27  2  0
 26 28  1  0
 28 29  1  0
 29 30  1  0
 30 31  1  0
 30 32  1  0
 30 33  1  0
 24 34  1  0
 34 35  2  0
 35 36  1  0
 36 37  2  0
 36 38  1  0
 38 39  1  0
 39 40  1  0
 39 41  1  0
 41 42  1  0
 38 43  1  0
 43 44  1  0
 44 45  1  0
  5 46  1  0
 46 47  2  0
 47  2  1  0
 44 12  1  0
 35 21  1  0
  1 48  1  0
  1 49  1  0
  1 50  1  0
  3 51  1  0
  4 52  1  0
 10 53  1  0
 10 54  1  0
 10 55  1  0
 11 56  1  0
 11 57  1  0
 12 58  1  6
 14 59  1  0
 14 60  1  0
 15 61  1  0
 15 62  1  0
 16 63  1  0
 16 64  1  0
 17 65  1  0
 17 66  1  0
 18 67  1  1
 19 68  1  0
 19 69  1  0
 19 70  1  0
 22 71  1  0
 23 72  1  0
 25 73  1  0
 28 74  1  0
 28 75  1  0
 29 76  1  0
 29 77  1  0
 34 78  1  0
 39 79  1  6
 40 80  1  0
 40 81  1  0
 40 82  1  0
 41 83  1  0
 41 84  1  0
 42 85  1  0
 43 86  1  0
 43 87  1  0
 44 88  1  1
 45 89  1  0
 45 90  1  0
 45 91  1  0
 46 92  1  0
 47 93  1  0
M  END
$$$$
